data_PCOD9536510
_publ_section_title
;
Structure prediction by ZEFSAII (Michael W. Deem and Ramdas Pophale) SiO2 
 PCOD9536510
Probable space group: I M M A
;
_chemical_formula_sum "Si O2"
_cell_formula_units_Z 100
_cell_length_a 17.377511
_cell_length_b 14.005991
_cell_length_c 20.343230
_cell_angle_alpha 90.000000
_cell_angle_beta 90.000000
_cell_angle_gamma 90.000000
_cell_volume 4951.323750
_symmetry_space_group_name_H-M "I M M A"
_symmetry_group_IT_number 74
_symmetry_cell_setting 'orthorhombic'
loop_
_space_group_symop_operation_xyz
x,y,z
-x,1/2-y,z
x,-y,-z
-x,1/2+y,-z
-x,-y,-z
x,1/2+y,-z
-x,y,z
x,1/2-y,z
1/2+x,1/2+y,1/2+z
1/2-x,-y,1/2+z
1/2+x,1/2-y,1/2-z
1/2-x,y,1/2-z
1/2-x,1/2-y,1/2-z
1/2+x,y,1/2-z
1/2-x,1/2+y,1/2+z
1/2+x,-y,1/2+z
loop_
_atom_site_type_symbol
_atom_site_label
_atom_site_fract_x
_atom_site_fract_y
_atom_site_fract_z
Si Si1 0.863498 0.890644 0.483759
Si Si2 0.000000 0.250000 0.484966
Si Si3 0.805058 0.552313 0.351635
Si Si4 0.085425 0.863593 0.250075
Si Si5 0.753648 0.859561 0.906691
Si Si6 0.640567 0.136154 0.609534
Si Si7 0.913280 0.866551 0.965464
O O1 0.932534 0.830793 0.511442
O O2 0.856190 0.890725 0.405555
O O3 0.784761 0.861078 0.520512
O O4 0.875259 0.000000 0.500000
O O5 0.846597 0.576581 0.283879
O O6 0.794104 0.439185 0.366428
O O7 0.721188 0.593574 0.366718
O O8 0.099435 0.750000 0.260672
O O9 0.086017 0.879664 0.171900
O O10 0.000000 0.886887 0.276298
O O11 0.748938 0.750000 0.882251
O O12 0.842610 0.889586 0.916695
O O13 0.650398 0.250000 0.602344
O O14 0.608914 0.100818 0.539443
O O15 0.914343 0.750000 0.966983
O O16 0.000000 0.897454 0.948135
#
# Coordination Sequence:
#
# PCOD9536510 Si02
#       7
#    16   4  16  16  16  16  16
#     4  10  22  35  51  77 111 148 193 234 281 341
#     4  12  22  32  56  74 108 156 192 240 280 330
#     4  11  22  34  55  80 113 152 190 230 285 349
#     4  10  22  37  56  84 118 150 190 239 287 345
#     4  10  20  39  56  78 115 155 191 236 287 341
#     4  10  19  34  57  82 114 149 185 225 289 349
#     4   9  17  31  57  85 114 149 187 231 281 340
#
# _framework density 20.196618999999998
#
# number of rings (size 3 to 8) (size 9 to 14) (size 15 to 20)
#    0.000    1.920    2.400    1.680    3.360    3.200 
#    1.440    2.400    0.000    1.920    0.000    0.000 
#    0.000    0.000    0.000    0.000    0.000    0.000 
#
# Total GULP energy -278432.071943 kJ/mol
# GULP energy per Si atom -5568.641439 kJ/mol
# Density = 2.015065 g / cm^3
# Si number density = 20.196619 Si / 1000 Ang^3
#
#
#
# Elastic Constant Matrix: (Units=GPa)
#
#
# Indices 1 2 3 4 5 6 
#
# 1 104.6753 24.8687 4.4826 0.0000 0.0000 0.0000
# 2 24.8687 61.0213 11.5121 0.0000 0.0000 0.0000
# 3 4.4826 11.5121 41.1768 0.0000 0.0000 0.0000
# 4 0.0000 0.0000 0.0000 34.5627 0.0000 0.0000
# 5 0.0000 0.0000 0.0000 0.0000 11.1231 0.0000
# 6 0.0000 0.0000 0.0000 0.0000 0.0000 27.3467
#
#
#
# Elastic Compliance Matrix: (Units=1/GPa)
#
#
# Indices 1 2 3 4 5 6 
#
# 1 0.010578 -0.004322 0.000057 0.000000 0.000000 0.000000
# 2 -0.004322 0.019066 -0.004860 0.000000 0.000000 0.000000
# 3 0.000057 -0.004860 0.025638 0.000000 0.000000 0.000000
# 4 0.000000 0.000000 0.000000 0.028933 0.000000 0.000000
# 5 0.000000 0.000000 0.000000 0.000000 0.089903 0.000000
# 6 0.000000 0.000000 0.000000 0.000000 0.000000 0.036567
#
#
# Mechanical properties :
#
#
# Convention : Reuss Voigt Hill
#
# Bulk Modulus (GPa) = 27.00366 32.06667 29.53517
# Shear Modulus (GPa) = 20.72298 25.67384 23.19841
#
# Velocity S-wave (km/s) = 3.20670 3.56925 3.39282
# Velocity P-wave (km/s) = 5.20672 5.73566 5.47758
#
# Compressibility (1/GPa) = 0.03703202
#
# Stress axis : x y z
#
# Youngs Moduli (GPa) = 94.53914 52.45008 39.00453
#
# Poissons Ratio (x) = 0.22666 -0.00221
# Poissons Ratio (y) = 0.40855 0.18956
# Poissons Ratio (z) = -0.00536 0.25490
#
# Static dielectric constant tensor:
#      x y z
#    x 1.734660 0.000000 0.000000 
#    y 0.000000 1.800940 0.000000 
#    z 0.000000 0.000000 1.746050 
# 
# From -- ./inp_files/53085.got.cif
#   From: 2010.05.17/outbox.cif.g08.bks.cpg/sg74_27_cif.got.tgz:53085.got - 2010.06.03 17:57:02.
