data_PCOD9536733
_publ_section_title
;
Structure prediction by ZEFSAII (Michael W. Deem and Ramdas Pophale) SiO2 
 PCOD9536733
Probable space group: I M M A
;
_chemical_formula_sum "Si O2"
_cell_formula_units_Z 104
_cell_length_a 23.350636
_cell_length_b 28.827061
_cell_length_c 8.732179
_cell_angle_alpha 90.000000
_cell_angle_beta 90.000000
_cell_angle_gamma 90.000000
_cell_volume 5877.893470
_symmetry_space_group_name_H-M "I M M A"
_symmetry_group_IT_number 74
_symmetry_cell_setting 'orthorhombic'
loop_
_space_group_symop_operation_xyz
x,y,z
-x,1/2-y,z
x,-y,-z
-x,1/2+y,-z
-x,-y,-z
x,1/2+y,-z
-x,y,z
x,1/2-y,z
1/2+x,1/2+y,1/2+z
1/2-x,-y,1/2+z
1/2+x,1/2-y,1/2-z
1/2-x,y,1/2-z
1/2-x,1/2-y,1/2-z
1/2+x,y,1/2-z
1/2-x,1/2+y,1/2+z
1/2+x,-y,1/2+z
loop_
_atom_site_type_symbol
_atom_site_label
_atom_site_fract_x
_atom_site_fract_y
_atom_site_fract_z
Si Si1 0.347354 0.880803 0.330251
Si Si2 0.750000 0.167786 0.250000
Si Si3 0.432415 0.122477 0.239271
Si Si4 0.259824 0.044871 0.573923
Si Si5 0.361290 0.803255 0.575422
Si Si6 0.067078 0.553329 0.024648
Si Si7 0.170297 0.608123 0.522438
O O1 0.297787 0.908669 0.421992
O O2 0.359411 0.833464 0.419730
O O3 0.398978 0.917578 0.347784
O O4 0.331303 0.874223 0.153262
O O5 0.701956 0.194673 0.347799
O O6 0.788626 0.137478 0.365926
O O7 0.500000 0.127211 0.206662
O O8 0.405387 0.169004 0.314500
O O9 0.424874 0.082539 0.368073
O O10 0.392485 0.109482 0.095935
O O11 0.250000 0.033704 0.750000
O O12 0.200760 0.058062 0.490581
O O13 0.287240 0.000000 0.500000
O O14 0.377699 0.750000 0.552211
O O15 0.000000 0.553403 0.062077
O O16 0.084268 0.500000 0.000000
#
# Coordination Sequence:
#
# PCOD9536733 Si02
#       7
#    16   8  16  16  16  16  16
#     4  10  20  36  52  80 114 142 184 230 278 325
#     4  10  19  36  56  76 112 140 182 218 271 328
#     4   9  20  37  57  80 109 143 181 226 272 327
#     4  10  21  32  51  77 109 146 185 227 276 325
#     4  10  20  35  59  82 106 140 177 223 275 327
#     4   9  18  34  56  79 107 145 187 228 275 329
#     4  10  21  35  55  77 112 147 182 225 275 328
#
# _framework density 17.693414000000001
#
# number of rings (size 3 to 8) (size 9 to 14) (size 15 to 20)
#    0.000    2.308    1.538    0.692    1.077    3.385 
#    0.000    4.615    0.000    3.231    0.000    0.000 
#    0.000    0.000    0.000    0.000    0.000    0.000 
#
# Total GULP energy -289758.646775 kJ/mol
# GULP energy per Si atom -5572.281669 kJ/mol
# Density = 1.765314 g / cm^3
# Si number density = 17.693414 Si / 1000 Ang^3
#
#
#
# Elastic Constant Matrix: (Units=GPa)
#
#
# Indices 1 2 3 4 5 6 
#
# 1 115.1431 42.3056 38.8717 0.0000 0.0000 0.0000
# 2 42.3056 125.1614 45.0151 0.0000 0.0000 0.0000
# 3 38.8717 45.0151 57.9214 0.0000 0.0000 0.0000
# 4 0.0000 0.0000 0.0000 12.6653 0.0000 0.0000
# 5 0.0000 0.0000 0.0000 0.0000 17.2601 0.0000
# 6 0.0000 0.0000 0.0000 0.0000 0.0000 5.7800
#
#
#
# Elastic Compliance Matrix: (Units=1/GPa)
#
#
# Indices 1 2 3 4 5 6 
#
# 1 0.011437 -0.001534 -0.006483 0.000000 0.000000 0.000000
# 2 -0.001534 0.011295 -0.007749 0.000000 0.000000 0.000000
# 3 -0.006483 -0.007749 0.027638 0.000000 0.000000 0.000000
# 4 0.000000 0.000000 0.000000 0.078956 0.000000 0.000000
# 5 0.000000 0.000000 0.000000 0.000000 0.057937 0.000000
# 6 0.000000 0.000000 0.000000 0.000000 0.000000 0.173010
#
#
# Mechanical properties :
#
#
# Convention : Reuss Voigt Hill
#
# Bulk Modulus (GPa) = 53.08452 61.17896 57.13174
# Shear Modulus (GPa) = 12.56013 18.60997 15.58505
#
# Velocity S-wave (km/s) = 2.66724 3.24667 2.97111
# Velocity P-wave (km/s) = 6.28913 6.97902 6.64304
#
# Compressibility (1/GPa) = 0.01883788
#
# Stress axis : x y z
#
# Youngs Moduli (GPa) = 87.43346 88.53391 36.18200
#
# Poissons Ratio (x) = 0.13582 0.23458
# Poissons Ratio (y) = 0.13413 0.28037
# Poissons Ratio (z) = 0.56687 0.68603
#
# Static dielectric constant tensor:
#      x y z
#    x 1.652310 0.000000 0.000000 
#    y 0.000000 1.592530 0.000000 
#    z 0.000000 0.000000 1.604050 
# 
# From -- ./inp_files/14153.got.cif
#   From: 2010.05.17/outbox.cif.g08.bks.cpg/sg74_8_cif.got.tgz:14153.got - 2010.06.03 17:57:02.
