data_PCOD9536538
_publ_section_title
;
Structure prediction by ZEFSAII (Michael W. Deem and Ramdas Pophale) SiO2 
 PCOD9536538
Probable space group: I M M A
;
_chemical_formula_sum "Si O2"
_cell_formula_units_Z 104
_cell_length_a 8.461171
_cell_length_b 23.786456
_cell_length_c 25.161284
_cell_angle_alpha 90.000000
_cell_angle_beta 90.000000
_cell_angle_gamma 90.000000
_cell_volume 5063.992015
_symmetry_space_group_name_H-M "I M M A"
_symmetry_group_IT_number 74
_symmetry_cell_setting 'orthorhombic'
loop_
_space_group_symop_operation_xyz
x,y,z
-x,1/2-y,z
x,-y,-z
-x,1/2+y,-z
-x,-y,-z
x,1/2+y,-z
-x,y,z
x,1/2-y,z
1/2+x,1/2+y,1/2+z
1/2-x,-y,1/2+z
1/2+x,1/2-y,1/2-z
1/2-x,y,1/2-z
1/2-x,1/2-y,1/2-z
1/2+x,y,1/2-z
1/2-x,1/2+y,1/2+z
1/2+x,-y,1/2+z
loop_
_atom_site_type_symbol
_atom_site_label
_atom_site_fract_x
_atom_site_fract_y
_atom_site_fract_z
Si Si1 0.311687 0.104360 0.306541
Si Si2 0.179587 0.517072 0.334148
Si Si3 0.677111 0.535010 0.947855
Si Si4 0.319797 0.853818 0.582212
Si Si5 0.689468 0.312474 0.973102
Si Si6 0.806502 0.134456 0.633144
Si Si7 0.309487 0.750000 0.190184
O O1 0.500000 0.107434 0.308250
O O2 0.250000 0.125140 0.250000
O O3 0.250718 0.139526 0.357979
O O4 0.263909 0.038466 0.311971
O O5 0.171527 0.504903 0.397143
O O6 0.250228 0.579765 0.333943
O O7 0.000000 0.517205 0.312397
O O8 0.500000 0.561640 0.952234
O O9 0.806219 0.581981 0.937842
O O10 0.705628 0.500000 0.000000
O O11 0.500000 0.834470 0.586086
O O12 0.237705 0.821455 0.534121
O O13 0.500000 0.313233 0.970662
O O14 0.742857 0.250000 0.956532
O O15 0.743357 0.357975 0.928873
O O16 0.759882 0.192510 0.661255
O O17 0.000000 0.129942 0.633408
O O18 0.500000 0.750000 0.188876
O O19 0.250000 0.750000 0.250000
#
# Coordination Sequence:
#
# PCOD9536538 Si02
#       7
#    16  16  16  16  16  16   8
#     4  10  21  37  55  76 105 140 178 217 266 324
#     4   9  17  29  49  75 102 133 170 212 258 308
#     4   9  16  28  47  72 101 134 172 210 250 308
#     4  10  21  34  50  77 110 140 169 214 276 332
#     4  10  19  34  58  83 106 140 186 228 265 315
#     4   9  17  33  55  78 104 139 181 224 268 310
#     4  10  20  36  54  72 100 138 181 226 267 308
#
# _framework density 20.537156
#
# number of rings (size 3 to 8) (size 9 to 14) (size 15 to 20)
#    0.000    2.462    0.769    1.846    0.000    5.538 
#    0.000    6.923    0.000    0.462    0.000    0.000 
#    0.000    0.000    0.000    0.000    0.000    0.000 
#
# Total GULP energy -289698.380869 kJ/mol
# GULP energy per Si atom -5571.122709 kJ/mol
# Density = 2.049041 g / cm^3
# Si number density = 20.537156 Si / 1000 Ang^3
#
#
#
# Elastic Constant Matrix: (Units=GPa)
#
#
# Indices 1 2 3 4 5 6 
#
# 1 7.3440 -3.7208 4.5030 0.0000 0.0000 0.0000
# 2 -3.7208 32.2132 -9.5102 0.0000 0.0000 0.0000
# 3 4.5030 -9.5102 108.0781 0.0000 0.0000 0.0000
# 4 0.0000 0.0000 0.0000 19.4792 0.0000 0.0000
# 5 0.0000 0.0000 0.0000 0.0000 22.0076 0.0000
# 6 0.0000 0.0000 0.0000 0.0000 0.0000 -39.4832
#
#
#
# Elastic Compliance Matrix: (Units=1/GPa)
#
#
# Indices 1 2 3 4 5 6 
#
# 1 0.146970 0.015573 -0.004753 0.000000 0.000000 0.000000
# 2 0.015573 0.033521 0.002301 0.000000 0.000000 0.000000
# 3 -0.004753 0.002301 0.009653 0.000000 0.000000 0.000000
# 4 0.000000 0.000000 0.000000 0.051337 0.000000 0.000000
# 5 0.000000 0.000000 0.000000 0.000000 0.045439 0.000000
# 6 0.000000 0.000000 0.000000 0.000000 0.000000 -0.025327
#
#
# Mechanical properties :
#
#
# Convention : Reuss Voigt Hill
#
# Bulk Modulus (GPa) = 4.62139 14.46437 9.54288
# Shear Modulus (GPa) = 16.26120 10.82494 13.54307
#
# Velocity S-wave (km/s) = 2.81694 2.29834 2.57075
# Velocity P-wave (km/s) = 3.58264 3.75519 3.66993
#
# Compressibility (1/GPa) = 0.21638501
#
# Stress axis : x y z
#
# Youngs Moduli (GPa) = 6.80411 29.83188 103.59400
#
# Poissons Ratio (x) = -0.46456 0.49240
# Poissons Ratio (y) = -0.10596 -0.23835
# Poissons Ratio (z) = 0.03234 -0.06864
#
# Static dielectric constant tensor:
#      x y z
#    x 1.744900 0.000000 0.000000 
#    y 0.000000 1.771410 0.000000 
#    z 0.000000 0.000000 1.761550 
# 
# From -- ./inp_files/64771.got.cif
#   From: 2010.05.17/outbox.cif.g08.bks.cpg/sg74_33_cif.got.tgz:64771.got - 2010.06.03 17:57:02.
