data_PCOD9536355
_publ_section_title
;
Structure prediction by ZEFSAII (Michael W. Deem and Ramdas Pophale) SiO2 
 PCOD9536355
Probable space group: I M M A
;
_chemical_formula_sum "Si O2"
_cell_formula_units_Z 56
_cell_length_a 24.497351
_cell_length_b 22.234487
_cell_length_c 5.073459
_cell_angle_alpha 90.000000
_cell_angle_beta 90.000000
_cell_angle_gamma 90.000000
_cell_volume 2763.442253
_symmetry_space_group_name_H-M "I M M A"
_symmetry_group_IT_number 74
_symmetry_cell_setting 'orthorhombic'
loop_
_space_group_symop_operation_xyz
x,y,z
-x,1/2-y,z
x,-y,-z
-x,1/2+y,-z
-x,-y,-z
x,1/2+y,-z
-x,y,z
x,1/2-y,z
1/2+x,1/2+y,1/2+z
1/2-x,-y,1/2+z
1/2+x,1/2-y,1/2-z
1/2-x,y,1/2-z
1/2-x,1/2-y,1/2-z
1/2+x,y,1/2-z
1/2-x,1/2+y,1/2+z
1/2+x,-y,1/2+z
loop_
_atom_site_type_symbol
_atom_site_label
_atom_site_fract_x
_atom_site_fract_y
_atom_site_fract_z
Si Si1 0.301480 0.063592 0.613692
Si Si2 0.936478 0.680140 0.295921
Si Si3 0.105141 0.612753 0.787575
Si Si4 0.386164 0.000000 0.000000
O O1 0.250000 0.094454 0.750000
O O2 0.333228 0.100030 0.389151
O O3 0.280344 0.000000 0.500000
O O4 0.347714 0.042169 0.819732
O O5 0.925292 0.750000 0.237276
O O6 0.901209 0.656952 0.541346
O O7 0.000000 0.674557 0.372452
O O8 0.925516 0.640617 0.037254
O O9 0.083649 0.547379 0.688101
#
# Coordination Sequence:
#
# PCOD9536355 Si02
#       4
#    16  16  16   8
#     4  10  19  33  62  92 129 165 200 241 297 377
#     4  11  24  44  67  87 113 163 224 268 305 361
#     4  11  22  39  63  95 128 156 204 261 314 366
#     4  10  20  38  59  96 132 160 193 246 314 378
#
# _framework density 20.264582999999998
#
# number of rings (size 3 to 8) (size 9 to 14) (size 15 to 20)
#    0.000    1.429    4.286    1.714    0.000    2.286 
#    0.000    4.286    0.000    5.143    0.000    0.000 
#    0.000    0.000    0.000    0.000    0.000    0.000 
#
# Total GULP energy -156278.200457 kJ/mol
# GULP energy per Si atom -5581.364302 kJ/mol
# Density = 2.021846 g / cm^3
# Si number density = 20.264583 Si / 1000 Ang^3
#
#
#
# Elastic Constant Matrix: (Units=GPa)
#
#
# Indices 1 2 3 4 5 6 
#
# 1 47.9225 57.4782 34.5012 0.0000 0.0000 0.0000
# 2 57.4782 103.4651 61.4157 0.0000 0.0000 0.0000
# 3 34.5012 61.4157 142.7999 0.0000 0.0000 0.0000
# 4 0.0000 0.0000 0.0000 36.4063 0.0000 0.0000
# 5 0.0000 0.0000 0.0000 0.0000 23.0777 0.0000
# 6 0.0000 0.0000 0.0000 0.0000 0.0000 19.6220
#
#
#
# Elastic Compliance Matrix: (Units=1/GPa)
#
#
# Indices 1 2 3 4 5 6 
#
# 1 0.062538 -0.034608 -0.000225 0.000000 0.000000 0.000000
# 2 -0.034608 0.032130 -0.005457 0.000000 0.000000 0.000000
# 3 -0.000225 -0.005457 0.009404 0.000000 0.000000 0.000000
# 4 0.000000 0.000000 0.000000 0.027468 0.000000 0.000000
# 5 0.000000 0.000000 0.000000 0.000000 0.043332 0.000000
# 6 0.000000 0.000000 0.000000 0.000000 0.000000 0.050963
#
#
# Mechanical properties :
#
#
# Convention : Reuss Voigt Hill
#
# Bulk Modulus (GPa) = 42.56837 66.77529 54.67183
# Shear Modulus (GPa) = 15.91101 25.20737 20.55919
#
# Velocity S-wave (km/s) = 2.80512 3.53074 3.18864
# Velocity P-wave (km/s) = 5.61636 7.04590 6.37135
#
# Compressibility (1/GPa) = 0.02349162
#
# Stress axis : x y z
#
# Youngs Moduli (GPa) = 15.99021 31.12310 106.33513
#
# Poissons Ratio (x) = 1.07712 0.02394
# Poissons Ratio (y) = 0.55340 0.58029
# Poissons Ratio (z) = 0.00360 0.16984
#
# Static dielectric constant tensor:
#      x y z
#    x 1.723990 0.000000 0.000000 
#    y 0.000000 1.719430 0.000000 
#    z 0.000000 0.000000 1.798170 
# 
# From -- ./inp_files/3618.got.cif
#   From: 2010.05.17/outbox.cif.g08.bks.cpg/sg74_2_cif.got.tgz:3618.got - 2010.06.03 17:57:02.
