data_PCOD9536687
_publ_section_title
;
Structure prediction by ZEFSAII (Michael W. Deem and Ramdas Pophale) SiO2 
 PCOD9536687
Probable space group: I M M A
;
_chemical_formula_sum "Si O2"
_cell_formula_units_Z 80
_cell_length_a 22.204862
_cell_length_b 17.997080
_cell_length_c 9.753738
_cell_angle_alpha 90.000000
_cell_angle_beta 90.000000
_cell_angle_gamma 90.000000
_cell_volume 3897.814898
_symmetry_space_group_name_H-M "I M M A"
_symmetry_group_IT_number 74
_symmetry_cell_setting 'orthorhombic'
loop_
_space_group_symop_operation_xyz
x,y,z
-x,1/2-y,z
x,-y,-z
-x,1/2+y,-z
-x,-y,-z
x,1/2+y,-z
-x,y,z
x,1/2-y,z
1/2+x,1/2+y,1/2+z
1/2-x,-y,1/2+z
1/2+x,1/2-y,1/2-z
1/2-x,y,1/2-z
1/2-x,1/2-y,1/2-z
1/2+x,y,1/2-z
1/2-x,1/2+y,1/2+z
1/2+x,-y,1/2+z
loop_
_atom_site_type_symbol
_atom_site_label
_atom_site_fract_x
_atom_site_fract_y
_atom_site_fract_z
Si Si1 0.370193 0.333805 0.411307
Si Si2 0.500000 0.878827 0.505957
Si Si3 0.500000 0.010869 0.730167
Si Si4 0.570784 0.838853 0.859234
Si Si5 0.388619 0.941088 0.100370
Si Si6 0.182525 0.662430 0.191740
O O1 0.349302 0.250000 0.387691
O O2 0.438181 0.335372 0.471665
O O3 0.383175 0.366241 0.260214
O O4 0.327705 0.362973 0.533120
O O5 0.500000 0.912511 0.354634
O O6 0.500000 0.948164 0.612880
O O7 0.441673 0.012792 0.825753
O O8 0.500000 0.849768 0.823234
O O9 0.578765 0.750000 0.870577
O O10 0.583702 0.878855 0.000776
O O11 0.352521 0.895938 0.214016
O O12 0.355596 0.000000 0.000000
O O13 0.161753 0.750000 0.199119
O O14 0.250000 0.662491 0.250000
#
# Coordination Sequence:
#
# PCOD9536687 Si02
#       6
#    16   8   8  16  16  16
#     4  10  19  35  60  87 117 153 197 251 306 362
#     4  11  19  34  53  91 122 160 191 246 299 373
#     4  11  23  34  55  85 133 167 192 232 310 378
#     4  10  20  34  56  89 127 159 196 248 308 373
#     4  12  23  39  57  90 125 166 198 245 311 380
#     4  10  23  45  67  85 113 158 217 269 304 350
#
# _framework density 20.524321
#
# number of rings (size 3 to 8) (size 9 to 14) (size 15 to 20)
#    0.000    1.400    4.000    2.400    0.000    0.000 
#    0.000    5.000    0.000    4.800    0.000    0.000 
#    0.000    0.000    0.000    0.000    0.000    0.000 
#
# Total GULP energy -222956.954499 kJ/mol
# GULP energy per Si atom -5573.923862 kJ/mol
# Density = 2.047761 g / cm^3
# Si number density = 20.524321 Si / 1000 Ang^3
#
#
#
# Elastic Constant Matrix: (Units=GPa)
#
#
# Indices 1 2 3 4 5 6 
#
# 1 51.9844 14.5433 30.1622 0.0000 0.0000 0.0000
# 2 14.5433 60.4955 38.0063 0.0000 0.0000 0.0000
# 3 30.1622 38.0063 136.4162 0.0000 0.0000 0.0000
# 4 0.0000 0.0000 0.0000 45.0409 0.0000 0.0000
# 5 0.0000 0.0000 0.0000 0.0000 6.6570 0.0000
# 6 0.0000 0.0000 0.0000 0.0000 0.0000 14.8540
#
#
#
# Elastic Compliance Matrix: (Units=1/GPa)
#
#
# Indices 1 2 3 4 5 6 
#
# 1 0.022442 -0.002761 -0.004193 0.000000 0.000000 0.000000
# 2 -0.002761 0.020377 -0.005067 0.000000 0.000000 0.000000
# 3 -0.004193 -0.005067 0.009669 0.000000 0.000000 0.000000
# 4 0.000000 0.000000 0.000000 0.022202 0.000000 0.000000
# 5 0.000000 0.000000 0.000000 0.000000 0.150217 0.000000
# 6 0.000000 0.000000 0.000000 0.000000 0.000000 0.067322
#
#
# Mechanical properties :
#
#
# Convention : Reuss Voigt Hill
#
# Bulk Modulus (GPa) = 35.15301 46.03551 40.59426
# Shear Modulus (GPa) = 15.34909 24.38934 19.86922
#
# Velocity S-wave (km/s) = 2.73765 3.45093 3.11478
# Velocity P-wave (km/s) = 5.21130 6.19330 5.72340
#
# Compressibility (1/GPa) = 0.02844707
#
# Stress axis : x y z
#
# Youngs Moduli (GPa) = 44.56005 49.07486 103.42181
#
# Poissons Ratio (x) = 0.13549 0.43362
# Poissons Ratio (y) = 0.12303 0.52401
# Poissons Ratio (z) = 0.18683 0.24865
#
# Static dielectric constant tensor:
#      x y z
#    x 1.718360 0.000000 0.000000 
#    y 0.000000 1.776830 0.000000 
#    z 0.000000 0.000000 1.757950 
# 
# From -- ./inp_files/13677.got.cif
#   From: 2010.05.17/outbox.cif.g08.bks.cpg/sg74_7_cif.got.tgz:13677.got - 2010.06.03 17:57:02.
