data_PCOD9536808
_publ_section_title
;
Structure prediction by ZEFSAII (Michael W. Deem and Ramdas Pophale) SiO2 
 PCOD9536808
Probable space group: I M M A
;
_chemical_formula_sum "Si O2"
_cell_formula_units_Z 64
_cell_length_a 13.950731
_cell_length_b 7.826589
_cell_length_c 28.419119
_cell_angle_alpha 90.000000
_cell_angle_beta 90.000000
_cell_angle_gamma 90.000000
_cell_volume 3102.988052
_symmetry_space_group_name_H-M "I M M A"
_symmetry_group_IT_number 74
_symmetry_cell_setting 'orthorhombic'
loop_
_space_group_symop_operation_xyz
x,y,z
-x,1/2-y,z
x,-y,-z
-x,1/2+y,-z
-x,-y,-z
x,1/2+y,-z
-x,y,z
x,1/2-y,z
1/2+x,1/2+y,1/2+z
1/2-x,-y,1/2+z
1/2+x,1/2-y,1/2-z
1/2-x,y,1/2-z
1/2-x,1/2-y,1/2-z
1/2+x,y,1/2-z
1/2-x,1/2+y,1/2+z
1/2+x,-y,1/2+z
loop_
_atom_site_type_symbol
_atom_site_label
_atom_site_fract_x
_atom_site_fract_y
_atom_site_fract_z
Si Si1 0.883634 0.058528 0.237164
Si Si2 0.885533 0.250000 0.588093
Si Si3 0.241525 0.053221 0.448381
Si Si4 0.616851 0.750000 0.197091
Si Si5 0.611721 0.544123 0.367963
O O1 0.856603 0.250000 0.250802
O O2 0.000000 0.050056 0.237004
O O3 0.851356 0.916361 0.274088
O O4 0.855886 0.017923 0.183565
O O5 0.841639 0.418850 0.564491
O O6 0.853838 0.250000 0.642916
O O7 0.000000 0.250000 0.585675
O O8 0.209576 0.250000 0.448996
O O9 0.278190 0.000000 0.500000
O O10 0.323132 0.029346 0.409156
O O11 0.500000 0.750000 0.197000
O O12 0.500000 0.494914 0.373940
O O13 0.616494 0.750000 0.368763
#
# Coordination Sequence:
#
# PCOD9536808 Si02
#       5
#    16   8  16   8  16
#     4   9  16  29  54  90 130 172 209 245 299 373
#     4  11  26  47  70  96 122 163 223 278 334 383
#     4  12  25  46  68  93 128 164 210 273 332 379
#     4   9  18  35  59  88 126 163 205 266 317 369
#     4  10  19  36  65  98 135 177 213 246 305 386
#
# _framework density 20.62528
#
# number of rings (size 3 to 8) (size 9 to 14) (size 15 to 20)
#    0.000    1.750    3.750    0.750    0.000    4.000 
#    0.000    5.000    0.000    3.000    0.000    0.000 
#    0.000    0.000    0.000    0.000    0.000    0.000 
#
# Total GULP energy -178998.800336 kJ/mol
# GULP energy per Si atom -5593.712511 kJ/mol
# Density = 2.057834 g / cm^3
# Si number density = 20.625280 Si / 1000 Ang^3
#
#
#
# Elastic Constant Matrix: (Units=GPa)
#
#
# Indices 1 2 3 4 5 6 
#
# 1 85.2653 16.4770 7.8079 0.0000 0.0000 0.0000
# 2 16.4770 175.6082 49.0672 0.0000 0.0000 0.0000
# 3 7.8079 49.0672 74.3613 0.0000 0.0000 0.0000
# 4 0.0000 0.0000 0.0000 414.1745 0.0000 0.0000
# 5 0.0000 0.0000 0.0000 0.0000 30.9421 0.0000
# 6 0.0000 0.0000 0.0000 0.0000 0.0000 -1.8930
#
#
#
# Elastic Compliance Matrix: (Units=1/GPa)
#
#
# Indices 1 2 3 4 5 6 
#
# 1 0.011969 -0.000946 -0.000632 0.000000 0.000000 0.000000
# 2 -0.000946 0.007057 -0.004557 0.000000 0.000000 0.000000
# 3 -0.000632 -0.004557 0.016521 0.000000 0.000000 0.000000
# 4 0.000000 0.000000 0.000000 0.002414 0.000000 0.000000
# 5 0.000000 0.000000 0.000000 0.000000 0.032318 0.000000
# 6 0.000000 0.000000 0.000000 0.000000 0.000000 -0.528260
#
#
# Mechanical properties :
#
#
# Convention : Reuss Voigt Hill
#
# Bulk Modulus (GPa) = 42.96365 53.54877 48.25621
# Shear Modulus (GPa) = -11.41681 106.10353 47.34336
#
# Velocity S-wave (km/s) = -2.35528 7.18019 4.79624
# Velocity P-wave (km/s) = 3.67142 9.73443 7.35658
#
# Compressibility (1/GPa) = 0.02327549
#
# Stress axis : x y z
#
# Youngs Moduli (GPa) = 83.54999 141.71243 60.52861
#
# Poissons Ratio (x) = 0.13411 0.03827
# Poissons Ratio (y) = 0.07907 0.27582
# Poissons Ratio (z) = 0.05283 0.64577
#
# Static dielectric constant tensor:
#      x y z
#    x 1.745580 0.000000 0.000000 
#    y 0.000000 1.719750 0.000000 
#    z 0.000000 0.000000 1.691350 
# 
# From -- ./inp_files/59512.got.cif
#   From: 2010.05.17/outbox.cif.g08.bks.cpg/sg74_30_cif.got.tgz:59512.got - 2010.06.03 17:57:02.
