data_PCOD9536509
_publ_section_title
;
Structure prediction by ZEFSAII (Michael W. Deem and Ramdas Pophale) SiO2 
 PCOD9536509
Probable space group: I M M A
;
_chemical_formula_sum "Si O2"
_cell_formula_units_Z 80
_cell_length_a 28.747150
_cell_length_b 16.622787
_cell_length_c 7.917239
_cell_angle_alpha 90.000000
_cell_angle_beta 90.000000
_cell_angle_gamma 90.000000
_cell_volume 3783.314025
_symmetry_space_group_name_H-M "I M M A"
_symmetry_group_IT_number 74
_symmetry_cell_setting 'orthorhombic'
loop_
_space_group_symop_operation_xyz
x,y,z
-x,1/2-y,z
x,-y,-z
-x,1/2+y,-z
-x,-y,-z
x,1/2+y,-z
-x,y,z
x,1/2-y,z
1/2+x,1/2+y,1/2+z
1/2-x,-y,1/2+z
1/2+x,1/2-y,1/2-z
1/2-x,y,1/2-z
1/2-x,1/2-y,1/2-z
1/2+x,y,1/2-z
1/2-x,1/2+y,1/2+z
1/2+x,-y,1/2+z
loop_
_atom_site_type_symbol
_atom_site_label
_atom_site_fract_x
_atom_site_fract_y
_atom_site_fract_z
Si Si1 0.624557 0.847851 0.678149
Si Si2 0.294323 0.052200 0.158546
Si Si3 0.886709 0.652270 0.206166
Si Si4 0.552622 0.847501 0.980654
Si Si5 0.207673 0.162265 0.624212
O O1 0.635161 0.750000 0.681530
O O2 0.667463 0.906485 0.724573
O O3 0.607652 0.869265 0.489552
O O4 0.586117 0.864001 0.822215
O O5 0.250000 0.012393 0.250000
O O6 0.273878 0.124647 0.047128
O O7 0.313177 0.000000 0.000000
O O8 0.887956 0.750000 0.206325
O O9 0.924019 0.623827 0.344254
O O10 0.836098 0.625317 0.275053
O O11 0.500000 0.877151 0.959239
O O12 0.550672 0.750000 0.990907
O O13 0.189614 0.250000 0.574506
O O14 0.250000 0.168292 0.750000
#
# Coordination Sequence:
#
# PCOD9536509 Si02
#       5
#    16  16  16  16  16
#     4  10  20  36  60  88 116 154 200 240 286 347
#     4  12  25  39  55  80 117 155 196 242 295 349
#     4   9  17  31  53  84 117 148 189 238 286 339
#     4   9  17  31  54  87 125 156 186 239 298 341
#     4  10  19  34  57  82 111 146 188 239 289 344
#
# _framework density 21.145482999999999
#
# number of rings (size 3 to 8) (size 9 to 14) (size 15 to 20)
#    0.000    2.000    2.000    2.400    0.000    4.000 
#    0.000    4.000    0.000    0.600    0.000    1.400 
#    0.000    0.000    0.000    0.000    0.000    0.000 
#
# Total GULP energy -222851.511407 kJ/mol
# GULP energy per Si atom -5571.287785 kJ/mol
# Density = 2.109735 g / cm^3
# Si number density = 21.145483 Si / 1000 Ang^3
#
#
#
# Elastic Constant Matrix: (Units=GPa)
#
#
# Indices 1 2 3 4 5 6 
#
# 1 124.0490 13.0858 55.7637 0.0000 0.0000 0.0000
# 2 13.0858 25.6520 27.9327 0.0000 0.0000 0.0000
# 3 55.7637 27.9327 156.1903 0.0000 0.0000 0.0000
# 4 0.0000 0.0000 0.0000 35.8446 0.0000 0.0000
# 5 0.0000 0.0000 0.0000 0.0000 24.5238 0.0000
# 6 0.0000 0.0000 0.0000 0.0000 0.0000 25.9734
#
#
#
# Elastic Compliance Matrix: (Units=1/GPa)
#
#
# Indices 1 2 3 4 5 6 
#
# 1 0.009646 -0.001454 -0.003184 0.000000 0.000000 0.000000
# 2 -0.001454 0.048630 -0.008178 0.000000 0.000000 0.000000
# 3 -0.003184 -0.008178 0.009002 0.000000 0.000000 0.000000
# 4 0.000000 0.000000 0.000000 0.027898 0.000000 0.000000
# 5 0.000000 0.000000 0.000000 0.000000 0.040777 0.000000
# 6 0.000000 0.000000 0.000000 0.000000 0.000000 0.038501
#
#
# Mechanical properties :
#
#
# Convention : Reuss Voigt Hill
#
# Bulk Modulus (GPa) = 24.01154 55.49507 39.75331
# Shear Modulus (GPa) = 23.36816 31.20897 27.28857
#
# Velocity S-wave (km/s) = 3.32793 3.84593 3.59627
# Velocity P-wave (km/s) = 5.11340 6.78402 6.00707
#
# Compressibility (1/GPa) = 0.04164664
#
# Stress axis : x y z
#
# Youngs Moduli (GPa) = 103.67087 20.56349 111.09051
#
# Poissons Ratio (x) = 0.02989 0.35369
# Poissons Ratio (y) = 0.15071 0.90848
# Poissons Ratio (z) = 0.33007 0.16817
#
# Static dielectric constant tensor:
#      x y z
#    x 1.778550 0.000000 0.000000 
#    y 0.000000 1.913460 0.000000 
#    z 0.000000 0.000000 1.782720 
# 
# From -- ./inp_files/14899.got.cif
#   From: 2010.05.17/outbox.cif.g08.bks.cpg/sg74_8_cif.got.tgz:14899.got - 2010.06.03 17:57:02.
