data_PCOD9536609
_publ_section_title
;
Structure prediction by ZEFSAII (Michael W. Deem and Ramdas Pophale) SiO2 
 PCOD9536609
Probable space group: I M M A
;
_chemical_formula_sum "Si O2"
_cell_formula_units_Z 116
_cell_length_a 14.746329
_cell_length_b 18.635195
_cell_length_c 25.245799
_cell_angle_alpha 90.000000
_cell_angle_beta 90.000000
_cell_angle_gamma 90.000000
_cell_volume 6937.563653
_symmetry_space_group_name_H-M "I M M A"
_symmetry_group_IT_number 74
_symmetry_cell_setting 'orthorhombic'
loop_
_space_group_symop_operation_xyz
x,y,z
-x,1/2-y,z
x,-y,-z
-x,1/2+y,-z
-x,-y,-z
x,1/2+y,-z
-x,y,z
x,1/2-y,z
1/2+x,1/2+y,1/2+z
1/2-x,-y,1/2+z
1/2+x,1/2-y,1/2-z
1/2-x,y,1/2-z
1/2-x,1/2-y,1/2-z
1/2+x,y,1/2-z
1/2-x,1/2+y,1/2+z
1/2+x,-y,1/2+z
loop_
_atom_site_type_symbol
_atom_site_label
_atom_site_fract_x
_atom_site_fract_y
_atom_site_fract_z
Si Si1 0.750000 0.250000 0.250000
Si Si2 0.394124 0.440745 0.374144
Si Si3 0.892909 0.882371 0.759671
Si Si4 0.393403 0.420441 0.143432
Si Si5 0.233608 0.832235 0.464814
Si Si6 0.106461 0.559655 0.045277
Si Si7 0.891443 0.961489 0.443918
Si Si8 0.749187 0.170320 0.088308
O O1 0.827905 0.186307 0.241240
O O2 0.500000 0.424626 0.384307
O O3 0.375939 0.429221 0.312227
O O4 0.377740 0.518543 0.399257
O O5 0.330538 0.384642 0.404032
O O6 0.878720 0.928052 0.705943
O O7 0.000000 0.861501 0.760333
O O8 0.500000 0.407184 0.134279
O O9 0.367170 0.486026 0.104829
O O10 0.333070 0.353680 0.125265
O O11 0.231949 0.750000 0.445789
O O12 0.330291 0.871420 0.458481
O O13 0.160310 0.886384 0.440425
O O14 0.216528 0.830621 0.527982
O O15 0.000000 0.576665 0.039517
O O16 0.128668 0.500000 0.000000
O O17 0.000000 0.951478 0.444063
O O18 0.866996 0.000000 0.500000
O O19 0.779426 0.250000 0.103103
#
# Coordination Sequence:
#
# PCOD9536609 Si02
#       8
#     4  16  16  16  16  16  16  16
#     4  12  22  36  52  70 104 148 176 216 252 296
#     4  10  21  36  53  72  99 135 178 219 250 295
#     4  10  23  37  49  74 103 135 179 218 255 296
#     4  10  21  36  53  72  99 135 178 219 250 295
#     4  11  22  34  51  79 111 135 164 211 262 316
#     4  10  19  35  56  76  99 134 175 214 256 303
#     4  10  19  35  56  76  99 134 175 214 256 303
#     4  11  22  32  47  73 105 140 172 208 255 304
#
# _framework density 16.720566999999999
#
# number of rings (size 3 to 8) (size 9 to 14) (size 15 to 20)
#    0.000    1.655    2.759    2.276    3.862    1.103 
#    0.000    2.759    0.000    0.000    0.000    1.931 
#    0.000    5.517    0.000    0.000    0.000    0.000 
#
# Total GULP energy -323160.953969 kJ/mol
# GULP energy per Si atom -5571.740586 kJ/mol
# Density = 1.668251 g / cm^3
# Si number density = 16.720567 Si / 1000 Ang^3
#
#
#
# Elastic Constant Matrix: (Units=GPa)
#
#
# Indices 1 2 3 4 5 6 
#
# 1 30.0946 8.0484 5.2503 0.0000 0.0000 0.0000
# 2 8.0484 54.2655 11.2687 0.0000 0.0000 0.0000
# 3 5.2503 11.2687 73.5718 0.0000 0.0000 0.0000
# 4 0.0000 0.0000 0.0000 10.5512 0.0000 0.0000
# 5 0.0000 0.0000 0.0000 0.0000 13.6047 0.0000
# 6 0.0000 0.0000 0.0000 0.0000 0.0000 15.1522
#
#
#
# Elastic Compliance Matrix: (Units=1/GPa)
#
#
# Indices 1 2 3 4 5 6 
#
# 1 0.034818 -0.004801 -0.001749 0.000000 0.000000 0.000000
# 2 -0.004801 0.019695 -0.002674 0.000000 0.000000 0.000000
# 3 -0.001749 -0.002674 0.014127 0.000000 0.000000 0.000000
# 4 0.000000 0.000000 0.000000 0.094776 0.000000 0.000000
# 5 0.000000 0.000000 0.000000 0.000000 0.073504 0.000000
# 6 0.000000 0.000000 0.000000 0.000000 0.000000 0.065997
#
#
# Mechanical properties :
#
#
# Convention : Reuss Voigt Hill
#
# Bulk Modulus (GPa) = 19.92384 23.00742 21.46563
# Shear Modulus (GPa) = 14.78872 16.75258 15.77065
#
# Velocity S-wave (km/s) = 2.97722 3.16874 3.07447
# Velocity P-wave (km/s) = 4.87443 5.21322 5.04667
#
# Compressibility (1/GPa) = 0.05019112
#
# Stress axis : x y z
#
# Youngs Moduli (GPa) = 28.72111 50.77376 70.78855
#
# Poissons Ratio (x) = 0.24375 0.12384
# Poissons Ratio (y) = 0.13788 0.18929
# Poissons Ratio (z) = 0.05024 0.13577
#
# Static dielectric constant tensor:
#      x y z
#    x 1.587410 0.000000 0.000000 
#    y 0.000000 1.538440 0.000000 
#    z 0.000000 0.000000 1.602960 
# 
# From -- ./inp_files/60353.got.cif
#   From: 2010.05.17/outbox.cif.g08.bks.cpg/sg74_31_cif.got.tgz:60353.got - 2010.06.03 17:57:02.
