data_PCOD9536119
_publ_section_title
;
Structure prediction by ZEFSAII (Michael W. Deem and Ramdas Pophale) SiO2 
 PCOD9536119
Probable space group: I M M A
;
_chemical_formula_sum "Si O2"
_cell_formula_units_Z 128
_cell_length_a 15.645342
_cell_length_b 16.934154
_cell_length_c 22.880855
_cell_angle_alpha 90.000000
_cell_angle_beta 90.000000
_cell_angle_gamma 90.000000
_cell_volume 6062.068157
_symmetry_space_group_name_H-M "I M M A"
_symmetry_group_IT_number 74
_symmetry_cell_setting 'orthorhombic'
loop_
_space_group_symop_operation_xyz
x,y,z
-x,1/2-y,z
x,-y,-z
-x,1/2+y,-z
-x,-y,-z
x,1/2+y,-z
-x,y,z
x,1/2-y,z
1/2+x,1/2+y,1/2+z
1/2-x,-y,1/2+z
1/2+x,1/2-y,1/2-z
1/2-x,y,1/2-z
1/2-x,1/2-y,1/2-z
1/2+x,y,1/2-z
1/2-x,1/2+y,1/2+z
1/2+x,-y,1/2+z
loop_
_atom_site_type_symbol
_atom_site_label
_atom_site_fract_x
_atom_site_fract_y
_atom_site_fract_z
Si Si1 0.896657 0.457133 0.784124
Si Si2 0.595922 0.584773 0.032278
Si Si3 0.147360 0.868248 0.805054
Si Si4 0.602285 0.491076 0.846509
Si Si5 0.844739 0.163848 0.325493
Si Si6 0.101497 0.344499 0.890777
Si Si7 0.411002 0.838873 0.572944
Si Si8 0.275595 0.594013 0.494465
O O1 0.854807 0.536960 0.808301
O O2 0.868641 0.455772 0.715993
O O3 0.878692 0.385580 0.828204
O O4 0.000000 0.467563 0.784336
O O5 0.500000 0.620130 0.030004
O O6 0.622369 0.563995 0.098823
O O7 0.679387 0.627919 0.007415
O O8 0.588891 0.500000 0.000000
O O9 0.117706 0.844826 0.740329
O O10 0.243046 0.838352 0.815471
O O11 0.091597 0.837224 0.857631
O O12 0.500000 0.495435 0.844454
O O13 0.632470 0.581323 0.856142
O O14 0.869030 0.250000 0.350026
O O15 0.111716 0.250000 0.888200
O O16 0.164499 0.379735 0.940139
O O17 0.000000 0.360498 0.903478
O O18 0.173336 0.379553 0.051173
O O19 0.500000 0.877961 0.553703
O O20 0.409995 0.750000 0.549461
O O21 0.268870 0.500000 0.500000
#
# Coordination Sequence:
#
# PCOD9536119 Si02
#       8
#    16  16  16  16  16  16  16  16
#     4   9  18  33  56  85 112 147 194 239 286 344
#     4   9  20  39  61  85 111 143 192 247 303 357
#     4  10  19  33  51  80 118 157 197 236 270 332
#     4   9  19  35  57  84 111 144 192 245 294 350
#     4  10  20  32  51  82 121 161 194 231 285 342
#     4  10  21  38  59  86 125 163 194 241 305 365
#     4  11  23  37  55  81 118 161 198 236 287 348
#     4  11  23  36  59  87 113 150 202 247 297 353
#
# _framework density 21.114906000000001
#
# number of rings (size 3 to 8) (size 9 to 14) (size 15 to 20)
#    0.000    2.125    0.000    3.375    5.250    3.750 
#    0.000    0.000    0.000    3.750    0.000    3.500 
#    0.000    0.000    0.000    0.000    0.000    0.000 
#
# Total GULP energy -357060.115059 kJ/mol
# GULP energy per Si atom -5579.064298 kJ/mol
# Density = 2.106685 g / cm^3
# Si number density = 21.114906 Si / 1000 Ang^3
#
#
#
# Elastic Constant Matrix: (Units=GPa)
#
#
# Indices 1 2 3 4 5 6 
#
# 1 105.8402 27.0902 33.9997 0.0000 0.0000 0.0000
# 2 27.0902 57.5857 11.1347 0.0000 0.0000 0.0000
# 3 33.9997 11.1347 68.3621 0.0000 0.0000 0.0000
# 4 0.0000 0.0000 0.0000 7.7285 0.0000 0.0000
# 5 0.0000 0.0000 0.0000 0.0000 19.4003 0.0000
# 6 0.0000 0.0000 0.0000 0.0000 0.0000 21.6757
#
#
#
# Elastic Compliance Matrix: (Units=1/GPa)
#
#
# Indices 1 2 3 4 5 6 
#
# 1 0.012407 -0.004794 -0.005390 0.000000 0.000000 0.000000
# 2 -0.004794 0.019783 -0.000838 0.000000 0.000000 0.000000
# 3 -0.005390 -0.000838 0.017445 0.000000 0.000000 0.000000
# 4 0.000000 0.000000 0.000000 0.129391 0.000000 0.000000
# 5 0.000000 0.000000 0.000000 0.000000 0.051545 0.000000
# 6 0.000000 0.000000 0.000000 0.000000 0.000000 0.046135
#
#
# Mechanical properties :
#
#
# Convention : Reuss Voigt Hill
#
# Bulk Modulus (GPa) = 36.24349 41.80413 39.02381
# Shear Modulus (GPa) = 16.23662 20.39847 18.31754
#
# Velocity S-wave (km/s) = 2.77603 3.11154 2.94856
# Velocity P-wave (km/s) = 5.24188 5.72278 5.48760
#
# Compressibility (1/GPa) = 0.02759116
#
# Stress axis : x y z
#
# Youngs Moduli (GPa) = 80.60193 50.54889 57.32331
#
# Poissons Ratio (x) = 0.24235 0.30895
# Poissons Ratio (y) = 0.38644 0.04802
# Poissons Ratio (z) = 0.43441 0.04235
#
# Static dielectric constant tensor:
#      x y z
#    x 1.795560 0.000000 0.000000 
#    y 0.000000 1.773730 0.000000 
#    z 0.000000 0.000000 1.837120 
# 
# From -- ./inp_files/61113.got.cif
#   From: 2010.05.17/outbox.cif.g08.bks.cpg/sg74_31_cif.got.tgz:61113.got - 2010.06.03 17:57:02.
