data_PCOD9536463
_publ_section_title
;
Structure prediction by ZEFSAII (Michael W. Deem and Ramdas Pophale) SiO2 
 PCOD9536463
Probable space group: I M M A
;
_chemical_formula_sum "Si O2"
_cell_formula_units_Z 64
_cell_length_a 22.127479
_cell_length_b 7.828769
_cell_length_c 18.050031
_cell_angle_alpha 90.000000
_cell_angle_beta 90.000000
_cell_angle_gamma 90.000000
_cell_volume 3126.823506
_symmetry_space_group_name_H-M "I M M A"
_symmetry_group_IT_number 74
_symmetry_cell_setting 'orthorhombic'
loop_
_space_group_symop_operation_xyz
x,y,z
-x,1/2-y,z
x,-y,-z
-x,1/2+y,-z
-x,-y,-z
x,1/2+y,-z
-x,y,z
x,1/2-y,z
1/2+x,1/2+y,1/2+z
1/2-x,-y,1/2+z
1/2+x,1/2-y,1/2-z
1/2-x,y,1/2-z
1/2-x,1/2-y,1/2-z
1/2+x,y,1/2-z
1/2-x,1/2+y,1/2+z
1/2+x,-y,1/2+z
loop_
_atom_site_type_symbol
_atom_site_label
_atom_site_fract_x
_atom_site_fract_y
_atom_site_fract_z
Si Si1 0.500000 0.946009 0.657440
Si Si2 0.877690 0.543591 0.913079
Si Si3 0.746833 0.955527 0.912692
Si Si4 0.615008 0.954862 0.913065
Si Si5 0.000000 0.942187 0.318663
O O1 0.500000 0.750000 0.629737
O O2 0.437369 0.023292 0.627632
O O3 0.500000 0.944236 0.745711
O O4 0.876205 0.750000 0.905765
O O5 0.811936 0.481117 0.884235
O O6 0.882198 0.500000 0.000000
O O7 0.746285 0.750000 0.905115
O O8 0.681246 0.016510 0.885295
O O9 0.747088 0.000000 0.000000
O O10 0.612961 0.750000 0.906615
O O11 0.559151 0.027798 0.867982
O O12 0.609592 0.000000 0.000000
O O13 0.000000 0.750000 0.290483
#
# Coordination Sequence:
#
# PCOD9536463 Si02
#       5
#     8  16  16  16   8
#     4  10  21  36  52  72 103 140 174 208 247 294
#     4   9  17  31  53  80 106 133 167 205 247 295
#     4   8  15  28  49  77 104 129 160 201 246 293
#     4  10  19  34  56  79 103 131 165 205 250 300
#     4  12  25  38  51  70  99 134 173 214 255 300
#
# _framework density 20.468056000000001
#
# number of rings (size 3 to 8) (size 9 to 14) (size 15 to 20)
#    0.000    2.500    0.000    2.625    0.000    2.000 
#    0.000    1.250    0.000    7.500    0.000    0.000 
#    0.000    0.000    0.000    0.000    0.000    0.000 
#
# Total GULP energy -178332.250311 kJ/mol
# GULP energy per Si atom -5572.882822 kJ/mol
# Density = 2.042147 g / cm^3
# Si number density = 20.468056 Si / 1000 Ang^3
#
#
#
# Elastic Constant Matrix: (Units=GPa)
#
#
# Indices 1 2 3 4 5 6 
#
# 1 255.1347 6.8981 59.9159 0.0000 0.0000 0.0000
# 2 6.8981 36.9156 -12.5570 0.0000 0.0000 0.0000
# 3 59.9159 -12.5570 41.1375 0.0000 0.0000 0.0000
# 4 0.0000 0.0000 0.0000 17.9406 0.0000 0.0000
# 5 0.0000 0.0000 0.0000 0.0000 -12.9503 0.0000
# 6 0.0000 0.0000 0.0000 0.0000 0.0000 -37.6950
#
#
#
# Elastic Compliance Matrix: (Units=1/GPa)
#
#
# Indices 1 2 3 4 5 6 
#
# 1 0.006725 -0.005120 -0.011358 0.000000 0.000000 0.000000
# 2 -0.005120 0.034126 0.017874 0.000000 0.000000 0.000000
# 3 -0.011358 0.017874 0.046308 0.000000 0.000000 0.000000
# 4 0.000000 0.000000 0.000000 0.055740 0.000000 0.000000
# 5 0.000000 0.000000 0.000000 0.000000 -0.077219 0.000000
# 6 0.000000 0.000000 0.000000 0.000000 0.000000 -0.026529
#
#
# Mechanical properties :
#
#
# Convention : Reuss Voigt Hill
#
# Bulk Modulus (GPa) = 11.11727 49.07796 30.09762
# Shear Modulus (GPa) = 75.36629 12.05446 43.71037
#
# Velocity S-wave (km/s) = 6.07465 2.42944 4.62620
# Velocity P-wave (km/s) = 7.39223 5.64796 6.57817
#
# Compressibility (1/GPa) = 0.08995017
#
# Stress axis : x y z
#
# Youngs Moduli (GPa) = 148.69238 29.30354 21.59467
#
# Poissons Ratio (x) = 0.15004 0.24528
# Poissons Ratio (y) = 0.76134 -0.38599
# Poissons Ratio (z) = 1.68888 -0.52378
#
# Static dielectric constant tensor:
#      x y z
#    x 1.808880 0.000000 0.000000 
#    y 0.000000 1.751760 0.000000 
#    z 0.000000 0.000000 1.651460 
# 
# From -- ./inp_files/28889.got.cif
#   From: 2010.05.17/outbox.cif.g08.bks.cpg/sg74_15_cif.got.tgz:28889.got - 2010.06.03 17:57:02.
