data_PCOD9536491
_publ_section_title
;
Structure prediction by ZEFSAII (Michael W. Deem and Ramdas Pophale) SiO2 
 PCOD9536491
Probable space group: I M M A
;
_chemical_formula_sum "Si O2"
_cell_formula_units_Z 56
_cell_length_a 10.201259
_cell_length_b 8.459561
_cell_length_c 29.236454
_cell_angle_alpha 90.000000
_cell_angle_beta 90.000000
_cell_angle_gamma 90.000000
_cell_volume 2523.052559
_symmetry_space_group_name_H-M "I M M A"
_symmetry_group_IT_number 74
_symmetry_cell_setting 'orthorhombic'
loop_
_space_group_symop_operation_xyz
x,y,z
-x,1/2-y,z
x,-y,-z
-x,1/2+y,-z
-x,-y,-z
x,1/2+y,-z
-x,y,z
x,1/2-y,z
1/2+x,1/2+y,1/2+z
1/2-x,-y,1/2+z
1/2+x,1/2-y,1/2-z
1/2-x,y,1/2-z
1/2-x,1/2-y,1/2-z
1/2+x,y,1/2-z
1/2-x,1/2+y,1/2+z
1/2+x,-y,1/2+z
loop_
_atom_site_type_symbol
_atom_site_label
_atom_site_fract_x
_atom_site_fract_y
_atom_site_fract_z
Si Si1 0.000000 0.939328 0.050874
Si Si2 0.706181 0.439462 0.948578
Si Si3 0.282192 0.061984 0.145930
Si Si4 0.000000 0.560449 0.179535
Si Si5 0.500000 0.559937 0.213532
O O1 0.144620 0.993937 0.063273
O O2 0.000000 0.750000 0.056192
O O3 0.000000 0.000000 0.000000
O O4 0.698424 0.250000 0.951139
O O5 0.648026 0.497523 0.900720
O O6 0.670441 0.500000 0.000000
O O7 0.278415 0.250000 0.142787
O O8 0.134546 0.000735 0.156908
O O9 0.372782 0.006491 0.187885
O O10 0.000000 0.750000 0.174605
O O11 0.000000 0.517664 0.232988
O O12 0.500000 0.750000 0.210181
#
# Coordination Sequence:
#
# PCOD9536491 Si02
#       5
#     8  16  16   8   8
#     4   8  15  26  45  73 107 148 193 244 297 350
#     4  10  19  34  56  85 124 168 213 260 313 375
#     4  12  25  41  65  98 133 170 214 265 323 384
#     4  11  24  44  70  98 128 167 215 266 324 387
#     4  11  25  46  69  93 127 171 216 266 325 387
#
# _framework density 22.195336999999999
#
# number of rings (size 3 to 8) (size 9 to 14) (size 15 to 20)
#    0.000    1.429    0.000    6.000    0.000    8.000 
#    0.000    3.571    0.000    0.000    0.000    0.000 
#    0.000    0.000    0.000    0.000    0.000    0.000 
#
# Total GULP energy -156064.448882 kJ/mol
# GULP energy per Si atom -5573.730317 kJ/mol
# Density = 2.214482 g / cm^3
# Si number density = 22.195337 Si / 1000 Ang^3
#
#
#
# Elastic Constant Matrix: (Units=GPa)
#
#
# Indices 1 2 3 4 5 6 
#
# 1 130.8136 20.7802 57.1992 0.0000 0.0000 0.0000
# 2 20.7802 82.6768 80.9657 0.0000 0.0000 0.0000
# 3 57.1992 80.9657 250.4399 0.0000 0.0000 0.0000
# 4 0.0000 0.0000 0.0000 35.5033 0.0000 0.0000
# 5 0.0000 0.0000 0.0000 0.0000 200.0695 0.0000
# 6 0.0000 0.0000 0.0000 0.0000 0.0000 30.2786
#
#
#
# Elastic Compliance Matrix: (Units=1/GPa)
#
#
# Indices 1 2 3 4 5 6 
#
# 1 0.008499 -0.000344 -0.001830 0.000000 0.000000 0.000000
# 2 -0.000344 0.017713 -0.005648 0.000000 0.000000 0.000000
# 3 -0.001830 -0.005648 0.006237 0.000000 0.000000 0.000000
# 4 0.000000 0.000000 0.000000 0.028166 0.000000 0.000000
# 5 0.000000 0.000000 0.000000 0.000000 0.004998 0.000000
# 6 0.000000 0.000000 0.000000 0.000000 0.000000 0.033027
#
#
# Mechanical properties :
#
#
# Convention : Reuss Voigt Hill
#
# Bulk Modulus (GPa) = 59.50609 86.86895 73.18752
# Shear Modulus (GPa) = 41.70643 73.50263 57.60453
#
# Velocity S-wave (km/s) = 4.33952 5.76091 5.09998
# Velocity P-wave (km/s) = 7.20950 9.13642 8.22955
#
# Compressibility (1/GPa) = 0.01680500
#
# Stress axis : x y z
#
# Youngs Moduli (GPa) = 117.65692 56.45664 160.33816
#
# Poissons Ratio (x) = 0.01943 0.29341
# Poissons Ratio (y) = 0.04050 0.90556
# Poissons Ratio (z) = 0.21530 0.31886
#
# Static dielectric constant tensor:
#      x y z
#    x 3.455900 0.000000 0.000000 
#    y 0.000000 1.765160 0.000000 
#    z 0.000000 0.000000 1.819590 
# 
# From -- ./inp_files/65540.got.cif
#   From: 2010.05.17/outbox.cif.g08.bks.cpg/sg74_33_cif.got.tgz:65540.got - 2010.06.03 17:57:02.
