data_PCOD9536530
_publ_section_title
;
Structure prediction by ZEFSAII (Michael W. Deem and Ramdas Pophale) SiO2 
 PCOD9536530
Probable space group: I M M A
;
_chemical_formula_sum "Si O2"
_cell_formula_units_Z 88
_cell_length_a 21.375551
_cell_length_b 19.778779
_cell_length_c 10.353107
_cell_angle_alpha 90.000000
_cell_angle_beta 90.000000
_cell_angle_gamma 90.000000
_cell_volume 4377.110382
_symmetry_space_group_name_H-M "I M M A"
_symmetry_group_IT_number 74
_symmetry_cell_setting 'orthorhombic'
loop_
_space_group_symop_operation_xyz
x,y,z
-x,1/2-y,z
x,-y,-z
-x,1/2+y,-z
-x,-y,-z
x,1/2+y,-z
-x,y,z
x,1/2-y,z
1/2+x,1/2+y,1/2+z
1/2-x,-y,1/2+z
1/2+x,1/2-y,1/2-z
1/2-x,y,1/2-z
1/2-x,1/2-y,1/2-z
1/2+x,y,1/2-z
1/2-x,1/2+y,1/2+z
1/2+x,-y,1/2+z
loop_
_atom_site_type_symbol
_atom_site_label
_atom_site_fract_x
_atom_site_fract_y
_atom_site_fract_z
Si Si1 0.622675 0.454515 0.626603
Si Si2 0.115926 0.669466 0.672658
Si Si3 0.500000 0.888579 0.967053
Si Si4 0.270587 0.328526 0.003162
Si Si5 0.124834 0.171943 0.043892
Si Si6 0.000000 0.022310 0.708594
Si Si7 0.250000 0.582765 0.250000
O O1 0.630094 0.500000 0.500000
O O2 0.610735 0.378360 0.573073
O O3 0.562785 0.476430 0.707616
O O4 0.687759 0.456572 0.705448
O O5 0.122556 0.750000 0.688623
O O6 0.061013 0.652399 0.574390
O O7 0.180195 0.644578 0.608133
O O8 0.100515 0.645434 0.817767
O O9 0.500000 0.956108 0.880157
O O10 0.500000 0.912974 0.113754
O O11 0.286368 0.250000 0.974137
O O12 0.269902 0.371250 0.872077
O O13 0.200253 0.328975 0.057100
O O14 0.105397 0.250000 0.021082
#
# Coordination Sequence:
#
# PCOD9536530 Si02
#       7
#    16  16   8  16  16   8   8
#     4  11  23  43  61  89 116 161 198 252 300 364
#     4  10  19  34  57  87 119 149 192 243 292 349
#     4  11  23  40  57  84 107 161 192 246 292 352
#     4   9  17  32  57  85 118 155 188 237 300 358
#     4   9  19  36  60  89 118 152 198 244 299 356
#     4  11  25  44  63  78 117 157 212 234 302 376
#     4  10  21  38  56  88 119 146 202 248 304 358
#
# _framework density 20.104588
#
# number of rings (size 3 to 8) (size 9 to 14) (size 15 to 20)
#    0.000    2.000    0.000    3.545    0.000    3.636 
#   16.364    3.182    0.000    0.000    0.000    0.000 
#    0.000    0.000    0.000    0.000    0.000    0.000 
#
# Total GULP energy -245684.256944 kJ/mol
# GULP energy per Si atom -5583.733112 kJ/mol
# Density = 2.005883 g / cm^3
# Si number density = 20.104588 Si / 1000 Ang^3
#
#
#
# Elastic Constant Matrix: (Units=GPa)
#
#
# Indices 1 2 3 4 5 6 
#
# 1 70.0642 16.2517 32.6382 0.0000 0.0000 0.0000
# 2 16.2517 34.7513 18.9747 0.0000 0.0000 0.0000
# 3 32.6382 18.9747 77.9652 0.0000 0.0000 0.0000
# 4 0.0000 0.0000 0.0000 31.4478 0.0000 0.0000
# 5 0.0000 0.0000 0.0000 0.0000 36.0720 0.0000
# 6 0.0000 0.0000 0.0000 0.0000 0.0000 63.9297
#
#
#
# Elastic Compliance Matrix: (Units=1/GPa)
#
#
# Indices 1 2 3 4 5 6 
#
# 1 0.018481 -0.005096 -0.006496 0.000000 0.000000 0.000000
# 2 -0.005096 0.034591 -0.006285 0.000000 0.000000 0.000000
# 3 -0.006496 -0.006285 0.017075 0.000000 0.000000 0.000000
# 4 0.000000 0.000000 0.000000 0.031799 0.000000 0.000000
# 5 0.000000 0.000000 0.000000 0.000000 0.027722 0.000000
# 6 0.000000 0.000000 0.000000 0.000000 0.000000 0.015642
#
#
# Mechanical properties :
#
#
# Convention : Reuss Voigt Hill
#
# Bulk Modulus (GPa) = 29.07615 35.38997 32.23306
# Shear Modulus (GPa) = 25.97011 33.95099 29.96055
#
# Velocity S-wave (km/s) = 3.59799 4.11386 3.86454
# Velocity P-wave (km/s) = 5.63512 6.34084 5.99837
#
# Compressibility (1/GPa) = 0.03439245
#
# Stress axis : x y z
#
# Youngs Moduli (GPa) = 54.11028 28.90943 58.56349
#
# Poissons Ratio (x) = 0.14731 0.38045
# Poissons Ratio (y) = 0.27572 0.36809
# Poissons Ratio (z) = 0.35152 0.18171
#
# Static dielectric constant tensor:
#      x y z
#    x 1.679280 0.000000 0.000000 
#    y 0.000000 1.733360 0.000000 
#    z 0.000000 0.000000 1.709450 
# 
# From -- ./inp_files/13784.got.cif
#   From: 2010.05.17/outbox.cif.g08.bks.cpg/sg74_7_cif.got.tgz:13784.got - 2010.06.03 17:57:02.
