data_PCOD9536502
_publ_section_title
;
Structure prediction by ZEFSAII (Michael W. Deem and Ramdas Pophale) SiO2 
 PCOD9536502
Probable space group: I M M A
;
_chemical_formula_sum "Si O2"
_cell_formula_units_Z 104
_cell_length_a 21.542209
_cell_length_b 8.044285
_cell_length_c 29.214603
_cell_angle_alpha 90.000000
_cell_angle_beta 90.000000
_cell_angle_gamma 90.000000
_cell_volume 5062.647305
_symmetry_space_group_name_H-M "I M M A"
_symmetry_group_IT_number 74
_symmetry_cell_setting 'orthorhombic'
loop_
_space_group_symop_operation_xyz
x,y,z
-x,1/2-y,z
x,-y,-z
-x,1/2+y,-z
-x,-y,-z
x,1/2+y,-z
-x,y,z
x,1/2-y,z
1/2+x,1/2+y,1/2+z
1/2-x,-y,1/2+z
1/2+x,1/2-y,1/2-z
1/2-x,y,1/2-z
1/2-x,1/2-y,1/2-z
1/2+x,y,1/2-z
1/2-x,1/2+y,1/2+z
1/2+x,-y,1/2+z
loop_
_atom_site_type_symbol
_atom_site_label
_atom_site_fract_x
_atom_site_fract_y
_atom_site_fract_z
Si Si1 0.000000 0.946832 0.447135
Si Si2 0.181356 0.933797 0.231059
Si Si3 0.500000 0.547433 0.656140
Si Si4 0.768557 0.549234 0.948844
Si Si5 0.861030 0.048727 0.132117
Si Si6 0.636897 0.550059 0.911996
Si Si7 0.383586 0.437652 0.186740
Si Si8 0.000000 0.956873 0.736807
O O1 0.000000 0.750000 0.443529
O O2 0.000000 0.000000 0.500000
O O3 0.933658 0.005889 0.426414
O O4 0.151883 0.750000 0.235285
O O5 0.250000 0.916176 0.250000
O O6 0.171058 0.992270 0.179477
O O7 0.155921 0.063817 0.267523
O O8 0.500000 0.750000 0.655371
O O9 0.433901 0.494711 0.633993
O O10 0.500000 0.496321 0.709896
O O11 0.767647 0.750000 0.945999
O O12 0.818380 0.492100 0.910492
O O13 0.697732 0.487102 0.939150
O O14 0.786853 0.500000 0.000000
O O15 0.861542 0.250000 0.131763
O O16 0.640874 0.750000 0.915670
O O17 0.645350 0.492044 0.859243
O O18 0.400733 0.250000 0.173608
O O19 0.443725 0.521900 0.206763
O O20 0.000000 0.750000 0.737883
#
# Coordination Sequence:
#
# PCOD9536502 Si02
#       8
#     8  16   8  16  16  16  16   8
#     4  12  25  40  60  85 115 154 198 247 303 356
#     4  11  23  35  49  77 117 154 186 228 283 336
#     4   9  16  31  58  88 114 142 186 240 288 332
#     4  10  22  39  61  86 112 148 194 245 303 357
#     4  10  20  38  62  86 112 149 199 243 288 354
#     4  10  21  38  59  86 117 153 198 246 294 347
#     4  10  19  34  57  81 110 147 190 230 267 328
#     4   9  15  27  51  83 110 144 183 224 274 315
#
# _framework density 20.542611999999998
#
# number of rings (size 3 to 8) (size 9 to 14) (size 15 to 20)
#    0.000    1.846    1.538    3.000    0.000    6.769 
#    0.000    1.923    0.000    0.000    0.000    0.000 
#    0.000    0.000    0.000    0.000    0.000    0.000 
#
# Total GULP energy -289518.263371 kJ/mol
# GULP energy per Si atom -5567.658911 kJ/mol
# Density = 2.049586 g / cm^3
# Si number density = 20.542612 Si / 1000 Ang^3
#
#
#
# Elastic Constant Matrix: (Units=GPa)
#
#
# Indices 1 2 3 4 5 6 
#
# 1 117.6066 15.6992 73.0360 0.0000 0.0000 0.0000
# 2 15.6992 29.0565 9.6627 0.0000 0.0000 0.0000
# 3 73.0360 9.6627 164.0663 0.0000 0.0000 0.0000
# 4 0.0000 0.0000 0.0000 27.6096 0.0000 0.0000
# 5 0.0000 0.0000 0.0000 0.0000 32.7986 0.0000
# 6 0.0000 0.0000 0.0000 0.0000 0.0000 20.5624
#
#
#
# Elastic Compliance Matrix: (Units=1/GPa)
#
#
# Indices 1 2 3 4 5 6 
#
# 1 0.012417 -0.004968 -0.005235 0.000000 0.000000 0.000000
# 2 -0.004968 0.037091 0.000027 0.000000 0.000000 0.000000
# 3 -0.005235 0.000027 0.008424 0.000000 0.000000 0.000000
# 4 0.000000 0.000000 0.000000 0.036219 0.000000 0.000000
# 5 0.000000 0.000000 0.000000 0.000000 0.030489 0.000000
# 6 0.000000 0.000000 0.000000 0.000000 0.000000 0.048632
#
#
# Mechanical properties :
#
#
# Convention : Reuss Voigt Hill
#
# Bulk Modulus (GPa) = 26.60989 56.39170 41.50079
# Shear Modulus (GPa) = 24.25399 30.34955 27.30177
#
# Velocity S-wave (km/s) = 3.43981 3.84786 3.64954
# Velocity P-wave (km/s) = 5.36265 6.87401 6.16482
#
# Compressibility (1/GPa) = 0.03758002
#
# Stress axis : x y z
#
# Youngs Moduli (GPa) = 80.53358 26.96076 118.70926
#
# Poissons Ratio (x) = 0.13394 0.62145
# Poissons Ratio (y) = 0.40010 -0.00322
# Poissons Ratio (z) = 0.42160 -0.00073
#
# Static dielectric constant tensor:
#      x y z
#    x 1.747210 0.000000 0.000000 
#    y 0.000000 1.749140 0.000000 
#    z 0.000000 0.000000 1.648400 
# 
# From -- ./inp_files/68295.got.cif
#   From: 2010.05.17/outbox.cif.g08.bks.cpg/sg74_35_cif.got.tgz:68295.got - 2010.06.03 17:57:02.
