data_PCOD9536311
_publ_section_title
;
Structure prediction by ZEFSAII (Michael W. Deem and Ramdas Pophale) SiO2 
 PCOD9536311
Probable space group: I M M A
;
_chemical_formula_sum "Si O2"
_cell_formula_units_Z 64
_cell_length_a 10.706501
_cell_length_b 16.644016
_cell_length_c 19.477603
_cell_angle_alpha 90.000000
_cell_angle_beta 90.000000
_cell_angle_gamma 90.000000
_cell_volume 3470.892765
_symmetry_space_group_name_H-M "I M M A"
_symmetry_group_IT_number 74
_symmetry_cell_setting 'orthorhombic'
loop_
_space_group_symop_operation_xyz
x,y,z
-x,1/2-y,z
x,-y,-z
-x,1/2+y,-z
-x,-y,-z
x,1/2+y,-z
-x,y,z
x,1/2-y,z
1/2+x,1/2+y,1/2+z
1/2-x,-y,1/2+z
1/2+x,1/2-y,1/2-z
1/2-x,y,1/2-z
1/2-x,1/2-y,1/2-z
1/2+x,y,1/2-z
1/2-x,1/2+y,1/2+z
1/2+x,-y,1/2+z
loop_
_atom_site_type_symbol
_atom_site_label
_atom_site_fract_x
_atom_site_fract_y
_atom_site_fract_z
Si Si1 0.500000 0.250000 0.140603
Si Si2 0.744385 0.011099 0.833712
Si Si3 0.500000 0.069964 0.342799
Si Si4 0.271340 0.250000 0.035457
Si Si5 0.500000 0.750000 0.603423
Si Si6 0.651035 0.085364 0.961060
Si Si7 0.000000 0.421089 0.314560
O O1 0.375307 0.250000 0.095399
O O2 0.500000 0.172878 0.186658
O O3 0.750000 0.024902 0.750000
O O4 0.627327 0.951750 0.847002
O O5 0.870132 0.971119 0.863647
O O6 0.707371 0.083360 0.883821
O O7 0.500000 0.165012 0.356197
O O8 0.500000 0.050348 0.262483
O O9 0.129045 0.250000 0.061175
O O10 0.297969 0.333893 0.996406
O O11 0.500000 0.090152 0.959264
O O12 0.681426 0.000000 0.000000
#
# Coordination Sequence:
#
# PCOD9536311 Si02
#       7
#     4  16   8   8   4  16   8
#     4  12  19  34  56  84 117 156 200 242 290 350
#     4  10  21  37  59  86 117 156 202 244 294 357
#     4  10  21  35  54  86 119 160 196 230 299 369
#     4  12  26  38  58  92 117 154 205 248 297 363
#     4  12  23  38  52  80 133 158 180 248 308 356
#     4  11  21  39  65  89 118 157 202 255 298 341
#     4  10  19  33  56  84 117 154 200 240 281 357
#
# _framework density 18.439060000000001
#
# number of rings (size 3 to 8) (size 9 to 14) (size 15 to 20)
#    0.000    1.250    2.500    4.875    0.000    1.000 
#    0.000    8.125    0.000    0.000    0.000    0.000 
#    0.000    0.000    0.000    0.000    0.000    0.000 
#
# Total GULP energy -178222.220173 kJ/mol
# GULP energy per Si atom -5569.444380 kJ/mol
# Density = 1.839709 g / cm^3
# Si number density = 18.439060 Si / 1000 Ang^3
#
#
#
# Elastic Constant Matrix: (Units=GPa)
#
#
# Indices 1 2 3 4 5 6 
#
# 1 164.7495 36.8829 33.4494 0.0000 0.0000 0.0000
# 2 36.8829 65.6966 12.3027 0.0000 0.0000 0.0000
# 3 33.4494 12.3027 43.4960 0.0000 0.0000 0.0000
# 4 0.0000 0.0000 0.0000 -40.9624 0.0000 0.0000
# 5 0.0000 0.0000 0.0000 0.0000 28.2663 0.0000
# 6 0.0000 0.0000 0.0000 0.0000 0.0000 32.6670
#
#
#
# Elastic Compliance Matrix: (Units=1/GPa)
#
#
# Indices 1 2 3 4 5 6 
#
# 1 0.007878 -0.003472 -0.005076 0.000000 0.000000 0.000000
# 2 -0.003472 0.017603 -0.002309 0.000000 0.000000 0.000000
# 3 -0.005076 -0.002309 0.027547 0.000000 0.000000 0.000000
# 4 0.000000 0.000000 0.000000 -0.024413 0.000000 0.000000
# 5 0.000000 0.000000 0.000000 0.000000 0.035378 0.000000
# 6 0.000000 0.000000 0.000000 0.000000 0.000000 0.030612
#
#
# Mechanical properties :
#
#
# Convention : Reuss Voigt Hill
#
# Bulk Modulus (GPa) = 31.93453 48.80136 40.36794
# Shear Modulus (GPa) = 39.44542 16.74799 28.09671
#
# Velocity S-wave (km/s) = 4.63020 3.01705 3.90777
# Velocity P-wave (km/s) = 6.77802 6.21776 6.50393
#
# Compressibility (1/GPa) = 0.03131407
#
# Stress axis : x y z
#
# Youngs Moduli (GPa) = 126.94000 56.80805 36.30115
#
# Poissons Ratio (x) = 0.19724 0.18427
# Poissons Ratio (y) = 0.44075 0.08382
# Poissons Ratio (z) = 0.64436 0.13116
#
# Static dielectric constant tensor:
#      x y z
#    x 1.734770 0.000000 0.000000 
#    y 0.000000 1.614270 0.000000 
#    z 0.000000 0.000000 1.687280 
# 
# From -- ./inp_files/40930.got.cif
#   From: 2010.05.17/outbox.cif.g08.bks.cpg/sg74_21_cif.got.tgz:40930.got - 2010.06.03 17:57:02.
