data_PCOD9536504
_publ_section_title
;
Structure prediction by ZEFSAII (Michael W. Deem and Ramdas Pophale) SiO2 
 PCOD9536504
Probable space group: I M M A
;
_chemical_formula_sum "Si O2"
_cell_formula_units_Z 116
_cell_length_a 7.765320
_cell_length_b 32.659115
_cell_length_c 23.252788
_cell_angle_alpha 90.000000
_cell_angle_beta 90.000000
_cell_angle_gamma 90.000000
_cell_volume 5897.104195
_symmetry_space_group_name_H-M "I M M A"
_symmetry_group_IT_number 74
_symmetry_cell_setting 'orthorhombic'
loop_
_space_group_symop_operation_xyz
x,y,z
-x,1/2-y,z
x,-y,-z
-x,1/2+y,-z
-x,-y,-z
x,1/2+y,-z
-x,y,z
x,1/2-y,z
1/2+x,1/2+y,1/2+z
1/2-x,-y,1/2+z
1/2+x,1/2-y,1/2-z
1/2-x,y,1/2-z
1/2-x,1/2-y,1/2-z
1/2+x,y,1/2-z
1/2-x,1/2+y,1/2+z
1/2+x,-y,1/2+z
loop_
_atom_site_type_symbol
_atom_site_label
_atom_site_fract_x
_atom_site_fract_y
_atom_site_fract_z
Si Si1 0.210363 0.455262 0.477348
Si Si2 0.708796 0.316003 0.945883
Si Si3 0.201736 0.352568 0.186075
Si Si4 0.295501 0.796685 0.923109
Si Si5 0.793215 0.556053 0.652131
Si Si6 0.292987 0.966857 0.186796
Si Si7 0.791758 0.592975 0.413743
Si Si8 0.000000 0.250000 0.917022
O O1 0.259122 0.500000 0.500000
O O2 0.270370 0.445070 0.413635
O O3 0.270250 0.423831 0.525159
O O4 0.000000 0.454592 0.475219
O O5 0.500000 0.306557 0.941282
O O6 0.739624 0.359046 0.914320
O O7 0.845379 0.284773 0.920210
O O8 0.750199 0.316320 0.014933
O O9 0.250000 0.337466 0.250000
O O10 0.261368 0.324826 0.132414
O O11 0.255623 0.400104 0.179649
O O12 0.000000 0.352025 0.182918
O O13 0.500000 0.792594 0.925082
O O14 0.222398 0.750000 0.919298
O O15 0.727815 0.513761 0.680281
O O16 0.000000 0.553064 0.651428
O O17 0.500000 0.968457 0.181186
O O18 0.250000 0.951496 0.250000
O O19 0.227656 0.936215 0.137391
O O20 0.000000 0.588337 0.413713
#
# Coordination Sequence:
#
# PCOD9536504 Si02
#       8
#    16  16  16  16  16  16  16   4
#     4   9  14  26  52  83 109 143 188 234 279 343
#     4  10  21  38  62  91 125 157 189 242 296 361
#     4  12  26  40  56  77 109 150 201 246 294 347
#     4  10  21  40  64  86 112 143 184 238 301 358
#     4  10  19  34  57  81 111 150 195 241 289 344
#     4  10  20  34  54  80 112 154 198 242 284 340
#     4   9  17  32  54  82 117 151 194 237 290 348
#     4  12  22  36  64  94 130 148 198 228 302 372
#
# _framework density 19.670672
#
# number of rings (size 3 to 8) (size 9 to 14) (size 15 to 20)
#    0.000    1.931    2.069    2.690    0.966    4.414 
#    1.241    0.000    0.000    0.414    0.000    0.483 
#    0.000    0.000    0.000    0.000    0.000    0.138 
#
# Total GULP energy -322919.412216 kJ/mol
# GULP energy per Si atom -5567.576073 kJ/mol
# Density = 1.962590 g / cm^3
# Si number density = 19.670672 Si / 1000 Ang^3
#
#
#
# Elastic Constant Matrix: (Units=GPa)
#
#
# Indices 1 2 3 4 5 6 
#
# 1 39.7007 20.1281 -7.3707 0.0000 0.0000 0.0000
# 2 20.1281 106.1555 27.8755 0.0001 0.0000 0.0000
# 3 -7.3707 27.8755 70.1213 0.0002 0.0000 0.0000
# 4 0.0000 0.0001 0.0002 -140.1080 0.0000 0.0000
# 5 0.0000 0.0000 0.0000 0.0000 14.7237 0.0000
# 6 0.0000 0.0000 0.0000 0.0000 0.0000 9.8908
#
#
#
# Elastic Compliance Matrix: (Units=1/GPa)
#
#
# Indices 1 2 3 4 5 6 
#
# 1 0.030000 -0.007276 0.006046 0.000000 0.000000 0.000000
# 2 -0.007276 0.012283 -0.005648 0.000000 0.000000 0.000000
# 3 0.006046 -0.005648 0.017142 0.000000 0.000000 0.000000
# 4 0.000000 0.000000 0.000000 -0.007137 0.000000 0.000000
# 5 0.000000 0.000000 0.000000 0.000000 0.067918 0.000000
# 6 0.000000 0.000000 0.000000 0.000000 0.000000 0.101104
#
#
# Mechanical properties :
#
#
# Convention : Reuss Voigt Hill
#
# Bulk Modulus (GPa) = 21.89677 33.02705 27.46191
# Shear Modulus (GPa) = 19.97707 -11.40906 4.28400
#
# Velocity S-wave (km/s) = 3.19027 -2.41094 1.47736
# Velocity P-wave (km/s) = 4.97255 3.01269 4.11112
#
# Compressibility (1/GPa) = 0.04566883
#
# Stress axis : x y z
#
# Youngs Moduli (GPa) = 33.33360 81.41524 58.33762
#
# Poissons Ratio (x) = 0.59236 -0.35270
# Poissons Ratio (y) = 0.24253 0.32947
# Poissons Ratio (z) = -0.20153 0.45980
#
# Static dielectric constant tensor:
#      x y z
#    x 1.726950 0.000000 0.000000 
#    y 0.000000 1.189660 0.000000 
#    z 0.000000 0.000000 1.580880 
# 
# From -- ./inp_files/57927.got.cif
#   From: 2010.05.17/outbox.cif.g08.bks.cpg/sg74_29_cif.got.tgz:57927.got - 2010.06.03 17:57:02.
