data_PCOD9536314
_publ_section_title
;
Structure prediction by ZEFSAII (Michael W. Deem and Ramdas Pophale) SiO2 
 PCOD9536314
Probable space group: I M M A
;
_chemical_formula_sum "Si O2"
_cell_formula_units_Z 88
_cell_length_a 12.266434
_cell_length_b 15.948460
_cell_length_c 22.357572
_cell_angle_alpha 90.000000
_cell_angle_beta 90.000000
_cell_angle_gamma 90.000000
_cell_volume 4373.828176
_symmetry_space_group_name_H-M "I M M A"
_symmetry_group_IT_number 74
_symmetry_cell_setting 'orthorhombic'
loop_
_space_group_symop_operation_xyz
x,y,z
-x,1/2-y,z
x,-y,-z
-x,1/2+y,-z
-x,-y,-z
x,1/2+y,-z
-x,y,z
x,1/2-y,z
1/2+x,1/2+y,1/2+z
1/2-x,-y,1/2+z
1/2+x,1/2-y,1/2-z
1/2-x,y,1/2-z
1/2-x,1/2-y,1/2-z
1/2+x,y,1/2-z
1/2-x,1/2+y,1/2+z
1/2+x,-y,1/2+z
loop_
_atom_site_type_symbol
_atom_site_label
_atom_site_fract_x
_atom_site_fract_y
_atom_site_fract_z
Si Si1 0.758947 0.847139 0.552024
Si Si2 0.250000 0.979636 0.250000
Si Si3 0.375268 0.931903 0.643335
Si Si4 0.500000 0.147989 0.059849
Si Si5 0.698770 0.845987 0.156853
Si Si6 0.000000 0.850632 0.424868
Si Si7 0.871925 0.100290 0.933450
O O1 0.775188 0.750000 0.534265
O O2 0.681036 0.856218 0.608871
O O3 0.876993 0.880196 0.576168
O O4 0.700484 0.887372 0.493385
O O5 0.314705 0.912962 0.209237
O O6 0.316346 0.035401 0.297032
O O7 0.500000 0.914896 0.657094
O O8 0.369823 0.006457 0.593493
O O9 0.500000 0.250000 0.068358
O O10 0.500000 0.119260 0.991311
O O11 0.679451 0.750000 0.176338
O O12 0.608616 0.873091 0.109141
O O13 0.813350 0.850256 0.121175
O O14 0.000000 0.750000 0.428762
O O15 0.000000 0.122559 0.943855
#
# Coordination Sequence:
#
# PCOD9536314 Si02
#       7
#    16   8  16   8  16   8  16
#     4  11  21  37  62  89 114 146 187 233 288 346
#     4  10  23  40  57  76 112 156 198 236 287 326
#     4  10  23  42  58  81 117 152 190 238 286 334
#     4   9  18  34  56  88 124 142 168 228 290 345
#     4  10  19  33  56  85 115 151 194 231 273 335
#     4   9  16  30  53  83 119 147 173 226 285 333
#     4  10  20  35  57  86 123 155 180 223 288 351
#
# _framework density 20.119675000000001
#
# number of rings (size 3 to 8) (size 9 to 14) (size 15 to 20)
#    0.000    2.000    1.818    1.909    1.273    4.000 
#    1.636    3.182    0.000    0.000    0.000    0.000 
#    0.000    0.000    0.000    0.000    0.000    0.000 
#
# Total GULP energy -245023.242670 kJ/mol
# GULP energy per Si atom -5568.710061 kJ/mol
# Density = 2.007388 g / cm^3
# Si number density = 20.119675 Si / 1000 Ang^3
#
#
#
# Elastic Constant Matrix: (Units=GPa)
#
#
# Indices 1 2 3 4 5 6 
#
# 1 107.7558 10.2852 28.0519 0.0000 0.0000 0.0000
# 2 10.2852 9.8527 9.4023 0.0000 0.0000 0.0000
# 3 28.0519 9.4023 80.4423 0.0000 0.0000 0.0000
# 4 0.0000 0.0000 0.0000 15.0671 0.0000 0.0000
# 5 0.0000 0.0000 0.0000 0.0000 10.1092 0.0000
# 6 0.0000 0.0000 0.0000 0.0000 0.0000 9.2446
#
#
#
# Elastic Compliance Matrix: (Units=1/GPa)
#
#
# Indices 1 2 3 4 5 6 
#
# 1 0.010827 -0.008665 -0.002763 0.000000 0.000000 0.000000
# 2 -0.008665 0.121173 -0.011141 0.000000 0.000000 0.000000
# 3 -0.002763 -0.011141 0.014697 0.000000 0.000000 0.000000
# 4 0.000000 0.000000 0.000000 0.066370 0.000000 0.000000
# 5 0.000000 0.000000 0.000000 0.000000 0.098920 0.000000
# 6 0.000000 0.000000 0.000000 0.000000 0.000000 0.108171
#
#
# Mechanical properties :
#
#
# Convention : Reuss Voigt Hill
#
# Bulk Modulus (GPa) = 9.84661 32.61440 21.23051
# Shear Modulus (GPa) = 10.01707 16.90495 13.46101
#
# Velocity S-wave (km/s) = 2.23373 2.90180 2.58940
# Velocity P-wave (km/s) = 3.39962 5.24144 4.41758
#
# Compressibility (1/GPa) = 0.10155775
#
# Stress axis : x y z
#
# Youngs Moduli (GPa) = 92.36567 8.25267 68.04169
#
# Poissons Ratio (x) = 0.07151 0.18797
# Poissons Ratio (y) = 0.80039 0.75807
# Poissons Ratio (z) = 0.25517 0.09195
#
# Static dielectric constant tensor:
#      x y z
#    x 1.719340 0.000000 0.000000 
#    y 0.000000 1.747840 0.000000 
#    z 0.000000 0.000000 1.719190 
# 
# From -- ./inp_files/58682.got.cif
#   From: 2010.05.17/outbox.cif.g08.bks.cpg/sg74_30_cif.got.tgz:58682.got - 2010.06.03 17:57:02.
