data_PCOD9536615
_publ_section_title
;
Structure prediction by ZEFSAII (Michael W. Deem and Ramdas Pophale) SiO2 
 PCOD9536615
Probable space group: I M M A
;
_chemical_formula_sum "Si O2"
_cell_formula_units_Z 104
_cell_length_a 22.240961
_cell_length_b 7.805316
_cell_length_c 27.383730
_cell_angle_alpha 90.000000
_cell_angle_beta 90.000000
_cell_angle_gamma 90.000000
_cell_volume 4753.753333
_symmetry_space_group_name_H-M "I M M A"
_symmetry_group_IT_number 74
_symmetry_cell_setting 'orthorhombic'
loop_
_space_group_symop_operation_xyz
x,y,z
-x,1/2-y,z
x,-y,-z
-x,1/2+y,-z
-x,-y,-z
x,1/2+y,-z
-x,y,z
x,1/2-y,z
1/2+x,1/2+y,1/2+z
1/2-x,-y,1/2+z
1/2+x,1/2-y,1/2-z
1/2-x,y,1/2-z
1/2-x,1/2-y,1/2-z
1/2+x,y,1/2-z
1/2-x,1/2+y,1/2+z
1/2+x,-y,1/2+z
loop_
_atom_site_type_symbol
_atom_site_label
_atom_site_fract_x
_atom_site_fract_y
_atom_site_fract_z
Si Si1 0.398215 0.549458 0.373974
Si Si2 0.500000 0.956404 0.444034
Si Si3 0.198671 0.446947 0.054947
Si Si4 0.566721 0.456198 0.943864
Si Si5 0.685676 0.957578 0.105329
Si Si6 0.305639 0.959387 0.215558
Si Si7 0.430388 0.040211 0.734364
O O1 0.412233 0.750000 0.368635
O O2 0.442772 0.476651 0.414681
O O3 0.333906 0.538047 0.399591
O O4 0.411640 0.480288 0.320308
O O5 0.500000 0.750000 0.442200
O O6 0.500000 0.000000 0.500000
O O7 0.183689 0.250000 0.059971
O O8 0.268719 0.477942 0.064337
O O9 0.181338 0.500000 0.000000
O O10 0.500000 0.523003 0.932801
O O11 0.564875 0.250000 0.940154
O O12 0.618921 0.516671 0.908324
O O13 0.580718 0.500000 0.000000
O O14 0.687046 0.750000 0.104464
O O15 0.703699 0.013549 0.159635
O O16 0.305123 0.750000 0.216913
O O17 0.250000 0.015412 0.250000
O O18 0.372923 0.011619 0.232751
O O19 0.500000 0.987479 0.745122
O O20 0.431191 0.250000 0.735864
#
# Coordination Sequence:
#
# PCOD9536615 Si02
#       7
#    16   8  16  16  16  16  16
#     4  10  19  35  56  80 111 145 184 227 275 325
#     4  10  20  32  50  76 106 140 178 222 269 320
#     4  12  25  39  56  80 109 145 187 231 281 335
#     4   9  18  32  51  76 106 138 172 212 262 322
#     4  10  20  35  55  80 111 146 183 227 276 328
#     4   9  17  29  49  79 110 142 181 226 275 323
#     4   9  16  29  53  84 115 147 186 232 279 328
#
# _framework density 21.877448999999999
#
# number of rings (size 3 to 8) (size 9 to 14) (size 15 to 20)
#    0.000    2.154    0.769    3.231    0.000    6.769 
#    0.000    3.077    0.000    4.154    0.000    0.000 
#    0.000    0.000    0.000    0.000    0.000    0.000 
#
# Total GULP energy -290145.411312 kJ/mol
# GULP energy per Si atom -5579.719448 kJ/mol
# Density = 2.182765 g / cm^3
# Si number density = 21.877449 Si / 1000 Ang^3
#
#
#
# Elastic Constant Matrix: (Units=GPa)
#
#
# Indices 1 2 3 4 5 6 
#
# 1 111.2311 -5.3565 28.0735 0.0000 0.0000 0.0000
# 2 -5.3565 25.9591 -0.8311 0.0000 0.0000 0.0000
# 3 28.0735 -0.8311 53.9979 0.0000 0.0000 0.0000
# 4 0.0000 0.0000 0.0000 11.0981 0.0000 0.0000
# 5 0.0000 0.0000 0.0000 0.0000 6.0965 0.0000
# 6 0.0000 0.0000 0.0000 0.0000 0.0000 -10.3519
#
#
#
# Elastic Compliance Matrix: (Units=1/GPa)
#
#
# Indices 1 2 3 4 5 6 
#
# 1 0.010449 0.001983 -0.005402 0.000000 0.000000 0.000000
# 2 0.001983 0.038917 -0.000432 0.000000 0.000000 0.000000
# 3 -0.005402 -0.000432 0.021321 0.000000 0.000000 0.000000
# 4 0.000000 0.000000 0.000000 0.090105 0.000000 0.000000
# 5 0.000000 0.000000 0.000000 0.000000 0.164029 0.000000
# 6 0.000000 0.000000 0.000000 0.000000 0.000000 -0.096600
#
#
# Mechanical properties :
#
#
# Convention : Reuss Voigt Hill
#
# Bulk Modulus (GPa) = 15.87654 26.10666 20.99160
# Shear Modulus (GPa) = 19.46142 12.65535 16.05839
#
# Velocity S-wave (km/s) = 2.98579 2.40774 2.71221
# Velocity P-wave (km/s) = 4.37715 4.43719 4.40727
#
# Compressibility (1/GPa) = 0.06298600
#
# Stress axis : x y z
#
# Youngs Moduli (GPa) = 95.70108 25.69540 46.90195
#
# Poissons Ratio (x) = -0.05096 0.25336
# Poissons Ratio (y) = -0.18979 0.02026
# Poissons Ratio (z) = 0.51698 0.01110
#
# Static dielectric constant tensor:
#      x y z
#    x 1.860710 0.000000 0.000000 
#    y 0.000000 1.836960 0.000000 
#    z 0.000000 0.000000 1.672890 
# 
# From -- ./inp_files/68232.got.cif
#   From: 2010.05.17/outbox.cif.g08.bks.cpg/sg74_35_cif.got.tgz:68232.got - 2010.06.03 17:57:02.
