data_PCOD9536919
_publ_section_title
;
Structure prediction by ZEFSAII (Michael W. Deem and Ramdas Pophale) SiO2 
 PCOD9536919
Probable space group: I M M A
;
_chemical_formula_sum "Si O2"
_cell_formula_units_Z 80
_cell_length_a 15.834149
_cell_length_b 19.236534
_cell_length_c 13.920234
_cell_angle_alpha 90.000000
_cell_angle_beta 90.000000
_cell_angle_gamma 90.000000
_cell_volume 4240.021782
_symmetry_space_group_name_H-M "I M M A"
_symmetry_group_IT_number 74
_symmetry_cell_setting 'orthorhombic'
loop_
_space_group_symop_operation_xyz
x,y,z
-x,1/2-y,z
x,-y,-z
-x,1/2+y,-z
-x,-y,-z
x,1/2+y,-z
-x,y,z
x,1/2-y,z
1/2+x,1/2+y,1/2+z
1/2-x,-y,1/2+z
1/2+x,1/2-y,1/2-z
1/2-x,y,1/2-z
1/2-x,1/2-y,1/2-z
1/2+x,y,1/2-z
1/2-x,1/2+y,1/2+z
1/2+x,-y,1/2+z
loop_
_atom_site_type_symbol
_atom_site_label
_atom_site_fract_x
_atom_site_fract_y
_atom_site_fract_z
Si Si1 0.000000 0.673082 0.233514
Si Si2 0.138863 0.570768 0.564710
Si Si3 0.500000 0.482534 0.197915
Si Si4 0.000000 0.123226 0.569302
Si Si5 0.681871 0.665628 0.331663
Si Si6 0.179688 0.918037 0.973149
Si Si7 0.500000 0.443826 0.414456
O O1 0.000000 0.679102 0.348030
O O2 0.088694 0.641569 0.201867
O O3 0.000000 0.750000 0.189298
O O4 0.141684 0.500000 0.500000
O O5 0.082556 0.621410 0.497598
O O6 0.234387 0.591669 0.586849
O O7 0.083123 0.555991 0.658150
O O8 0.500000 0.554171 0.137491
O O9 0.500000 0.482410 0.312055
O O10 0.684507 0.750000 0.341036
O O11 0.750000 0.646751 0.250000
O O12 0.696074 0.627081 0.431496
O O13 0.088154 0.902293 0.927472
O O14 0.176470 0.000000 0.000000
O O15 0.500000 0.500000 0.500000
#
# Coordination Sequence:
#
# PCOD9536919 Si02
#       7
#     8  16   8   8  16  16   8
#     4  10  20  30  47  76 105 143 180 203 259 326
#     4   8  16  32  48  74  96 128 175 214 267 315
#     4   9  18  31  51  71 102 132 165 221 269 307
#     4   9  16  28  53  70  97 136 167 213 267 307
#     4  10  21  36  54  78 110 146 178 215 269 325
#     4  10  20  34  48  76 110 131 180 215 258 319
#     4  10  22  33  43  75 108 139 174 211 262 315
#
# _framework density 18.867826999999998
#
# number of rings (size 3 to 8) (size 9 to 14) (size 15 to 20)
#    0.000    2.600    0.000    3.000    5.600    0.800 
#    0.000    0.000    0.000    0.000    0.000    9.800 
#    0.000    0.000    0.000    0.000    0.000    0.000 
#
# Total GULP energy -222727.083435 kJ/mol
# GULP energy per Si atom -5568.177086 kJ/mol
# Density = 1.882488 g / cm^3
# Si number density = 18.867827 Si / 1000 Ang^3
#
#
#
# Elastic Constant Matrix: (Units=GPa)
#
#
# Indices 1 2 3 4 5 6 
#
# 1 192.2436 21.6954 42.6754 0.0000 0.0000 0.0000
# 2 21.6954 31.1677 18.2535 0.0000 0.0000 0.0000
# 3 42.6754 18.2535 94.6387 0.0000 0.0000 0.0000
# 4 0.0000 0.0000 0.0000 24.1246 0.0000 0.0000
# 5 0.0000 0.0000 0.0000 0.0000 -6.6341 0.0000
# 6 0.0000 0.0000 0.0000 0.0000 0.0000 -65.3337
#
#
#
# Elastic Compliance Matrix: (Units=1/GPa)
#
#
# Indices 1 2 3 4 5 6 
#
# 1 0.006008 -0.002926 -0.002145 0.000000 0.000000 0.000000
# 2 -0.002926 0.037595 -0.005932 0.000000 0.000000 0.000000
# 3 -0.002145 -0.005932 0.012678 0.000000 0.000000 0.000000
# 4 0.000000 0.000000 0.000000 0.041452 0.000000 0.000000
# 5 0.000000 0.000000 0.000000 0.000000 -0.150736 0.000000
# 6 0.000000 0.000000 0.000000 0.000000 0.000000 -0.015306
#
#
# Mechanical properties :
#
#
# Convention : Reuss Voigt Hill
#
# Bulk Modulus (GPa) = 29.17510 53.69983 41.43747
# Shear Modulus (GPa) = -143.35134 6.12641 -68.61247
#
# Velocity S-wave (km/s) = -8.72591 1.80390 -6.03687
# Velocity P-wave (km/s) = 9.27500 5.73250 5.15577
#
# Compressibility (1/GPa) = 0.03427580
#
# Stress axis : x y z
#
# Youngs Moduli (GPa) = 166.44273 26.59913 78.87818
#
# Poissons Ratio (x) = 0.07783 0.16918
# Poissons Ratio (y) = 0.48701 0.46789
# Poissons Ratio (z) = 0.35700 0.15778
#
# Static dielectric constant tensor:
#      x y z
#    x 1.739220 0.000000 0.000000 
#    y 0.000000 1.663150 0.000000 
#    z 0.000000 0.000000 1.619610 
# 
# From -- ./inp_files/20589.got.cif
#   From: 2010.05.17/outbox.cif.g08.bks.cpg/sg74_11_cif.got.tgz:20589.got - 2010.06.03 17:57:02.
