data_PCOD9536585
_publ_section_title
;
Structure prediction by ZEFSAII (Michael W. Deem and Ramdas Pophale) SiO2 
 PCOD9536585
Probable space group: I M M A
;
_chemical_formula_sum "Si O2"
_cell_formula_units_Z 100
_cell_length_a 15.113159
_cell_length_b 18.044005
_cell_length_c 20.280645
_cell_angle_alpha 90.000000
_cell_angle_beta 90.000000
_cell_angle_gamma 90.000000
_cell_volume 5530.570761
_symmetry_space_group_name_H-M "I M M A"
_symmetry_group_IT_number 74
_symmetry_cell_setting 'orthorhombic'
loop_
_space_group_symop_operation_xyz
x,y,z
-x,1/2-y,z
x,-y,-z
-x,1/2+y,-z
-x,-y,-z
x,1/2+y,-z
-x,y,z
x,1/2-y,z
1/2+x,1/2+y,1/2+z
1/2-x,-y,1/2+z
1/2+x,1/2-y,1/2-z
1/2-x,y,1/2-z
1/2-x,1/2-y,1/2-z
1/2+x,y,1/2-z
1/2-x,1/2+y,1/2+z
1/2+x,-y,1/2+z
loop_
_atom_site_type_symbol
_atom_site_label
_atom_site_fract_x
_atom_site_fract_y
_atom_site_fract_z
Si Si1 0.105056 0.037808 0.649748
Si Si2 0.105658 0.165785 0.902680
Si Si3 0.711345 0.564262 0.943541
Si Si4 0.653915 0.872520 0.267974
Si Si5 0.105612 0.663675 0.458519
Si Si6 0.000000 0.750000 0.250672
Si Si7 0.598195 0.579814 0.535760
O O1 0.136920 0.056123 0.723016
O O2 0.123365 0.111234 0.604635
O O3 0.000000 0.026090 0.648424
O O4 0.154510 0.970191 0.615071
O O5 0.137819 0.250000 0.895047
O O6 0.148787 0.115565 0.846659
O O7 0.000000 0.166874 0.889666
O O8 0.116058 0.136904 0.976047
O O9 0.812196 0.580787 0.922621
O O10 0.715199 0.500000 0.000000
O O11 0.662319 0.631697 0.980723
O O12 0.750000 0.842998 0.250000
O O13 0.577276 0.814390 0.250927
O O14 0.124338 0.750000 0.444953
O O15 0.000000 0.656818 0.472331
O O16 0.592710 0.500000 0.500000
O O17 0.500000 0.594124 0.564501
#
# Coordination Sequence:
#
# PCOD9536585 Si02
#       7
#    16  16  16  16  16   4  16
#     4  10  20  35  53  71 104 141 175 215 260 313
#     4  10  19  35  52  73 106 139 173 218 262 306
#     4   9  18  32  48  70  95 131 173 215 256 311
#     4  12  24  34  53  76 103 146 182 214 257 311
#     4   9  18  29  47  71  98 131 170 211 259 307
#     4  12  22  44  44  74 116 144 180 220 252 304
#     4   9  19  33  50  69  94 131 173 217 259 301
#
# _framework density 18.081316000000001
#
# number of rings (size 3 to 8) (size 9 to 14) (size 15 to 20)
#    0.000    2.080    2.400    0.720    7.840    2.560 
#    0.000    0.000    0.000    0.000    0.000    0.000 
#    0.000    1.920    0.000    9.280    0.000    1.280 
#
# Total GULP energy -278406.102818 kJ/mol
# GULP energy per Si atom -5568.122056 kJ/mol
# Density = 1.804016 g / cm^3
# Si number density = 18.081316 Si / 1000 Ang^3
#
#
#
# Elastic Constant Matrix: (Units=GPa)
#
#
# Indices 1 2 3 4 5 6 
#
# 1 129.5453 24.0561 23.0349 0.0000 0.0000 0.0000
# 2 24.0561 39.2025 18.6056 0.0000 0.0000 0.0000
# 3 23.0349 18.6056 24.6237 0.0000 0.0000 0.0000
# 4 0.0000 0.0000 0.0000 1.5157 0.0000 0.0000
# 5 0.0000 0.0000 0.0000 0.0000 3.5940 0.0000
# 6 0.0000 0.0000 0.0000 0.0000 0.0000 36.4556
#
#
#
# Elastic Compliance Matrix: (Units=1/GPa)
#
#
# Indices 1 2 3 4 5 6 
#
# 1 0.009413 -0.002490 -0.006924 0.000000 0.000000 0.000000
# 2 -0.002490 0.040429 -0.028219 0.000000 0.000000 0.000000
# 3 -0.006924 -0.028219 0.068411 0.000000 0.000000 0.000000
# 4 0.000000 0.000000 0.000000 0.659752 0.000000 0.000000
# 5 0.000000 0.000000 0.000000 0.000000 0.278240 0.000000
# 6 0.000000 0.000000 0.000000 0.000000 0.000000 0.027431
#
#
# Mechanical properties :
#
#
# Convention : Reuss Voigt Hill
#
# Bulk Modulus (GPa) = 23.26288 36.08495 29.67392
# Shear Modulus (GPa) = 4.26159 16.82471 10.54315
#
# Velocity S-wave (km/s) = 1.53689 3.05372 2.41736
# Velocity P-wave (km/s) = 4.00537 5.69509 4.92326
#
# Compressibility (1/GPa) = 0.04298694
#
# Stress axis : x y z
#
# Youngs Moduli (GPa) = 106.23741 24.73448 14.61749
#
# Poissons Ratio (x) = 0.06159 0.10121
# Poissons Ratio (y) = 0.26452 0.41249
# Poissons Ratio (z) = 0.73561 0.69799
#
# Static dielectric constant tensor:
#      x y z
#    x 1.670080 0.000000 0.000000 
#    y 0.000000 1.168580 0.000000 
#    z 0.000000 0.000000 1.651630 
# 
# From -- ./inp_files/52151.got.cif
#   From: 2010.05.17/outbox.cif.g08.bks.cpg/sg74_27_cif.got.tgz:52151.got - 2010.06.03 17:57:02.
