data_PCOD9536933
_publ_section_title
;
Structure prediction by ZEFSAII (Michael W. Deem and Ramdas Pophale) SiO2 
 PCOD9536933
Probable space group: I M M A
;
_chemical_formula_sum "Si O2"
_cell_formula_units_Z 96
_cell_length_a 25.561024
_cell_length_b 8.781053
_cell_length_c 25.578891
_cell_angle_alpha 90.000000
_cell_angle_beta 90.000000
_cell_angle_gamma 90.000000
_cell_volume 5741.251314
_symmetry_space_group_name_H-M "I M M A"
_symmetry_group_IT_number 74
_symmetry_cell_setting 'orthorhombic'
loop_
_space_group_symop_operation_xyz
x,y,z
-x,1/2-y,z
x,-y,-z
-x,1/2+y,-z
-x,-y,-z
x,1/2+y,-z
-x,y,z
x,1/2-y,z
1/2+x,1/2+y,1/2+z
1/2-x,-y,1/2+z
1/2+x,1/2-y,1/2-z
1/2-x,y,1/2-z
1/2-x,1/2-y,1/2-z
1/2+x,y,1/2-z
1/2-x,1/2+y,1/2+z
1/2+x,-y,1/2+z
loop_
_atom_site_type_symbol
_atom_site_label
_atom_site_fract_x
_atom_site_fract_y
_atom_site_fract_z
Si Si1 0.754068 0.565445 0.444948
Si Si2 0.058769 0.073696 0.248602
Si Si3 0.626277 0.424975 0.950262
Si Si4 0.559376 0.916829 0.873785
Si Si5 0.751595 0.933367 0.668017
Si Si6 0.829259 0.567606 0.252503
O O1 0.731840 0.500000 0.500000
O O2 0.749976 0.750000 0.444468
O O3 0.815047 0.514422 0.444927
O O4 0.736528 0.497545 0.389232
O O5 0.065529 0.250000 0.231138
O O6 0.057348 0.076919 0.311635
O O7 0.000000 0.022419 0.231464
O O8 0.111081 0.977654 0.238438
O O9 0.631272 0.250000 0.961587
O O10 0.594629 0.455522 0.898385
O O11 0.599109 0.500000 0.000000
O O12 0.500000 0.929849 0.892956
O O13 0.580348 0.750000 0.889334
O O14 0.754132 0.750000 0.667601
O O15 0.806204 0.998985 0.692724
O O16 0.707900 0.993567 0.708480
O O17 0.823456 0.750000 0.254061
#
# Coordination Sequence:
#
# PCOD9536933 Si02
#       6
#    16  16  16  16  16  16
#     4  10  20  34  50  71  96 123 157 196 240 290
#     4   9  18  33  51  70  94 125 159 194 236 290
#     4  10  20  31  44  60  80 109 145 187 232 277
#     4   9  18  31  45  60  80 109 146 188 232 276
#     4  11  21  34  52  73  99 133 169 205 249 298
#     4  11  21  33  50  74 103 132 165 207 251 297
#
# _framework density 16.721094000000001
#
# number of rings (size 3 to 8) (size 9 to 14) (size 15 to 20)
#    0.000    2.000    0.000    7.000    0.000    6.333 
#    0.000    1.667    0.000    0.000    0.000    0.000 
#    0.000    0.667    0.000    2.500    0.000    3.833 
#
# Total GULP energy -267367.421839 kJ/mol
# GULP energy per Si atom -5570.154622 kJ/mol
# Density = 1.668304 g / cm^3
# Si number density = 16.721094 Si / 1000 Ang^3
#
#
#
# Elastic Constant Matrix: (Units=GPa)
#
#
# Indices 1 2 3 4 5 6 
#
# 1 66.8158 27.9254 14.2207 0.0000 0.0000 0.0000
# 2 27.9254 87.0834 34.6257 0.0000 0.0000 0.0000
# 3 14.2207 34.6257 82.3328 0.0000 0.0000 0.0000
# 4 0.0000 0.0000 0.0000 23.6902 0.0000 0.0000
# 5 0.0000 0.0000 0.0000 0.0000 14.2371 0.0000
# 6 0.0000 0.0000 0.0000 0.0000 0.0000 18.0967
#
#
#
# Elastic Compliance Matrix: (Units=1/GPa)
#
#
# Indices 1 2 3 4 5 6 
#
# 1 0.017325 -0.005243 -0.000788 0.000000 0.000000 0.000000
# 2 -0.005243 0.015375 -0.005561 0.000000 0.000000 0.000000
# 3 -0.000788 -0.005561 0.014621 0.000000 0.000000 0.000000
# 4 0.000000 0.000000 0.000000 0.042212 0.000000 0.000000
# 5 0.000000 0.000000 0.000000 0.000000 0.070239 0.000000
# 6 0.000000 0.000000 0.000000 0.000000 0.000000 0.055259
#
#
# Mechanical properties :
#
#
# Convention : Reuss Voigt Hill
#
# Bulk Modulus (GPa) = 41.42632 43.30840 42.36736
# Shear Modulus (GPa) = 20.30383 21.83548 21.06966
#
# Velocity S-wave (km/s) = 3.48841 3.61760 3.55359
# Velocity P-wave (km/s) = 6.40734 6.58832 6.49846
#
# Compressibility (1/GPa) = 0.02413924
#
# Stress axis : x y z
#
# Youngs Moduli (GPa) = 57.71913 65.03876 68.39711
#
# Poissons Ratio (x) = 0.34097 0.05387
# Poissons Ratio (y) = 0.30260 0.38034
# Poissons Ratio (z) = 0.04546 0.36167
#
# Static dielectric constant tensor:
#      x y z
#    x 1.587980 0.000000 0.000000 
#    y 0.000000 1.583620 0.000000 
#    z 0.000000 0.000000 1.611280 
# 
# From -- ./inp_files/62257.got.cif
#   From: 2010.05.17/outbox.cif.g08.bks.cpg/sg74_32_cif.got.tgz:62257.got - 2010.06.03 17:57:02.
