data_PCOD9536978
_publ_section_title
;
Structure prediction by ZEFSAII (Michael W. Deem and Ramdas Pophale) SiO2 
 PCOD9536978
Probable space group: I M M A
;
_chemical_formula_sum "Si O2"
_cell_formula_units_Z 112
_cell_length_a 26.131058
_cell_length_b 15.048299
_cell_length_c 14.583903
_cell_angle_alpha 90.000000
_cell_angle_beta 90.000000
_cell_angle_gamma 90.000000
_cell_volume 5734.798629
_symmetry_space_group_name_H-M "I M M A"
_symmetry_group_IT_number 74
_symmetry_cell_setting 'orthorhombic'
loop_
_space_group_symop_operation_xyz
x,y,z
-x,1/2-y,z
x,-y,-z
-x,1/2+y,-z
-x,-y,-z
x,1/2+y,-z
-x,y,z
x,1/2-y,z
1/2+x,1/2+y,1/2+z
1/2-x,-y,1/2+z
1/2+x,1/2-y,1/2-z
1/2-x,y,1/2-z
1/2-x,1/2-y,1/2-z
1/2+x,y,1/2-z
1/2-x,1/2+y,1/2+z
1/2+x,-y,1/2+z
loop_
_atom_site_type_symbol
_atom_site_label
_atom_site_fract_x
_atom_site_fract_y
_atom_site_fract_z
Si Si1 0.109563 0.355326 0.842047
Si Si2 0.728366 0.976836 0.857118
Si Si3 0.079744 0.150155 0.042640
Si Si4 0.268506 0.346366 0.645013
Si Si5 0.308630 0.343496 0.388007
Si Si6 0.559036 0.968798 0.718241
Si Si7 0.860068 0.147652 0.312741
O O1 0.104799 0.250000 0.814516
O O2 0.170917 0.370305 0.855030
O O3 0.089516 0.437570 0.781332
O O4 0.074941 0.365700 0.934538
O O5 0.750000 0.977855 0.750000
O O6 0.772083 0.922949 0.908241
O O7 0.676199 0.922111 0.865222
O O8 0.731449 0.077062 0.890957
O O9 0.060752 0.250000 0.066059
O O10 0.141136 0.154179 0.051634
O O11 0.062217 0.077838 0.116592
O O12 0.263603 0.250000 0.600263
O O13 0.250000 0.337455 0.750000
O O14 0.280349 0.250000 0.394789
O O15 0.330890 0.347160 0.285393
O O16 0.500000 0.982864 0.740189
O O17 0.586620 0.899181 0.786471
O O18 0.864310 0.250000 0.346010
#
# Coordination Sequence:
#
# PCOD9536978 Si02
#       7
#    16  16  16  16  16  16  16
#     4  10  20  32  43  56  77 105 137 172 205 239
#     4   9  14  22  38  58  77  94 116 149 191 238
#     4   9  18  30  42  57  78 103 133 169 207 245
#     4   9  16  26  41  58  75  97 126 158 193 236
#     4   8  13  22  37  56  75  95 119 150 192 240
#     4  11  21  31  43  56  73 103 142 182 216 238
#     4   9  17  28  41  58  77  95 120 158 202 243
#
# _framework density 19.529893000000001
#
# number of rings (size 3 to 8) (size 9 to 14) (size 15 to 20)
#    0.000    2.714    0.000    5.571    0.000    4.286 
#    0.000    1.429    0.000    0.000    0.000    0.000 
#    0.000    0.000    0.000    0.000    0.000   11.429 
#
# Total GULP energy -311758.800905 kJ/mol
# GULP energy per Si atom -5567.121445 kJ/mol
# Density = 1.948544 g / cm^3
# Si number density = 19.529893 Si / 1000 Ang^3
#
#
#
# Elastic Constant Matrix: (Units=GPa)
#
#
# Indices 1 2 3 4 5 6 
#
# 1 88.1875 59.9247 5.9518 0.0000 0.0000 0.0000
# 2 59.9247 159.1343 -2.9502 0.0000 0.0000 0.0000
# 3 5.9518 -2.9502 13.7987 0.0000 0.0000 0.0000
# 4 0.0000 0.0000 0.0000 1.9345 0.0000 0.0000
# 5 0.0000 0.0000 0.0000 0.0000 3.4856 0.0000
# 6 0.0000 0.0000 0.0000 0.0000 0.0000 -16.2890
#
#
#
# Elastic Compliance Matrix: (Units=1/GPa)
#
#
# Indices 1 2 3 4 5 6 
#
# 1 0.016131 -0.006228 -0.008289 0.000000 0.000000 0.000000
# 2 -0.006228 0.008714 0.004549 0.000000 0.000000 0.000000
# 3 -0.008289 0.004549 0.077019 0.000000 0.000000 0.000000
# 4 0.000000 0.000000 0.000000 0.516932 0.000000 0.000000
# 5 0.000000 0.000000 0.000000 0.000000 0.286897 0.000000
# 6 0.000000 0.000000 0.000000 0.000000 0.000000 -0.061391
#
#
# Mechanical properties :
#
#
# Convention : Reuss Voigt Hill
#
# Bulk Modulus (GPa) = 12.20595 42.99699 27.60147
# Shear Modulus (GPa) = 5.60823 11.03918 8.32371
#
# Velocity S-wave (km/s) = 1.69642 2.38007 2.06671
# Velocity P-wave (km/s) = 3.17814 5.44213 4.45631
#
# Compressibility (1/GPa) = 0.08192725
#
# Stress axis : x y z
#
# Youngs Moduli (GPa) = 61.99255 114.76282 12.98386
#
# Poissons Ratio (x) = 0.71475 0.10763
# Poissons Ratio (y) = 0.38609 -0.05907
# Poissons Ratio (z) = 0.51388 -0.52210
#
# Static dielectric constant tensor:
#      x y z
#    x 1.667530 0.000000 0.000000 
#    y 0.000000 1.770280 0.000000 
#    z 0.000000 0.000000 1.753780 
# 
# From -- ./inp_files/37407.got.cif
#   From: 2010.05.17/outbox.cif.g08.bks.cpg/sg74_19_cif.got.tgz:37407.got - 2010.06.03 17:57:02.
