data_PCOD9536614
_publ_section_title
;
Structure prediction by ZEFSAII (Michael W. Deem and Ramdas Pophale) SiO2 
 PCOD9536614
Probable space group: I M M A
;
_chemical_formula_sum "Si O2"
_cell_formula_units_Z 64
_cell_length_a 24.696966
_cell_length_b 7.987643
_cell_length_c 15.034411
_cell_angle_alpha 90.000000
_cell_angle_beta 90.000000
_cell_angle_gamma 90.000000
_cell_volume 2965.846491
_symmetry_space_group_name_H-M "I M M A"
_symmetry_group_IT_number 74
_symmetry_cell_setting 'orthorhombic'
loop_
_space_group_symop_operation_xyz
x,y,z
-x,1/2-y,z
x,-y,-z
-x,1/2+y,-z
-x,-y,-z
x,1/2+y,-z
-x,y,z
x,1/2-y,z
1/2+x,1/2+y,1/2+z
1/2-x,-y,1/2+z
1/2+x,1/2-y,1/2-z
1/2-x,y,1/2-z
1/2-x,1/2-y,1/2-z
1/2+x,y,1/2-z
1/2-x,1/2+y,1/2+z
1/2+x,-y,1/2+z
loop_
_atom_site_type_symbol
_atom_site_label
_atom_site_fract_x
_atom_site_fract_y
_atom_site_fract_z
Si Si1 0.381209 0.432923 0.353411
Si Si2 0.814410 0.750000 0.141625
Si Si3 0.000000 0.449968 0.897010
Si Si4 0.311060 0.250000 0.860342
Si Si5 0.380391 0.560073 0.854926
Si Si6 0.000000 0.050064 0.397668
O O1 0.371414 0.250000 0.393983
O O2 0.346369 0.585722 0.390328
O O3 0.444828 0.474749 0.358500
O O4 0.367121 0.423781 0.249163
O O5 0.751839 0.750000 0.115690
O O6 0.815344 0.750000 0.251100
O O7 0.000000 0.250000 0.885904
O O8 0.000000 0.500000 0.000000
O O9 0.341264 0.417840 0.892637
O O10 0.377335 0.750000 0.893212
O O11 0.442283 0.493813 0.860110
O O12 0.000000 0.250000 0.385708
O O13 0.000000 0.000000 0.500000
#
# Coordination Sequence:
#
# PCOD9536614 Si02
#       6
#    16   8   8   8  16   8
#     4  10  19  35  56  79 110 142 173 218 270 317
#     4   9  18  33  51  85 107 136 179 222 258 315
#     4  12  23  36  54  82 110 141 176 220 267 326
#     4   9  18  31  55  79 109 138 179 218 264 309
#     4   9  19  34  53  79 110 141 176 220 268 319
#     4  10  21  34  50  79 107 139 177 220 266 323
#
# _framework density 21.579001000000002
#
# number of rings (size 3 to 8) (size 9 to 14) (size 15 to 20)
#    0.000    2.250    1.250    1.875    1.750    3.000 
#    0.000    5.000    0.000    1.500    0.000    0.000 
#    0.000    0.000    0.000    0.000    0.000    0.000 
#
# Total GULP energy -178633.992958 kJ/mol
# GULP energy per Si atom -5582.312280 kJ/mol
# Density = 2.152989 g / cm^3
# Si number density = 21.579001 Si / 1000 Ang^3
#
#
#
# Elastic Constant Matrix: (Units=GPa)
#
#
# Indices 1 2 3 4 5 6 
#
# 1 174.6689 115.1747 -12.3535 0.0000 0.0000 0.0000
# 2 115.1747 196.7210 7.1676 0.0000 0.0000 0.0000
# 3 -12.3535 7.1676 27.8017 0.0000 0.0000 0.0000
# 4 0.0000 0.0000 0.0000 16.9024 0.0000 0.0000
# 5 0.0000 0.0000 0.0000 0.0000 -49.1566 0.0000
# 6 0.0000 0.0000 0.0000 0.0000 0.0000 -13.5172
#
#
#
# Elastic Compliance Matrix: (Units=1/GPa)
#
#
# Indices 1 2 3 4 5 6 
#
# 1 0.010278 -0.006243 0.006177 0.000000 0.000000 0.000000
# 2 -0.006243 0.008923 -0.005074 0.000000 0.000000 0.000000
# 3 0.006177 -0.005074 0.040022 0.000000 0.000000 0.000000
# 4 0.000000 0.000000 0.000000 0.059163 0.000000 0.000000
# 5 0.000000 0.000000 0.000000 0.000000 -0.020343 0.000000
# 6 0.000000 0.000000 0.000000 0.000000 0.000000 -0.073980
#
#
# Mechanical properties :
#
#
# Convention : Reuss Voigt Hill
#
# Bulk Modulus (GPa) = 20.43227 68.79657 44.61442
# Shear Modulus (GPa) = 98.69940 10.12590 54.41265
#
# Velocity S-wave (km/s) = 6.77037 2.16856 5.02696
# Velocity P-wave (km/s) = 8.40276 6.18229 7.37655
#
# Compressibility (1/GPa) = 0.04894218
#
# Stress axis : x y z
#
# Youngs Moduli (GPa) = 97.29197 112.06772 24.98636
#
# Poissons Ratio (x) = 0.69961 -0.15433
# Poissons Ratio (y) = 0.60737 0.12679
# Poissons Ratio (z) = -0.60093 0.56868
#
# Static dielectric constant tensor:
#      x y z
#    x 1.747070 0.000000 0.000000 
#    y 0.000000 1.802860 0.000000 
#    z 0.000000 0.000000 1.754860 
# 
# From -- ./inp_files/28908.got.cif
#   From: 2010.05.17/outbox.cif.g08.bks.cpg/sg74_15_cif.got.tgz:28908.got - 2010.06.03 17:57:02.
