data_PCOD9536302
_publ_section_title
;
Structure prediction by ZEFSAII (Michael W. Deem and Ramdas Pophale) SiO2 
 PCOD9536302
Probable space group: I M M A
;
_chemical_formula_sum "Si O2"
_cell_formula_units_Z 72
_cell_length_a 20.051036
_cell_length_b 10.421508
_cell_length_c 19.026846
_cell_angle_alpha 90.000000
_cell_angle_beta 90.000000
_cell_angle_gamma 90.000000
_cell_volume 3975.888404
_symmetry_space_group_name_H-M "I M M A"
_symmetry_group_IT_number 74
_symmetry_cell_setting 'orthorhombic'
loop_
_space_group_symop_operation_xyz
x,y,z
-x,1/2-y,z
x,-y,-z
-x,1/2+y,-z
-x,-y,-z
x,1/2+y,-z
-x,y,z
x,1/2-y,z
1/2+x,1/2+y,1/2+z
1/2-x,-y,1/2+z
1/2+x,1/2-y,1/2-z
1/2-x,y,1/2-z
1/2-x,1/2-y,1/2-z
1/2+x,y,1/2-z
1/2-x,1/2+y,1/2+z
1/2+x,-y,1/2+z
loop_
_atom_site_type_symbol
_atom_site_label
_atom_site_fract_x
_atom_site_fract_y
_atom_site_fract_z
Si Si1 0.580618 0.007232 0.171033
Si Si2 0.320642 0.096990 0.286021
Si Si3 0.852154 0.100923 0.063571
Si Si4 0.580742 0.250000 0.074314
Si Si5 0.500000 0.889866 0.556343
Si Si6 0.080807 0.250000 0.586843
O O1 0.500000 0.010337 0.182517
O O2 0.621650 0.025649 0.242624
O O3 0.599087 0.124787 0.119085
O O4 0.598503 0.876748 0.130388
O O5 0.335789 0.250000 0.284008
O O6 0.250000 0.075326 0.250000
O O7 0.311983 0.062183 0.367745
O O8 0.838244 0.250000 0.042928
O O9 0.928925 0.100228 0.092796
O O10 0.846310 0.000000 0.000000
O O11 0.500000 0.250000 0.070396
O O12 0.605787 0.250000 0.993891
O O13 0.500000 0.750000 0.520699
O O14 0.500000 0.000000 0.500000
O O15 0.000000 0.250000 0.582106
#
# Coordination Sequence:
#
# PCOD9536302 Si02
#       6
#    16  16  16   8   8   8
#     4  10  19  33  56  83 109 142 186 224 272 330
#     4  10  21  37  57  78 112 145 179 226 275 321
#     4   9  18  34  56  79 105 137 177 221 266 319
#     4   9  16  30  53  82 107 145 187 226 262 318
#     4   8  14  26  48  78 104 126 163 217 264 304
#     4   9  18  32  51  80 121 143 171 228 280 312
#
# _framework density 18.109159999999999
#
# number of rings (size 3 to 8) (size 9 to 14) (size 15 to 20)
#    0.000    2.667    1.111    0.667    1.556    2.667 
#    2.000    2.778    0.000    0.000    0.000    0.000 
#    0.000    0.000    0.000    0.000    0.000    0.000 
#
# Total GULP energy -200409.947937 kJ/mol
# GULP energy per Si atom -5566.942998 kJ/mol
# Density = 1.806794 g / cm^3
# Si number density = 18.109160 Si / 1000 Ang^3
#
#
#
# Elastic Constant Matrix: (Units=GPa)
#
#
# Indices 1 2 3 4 5 6 
#
# 1 28.7506 20.5090 38.2892 0.0000 0.0000 0.0000
# 2 20.5090 118.4263 67.0675 0.0000 0.0000 0.0000
# 3 38.2892 67.0675 138.7631 0.0000 0.0000 0.0000
# 4 0.0000 0.0000 0.0000 22.2220 0.0000 0.0000
# 5 0.0000 0.0000 0.0000 0.0000 26.6957 0.0000
# 6 0.0000 0.0000 0.0000 0.0000 0.0000 7.5423
#
#
#
# Elastic Compliance Matrix: (Units=1/GPa)
#
#
# Indices 1 2 3 4 5 6 
#
# 1 0.055131 -0.001284 -0.014592 0.000000 0.000000 0.000000
# 2 -0.001284 0.011656 -0.005280 0.000000 0.000000 0.000000
# 3 -0.014592 -0.005280 0.013785 0.000000 0.000000 0.000000
# 4 0.000000 0.000000 0.000000 0.045000 0.000000 0.000000
# 5 0.000000 0.000000 0.000000 0.000000 0.037459 0.000000
# 6 0.000000 0.000000 0.000000 0.000000 0.000000 0.132586
#
#
# Mechanical properties :
#
#
# Convention : Reuss Voigt Hill
#
# Bulk Modulus (GPa) = 26.13609 59.74126 42.93867
# Shear Modulus (GPa) = 14.25797 21.96361 18.11079
#
# Velocity S-wave (km/s) = 2.80899 3.48637 3.16585
# Velocity P-wave (km/s) = 4.99844 7.01908 6.09311
#
# Compressibility (1/GPa) = 0.03826127
#
# Stress axis : x y z
#
# Youngs Moduli (GPa) = 18.13872 85.79039 72.54476
#
# Poissons Ratio (x) = 0.11014 1.05856
# Poissons Ratio (y) = 0.02329 0.38300
# Poissons Ratio (z) = 0.26468 0.45293
#
# Static dielectric constant tensor:
#      x y z
#    x 1.649340 0.000000 0.000000 
#    y 0.000000 1.614670 0.000000 
#    z 0.000000 0.000000 1.615340 
# 
# From -- ./inp_files/53672.got.cif
#   From: 2010.05.17/outbox.cif.g08.bks.cpg/sg74_27_cif.got.tgz:53672.got - 2010.06.03 17:57:02.
