data_PCOD9536356
_publ_section_title
;
Structure prediction by ZEFSAII (Michael W. Deem and Ramdas Pophale) SiO2 
 PCOD9536356
Probable space group: I M M A
;
_chemical_formula_sum "Si O2"
_cell_formula_units_Z 80
_cell_length_a 24.212640
_cell_length_b 7.482250
_cell_length_c 26.236338
_cell_angle_alpha 90.000000
_cell_angle_beta 90.000000
_cell_angle_gamma 90.000000
_cell_volume 4753.106846
_symmetry_space_group_name_H-M "I M M A"
_symmetry_group_IT_number 74
_symmetry_cell_setting 'orthorhombic'
loop_
_space_group_symop_operation_xyz
x,y,z
-x,1/2-y,z
x,-y,-z
-x,1/2+y,-z
-x,-y,-z
x,1/2+y,-z
-x,y,z
x,1/2-y,z
1/2+x,1/2+y,1/2+z
1/2-x,-y,1/2+z
1/2+x,1/2-y,1/2-z
1/2-x,y,1/2-z
1/2-x,1/2-y,1/2-z
1/2+x,y,1/2-z
1/2-x,1/2+y,1/2+z
1/2+x,-y,1/2+z
loop_
_atom_site_type_symbol
_atom_site_label
_atom_site_fract_x
_atom_site_fract_y
_atom_site_fract_z
Si Si1 0.842170 0.465991 0.742910
Si Si2 0.249673 0.536906 0.444033
Si Si3 0.936425 0.750000 0.738494
Si Si4 0.622223 0.960264 0.055988
Si Si5 0.438583 0.250000 0.117584
Si Si6 0.245776 0.466538 0.830990
O O1 0.850668 0.250000 0.741395
O O2 0.898284 0.576676 0.750029
O O3 0.801358 0.510342 0.790079
O O4 0.805538 0.519285 0.692779
O O5 0.275221 0.500000 0.500000
O O6 0.250308 0.750000 0.440679
O O7 0.185857 0.477586 0.446202
O O8 0.268408 0.470104 0.388226
O O9 0.940967 0.750000 0.677716
O O10 0.000000 0.750000 0.758779
O O11 0.620787 0.750000 0.066384
O O12 0.591761 0.075004 0.097629
O O13 0.598315 0.000000 0.000000
O O14 0.500000 0.250000 0.095879
O O15 0.248097 0.250000 0.831975
#
# Coordination Sequence:
#
# PCOD9536356 Si02
#       6
#    16  16   8  16   8  16
#     4   9  18  35  55  74  98 132 166 208 255 292
#     4   9  17  28  44  69 100 129 152 186 232 294
#     4  11  24  37  49  73 101 126 171 217 249 300
#     4  10  19  34  50  65  88 124 164 197 241 291
#     4  11  24  36  47  65  87 117 164 220 255 275
#     4   8  15  30  52  76 100 128 167 202 242 305
#
# _framework density 16.831098000000001
#
# number of rings (size 3 to 8) (size 9 to 14) (size 15 to 20)
#    0.000    2.600    1.000    2.400    1.400    5.200 
#    3.600    2.000    0.000    0.000    0.000    0.000 
#    0.000    0.800    0.400    0.000    0.000    0.000 
#
# Total GULP energy -222749.751494 kJ/mol
# GULP energy per Si atom -5568.743787 kJ/mol
# Density = 1.679279 g / cm^3
# Si number density = 16.831098 Si / 1000 Ang^3
#
#
#
# Elastic Constant Matrix: (Units=GPa)
#
#
# Indices 1 2 3 4 5 6 
#
# 1 77.5966 29.0987 25.3946 0.0000 0.0000 0.0000
# 2 29.0987 70.5624 11.4239 0.0000 0.0000 0.0000
# 3 25.3946 11.4239 108.7787 0.0000 0.0000 0.0000
# 4 0.0000 0.0000 0.0000 18.1387 0.0000 0.0000
# 5 0.0000 0.0000 0.0000 0.0000 16.7065 0.0000
# 6 0.0000 0.0000 0.0000 0.0000 0.0000 18.0373
#
#
#
# Elastic Compliance Matrix: (Units=1/GPa)
#
#
# Indices 1 2 3 4 5 6 
#
# 1 0.016235 -0.006187 -0.003140 0.000000 0.000000 0.000000
# 2 -0.006187 0.016774 -0.000317 0.000000 0.000000 0.000000
# 3 -0.003140 -0.000317 0.009959 0.000000 0.000000 0.000000
# 4 0.000000 0.000000 0.000000 0.055131 0.000000 0.000000
# 5 0.000000 0.000000 0.000000 0.000000 0.059857 0.000000
# 6 0.000000 0.000000 0.000000 0.000000 0.000000 0.055441
#
#
# Mechanical properties :
#
#
# Convention : Reuss Voigt Hill
#
# Bulk Modulus (GPa) = 42.22942 43.19688 42.71315
# Shear Modulus (GPa) = 20.78316 23.31118 22.04717
#
# Velocity S-wave (km/s) = 3.51779 3.72560 3.62319
# Velocity P-wave (km/s) = 6.45325 6.65037 6.55255
#
# Compressibility (1/GPa) = 0.02368018
#
# Stress axis : x y z
#
# Youngs Moduli (GPa) = 61.59591 59.61444 100.40735
#
# Poissons Ratio (x) = 0.36881 0.31531
# Poissons Ratio (y) = 0.38107 0.03187
# Poissons Ratio (z) = 0.19343 0.01892
#
# Static dielectric constant tensor:
#      x y z
#    x 1.557850 0.000000 0.000000 
#    y 0.000000 1.604700 0.000000 
#    z 0.000000 0.000000 1.632860 
# 
# From -- ./inp_files/68046.got.cif
#   From: 2010.05.17/outbox.cif.g08.bks.cpg/sg74_35_cif.got.tgz:68046.got - 2010.06.03 17:57:02.
