data_PCOD9536631
_publ_section_title
;
Structure prediction by ZEFSAII (Michael W. Deem and Ramdas Pophale) SiO2 
 PCOD9536631
Probable space group: I M M A
;
_chemical_formula_sum "Si O2"
_cell_formula_units_Z 52
_cell_length_a 8.437490
_cell_length_b 10.147547
_cell_length_c 27.737682
_cell_angle_alpha 90.000000
_cell_angle_beta 90.000000
_cell_angle_gamma 90.000000
_cell_volume 2374.895516
_symmetry_space_group_name_H-M "I M M A"
_symmetry_group_IT_number 74
_symmetry_cell_setting 'orthorhombic'
loop_
_space_group_symop_operation_xyz
x,y,z
-x,1/2-y,z
x,-y,-z
-x,1/2+y,-z
-x,-y,-z
x,1/2+y,-z
-x,y,z
x,1/2-y,z
1/2+x,1/2+y,1/2+z
1/2-x,-y,1/2+z
1/2+x,1/2-y,1/2-z
1/2-x,y,1/2-z
1/2-x,1/2-y,1/2-z
1/2+x,y,1/2-z
1/2-x,1/2+y,1/2+z
1/2+x,-y,1/2+z
loop_
_atom_site_type_symbol
_atom_site_label
_atom_site_fract_x
_atom_site_fract_y
_atom_site_fract_z
Si Si1 0.312946 0.408599 0.197074
Si Si2 0.500000 0.033091 0.057044
Si Si3 0.500000 0.750000 0.048197
Si Si4 0.175314 0.026809 0.097990
Si Si5 0.334719 0.750000 0.458197
O O1 0.500000 0.437611 0.192472
O O2 0.293686 0.250000 0.191602
O O3 0.250000 0.443867 0.250000
O O4 0.213776 0.475184 0.154510
O O5 0.500000 0.883240 0.078886
O O6 0.333208 0.091025 0.074428
O O7 0.500000 0.000000 0.000000
O O8 0.662141 0.750000 0.018122
O O9 0.165612 0.882004 0.073820
O O10 0.000000 0.086164 0.090250
O O11 0.500000 0.750000 0.486600
#
# Coordination Sequence:
#
# PCOD9536631 Si02
#       5
#    16   8   4  16   8
#     4  10  20  35  55  81 113 150 188 227 277 335
#     4  10  20  36  54  80 108 144 186 230 283 327
#     4   8  16  32  52  70 100 142 174 214 274 330
#     4  10  19  35  57  80 108 142 184 229 277 333
#     4   8  16  30  53  77  99 135 176 216 265 324
#
# _framework density 21.895700999999999
#
# number of rings (size 3 to 8) (size 9 to 14) (size 15 to 20)
#    0.000    2.462    1.538    0.923    0.000    2.462 
#    2.769    0.769    0.000    0.000    0.000    0.000 
#    0.000    0.000    0.000    0.000    0.000    0.000 
#
# Total GULP energy -144842.115819 kJ/mol
# GULP energy per Si atom -5570.850608 kJ/mol
# Density = 2.184587 g / cm^3
# Si number density = 21.895701 Si / 1000 Ang^3
#
#
#
# Elastic Constant Matrix: (Units=GPa)
#
#
# Indices 1 2 3 4 5 6 
#
# 1 266.7071 7.5678 54.6466 0.0000 0.0000 0.0000
# 2 7.5678 57.9152 12.6736 0.0000 0.0000 0.0000
# 3 54.6466 12.6736 125.9537 0.0000 0.0000 0.0000
# 4 0.0000 0.0000 0.0000 19.3994 0.0000 0.0000
# 5 0.0000 0.0000 0.0000 0.0000 -522.9164 0.0000
# 6 0.0000 0.0000 0.0000 0.0000 0.0000 -8.9124
#
#
#
# Elastic Compliance Matrix: (Units=1/GPa)
#
#
# Indices 1 2 3 4 5 6 
#
# 1 0.004117 -0.000150 -0.001771 0.000000 0.000000 0.000000
# 2 -0.000150 0.017661 -0.001712 0.000000 0.000000 0.000000
# 3 -0.001771 -0.001712 0.008880 0.000000 0.000000 0.000000
# 4 0.000000 0.000000 0.000000 0.051548 0.000000 0.000000
# 5 0.000000 0.000000 0.000000 0.000000 -0.001912 0.000000
# 6 0.000000 0.000000 0.000000 0.000000 0.000000 -0.112203
#
#
# Mechanical properties :
#
#
# Convention : Reuss Voigt Hill
#
# Bulk Modulus (GPa) = 42.75102 66.70579 54.72841
# Shear Modulus (GPa) = -296.78611 -77.44002 -187.11306
#
# Velocity S-wave (km/s) = -11.65503 -5.95353 -9.25430
# Velocity P-wave (km/s) = 12.71032 4.08998 9.44140
#
# Compressibility (1/GPa) = 0.02339125
#
# Stress axis : x y z
#
# Youngs Moduli (GPa) = 242.92237 56.62231 112.61279
#
# Poissons Ratio (x) = 0.00852 0.19942
# Poissons Ratio (y) = 0.03653 0.19277
# Poissons Ratio (z) = 0.43019 0.09693
#
# Static dielectric constant tensor:
#      x y z
#    x 1.904440 0.000000 0.000000 
#    y 0.000000 1.857440 0.000000 
#    z 0.000000 0.000000 1.749080 
# 
# From -- ./inp_files/56259.got.cif
#   From: 2010.05.17/outbox.cif.g08.bks.cpg/sg74_29_cif.got.tgz:56259.got - 2010.06.03 17:57:02.
