data_PCOD9536430
_publ_section_title
;
Structure prediction by ZEFSAII (Michael W. Deem and Ramdas Pophale) SiO2 
 PCOD9536430
Probable space group: I M M A
;
_chemical_formula_sum "Si O2"
_cell_formula_units_Z 100
_cell_length_a 9.917607
_cell_length_b 17.957302
_cell_length_c 30.374794
_cell_angle_alpha 90.000000
_cell_angle_beta 90.000000
_cell_angle_gamma 90.000000
_cell_volume 5409.552282
_symmetry_space_group_name_H-M "I M M A"
_symmetry_group_IT_number 74
_symmetry_cell_setting 'orthorhombic'
loop_
_space_group_symop_operation_xyz
x,y,z
-x,1/2-y,z
x,-y,-z
-x,1/2+y,-z
-x,-y,-z
x,1/2+y,-z
-x,y,z
x,1/2-y,z
1/2+x,1/2+y,1/2+z
1/2-x,-y,1/2+z
1/2+x,1/2-y,1/2-z
1/2-x,y,1/2-z
1/2-x,1/2-y,1/2-z
1/2+x,y,1/2-z
1/2-x,1/2+y,1/2+z
1/2+x,-y,1/2+z
loop_
_atom_site_type_symbol
_atom_site_label
_atom_site_fract_x
_atom_site_fract_y
_atom_site_fract_z
Si Si1 0.654402 0.660397 0.536678
Si Si2 0.646242 0.597496 0.385472
Si Si3 0.844652 0.659997 0.456636
Si Si4 0.343383 0.448995 0.207409
Si Si5 0.000000 0.250000 0.679239
Si Si6 0.654680 0.421485 0.372432
Si Si7 0.284792 0.123490 0.800185
O O1 0.500000 0.638649 0.525148
O O2 0.658898 0.750000 0.538842
O O3 0.760197 0.636031 0.499595
O O4 0.684268 0.626997 0.584516
O O5 0.500000 0.621927 0.402534
O O6 0.765672 0.630764 0.414259
O O7 0.654661 0.508165 0.386532
O O8 0.661960 0.619980 0.334459
O O9 0.844302 0.750000 0.455176
O O10 0.000000 0.635432 0.457618
O O11 0.500000 0.426183 0.212016
O O12 0.250000 0.434248 0.250000
O O13 0.265054 0.413972 0.165812
O O14 0.341185 0.538974 0.200877
O O15 0.884929 0.315374 0.681543
O O16 0.500000 0.404964 0.357461
O O17 0.250000 0.142908 0.750000
#
# Coordination Sequence:
#
# PCOD9536430 Si02
#       7
#    16  16  16  16   4  16  16
#     4   9  18  36  61  84 108 135 168 209 261 323
#     4  10  22  37  54  74 104 141 180 221 263 315
#     4  10  22  37  54  75 105 142 179 219 266 311
#     4  10  19  34  55  77 106 142 179 217 258 309
#     4  12  22  36  50  72 104 136 184 230 280 306
#     4   9  19  35  56  83 108 137 174 215 262 313
#     4  10  23  36  52  71 101 140 181 225 271 313
#
# _framework density 18.485817999999998
#
# number of rings (size 3 to 8) (size 9 to 14) (size 15 to 20)
#    0.000    2.240    0.800    1.200    3.360    4.800 
#    0.000    3.200    0.000    0.480    0.000    0.000 
#    0.000    0.000    0.000    0.000    0.000    0.000 
#
# Total GULP energy -278342.972448 kJ/mol
# GULP energy per Si atom -5566.859449 kJ/mol
# Density = 1.844374 g / cm^3
# Si number density = 18.485818 Si / 1000 Ang^3
#
#
#
# Elastic Constant Matrix: (Units=GPa)
#
#
# Indices 1 2 3 4 5 6 
#
# 1 165.7482 19.1057 90.2588 0.0000 0.0000 0.0000
# 2 19.1057 8.0912 21.5659 0.0000 0.0000 0.0000
# 3 90.2588 21.5659 119.4674 0.0000 0.0000 0.0000
# 4 0.0000 0.0000 0.0000 30.5552 0.0000 0.0000
# 5 0.0000 0.0000 0.0000 0.0000 23.5480 0.0000
# 6 0.0000 0.0000 0.0000 0.0000 0.0000 65.9365
#
#
#
# Elastic Compliance Matrix: (Units=1/GPa)
#
#
# Indices 1 2 3 4 5 6 
#
# 1 0.010452 -0.007002 -0.006633 0.000000 0.000000 0.000000
# 2 -0.007002 0.242887 -0.038555 0.000000 0.000000 0.000000
# 3 -0.006633 -0.038555 0.020341 0.000000 0.000000 0.000000
# 4 0.000000 0.000000 0.000000 0.032728 0.000000 0.000000
# 5 0.000000 0.000000 0.000000 0.000000 0.042466 0.000000
# 6 0.000000 0.000000 0.000000 0.000000 0.000000 0.015166
#
#
# Mechanical properties :
#
#
# Convention : Reuss Voigt Hill
#
# Bulk Modulus (GPa) = 5.90666 61.68530 33.79598
# Shear Modulus (GPa) = 9.52646 34.83303 22.17974
#
# Velocity S-wave (km/s) = 2.27257 4.34557 3.46761
# Velocity P-wave (km/s) = 3.17620 7.65638 5.86125
#
# Compressibility (1/GPa) = 0.16930044
#
# Stress axis : x y z
#
# Youngs Moduli (GPa) = 95.67253 4.11715 49.16063
#
# Poissons Ratio (x) = 0.02883 0.32607
# Poissons Ratio (y) = 0.66992 1.89539
# Poissons Ratio (z) = 0.63458 0.15874
#
# Static dielectric constant tensor:
#      x y z
#    x 1.620100 0.000000 0.000000 
#    y 0.000000 1.609710 0.000000 
#    z 0.000000 0.000000 1.641990 
# 
# From -- ./inp_files/68257.got.cif
#   From: 2010.05.17/outbox.cif.g08.bks.cpg/sg74_35_cif.got.tgz:68257.got - 2010.06.03 17:57:02.
