data_PCOD9536330
_publ_section_title
;
Structure prediction by ZEFSAII (Michael W. Deem and Ramdas Pophale) SiO2 
 PCOD9536330
Probable space group: I M M A
;
_chemical_formula_sum "Si O2"
_cell_formula_units_Z 72
_cell_length_a 15.886309
_cell_length_b 7.756612
_cell_length_c 27.353569
_cell_angle_alpha 90.000000
_cell_angle_beta 90.000000
_cell_angle_gamma 90.000000
_cell_volume 3370.614409
_symmetry_space_group_name_H-M "I M M A"
_symmetry_group_IT_number 74
_symmetry_cell_setting 'orthorhombic'
loop_
_space_group_symop_operation_xyz
x,y,z
-x,1/2-y,z
x,-y,-z
-x,1/2+y,-z
-x,-y,-z
x,1/2+y,-z
-x,y,z
x,1/2-y,z
1/2+x,1/2+y,1/2+z
1/2-x,-y,1/2+z
1/2+x,1/2-y,1/2-z
1/2-x,y,1/2-z
1/2-x,1/2-y,1/2-z
1/2+x,y,1/2-z
1/2-x,1/2+y,1/2+z
1/2+x,-y,1/2+z
loop_
_atom_site_type_symbol
_atom_site_label
_atom_site_fract_x
_atom_site_fract_y
_atom_site_fract_z
Si Si1 0.000000 0.541025 0.707341
Si Si2 0.000000 0.454963 0.593321
Si Si3 0.658717 0.955698 0.617762
Si Si4 0.839998 0.538914 0.771068
Si Si5 0.678796 0.544695 0.055972
Si Si6 0.500000 0.957855 0.556739
O O1 0.000000 0.481601 0.651484
O O2 0.082957 0.483985 0.736786
O O3 0.000000 0.750000 0.706705
O O4 0.086562 0.526090 0.570497
O O5 0.000000 0.250000 0.583606
O O6 0.647449 0.750000 0.621100
O O7 0.652199 0.021564 0.673086
O O8 0.583699 0.023776 0.583730
O O9 0.748589 0.985001 0.592698
O O10 0.841126 0.750000 0.771312
O O11 0.750000 0.485321 0.750000
O O12 0.675829 0.750000 0.059995
O O13 0.699191 0.500000 0.000000
O O14 0.500000 0.750000 0.560409
O O15 0.500000 0.000000 0.500000
#
# Coordination Sequence:
#
# PCOD9536330 Si02
#       6
#     8   8  16  16  16   8
#     4  10  19  33  57  84 108 142 187 226 264 319
#     4  10  23  40  56  79 113 146 179 227 283 334
#     4  10  20  36  57  82 113 146 180 223 273 322
#     4   9  17  30  51  80 109 136 172 218 263 310
#     4  11  23  39  58  81 109 143 184 229 279 333
#     4  10  21  35  53  77 107 142 177 217 265 315
#
# _framework density 21.361090000000001
#
# number of rings (size 3 to 8) (size 9 to 14) (size 15 to 20)
#    0.000    2.000    0.000    3.667    0.000    8.889 
#    0.000    1.111    0.000    5.333    0.000    0.000 
#    0.000    0.000    0.000    0.000    0.000    0.000 
#
# Total GULP energy -201236.385550 kJ/mol
# GULP energy per Si atom -5589.899599 kJ/mol
# Density = 2.131247 g / cm^3
# Si number density = 21.361090 Si / 1000 Ang^3
#
#
#
# Elastic Constant Matrix: (Units=GPa)
#
#
# Indices 1 2 3 4 5 6 
#
# 1 73.2496 -1.3724 -21.6911 0.0000 0.0000 0.0000
# 2 -1.3724 27.6493 -7.5281 0.0000 0.0000 0.0000
# 3 -21.6911 -7.5281 66.7736 0.0000 0.0000 0.0000
# 4 0.0000 0.0000 0.0000 25.2077 0.0000 0.0000
# 5 0.0000 0.0000 0.0000 0.0000 45.5286 0.0000
# 6 0.0000 0.0000 0.0000 0.0000 0.0000 15.4880
#
#
#
# Elastic Compliance Matrix: (Units=1/GPa)
#
#
# Indices 1 2 3 4 5 6 
#
# 1 0.015230 0.002170 0.005192 0.000000 0.000000 0.000000
# 2 0.002170 0.037622 0.004946 0.000000 0.000000 0.000000
# 3 0.005192 0.004946 0.017220 0.000000 0.000000 0.000000
# 4 0.000000 0.000000 0.000000 0.039670 0.000000 0.000000
# 5 0.000000 0.000000 0.000000 0.000000 0.021964 0.000000
# 6 0.000000 0.000000 0.000000 0.000000 0.000000 0.064566
#
#
# Mechanical properties :
#
#
# Convention : Reuss Voigt Hill
#
# Bulk Modulus (GPa) = 10.56104 11.83216 11.19660
# Shear Modulus (GPa) = 24.60392 30.46246 27.53319
#
# Velocity S-wave (km/s) = 3.39751 3.78043 3.59408
# Velocity P-wave (km/s) = 4.51061 4.96052 4.74090
#
# Compressibility (1/GPa) = 0.09468768
#
# Stress axis : x y z
#
# Youngs Moduli (GPa) = 65.65954 26.58044 58.07123
#
# Poissons Ratio (x) = -0.05767 -0.30151
# Poissons Ratio (y) = -0.14245 -0.28723
# Poissons Ratio (z) = -0.34091 -0.13147
#
# Static dielectric constant tensor:
#      x y z
#    x 1.762890 0.000000 0.000000 
#    y 0.000000 1.796430 0.000000 
#    z 0.000000 0.000000 1.727000 
# 
# From -- ./inp_files/63653.got.cif
#   From: 2010.05.17/outbox.cif.g08.bks.cpg/sg74_32_cif.got.tgz:63653.got - 2010.06.03 17:57:02.
