data_PCOD9536110
_publ_section_title
;
Structure prediction by ZEFSAII (Michael W. Deem and Ramdas Pophale) SiO2 
 PCOD9536110
Probable space group: I M M A
;
_chemical_formula_sum "Si O2"
_cell_formula_units_Z 96
_cell_length_a 8.784540
_cell_length_b 22.097838
_cell_length_c 28.285244
_cell_angle_alpha 90.000000
_cell_angle_beta 90.000000
_cell_angle_gamma 90.000000
_cell_volume 5490.712949
_symmetry_space_group_name_H-M "I M M A"
_symmetry_group_IT_number 74
_symmetry_cell_setting 'orthorhombic'
loop_
_space_group_symop_operation_xyz
x,y,z
-x,1/2-y,z
x,-y,-z
-x,1/2+y,-z
-x,-y,-z
x,1/2+y,-z
-x,y,z
x,1/2-y,z
1/2+x,1/2+y,1/2+z
1/2-x,-y,1/2+z
1/2+x,1/2-y,1/2-z
1/2-x,y,1/2-z
1/2-x,1/2-y,1/2-z
1/2+x,y,1/2-z
1/2-x,1/2+y,1/2+z
1/2+x,-y,1/2+z
loop_
_atom_site_type_symbol
_atom_site_label
_atom_site_fract_x
_atom_site_fract_y
_atom_site_fract_z
Si Si1 0.317338 0.750000 0.523589
Si Si2 0.316402 0.504388 0.699140
Si Si3 0.819574 0.869383 0.475604
Si Si4 0.823219 0.434432 0.893210
Si Si5 0.181481 0.876917 0.651357
Si Si6 0.677675 0.565896 0.559536
Si Si7 0.817315 0.750000 0.864253
O O1 0.500000 0.750000 0.521259
O O2 0.252487 0.691418 0.496956
O O3 0.275548 0.750000 0.579482
O O4 0.500000 0.507637 0.699406
O O5 0.250000 0.488743 0.750000
O O6 0.272103 0.455445 0.658902
O O7 0.252140 0.569976 0.683540
O O8 0.770452 0.885226 0.422288
O O9 0.751803 0.921684 0.509332
O O10 0.000000 0.867081 0.479524
O O11 0.816461 0.497256 0.922670
O O12 0.000000 0.415779 0.891182
O O13 0.232236 0.895275 0.598333
O O14 0.250202 0.810540 0.659093
O O15 0.000000 0.876594 0.655748
O O16 0.500000 0.584610 0.558853
O O17 0.000000 0.750000 0.861323
#
# Coordination Sequence:
#
# PCOD9536110 Si02
#       7
#     8  16  16  16  16  16   8
#     4  11  23  37  55  72 104 153 190 220 262 316
#     4  10  21  39  61  83 108 138 175 222 274 328
#     4  12  23  33  50  78 110 140 180 225 264 310
#     4   9  20  36  54  76 106 142 177 214 264 323
#     4  11  21  33  53  79 107 140 181 228 271 316
#     4  10  19  33  51  73 105 145 182 217 261 316
#     4  11  21  35  54  74 102 147 191 224 265 318
#
# _framework density 17.484069000000002
#
# number of rings (size 3 to 8) (size 9 to 14) (size 15 to 20)
#    0.000    1.500    1.667    6.000    0.000    6.667 
#    0.000    0.417    0.000    0.000    0.000    0.583 
#    0.000    0.000    0.000    0.000    0.000    0.000 
#
# Total GULP energy -268091.542495 kJ/mol
# GULP energy per Si atom -5585.240469 kJ/mol
# Density = 1.744427 g / cm^3
# Si number density = 17.484069 Si / 1000 Ang^3
#
#
#
# Elastic Constant Matrix: (Units=GPa)
#
#
# Indices 1 2 3 4 5 6 
#
# 1 92.8012 16.4344 33.2828 0.0000 0.0000 0.0000
# 2 16.4344 23.9688 18.9926 0.0000 0.0000 0.0000
# 3 33.2828 18.9926 105.2677 0.0000 0.0000 0.0000
# 4 0.0000 0.0000 0.0000 16.9916 0.0000 0.0000
# 5 0.0000 0.0000 0.0000 0.0000 25.9799 0.0000
# 6 0.0000 0.0000 0.0000 0.0000 0.0000 -27.9287
#
#
#
# Elastic Compliance Matrix: (Units=1/GPa)
#
#
# Indices 1 2 3 4 5 6 
#
# 1 0.012990 -0.006595 -0.002917 0.000000 0.000000 0.000000
# 2 -0.006595 0.052029 -0.007302 0.000000 0.000000 0.000000
# 3 -0.002917 -0.007302 0.011739 0.000000 0.000000 0.000000
# 4 0.000000 0.000000 0.000000 0.058852 0.000000 0.000000
# 5 0.000000 0.000000 0.000000 0.000000 0.038491 0.000000
# 6 0.000000 0.000000 0.000000 0.000000 0.000000 -0.035805
#
#
# Mechanical properties :
#
#
# Convention : Reuss Voigt Hill
#
# Bulk Modulus (GPa) = 23.18592 39.93970 31.56281
# Shear Modulus (GPa) = 26.83828 13.23044 20.03436
#
# Velocity S-wave (km/s) = 3.92217 2.75383 3.38873
# Velocity P-wave (km/s) = 5.81388 5.74495 5.77952
#
# Compressibility (1/GPa) = 0.04312963
#
# Stress axis : x y z
#
# Youngs Moduli (GPa) = 76.98304 19.22015 85.18357
#
# Poissons Ratio (x) = 0.12676 0.24849
# Poissons Ratio (y) = 0.50771 0.62201
# Poissons Ratio (z) = 0.22457 0.14034
#
# Static dielectric constant tensor:
#      x y z
#    x 1.579090 0.000000 0.000000 
#    y 0.000000 1.602810 0.000000 
#    z 0.000000 0.000000 1.624750 
# 
# From -- ./inp_files/64727.got.cif
#   From: 2010.05.17/outbox.cif.g08.bks.cpg/sg74_33_cif.got.tgz:64727.got - 2010.06.03 17:57:02.
