data_PCOD9536304
_publ_section_title
;
Structure prediction by ZEFSAII (Michael W. Deem and Ramdas Pophale) SiO2 
 PCOD9536304
Probable space group: I M M A
;
_chemical_formula_sum "Si O2"
_cell_formula_units_Z 96
_cell_length_a 24.225344
_cell_length_b 8.939668
_cell_length_c 21.988795
_cell_angle_alpha 90.000000
_cell_angle_beta 90.000000
_cell_angle_gamma 90.000000
_cell_volume 4762.037088
_symmetry_space_group_name_H-M "I M M A"
_symmetry_group_IT_number 74
_symmetry_cell_setting 'orthorhombic'
loop_
_space_group_symop_operation_xyz
x,y,z
-x,1/2-y,z
x,-y,-z
-x,1/2+y,-z
-x,-y,-z
x,1/2+y,-z
-x,y,z
x,1/2-y,z
1/2+x,1/2+y,1/2+z
1/2-x,-y,1/2+z
1/2+x,1/2-y,1/2-z
1/2-x,y,1/2-z
1/2-x,1/2-y,1/2-z
1/2+x,y,1/2-z
1/2-x,1/2+y,1/2+z
1/2+x,-y,1/2+z
loop_
_atom_site_type_symbol
_atom_site_label
_atom_site_fract_x
_atom_site_fract_y
_atom_site_fract_z
Si Si1 0.256709 0.424178 0.818495
Si Si2 0.371191 0.079610 0.663546
Si Si3 0.936986 0.073796 0.061060
Si Si4 0.062016 0.422834 0.718278
Si Si5 0.937376 0.426361 0.409204
Si Si6 0.176619 0.570919 0.437453
O O1 0.274662 0.250000 0.809120
O O2 0.250000 0.490462 0.750000
O O3 0.194238 0.426488 0.842542
O O4 0.295367 0.482285 0.873466
O O5 0.389388 0.250000 0.650180
O O6 0.391473 0.048861 0.731983
O O7 0.401047 0.969832 0.618242
O O8 0.938379 0.250000 0.052955
O O9 0.000000 0.018896 0.069716
O O10 0.914361 0.000000 0.000000
O O11 0.068306 0.250000 0.696235
O O12 0.064534 0.535729 0.662599
O O13 0.000000 0.432971 0.745603
O O14 0.928595 0.250000 0.420310
O O15 0.887523 0.523334 0.435197
O O16 0.000000 0.465717 0.428969
O O17 0.200043 0.500000 0.500000
O O18 0.182340 0.750000 0.440126
#
# Coordination Sequence:
#
# PCOD9536304 Si02
#       6
#    16  16  16  16  16  16
#     4   9  19  37  61  87 114 149 194 240 285 335
#     4  10  19  33  56  83 110 143 186 233 280 335
#     4  10  21  36  53  75 107 146 187 233 285 340
#     4   9  17  30  52  83 116 150 187 227 275 333
#     4  10  21  37  58  85 116 148 184 229 280 334
#     4  11  23  40  62  86 116 152 190 236 288 345
#
# _framework density 20.159438999999999
#
# number of rings (size 3 to 8) (size 9 to 14) (size 15 to 20)
#    0.000    2.167    0.000    3.000    0.000    7.000 
#    0.000    5.000    0.000    3.500    0.000    0.000 
#    0.000    0.000    0.000    0.000    0.000    0.000 
#
# Total GULP energy -267773.204264 kJ/mol
# GULP energy per Si atom -5578.608422 kJ/mol
# Density = 2.011356 g / cm^3
# Si number density = 20.159439 Si / 1000 Ang^3
#
#
#
# Elastic Constant Matrix: (Units=GPa)
#
#
# Indices 1 2 3 4 5 6 
#
# 1 64.6977 13.5929 32.7998 0.0000 0.0000 0.0000
# 2 13.5929 36.1413 33.0167 0.0000 0.0000 0.0000
# 3 32.7998 33.0167 104.4495 0.0000 0.0000 0.0000
# 4 0.0000 0.0000 0.0000 33.9417 0.0000 0.0000
# 5 0.0000 0.0000 0.0000 0.0000 3.3485 0.0000
# 6 0.0000 0.0000 0.0000 0.0000 0.0000 -252.3082
#
#
#
# Elastic Compliance Matrix: (Units=1/GPa)
#
#
# Indices 1 2 3 4 5 6 
#
# 1 0.018521 -0.002324 -0.005082 0.000000 0.000000 0.000000
# 2 -0.002324 0.039195 -0.011660 0.000000 0.000000 0.000000
# 3 -0.005082 -0.011660 0.014855 0.000000 0.000000 0.000000
# 4 0.000000 0.000000 0.000000 0.029462 0.000000 0.000000
# 5 0.000000 0.000000 0.000000 0.000000 0.298638 0.000000
# 6 0.000000 0.000000 0.000000 0.000000 0.000000 -0.003963
#
#
# Mechanical properties :
#
#
# Convention : Reuss Voigt Hill
#
# Bulk Modulus (GPa) = 29.03501 40.45636 34.74569
# Shear Modulus (GPa) = 11.20275 -34.61165 -11.70445
#
# Velocity S-wave (km/s) = 2.35990 -4.14804 -2.41217
# Velocity P-wave (km/s) = 4.67541 1.68222 3.08461
#
# Compressibility (1/GPa) = 0.03444117
#
# Stress axis : x y z
#
# Youngs Moduli (GPa) = 53.99314 25.51354 67.31538
#
# Poissons Ratio (x) = 0.05928 0.34207
# Poissons Ratio (y) = 0.12546 0.78489
# Poissons Ratio (z) = 0.27437 0.29749
#
# Static dielectric constant tensor:
#      x y z
#    x 1.714950 0.000000 0.000000 
#    y 0.000000 1.681040 0.000000 
#    z 0.000000 0.000000 1.747240 
# 
# From -- ./inp_files/49133.got.cif
#   From: 2010.05.17/outbox.cif.g08.bks.cpg/sg74_25_cif.got.tgz:49133.got - 2010.06.03 17:57:02.
