data_PCOD9536493
_publ_section_title
;
Structure prediction by ZEFSAII (Michael W. Deem and Ramdas Pophale) SiO2 
 PCOD9536493
Probable space group: I M M A
;
_chemical_formula_sum "Si O2"
_cell_formula_units_Z 116
_cell_length_a 15.247157
_cell_length_b 19.500216
_cell_length_c 17.913478
_cell_angle_alpha 90.000000
_cell_angle_beta 90.000000
_cell_angle_gamma 90.000000
_cell_volume 5326.086420
_symmetry_space_group_name_H-M "I M M A"
_symmetry_group_IT_number 74
_symmetry_cell_setting 'orthorhombic'
loop_
_space_group_symop_operation_xyz
x,y,z
-x,1/2-y,z
x,-y,-z
-x,1/2+y,-z
-x,-y,-z
x,1/2+y,-z
-x,y,z
x,1/2-y,z
1/2+x,1/2+y,1/2+z
1/2-x,-y,1/2+z
1/2+x,1/2-y,1/2-z
1/2-x,y,1/2-z
1/2-x,1/2-y,1/2-z
1/2+x,y,1/2-z
1/2-x,1/2+y,1/2+z
1/2+x,-y,1/2+z
loop_
_atom_site_type_symbol
_atom_site_label
_atom_site_fract_x
_atom_site_fract_y
_atom_site_fract_z
Si Si1 0.357285 0.921845 0.325659
Si Si2 0.643286 0.574583 0.157530
Si Si3 0.649862 0.330805 0.981449
Si Si4 0.358891 0.141918 0.525965
Si Si5 0.000000 0.250000 0.018065
Si Si6 0.648080 0.579488 0.876104
Si Si7 0.355282 0.435393 0.390721
Si Si8 0.103778 0.828166 0.765204
O O1 0.385672 0.907930 0.241494
O O2 0.250385 0.925176 0.333900
O O3 0.383568 0.867336 0.387925
O O4 0.389578 0.996536 0.351400
O O5 0.620666 0.629472 0.093695
O O6 0.611536 0.497636 0.135770
O O7 0.626184 0.250000 0.984735
O O8 0.756908 0.336185 0.980869
O O9 0.617972 0.375300 0.052929
O O10 0.423670 0.192722 0.487099
O O11 0.373451 0.073537 0.477798
O O12 0.750235 0.564544 0.887554
O O13 0.639901 0.626021 0.802447
O O14 0.381662 0.370028 0.340989
O O15 0.138666 0.750000 0.767902
O O16 0.000000 0.823455 0.753343
#
# Coordination Sequence:
#
# PCOD9536493 Si02
#       8
#    16  16  16  16   4  16  16  16
#     4   9  17  36  54  83 109 142 193 244 288 332
#     4   9  17  32  59  85 112 140 183 247 296 338
#     4  10  19  34  56  89 114 143 192 242 295 346
#     4  10  22  35  54  77 114 159 195 236 282 345
#     4  12  24  40  50  74 126 168 200 234 288 348
#     4  10  19  36  59  85 113 148 189 243 296 344
#     4  10  20  35  60  81 113 145 198 246 287 340
#     4  11  24  36  52  82 119 154 187 229 290 359
#
# _framework density 21.779593999999999
#
# number of rings (size 3 to 8) (size 9 to 14) (size 15 to 20)
#    0.000    2.069    2.069    1.655    1.931    4.966 
#    2.483    2.069    0.000    1.655    0.000    0.000 
#    0.000    0.000    0.000    0.000    0.000    0.000 
#
# Total GULP energy -323125.210995 kJ/mol
# GULP energy per Si atom -5571.124328 kJ/mol
# Density = 2.173002 g / cm^3
# Si number density = 21.779594 Si / 1000 Ang^3
#
#
#
# Elastic Constant Matrix: (Units=GPa)
#
#
# Indices 1 2 3 4 5 6 
#
# 1 22.9570 -17.7078 -11.4269 0.0000 0.0000 0.0000
# 2 -17.7078 72.0780 33.3826 -0.0001 0.0000 0.0000
# 3 -11.4269 33.3826 145.2078 0.0000 0.0000 0.0000
# 4 0.0000 -0.0001 0.0000 -405.3498 0.0000 0.0000
# 5 0.0000 0.0000 0.0000 0.0000 -19.8698 0.0000
# 6 0.0000 0.0000 0.0000 0.0000 0.0000 -7.0297
#
#
#
# Elastic Compliance Matrix: (Units=1/GPa)
#
#
# Indices 1 2 3 4 5 6 
#
# 1 0.053977 0.012639 0.001342 0.000000 0.000000 0.000000
# 2 0.012639 0.018487 -0.003255 0.000000 0.000000 0.000000
# 3 0.001342 -0.003255 0.007741 0.000000 0.000000 0.000000
# 4 0.000000 0.000000 0.000000 -0.002467 0.000000 0.000000
# 5 0.000000 0.000000 0.000000 0.000000 -0.050328 0.000000
# 6 0.000000 0.000000 0.000000 0.000000 0.000000 -0.142254
#
#
# Mechanical properties :
#
#
# Convention : Reuss Voigt Hill
#
# Bulk Modulus (GPa) = 9.83709 27.63761 18.73735
# Shear Modulus (GPa) = -48.82289 -70.71685 -59.76987
#
# Velocity S-wave (km/s) = -4.73978 -5.70437 -5.24430
# Velocity P-wave (km/s) = 5.04257 5.53798 5.29607
#
# Compressibility (1/GPa) = 0.10165612
#
# Stress axis : x y z
#
# Youngs Moduli (GPa) = 18.52644 54.09271 129.18752
#
# Poissons Ratio (x) = -0.68370 -0.17336
# Poissons Ratio (y) = -0.23416 0.42056
# Poissons Ratio (z) = -0.02486 0.17609
#
# Static dielectric constant tensor:
#      x y z
#    x 1.827000 0.000000 0.000000 
#    y 0.000000 2.017680 0.000000 
#    z 0.000000 0.000000 1.765160 
# 
# From -- ./inp_files/44276.got.cif
#   From: 2010.05.17/outbox.cif.g08.bks.cpg/sg74_23_cif.got.tgz:44276.got - 2010.06.03 17:57:02.
