data_PCOD9536766
_publ_section_title
;
Structure prediction by ZEFSAII (Michael W. Deem and Ramdas Pophale) SiO2 
 PCOD9536766
Probable space group: I M M A
;
_chemical_formula_sum "Si O2"
_cell_formula_units_Z 56
_cell_length_a 25.982624
_cell_length_b 13.473185
_cell_length_c 7.512804
_cell_angle_alpha 90.000000
_cell_angle_beta 90.000000
_cell_angle_gamma 90.000000
_cell_volume 2629.997529
_symmetry_space_group_name_H-M "I M M A"
_symmetry_group_IT_number 74
_symmetry_cell_setting 'orthorhombic'
loop_
_space_group_symop_operation_xyz
x,y,z
-x,1/2-y,z
x,-y,-z
-x,1/2+y,-z
-x,-y,-z
x,1/2+y,-z
-x,y,z
x,1/2-y,z
1/2+x,1/2+y,1/2+z
1/2-x,-y,1/2+z
1/2+x,1/2-y,1/2-z
1/2-x,y,1/2-z
1/2-x,1/2-y,1/2-z
1/2+x,y,1/2-z
1/2-x,1/2+y,1/2+z
1/2+x,-y,1/2+z
loop_
_atom_site_type_symbol
_atom_site_label
_atom_site_fract_x
_atom_site_fract_y
_atom_site_fract_z
Si Si1 0.300721 0.424655 0.337728
Si Si2 0.912928 0.143063 0.103273
Si Si3 0.942035 0.431816 0.724143
Si Si4 0.139908 0.000000 0.500000
O O1 0.288340 0.500000 0.500000
O O2 0.250000 0.375907 0.250000
O O3 0.350492 0.362805 0.399535
O O4 0.175239 0.481203 0.331387
O O5 0.929000 0.250000 0.175324
O O6 0.933491 0.046089 0.207020
O O7 0.931827 0.131061 0.900827
O O8 0.899571 0.416002 0.571928
O O9 0.000000 0.418357 0.661438
#
# Coordination Sequence:
#
# PCOD9536766 Si02
#       4
#    16  16  16   8
#     4  11  20  36  64  89 115 156 197 239 302 352
#     4  10  20  36  58  89 122 153 196 245 291 347
#     4  10  20  36  59  86 116 161 199 237 298 347
#     4  10  19  36  60  88 118 148 197 250 284 352
#
# _framework density 21.292795999999999
#
# number of rings (size 3 to 8) (size 9 to 14) (size 15 to 20)
#    0.000    1.714    7.143    2.143    0.000    2.857 
#    0.000    5.714    0.000    9.429    0.000    0.000 
#    0.000    0.000    0.000    0.000    0.000    0.000 
#
# Total GULP energy -155925.162750 kJ/mol
# GULP energy per Si atom -5568.755813 kJ/mol
# Density = 2.124433 g / cm^3
# Si number density = 21.292796 Si / 1000 Ang^3
#
#
#
# Elastic Constant Matrix: (Units=GPa)
#
#
# Indices 1 2 3 4 5 6 
#
# 1 135.6590 -3.3998 14.8083 0.0000 0.0000 0.0000
# 2 -3.3998 79.2167 -2.0915 0.0000 0.0000 0.0000
# 3 14.8083 -2.0915 113.3710 0.0000 0.0000 0.0000
# 4 0.0000 0.0000 0.0000 2.9607 0.0000 0.0000
# 5 0.0000 0.0000 0.0000 0.0000 -66.5258 0.0000
# 6 0.0000 0.0000 0.0000 0.0000 0.0000 7.6980
#
#
#
# Elastic Compliance Matrix: (Units=1/GPa)
#
#
# Indices 1 2 3 4 5 6 
#
# 1 0.007485 0.000296 -0.000972 0.000000 0.000000 0.000000
# 2 0.000296 0.012641 0.000195 0.000000 0.000000 0.000000
# 3 -0.000972 0.000195 0.008951 0.000000 0.000000 0.000000
# 4 0.000000 0.000000 0.000000 0.337757 0.000000 0.000000
# 5 0.000000 0.000000 0.000000 0.000000 -0.015032 0.000000
# 6 0.000000 0.000000 0.000000 0.000000 0.000000 0.129903
#
#
# Mechanical properties :
#
#
# Convention : Reuss Voigt Hill
#
# Bulk Modulus (GPa) = 35.57013 38.54230 37.05622
# Shear Modulus (GPa) = 10.16176 10.08857 10.12516
#
# Velocity S-wave (km/s) = 2.18695 2.17906 2.18301
# Velocity P-wave (km/s) = 4.80817 4.94686 4.87801
#
# Compressibility (1/GPa) = 0.02811347
#
# Stress axis : x y z
#
# Youngs Moduli (GPa) = 133.60131 79.10499 111.71716
#
# Poissons Ratio (x) = -0.02338 0.10861
# Poissons Ratio (y) = -0.03949 -0.02174
# Poissons Ratio (z) = 0.12989 -0.01539
#
# Static dielectric constant tensor:
#      x y z
#    x 1.819050 0.000000 0.000000 
#    y 0.000000 1.801350 0.000000 
#    z 0.000000 0.000000 1.800390 
# 
# From -- ./inp_files/14587.got.cif
#   From: 2010.05.17/outbox.cif.g08.bks.cpg/sg74_8_cif.got.tgz:14587.got - 2010.06.03 17:57:02.
