data_PCOD9536047
_publ_section_title
;
Structure prediction by ZEFSAII (Michael W. Deem and Ramdas Pophale) SiO2 
 PCOD9536047
Probable space group: I M M A
;
_chemical_formula_sum "Si O2"
_cell_formula_units_Z 116
_cell_length_a 32.180797
_cell_length_b 7.827157
_cell_length_c 23.104773
_cell_angle_alpha 90.000000
_cell_angle_beta 90.000000
_cell_angle_gamma 90.000000
_cell_volume 5819.726120
_symmetry_space_group_name_H-M "I M M A"
_symmetry_group_IT_number 74
_symmetry_cell_setting 'orthorhombic'
loop_
_space_group_symop_operation_xyz
x,y,z
-x,1/2-y,z
x,-y,-z
-x,1/2+y,-z
-x,-y,-z
x,1/2+y,-z
-x,y,z
x,1/2-y,z
1/2+x,1/2+y,1/2+z
1/2-x,-y,1/2+z
1/2+x,1/2-y,1/2-z
1/2-x,y,1/2-z
1/2-x,1/2-y,1/2-z
1/2+x,y,1/2-z
1/2-x,1/2+y,1/2+z
1/2+x,-y,1/2+z
loop_
_atom_site_type_symbol
_atom_site_label
_atom_site_fract_x
_atom_site_fract_y
_atom_site_fract_z
Si Si1 0.689743 0.955093 0.596611
Si Si2 0.160149 0.546234 0.332313
Si Si3 0.291831 0.449501 0.276936
Si Si4 0.047409 0.453850 0.824297
Si Si5 0.000000 0.750000 0.664358
Si Si6 0.782047 0.452835 0.563152
Si Si7 0.566380 0.544770 0.192444
Si Si8 0.399696 0.952075 0.562660
O O1 0.685104 0.750000 0.597974
O O2 0.693880 0.023631 0.662177
O O3 0.647397 0.025047 0.568606
O O4 0.734228 0.989307 0.568072
O O5 0.167287 0.750000 0.326910
O O6 0.174229 0.463708 0.272408
O O7 0.189125 0.480408 0.384577
O O8 0.111074 0.523098 0.337455
O O9 0.282706 0.250000 0.288851
O O10 0.250000 0.528013 0.250000
O O11 0.044440 0.250000 0.825824
O O12 0.067546 0.494802 0.761899
O O13 0.073612 0.503152 0.880694
O O14 0.000000 0.524084 0.825186
O O15 0.035551 0.596123 0.667231
O O16 0.798532 0.500000 0.500000
O O17 0.781820 0.250000 0.567931
O O18 0.554914 0.750000 0.187621
O O19 0.396780 0.750000 0.562276
O O20 0.417719 0.000000 0.500000
#
# Coordination Sequence:
#
# PCOD9536047 Si02
#       8
#    16  16  16  16   4  16  16  16
#     4  10  21  38  56  81 114 155 196 244 292 346
#     4  10  22  38  57  85 123 158 196 242 300 353
#     4  10  19  32  54  84 118 153 191 244 296 347
#     4  10  21  39  62  84 114 147 182 242 309 355
#     4  12  22  36  68  98 122 164 198 220 318 372
#     4  11  23  38  58  83 114 158 203 244 290 343
#     4  10  22  40  61  94 131 154 193 250 293 367
#     4  11  24  38  55  77 108 149 204 251 296 357
#
# _framework density 19.932207999999999
#
# number of rings (size 3 to 8) (size 9 to 14) (size 15 to 20)
#    0.000    1.655    2.069    2.276    1.931    4.138 
#    0.000    0.000    0.000    0.000    0.000    0.483 
#    0.000    0.000    0.000    0.000    0.000    0.000 
#
# Total GULP energy -323091.630091 kJ/mol
# GULP energy per Si atom -5570.545346 kJ/mol
# Density = 1.988684 g / cm^3
# Si number density = 19.932208 Si / 1000 Ang^3
#
#
#
# Elastic Constant Matrix: (Units=GPa)
#
#
# Indices 1 2 3 4 5 6 
#
# 1 87.8426 16.4602 21.3579 0.0000 0.0000 0.0000
# 2 16.4602 41.6922 -4.4851 0.0000 0.0000 0.0000
# 3 21.3579 -4.4851 76.7848 0.0000 0.0000 0.0000
# 4 0.0000 0.0000 0.0000 14.2448 0.0000 0.0000
# 5 0.0000 0.0000 0.0000 0.0000 -0.3399 0.0000
# 6 0.0000 0.0000 0.0000 0.0000 0.0000 15.4783
#
#
#
# Elastic Compliance Matrix: (Units=1/GPa)
#
#
# Indices 1 2 3 4 5 6 
#
# 1 0.013453 -0.005750 -0.004078 0.000000 0.000000 0.000000
# 2 -0.005750 0.026595 0.003153 0.000000 0.000000 0.000000
# 3 -0.004078 0.003153 0.014342 0.000000 0.000000 0.000000
# 4 0.000000 0.000000 0.000000 0.070201 0.000000 0.000000
# 5 0.000000 0.000000 0.000000 0.000000 -2.942297 0.000000
# 6 0.000000 0.000000 0.000000 0.000000 0.000000 0.064606
#
#
# Mechanical properties :
#
#
# Convention : Reuss Voigt Hill
#
# Bulk Modulus (GPa) = 24.36688 30.33174 27.34931
# Shear Modulus (GPa) = -1.83414 17.40910 7.78748
#
# Velocity S-wave (km/s) = -0.96031 2.95857 1.97875
# Velocity P-wave (km/s) = 3.31991 5.18857 4.35564
#
# Compressibility (1/GPa) = 0.04103931
#
# Stress axis : x y z
#
# Youngs Moduli (GPa) = 74.33335 37.60173 69.72614
#
# Poissons Ratio (x) = 0.21621 0.28433
# Poissons Ratio (y) = 0.42741 -0.21983
# Poissons Ratio (z) = 0.30312 -0.11855
#
# Static dielectric constant tensor:
#      x y z
#    x 1.739360 0.000000 0.000000 
#    y 0.000000 1.720580 0.000000 
#    z 0.000000 0.000000 1.729970 
# 
# From -- ./inp_files/62731.got.cif
#   From: 2010.05.17/outbox.cif.g08.bks.cpg/sg74_32_cif.got.tgz:62731.got - 2010.06.03 17:57:02.
