data_PCOD9536824
_publ_section_title
;
Structure prediction by ZEFSAII (Michael W. Deem and Ramdas Pophale) SiO2 
 PCOD9536824
Probable space group: I M M A
;
_chemical_formula_sum "Si O2"
_cell_formula_units_Z 96
_cell_length_a 23.371582
_cell_length_b 18.524790
_cell_length_c 12.320543
_cell_angle_alpha 90.000000
_cell_angle_beta 90.000000
_cell_angle_gamma 90.000000
_cell_volume 5334.224044
_symmetry_space_group_name_H-M "I M M A"
_symmetry_group_IT_number 74
_symmetry_cell_setting 'orthorhombic'
loop_
_space_group_symop_operation_xyz
x,y,z
-x,1/2-y,z
x,-y,-z
-x,1/2+y,-z
-x,-y,-z
x,1/2+y,-z
-x,y,z
x,1/2-y,z
1/2+x,1/2+y,1/2+z
1/2-x,-y,1/2+z
1/2+x,1/2-y,1/2-z
1/2-x,y,1/2-z
1/2-x,1/2-y,1/2-z
1/2+x,y,1/2-z
1/2-x,1/2+y,1/2+z
1/2+x,-y,1/2+z
loop_
_atom_site_type_symbol
_atom_site_label
_atom_site_fract_x
_atom_site_fract_y
_atom_site_fract_z
Si Si1 0.886208 0.576722 0.055410
Si Si2 0.304905 0.168191 0.401220
Si Si3 0.500000 0.335229 0.609628
Si Si4 0.107784 0.415915 0.528457
Si Si5 0.500000 0.834980 0.129102
Si Si6 0.314725 0.949965 0.226059
Si Si7 0.679896 0.380829 0.168348
O O1 0.943022 0.624886 0.067350
O O2 0.856156 0.564882 0.172215
O O3 0.899970 0.500000 0.000000
O O4 0.839964 0.616193 0.979257
O O5 0.307950 0.250000 0.440729
O O6 0.329495 0.162595 0.278839
O O7 0.239065 0.144400 0.386399
O O8 0.500000 0.250000 0.581707
O O9 0.500000 0.341409 0.740517
O O10 0.094801 0.500000 0.500000
O O11 0.054801 0.375024 0.580143
O O12 0.158539 0.416470 0.617369
O O13 0.129915 0.378423 0.419205
O O14 0.500000 0.750000 0.102519
O O15 0.250000 0.925539 0.250000
O O16 0.313057 0.035827 0.204040
#
# Coordination Sequence:
#
# PCOD9536824 Si02
#       7
#    16  16   8  16   8  16  16
#     4  12  22  40  64  91 119 156 210 253 295 352
#     4  11  22  37  60  90 130 166 191 237 306 370
#     4  11  25  44  63  83 119 162 201 254 312 358
#     4  10  22  38  63  89 115 156 200 253 298 346
#     4  11  23  42  61  81 115 160 201 246 304 358
#     4  11  19  35  61  93 122 151 201 252 296 348
#     4  10  19  37  59  90 124 159 196 238 295 362
#
# _framework density 17.996994999999998
#
# number of rings (size 3 to 8) (size 9 to 14) (size 15 to 20)
#    0.000    1.167    5.000    3.000    0.000    2.667 
#    0.000    0.833    0.000    3.500    0.000    0.000 
#    0.000    0.000    0.000    0.000    0.000    0.000 
#
# Total GULP energy -268111.971550 kJ/mol
# GULP energy per Si atom -5585.666074 kJ/mol
# Density = 1.795603 g / cm^3
# Si number density = 17.996995 Si / 1000 Ang^3
#
#
#
# Elastic Constant Matrix: (Units=GPa)
#
#
# Indices 1 2 3 4 5 6 
#
# 1 46.4094 32.2385 7.8000 0.0000 0.0000 0.0000
# 2 32.2385 95.8323 26.3958 0.0000 0.0000 0.0000
# 3 7.8000 26.3958 57.7853 0.0000 0.0000 0.0000
# 4 0.0000 0.0000 0.0000 11.5070 0.0000 0.0000
# 5 0.0000 0.0000 0.0000 0.0000 22.8245 0.0000
# 6 0.0000 0.0000 0.0000 0.0000 0.0000 8.6000
#
#
#
# Elastic Compliance Matrix: (Units=1/GPa)
#
#
# Indices 1 2 3 4 5 6 
#
# 1 0.028136 -0.009631 0.000601 0.000000 0.000000 0.000000
# 2 -0.009631 0.015233 -0.005658 0.000000 0.000000 0.000000
# 3 0.000601 -0.005658 0.019809 0.000000 0.000000 0.000000
# 4 0.000000 0.000000 0.000000 0.086904 0.000000 0.000000
# 5 0.000000 0.000000 0.000000 0.000000 0.043813 0.000000
# 6 0.000000 0.000000 0.000000 0.000000 0.000000 0.116279
#
#
# Mechanical properties :
#
#
# Convention : Reuss Voigt Hill
#
# Bulk Modulus (GPa) = 29.58332 36.98840 33.28586
# Shear Modulus (GPa) = 14.25241 17.49246 15.87244
#
# Velocity S-wave (km/s) = 2.81718 3.12102 2.97298
# Velocity P-wave (km/s) = 5.20150 5.79524 5.50638
#
# Compressibility (1/GPa) = 0.03380284
#
# Stress axis : x y z
#
# Youngs Moduli (GPa) = 35.54112 65.64552 50.48210
#
# Poissons Ratio (x) = 0.63222 -0.03036
# Poissons Ratio (y) = 0.34229 0.28565
# Poissons Ratio (z) = -0.02137 0.37145
#
# Static dielectric constant tensor:
#      x y z
#    x 1.590410 0.000000 0.000000 
#    y 0.000000 1.614830 0.000000 
#    z 0.000000 0.000000 1.603960 
# 
# From -- ./inp_files/25223.got.cif
#   From: 2010.05.17/outbox.cif.g08.bks.cpg/sg74_13_cif.got.tgz:25223.got - 2010.06.03 17:57:02.
