data_PCOD9536669
_publ_section_title
;
Structure prediction by ZEFSAII (Michael W. Deem and Ramdas Pophale) SiO2 
 PCOD9536669
Probable space group: I M M A
;
_chemical_formula_sum "Si O2"
_cell_formula_units_Z 72
_cell_length_a 8.791130
_cell_length_b 17.915310
_cell_length_c 23.727323
_cell_angle_alpha 90.000000
_cell_angle_beta 90.000000
_cell_angle_gamma 90.000000
_cell_volume 3736.954173
_symmetry_space_group_name_H-M "I M M A"
_symmetry_group_IT_number 74
_symmetry_cell_setting 'orthorhombic'
loop_
_space_group_symop_operation_xyz
x,y,z
-x,1/2-y,z
x,-y,-z
-x,1/2+y,-z
-x,-y,-z
x,1/2+y,-z
-x,y,z
x,1/2-y,z
1/2+x,1/2+y,1/2+z
1/2-x,-y,1/2+z
1/2+x,1/2-y,1/2-z
1/2-x,y,1/2-z
1/2-x,1/2-y,1/2-z
1/2+x,y,1/2-z
1/2-x,1/2+y,1/2+z
1/2+x,-y,1/2+z
loop_
_atom_site_type_symbol
_atom_site_label
_atom_site_fract_x
_atom_site_fract_y
_atom_site_fract_z
Si Si1 0.819881 0.974133 0.189960
Si Si2 0.315077 0.163803 0.997276
Si Si3 0.815892 0.897274 0.615282
Si Si4 0.816973 0.750000 0.687245
Si Si5 0.182493 0.838047 0.369988
O O1 0.750000 0.995644 0.250000
O O2 0.765805 0.891428 0.173291
O O3 0.000000 0.978286 0.192762
O O4 0.755783 0.030652 0.143447
O O5 0.500000 0.163633 0.997194
O O6 0.268950 0.250000 0.006458
O O7 0.266745 0.115462 0.050621
O O8 0.269522 0.141602 0.934179
O O9 0.774196 0.823927 0.651919
O O10 0.000000 0.903571 0.616260
O O11 0.750000 0.750000 0.750000
O O12 0.000000 0.750000 0.691420
O O13 0.212299 0.750000 0.362163
O O14 0.000000 0.848846 0.365522
#
# Coordination Sequence:
#
# PCOD9536669 Si02
#       5
#    16  16  16   8  16
#     4  12  26  42  58  80 114 153 195 241 289 342
#     4   8  14  30  59  91 119 148 188 232 276 334
#     4  10  19  35  59  86 117 153 192 235 281 331
#     4  10  20  32  52  80 112 152 195 236 277 324
#     4   9  19  38  65  92 115 145 187 235 287 344
#
# _framework density 19.267028
#
# number of rings (size 3 to 8) (size 9 to 14) (size 15 to 20)
#    0.000    2.222    1.111    4.000    0.000    4.444 
#    0.000    5.556    0.000    1.333    0.000    0.000 
#    0.000    0.000    0.000    0.000    0.000    0.000 
#
# Total GULP energy -201004.822034 kJ/mol
# GULP energy per Si atom -5583.467279 kJ/mol
# Density = 1.922318 g / cm^3
# Si number density = 19.267028 Si / 1000 Ang^3
#
#
#
# Elastic Constant Matrix: (Units=GPa)
#
#
# Indices 1 2 3 4 5 6 
#
# 1 30.7200 24.3727 3.0898 0.0000 0.0000 0.0000
# 2 24.3727 48.9613 1.5335 0.0000 0.0000 0.0000
# 3 3.0898 1.5335 17.2878 0.0000 0.0000 0.0000
# 4 0.0000 0.0000 0.0000 29.2476 0.0000 0.0000
# 5 0.0000 0.0000 0.0000 0.0000 22.1927 0.0000
# 6 0.0000 0.0000 0.0000 0.0000 0.0000 10.2336
#
#
#
# Elastic Compliance Matrix: (Units=1/GPa)
#
#
# Indices 1 2 3 4 5 6 
#
# 1 0.054724 -0.027010 -0.007385 0.000000 0.000000 0.000000
# 2 -0.027010 0.033813 0.001828 0.000000 0.000000 0.000000
# 3 -0.007385 0.001828 0.059002 0.000000 0.000000 0.000000
# 4 0.000000 0.000000 0.000000 0.034191 0.000000 0.000000
# 5 0.000000 0.000000 0.000000 0.000000 0.045060 0.000000
# 6 0.000000 0.000000 0.000000 0.000000 0.000000 0.097718
#
#
# Mechanical properties :
#
#
# Convention : Reuss Voigt Hill
#
# Bulk Modulus (GPa) = 12.13518 17.21790 14.67654
# Shear Modulus (GPa) = 11.98728 16.86631 14.42679
#
# Velocity S-wave (km/s) = 2.49703 2.96192 2.73936
# Velocity P-wave (km/s) = 3.82435 4.54458 4.19993
#
# Compressibility (1/GPa) = 0.08240507
#
# Stress axis : x y z
#
# Youngs Moduli (GPa) = 18.27344 29.57481 16.94862
#
# Poissons Ratio (x) = 0.79882 0.12516
# Poissons Ratio (y) = 0.49357 -0.03098
# Poissons Ratio (z) = 0.13494 -0.05407
#
# Static dielectric constant tensor:
#      x y z
#    x 1.647910 0.000000 0.000000 
#    y 0.000000 1.663750 0.000000 
#    z 0.000000 0.000000 1.669100 
# 
# From -- ./inp_files/56651.got.cif
#   From: 2010.05.17/outbox.cif.g08.bks.cpg/sg74_29_cif.got.tgz:56651.got - 2010.06.03 17:57:02.
