data_PCOD9536891
_publ_section_title
;
Structure prediction by ZEFSAII (Michael W. Deem and Ramdas Pophale) SiO2 
 PCOD9536891
Probable space group: I M M A
;
_chemical_formula_sum "Si O2"
_cell_formula_units_Z 76
_cell_length_a 35.359467
_cell_length_b 11.447822
_cell_length_c 7.531270
_cell_angle_alpha 90.000000
_cell_angle_beta 90.000000
_cell_angle_gamma 90.000000
_cell_volume 3048.574380
_symmetry_space_group_name_H-M "I M M A"
_symmetry_group_IT_number 74
_symmetry_cell_setting 'orthorhombic'
loop_
_space_group_symop_operation_xyz
x,y,z
-x,1/2-y,z
x,-y,-z
-x,1/2+y,-z
-x,-y,-z
x,1/2+y,-z
-x,y,z
x,1/2-y,z
1/2+x,1/2+y,1/2+z
1/2-x,-y,1/2+z
1/2+x,1/2-y,1/2-z
1/2-x,y,1/2-z
1/2-x,1/2-y,1/2-z
1/2+x,y,1/2-z
1/2-x,1/2+y,1/2+z
1/2+x,-y,1/2+z
loop_
_atom_site_type_symbol
_atom_site_label
_atom_site_fract_x
_atom_site_fract_y
_atom_site_fract_z
Si Si1 0.397717 0.250000 0.931696
Si Si2 0.000000 0.750000 0.148430
Si Si3 0.829508 0.499786 0.711766
Si Si4 0.293045 0.750000 0.804582
Si Si5 0.913023 0.433951 0.265363
Si Si6 0.500000 0.495428 0.714524
Si Si7 0.812199 0.250000 0.696316
Si Si8 0.920397 0.250000 0.973769
O O1 0.408545 0.142188 0.056768
O O2 0.353411 0.250000 0.897230
O O3 0.414732 0.250000 0.735805
O O4 0.034704 0.750000 0.015525
O O5 0.000000 0.861190 0.271028
O O6 0.822609 0.500000 0.500000
O O7 0.814507 0.630458 0.760035
O O8 0.874892 0.488688 0.738823
O O9 0.810720 0.379049 0.786492
O O10 0.250000 0.750000 0.750000
O O11 0.287691 0.750000 0.019389
O O12 0.957590 0.465552 0.266338
O O13 0.907205 0.360121 0.084773
O O14 0.500000 0.500000 0.500000
#
# Coordination Sequence:
#
# PCOD9536891 Si02
#       8
#     8   4  16   8  16   8   8   8
#     4  11  23  43  71 108 140 189 256 319 387 459
#     4  12  26  46  58  96 150 190 266 342 400 438
#     4  10  20  40  73 112 147 195 260 315 376 468
#     4  10  19  39  72 113 146 194 243 298 392 471
#     4  11  23  45  71  99 149 201 259 315 396 455
#     4  12  26  43  66  98 141 205 263 332 392 453
#     4  10  21  41  73 111 152 189 249 320 376 452
#     4  11  24  41  69  98 143 192 257 333 383 466
#
# _framework density 24.929684000000002
#
# number of rings (size 3 to 8) (size 9 to 14) (size 15 to 20)
#    0.000    1.263    6.316    0.632    2.947    2.105 
#    0.000    2.105    0.000   18.947    0.000    0.000 
#    0.000    0.000    0.000    0.000    0.000    0.000 
#
# Total GULP energy -212029.001317 kJ/mol
# GULP energy per Si atom -5579.710561 kJ/mol
# Density = 2.487294 g / cm^3
# Si number density = 24.929684 Si / 1000 Ang^3
#
#
#
# Elastic Constant Matrix: (Units=GPa)
#
#
# Indices 1 2 3 4 5 6 
#
# 1 120.4776 51.1645 19.8045 0.0000 0.0000 0.0001
# 2 51.1645 193.7422 26.7493 0.0001 0.0001 -0.0001
# 3 19.8045 26.7493 115.9861 0.0003 0.0002 -0.0004
# 4 0.0000 0.0001 0.0003 19.0037 0.0001 -0.0002
# 5 0.0000 0.0001 0.0002 0.0001 24.3576 0.0000
# 6 0.0001 -0.0001 -0.0004 -0.0002 0.0000 64.2746
#
#
#
# Elastic Compliance Matrix: (Units=1/GPa)
#
#
# Indices 1 2 3 4 5 6 
#
# 1 0.009477 -0.002354 -0.001075 0.000000 0.000000 0.000000
# 2 -0.002354 0.005916 -0.000962 0.000000 0.000000 0.000000
# 3 -0.001075 -0.000962 0.009027 0.000000 0.000000 0.000000
# 4 0.000000 0.000000 0.000000 0.052621 0.000000 0.000000
# 5 0.000000 0.000000 0.000000 0.000000 0.041055 0.000000
# 6 0.000000 0.000000 0.000000 0.000000 0.000000 0.015558
#
#
# Mechanical properties :
#
#
# Convention : Reuss Voigt Hill
#
# Bulk Modulus (GPa) = 63.95309 69.51586 66.73447
# Shear Modulus (GPa) = 33.86376 43.69303 38.77840
#
# Velocity S-wave (km/s) = 3.68961 4.19101 3.94828
# Velocity P-wave (km/s) = 6.62269 7.16692 6.90017
#
# Compressibility (1/GPa) = 0.01563646
#
# Stress axis : x y z
#
# Youngs Moduli (GPa) = 105.52031 169.03036 110.77543
#
# Poissons Ratio (x) = 0.39794 0.11911
# Poissons Ratio (y) = 0.24842 0.10661
# Poissons Ratio (z) = 0.11346 0.16268
#
# Static dielectric constant tensor:
#      x y z
#    x 1.999800 0.000000 0.000000 
#    y 0.000000 2.157550 0.000000 
#    z 0.000000 0.000000 2.005710 
# 
# From -- ./inp_files/26970.got.cif
#   From: 2010.05.17/outbox.cif.g08.bks.cpg/sg74_14_cif.got.tgz:26970.got - 2010.06.03 17:57:02.
