data_PCOD9536353
_publ_section_title
;
Structure prediction by ZEFSAII (Michael W. Deem and Ramdas Pophale) SiO2 
 PCOD9536353
Probable space group: I M M A
;
_chemical_formula_sum "Si O2"
_cell_formula_units_Z 100
_cell_length_a 20.274392
_cell_length_b 14.608064
_cell_length_c 17.430466
_cell_angle_alpha 90.000000
_cell_angle_beta 90.000000
_cell_angle_gamma 90.000000
_cell_volume 5162.374420
_symmetry_space_group_name_H-M "I M M A"
_symmetry_group_IT_number 74
_symmetry_cell_setting 'orthorhombic'
loop_
_space_group_symop_operation_xyz
x,y,z
-x,1/2-y,z
x,-y,-z
-x,1/2+y,-z
-x,-y,-z
x,1/2+y,-z
-x,y,z
x,1/2-y,z
1/2+x,1/2+y,1/2+z
1/2-x,-y,1/2+z
1/2+x,1/2-y,1/2-z
1/2-x,y,1/2-z
1/2-x,1/2-y,1/2-z
1/2+x,y,1/2-z
1/2-x,1/2+y,1/2+z
1/2+x,-y,1/2+z
loop_
_atom_site_type_symbol
_atom_site_label
_atom_site_fract_x
_atom_site_fract_y
_atom_site_fract_z
Si Si1 0.607731 0.897079 0.425391
Si Si2 0.238392 0.358168 0.555755
Si Si3 0.810454 0.466996 0.694767
Si Si4 0.257555 0.143544 0.122581
Si Si5 0.500000 0.250000 0.341999
Si Si6 0.102221 0.609925 0.902833
Si Si7 0.575875 0.850570 0.259535
O O1 0.687229 0.892965 0.429324
O O2 0.588515 0.859052 0.508795
O O3 0.581308 0.846658 0.351465
O O4 0.588173 0.002265 0.410577
O O5 0.237067 0.250000 0.571564
O O6 0.194365 0.413880 0.614424
O O7 0.221863 0.371307 0.466407
O O8 0.750000 0.437110 0.750000
O O9 0.796986 0.573235 0.675971
O O10 0.877359 0.433172 0.733487
O O11 0.267034 0.250000 0.142450
O O12 0.178935 0.122327 0.120272
O O13 0.557167 0.169599 0.348529
O O14 0.500000 0.864254 0.237410
O O15 0.598219 0.750000 0.229980
#
# Coordination Sequence:
#
# PCOD9536353 Si02
#       7
#    16  16  16  16   4  16  16
#     4  10  20  35  55  78 120 159 199 239 293 351
#     4  10  19  33  61  90 113 147 196 254 305 357
#     4  12  22  37  60  88 120 157 200 252 301 357
#     4  10  20  38  59  83 114 154 205 257 304 346
#     4  12  24  30  52  80 120 166 214 244 280 352
#     4  10  21  34  51  83 115 160 204 248 285 346
#     4  11  25  39  57  85 123 162 194 238 304 375
#
# _framework density 19.370932
#
# number of rings (size 3 to 8) (size 9 to 14) (size 15 to 20)
#    0.000    1.440    4.000    1.440    4.480    1.600 
#    0.000    0.000    0.000    2.400    0.000    2.240 
#    0.000    0.000    0.000    0.000    0.000    0.000 
#
# Total GULP energy -278708.712365 kJ/mol
# GULP energy per Si atom -5574.174247 kJ/mol
# Density = 1.932684 g / cm^3
# Si number density = 19.370932 Si / 1000 Ang^3
#
#
#
# Elastic Constant Matrix: (Units=GPa)
#
#
# Indices 1 2 3 4 5 6 
#
# 1 66.5255 40.4496 23.5176 0.0000 0.0000 0.0000
# 2 40.4496 133.6010 30.1462 0.0000 0.0000 0.0000
# 3 23.5176 30.1462 41.1822 0.0000 0.0000 0.0000
# 4 0.0000 0.0000 0.0000 6.8960 0.0000 0.0000
# 5 0.0000 0.0000 0.0000 0.0000 -12.2426 0.0000
# 6 0.0000 0.0000 0.0000 0.0000 0.0000 11.7818
#
#
#
# Elastic Compliance Matrix: (Units=1/GPa)
#
#
# Indices 1 2 3 4 5 6 
#
# 1 0.020723 -0.004317 -0.008674 0.000000 0.000000 0.000000
# 2 -0.004317 0.009865 -0.004756 0.000000 0.000000 0.000000
# 3 -0.008674 -0.004756 0.032717 0.000000 0.000000 0.000000
# 4 0.000000 0.000000 0.000000 0.145011 0.000000 0.000000
# 5 0.000000 0.000000 0.000000 0.000000 -0.081682 0.000000
# 6 0.000000 0.000000 0.000000 0.000000 0.000000 0.084877
#
#
# Mechanical properties :
#
#
# Convention : Reuss Voigt Hill
#
# Bulk Modulus (GPa) = 35.95684 47.72615 41.84150
# Shear Modulus (GPa) = 19.51020 11.10007 15.30514
#
# Velocity S-wave (km/s) = 3.17707 2.39640 2.81394
# Velocity P-wave (km/s) = 5.66224 5.68757 5.67492
#
# Compressibility (1/GPa) = 0.02781112
#
# Stress axis : x y z
#
# Youngs Moduli (GPa) = 48.25535 101.36626 30.56471
#
# Poissons Ratio (x) = 0.43759 0.26512
# Poissons Ratio (y) = 0.20832 0.14537
# Poissons Ratio (z) = 0.41857 0.48213
#
# Static dielectric constant tensor:
#      x y z
#    x 1.657940 0.000000 0.000000 
#    y 0.000000 1.732570 0.000000 
#    z 0.000000 0.000000 1.712540 
# 
# From -- ./inp_files/45308.got.cif
#   From: 2010.05.17/outbox.cif.g08.bks.cpg/sg74_23_cif.got.tgz:45308.got - 2010.06.03 17:57:02.
