data_PCOD9536467
_publ_section_title
;
Structure prediction by ZEFSAII (Michael W. Deem and Ramdas Pophale) SiO2 
 PCOD9536467
Probable space group: I M M A
;
_chemical_formula_sum "Si O2"
_cell_formula_units_Z 112
_cell_length_a 18.365956
_cell_length_b 19.030828
_cell_length_c 18.598737
_cell_angle_alpha 90.000000
_cell_angle_beta 90.000000
_cell_angle_gamma 90.000000
_cell_volume 6500.618461
_symmetry_space_group_name_H-M "I M M A"
_symmetry_group_IT_number 74
_symmetry_cell_setting 'orthorhombic'
loop_
_space_group_symop_operation_xyz
x,y,z
-x,1/2-y,z
x,-y,-z
-x,1/2+y,-z
-x,-y,-z
x,1/2+y,-z
-x,y,z
x,1/2-y,z
1/2+x,1/2+y,1/2+z
1/2-x,-y,1/2+z
1/2+x,1/2-y,1/2-z
1/2-x,y,1/2-z
1/2-x,1/2-y,1/2-z
1/2+x,y,1/2-z
1/2-x,1/2+y,1/2+z
1/2+x,-y,1/2+z
loop_
_atom_site_type_symbol
_atom_site_label
_atom_site_fract_x
_atom_site_fract_y
_atom_site_fract_z
Si Si1 0.188221 0.035039 0.427248
Si Si2 0.582916 0.408373 0.709655
Si Si3 0.721427 0.833732 0.554235
Si Si4 0.187791 0.670487 0.312002
Si Si5 0.582630 0.051258 0.205452
Si Si6 0.705249 0.088723 0.589247
Si Si7 0.828655 0.332157 0.215291
O O1 0.207139 0.117273 0.436527
O O2 0.135800 0.029686 0.359451
O O3 0.157228 0.000000 0.500000
O O4 0.263961 0.990899 0.416853
O O5 0.500000 0.387192 0.693569
O O6 0.617865 0.363305 0.774468
O O7 0.583340 0.487890 0.737801
O O8 0.637556 0.404421 0.642633
O O9 0.733514 0.750000 0.543348
O O10 0.686542 0.871455 0.484743
O O11 0.677942 0.841551 0.629279
O O12 0.173603 0.750000 0.334161
O O13 0.250000 0.670486 0.250000
O O14 0.224579 0.627884 0.376339
O O15 0.500000 0.061446 0.179959
O O16 0.613166 0.119187 0.246080
O O17 0.841869 0.250000 0.229667
O O18 0.750000 0.350264 0.250000
#
# Coordination Sequence:
#
# PCOD9536467 Si02
#       7
#    16  16  16  16  16  16  16
#     4  10  20  34  57  85 109 148 184 231 281 330
#     4  10  21  34  52  81 112 149 187 226 278 331
#     4  10  20  34  56  85 111 139 188 235 276 325
#     4   9  17  30  51  76 102 138 184 229 267 314
#     4  11  22  36  56  83 115 149 184 228 281 335
#     4  10  19  34  56  80 110 144 186 232 272 333
#     4  10  20  35  58  83 108 144 188 231 276 330
#
# _framework density 17.229130000000001
#
# number of rings (size 3 to 8) (size 9 to 14) (size 15 to 20)
#    0.000    2.000    2.857    1.286    0.000    1.429 
#    0.000    0.714    0.000    6.429    0.000    0.000 
#    0.000    0.000    0.000    0.000    0.000    0.000 
#
# Total GULP energy -312035.408219 kJ/mol
# GULP energy per Si atom -5572.060861 kJ/mol
# Density = 1.718992 g / cm^3
# Si number density = 17.229130 Si / 1000 Ang^3
#
#
#
# Elastic Constant Matrix: (Units=GPa)
#
#
# Indices 1 2 3 4 5 6 
#
# 1 94.1639 38.7332 43.6680 0.0000 0.0000 0.0000
# 2 38.7332 80.5431 18.3380 0.0000 0.0000 0.0000
# 3 43.6680 18.3380 95.1238 0.0000 0.0000 0.0000
# 4 0.0000 0.0000 0.0000 28.0926 0.0000 0.0000
# 5 0.0000 0.0000 0.0000 0.0000 8.5446 0.0000
# 6 0.0000 0.0000 0.0000 0.0000 0.0000 9.2750
#
#
#
# Elastic Compliance Matrix: (Units=1/GPa)
#
#
# Indices 1 2 3 4 5 6 
#
# 1 0.016081 -0.006331 -0.006162 0.000000 0.000000 0.000000
# 2 -0.006331 0.015478 -0.000078 0.000000 0.000000 0.000000
# 3 -0.006162 -0.000078 0.013356 0.000000 0.000000 0.000000
# 4 0.000000 0.000000 0.000000 0.035597 0.000000 0.000000
# 5 0.000000 0.000000 0.000000 0.000000 0.117033 0.000000
# 6 0.000000 0.000000 0.000000 0.000000 0.000000 0.107816
#
#
# Mechanical properties :
#
#
# Convention : Reuss Voigt Hill
#
# Bulk Modulus (GPa) = 50.56881 52.36768 51.46824
# Shear Modulus (GPa) = 14.83266 20.45523 17.64394
#
# Velocity S-wave (km/s) = 2.93730 3.44938 3.20359
# Velocity P-wave (km/s) = 6.39673 6.80626 6.60467
#
# Compressibility (1/GPa) = 0.01977503
#
# Stress axis : x y z
#
# Youngs Moduli (GPa) = 62.18373 64.60882 74.87087
#
# Poissons Ratio (x) = 0.40901 0.46135
# Poissons Ratio (y) = 0.39366 0.00581
# Poissons Ratio (z) = 0.38317 0.00502
#
# Static dielectric constant tensor:
#      x y z
#    x 1.564390 0.000000 0.000000 
#    y 0.000000 1.607920 0.000000 
#    z 0.000000 0.000000 1.611250 
# 
# From -- ./inp_files/45426.got.cif
#   From: 2010.05.17/outbox.cif.g08.bks.cpg/sg74_23_cif.got.tgz:45426.got - 2010.06.03 17:57:02.
