data_PCOD9536777
_publ_section_title
;
Structure prediction by ZEFSAII (Michael W. Deem and Ramdas Pophale) SiO2 
 PCOD9536777
Probable space group: I M M A
;
_chemical_formula_sum "Si O2"
_cell_formula_units_Z 80
_cell_length_a 17.033327
_cell_length_b 25.142311
_cell_length_c 8.769298
_cell_angle_alpha 90.000000
_cell_angle_beta 90.000000
_cell_angle_gamma 90.000000
_cell_volume 3755.515050
_symmetry_space_group_name_H-M "I M M A"
_symmetry_group_IT_number 74
_symmetry_cell_setting 'orthorhombic'
loop_
_space_group_symop_operation_xyz
x,y,z
-x,1/2-y,z
x,-y,-z
-x,1/2+y,-z
-x,-y,-z
x,1/2+y,-z
-x,y,z
x,1/2-y,z
1/2+x,1/2+y,1/2+z
1/2-x,-y,1/2+z
1/2+x,1/2-y,1/2-z
1/2-x,y,1/2-z
1/2-x,1/2-y,1/2-z
1/2+x,y,1/2-z
1/2-x,1/2+y,1/2+z
1/2+x,-y,1/2+z
loop_
_atom_site_type_symbol
_atom_site_label
_atom_site_fract_x
_atom_site_fract_y
_atom_site_fract_z
Si Si1 0.404524 0.250000 0.996547
Si Si2 0.596049 0.750000 0.355885
Si Si3 0.904687 0.139795 0.001530
Si Si4 0.094249 0.637189 0.638032
Si Si5 0.089552 0.965030 0.153906
Si Si6 0.311274 0.461718 0.125401
O O1 0.500000 0.250000 0.000838
O O2 0.380931 0.304878 0.077847
O O3 0.380205 0.250000 0.820413
O O4 0.500000 0.750000 0.359629
O O5 0.622416 0.803339 0.440507
O O6 0.874433 0.091254 0.898442
O O7 0.000000 0.138369 0.988868
O O8 0.889543 0.133208 0.180771
O O9 0.140598 0.588392 0.562533
O O10 0.000000 0.631575 0.615605
O O11 0.000000 0.955722 0.204594
O O12 0.131624 0.998775 0.282640
O O13 0.086480 0.000000 0.000000
O O14 0.250000 0.441981 0.250000
O O15 0.272689 0.500000 0.000000
#
# Coordination Sequence:
#
# PCOD9536777 Si02
#       6
#     8   8  16  16  16  16
#     4   9  19  33  54  89 127 153 191 250 302 349
#     4   9  17  29  49  85 124 154 186 236 300 354
#     4   9  17  30  55  84 115 152 187 233 293 357
#     4  10  20  38  63  91 121 157 199 245 299 362
#     4  10  19  36  61  90 119 149 192 248 302 360
#     4  12  27  42  59  85 119 164 205 254 304 362
#
# _framework density 21.302004
#
# number of rings (size 3 to 8) (size 9 to 14) (size 15 to 20)
#    0.000    2.000    2.000    1.800    2.800    4.000 
#    0.000    0.500    0.000    0.000    0.000    2.800 
#    0.000    0.000    0.000    0.000    0.000    0.000 
#
# Total GULP energy -223442.529243 kJ/mol
# GULP energy per Si atom -5586.063231 kJ/mol
# Density = 2.125352 g / cm^3
# Si number density = 21.302004 Si / 1000 Ang^3
#
#
#
# Elastic Constant Matrix: (Units=GPa)
#
#
# Indices 1 2 3 4 5 6 
#
# 1 32.0473 26.1341 8.3887 0.0000 0.0000 0.0000
# 2 26.1341 165.3343 12.5590 0.0000 0.0000 0.0000
# 3 8.3887 12.5590 15.6432 0.0000 0.0000 0.0000
# 4 0.0000 0.0000 0.0000 37.0733 0.0000 0.0000
# 5 0.0000 0.0000 0.0000 0.0000 17.5716 0.0000
# 6 0.0000 0.0000 0.0000 0.0000 0.0000 -2.0544
#
#
#
# Elastic Compliance Matrix: (Units=1/GPa)
#
#
# Indices 1 2 3 4 5 6 
#
# 1 0.039801 -0.004973 -0.017351 0.000000 0.000000 0.000000
# 2 -0.004973 0.007063 -0.003003 0.000000 0.000000 0.000000
# 3 -0.017351 -0.003003 0.075641 0.000000 0.000000 0.000000
# 4 0.000000 0.000000 0.000000 0.026974 0.000000 0.000000
# 5 0.000000 0.000000 0.000000 0.000000 0.056910 0.000000
# 6 0.000000 0.000000 0.000000 0.000000 0.000000 -0.486766
#
#
# Mechanical properties :
#
#
# Convention : Reuss Voigt Hill
#
# Bulk Modulus (GPa) = 13.91781 34.13204 24.02493
# Shear Modulus (GPa) = -24.29854 21.58097 -1.35878
#
# Velocity S-wave (km/s) = -3.38104 3.18637 -0.79953
# Velocity P-wave (km/s) = 2.94859 5.44013 3.23271
#
# Compressibility (1/GPa) = 0.07185037
#
# Stress axis : x y z
#
# Youngs Moduli (GPa) = 25.12489 141.59088 13.22036
#
# Poissons Ratio (x) = 0.70418 0.22938
# Poissons Ratio (y) = 0.12495 0.03970
# Poissons Ratio (z) = 0.43593 0.42523
#
# Static dielectric constant tensor:
#      x y z
#    x 1.776690 0.000000 0.000000 
#    y 0.000000 1.758040 0.000000 
#    z 0.000000 0.000000 1.753260 
# 
# From -- ./inp_files/12578.got.cif
#   From: 2010.05.17/outbox.cif.g08.bks.cpg/sg74_7_cif.got.tgz:12578.got - 2010.06.03 17:57:02.
