data_PCOD9536947
_publ_section_title
;
Structure prediction by ZEFSAII (Michael W. Deem and Ramdas Pophale) SiO2 
 PCOD9536947
Probable space group: I M M A
;
_chemical_formula_sum "Si O2"
_cell_formula_units_Z 112
_cell_length_a 15.007425
_cell_length_b 14.597611
_cell_length_c 26.878979
_cell_angle_alpha 90.000000
_cell_angle_beta 90.000000
_cell_angle_gamma 90.000000
_cell_volume 5888.446532
_symmetry_space_group_name_H-M "I M M A"
_symmetry_group_IT_number 74
_symmetry_cell_setting 'orthorhombic'
loop_
_space_group_symop_operation_xyz
x,y,z
-x,1/2-y,z
x,-y,-z
-x,1/2+y,-z
-x,-y,-z
x,1/2+y,-z
-x,y,z
x,1/2-y,z
1/2+x,1/2+y,1/2+z
1/2-x,-y,1/2+z
1/2+x,1/2-y,1/2-z
1/2-x,y,1/2-z
1/2-x,1/2-y,1/2-z
1/2+x,y,1/2-z
1/2-x,1/2+y,1/2+z
1/2+x,-y,1/2+z
loop_
_atom_site_type_symbol
_atom_site_label
_atom_site_fract_x
_atom_site_fract_y
_atom_site_fract_z
Si Si1 0.398348 0.603203 0.875772
Si Si2 0.264454 0.147479 0.930034
Si Si3 0.894302 0.139109 0.865112
Si Si4 0.102789 0.360004 0.487793
Si Si5 0.350161 0.151332 0.231324
Si Si6 0.103985 0.947017 0.238396
Si Si7 0.397105 0.608791 0.155154
O O1 0.500000 0.637929 0.874045
O O2 0.349781 0.645332 0.828513
O O3 0.400468 0.495633 0.864370
O O4 0.366847 0.621727 0.931392
O O5 0.241963 0.250000 0.948041
O O6 0.171800 0.107700 0.909329
O O7 0.326273 0.102721 0.972406
O O8 0.329388 0.154699 0.882369
O O9 0.885356 0.250000 0.859446
O O10 0.862697 0.088763 0.814483
O O11 0.000000 0.120463 0.873405
O O12 0.098537 0.250000 0.494909
O O13 0.000000 0.393195 0.494578
O O14 0.391652 0.250000 0.245382
O O15 0.250000 0.151444 0.250000
O O16 0.389636 0.056399 0.252484
O O17 0.138296 0.896989 0.288215
O O18 0.000000 0.923365 0.238180
O O19 0.500000 0.642656 0.153609
#
# Coordination Sequence:
#
# PCOD9536947 Si02
#       7
#    16  16  16  16  16  16  16
#     4   9  18  32  50  72 101 138 168 196 244 302
#     4  10  20  31  47  71  97 132 168 206 260 302
#     4   9  19  35  52  72  98 131 177 221 257 304
#     4   9  17  30  49  74 103 132 166 206 246 303
#     4  10  20  31  48  76 106 135 168 207 249 298
#     4   9  19  33  50  71  96 133 172 210 255 301
#     4   9  18  30  45  70 101 131 165 202 244 301
#
# _framework density 19.020296999999999
#
# number of rings (size 3 to 8) (size 9 to 14) (size 15 to 20)
#    0.000    2.714    0.000    2.143    4.000    3.714 
#    0.000    5.000    0.000    0.000    0.000    4.000 
#    0.000    9.143    0.000    0.000    0.000    0.000 
#
# Total GULP energy -311901.602926 kJ/mol
# GULP energy per Si atom -5569.671481 kJ/mol
# Density = 1.897701 g / cm^3
# Si number density = 19.020297 Si / 1000 Ang^3
#
#
#
# Elastic Constant Matrix: (Units=GPa)
#
#
# Indices 1 2 3 4 5 6 
#
# 1 83.8413 5.6739 64.8025 0.0000 0.0000 0.0000
# 2 5.6739 53.2029 18.1969 0.0000 0.0000 0.0000
# 3 64.8025 18.1969 137.0369 0.0000 0.0000 0.0000
# 4 0.0000 0.0000 0.0000 -93.4407 0.0000 0.0000
# 5 0.0000 0.0000 0.0000 0.0000 32.1999 0.0000
# 6 0.0000 0.0000 0.0000 0.0000 0.0000 102.6740
#
#
#
# Elastic Compliance Matrix: (Units=1/GPa)
#
#
# Indices 1 2 3 4 5 6 
#
# 1 0.018858 0.001088 -0.009062 0.000000 0.000000 0.000000
# 2 0.001088 0.019753 -0.003138 0.000000 0.000000 0.000000
# 3 -0.009062 -0.003138 0.011999 0.000000 0.000000 0.000000
# 4 0.000000 0.000000 0.000000 -0.010702 0.000000 0.000000
# 5 0.000000 0.000000 0.000000 0.000000 0.031056 0.000000
# 6 0.000000 0.000000 0.000000 0.000000 0.000000 0.009740
#
#
# Mechanical properties :
#
#
# Convention : Reuss Voigt Hill
#
# Bulk Modulus (GPa) = 35.22680 50.15864 42.69272
# Shear Modulus (GPa) = 44.48825 20.64716 32.56771
#
# Velocity S-wave (km/s) = 4.84156 3.29832 4.14244
# Velocity P-wave (km/s) = 7.05798 6.39793 6.73605
#
# Compressibility (1/GPa) = 0.02838748
#
# Stress axis : x y z
#
# Youngs Moduli (GPa) = 53.02804 50.62503 83.33831
#
# Poissons Ratio (x) = -0.05510 0.75522
# Poissons Ratio (y) = -0.05771 0.26149
# Poissons Ratio (z) = 0.48055 0.15884
#
# Static dielectric constant tensor:
#      x y z
#    x 1.675660 0.000000 0.000000 
#    y 0.000000 1.740940 0.000000 
#    z 0.000000 0.000000 1.686610 
# 
# From -- ./inp_files/60097.got.cif
#   From: 2010.05.17/outbox.cif.g08.bks.cpg/sg74_31_cif.got.tgz:60097.got - 2010.06.03 17:57:02.
