data_PCOD9536657
_publ_section_title
;
Structure prediction by ZEFSAII (Michael W. Deem and Ramdas Pophale) SiO2 
 PCOD9536657
Probable space group: I M M A
;
_chemical_formula_sum "Si O2"
_cell_formula_units_Z 80
_cell_length_a 26.682813
_cell_length_b 16.179303
_cell_length_c 9.239588
_cell_angle_alpha 90.000000
_cell_angle_beta 90.000000
_cell_angle_gamma 90.000000
_cell_volume 3988.816219
_symmetry_space_group_name_H-M "I M M A"
_symmetry_group_IT_number 74
_symmetry_cell_setting 'orthorhombic'
loop_
_space_group_symop_operation_xyz
x,y,z
-x,1/2-y,z
x,-y,-z
-x,1/2+y,-z
-x,-y,-z
x,1/2+y,-z
-x,y,z
x,1/2-y,z
1/2+x,1/2+y,1/2+z
1/2-x,-y,1/2+z
1/2+x,1/2-y,1/2-z
1/2-x,y,1/2-z
1/2-x,1/2-y,1/2-z
1/2+x,y,1/2-z
1/2-x,1/2+y,1/2+z
1/2+x,-y,1/2+z
loop_
_atom_site_type_symbol
_atom_site_label
_atom_site_fract_x
_atom_site_fract_y
_atom_site_fract_z
Si Si1 0.195594 0.651251 0.910096
Si Si2 0.597645 0.148932 0.888368
Si Si3 0.098102 0.908729 0.064103
Si Si4 0.500000 0.649494 0.925428
Si Si5 0.307544 0.149175 0.079560
Si Si6 0.500000 0.152687 0.400399
O O1 0.199522 0.750000 0.900128
O O2 0.250882 0.621904 0.957650
O O3 0.183851 0.622184 0.746100
O O4 0.150428 0.631090 0.015009
O O5 0.597768 0.250000 0.867115
O O6 0.593322 0.104122 0.734998
O O7 0.550131 0.127204 0.988128
O O8 0.648546 0.124152 0.971548
O O9 0.049712 0.869482 0.987807
O O10 0.099769 0.000000 0.000000
O O11 0.500000 0.750000 0.919669
O O12 0.500000 0.615834 0.761781
O O13 0.308658 0.250000 0.078658
O O14 0.500000 0.250000 0.381791
#
# Coordination Sequence:
#
# PCOD9536657 Si02
#       6
#    16  16  16   8  16   8
#     4   9  17  35  59  82 109 148 191 235 282 333
#     4  10  19  35  58  86 114 144 184 236 283 327
#     4  12  25  38  52  81 120 152 183 225 276 337
#     4   9  19  35  62  90 106 127 178 237 286 338
#     4   8  16  32  59  87 110 141 194 246 279 320
#     4  11  22  41  65  82 101 143 190 231 280 338
#
# _framework density 20.056076000000001
#
# number of rings (size 3 to 8) (size 9 to 14) (size 15 to 20)
#    0.000    2.200    0.000    5.100    0.000    4.800 
#    0.000   12.000    0.000    0.000    0.000    0.000 
#    0.000    0.000    0.000    0.000    0.000    0.000 
#
# Total GULP energy -223273.963389 kJ/mol
# GULP energy per Si atom -5581.849085 kJ/mol
# Density = 2.001043 g / cm^3
# Si number density = 20.056076 Si / 1000 Ang^3
#
#
#
# Elastic Constant Matrix: (Units=GPa)
#
#
# Indices 1 2 3 4 5 6 
#
# 1 176.4800 14.7246 119.6421 0.0000 0.0000 0.0000
# 2 14.7246 16.2872 20.2350 0.0000 0.0000 0.0000
# 3 119.6421 20.2350 175.5677 0.0000 0.0000 0.0000
# 4 0.0000 0.0000 0.0000 -0.3491 0.0000 0.0000
# 5 0.0000 0.0000 0.0000 0.0000-1030.3894 0.0000
# 6 0.0000 0.0000 0.0000 0.0000 0.0000 702.8720
#
#
#
# Elastic Compliance Matrix: (Units=1/GPa)
#
#
# Indices 1 2 3 4 5 6 
#
# 1 0.010539 -0.000706 -0.007100 0.000000 0.000000 0.000000
# 2 -0.000706 0.071706 -0.007783 0.000000 0.000000 0.000000
# 3 -0.007100 -0.007783 0.011432 0.000000 0.000000 0.000000
# 4 0.000000 0.000000 0.000000 -2.864354 0.000000 0.000000
# 5 0.000000 0.000000 0.000000 0.000000 -0.000971 0.000000
# 6 0.000000 0.000000 0.000000 0.000000 0.000000 0.001423
#
#
# Mechanical properties :
#
#
# Convention : Reuss Voigt Hill
#
# Bulk Modulus (GPa) = 16.00078 75.28202 45.64140
# Shear Modulus (GPa) = -1.83944 -51.32444 -26.58194
#
# Velocity S-wave (km/s) = -0.95872 -5.06419 -3.64453
# Velocity P-wave (km/s) = 2.60189 1.85002 2.25747
#
# Compressibility (1/GPa) = 0.06249697
#
# Stress axis : x y z
#
# Youngs Moduli (GPa) = 94.88625 13.94575 87.47753
#
# Poissons Ratio (x) = 0.00985 0.62113
# Poissons Ratio (y) = 0.06702 0.68085
# Poissons Ratio (z) = 0.67373 0.10854
#
# Static dielectric constant tensor:
#      x y z
#    x 1.669490 0.000000 0.000000 
#    y 0.000000 1.774370 0.000000 
#    z 0.000000 0.000000 1.694940 
# 
# From -- ./inp_files/11045.got.cif
#   From: 2010.05.17/outbox.cif.g08.bks.cpg/sg74_6_cif.got.tgz:11045.got - 2010.06.03 17:57:02.
