data_PCOD9536562
_publ_section_title
;
Structure prediction by ZEFSAII (Michael W. Deem and Ramdas Pophale) SiO2 
 PCOD9536562
Probable space group: I M M A
;
_chemical_formula_sum "Si O2"
_cell_formula_units_Z 80
_cell_length_a 23.987055
_cell_length_b 9.050796
_cell_length_c 19.762958
_cell_angle_alpha 90.000000
_cell_angle_beta 90.000000
_cell_angle_gamma 90.000000
_cell_volume 4290.576551
_symmetry_space_group_name_H-M "I M M A"
_symmetry_group_IT_number 74
_symmetry_cell_setting 'orthorhombic'
loop_
_space_group_symop_operation_xyz
x,y,z
-x,1/2-y,z
x,-y,-z
-x,1/2+y,-z
-x,-y,-z
x,1/2+y,-z
-x,y,z
x,1/2-y,z
1/2+x,1/2+y,1/2+z
1/2-x,-y,1/2+z
1/2+x,1/2-y,1/2-z
1/2-x,y,1/2-z
1/2-x,1/2-y,1/2-z
1/2+x,y,1/2-z
1/2-x,1/2+y,1/2+z
1/2+x,-y,1/2+z
loop_
_atom_site_type_symbol
_atom_site_label
_atom_site_fract_x
_atom_site_fract_y
_atom_site_fract_z
Si Si1 0.435265 0.929335 0.671977
Si Si2 0.756796 0.577711 0.331199
Si Si3 0.336415 0.928086 0.574063
Si Si4 0.369291 0.578870 0.805501
Si Si5 0.438150 0.920649 0.938941
O O1 0.500000 0.980571 0.670706
O O2 0.437595 0.750000 0.676806
O O3 0.396922 0.965137 0.607124
O O4 0.399080 0.979093 0.737412
O O5 0.754248 0.750000 0.350260
O O6 0.750000 0.566571 0.250000
O O7 0.710757 0.489879 0.374436
O O8 0.817903 0.509159 0.337012
O O9 0.331757 0.750000 0.570063
O O10 0.330431 0.000000 0.500000
O O11 0.351997 0.750000 0.792578
O O12 0.413927 0.575203 0.864788
O O13 0.500000 0.986677 0.934176
O O14 0.441159 0.750000 0.958331
O O15 0.406491 0.000000 0.000000
#
# Coordination Sequence:
#
# PCOD9536562 Si02
#       5
#    16  16  16  16  16
#     4   9  18  34  59  89 117 151 197 244 291 350
#     4  11  23  39  60  85 117 152 191 241 293 344
#     4  11  23  40  63  89 120 156 198 244 296 355
#     4  10  19  34  59  86 113 149 196 241 285 344
#     4   9  18  32  51  77 111 149 186 229 279 332
#
# _framework density 18.645512
#
# number of rings (size 3 to 8) (size 9 to 14) (size 15 to 20)
#    0.000    2.000    2.000    1.800    0.000    5.200 
#    0.000    2.000    0.000    6.000    0.000    0.000 
#    0.000    0.000    0.000    0.000    0.000    0.000 
#
# Total GULP energy -222779.246075 kJ/mol
# GULP energy per Si atom -5569.481152 kJ/mol
# Density = 1.860307 g / cm^3
# Si number density = 18.645512 Si / 1000 Ang^3
#
#
#
# Elastic Constant Matrix: (Units=GPa)
#
#
# Indices 1 2 3 4 5 6 
#
# 1 114.3705 34.3781 49.1610 0.0000 0.0000 0.0000
# 2 34.3781 56.4319 51.3602 0.0000 0.0000 0.0000
# 3 49.1610 51.3602 107.4399 0.0000 0.0000 0.0000
# 4 0.0000 0.0000 0.0000 24.4544 0.0000 0.0000
# 5 0.0000 0.0000 0.0000 0.0000 12.7324 0.0000
# 6 0.0000 0.0000 0.0000 0.0000 0.0000 14.6137
#
#
#
# Elastic Compliance Matrix: (Units=1/GPa)
#
#
# Indices 1 2 3 4 5 6 
#
# 1 0.011342 -0.003870 -0.003340 0.000000 0.000000 0.000000
# 2 -0.003870 0.032688 -0.013855 0.000000 0.000000 0.000000
# 3 -0.003340 -0.013855 0.017459 0.000000 0.000000 0.000000
# 4 0.000000 0.000000 0.000000 0.040892 0.000000 0.000000
# 5 0.000000 0.000000 0.000000 0.000000 0.078540 0.000000
# 6 0.000000 0.000000 0.000000 0.000000 0.000000 0.068429
#
#
# Mechanical properties :
#
#
# Convention : Reuss Voigt Hill
#
# Bulk Modulus (GPa) = 51.65506 60.89344 56.27425
# Shear Modulus (GPa) = 16.78221 19.91630 18.34925
#
# Velocity S-wave (km/s) = 3.00337 3.27181 3.14046
# Velocity P-wave (km/s) = 6.30800 6.85583 6.58761
#
# Compressibility (1/GPa) = 0.01935919
#
# Stress axis : x y z
#
# Youngs Moduli (GPa) = 88.16469 30.59204 57.27657
#
# Poissons Ratio (x) = 0.11839 0.19130
# Poissons Ratio (y) = 0.34120 0.79359
# Poissons Ratio (z) = 0.29446 0.42386
#
# Static dielectric constant tensor:
#      x y z
#    x 1.829320 0.000000 0.000000 
#    y 0.000000 1.659690 0.000000 
#    z 0.000000 0.000000 1.700360 
# 
# From -- ./inp_files/39724.got.cif
#   From: 2010.05.17/outbox.cif.g08.bks.cpg/sg74_20_cif.got.tgz:39724.got - 2010.06.03 17:57:02.
