data_PCOD9536485
_publ_section_title
;
Structure prediction by ZEFSAII (Michael W. Deem and Ramdas Pophale) SiO2 
 PCOD9536485
Probable space group: I M M A
;
_chemical_formula_sum "Si O2"
_cell_formula_units_Z 116
_cell_length_a 27.621537
_cell_length_b 7.449537
_cell_length_c 25.768491
_cell_angle_alpha 90.000000
_cell_angle_beta 90.000000
_cell_angle_gamma 90.000000
_cell_volume 5302.322143
_symmetry_space_group_name_H-M "I M M A"
_symmetry_group_IT_number 74
_symmetry_cell_setting 'orthorhombic'
loop_
_space_group_symop_operation_xyz
x,y,z
-x,1/2-y,z
x,-y,-z
-x,1/2+y,-z
-x,-y,-z
x,1/2+y,-z
-x,y,z
x,1/2-y,z
1/2+x,1/2+y,1/2+z
1/2-x,-y,1/2+z
1/2+x,1/2-y,1/2-z
1/2-x,y,1/2-z
1/2-x,1/2-y,1/2-z
1/2+x,y,1/2-z
1/2-x,1/2+y,1/2+z
1/2+x,-y,1/2+z
loop_
_atom_site_type_symbol
_atom_site_label
_atom_site_fract_x
_atom_site_fract_y
_atom_site_fract_z
Si Si1 0.948344 0.044413 0.329110
Si Si2 0.353278 0.458430 0.768768
Si Si3 0.575828 0.963382 0.056860
Si Si4 0.234229 0.470060 0.661538
Si Si5 0.813998 0.963742 0.444026
Si Si6 0.345754 0.967674 0.343277
Si Si7 0.500000 0.250000 0.438484
Si Si8 0.410012 0.466210 0.557822
O O1 0.947589 0.250000 0.311924
O O2 0.000000 0.963495 0.312093
O O3 0.898661 0.965017 0.307544
O O4 0.947295 0.039444 0.391453
O O5 0.341496 0.250000 0.760385
O O6 0.304471 0.533498 0.795317
O O7 0.368231 0.527234 0.711953
O O8 0.575797 0.750000 0.063888
O O9 0.631092 0.034215 0.055532
O O10 0.554846 0.000000 0.000000
O O11 0.234000 0.250000 0.663429
O O12 0.213853 0.529401 0.605924
O O13 0.289910 0.524781 0.663274
O O14 0.817672 0.750000 0.438681
O O15 0.791290 0.000000 0.500000
O O16 0.346097 0.750000 0.346596
O O17 0.374013 0.021205 0.395225
O O18 0.457467 0.408951 0.438992
O O19 0.389005 0.500000 0.500000
O O20 0.420633 0.250000 0.562091
#
# Coordination Sequence:
#
# PCOD9536485 Si02
#       8
#    16  16  16  16  16  16   4  16
#     4  11  24  40  56  79 114 155 198 253 311 363
#     4  10  19  38  64  87 114 156 209 256 309 373
#     4  10  19  34  56  83 111 145 190 242 292 351
#     4   9  16  32  60  89 118 158 204 250 310 369
#     4   9  17  29  49  80 113 147 189 234 281 348
#     4   9  20  37  61  95 128 158 200 258 307 370
#     4  12  24  44  74 102 130 182 212 268 314 388
#     4  11  23  41  68 102 137 171 218 264 320 388
#
# _framework density 21.877206000000001
#
# number of rings (size 3 to 8) (size 9 to 14) (size 15 to 20)
#    0.000    2.069    2.069    1.655    0.000    4.138 
#    2.483    0.000    3.034    0.828    0.000    0.000 
#    0.000    0.000    0.000    0.000    0.000    0.276 
#
# Total GULP energy -323023.088560 kJ/mol
# GULP energy per Si atom -5569.363596 kJ/mol
# Density = 2.182741 g / cm^3
# Si number density = 21.877206 Si / 1000 Ang^3
#
#
#
# Elastic Constant Matrix: (Units=GPa)
#
#
# Indices 1 2 3 4 5 6 
#
# 1 108.8054 6.2282 76.7973 0.0000 0.0000 0.0000
# 2 6.2282 93.5701 4.9144 0.0000 0.0000 0.0000
# 3 76.7973 4.9144 169.7042 0.0000 0.0000 0.0000
# 4 0.0000 0.0000 0.0000 14.6258 0.0000 0.0000
# 5 0.0000 0.0000 0.0000 0.0000 17.0662 0.0000
# 6 0.0000 0.0000 0.0000 0.0000 0.0000 5.0628
#
#
#
# Elastic Compliance Matrix: (Units=1/GPa)
#
#
# Indices 1 2 3 4 5 6 
#
# 1 0.013535 -0.000580 -0.006108 0.000000 0.000000 0.000000
# 2 -0.000580 0.010728 -0.000048 0.000000 0.000000 0.000000
# 3 -0.006108 -0.000048 0.008658 0.000000 0.000000 0.000000
# 4 0.000000 0.000000 0.000000 0.068372 0.000000 0.000000
# 5 0.000000 0.000000 0.000000 0.000000 0.058595 0.000000
# 6 0.000000 0.000000 0.000000 0.000000 0.000000 0.197519
#
#
# Mechanical properties :
#
#
# Convention : Reuss Voigt Hill
#
# Bulk Modulus (GPa) = 51.41772 60.88442 56.15107
# Shear Modulus (GPa) = 13.24978 26.29361 19.77170
#
# Velocity S-wave (km/s) = 2.46365 3.47056 3.00952
# Velocity P-wave (km/s) = 5.62554 6.62950 6.14804
#
# Compressibility (1/GPa) = 0.01944855
#
# Stress axis : x y z
#
# Youngs Moduli (GPa) = 73.88023 93.21130 115.49605
#
# Poissons Ratio (x) = 0.05407 0.70550
# Poissons Ratio (y) = 0.04286 0.00556
# Poissons Ratio (z) = 0.45130 0.00449
#
# Static dielectric constant tensor:
#      x y z
#    x 1.794500 0.000000 0.000000 
#    y 0.000000 1.840380 0.000000 
#    z 0.000000 0.000000 1.816860 
# 
# From -- ./inp_files/62446.got.cif
#   From: 2010.05.17/outbox.cif.g08.bks.cpg/sg74_32_cif.got.tgz:62446.got - 2010.06.03 17:57:02.
