data_PCOD9536488
_publ_section_title
;
Structure prediction by ZEFSAII (Michael W. Deem and Ramdas Pophale) SiO2 
 PCOD9536488
Probable space group: I M M A
;
_chemical_formula_sum "Si O2"
_cell_formula_units_Z 112
_cell_length_a 14.569855
_cell_length_b 13.938772
_cell_length_c 27.334627
_cell_angle_alpha 90.000000
_cell_angle_beta 90.000000
_cell_angle_gamma 90.000000
_cell_volume 5551.276968
_symmetry_space_group_name_H-M "I M M A"
_symmetry_group_IT_number 74
_symmetry_cell_setting 'orthorhombic'
loop_
_space_group_symop_operation_xyz
x,y,z
-x,1/2-y,z
x,-y,-z
-x,1/2+y,-z
-x,-y,-z
x,1/2+y,-z
-x,y,z
x,1/2-y,z
1/2+x,1/2+y,1/2+z
1/2-x,-y,1/2+z
1/2+x,1/2-y,1/2-z
1/2-x,y,1/2-z
1/2-x,1/2-y,1/2-z
1/2+x,y,1/2-z
1/2-x,1/2+y,1/2+z
1/2+x,-y,1/2+z
loop_
_atom_site_type_symbol
_atom_site_label
_atom_site_fract_x
_atom_site_fract_y
_atom_site_fract_z
Si Si1 0.107439 0.146981 0.832461
Si Si2 0.391240 0.447501 0.190704
Si Si3 0.390003 0.861060 0.134540
Si Si4 0.601125 0.639544 0.450747
Si Si5 0.782045 0.468878 0.549189
Si Si6 0.889587 0.939928 0.802816
Si Si7 0.746171 0.642035 0.621062
O O1 0.148143 0.250000 0.818131
O O2 0.108433 0.139963 0.891349
O O3 0.000000 0.148831 0.817672
O O4 0.145702 0.048577 0.812165
O O5 0.500000 0.435435 0.184061
O O6 0.371031 0.559337 0.176708
O O7 0.368945 0.420187 0.246347
O O8 0.334699 0.381117 0.154306
O O9 0.500000 0.862543 0.126758
O O10 0.364070 0.750000 0.144728
O O11 0.338202 0.901302 0.086518
O O12 0.500000 0.599909 0.463100
O O13 0.603455 0.750000 0.466625
O O14 0.690516 0.585652 0.468118
O O15 0.834450 0.500000 0.500000
O O16 0.749904 0.561752 0.579457
O O17 0.839475 0.875182 0.842585
O O18 0.000000 0.936999 0.809513
O O19 0.746574 0.750000 0.602283
#
# Coordination Sequence:
#
# PCOD9536488 Si02
#       7
#    16  16  16  16  16  16  16
#     4   8  14  26  48  77 107 141 178 214 257 314
#     4   9  20  37  58  84 112 146 186 227 275 332
#     4   9  19  38  62  87 116 144 173 224 293 354
#     4   9  17  32  55  81 110 144 180 220 273 334
#     4  11  23  38  60  83 110 146 189 239 286 335
#     4  10  19  34  56  83 117 151 186 227 270 323
#     4  11  24  40  56  77 110 150 192 236 278 322
#
# _framework density 20.175536999999998
#
# number of rings (size 3 to 8) (size 9 to 14) (size 15 to 20)
#    0.000    2.429    1.429    1.714    0.000    4.000 
#    0.000    4.286    0.000    2.571    0.000    0.000 
#    0.000    0.000    0.000    0.000    0.000    0.000 
#
# Total GULP energy -312412.262330 kJ/mol
# GULP energy per Si atom -5578.790399 kJ/mol
# Density = 2.012962 g / cm^3
# Si number density = 20.175537 Si / 1000 Ang^3
#
#
#
# Elastic Constant Matrix: (Units=GPa)
#
#
# Indices 1 2 3 4 5 6 
#
# 1 69.5690 16.1107 15.6558 0.0000 0.0000 0.0000
# 2 16.1107 67.3621 1.5439 0.0000 0.0000 0.0000
# 3 15.6558 1.5439 55.8135 0.0000 0.0000 0.0000
# 4 0.0000 0.0000 0.0000 9.3701 0.0000 0.0000
# 5 0.0000 0.0000 0.0000 0.0000 10.9711 0.0000
# 6 0.0000 0.0000 0.0000 0.0000 0.0000 21.4665
#
#
#
# Elastic Compliance Matrix: (Units=1/GPa)
#
#
# Indices 1 2 3 4 5 6 
#
# 1 0.016253 -0.003785 -0.004454 0.000000 0.000000 0.000000
# 2 -0.003785 0.015736 0.000626 0.000000 0.000000 0.000000
# 3 -0.004454 0.000626 0.019149 0.000000 0.000000 0.000000
# 4 0.000000 0.000000 0.000000 0.106723 0.000000 0.000000
# 5 0.000000 0.000000 0.000000 0.000000 0.091148 0.000000
# 6 0.000000 0.000000 0.000000 0.000000 0.000000 0.046584
#
#
# Mechanical properties :
#
#
# Convention : Reuss Voigt Hill
#
# Bulk Modulus (GPa) = 27.84572 28.81837 28.33205
# Shear Modulus (GPa) = 15.48995 18.99048 17.24022
#
# Velocity S-wave (km/s) = 2.77385 3.07133 2.92637
# Velocity P-wave (km/s) = 4.90823 5.18577 5.04891
#
# Compressibility (1/GPa) = 0.03591216
#
# Stress axis : x y z
#
# Youngs Moduli (GPa) = 61.52641 63.54831 52.22215
#
# Poissons Ratio (x) = 0.24054 0.23262
# Poissons Ratio (y) = 0.23288 -0.03271
# Poissons Ratio (z) = 0.27406 -0.03981
#
# Static dielectric constant tensor:
#      x y z
#    x 1.732700 0.000000 0.000000 
#    y 0.000000 1.730500 0.000000 
#    z 0.000000 0.000000 1.711640 
# 
# From -- ./inp_files/60110.got.cif
#   From: 2010.05.17/outbox.cif.g08.bks.cpg/sg74_31_cif.got.tgz:60110.got - 2010.06.03 17:57:02.
