data_PCOD9536755
_publ_section_title
;
Structure prediction by ZEFSAII (Michael W. Deem and Ramdas Pophale) SiO2 
 PCOD9536755
Probable space group: I M M A
;
_chemical_formula_sum "Si O2"
_cell_formula_units_Z 72
_cell_length_a 24.400850
_cell_length_b 30.082278
_cell_length_c 5.067969
_cell_angle_alpha 90.000000
_cell_angle_beta 90.000000
_cell_angle_gamma 90.000000
_cell_volume 3720.057265
_symmetry_space_group_name_H-M "I M M A"
_symmetry_group_IT_number 74
_symmetry_cell_setting 'orthorhombic'
loop_
_space_group_symop_operation_xyz
x,y,z
-x,1/2-y,z
x,-y,-z
-x,1/2+y,-z
-x,-y,-z
x,1/2+y,-z
-x,y,z
x,1/2-y,z
1/2+x,1/2+y,1/2+z
1/2-x,-y,1/2+z
1/2+x,1/2-y,1/2-z
1/2-x,y,1/2-z
1/2-x,1/2-y,1/2-z
1/2+x,y,1/2-z
1/2-x,1/2+y,1/2+z
1/2+x,-y,1/2+z
loop_
_atom_site_type_symbol
_atom_site_label
_atom_site_fract_x
_atom_site_fract_y
_atom_site_fract_z
Si Si1 0.315745 0.470494 0.753478
Si Si2 0.382914 0.612381 0.061125
Si Si3 0.619495 0.673915 0.555120
Si Si4 0.000000 0.326257 0.169144
Si Si5 0.000000 0.114312 0.662851
Si Si6 0.209863 0.250000 0.005788
O O1 0.331887 0.500000 0.500000
O O2 0.250000 0.465863 0.750000
O O3 0.340866 0.422595 0.816188
O O4 0.332149 0.500000 0.000000
O O5 0.385021 0.652660 0.267189
O O6 0.443591 0.590880 0.082318
O O7 0.372221 0.634642 0.775201
O O8 0.559512 0.694936 0.618672
O O9 0.669460 0.707865 0.536919
O O10 0.000000 0.342646 0.470204
O O11 0.000000 0.368860 0.965655
O O12 0.250000 0.250000 0.250000
O O13 0.250000 0.250000 0.750000
#
# Coordination Sequence:
#
# PCOD9536755 Si02
#       6
#    16  16  16   8   8   8
#     4  10  21  36  53  77 108 140 182 233 270 314
#     4  10  19  36  59  81 107 144 183 219 279 341
#     4  10  21  37  59  82 109 147 185 228 277 332
#     4   8  16  33  56  81 104 135 184 231 272 321
#     4   8  16  30  52  82 110 131 170 231 272 320
#     4  12  26  41  54  81 122 150 184 238 282 324
#
# _framework density 19.354538999999999
#
# number of rings (size 3 to 8) (size 9 to 14) (size 15 to 20)
#    0.000    2.222    0.000    2.667    0.000    3.111 
#    0.000    1.111    0.000    9.333    0.000    0.000 
#    0.000    0.000    0.000    0.000    0.000    0.000 
#
# Total GULP energy -200418.492594 kJ/mol
# GULP energy per Si atom -5567.180350 kJ/mol
# Density = 1.931049 g / cm^3
# Si number density = 19.354539 Si / 1000 Ang^3
#
#
#
# Elastic Constant Matrix: (Units=GPa)
#
#
# Indices 1 2 3 4 5 6 
#
# 1 108.0124 36.3077 32.8637 0.0000 0.0000 0.0000
# 2 36.3077 43.6202 14.1697 0.0000 0.0000 0.0000
# 3 32.8637 14.1697 127.5685 0.0000 0.0000 0.0000
# 4 0.0000 0.0000 0.0000 15.9550 0.0000 0.0000
# 5 0.0000 0.0000 0.0000 0.0000 43.2958 0.0000
# 6 0.0000 0.0000 0.0000 0.0000 0.0000 -435.2198
#
#
#
# Elastic Compliance Matrix: (Units=1/GPa)
#
#
# Indices 1 2 3 4 5 6 
#
# 1 0.013481 -0.010470 -0.002310 0.000000 0.000000 0.000000
# 2 -0.010470 0.031916 -0.000848 0.000000 0.000000 0.000000
# 3 -0.002310 -0.000848 0.008528 0.000000 0.000000 0.000000
# 4 0.000000 0.000000 0.000000 0.062676 0.000000 0.000000
# 5 0.000000 0.000000 0.000000 0.000000 0.023097 0.000000
# 6 0.000000 0.000000 0.000000 0.000000 0.000000 -0.002298
#
#
# Mechanical properties :
#
#
# Convention : Reuss Voigt Hill
#
# Bulk Modulus (GPa) = 37.49730 49.54259 43.51995
# Shear Modulus (GPa) = 28.81098 -62.13648 -16.66275
#
# Velocity S-wave (km/s) = 3.86241 -5.67222 -2.93733
# Velocity P-wave (km/s) = 6.26952 4.15280 3.32123
#
# Compressibility (1/GPa) = 0.02666859
#
# Stress axis : x y z
#
# Youngs Moduli (GPa) = 74.18108 31.33262 117.25901
#
# Poissons Ratio (x) = 0.32806 0.27085
# Poissons Ratio (y) = 0.77670 0.09940
# Poissons Ratio (z) = 0.17134 0.02656
#
# Static dielectric constant tensor:
#      x y z
#    x 1.754830 0.000000 0.000000 
#    y 0.000000 1.676990 0.000000 
#    z 0.000000 0.000000 1.645680 
# 
# From -- ./inp_files/3770.got.cif
#   From: 2010.05.17/outbox.cif.g08.bks.cpg/sg74_2_cif.got.tgz:3770.got - 2010.06.03 17:57:02.
