data_PCOD9536024
_publ_section_title
;
Structure prediction by ZEFSAII (Michael W. Deem and Ramdas Pophale) SiO2 
 PCOD9536024
Probable space group: I M M A
;
_chemical_formula_sum "Si O2"
_cell_formula_units_Z 112
_cell_length_a 15.993548
_cell_length_b 29.309956
_cell_length_c 13.812120
_cell_angle_alpha 90.000000
_cell_angle_beta 90.000000
_cell_angle_gamma 90.000000
_cell_volume 6474.710091
_symmetry_space_group_name_H-M "I M M A"
_symmetry_group_IT_number 74
_symmetry_cell_setting 'orthorhombic'
loop_
_space_group_symop_operation_xyz
x,y,z
-x,1/2-y,z
x,-y,-z
-x,1/2+y,-z
-x,-y,-z
x,1/2+y,-z
-x,y,z
x,1/2-y,z
1/2+x,1/2+y,1/2+z
1/2-x,-y,1/2+z
1/2+x,1/2-y,1/2-z
1/2-x,y,1/2-z
1/2-x,1/2-y,1/2-z
1/2+x,y,1/2-z
1/2-x,1/2+y,1/2+z
1/2+x,-y,1/2+z
loop_
_atom_site_type_symbol
_atom_site_label
_atom_site_fract_x
_atom_site_fract_y
_atom_site_fract_z
Si Si1 0.686789 0.611686 0.500316
Si Si2 0.249541 0.533652 0.365489
Si Si3 0.098357 0.300943 0.225989
Si Si4 0.691131 0.617848 0.833798
Si Si5 0.098213 0.699494 0.007697
Si Si6 0.405616 0.531625 0.853472
Si Si7 0.904491 0.533856 0.880046
O O1 0.736464 0.579159 0.426916
O O2 0.749451 0.632184 0.579523
O O3 0.641451 0.654420 0.451337
O O4 0.622929 0.579421 0.562218
O O5 0.250000 0.542160 0.250000
O O6 0.163832 0.505569 0.383330
O O7 0.329563 0.502288 0.393550
O O8 0.127149 0.250000 0.253612
O O9 0.147191 0.340459 0.280503
O O10 0.104641 0.304364 0.109611
O O11 0.000000 0.304958 0.248876
O O12 0.750000 0.595036 0.750000
O O13 0.628447 0.581388 0.880302
O O14 0.130693 0.750000 0.034805
O O15 0.000000 0.698361 0.030637
O O16 0.500000 0.521672 0.885569
O O17 0.407121 0.537213 0.736419
O O18 0.000000 0.521568 0.907275
#
# Coordination Sequence:
#
# PCOD9536024 Si02
#       7
#    16  16  16  16  16  16  16
#     4  12  21  31  52  76 106 134 179 215 259 310
#     4  10  22  39  51  72 105 137 178 225 269 312
#     4   9  18  32  48  71 108 146 173 203 252 315
#     4  12  19  29  47  76 106 137 174 215 252 303
#     4   9  18  32  50  77 110 138 164 203 263 329
#     4  10  19  35  53  70 102 144 179 216 261 307
#     4  10  19  32  54  80 105 131 165 214 270 322
#
# _framework density 17.298072000000001
#
# number of rings (size 3 to 8) (size 9 to 14) (size 15 to 20)
#    0.000    1.714    4.286    2.571    0.000    4.857 
#    0.000    2.143    0.000    0.429    0.000    0.000 
#    0.000    2.286    0.000    0.000    0.000    0.000 
#
# Total GULP energy -312215.666583 kJ/mol
# GULP energy per Si atom -5575.279760 kJ/mol
# Density = 1.725870 g / cm^3
# Si number density = 17.298072 Si / 1000 Ang^3
#
#
#
# Elastic Constant Matrix: (Units=GPa)
#
#
# Indices 1 2 3 4 5 6 
#
# 1 116.9744 53.8683 15.7096 0.0000 0.0000 0.0000
# 2 53.8683 105.9386 13.1951 0.0000 0.0000 0.0000
# 3 15.7096 13.1951 37.9551 -0.0001 0.0000 0.0000
# 4 0.0000 0.0000 -0.0001 27.3509 0.0000 0.0000
# 5 0.0000 0.0000 0.0000 0.0000 -0.7677 0.0000
# 6 0.0000 0.0000 0.0000 0.0000 0.0000 42.7626
#
#
#
# Elastic Compliance Matrix: (Units=1/GPa)
#
#
# Indices 1 2 3 4 5 6 
#
# 1 0.011448 -0.005468 -0.002837 0.000000 0.000000 0.000000
# 2 -0.005468 0.012478 -0.002075 0.000000 0.000000 0.000000
# 3 -0.002837 -0.002075 0.028243 0.000000 -0.000001 0.000000
# 4 0.000000 0.000000 0.000000 0.036562 0.000000 0.000000
# 5 0.000000 0.000000 -0.000001 0.000000 -1.302634 0.000000
# 6 0.000000 0.000000 0.000000 0.000000 0.000000 0.023385
#
#
# Mechanical properties :
#
#
# Convention : Reuss Voigt Hill
#
# Bulk Modulus (GPa) = 31.83847 47.37936 39.60892
# Shear Modulus (GPa) = -4.31299 25.74218 10.71459
#
# Velocity S-wave (km/s) = -1.58074 3.86184 2.49149
# Velocity P-wave (km/s) = 3.88768 6.88001 5.58787
#
# Compressibility (1/GPa) = 0.03140854
#
# Stress axis : x y z
#
# Youngs Moduli (GPa) = 87.35240 80.14031 35.40740
#
# Poissons Ratio (x) = 0.43818 0.10047
# Poissons Ratio (y) = 0.47761 0.07347
# Poissons Ratio (z) = 0.24786 0.16629
#
# Static dielectric constant tensor:
#      x y z
#    x 1.628460 0.000000 0.000000 
#    y 0.000000 1.614730 0.000000 
#    z 0.000000 0.000000 1.592890 
# 
# From -- ./inp_files/32953.got.cif
#   From: 2010.05.17/outbox.cif.g08.bks.cpg/sg74_17_cif.got.tgz:32953.got - 2010.06.03 17:57:02.
