data_PCOD9536108
_publ_section_title
;
Structure prediction by ZEFSAII (Michael W. Deem and Ramdas Pophale) SiO2 
 PCOD9536108
Probable space group: I M M A
;
_chemical_formula_sum "Si O2"
_cell_formula_units_Z 120
_cell_length_a 8.717783
_cell_length_b 28.990544
_cell_length_c 29.054732
_cell_angle_alpha 90.000000
_cell_angle_beta 90.000000
_cell_angle_gamma 90.000000
_cell_volume 7343.097475
_symmetry_space_group_name_H-M "I M M A"
_symmetry_group_IT_number 74
_symmetry_cell_setting 'orthorhombic'
loop_
_space_group_symop_operation_xyz
x,y,z
-x,1/2-y,z
x,-y,-z
-x,1/2+y,-z
-x,-y,-z
x,1/2+y,-z
-x,y,z
x,1/2-y,z
1/2+x,1/2+y,1/2+z
1/2-x,-y,1/2+z
1/2+x,1/2-y,1/2-z
1/2-x,y,1/2-z
1/2-x,1/2-y,1/2-z
1/2+x,y,1/2-z
1/2-x,1/2+y,1/2+z
1/2+x,-y,1/2+z
loop_
_atom_site_type_symbol
_atom_site_label
_atom_site_fract_x
_atom_site_fract_y
_atom_site_fract_z
Si Si1 0.684605 0.650831 0.198460
Si Si2 0.314783 0.303341 0.300742
Si Si3 0.316284 0.750000 0.198466
Si Si4 0.180109 0.562483 0.149660
Si Si5 0.315863 0.110078 0.362107
Si Si6 0.317023 0.027023 0.198665
Si Si7 0.816548 0.563294 0.548673
Si Si8 0.684248 0.453651 0.945508
O O1 0.500000 0.645707 0.198935
O O2 0.750000 0.651122 0.250000
O O3 0.725801 0.700871 0.176972
O O4 0.762204 0.608477 0.173702
O O5 0.500000 0.304445 0.297912
O O6 0.268824 0.250000 0.310553
O O7 0.250000 0.315623 0.250000
O O8 0.268763 0.340604 0.339704
O O9 0.500000 0.750000 0.202654
O O10 0.250000 0.750000 0.250000
O O11 0.267730 0.518919 0.171516
O O12 0.223629 0.566941 0.096448
O O13 0.000000 0.555365 0.156279
O O14 0.500000 0.108234 0.361693
O O15 0.249801 0.070644 0.328639
O O16 0.259898 0.096018 0.413327
O O17 0.500000 0.030064 0.200316
O O18 0.250000 0.025381 0.250000
O O19 0.774604 0.568267 0.494854
O O20 0.784080 0.508791 0.556603
O O21 0.000000 0.568852 0.552767
O O22 0.500000 0.448609 0.939724
#
# Coordination Sequence:
#
# PCOD9536108 Si02
#       8
#    16  16   8  16  16  16  16  16
#     4  10  19  33  51  73 101 133 168 207 248 294
#     4   9  19  35  53  75 105 139 174 213 257 306
#     4   8  16  30  50  72  94 124 164 204 244 286
#     4  12  23  34  49  74 103 134 170 206 249 301
#     4  11  21  33  52  79 105 133 171 211 255 307
#     4  12  24  37  50  68 101 140 174 208 247 296
#     4   9  18  33  54  76 101 131 167 206 252 298
#     4   9  18  34  53  74 100 134 168 207 251 297
#
# _framework density 16.341878000000001
#
# number of rings (size 3 to 8) (size 9 to 14) (size 15 to 20)
#    0.000    1.867    1.333    4.800    0.000    3.200 
#    0.000    1.333    0.000    0.000    1.733    0.000 
#    0.000    0.000    0.000    0.000    0.000    0.000 
#
# Total GULP energy -334605.134829 kJ/mol
# GULP energy per Si atom -5576.752247 kJ/mol
# Density = 1.630468 g / cm^3
# Si number density = 16.341878 Si / 1000 Ang^3
#
#
#
# Elastic Constant Matrix: (Units=GPa)
#
#
# Indices 1 2 3 4 5 6 
#
# 1 48.0389 29.9887 39.8941 0.0000 0.0000 0.0000
# 2 29.9887 108.9081 60.4184 0.0000 0.0000 0.0000
# 3 39.8941 60.4184 103.2490 0.0000 0.0000 0.0000
# 4 0.0000 0.0000 0.0000 -0.5508 0.0000 0.0000
# 5 0.0000 0.0000 0.0000 0.0000 29.7647 0.0000
# 6 0.0000 0.0000 0.0000 0.0000 0.0000 23.4061
#
#
#
# Elastic Compliance Matrix: (Units=1/GPa)
#
#
# Indices 1 2 3 4 5 6 
#
# 1 0.031226 -0.002821 -0.010415 0.000000 0.000000 0.000000
# 2 -0.002821 0.013850 -0.007015 0.000000 0.000000 0.000000
# 3 -0.010415 -0.007015 0.017815 0.000000 0.000000 0.000000
# 4 0.000000 0.000000 0.000000 -1.815625 0.000000 0.000000
# 5 0.000000 0.000000 0.000000 0.000000 0.033597 0.000000
# 6 0.000000 0.000000 0.000000 0.000000 0.000000 0.042724
#
#
# Mechanical properties :
#
#
# Convention : Reuss Voigt Hill
#
# Bulk Modulus (GPa) = 44.66244 57.86649 51.26446
# Shear Modulus (GPa) = -3.07041 19.18366 8.05663
#
# Velocity S-wave (km/s) = -1.37220 3.42993 2.22278
# Velocity P-wave (km/s) = 4.98787 7.15351 6.16650
#
# Compressibility (1/GPa) = 0.02239018
#
# Stress axis : x y z
#
# Youngs Moduli (GPa) = 32.02426 72.20001 56.13399
#
# Poissons Ratio (x) = 0.20365 0.58463
# Poissons Ratio (y) = 0.09033 0.39378
# Poissons Ratio (z) = 0.33353 0.50649
#
# Static dielectric constant tensor:
#      x y z
#    x 1.549120 0.000000 0.000000 
#    y 0.000000 1.580470 0.000000 
#    z 0.000000 0.000000 1.509300 
# 
# From -- ./inp_files/65152.got.cif
#   From: 2010.05.17/outbox.cif.g08.bks.cpg/sg74_33_cif.got.tgz:65152.got - 2010.06.03 17:57:02.
