data_PCOD9536801
_publ_section_title
;
Structure prediction by ZEFSAII (Michael W. Deem and Ramdas Pophale) SiO2 
 PCOD9536801
Probable space group: I M M A
;
_chemical_formula_sum "Si O2"
_cell_formula_units_Z 72
_cell_length_a 8.617298
_cell_length_b 23.322911
_cell_length_c 19.478430
_cell_angle_alpha 90.000000
_cell_angle_beta 90.000000
_cell_angle_gamma 90.000000
_cell_volume 3914.784100
_symmetry_space_group_name_H-M "I M M A"
_symmetry_group_IT_number 74
_symmetry_cell_setting 'orthorhombic'
loop_
_space_group_symop_operation_xyz
x,y,z
-x,1/2-y,z
x,-y,-z
-x,1/2+y,-z
-x,-y,-z
x,1/2+y,-z
-x,y,z
x,1/2-y,z
1/2+x,1/2+y,1/2+z
1/2-x,-y,1/2+z
1/2+x,1/2-y,1/2-z
1/2-x,y,1/2-z
1/2-x,1/2-y,1/2-z
1/2+x,y,1/2-z
1/2-x,1/2+y,1/2+z
1/2+x,-y,1/2+z
loop_
_atom_site_type_symbol
_atom_site_label
_atom_site_fract_x
_atom_site_fract_y
_atom_site_fract_z
Si Si1 0.188898 0.146390 0.924235
Si Si2 0.687725 0.816171 0.577712
Si Si3 0.684361 0.915443 0.826664
Si Si4 0.187379 0.983971 0.078638
Si Si5 0.312006 0.750000 0.326815
O O1 0.237414 0.081516 0.908389
O O2 0.238958 0.193797 0.869344
O O3 0.000000 0.146707 0.924601
O O4 0.236430 0.164409 0.001115
O O5 0.500000 0.819714 0.580048
O O6 0.731751 0.750000 0.588870
O O7 0.755401 0.859460 0.633142
O O8 0.500000 0.914631 0.824236
O O9 0.750000 0.917107 0.750000
O O10 0.740880 0.970528 0.869645
O O11 0.000000 0.987192 0.084395
O O12 0.226585 0.000000 0.000000
O O13 0.500000 0.750000 0.325486
O O14 0.250000 0.750000 0.250000
#
# Coordination Sequence:
#
# PCOD9536801 Si02
#       5
#    16  16  16  16   8
#     4   9  17  33  61  90 116 152 196 239 288 353
#     4  10  19  37  66  93 116 152 201 247 296 360
#     4  12  26  42  60  86 124 160 199 249 303 357
#     4  10  19  36  64  91 118 154 198 243 296 359
#     4  10  20  36  56  84 121 156 193 236 289 344
#
# _framework density 18.391819000000002
#
# number of rings (size 3 to 8) (size 9 to 14) (size 15 to 20)
#    0.000    1.778    3.333    2.000    0.000    2.222 
#    0.000    4.444    0.000    0.000    0.000    0.000 
#    0.000    0.000    0.000    0.000    0.000    0.000 
#
# Total GULP energy -201093.670137 kJ/mol
# GULP energy per Si atom -5585.935282 kJ/mol
# Density = 1.834996 g / cm^3
# Si number density = 18.391819 Si / 1000 Ang^3
#
#
#
# Elastic Constant Matrix: (Units=GPa)
#
#
# Indices 1 2 3 4 5 6 
#
# 1 35.8020 54.9604 50.2400 0.0000 0.0000 0.0000
# 2 54.9604 224.7140 123.5955 0.0000 0.0000 0.0000
# 3 50.2400 123.5955 190.8627 0.0000 0.0000 0.0000
# 4 0.0000 0.0000 0.0000 32.5246 0.0000 0.0000
# 5 0.0000 0.0000 0.0000 0.0000 31.8323 0.0000
# 6 0.0000 0.0000 0.0000 0.0000 0.0000 17.4068
#
#
#
# Elastic Compliance Matrix: (Units=1/GPa)
#
#
# Indices 1 2 3 4 5 6 
#
# 1 0.052353 -0.008115 -0.008525 0.000000 0.000000 0.000000
# 2 -0.008115 0.008170 -0.003154 0.000000 0.000000 0.000000
# 3 -0.008525 -0.003154 0.009526 0.000000 0.000000 0.000000
# 4 0.000000 0.000000 0.000000 0.030746 0.000000 0.000000
# 5 0.000000 0.000000 0.000000 0.000000 0.031415 0.000000
# 6 0.000000 0.000000 0.000000 0.000000 0.000000 0.057449
#
#
# Mechanical properties :
#
#
# Convention : Reuss Voigt Hill
#
# Bulk Modulus (GPa) = 32.83136 100.99673 66.91405
# Shear Modulus (GPa) = 20.88541 31.19160 26.03850
#
# Velocity S-wave (km/s) = 3.37349 4.12266 3.76675
# Velocity P-wave (km/s) = 5.75011 8.81447 7.44173
#
# Compressibility (1/GPa) = 0.03045868
#
# Stress axis : x y z
#
# Youngs Moduli (GPa) = 19.10112 122.40104 104.97455
#
# Poissons Ratio (x) = 0.99332 0.89496
# Poissons Ratio (y) = 0.15501 0.33112
# Poissons Ratio (z) = 0.16285 0.38609
#
# Static dielectric constant tensor:
#      x y z
#    x 1.625390 0.000000 0.000000 
#    y 0.000000 1.627060 0.000000 
#    z 0.000000 0.000000 1.593360 
# 
# From -- ./inp_files/39434.got.cif
#   From: 2010.05.17/outbox.cif.g08.bks.cpg/sg74_20_cif.got.tgz:39434.got - 2010.06.03 17:57:02.
