data_PCOD9536476
_publ_section_title
;
Structure prediction by ZEFSAII (Michael W. Deem and Ramdas Pophale) SiO2 
 PCOD9536476
Probable space group: I M M A
;
_chemical_formula_sum "Si O2"
_cell_formula_units_Z 96
_cell_length_a 24.246485
_cell_length_b 8.589502
_cell_length_c 25.966563
_cell_angle_alpha 90.000000
_cell_angle_beta 90.000000
_cell_angle_gamma 90.000000
_cell_volume 5407.932252
_symmetry_space_group_name_H-M "I M M A"
_symmetry_group_IT_number 74
_symmetry_cell_setting 'orthorhombic'
loop_
_space_group_symop_operation_xyz
x,y,z
-x,1/2-y,z
x,-y,-z
-x,1/2+y,-z
-x,-y,-z
x,1/2+y,-z
-x,y,z
x,1/2-y,z
1/2+x,1/2+y,1/2+z
1/2-x,-y,1/2+z
1/2+x,1/2-y,1/2-z
1/2-x,y,1/2-z
1/2-x,1/2-y,1/2-z
1/2+x,y,1/2-z
1/2-x,1/2+y,1/2+z
1/2+x,-y,1/2+z
loop_
_atom_site_type_symbol
_atom_site_label
_atom_site_fract_x
_atom_site_fract_y
_atom_site_fract_z
Si Si1 0.381994 0.938031 0.349561
Si Si2 0.685678 0.063085 0.057299
Si Si3 0.687824 0.936096 0.556994
Si Si4 0.500000 0.438579 0.693051
Si Si5 0.000000 0.435614 0.310014
Si Si6 0.384680 0.437165 0.849086
Si Si7 0.812959 0.439638 0.749599
O O1 0.380672 0.750000 0.351896
O O2 0.444661 0.985173 0.337062
O O3 0.345097 0.988614 0.300797
O O4 0.355044 0.002622 0.401174
O O5 0.682974 0.250000 0.057048
O O6 0.749024 0.015995 0.070633
O O7 0.643446 0.996212 0.098802
O O8 0.674585 0.000000 0.000000
O O9 0.686364 0.750000 0.555648
O O10 0.676240 0.000000 0.500000
O O11 0.500000 0.250000 0.697595
O O12 0.500000 0.503551 0.751026
O O13 0.054689 0.497651 0.338145
O O14 0.000000 0.250000 0.309740
O O15 0.386990 0.250000 0.849365
O O16 0.345957 0.487774 0.801225
O O17 0.812379 0.250000 0.749575
O O18 0.750000 0.493960 0.750000
#
# Coordination Sequence:
#
# PCOD9536476 Si02
#       7
#    16  16  16   8   8  16  16
#     4  10  19  34  56  81 112 147 191 238 283 339
#     4  10  21  38  59  86 117 151 189 232 285 341
#     4  10  21  37  58  84 116 151 189 233 285 343
#     4  10  20  38  59  80 109 154 199 235 282 343
#     4  12  24  38  57  82 117 156 194 237 284 335
#     4  11  21  37  60  84 114 151 194 236 282 339
#     4   9  17  29  51  83 113 142 179 226 280 337
#
# _framework density 17.751702000000002
#
# number of rings (size 3 to 8) (size 9 to 14) (size 15 to 20)
#    0.000    1.833    1.667    3.250    0.000    4.000 
#    0.000    0.833    0.000    3.500    0.000    0.000 
#    0.000    0.000    0.000    0.000    0.000    0.000 
#
# Total GULP energy -268097.920791 kJ/mol
# GULP energy per Si atom -5585.373350 kJ/mol
# Density = 1.771130 g / cm^3
# Si number density = 17.751702 Si / 1000 Ang^3
#
#
#
# Elastic Constant Matrix: (Units=GPa)
#
#
# Indices 1 2 3 4 5 6 
#
# 1 198.5266 48.9238 118.8442 0.0000 0.0000 0.0000
# 2 48.9238 46.6610 42.3827 0.0000 0.0000 0.0000
# 3 118.8442 42.3827 148.3752 0.0000 0.0000 0.0000
# 4 0.0000 0.0000 0.0000 29.2242 0.0000 0.0000
# 5 0.0000 0.0000 0.0000 0.0000 16.1531 0.0000
# 6 0.0000 0.0000 0.0000 0.0000 0.0000 17.0032
#
#
#
# Elastic Compliance Matrix: (Units=1/GPa)
#
#
# Indices 1 2 3 4 5 6 
#
# 1 0.010326 -0.004475 -0.006992 0.000000 0.000000 0.000000
# 2 -0.004475 0.030879 -0.005236 0.000000 0.000000 0.000000
# 3 -0.006992 -0.005236 0.013836 0.000000 0.000000 0.000000
# 4 0.000000 0.000000 0.000000 0.034218 0.000000 0.000000
# 5 0.000000 0.000000 0.000000 0.000000 0.061907 0.000000
# 6 0.000000 0.000000 0.000000 0.000000 0.000000 0.058812
#
#
# Mechanical properties :
#
#
# Convention : Reuss Voigt Hill
#
# Bulk Modulus (GPa) = 46.22360 90.42935 68.32647
# Shear Modulus (GPa) = 19.95229 24.70358 22.32794
#
# Velocity S-wave (km/s) = 3.35620 3.73449 3.55038
# Velocity P-wave (km/s) = 6.41204 8.34548 7.44182
#
# Compressibility (1/GPa) = 0.02163397
#
# Stress axis : x y z
#
# Youngs Moduli (GPa) = 96.84473 32.38400 72.27557
#
# Poissons Ratio (x) = 0.14493 0.50537
# Poissons Ratio (y) = 0.43342 0.37843
# Poissons Ratio (z) = 0.67717 0.16956
#
# Static dielectric constant tensor:
#      x y z
#    x 1.596890 0.000000 0.000000 
#    y 0.000000 1.599900 0.000000 
#    z 0.000000 0.000000 1.567590 
# 
# From -- ./inp_files/61953.got.cif
#   From: 2010.05.17/outbox.cif.g08.bks.cpg/sg74_31_cif.got.tgz:61953.got - 2010.06.03 17:57:02.
