data_PCOD9536994
_publ_section_title
;
Structure prediction by ZEFSAII (Michael W. Deem and Ramdas Pophale) SiO2 
 PCOD9536994
Probable space group: I M M A
;
_chemical_formula_sum "Si O2"
_cell_formula_units_Z 128
_cell_length_a 18.719712
_cell_length_b 22.710393
_cell_length_c 18.516704
_cell_angle_alpha 90.000000
_cell_angle_beta 90.000000
_cell_angle_gamma 90.000000
_cell_volume 7872.043708
_symmetry_space_group_name_H-M "I M M A"
_symmetry_group_IT_number 74
_symmetry_cell_setting 'orthorhombic'
loop_
_space_group_symop_operation_xyz
x,y,z
-x,1/2-y,z
x,-y,-z
-x,1/2+y,-z
-x,-y,-z
x,1/2+y,-z
-x,y,z
x,1/2-y,z
1/2+x,1/2+y,1/2+z
1/2-x,-y,1/2+z
1/2+x,1/2-y,1/2-z
1/2-x,y,1/2-z
1/2-x,1/2-y,1/2-z
1/2+x,y,1/2-z
1/2-x,1/2+y,1/2+z
1/2+x,-y,1/2+z
loop_
_atom_site_type_symbol
_atom_site_label
_atom_site_fract_x
_atom_site_fract_y
_atom_site_fract_z
Si Si1 0.690456 0.875713 0.843197
Si Si2 0.825056 0.997771 0.266578
Si Si3 0.416215 0.496819 0.621890
Si Si4 0.581018 0.042024 0.891147
Si Si5 0.418414 0.090118 0.041576
Si Si6 0.921427 0.680206 0.764120
Si Si7 0.415706 0.596854 0.498633
Si Si8 0.836357 0.820232 0.904148
O O1 0.694121 0.941298 0.808974
O O2 0.639557 0.875563 0.913044
O O3 0.644621 0.841118 0.783648
O O4 0.766232 0.849625 0.867633
O O5 0.750000 0.968430 0.250000
O O6 0.868890 0.007577 0.192775
O O7 0.870427 0.959244 0.321732
O O8 0.500000 0.494885 0.642246
O O9 0.407716 0.548683 0.563020
O O10 0.399179 0.437386 0.576216
O O11 0.500000 0.056245 0.871288
O O12 0.580642 0.975567 0.923790
O O13 0.602132 0.082839 0.958129
O O14 0.500000 0.112453 0.047095
O O15 0.925902 0.750000 0.754240
O O16 0.900779 0.669450 0.847064
O O17 0.000000 0.653939 0.746450
O O18 0.500000 0.613838 0.496529
O O19 0.362500 0.648742 0.522357
O O20 0.825442 0.750000 0.911043
#
# Coordination Sequence:
#
# PCOD9536994 Si02
#       8
#    16  16  16  16  16  16  16  16
#     4  11  20  30  44  65  93 125 158 194 234 277
#     4  11  20  27  41  66  94 125 156 185 228 288
#     4   9  18  32  49  69  94 124 159 203 254 299
#     4   8  15  28  43  61  87 117 150 189 229 272
#     4   8  15  28  45  63  84 116 156 191 226 271
#     4  10  20  32  45  61  83 115 157 200 233 265
#     4   9  18  33  51  69  91 122 162 207 251 295
#     4  11  22  34  48  67  96 133 169 204 243 287
#
# _framework density 16.260072000000001
#
# number of rings (size 3 to 8) (size 9 to 14) (size 15 to 20)
#    0.000    2.375    0.000    5.625    0.000    5.250 
#    0.000    2.500    0.000    0.000    0.000    0.000 
#    0.000    5.500    0.000   11.625    0.000    0.500 
#
# Total GULP energy -356585.458804 kJ/mol
# GULP energy per Si atom -5571.647794 kJ/mol
# Density = 1.622306 g / cm^3
# Si number density = 16.260072 Si / 1000 Ang^3
#
#
#
# Elastic Constant Matrix: (Units=GPa)
#
#
# Indices 1 2 3 4 5 6 
#
# 1 63.5988 21.2046 44.2272 0.0000 0.0000 0.0000
# 2 21.2046 40.7986 19.7767 0.0000 0.0000 0.0000
# 3 44.2272 19.7767 75.9868 0.0000 0.0000 0.0000
# 4 0.0000 0.0000 0.0000 20.9646 0.0000 0.0000
# 5 0.0000 0.0000 0.0000 0.0000 48.9725 0.0000
# 6 0.0000 0.0000 0.0000 0.0000 0.0000 17.2277
#
#
#
# Elastic Compliance Matrix: (Units=1/GPa)
#
#
# Indices 1 2 3 4 5 6 
#
# 1 0.028392 -0.007720 -0.014516 0.000000 0.000000 0.000000
# 2 -0.007720 0.030149 -0.003353 0.000000 0.000000 0.000000
# 3 -0.014516 -0.003353 0.022482 0.000000 0.000000 0.000000
# 4 0.000000 0.000000 0.000000 0.047699 0.000000 0.000000
# 5 0.000000 0.000000 0.000000 0.000000 0.020420 0.000000
# 6 0.000000 0.000000 0.000000 0.000000 0.000000 0.058046
#
#
# Mechanical properties :
#
#
# Convention : Reuss Voigt Hill
#
# Bulk Modulus (GPa) = 33.50777 38.97791 36.24284
# Shear Modulus (GPa) = 18.63489 23.77800 21.20644
#
# Velocity S-wave (km/s) = 3.38901 3.82822 3.61529
# Velocity P-wave (km/s) = 5.99717 6.60030 6.30595
#
# Compressibility (1/GPa) = 0.02984382
#
# Stress axis : x y z
#
# Youngs Moduli (GPa) = 35.22115 33.16913 44.48047
#
# Poissons Ratio (x) = 0.25606 0.64568
# Poissons Ratio (y) = 0.27191 0.14916
# Poissons Ratio (z) = 0.51127 0.11123
#
# Static dielectric constant tensor:
#      x y z
#    x 1.583130 0.000000 0.000000 
#    y 0.000000 1.558220 0.000000 
#    z 0.000000 0.000000 1.557740 
# 
# From -- ./inp_files/44608.got.cif
#   From: 2010.05.17/outbox.cif.g08.bks.cpg/sg74_23_cif.got.tgz:44608.got - 2010.06.03 17:57:02.
