data_PCOD9536862
_publ_section_title
;
Structure prediction by ZEFSAII (Michael W. Deem and Ramdas Pophale) SiO2 
 PCOD9536862
Probable space group: I M M A
;
_chemical_formula_sum "Si O2"
_cell_formula_units_Z 80
_cell_length_a 14.956960
_cell_length_b 23.529253
_cell_length_c 11.173529
_cell_angle_alpha 90.000000
_cell_angle_beta 90.000000
_cell_angle_gamma 90.000000
_cell_volume 3932.256439
_symmetry_space_group_name_H-M "I M M A"
_symmetry_group_IT_number 74
_symmetry_cell_setting 'orthorhombic'
loop_
_space_group_symop_operation_xyz
x,y,z
-x,1/2-y,z
x,-y,-z
-x,1/2+y,-z
-x,-y,-z
x,1/2+y,-z
-x,y,z
x,1/2-y,z
1/2+x,1/2+y,1/2+z
1/2-x,-y,1/2+z
1/2+x,1/2-y,1/2-z
1/2-x,y,1/2-z
1/2-x,1/2-y,1/2-z
1/2+x,y,1/2-z
1/2-x,1/2+y,1/2+z
1/2+x,-y,1/2+z
loop_
_atom_site_type_symbol
_atom_site_label
_atom_site_fract_x
_atom_site_fract_y
_atom_site_fract_z
Si Si1 0.734186 0.910046 0.379883
Si Si2 0.396678 0.422234 0.056859
Si Si3 0.646598 0.685316 0.784851
Si Si4 0.602957 0.011083 0.300917
Si Si5 0.096360 0.871386 0.947987
O O1 0.750000 0.884096 0.250000
O O2 0.823751 0.925720 0.452362
O O3 0.677590 0.867743 0.462087
O O4 0.672134 0.964968 0.349644
O O5 0.500000 0.429983 0.018356
O O6 0.385943 0.360527 0.119240
O O7 0.378483 0.465920 0.166679
O O8 0.635346 0.750000 0.824450
O O9 0.750000 0.674672 0.750000
O O10 0.598548 0.673207 0.659278
O O11 0.500000 0.990332 0.304905
O O12 0.607078 0.067177 0.383463
O O13 0.000000 0.869982 0.008831
#
# Coordination Sequence:
#
# PCOD9536862 Si02
#       5
#    16  16  16  16  16
#     4  12  25  35  58  82 118 170 204 239 290 352
#     4  10  23  42  60  89 127 156 198 256 305 357
#     4  10  19  37  70 100 117 146 195 252 319 369
#     4   9  21  38  59  84 113 155 204 251 299 349
#     4  10  21  38  59  87 120 149 193 251 304 356
#
# _framework density 20.344553000000001
#
# number of rings (size 3 to 8) (size 9 to 14) (size 15 to 20)
#    0.000    1.800    2.000    3.000    5.600    4.800 
#    0.000    2.000    0.000    2.400    0.000    2.800 
#    0.000    0.000    0.000    0.000    0.000    0.000 
#
# Total GULP energy -223623.387106 kJ/mol
# GULP energy per Si atom -5590.584678 kJ/mol
# Density = 2.029825 g / cm^3
# Si number density = 20.344553 Si / 1000 Ang^3
#
#
#
# Elastic Constant Matrix: (Units=GPa)
#
#
# Indices 1 2 3 4 5 6 
#
# 1 135.4001 28.9340 76.6616 -0.0001 0.0000 0.0000
# 2 28.9340 57.7851 9.5571 -0.0002 0.0000 0.0000
# 3 76.6616 9.5571 122.0795 -0.0006 -0.0001 0.0001
# 4 -0.0001 -0.0002 -0.0006 16.7088 -0.0001 0.0000
# 5 0.0000 0.0000 -0.0001 -0.0001 19.3085 0.0000
# 6 0.0000 0.0000 0.0001 0.0000 0.0000 16.9229
#
#
#
# Elastic Compliance Matrix: (Units=1/GPa)
#
#
# Indices 1 2 3 4 5 6 
#
# 1 0.012814 -0.005152 -0.007643 0.000000 0.000000 0.000000
# 2 -0.005152 0.019604 0.001701 0.000000 0.000000 0.000000
# 3 -0.007643 0.001701 0.012858 0.000000 0.000000 0.000000
# 4 0.000000 0.000000 0.000000 0.059849 0.000000 0.000000
# 5 0.000000 0.000000 0.000000 0.000000 0.051791 0.000000
# 6 0.000000 0.000000 0.000000 0.000000 0.000000 0.059092
#
#
# Mechanical properties :
#
#
# Convention : Reuss Voigt Hill
#
# Bulk Modulus (GPa) = 43.31581 60.61892 51.96736
# Shear Modulus (GPa) = 20.33410 23.92884 22.13147
#
# Velocity S-wave (km/s) = 3.16490 3.43327 3.30181
# Velocity P-wave (km/s) = 5.89005 6.75109 6.33522
#
# Compressibility (1/GPa) = 0.02308626
#
# Stress axis : x y z
#
# Youngs Moduli (GPa) = 78.03904 51.01009 77.77220
#
# Poissons Ratio (x) = 0.26281 0.59445
# Poissons Ratio (y) = 0.40206 -0.13226
# Poissons Ratio (z) = 0.59649 -0.08675
#
# Static dielectric constant tensor:
#      x y z
#    x 1.786560 0.000000 0.000000 
#    y 0.000000 1.704110 0.000000 
#    z 0.000000 0.000000 1.739800 
# 
# From -- ./inp_files/20803.got.cif
#   From: 2010.05.17/outbox.cif.g08.bks.cpg/sg74_11_cif.got.tgz:20803.got - 2010.06.03 17:57:02.
