data_PCOD9536346
_publ_section_title
;
Structure prediction by ZEFSAII (Michael W. Deem and Ramdas Pophale) SiO2 
 PCOD9536346
Probable space group: I M M A
;
_chemical_formula_sum "Si O2"
_cell_formula_units_Z 96
_cell_length_a 23.475290
_cell_length_b 18.663595
_cell_length_c 12.455924
_cell_angle_alpha 90.000000
_cell_angle_beta 90.000000
_cell_angle_gamma 90.000000
_cell_volume 5457.355150
_symmetry_space_group_name_H-M "I M M A"
_symmetry_group_IT_number 74
_symmetry_cell_setting 'orthorhombic'
loop_
_space_group_symop_operation_xyz
x,y,z
-x,1/2-y,z
x,-y,-z
-x,1/2+y,-z
-x,-y,-z
x,1/2+y,-z
-x,y,z
x,1/2-y,z
1/2+x,1/2+y,1/2+z
1/2-x,-y,1/2+z
1/2+x,1/2-y,1/2-z
1/2-x,y,1/2-z
1/2-x,1/2-y,1/2-z
1/2+x,y,1/2-z
1/2-x,1/2+y,1/2+z
1/2+x,-y,1/2+z
loop_
_atom_site_type_symbol
_atom_site_label
_atom_site_fract_x
_atom_site_fract_y
_atom_site_fract_z
Si Si1 0.434203 0.452820 0.237960
Si Si2 0.249713 0.665249 0.879360
Si Si3 0.934709 0.118661 0.664790
Si Si4 0.932513 0.669753 0.106778
Si Si5 0.639571 0.583341 0.965471
Si Si6 0.359173 0.075113 0.449725
O O1 0.500000 0.429799 0.251047
O O2 0.434812 0.537271 0.209962
O O3 0.403480 0.417501 0.135597
O O4 0.397342 0.438854 0.344051
O O5 0.250697 0.750000 0.904997
O O6 0.250000 0.658142 0.750000
O O7 0.303696 0.624269 0.929953
O O8 0.193068 0.626475 0.921254
O O9 0.917774 0.165244 0.767388
O O10 0.892141 0.120423 0.565430
O O11 0.000000 0.135688 0.632626
O O12 0.922125 0.750000 0.066176
O O13 0.000000 0.654616 0.099995
O O14 0.898201 0.613296 0.038056
O O15 0.650474 0.500000 0.000000
O O16 0.338977 0.000000 0.500000
#
# Coordination Sequence:
#
# PCOD9536346 Si02
#       6
#    16  16  16  16  16  16
#     4  10  19  33  58  91 120 144 188 243 288 339
#     4  11  24  42  60  79 113 156 197 243 295 342
#     4   9  18  34  58  88 119 151 184 230 292 347
#     4  10  21  36  55  84 123 159 188 228 288 351
#     4  10  20  38  61  88 114 150 194 242 290 338
#     4  12  22  37  61  88 113 152 199 244 286 337
#
# _framework density 17.590938999999999
#
# number of rings (size 3 to 8) (size 9 to 14) (size 15 to 20)
#    0.000    1.667    3.333    2.000    0.000    3.333 
#    0.000    0.833    0.000    4.500    0.000    0.000 
#    0.000    0.000    0.000    0.000    0.000    0.000 
#
# Total GULP energy -267930.451749 kJ/mol
# GULP energy per Si atom -5581.884411 kJ/mol
# Density = 1.755090 g / cm^3
# Si number density = 17.590939 Si / 1000 Ang^3
#
#
#
# Elastic Constant Matrix: (Units=GPa)
#
#
# Indices 1 2 3 4 5 6 
#
# 1 98.1098 42.1334 57.0965 0.0000 0.0000 0.0000
# 2 42.1334 73.2219 41.5534 0.0000 0.0000 0.0000
# 3 57.0965 41.5534 103.4612 0.0000 0.0000 0.0000
# 4 0.0000 0.0000 0.0000 15.6308 0.0000 0.0000
# 5 0.0000 0.0000 0.0000 0.0000 35.6367 0.0000
# 6 0.0000 0.0000 0.0000 0.0000 0.0000 9.3948
#
#
#
# Elastic Compliance Matrix: (Units=1/GPa)
#
#
# Indices 1 2 3 4 5 6 
#
# 1 0.016645 -0.005654 -0.006915 0.000000 0.000000 0.000000
# 2 -0.005654 0.019609 -0.004756 0.000000 0.000000 0.000000
# 3 -0.006915 -0.004756 0.015392 0.000000 0.000000 0.000000
# 4 0.000000 0.000000 0.000000 0.063976 0.000000 0.000000
# 5 0.000000 0.000000 0.000000 0.000000 0.028061 0.000000
# 6 0.000000 0.000000 0.000000 0.000000 0.000000 0.106441
#
#
# Mechanical properties :
#
#
# Convention : Reuss Voigt Hill
#
# Bulk Modulus (GPa) = 58.83349 61.81772 60.32561
# Shear Modulus (GPa) = 17.21535 21.06645 19.14090
#
# Velocity S-wave (km/s) = 3.13173 3.46435 3.30223
# Velocity P-wave (km/s) = 6.82605 7.15684 6.99340
#
# Compressibility (1/GPa) = 0.01699712
#
# Stress axis : x y z
#
# Youngs Moduli (GPa) = 60.07839 50.99669 64.97016
#
# Poissons Ratio (x) = 0.28831 0.44927
# Poissons Ratio (y) = 0.33965 0.30898
# Poissons Ratio (z) = 0.41545 0.24252
#
# Static dielectric constant tensor:
#      x y z
#    x 1.574590 0.000000 0.000000 
#    y 0.000000 1.597960 0.000000 
#    z 0.000000 0.000000 1.584330 
# 
# From -- ./inp_files/22440.got.cif
#   From: 2010.05.17/outbox.cif.g08.bks.cpg/sg74_12_cif.got.tgz:22440.got - 2010.06.03 17:57:02.
