data_PCOD9536724
_publ_section_title
;
Structure prediction by ZEFSAII (Michael W. Deem and Ramdas Pophale) SiO2 
 PCOD9536724
Probable space group: I M M A
;
_chemical_formula_sum "Si O2"
_cell_formula_units_Z 84
_cell_length_a 14.245845
_cell_length_b 12.074115
_cell_length_c 30.260132
_cell_angle_alpha 90.000000
_cell_angle_beta 90.000000
_cell_angle_gamma 90.000000
_cell_volume 5204.923381
_symmetry_space_group_name_H-M "I M M A"
_symmetry_group_IT_number 74
_symmetry_cell_setting 'orthorhombic'
loop_
_space_group_symop_operation_xyz
x,y,z
-x,1/2-y,z
x,-y,-z
-x,1/2+y,-z
-x,-y,-z
x,1/2+y,-z
-x,y,z
x,1/2-y,z
1/2+x,1/2+y,1/2+z
1/2-x,-y,1/2+z
1/2+x,1/2-y,1/2-z
1/2-x,y,1/2-z
1/2-x,1/2-y,1/2-z
1/2+x,y,1/2-z
1/2-x,1/2+y,1/2+z
1/2+x,-y,1/2+z
loop_
_atom_site_type_symbol
_atom_site_label
_atom_site_fract_x
_atom_site_fract_y
_atom_site_fract_z
Si Si1 0.389889 0.984679 0.948678
Si Si2 0.889684 0.750000 0.600234
Si Si3 0.810902 0.623004 0.371913
Si Si4 0.785623 0.250000 0.170544
Si Si5 0.000000 0.873156 0.315066
Si Si6 0.000000 0.750000 0.812697
Si Si7 0.000000 0.485603 0.229422
Si Si8 0.704557 0.003337 0.296520
O O1 0.500000 0.016526 0.943882
O O2 0.381615 0.859963 0.929825
O O3 0.326981 0.062120 0.917956
O O4 0.366080 0.000000 0.000000
O O5 0.801126 0.750000 0.634816
O O6 0.000000 0.750000 0.618214
O O7 0.782661 0.750000 0.377603
O O8 0.909906 0.619824 0.346039
O O9 0.743812 0.557288 0.339169
O O10 0.900375 0.250000 0.160007
O O11 0.776231 0.134730 0.197044
O O12 0.000000 0.750000 0.293469
O O13 0.000000 0.970926 0.279433
O O14 0.000000 0.854753 0.779921
O O15 0.095460 0.524187 0.207384
O O16 0.750000 0.967962 0.250000
#
# Coordination Sequence:
#
# PCOD9536724 Si02
#       8
#    16   8  16   8   8   4   8  16
#     4  10  21  36  55  81 114 144 175 217 272 331
#     4  10  20  35  57  87 111 142 181 221 276 328
#     4  11  22  35  53  78 105 145 184 219 265 319
#     4  10  19  36  53  78 110 142 184 225 269 321
#     4  10  20  34  51  71 104 142 183 218 259 311
#     4   8  20  34  56  78 100 146 194 220 272 312
#     4  10  20  36  52  77 105 142 181 224 266 311
#     4  11  21  35  54  76 108 141 183 223 266 317
#
# _framework density 16.138566000000001
#
# number of rings (size 3 to 8) (size 9 to 14) (size 15 to 20)
#    0.000    1.714    4.762    0.286    1.333    1.143 
#    1.714    0.952    0.000    0.000    0.000    2.667 
#    0.000    0.000    0.000    0.000    0.000    0.000 
#
# Total GULP energy -233945.370213 kJ/mol
# GULP energy per Si atom -5570.127862 kJ/mol
# Density = 1.610183 g / cm^3
# Si number density = 16.138566 Si / 1000 Ang^3
#
#
#
# Elastic Constant Matrix: (Units=GPa)
#
#
# Indices 1 2 3 4 5 6 
#
# 1 95.2615 31.9753 53.5438 0.0000 0.0000 0.0000
# 2 31.9753 75.2156 47.5220 0.0000 0.0000 0.0000
# 3 53.5438 47.5220 119.2802 0.0000 0.0000 0.0000
# 4 0.0000 0.0000 0.0000 12.6725 0.0000 0.0000
# 5 0.0000 0.0000 0.0000 0.0000 -53.0473 0.0000
# 6 0.0000 0.0000 0.0000 0.0000 0.0000 -56.0699
#
#
#
# Elastic Compliance Matrix: (Units=1/GPa)
#
#
# Indices 1 2 3 4 5 6 
#
# 1 0.014448 -0.002732 -0.005397 0.000000 0.000000 0.000000
# 2 -0.002732 0.018284 -0.006058 0.000000 0.000000 0.000000
# 3 -0.005397 -0.006058 0.013220 0.000000 0.000000 0.000000
# 4 0.000000 0.000000 0.000000 0.078911 0.000000 0.000000
# 5 0.000000 0.000000 0.000000 0.000000 -0.018851 0.000000
# 6 0.000000 0.000000 0.000000 0.000000 0.000000 -0.017835
#
#
# Mechanical properties :
#
#
# Convention : Reuss Voigt Hill
#
# Bulk Modulus (GPa) = 56.89105 61.75993 59.32549
# Shear Modulus (GPa) = 40.84608 -8.84119 16.00245
#
# Velocity S-wave (km/s) = 5.03632 -2.34312 3.15233
# Velocity P-wave (km/s) = 8.31550 5.57058 7.07739
#
# Compressibility (1/GPa) = 0.01757746
#
# Stress axis : x y z
#
# Youngs Moduli (GPa) = 69.21354 54.69217 75.64358
#
# Poissons Ratio (x) = 0.14943 0.40825
# Poissons Ratio (y) = 0.18910 0.45825
# Poissons Ratio (z) = 0.37355 0.33133
#
# Static dielectric constant tensor:
#      x y z
#    x 1.566150 0.000000 0.000000 
#    y 0.000000 1.563670 0.000000 
#    z 0.000000 0.000000 1.505870 
# 
# From -- ./inp_files/58703.got.cif
#   From: 2010.05.17/outbox.cif.g08.bks.cpg/sg74_30_cif.got.tgz:58703.got - 2010.06.03 17:57:02.
