data_PCOD9536582
_publ_section_title
;
Structure prediction by ZEFSAII (Michael W. Deem and Ramdas Pophale) SiO2 
 PCOD9536582
Probable space group: I M M A
;
_chemical_formula_sum "Si O2"
_cell_formula_units_Z 52
_cell_length_a 18.560163
_cell_length_b 14.197021
_cell_length_c 7.544951
_cell_angle_alpha 90.000000
_cell_angle_beta 90.000000
_cell_angle_gamma 90.000000
_cell_volume 1988.087224
_symmetry_space_group_name_H-M "I M M A"
_symmetry_group_IT_number 74
_symmetry_cell_setting 'orthorhombic'
loop_
_space_group_symop_operation_xyz
x,y,z
-x,1/2-y,z
x,-y,-z
-x,1/2+y,-z
-x,-y,-z
x,1/2+y,-z
-x,y,z
x,1/2-y,z
1/2+x,1/2+y,1/2+z
1/2-x,-y,1/2+z
1/2+x,1/2-y,1/2-z
1/2-x,y,1/2-z
1/2-x,1/2-y,1/2-z
1/2+x,y,1/2-z
1/2-x,1/2+y,1/2+z
1/2+x,-y,1/2+z
loop_
_atom_site_type_symbol
_atom_site_label
_atom_site_fract_x
_atom_site_fract_y
_atom_site_fract_z
Si Si1 0.423542 0.610939 0.548384
Si Si2 0.389189 0.888962 0.954247
Si Si3 0.267055 0.610844 0.454852
Si Si4 0.500000 0.750000 0.124156
O O1 0.424250 0.500000 0.500000
O O2 0.500000 0.650139 0.477957
O O3 0.422098 0.623473 0.759801
O O4 0.346661 0.649050 0.487679
O O5 0.436450 0.831750 0.093637
O O6 0.305438 0.857729 0.946282
O O7 0.389877 0.000000 0.000000
O O8 0.272418 0.500000 0.500000
O O9 0.250000 0.622512 0.250000
#
# Coordination Sequence:
#
# PCOD9536582 Si02
#       4
#    16  16  16   4
#     4  10  19  34  63  98 130 161 217 261 319 382
#     4  11  22  42  68  93 133 172 214 267 323 377
#     4  10  19  36  62  97 129 170 214 259 321 389
#     4  12  26  40  62 104 126 168 226 270 308 398
#
# _framework density 26.155792999999999
#
# number of rings (size 3 to 8) (size 9 to 14) (size 15 to 20)
#    0.000    1.538    1.538    8.769    0.000    0.000 
#    2.769    3.846    0.000   12.923    0.000    0.000 
#    0.000    0.000    0.000    0.000    0.000    0.000 
#
# Total GULP energy -145059.882367 kJ/mol
# GULP energy per Si atom -5579.226245 kJ/mol
# Density = 2.609626 g / cm^3
# Si number density = 26.155793 Si / 1000 Ang^3
#
#
#
# Elastic Constant Matrix: (Units=GPa)
#
#
# Indices 1 2 3 4 5 6 
#
# 1 343.4557 34.7317 33.5856 0.0000 0.0000 0.0000
# 2 34.7317 170.5750 -29.8390 0.0000 0.0000 0.0000
# 3 33.5856 -29.8390 84.6933 0.0000 0.0000 0.0000
# 4 0.0000 0.0000 0.0000 -55.4122 0.0000 0.0000
# 5 0.0000 0.0000 0.0000 0.0000 73.4457 0.0000
# 6 0.0000 0.0000 0.0000 0.0000 0.0000 -20.6178
#
#
#
# Elastic Compliance Matrix: (Units=1/GPa)
#
#
# Indices 1 2 3 4 5 6 
#
# 1 0.003159 -0.000919 -0.001576 0.000000 0.000000 0.000000
# 2 -0.000919 0.006515 0.002660 0.000000 0.000000 0.000000
# 3 -0.001576 0.002660 0.013369 0.000000 0.000000 0.000000
# 4 0.000000 0.000000 0.000000 -0.018047 0.000000 0.000000
# 5 0.000000 0.000000 0.000000 0.000000 0.013615 0.000000
# 6 0.000000 0.000000 0.000000 0.000000 0.000000 -0.048502
#
#
# Mechanical properties :
#
#
# Convention : Reuss Voigt Hill
#
# Bulk Modulus (GPa) = 42.78627 75.07562 58.93094
# Shear Modulus (GPa) = -222.93487 36.83285 -93.05101
#
# Velocity S-wave (km/s) = -9.24221 3.75668 -5.97101
# Velocity P-wave (km/s) = 9.87409 6.89800 4.99575
#
# Compressibility (1/GPa) = 0.02337199
#
# Stress axis : x y z
#
# Youngs Moduli (GPa) = 316.59081 153.49450 74.79725
#
# Poissons Ratio (x) = 0.14105 0.11790
# Poissons Ratio (y) = 0.29091 -0.19894
# Poissons Ratio (z) = 0.49905 -0.40825
#
# Static dielectric constant tensor:
#      x y z
#    x 2.069430 0.000000 0.000000 
#    y 0.000000 1.996650 0.000000 
#    z 0.000000 0.000000 2.056060 
# 
# From -- ./inp_files/8341.got.cif
#   From: 2010.05.17/outbox.cif.g08.bks.cpg/sg74_5_cif.got.tgz:8341.got - 2010.06.03 17:57:02.
