data_PCOD9536063
_publ_section_title
;
Structure prediction by ZEFSAII (Michael W. Deem and Ramdas Pophale) SiO2 
 PCOD9536063
Probable space group: I M M A
;
_chemical_formula_sum "Si O2"
_cell_formula_units_Z 120
_cell_length_a 16.786938
_cell_length_b 23.203700
_cell_length_c 15.618412
_cell_angle_alpha 90.000000
_cell_angle_beta 90.000000
_cell_angle_gamma 90.000000
_cell_volume 6083.669368
_symmetry_space_group_name_H-M "I M M A"
_symmetry_group_IT_number 74
_symmetry_cell_setting 'orthorhombic'
loop_
_space_group_symop_operation_xyz
x,y,z
-x,1/2-y,z
x,-y,-z
-x,1/2+y,-z
-x,-y,-z
x,1/2+y,-z
-x,y,z
x,1/2-y,z
1/2+x,1/2+y,1/2+z
1/2-x,-y,1/2+z
1/2+x,1/2-y,1/2-z
1/2-x,y,1/2-z
1/2-x,1/2-y,1/2-z
1/2+x,y,1/2-z
1/2-x,1/2+y,1/2+z
1/2+x,-y,1/2+z
loop_
_atom_site_type_symbol
_atom_site_label
_atom_site_fract_x
_atom_site_fract_y
_atom_site_fract_z
Si Si1 0.596457 0.102076 0.332559
Si Si2 0.343356 0.358434 0.653465
Si Si3 0.402720 0.315781 0.176991
Si Si4 0.315159 0.500000 0.000000
Si Si5 0.160208 0.488862 0.902918
Si Si6 0.595420 0.687210 0.521593
Si Si7 0.840791 0.819271 0.339359
Si Si8 0.593949 0.879539 0.994477
O O1 0.500000 0.099297 0.332572
O O2 0.621492 0.140076 0.251406
O O3 0.624922 0.136420 0.417237
O O4 0.629463 0.038006 0.340075
O O5 0.356742 0.425436 0.631782
O O6 0.382614 0.323600 0.576157
O O7 0.249518 0.342938 0.652146
O O8 0.372510 0.340543 0.747352
O O9 0.500000 0.314319 0.178137
O O10 0.375847 0.250000 0.190571
O O11 0.377291 0.341002 0.085529
O O12 0.254662 0.495031 0.919761
O O13 0.364738 0.558301 0.994627
O O14 0.125895 0.500000 0.000000
O O15 0.500000 0.687476 0.529903
O O16 0.625201 0.750000 0.549834
O O17 0.839604 0.750000 0.341162
O O18 0.888446 0.845695 0.418280
O O19 0.500000 0.887977 0.984414
#
# Coordination Sequence:
#
# PCOD9536063 Si02
#       8
#    16  16  16   8  16  16  16  16
#     4  10  20  35  60  93 123 159 202 243 295 362
#     4  11  21  39  59  85 119 159 200 242 299 361
#     4   9  19  38  62  90 124 159 200 252 309 362
#     4  10  21  42  61  86 124 162 206 256 307 362
#     4  10  20  38  61  84 122 165 198 244 300 364
#     4  10  19  32  55  86 120 156 192 240 293 346
#     4  11  23  40  63  88 117 158 202 247 302 366
#     4  11  23  41  66  90 119 161 208 258 308 358
#
# _framework density 19.724938000000002
#
# number of rings (size 3 to 8) (size 9 to 14) (size 15 to 20)
#    0.400    1.333    2.667    2.600    0.000    4.800 
#    0.000    1.333    0.000    0.800    0.000    0.000 
#    0.000    0.000    0.000    0.000    0.000    0.000 
#
# Total GULP energy -334973.933777 kJ/mol
# GULP energy per Si atom -5582.898896 kJ/mol
# Density = 1.968004 g / cm^3
# Si number density = 19.724938 Si / 1000 Ang^3
#
#
#
# Elastic Constant Matrix: (Units=GPa)
#
#
# Indices 1 2 3 4 5 6 
#
# 1 10.4646 23.2634 9.1313 0.0000 0.0000 0.0000
# 2 23.2634 154.3430 36.6122 -0.0001 0.0000 0.0000
# 3 9.1313 36.6122 93.6677 -0.0001 0.0000 0.0000
# 4 0.0000 -0.0001 -0.0001 32.8870 0.0000 0.0000
# 5 0.0000 0.0000 0.0000 0.0000 42.9592 0.0000
# 6 0.0000 0.0000 0.0000 0.0000 0.0000 -27.4166
#
#
#
# Elastic Compliance Matrix: (Units=1/GPa)
#
#
# Indices 1 2 3 4 5 6 
#
# 1 0.146959 -0.020668 -0.006248 0.000000 0.000000 0.000000
# 2 -0.020668 0.010048 -0.001913 0.000000 0.000000 0.000000
# 3 -0.006248 -0.001913 0.012033 0.000000 0.000000 0.000000
# 4 0.000000 0.000000 0.000000 0.030407 0.000000 0.000000
# 5 0.000000 0.000000 0.000000 0.000000 0.023278 0.000000
# 6 0.000000 0.000000 0.000000 0.000000 0.000000 -0.036474
#
#
# Mechanical properties :
#
#
# Convention : Reuss Voigt Hill
#
# Bulk Modulus (GPa) = 8.97807 44.05433 26.51620
# Shear Modulus (GPa) = 17.79132 22.31714 20.05423
#
# Velocity S-wave (km/s) = 3.00654 3.36730 3.19202
# Velocity P-wave (km/s) = 4.07602 6.12382 5.20168
#
# Compressibility (1/GPa) = 0.11138249
#
# Stress axis : x y z
#
# Youngs Moduli (GPa) = 6.80460 99.52207 83.10682
#
# Poissons Ratio (x) = 2.05696 0.51923
# Poissons Ratio (y) = 0.14064 0.15895
# Poissons Ratio (z) = 0.04251 0.19035
#
# Static dielectric constant tensor:
#      x y z
#    x 1.694480 0.000000 0.000000 
#    y 0.000000 1.676220 0.000000 
#    z 0.000000 0.000000 1.710550 
# 
# From -- ./inp_files/35727.got.cif
#   From: 2010.05.17/outbox.cif.g08.bks.cpg/sg74_18_cif.got.tgz:35727.got - 2010.06.03 17:57:02.
