data_PCOD9536318
_publ_section_title
;
Structure prediction by ZEFSAII (Michael W. Deem and Ramdas Pophale) SiO2 
 PCOD9536318
Probable space group: I M M A
;
_chemical_formula_sum "Si O2"
_cell_formula_units_Z 84
_cell_length_a 23.770103
_cell_length_b 17.527487
_cell_length_c 11.404010
_cell_angle_alpha 90.000000
_cell_angle_beta 90.000000
_cell_angle_gamma 90.000000
_cell_volume 4751.254640
_symmetry_space_group_name_H-M "I M M A"
_symmetry_group_IT_number 74
_symmetry_cell_setting 'orthorhombic'
loop_
_space_group_symop_operation_xyz
x,y,z
-x,1/2-y,z
x,-y,-z
-x,1/2+y,-z
-x,-y,-z
x,1/2+y,-z
-x,y,z
x,1/2-y,z
1/2+x,1/2+y,1/2+z
1/2-x,-y,1/2+z
1/2+x,1/2-y,1/2-z
1/2-x,y,1/2-z
1/2-x,1/2-y,1/2-z
1/2+x,y,1/2-z
1/2-x,1/2+y,1/2+z
1/2+x,-y,1/2+z
loop_
_atom_site_type_symbol
_atom_site_label
_atom_site_fract_x
_atom_site_fract_y
_atom_site_fract_z
Si Si1 0.500000 0.750000 0.126892
Si Si2 0.687662 0.400163 0.704998
Si Si3 0.432730 0.592791 0.679208
Si Si4 0.889225 0.750000 0.204814
Si Si5 0.500000 0.077021 0.913601
Si Si6 0.355627 0.000000 0.500000
Si Si7 0.066886 0.250000 0.059706
Si Si8 0.110819 0.995246 0.363447
O O1 0.443940 0.750000 0.209766
O O2 0.500000 0.832018 0.056543
O O3 0.750000 0.382589 0.750000
O O4 0.648906 0.325441 0.718502
O O5 0.680283 0.437948 0.574932
O O6 0.663149 0.463791 0.793011
O O7 0.500000 0.580688 0.672371
O O8 0.397861 0.537785 0.593838
O O9 0.418558 0.676174 0.634352
O O10 0.411245 0.574305 0.809380
O O11 0.908244 0.750000 0.069398
O O12 0.442372 0.061572 0.844533
O O13 0.500000 0.000000 0.000000
O O14 0.000000 0.250000 0.044037
O O15 0.122884 0.000000 0.500000
#
# Coordination Sequence:
#
# PCOD9536318 Si02
#       8
#     4  16  16   8   8   8   8  16
#     4  12  22  36  62  96 122 160 210 254 330 374
#     4  11  24  39  60  86 118 159 208 257 308 363
#     4  10  19  33  56  86 122 156 194 243 311 377
#     4  12  21  38  58  91 124 152 197 261 315 376
#     4  10  20  38  59  86 123 161 206 253 306 372
#     4  10  21  36  58  86 110 157 204 260 308 364
#     4  10  20  33  53  88 128 158 186 238 308 382
#     4  10  21  38  60  86 119 160 202 253 303 370
#
# _framework density 17.679539999999999
#
# number of rings (size 3 to 8) (size 9 to 14) (size 15 to 20)
#    0.000    1.524    5.238    0.571    1.333    0.000 
#    0.000    4.762    0.000    0.000    0.000    4.667 
#    0.000    0.000    0.000    0.000    0.000    0.000 
#
# Total GULP energy -233888.723755 kJ/mol
# GULP energy per Si atom -5568.779137 kJ/mol
# Density = 1.763930 g / cm^3
# Si number density = 17.679540 Si / 1000 Ang^3
#
#
#
# Elastic Constant Matrix: (Units=GPa)
#
#
# Indices 1 2 3 4 5 6 
#
# 1 55.8506 33.9953 22.4934 0.0000 0.0000 0.0000
# 2 33.9953 102.2276 34.0055 0.0000 0.0000 0.0000
# 3 22.4934 34.0055 98.5099 0.0000 0.0000 0.0000
# 4 0.0000 0.0000 0.0000 11.4805 0.0000 0.0000
# 5 0.0000 0.0000 0.0000 0.0000 19.3320 0.0000
# 6 0.0000 0.0000 0.0000 0.0000 0.0000 24.1199
#
#
#
# Elastic Compliance Matrix: (Units=1/GPa)
#
#
# Indices 1 2 3 4 5 6 
#
# 1 0.023196 -0.006724 -0.002975 0.000000 0.000000 0.000000
# 2 -0.006724 0.013000 -0.002952 0.000000 0.000000 0.000000
# 3 -0.002975 -0.002952 0.011850 0.000000 0.000000 0.000000
# 4 0.000000 0.000000 0.000000 0.087104 0.000000 0.000000
# 5 0.000000 0.000000 0.000000 0.000000 0.051728 0.000000
# 6 0.000000 0.000000 0.000000 0.000000 0.000000 0.041460
#
#
# Mechanical properties :
#
#
# Convention : Reuss Voigt Hill
#
# Bulk Modulus (GPa) = 43.97031 48.61961 46.29496
# Shear Modulus (GPa) = 19.14084 22.05941 20.60012
#
# Velocity S-wave (km/s) = 3.29394 3.53616 3.41720
# Velocity P-wave (km/s) = 6.27626 6.65077 6.46623
#
# Compressibility (1/GPa) = 0.02274262
#
# Stress axis : x y z
#
# Youngs Moduli (GPa) = 43.11093 76.92196 84.38968
#
# Poissons Ratio (x) = 0.51722 0.25109
# Poissons Ratio (y) = 0.28988 0.24915
# Poissons Ratio (z) = 0.12827 0.22710
#
# Static dielectric constant tensor:
#      x y z
#    x 1.600470 0.000000 0.000000 
#    y 0.000000 1.639850 0.000000 
#    z 0.000000 0.000000 1.631540 
# 
# From -- ./inp_files/23666.got.cif
#   From: 2010.05.17/outbox.cif.g08.bks.cpg/sg74_12_cif.got.tgz:23666.got - 2010.06.03 17:57:02.
