data_PCOD9536335
_publ_section_title
;
Structure prediction by ZEFSAII (Michael W. Deem and Ramdas Pophale) SiO2 
 PCOD9536335
Probable space group: I M M A
;
_chemical_formula_sum "Si O2"
_cell_formula_units_Z 72
_cell_length_a 25.578524
_cell_length_b 10.759153
_cell_length_c 14.164180
_cell_angle_alpha 90.000000
_cell_angle_beta 90.000000
_cell_angle_gamma 90.000000
_cell_volume 3898.028415
_symmetry_space_group_name_H-M "I M M A"
_symmetry_group_IT_number 74
_symmetry_cell_setting 'orthorhombic'
loop_
_space_group_symop_operation_xyz
x,y,z
-x,1/2-y,z
x,-y,-z
-x,1/2+y,-z
-x,-y,-z
x,1/2+y,-z
-x,y,z
x,1/2-y,z
1/2+x,1/2+y,1/2+z
1/2-x,-y,1/2+z
1/2+x,1/2-y,1/2-z
1/2-x,y,1/2-z
1/2-x,1/2-y,1/2-z
1/2+x,y,1/2-z
1/2-x,1/2+y,1/2+z
1/2+x,-y,1/2+z
loop_
_atom_site_type_symbol
_atom_site_label
_atom_site_fract_x
_atom_site_fract_y
_atom_site_fract_z
Si Si1 0.436539 0.750000 0.612384
Si Si2 0.594193 0.496419 0.714744
Si Si3 0.562016 0.250000 0.604284
Si Si4 0.195504 0.898033 0.305983
Si Si5 0.847555 0.000000 0.500000
Si Si6 0.441977 0.112490 0.104169
O O1 0.500000 0.750000 0.618857
O O2 0.415979 0.877213 0.658305
O O3 0.419320 0.750000 0.503328
O O4 0.578561 0.374988 0.657158
O O5 0.653444 0.475139 0.746211
O O6 0.562967 0.511813 0.813188
O O7 0.500000 0.250000 0.600468
O O8 0.183202 0.750000 0.306971
O O9 0.250000 0.912008 0.250000
O O10 0.187435 0.948340 0.413501
O O11 0.890831 0.901703 0.539190
O O12 0.500000 0.105432 0.059831
O O13 0.439260 0.250000 0.148078
#
# Coordination Sequence:
#
# PCOD9536335 Si02
#       6
#     8  16   8  16   8  16
#     4  11  22  38  59  87 131 169 199 256 316 360
#     4  11  21  38  60  88 121 165 212 252 308 376
#     4  11  22  36  57  89 125 165 215 256 302 368
#     4  10  22  44  65  88 123 165 205 264 322 357
#     4  10  21  36  64  90 120 156 209 254 300 374
#     4  10  19  33  57  87 124 159 190 240 310 374
#
# _framework density 18.470876000000001
#
# number of rings (size 3 to 8) (size 9 to 14) (size 15 to 20)
#    0.000    1.556    2.222    3.667    0.000    1.778 
#    4.000    0.556    0.000    0.000    0.000    0.000 
#    0.000    0.000    0.000    0.000    0.000    0.000 
#
# Total GULP energy -200585.186276 kJ/mol
# GULP energy per Si atom -5571.810730 kJ/mol
# Density = 1.842884 g / cm^3
# Si number density = 18.470876 Si / 1000 Ang^3
#
#
#
# Elastic Constant Matrix: (Units=GPa)
#
#
# Indices 1 2 3 4 5 6 
#
# 1 92.7529 44.7922 50.1935 0.0000 0.0000 0.0000
# 2 44.7922 140.6104 66.2165 0.0000 0.0000 0.0000
# 3 50.1935 66.2165 119.2458 0.0000 0.0000 0.0000
# 4 0.0000 0.0000 0.0000 44.8375 0.0000 0.0000
# 5 0.0000 0.0000 0.0000 0.0000 14.2477 0.0000
# 6 0.0000 0.0000 0.0000 0.0000 0.0000 35.1020
#
#
#
# Elastic Compliance Matrix: (Units=1/GPa)
#
#
# Indices 1 2 3 4 5 6 
#
# 1 0.014520 -0.002366 -0.004798 0.000000 0.000000 0.000000
# 2 -0.002366 0.010016 -0.004566 0.000000 0.000000 0.000000
# 3 -0.004798 -0.004566 0.012941 0.000000 0.000000 0.000000
# 4 0.000000 0.000000 0.000000 0.022303 0.000000 0.000000
# 5 0.000000 0.000000 0.000000 0.000000 0.070187 0.000000
# 6 0.000000 0.000000 0.000000 0.000000 0.000000 0.028488
#
#
# Mechanical properties :
#
#
# Convention : Reuss Voigt Hill
#
# Bulk Modulus (GPa) = 71.34030 75.00149 73.17090
# Shear Modulus (GPa) = 26.79710 31.59790 29.19750
#
# Velocity S-wave (km/s) = 3.81304 4.14053 3.98016
# Velocity P-wave (km/s) = 7.62185 7.97196 7.79887
#
# Compressibility (1/GPa) = 0.01401732
#
# Stress axis : x y z
#
# Youngs Moduli (GPa) = 68.86826 99.84366 77.27352
#
# Poissons Ratio (x) = 0.23623 0.37077
# Poissons Ratio (y) = 0.16294 0.35281
# Poissons Ratio (z) = 0.33044 0.45586
#
# Static dielectric constant tensor:
#      x y z
#    x 1.633830 0.000000 0.000000 
#    y 0.000000 1.630160 0.000000 
#    z 0.000000 0.000000 1.693690 
# 
# From -- ./inp_files/37085.got.cif
#   From: 2010.05.17/outbox.cif.g08.bks.cpg/sg74_19_cif.got.tgz:37085.got - 2010.06.03 17:57:02.
