data_PCOD9536189
_publ_section_title
;
Structure prediction by ZEFSAII (Michael W. Deem and Ramdas Pophale) SiO2 
 PCOD9536189
Probable space group: I M M A
;
_chemical_formula_sum "Si O2"
_cell_formula_units_Z 88
_cell_length_a 19.764744
_cell_length_b 7.535943
_cell_length_c 25.027925
_cell_angle_alpha 90.000000
_cell_angle_beta 90.000000
_cell_angle_gamma 90.000000
_cell_volume 3727.808921
_symmetry_space_group_name_H-M "I M M A"
_symmetry_group_IT_number 74
_symmetry_cell_setting 'orthorhombic'
loop_
_space_group_symop_operation_xyz
x,y,z
-x,1/2-y,z
x,-y,-z
-x,1/2+y,-z
-x,-y,-z
x,1/2+y,-z
-x,y,z
x,1/2-y,z
1/2+x,1/2+y,1/2+z
1/2-x,-y,1/2+z
1/2+x,1/2-y,1/2-z
1/2-x,y,1/2-z
1/2-x,1/2-y,1/2-z
1/2+x,y,1/2-z
1/2-x,1/2+y,1/2+z
1/2+x,-y,1/2+z
loop_
_atom_site_type_symbol
_atom_site_label
_atom_site_fract_x
_atom_site_fract_y
_atom_site_fract_z
Si Si1 0.712174 0.033040 0.834339
Si Si2 0.577057 0.460132 0.440689
Si Si3 0.500000 0.962308 0.063556
Si Si4 0.639683 0.959612 0.327708
Si Si5 0.073883 0.533302 0.276984
Si Si6 0.147461 0.462236 0.561957
O O1 0.713167 0.250000 0.830406
O O2 0.785228 0.968683 0.815490
O O3 0.643105 0.976224 0.805687
O O4 0.703451 0.979707 0.896310
O O5 0.604825 0.500000 0.500000
O O6 0.500000 0.534318 0.438292
O O7 0.572632 0.250000 0.436714
O O8 0.618798 0.518870 0.389122
O O9 0.500000 0.750000 0.073455
O O10 0.573374 0.031379 0.080325
O O11 0.500000 0.000000 0.000000
O O12 0.643996 0.750000 0.317951
O O13 0.584690 0.022033 0.284804
O O14 0.072467 0.750000 0.281436
O O15 0.000000 0.473384 0.296824
O O16 0.159412 0.500000 0.500000
O O17 0.143477 0.250000 0.566214
#
# Coordination Sequence:
#
# PCOD9536189 Si02
#       6
#    16  16   8  16  16  16
#     4   9  18  30  47  73 106 140 176 221 269 317
#     4  10  21  37  58  84 112 143 179 219 261 311
#     4   8  14  24  40  60  82 114 156 200 243 288
#     4  10  19  33  53  79 111 143 175 217 271 325
#     4   9  17  29  50  78 104 135 180 230 273 315
#     4   9  17  29  45  66  93 127 165 207 255 304
#
# _framework density 23.606361
#
# number of rings (size 3 to 8) (size 9 to 14) (size 15 to 20)
#    0.000    2.727    0.000    1.636    1.273    4.727 
#    0.000    2.727    0.000    3.273    0.000    0.000 
#    0.000    0.000    0.000    0.000    0.000    0.000 
#
# Total GULP energy -245493.619546 kJ/mol
# GULP energy per Si atom -5579.400444 kJ/mol
# Density = 2.355263 g / cm^3
# Si number density = 23.606361 Si / 1000 Ang^3
#
#
#
# Elastic Constant Matrix: (Units=GPa)
#
#
# Indices 1 2 3 4 5 6 
#
# 1 124.7805 4.5176 46.7263 0.0000 0.0000 0.0000
# 2 4.5176 54.1078 -11.3660 0.0000 0.0000 0.0000
# 3 46.7263 -11.3660 95.0897 0.0000 0.0000 0.0000
# 4 0.0000 0.0000 0.0000 10.8686 0.0000 0.0000
# 5 0.0000 0.0000 0.0000 0.0000 37.0479 0.0000
# 6 0.0000 0.0000 0.0000 0.0000 0.0000 -12.1160
#
#
#
# Elastic Compliance Matrix: (Units=1/GPa)
#
#
# Indices 1 2 3 4 5 6 
#
# 1 0.010012 -0.001917 -0.005149 0.000000 0.000000 0.000000
# 2 -0.001917 0.019325 0.003252 0.000000 0.000000 0.000000
# 3 -0.005149 0.003252 0.013435 0.000000 0.000000 0.000000
# 4 0.000000 0.000000 0.000000 0.092008 0.000000 0.000000
# 5 0.000000 0.000000 0.000000 0.000000 0.026992 0.000000
# 6 0.000000 0.000000 0.000000 0.000000 0.000000 -0.082535
#
#
# Mechanical properties :
#
#
# Convention : Reuss Voigt Hill
#
# Bulk Modulus (GPa) = 28.45492 39.30377 33.87935
# Shear Modulus (GPa) = 50.72076 22.76677 36.74377
#
# Velocity S-wave (km/s) = 4.64033 3.10890 3.94956
# Velocity P-wave (km/s) = 6.38673 5.43809 5.93141
#
# Compressibility (1/GPa) = 0.03514330
#
# Stress axis : x y z
#
# Youngs Moduli (GPa) = 99.88472 51.74684 74.43150
#
# Poissons Ratio (x) = 0.09922 0.38323
# Poissons Ratio (y) = 0.19152 -0.24206
# Poissons Ratio (z) = 0.51428 -0.16829
#
# Static dielectric constant tensor:
#      x y z
#    x 1.903830 0.000000 0.000000 
#    y 0.000000 1.896680 0.000000 
#    z 0.000000 0.000000 1.935290 
# 
# From -- ./inp_files/61424.got.cif
#   From: 2010.05.17/outbox.cif.g08.bks.cpg/sg74_31_cif.got.tgz:61424.got - 2010.06.03 17:57:02.
