data_PCOD9536010
_publ_section_title
;
Structure prediction by ZEFSAII (Michael W. Deem and Ramdas Pophale) SiO2 
 PCOD9536010
Probable space group: I M M A
;
_chemical_formula_sum "Si O2"
_cell_formula_units_Z 96
_cell_length_a 26.502120
_cell_length_b 8.817896
_cell_length_c 20.724094
_cell_angle_alpha 90.000000
_cell_angle_beta 90.000000
_cell_angle_gamma 90.000000
_cell_volume 4843.074413
_symmetry_space_group_name_H-M "I M M A"
_symmetry_group_IT_number 74
_symmetry_cell_setting 'orthorhombic'
loop_
_space_group_symop_operation_xyz
x,y,z
-x,1/2-y,z
x,-y,-z
-x,1/2+y,-z
-x,-y,-z
x,1/2+y,-z
-x,y,z
x,1/2-y,z
1/2+x,1/2+y,1/2+z
1/2-x,-y,1/2+z
1/2+x,1/2-y,1/2-z
1/2-x,y,1/2-z
1/2-x,1/2-y,1/2-z
1/2+x,y,1/2-z
1/2-x,1/2+y,1/2+z
1/2+x,-y,1/2+z
loop_
_atom_site_type_symbol
_atom_site_label
_atom_site_fract_x
_atom_site_fract_y
_atom_site_fract_z
Si Si1 0.558800 0.071963 0.188393
Si Si2 0.699357 0.585715 0.210819
Si Si3 0.384647 0.571805 0.065467
Si Si4 0.162577 0.432580 0.069549
Si Si5 0.893200 0.574483 0.191544
Si Si6 0.280420 0.423754 0.090154
O O1 0.500000 0.053728 0.171638
O O2 0.571757 0.250000 0.188695
O O3 0.591666 0.992108 0.132139
O O4 0.567245 0.007117 0.260814
O O5 0.692433 0.750000 0.175890
O O6 0.750000 0.597368 0.250000
O O7 0.655080 0.572031 0.261399
O O8 0.707052 0.442463 0.165516
O O9 0.391902 0.750000 0.063494
O O10 0.325301 0.527824 0.063860
O O11 0.407288 0.500000 0.000000
O O12 0.160295 0.250000 0.069553
O O13 0.126302 0.496440 0.125853
O O14 0.222305 0.474028 0.080213
O O15 0.148298 0.500000 0.000000
O O16 0.907235 0.750000 0.179243
O O17 0.285479 0.250000 0.068386
#
# Coordination Sequence:
#
# PCOD9536010 Si02
#       6
#    16  16  16  16  16  16
#     4  11  25  45  68  93 120 152 197 253 309 366
#     4  10  19  32  53  83 118 158 200 243 292 348
#     4  12  25  41  62  88 123 165 207 252 301 356
#     4  11  24  39  58  88 126 168 209 251 299 359
#     4  11  22  38  63  91 121 159 201 251 306 363
#     4  11  22  35  56  86 123 166 208 248 290 346
#
# _framework density 19.822120999999999
#
# number of rings (size 3 to 8) (size 9 to 14) (size 15 to 20)
#    0.000    1.000    3.333    4.000    0.000    6.000 
#    0.000    0.000    0.000    0.500    0.000    0.000 
#    0.000    0.000    0.000    0.000    0.000    0.000 
#
# Total GULP energy -267750.592079 kJ/mol
# GULP energy per Si atom -5578.137335 kJ/mol
# Density = 1.977701 g / cm^3
# Si number density = 19.822121 Si / 1000 Ang^3
#
#
#
# Elastic Constant Matrix: (Units=GPa)
#
#
# Indices 1 2 3 4 5 6 
#
# 1 47.3319 37.6370 33.5385 0.0000 0.0000 0.0000
# 2 37.6370 131.2085 72.1732 0.0000 0.0000 0.0000
# 3 33.5385 72.1732 147.8096 0.0000 0.0000 0.0000
# 4 0.0000 0.0000 0.0000 34.7631 0.0000 0.0000
# 5 0.0000 0.0000 0.0000 0.0000 9.9685 0.0000
# 6 0.0000 0.0000 0.0000 0.0000 0.0000 15.1553
#
#
#
# Elastic Compliance Matrix: (Units=1/GPa)
#
#
# Indices 1 2 3 4 5 6 
#
# 1 0.028562 -0.006328 -0.003391 0.000000 0.000000 0.000000
# 2 -0.006328 0.011822 -0.004337 0.000000 0.000000 0.000000
# 3 -0.003391 -0.004337 0.009652 0.000000 0.000000 0.000000
# 4 0.000000 0.000000 0.000000 0.028766 0.000000 0.000000
# 5 0.000000 0.000000 0.000000 0.000000 0.100316 0.000000
# 6 0.000000 0.000000 0.000000 0.000000 0.000000 0.065984
#
#
# Mechanical properties :
#
#
# Convention : Reuss Voigt Hill
#
# Bulk Modulus (GPa) = 45.60918 68.11639 56.86279
# Shear Modulus (GPa) = 17.82392 24.17745 21.00068
#
# Velocity S-wave (km/s) = 3.00191 3.49624 3.25846
# Velocity P-wave (km/s) = 5.92237 7.12297 6.55023
#
# Compressibility (1/GPa) = 0.02192541
#
# Stress axis : x y z
#
# Youngs Moduli (GPa) = 35.01176 84.58782 103.60027
#
# Poissons Ratio (x) = 0.53524 0.35132
# Poissons Ratio (y) = 0.22154 0.44929
# Poissons Ratio (z) = 0.11873 0.36684
#
# Static dielectric constant tensor:
#      x y z
#    x 1.641970 0.000000 0.000000 
#    y 0.000000 1.746120 0.000000 
#    z 0.000000 0.000000 1.741610 
# 
# From -- ./inp_files/55102.got.cif
#   From: 2010.05.17/outbox.cif.g08.bks.cpg/sg74_28_cif.got.tgz:55102.got - 2010.06.03 17:57:02.
