data_PCOD9536636
_publ_section_title
;
Structure prediction by ZEFSAII (Michael W. Deem and Ramdas Pophale) SiO2 
 PCOD9536636
Probable space group: I M M A
;
_chemical_formula_sum "Si O2"
_cell_formula_units_Z 88
_cell_length_a 20.988705
_cell_length_b 27.323034
_cell_length_c 7.006619
_cell_angle_alpha 90.000000
_cell_angle_beta 90.000000
_cell_angle_gamma 90.000000
_cell_volume 4018.121534
_symmetry_space_group_name_H-M "I M M A"
_symmetry_group_IT_number 74
_symmetry_cell_setting 'orthorhombic'
loop_
_space_group_symop_operation_xyz
x,y,z
-x,1/2-y,z
x,-y,-z
-x,1/2+y,-z
-x,-y,-z
x,1/2+y,-z
-x,y,z
x,1/2-y,z
1/2+x,1/2+y,1/2+z
1/2-x,-y,1/2+z
1/2+x,1/2-y,1/2-z
1/2-x,y,1/2-z
1/2-x,1/2-y,1/2-z
1/2+x,y,1/2-z
1/2-x,1/2+y,1/2+z
1/2+x,-y,1/2+z
loop_
_atom_site_type_symbol
_atom_site_label
_atom_site_fract_x
_atom_site_fract_y
_atom_site_fract_z
Si Si1 0.877918 0.619547 0.901211
Si Si2 0.500000 0.588881 0.006235
Si Si3 0.126908 0.304645 0.791429
Si Si4 0.000000 0.801921 0.462522
Si Si5 0.858973 0.394683 0.552184
Si Si6 0.500000 0.552359 0.602522
Si Si7 0.235938 0.945420 0.972798
O O1 0.865791 0.618697 0.673688
O O2 0.938262 0.585087 0.941258
O O3 0.818155 0.594159 0.004615
O O4 0.884585 0.672152 0.000123
O O5 0.569332 0.586828 0.107922
O O6 0.500000 0.550125 0.834592
O O7 0.500000 0.646048 0.929305
O O8 0.154251 0.250000 0.799082
O O9 0.161365 0.345643 0.662914
O O10 0.060432 0.302096 0.676501
O O11 0.000000 0.750000 0.572293
O O12 0.803187 0.434517 0.574037
O O13 0.500000 0.500000 0.500000
O O14 0.250000 0.941399 0.750000
O O15 0.211936 0.000000 0.000000
#
# Coordination Sequence:
#
# PCOD9536636 Si02
#       7
#    16   8  16   8  16   8  16
#     4  10  21  37  58  83 116 148 189 235 282 342
#     4   8  16  34  55  78 114 144 184 231 278 331
#     4  10  20  35  60  87 115 152 190 234 290 340
#     4   8  15  31  55  84 115 147 186 233 284 339
#     4   9  20  38  56  81 117 146 187 235 278 337
#     4  10  19  35  57  81 114 152 190 238 287 330
#     4  10  22  38  58  81 110 150 191 233 283 338
#
# _framework density 21.900783000000001
#
# number of rings (size 3 to 8) (size 9 to 14) (size 15 to 20)
#    0.000    2.545    0.000    1.091    2.545    0.727 
#    0.000    5.000    0.000    6.545    0.000    0.000 
#    0.000    0.000    0.000    0.000    0.000    0.000 
#
# Total GULP energy -245322.769871 kJ/mol
# GULP energy per Si atom -5575.517497 kJ/mol
# Density = 2.185094 g / cm^3
# Si number density = 21.900783 Si / 1000 Ang^3
#
#
#
# Elastic Constant Matrix: (Units=GPa)
#
#
# Indices 1 2 3 4 5 6 
#
# 1 75.3413 10.8276 -4.3761 0.0000 0.0000 0.0000
# 2 10.8276 100.1778 30.3408 0.0000 0.0000 0.0000
# 3 -4.3761 30.3408 86.6839 0.0000 0.0000 0.0000
# 4 0.0000 0.0000 0.0000 36.2685 0.0000 0.0000
# 5 0.0000 0.0000 0.0000 0.0000 -4.4701 0.0000
# 6 0.0000 0.0000 0.0000 0.0000 0.0000 23.3628
#
#
#
# Elastic Compliance Matrix: (Units=1/GPa)
#
#
# Indices 1 2 3 4 5 6 
#
# 1 0.013621 -0.001880 0.001346 0.000000 0.000000 0.000000
# 2 -0.001880 0.011425 -0.004094 0.000000 0.000000 0.000000
# 3 0.001346 -0.004094 0.013037 0.000000 0.000000 0.000000
# 4 0.000000 0.000000 0.000000 0.027572 0.000000 0.000000
# 5 0.000000 0.000000 0.000000 0.000000 -0.223709 0.000000
# 6 0.000000 0.000000 0.000000 0.000000 0.000000 0.042803
#
#
# Mechanical properties :
#
#
# Convention : Reuss Voigt Hill
#
# Bulk Modulus (GPa) = 34.68924 37.30973 35.99949
# Shear Modulus (GPa) = -51.87548 26.05963 -12.90793
#
# Velocity S-wave (km/s) = -4.87217 3.45323 -2.43035
# Velocity P-wave (km/s) = 3.97203 5.74217 2.93219
#
# Compressibility (1/GPa) = 0.02882738
#
# Stress axis : x y z
#
# Youngs Moduli (GPa) = 73.41469 87.52459 76.70451
#
# Poissons Ratio (x) = 0.16453 -0.10321
# Poissons Ratio (y) = 0.13800 0.31403
# Poissons Ratio (z) = -0.09879 0.35832
#
# Static dielectric constant tensor:
#      x y z
#    x 1.836850 0.000000 0.000000 
#    y 0.000000 2.025130 0.000000 
#    z 0.000000 0.000000 1.840680 
# 
# From -- ./inp_files/12497.got.cif
#   From: 2010.05.17/outbox.cif.g08.bks.cpg/sg74_7_cif.got.tgz:12497.got - 2010.06.03 17:57:02.
