data_PCOD9536664
_publ_section_title
;
Structure prediction by ZEFSAII (Michael W. Deem and Ramdas Pophale) SiO2 
 PCOD9536664
Probable space group: I M M A
;
_chemical_formula_sum "Si O2"
_cell_formula_units_Z 112
_cell_length_a 18.547070
_cell_length_b 17.779400
_cell_length_c 17.655633
_cell_angle_alpha 90.000000
_cell_angle_beta 90.000000
_cell_angle_gamma 90.000000
_cell_volume 5822.046967
_symmetry_space_group_name_H-M "I M M A"
_symmetry_group_IT_number 74
_symmetry_cell_setting 'orthorhombic'
loop_
_space_group_symop_operation_xyz
x,y,z
-x,1/2-y,z
x,-y,-z
-x,1/2+y,-z
-x,-y,-z
x,1/2+y,-z
-x,y,z
x,1/2-y,z
1/2+x,1/2+y,1/2+z
1/2-x,-y,1/2+z
1/2+x,1/2-y,1/2-z
1/2-x,y,1/2-z
1/2-x,1/2-y,1/2-z
1/2+x,y,1/2-z
1/2-x,1/2+y,1/2+z
1/2+x,-y,1/2+z
loop_
_atom_site_type_symbol
_atom_site_label
_atom_site_fract_x
_atom_site_fract_y
_atom_site_fract_z
Si Si1 0.819527 0.664700 0.303238
Si Si2 0.917852 0.052706 0.260813
Si Si3 0.271924 0.434122 0.166733
Si Si4 0.084308 0.108396 0.820170
Si Si5 0.296018 0.557560 0.060616
Si Si6 0.333745 0.340281 0.529428
Si Si7 0.359083 0.337542 0.362663
O O1 0.807228 0.750000 0.331305
O O2 0.750000 0.644689 0.250000
O O3 0.885558 0.662003 0.245472
O O4 0.832629 0.606465 0.372191
O O5 0.858489 0.068490 0.326131
O O6 0.904912 0.115312 0.196713
O O7 0.000000 0.052731 0.288472
O O8 0.904538 0.974200 0.216629
O O9 0.250000 0.460415 0.250000
O O10 0.249335 0.496793 0.107199
O O11 0.224784 0.360432 0.152007
O O12 0.127194 0.126247 0.896986
O O13 0.000000 0.118525 0.834394
O O14 0.243392 0.618318 0.022919
O O15 0.333188 0.500000 0.000000
O O16 0.326174 0.250000 0.537397
O O17 0.374677 0.354964 0.450500
O O18 0.369120 0.250000 0.350117
#
# Coordination Sequence:
#
# PCOD9536664 Si02
#       7
#    16  16  16  16  16  16  16
#     4  11  22  37  61  89 118 154 200 249 296 351
#     4  10  22  38  58  81 113 157 199 240 290 352
#     4  10  19  35  59  82 111 145 192 245 286 335
#     4  11  23  38  59  87 121 157 192 235 295 362
#     4  12  21  34  59  87 115 150 190 237 297 347
#     4  11  22  35  54  86 122 151 188 235 291 359
#     4  10  22  37  56  86 119 152 195 245 292 342
#
# _framework density 19.237221000000002
#
# number of rings (size 3 to 8) (size 9 to 14) (size 15 to 20)
#    0.000    1.286    4.286    3.000    0.000    4.571 
#    0.000    2.857    0.000    1.714    0.000    0.000 
#    0.000    0.000    0.000    0.000    0.000    0.000 
#
# Total GULP energy -312024.872668 kJ/mol
# GULP energy per Si atom -5571.872726 kJ/mol
# Density = 1.919344 g / cm^3
# Si number density = 19.237221 Si / 1000 Ang^3
#
#
#
# Elastic Constant Matrix: (Units=GPa)
#
#
# Indices 1 2 3 4 5 6 
#
# 1 63.3391 6.3600 6.5309 0.0000 0.0000 0.0000
# 2 6.3600 75.2545 32.1450 0.0000 0.0000 0.0000
# 3 6.5309 32.1450 69.4538 0.0000 0.0000 0.0000
# 4 0.0000 0.0000 0.0000 30.4993 0.0000 0.0000
# 5 0.0000 0.0000 0.0000 0.0000 11.2153 0.0000
# 6 0.0000 0.0000 0.0000 0.0000 0.0000 5.5903
#
#
#
# Elastic Compliance Matrix: (Units=1/GPa)
#
#
# Indices 1 2 3 4 5 6 
#
# 1 0.015990 -0.000884 -0.001094 0.000000 0.000000 0.000000
# 2 -0.000884 0.016611 -0.007605 0.000000 0.000000 0.000000
# 3 -0.001094 -0.007605 0.018021 0.000000 0.000000 0.000000
# 4 0.000000 0.000000 0.000000 0.032788 0.000000 0.000000
# 5 0.000000 0.000000 0.000000 0.000000 0.089164 0.000000
# 6 0.000000 0.000000 0.000000 0.000000 0.000000 0.178880
#
#
# Mechanical properties :
#
#
# Convention : Reuss Voigt Hill
#
# Bulk Modulus (GPa) = 31.79137 33.12437 32.45787
# Shear Modulus (GPa) = 13.11973 20.32842 16.72407
#
# Velocity S-wave (km/s) = 2.61434 3.25425 2.95169
# Velocity P-wave (km/s) = 5.06704 5.60147 5.34095
#
# Compressibility (1/GPa) = 0.03145508
#
# Stress axis : x y z
#
# Youngs Moduli (GPa) = 62.54055 60.19938 55.49136
#
# Poissons Ratio (x) = 0.05321 0.06073
# Poissons Ratio (y) = 0.05528 0.42202
# Poissons Ratio (z) = 0.06845 0.45782
#
# Static dielectric constant tensor:
#      x y z
#    x 1.701330 0.000000 0.000000 
#    y 0.000000 1.686010 0.000000 
#    z 0.000000 0.000000 1.711290 
# 
# From -- ./inp_files/45439.got.cif
#   From: 2010.05.17/outbox.cif.g08.bks.cpg/sg74_23_cif.got.tgz:45439.got - 2010.06.03 17:57:02.
