data_PCOD9536439
_publ_section_title
;
Structure prediction by ZEFSAII (Michael W. Deem and Ramdas Pophale) SiO2 
 PCOD9536439
Probable space group: I M M A
;
_chemical_formula_sum "Si O2"
_cell_formula_units_Z 88
_cell_length_a 23.349096
_cell_length_b 7.808089
_cell_length_c 23.424025
_cell_angle_alpha 90.000000
_cell_angle_beta 90.000000
_cell_angle_gamma 90.000000
_cell_volume 4270.476621
_symmetry_space_group_name_H-M "I M M A"
_symmetry_group_IT_number 74
_symmetry_cell_setting 'orthorhombic'
loop_
_space_group_symop_operation_xyz
x,y,z
-x,1/2-y,z
x,-y,-z
-x,1/2+y,-z
-x,-y,-z
x,1/2+y,-z
-x,y,z
x,1/2-y,z
1/2+x,1/2+y,1/2+z
1/2-x,-y,1/2+z
1/2+x,1/2-y,1/2-z
1/2-x,y,1/2-z
1/2-x,1/2-y,1/2-z
1/2+x,y,1/2-z
1/2-x,1/2+y,1/2+z
1/2+x,-y,1/2+z
loop_
_atom_site_type_symbol
_atom_site_label
_atom_site_fract_x
_atom_site_fract_y
_atom_site_fract_z
Si Si1 0.224999 0.948798 0.062574
Si Si2 0.815181 0.041869 0.236690
Si Si3 0.562085 0.543763 0.933785
Si Si4 0.000000 0.542502 0.932490
Si Si5 0.667824 0.543230 0.862392
Si Si6 0.882947 0.948044 0.874322
O O1 0.211158 0.750000 0.061873
O O2 0.272377 0.982713 0.110958
O O3 0.166603 0.045360 0.077890
O O4 0.247377 0.000000 0.000000
O O5 0.810988 0.250000 0.229525
O O6 0.750000 0.982942 0.250000
O O7 0.844381 0.001143 0.296835
O O8 0.850996 0.976919 0.182155
O O9 0.500000 0.481567 0.913336
O O10 0.562572 0.750000 0.928246
O O11 0.616277 0.475455 0.900452
O O12 0.567014 0.500000 0.000000
O O13 0.057865 0.480036 0.900116
O O14 0.000000 0.750000 0.929981
O O15 0.000000 0.500000 0.000000
O O16 0.670691 0.750000 0.865548
O O17 0.895461 0.750000 0.860066
#
# Coordination Sequence:
#
# PCOD9536439 Si02
#       6
#    16  16  16   8  16  16
#     4  12  24  36  54  82 111 142 182 231 283 336
#     4   9  16  31  57  81 108 145 178 218 272 329
#     4   9  18  32  50  74 104 138 177 219 265 318
#     4  10  22  38  60  86 114 150 193 242 285 340
#     4  10  19  34  55  79 110 146 182 223 274 330
#     4  10  20  38  59  83 114 148 189 230 282 338
#
# _framework density 20.606598000000002
#
# number of rings (size 3 to 8) (size 9 to 14) (size 15 to 20)
#    0.000    2.000    1.818    2.727    0.000    4.364 
#    1.636    1.818    0.000    0.000    0.000    0.000 
#    0.000    0.000    0.000    0.000    0.000    0.000 
#
# Total GULP energy -245415.089790 kJ/mol
# GULP energy per Si atom -5577.615677 kJ/mol
# Density = 2.055970 g / cm^3
# Si number density = 20.606598 Si / 1000 Ang^3
#
#
#
# Elastic Constant Matrix: (Units=GPa)
#
#
# Indices 1 2 3 4 5 6 
#
# 1 155.7522 5.9889 63.1685 0.0000 0.0000 0.0000
# 2 5.9889 31.3866 4.7919 0.0000 0.0000 0.0000
# 3 63.1685 4.7919 114.9015 0.0000 0.0000 0.0000
# 4 0.0000 0.0000 0.0000 14.7167 0.0000 0.0000
# 5 0.0000 0.0000 0.0000 0.0000 26.5650 0.0000
# 6 0.0000 0.0000 0.0000 0.0000 0.0000 10.2211
#
#
#
# Elastic Compliance Matrix: (Units=1/GPa)
#
#
# Indices 1 2 3 4 5 6 
#
# 1 0.008287 -0.000891 -0.004519 0.000000 0.000000 0.000000
# 2 -0.000891 0.032161 -0.000851 0.000000 0.000000 0.000000
# 3 -0.004519 -0.000851 0.011223 0.000000 0.000000 0.000000
# 4 0.000000 0.000000 0.000000 0.067950 0.000000 0.000000
# 5 0.000000 0.000000 0.000000 0.000000 0.037643 0.000000
# 6 0.000000 0.000000 0.000000 0.000000 0.000000 0.097837
#
#
# Mechanical properties :
#
#
# Convention : Reuss Voigt Hill
#
# Bulk Modulus (GPa) = 25.54404 49.99321 37.76862
# Shear Modulus (GPa) = 17.81427 25.50665 21.66046
#
# Velocity S-wave (km/s) = 2.94342 3.52204 3.24565
# Velocity P-wave (km/s) = 4.89638 6.39165 5.69332
#
# Compressibility (1/GPa) = 0.03914808
#
# Stress axis : x y z
#
# Youngs Moduli (GPa) = 120.66375 31.09383 89.10299
#
# Poissons Ratio (x) = 0.02772 0.40265
# Poissons Ratio (y) = 0.10756 0.07584
# Poissons Ratio (z) = 0.54528 0.02647
#
# Static dielectric constant tensor:
#      x y z
#    x 1.748890 0.000000 0.000000 
#    y 0.000000 1.771200 0.000000 
#    z 0.000000 0.000000 1.750550 
# 
# From -- ./inp_files/54504.got.cif
#   From: 2010.05.17/outbox.cif.g08.bks.cpg/sg74_28_cif.got.tgz:54504.got - 2010.06.03 17:57:02.
