data_PCOD9536352
_publ_section_title
;
Structure prediction by ZEFSAII (Michael W. Deem and Ramdas Pophale) SiO2 
 PCOD9536352
Probable space group: I M M A
;
_chemical_formula_sum "Si O2"
_cell_formula_units_Z 64
_cell_length_a 13.731251
_cell_length_b 18.694356
_cell_length_c 13.113460
_cell_angle_alpha 90.000000
_cell_angle_beta 90.000000
_cell_angle_gamma 90.000000
_cell_volume 3366.184458
_symmetry_space_group_name_H-M "I M M A"
_symmetry_group_IT_number 74
_symmetry_cell_setting 'orthorhombic'
loop_
_space_group_symop_operation_xyz
x,y,z
-x,1/2-y,z
x,-y,-z
-x,1/2+y,-z
-x,-y,-z
x,1/2+y,-z
-x,y,z
x,1/2-y,z
1/2+x,1/2+y,1/2+z
1/2-x,-y,1/2+z
1/2+x,1/2-y,1/2-z
1/2-x,y,1/2-z
1/2-x,1/2-y,1/2-z
1/2+x,y,1/2-z
1/2-x,1/2+y,1/2+z
1/2+x,-y,1/2+z
loop_
_atom_site_type_symbol
_atom_site_label
_atom_site_fract_x
_atom_site_fract_y
_atom_site_fract_z
Si Si1 0.292686 0.166435 0.136236
Si Si2 0.500000 0.928072 0.139008
Si Si3 0.363591 0.167935 0.730930
Si Si4 0.607523 0.836442 0.508023
Si Si5 0.000000 0.908176 0.603788
O O1 0.307272 0.250000 0.108941
O O2 0.250000 0.162689 0.250000
O O3 0.398270 0.130020 0.131503
O O4 0.205558 0.136875 0.063724
O O5 0.410941 0.888477 0.193493
O O6 0.500000 0.012921 0.152276
O O7 0.500000 0.914308 0.018779
O O8 0.395877 0.250000 0.750191
O O9 0.250000 0.166893 0.750000
O O10 0.385792 0.150833 0.613064
O O11 0.500000 0.861907 0.544446
O O12 0.607872 0.750000 0.522453
#
# Coordination Sequence:
#
# PCOD9536352 Si02
#       5
#    16   8  16  16   8
#     4  10  22  39  63  88 114 155 204 255 301 345
#     4  11  23  39  58  83 122 166 191 235 300 361
#     4  10  19  33  60  94 123 153 192 243 304 366
#     4   9  17  32  57  92 124 145 185 251 310 358
#     4  11  25  41  56  83 120 162 205 243 288 361
#
# _framework density 19.012623000000001
#
# number of rings (size 3 to 8) (size 9 to 14) (size 15 to 20)
#    0.000    2.000    1.250    2.250    1.750    5.000 
#    0.000    0.000    0.000    1.500    0.000    0.000 
#    0.000    0.000    0.000    0.000    0.000    0.000 
#
# Total GULP energy -178451.498068 kJ/mol
# GULP energy per Si atom -5576.609315 kJ/mol
# Density = 1.896935 g / cm^3
# Si number density = 19.012623 Si / 1000 Ang^3
#
#
#
# Elastic Constant Matrix: (Units=GPa)
#
#
# Indices 1 2 3 4 5 6 
#
# 1 213.8835 73.3457 45.4544 0.0000 0.0000 0.0000
# 2 73.3457 89.4989 46.4978 0.0000 0.0000 0.0000
# 3 45.4544 46.4978 47.5529 0.0000 0.0000 0.0000
# 4 0.0000 0.0000 0.0000 21.6293 0.0000 0.0000
# 5 0.0000 0.0000 0.0000 0.0000 36.5850 0.0000
# 6 0.0000 0.0000 0.0000 0.0000 0.0000 -73.3283
#
#
#
# Elastic Compliance Matrix: (Units=1/GPa)
#
#
# Indices 1 2 3 4 5 6 
#
# 1 0.006602 -0.004333 -0.002074 0.000000 0.000000 0.000000
# 2 -0.004333 0.025554 -0.020845 0.000000 0.000000 0.000000
# 3 -0.002074 -0.020845 0.043394 0.000000 0.000000 0.000000
# 4 0.000000 0.000000 0.000000 0.046234 0.000000 0.000000
# 5 0.000000 0.000000 0.000000 0.000000 0.027334 0.000000
# 6 0.000000 0.000000 0.000000 0.000000 0.000000 -0.013637
#
#
# Mechanical properties :
#
#
# Convention : Reuss Voigt Hill
#
# Bulk Modulus (GPa) = 47.51455 75.72567 61.62011
# Shear Modulus (GPa) = 25.38062 9.35301 17.36682
#
# Velocity S-wave (km/s) = 3.65764 2.22037 3.02559
# Velocity P-wave (km/s) = 6.54852 6.81829 6.68476
#
# Compressibility (1/GPa) = 0.02104618
#
# Stress axis : x y z
#
# Youngs Moduli (GPa) = 151.46727 39.13239 23.04446
#
# Poissons Ratio (x) = 0.16956 0.04779
# Poissons Ratio (y) = 0.65632 0.48037
# Poissons Ratio (z) = 0.31411 0.81573
#
# Static dielectric constant tensor:
#      x y z
#    x 1.678480 0.000000 0.000000 
#    y 0.000000 1.641500 0.000000 
#    z 0.000000 0.000000 1.650700 
# 
# From -- ./inp_files/19999.got.cif
#   From: 2010.05.17/outbox.cif.g08.bks.cpg/sg74_10_cif.got.tgz:19999.got - 2010.06.03 17:57:02.
