data_PCOD9536849
_publ_section_title
;
Structure prediction by ZEFSAII (Michael W. Deem and Ramdas Pophale) SiO2 
 PCOD9536849
Probable space group: I M M A
;
_chemical_formula_sum "Si O2"
_cell_formula_units_Z 64
_cell_length_a 10.718221
_cell_length_b 14.408717
_cell_length_c 19.769616
_cell_angle_alpha 90.000000
_cell_angle_beta 90.000000
_cell_angle_gamma 90.000000
_cell_volume 3053.136722
_symmetry_space_group_name_H-M "I M M A"
_symmetry_group_IT_number 74
_symmetry_cell_setting 'orthorhombic'
loop_
_space_group_symop_operation_xyz
x,y,z
-x,1/2-y,z
x,-y,-z
-x,1/2+y,-z
-x,-y,-z
x,1/2+y,-z
-x,y,z
x,1/2-y,z
1/2+x,1/2+y,1/2+z
1/2-x,-y,1/2+z
1/2+x,1/2-y,1/2-z
1/2-x,y,1/2-z
1/2-x,1/2-y,1/2-z
1/2+x,y,1/2-z
1/2-x,1/2+y,1/2+z
1/2+x,-y,1/2+z
loop_
_atom_site_type_symbol
_atom_site_label
_atom_site_fract_x
_atom_site_fract_y
_atom_site_fract_z
Si Si1 0.000000 0.640029 0.385267
Si Si2 0.250000 0.452436 0.250000
Si Si3 0.643778 0.138125 0.117204
Si Si4 0.500000 0.141135 0.585676
Si Si5 0.500000 0.571347 0.265556
Si Si6 0.762335 0.364020 0.530198
O O1 0.874267 0.604023 0.420734
O O2 0.000000 0.750000 0.398154
O O3 0.000000 0.624397 0.305597
O O4 0.283235 0.394295 0.183255
O O5 0.373158 0.512037 0.265639
O O6 0.500000 0.104787 0.120347
O O7 0.640312 0.250000 0.116695
O O8 0.705636 0.109326 0.046439
O O9 0.500000 0.250000 0.568623
O O10 0.500000 0.130944 0.666384
O O11 0.371854 0.101994 0.555322
O O12 0.760993 0.250000 0.532717
#
# Coordination Sequence:
#
# PCOD9536849 Si02
#       6
#     8   8  16   8   8  16
#     4  10  19  37  64  89 112 159 211 242 282 346
#     4  12  25  42  57  90 124 160 194 238 299 356
#     4  10  20  41  68  90 114 151 197 247 295 354
#     4  10  21  39  60  89 122 157 197 246 296 342
#     4  12  25  40  57  84 130 164 196 242 291 348
#     4   9  18  35  64  93 115 144 200 256 292 337
#
# _framework density 20.962050000000001
#
# number of rings (size 3 to 8) (size 9 to 14) (size 15 to 20)
#    0.000    1.750    2.500    2.250    0.000    1.000 
#    0.000   13.750    0.000    0.000    0.000    0.000 
#    0.000    0.000    0.000    0.000    0.000    0.000 
#
# Total GULP energy -178963.884776 kJ/mol
# GULP energy per Si atom -5592.621399 kJ/mol
# Density = 2.091434 g / cm^3
# Si number density = 20.962050 Si / 1000 Ang^3
#
#
#
# Elastic Constant Matrix: (Units=GPa)
#
#
# Indices 1 2 3 4 5 6 
#
# 1 214.5138 29.1678 95.7731 0.0000 0.0000 0.0000
# 2 29.1678 26.4373 -3.6344 0.0000 0.0000 0.0000
# 3 95.7731 -3.6344 154.5302 0.0000 0.0000 0.0000
# 4 0.0000 0.0000 0.0000 -14.0143 0.0000 0.0000
# 5 0.0000 0.0000 0.0000 0.0000 42.7546 0.0000
# 6 0.0000 0.0000 0.0000 0.0000 0.0000 13.6139
#
#
#
# Elastic Compliance Matrix: (Units=1/GPa)
#
#
# Indices 1 2 3 4 5 6 
#
# 1 0.008497 -0.010131 -0.005504 0.000000 0.000000 0.000000
# 2 -0.010131 0.050027 0.007455 0.000000 0.000000 0.000000
# 3 -0.005504 0.007455 0.010058 0.000000 0.000000 0.000000
# 4 0.000000 0.000000 0.000000 -0.071355 0.000000 0.000000
# 5 0.000000 0.000000 0.000000 0.000000 0.023389 0.000000
# 6 0.000000 0.000000 0.000000 0.000000 0.000000 0.073454
#
#
# Mechanical properties :
#
#
# Convention : Reuss Voigt Hill
#
# Bulk Modulus (GPa) = 19.14880 70.89937 45.02408
# Shear Modulus (GPa) = 39.11221 26.74915 32.93068
#
# Velocity S-wave (km/s) = 4.32424 3.57609 3.96784
# Velocity P-wave (km/s) = 5.83840 7.13775 6.52052
#
# Compressibility (1/GPa) = 0.05222258
#
# Stress axis : x y z
#
# Youngs Moduli (GPa) = 117.69312 19.98902 99.42407
#
# Poissons Ratio (x) = 0.20251 0.54725
# Poissons Ratio (y) = 1.19234 -0.74125
# Poissons Ratio (z) = 0.64781 -0.14903
#
# Static dielectric constant tensor:
#      x y z
#    x 1.717890 0.000000 0.000000 
#    y 0.000000 1.784900 0.000000 
#    z 0.000000 0.000000 1.699780 
# 
# From -- ./inp_files/40745.got.cif
#   From: 2010.05.17/outbox.cif.g08.bks.cpg/sg74_21_cif.got.tgz:40745.got - 2010.06.03 17:57:02.
