data_PCOD9536271
_publ_section_title
;
Structure prediction by ZEFSAII (Michael W. Deem and Ramdas Pophale) SiO2 
 PCOD9536271
Probable space group: I M M A
;
_chemical_formula_sum "Si O2"
_cell_formula_units_Z 88
_cell_length_a 8.152137
_cell_length_b 22.631302
_cell_length_c 24.593023
_cell_angle_alpha 90.000000
_cell_angle_beta 90.000000
_cell_angle_gamma 90.000000
_cell_volume 4537.252259
_symmetry_space_group_name_H-M "I M M A"
_symmetry_group_IT_number 74
_symmetry_cell_setting 'orthorhombic'
loop_
_space_group_symop_operation_xyz
x,y,z
-x,1/2-y,z
x,-y,-z
-x,1/2+y,-z
-x,-y,-z
x,1/2+y,-z
-x,y,z
x,1/2-y,z
1/2+x,1/2+y,1/2+z
1/2-x,-y,1/2+z
1/2+x,1/2-y,1/2-z
1/2-x,y,1/2-z
1/2-x,1/2-y,1/2-z
1/2+x,y,1/2-z
1/2-x,1/2+y,1/2+z
1/2+x,-y,1/2+z
loop_
_atom_site_type_symbol
_atom_site_label
_atom_site_fract_x
_atom_site_fract_y
_atom_site_fract_z
Si Si1 0.806791 0.408634 0.399186
Si Si2 0.696168 0.686032 0.518246
Si Si3 0.304888 0.349770 0.603271
Si Si4 0.697855 0.684333 0.811530
Si Si5 0.191854 0.025645 0.942451
Si Si6 0.193091 0.750000 0.312989
O O1 0.780911 0.368637 0.452702
O O2 0.743783 0.366586 0.351263
O O3 0.710941 0.469435 0.403804
O O4 0.000000 0.420924 0.392441
O O5 0.500000 0.681063 0.527047
O O6 0.753143 0.750000 0.539145
O O7 0.723264 0.683434 0.453841
O O8 0.500000 0.355332 0.611909
O O9 0.240554 0.415975 0.587981
O O10 0.244557 0.308658 0.652595
O O11 0.500000 0.685086 0.814775
O O12 0.758184 0.750000 0.826723
O O13 0.750000 0.673467 0.750000
O O14 0.000000 0.039379 0.954130
O O15 0.262787 0.000000 0.000000
O O16 0.250000 0.750000 0.250000
O O17 0.000000 0.750000 0.311575
#
# Coordination Sequence:
#
# PCOD9536271 Si02
#       6
#    16  16  16  16  16   8
#     4  11  22  34  52  82 121 153 187 237 289 344
#     4  10  19  33  55  82 114 153 194 235 285 351
#     4  10  20  39  63  86 117 153 195 244 293 349
#     4   9  19  36  55  76 106 145 187 232 279 327
#     4  10  20  37  59  83 116 159 198 232 282 348
#     4  12  26  44  68  94 122 156 201 252 309 366
#
# _framework density 19.394998000000001
#
# number of rings (size 3 to 8) (size 9 to 14) (size 15 to 20)
#    0.000    1.818    2.727    1.909    0.000    4.364 
#    0.000    2.727    0.000    2.182    0.000    0.000 
#    0.000    0.000    0.000    0.000    0.000    0.000 
#
# Total GULP energy -245340.505133 kJ/mol
# GULP energy per Si atom -5575.920571 kJ/mol
# Density = 1.935085 g / cm^3
# Si number density = 19.394998 Si / 1000 Ang^3
#
#
#
# Elastic Constant Matrix: (Units=GPa)
#
#
# Indices 1 2 3 4 5 6 
#
# 1 19.5286 19.8417 15.2411 0.0000 0.0000 0.0000
# 2 19.8417 169.0688 66.9301 0.0000 0.0000 0.0000
# 3 15.2411 66.9301 112.7799 0.0000 0.0000 0.0000
# 4 0.0000 0.0000 0.0000 28.0690 0.0000 0.0000
# 5 0.0000 0.0000 0.0000 0.0000 26.5348 0.0000
# 6 0.0000 0.0000 0.0000 0.0000 0.0000 113.1803
#
#
#
# Elastic Compliance Matrix: (Units=1/GPa)
#
#
# Indices 1 2 3 4 5 6 
#
# 1 0.060358 -0.005038 -0.005167 0.000000 0.000000 0.000000
# 2 -0.005038 0.008152 -0.004157 0.000000 0.000000 0.000000
# 3 -0.005167 -0.004157 0.012032 0.000000 0.000000 0.000000
# 4 0.000000 0.000000 0.000000 0.035626 0.000000 0.000000
# 5 0.000000 0.000000 0.000000 0.000000 0.037686 0.000000
# 6 0.000000 0.000000 0.000000 0.000000 0.000000 0.008835
#
#
# Mechanical properties :
#
#
# Convention : Reuss Voigt Hill
#
# Bulk Modulus (GPa) = 19.29823 56.15590 37.72707
# Shear Modulus (GPa) = 23.95940 46.84779 35.40359
#
# Velocity S-wave (km/s) = 3.51855 4.92006 4.27710
# Velocity P-wave (km/s) = 5.14574 7.82896 6.62463
#
# Compressibility (1/GPa) = 0.05181822
#
# Stress axis : x y z
#
# Youngs Moduli (GPa) = 16.56774 122.67569 83.11201
#
# Poissons Ratio (x) = 0.61805 0.42943
# Poissons Ratio (y) = 0.08347 0.34548
# Poissons Ratio (z) = 0.08560 0.50993
#
# Static dielectric constant tensor:
#      x y z
#    x 1.711270 0.000000 0.000000 
#    y 0.000000 1.722430 0.000000 
#    z 0.000000 0.000000 1.704490 
# 
# From -- ./inp_files/48758.got.cif
#   From: 2010.05.17/outbox.cif.g08.bks.cpg/sg74_25_cif.got.tgz:48758.got - 2010.06.03 17:57:02.
