data_PCOD9536928
_publ_section_title
;
Structure prediction by ZEFSAII (Michael W. Deem and Ramdas Pophale) SiO2 
 PCOD9536928
Probable space group: I M M A
;
_chemical_formula_sum "Si O2"
_cell_formula_units_Z 88
_cell_length_a 20.529462
_cell_length_b 8.091284
_cell_length_c 31.633648
_cell_angle_alpha 90.000000
_cell_angle_beta 90.000000
_cell_angle_gamma 90.000000
_cell_volume 5254.656014
_symmetry_space_group_name_H-M "I M M A"
_symmetry_group_IT_number 74
_symmetry_cell_setting 'orthorhombic'
loop_
_space_group_symop_operation_xyz
x,y,z
-x,1/2-y,z
x,-y,-z
-x,1/2+y,-z
-x,-y,-z
x,1/2+y,-z
-x,y,z
x,1/2-y,z
1/2+x,1/2+y,1/2+z
1/2-x,-y,1/2+z
1/2+x,1/2-y,1/2-z
1/2-x,y,1/2-z
1/2-x,1/2-y,1/2-z
1/2+x,y,1/2-z
1/2-x,1/2+y,1/2+z
1/2+x,-y,1/2+z
loop_
_atom_site_type_symbol
_atom_site_label
_atom_site_fract_x
_atom_site_fract_y
_atom_site_fract_z
Si Si1 0.705147 0.440363 0.370849
Si Si2 0.211988 0.048034 0.292761
Si Si3 0.856911 0.554807 0.048021
Si Si4 0.000000 0.050463 0.950698
Si Si5 0.071548 0.050557 0.263901
Si Si6 0.427283 0.555987 0.332656
O O1 0.722665 0.250000 0.375801
O O2 0.753264 0.513975 0.335371
O O3 0.697438 0.512522 0.417581
O O4 0.633318 0.458049 0.350768
O O5 0.216090 0.250000 0.293188
O O6 0.250000 0.995273 0.250000
O O7 0.136174 0.002322 0.289131
O O8 0.863271 0.750000 0.046712
O O9 0.928459 0.488996 0.063297
O O10 0.844356 0.500000 0.000000
O O11 0.000000 0.250000 0.945344
O O12 0.000000 0.000000 0.000000
O O13 0.074603 0.250000 0.257626
O O14 0.000000 0.012585 0.282436
O O15 0.074433 0.968118 0.217831
O O16 0.500000 0.505069 0.346854
O O17 0.419437 0.750000 0.343314
#
# Coordination Sequence:
#
# PCOD9536928 Si02
#       6
#    16  16  16   8  16  16
#     4  11  21  32  48  67  89 123 159 192 235 277
#     4   9  16  29  46  67  96 122 151 194 232 268
#     4  10  20  35  50  67  91 118 153 193 235 275
#     4   8  16  30  48  64  84 114 144 186 232 266
#     4   9  16  29  49  67  86 120 161 194 227 271
#     4  10  20  31  42  61  91 122 155 197 237 271
#
# _framework density 16.747053000000001
#
# number of rings (size 3 to 8) (size 9 to 14) (size 15 to 20)
#    0.000    2.364    1.818    1.636    1.273    1.818 
#    0.000    2.727    0.000    0.000    0.000    0.000 
#    0.000    0.727    0.000    1.273    0.000    1.818 
#
# Total GULP energy -245224.154631 kJ/mol
# GULP energy per Si atom -5573.276242 kJ/mol
# Density = 1.670894 g / cm^3
# Si number density = 16.747053 Si / 1000 Ang^3
#
#
#
# Elastic Constant Matrix: (Units=GPa)
#
#
# Indices 1 2 3 4 5 6 
#
# 1 98.5023 6.9121 60.4285 0.0000 0.0000 0.0000
# 2 6.9121 13.8144 11.7359 0.0000 0.0000 0.0000
# 3 60.4285 11.7359 108.9237 0.0000 0.0000 0.0000
# 4 0.0000 0.0000 0.0000 17.9376 0.0000 0.0000
# 5 0.0000 0.0000 0.0000 0.0000 23.9945 0.0000
# 6 0.0000 0.0000 0.0000 0.0000 0.0000 8.1701
#
#
#
# Elastic Compliance Matrix: (Units=1/GPa)
#
#
# Indices 1 2 3 4 5 6 
#
# 1 0.015393 -0.000492 -0.008487 0.000000 0.000000 0.000000
# 2 -0.000492 0.079697 -0.008314 0.000000 0.000000 0.000000
# 3 -0.008487 -0.008314 0.014785 0.000000 0.000000 0.000000
# 4 0.000000 0.000000 0.000000 0.055749 0.000000 0.000000
# 5 0.000000 0.000000 0.000000 0.000000 0.041676 0.000000
# 6 0.000000 0.000000 0.000000 0.000000 0.000000 0.122397
#
#
# Mechanical properties :
#
#
# Convention : Reuss Voigt Hill
#
# Bulk Modulus (GPa) = 13.28205 42.15482 27.71843
# Shear Modulus (GPa) = 12.84097 19.49803 16.16950
#
# Velocity S-wave (km/s) = 2.77205 3.41584 3.11064
# Velocity P-wave (km/s) = 4.26543 6.38619 5.43034
#
# Compressibility (1/GPa) = 0.07528960
#
# Stress axis : x y z
#
# Youngs Moduli (GPa) = 64.96505 12.54748 67.63745
#
# Poissons Ratio (x) = 0.00617 0.57401
# Poissons Ratio (y) = 0.03197 0.56233
# Poissons Ratio (z) = 0.55133 0.10432
#
# Static dielectric constant tensor:
#      x y z
#    x 1.590700 0.000000 0.000000 
#    y 0.000000 1.606610 0.000000 
#    z 0.000000 0.000000 1.581010 
# 
# From -- ./inp_files/70426.got.cif
#   From: 2010.05.17/outbox.cif.g08.bks.cpg/sg74_36_cif.got.tgz:70426.got - 2010.06.03 17:57:02.
