data_PCOD9536790
_publ_section_title
;
Structure prediction by ZEFSAII (Michael W. Deem and Ramdas Pophale) SiO2 
 PCOD9536790
Probable space group: I M M A
;
_chemical_formula_sum "Si O2"
_cell_formula_units_Z 96
_cell_length_a 19.645966
_cell_length_b 22.449002
_cell_length_c 11.444928
_cell_angle_alpha 90.000000
_cell_angle_beta 90.000000
_cell_angle_gamma 90.000000
_cell_volume 5047.583263
_symmetry_space_group_name_H-M "I M M A"
_symmetry_group_IT_number 74
_symmetry_cell_setting 'orthorhombic'
loop_
_space_group_symop_operation_xyz
x,y,z
-x,1/2-y,z
x,-y,-z
-x,1/2+y,-z
-x,-y,-z
x,1/2+y,-z
-x,y,z
x,1/2-y,z
1/2+x,1/2+y,1/2+z
1/2-x,-y,1/2+z
1/2+x,1/2-y,1/2-z
1/2-x,y,1/2-z
1/2-x,1/2-y,1/2-z
1/2+x,y,1/2-z
1/2-x,1/2+y,1/2+z
1/2+x,-y,1/2+z
loop_
_atom_site_type_symbol
_atom_site_label
_atom_site_fract_x
_atom_site_fract_y
_atom_site_fract_z
Si Si1 0.215580 0.158041 0.135043
Si Si2 0.755451 0.250000 0.556964
Si Si3 0.081056 0.377327 0.819478
Si Si4 0.359412 0.750000 0.246731
Si Si5 0.279092 0.472626 0.126936
Si Si6 0.579366 0.891216 0.590109
Si Si7 0.079962 0.494533 0.273867
O O1 0.250000 0.183893 0.250000
O O2 0.243790 0.091397 0.124243
O O3 0.134162 0.152843 0.147826
O O4 0.239344 0.193866 0.023189
O O5 0.701614 0.250000 0.660802
O O6 0.828947 0.250000 0.616619
O O7 0.104259 0.313094 0.772664
O O8 0.099314 0.436418 0.746880
O O9 0.000000 0.376155 0.819805
O O10 0.100589 0.390262 0.954191
O O11 0.250000 0.500783 0.250000
O O12 0.360925 0.468864 0.143577
O O13 0.264127 0.500000 0.000000
O O14 0.500000 0.873050 0.598784
O O15 0.584263 0.955292 0.654336
O O16 0.000000 0.490703 0.311115
#
# Coordination Sequence:
#
# PCOD9536790 Si02
#       7
#    16   8  16   8  16  16  16
#     4  11  22  43  61  90 122 164 211 259 321 374
#     4  11  25  40  62  85 122 168 205 261 309 376
#     4  10  21  37  63  91 127 165 205 261 313 372
#     4  11  23  40  60  91 124 162 209 251 311 378
#     4  11  25  39  63  95 129 168 207 265 321 384
#     4  10  19  36  62  91 125 160 205 262 316 376
#     4  10  21  39  62  93 126 167 210 254 316 381
#
# _framework density 19.019002
#
# number of rings (size 3 to 8) (size 9 to 14) (size 15 to 20)
#    0.000    1.500    5.000    1.000    4.667    2.333 
#    0.000    0.417    0.000    2.000    0.000    0.000 
#    0.000    0.000    0.000    0.000    0.000    0.000 
#
# Total GULP energy -267434.653080 kJ/mol
# GULP energy per Si atom -5571.555273 kJ/mol
# Density = 1.897571 g / cm^3
# Si number density = 19.019002 Si / 1000 Ang^3
#
#
#
# Elastic Constant Matrix: (Units=GPa)
#
#
# Indices 1 2 3 4 5 6 
#
# 1 77.8819 26.0519 28.8510 0.0000 0.0000 0.0000
# 2 26.0519 65.5625 36.0254 0.0000 0.0000 0.0000
# 3 28.8510 36.0254 84.7378 0.0000 0.0000 0.0000
# 4 0.0000 0.0000 0.0000 31.0730 0.0000 0.0000
# 5 0.0000 0.0000 0.0000 0.0000 30.2217 0.0000
# 6 0.0000 0.0000 0.0000 0.0000 0.0000 -14.2440
#
#
#
# Elastic Compliance Matrix: (Units=1/GPa)
#
#
# Indices 1 2 3 4 5 6 
#
# 1 0.015558 -0.004269 -0.003482 0.000000 0.000000 0.000000
# 2 -0.004269 0.021073 -0.007506 0.000000 0.000000 0.000000
# 3 -0.003482 -0.007506 0.016178 0.000000 0.000000 0.000000
# 4 0.000000 0.000000 0.000000 0.032182 0.000000 0.000000
# 5 0.000000 0.000000 0.000000 0.000000 0.033089 0.000000
# 6 0.000000 0.000000 0.000000 0.000000 0.000000 -0.070205
#
#
# Mechanical properties :
#
#
# Convention : Reuss Voigt Hill
#
# Bulk Modulus (GPa) = 44.85212 45.55985 45.20599
# Shear Modulus (GPa) = 58.26200 18.56041 38.41120
#
# Velocity S-wave (km/s) = 5.54076 3.12731 4.49890
# Velocity P-wave (km/s) = 8.03539 6.08662 7.12792
#
# Compressibility (1/GPa) = 0.02229549
#
# Stress axis : x y z
#
# Youngs Moduli (GPa) = 64.27634 47.45407 61.81354
#
# Poissons Ratio (x) = 0.20256 0.21525
# Poissons Ratio (y) = 0.27437 0.46395
# Poissons Ratio (z) = 0.22383 0.35617
#
# Static dielectric constant tensor:
#      x y z
#    x 1.692470 0.000000 0.000000 
#    y 0.000000 1.762910 0.000000 
#    z 0.000000 0.000000 1.720860 
# 
# From -- ./inp_files/22518.got.cif
#   From: 2010.05.17/outbox.cif.g08.bks.cpg/sg74_12_cif.got.tgz:22518.got - 2010.06.03 17:57:02.
