data_PCOD9536793
_publ_section_title
;
Structure prediction by ZEFSAII (Michael W. Deem and Ramdas Pophale) SiO2 
 PCOD9536793
Probable space group: I M M A
;
_chemical_formula_sum "Si O2"
_cell_formula_units_Z 84
_cell_length_a 11.931658
_cell_length_b 15.505252
_cell_length_c 23.226896
_cell_angle_alpha 90.000000
_cell_angle_beta 90.000000
_cell_angle_gamma 90.000000
_cell_volume 4297.053897
_symmetry_space_group_name_H-M "I M M A"
_symmetry_group_IT_number 74
_symmetry_cell_setting 'orthorhombic'
loop_
_space_group_symop_operation_xyz
x,y,z
-x,1/2-y,z
x,-y,-z
-x,1/2+y,-z
-x,-y,-z
x,1/2+y,-z
-x,y,z
x,1/2-y,z
1/2+x,1/2+y,1/2+z
1/2-x,-y,1/2+z
1/2+x,1/2-y,1/2-z
1/2-x,y,1/2-z
1/2-x,1/2-y,1/2-z
1/2+x,y,1/2-z
1/2-x,1/2+y,1/2+z
1/2+x,-y,1/2+z
loop_
_atom_site_type_symbol
_atom_site_label
_atom_site_fract_x
_atom_site_fract_y
_atom_site_fract_z
Si Si1 0.742836 0.646573 0.990827
Si Si2 0.000000 0.750000 0.279342
Si Si3 0.370652 0.595770 0.623116
Si Si4 0.754354 0.580043 0.116924
Si Si5 0.000000 0.891373 0.376722
Si Si6 0.867486 0.250000 0.213844
Si Si7 0.000000 0.346947 0.491286
Si Si8 0.369363 0.250000 0.667994
O O1 0.735687 0.750000 0.003533
O O2 0.818874 0.631362 0.936051
O O3 0.617965 0.613059 0.974694
O O4 0.777388 0.598293 0.049084
O O5 0.000000 0.670069 0.321815
O O6 0.105591 0.750000 0.236201
O O7 0.500000 0.579452 0.612613
O O8 0.314679 0.505259 0.638068
O O9 0.360049 0.666233 0.673025
O O10 0.621363 0.565066 0.124195
O O11 0.801291 0.665558 0.148359
O O12 0.000000 0.844384 0.439074
O O13 0.750000 0.250000 0.250000
O O14 0.000000 0.250000 0.237837
O O15 0.000000 0.250000 0.467550
O O16 0.500000 0.250000 0.643917
#
# Coordination Sequence:
#
# PCOD9536793 Si02
#       8
#    16   4  16  16   8   8   8   8
#     4  10  19  36  62  94 128 166 202 252 318 387
#     4  10  22  40  60  86 122 170 218 248 310 362
#     4  11  24  43  67  93 127 164 212 260 321 384
#     4  11  22  40  62  94 132 167 210 257 322 381
#     4  10  20  37  60  85 124 174 210 255 310 370
#     4  10  24  53  74  92 126 170 220 283 331 380
#     4   8  16  31  57  86 125 161 197 249 309 372
#     4  10  23  38  56  87 125 168 207 258 303 369
#
# _framework density 19.548278
#
# number of rings (size 3 to 8) (size 9 to 14) (size 15 to 20)
#    0.286    1.524    2.381    1.714    0.000    4.571 
#    6.857    2.857    0.000    0.000    0.000    0.000 
#    0.000    0.000    0.000    0.000    0.000    0.000 
#
# Total GULP energy -234171.136799 kJ/mol
# GULP energy per Si atom -5575.503257 kJ/mol
# Density = 1.950379 g / cm^3
# Si number density = 19.548278 Si / 1000 Ang^3
#
#
#
# Elastic Constant Matrix: (Units=GPa)
#
#
# Indices 1 2 3 4 5 6 
#
# 1 167.9526 51.1544 49.0685 0.0000 0.0000 0.0000
# 2 51.1544 102.7584 12.0335 0.0000 0.0000 0.0000
# 3 49.0685 12.0335 62.5521 0.0000 0.0000 0.0000
# 4 0.0000 0.0000 0.0000 1.6033 0.0000 0.0000
# 5 0.0000 0.0000 0.0000 0.0000 30.6975 0.0000
# 6 0.0000 0.0000 0.0000 0.0000 0.0000 35.2152
#
#
#
# Elastic Compliance Matrix: (Units=1/GPa)
#
#
# Indices 1 2 3 4 5 6 
#
# 1 0.008918 -0.003704 -0.006283 0.000000 0.000000 0.000000
# 2 -0.003704 0.011494 0.000694 0.000000 0.000000 0.000000
# 3 -0.006283 0.000694 0.020782 0.000000 0.000000 0.000000
# 4 0.000000 0.000000 0.000000 0.623725 0.000000 0.000000
# 5 0.000000 0.000000 0.000000 0.000000 0.032576 0.000000
# 6 0.000000 0.000000 0.000000 0.000000 0.000000 0.028397
#
#
# Mechanical properties :
#
#
# Convention : Reuss Voigt Hill
#
# Bulk Modulus (GPa) = 44.23108 61.97512 53.10310
# Shear Modulus (GPa) = 6.64883 28.23698 17.44291
#
# Velocity S-wave (km/s) = 1.84624 3.80475 2.99038
# Velocity P-wave (km/s) = 5.21733 7.14660 6.25677
#
# Compressibility (1/GPa) = 0.02260854
#
# Stress axis : x y z
#
# Youngs Moduli (GPa) = 112.13672 87.00217 48.11919
#
# Poissons Ratio (x) = 0.32222 0.30233
# Poissons Ratio (y) = 0.41531 -0.03340
# Poissons Ratio (z) = 0.70455 -0.06039
#
# Static dielectric constant tensor:
#      x y z
#    x 1.749660 0.000000 0.000000 
#    y 0.000000 1.765140 0.000000 
#    z 0.000000 0.000000 1.655440 
# 
# From -- ./inp_files/58716.got.cif
#   From: 2010.05.17/outbox.cif.g08.bks.cpg/sg74_30_cif.got.tgz:58716.got - 2010.06.03 17:57:02.
