data_PCOD9536557
_publ_section_title
;
Structure prediction by ZEFSAII (Michael W. Deem and Ramdas Pophale) SiO2 
 PCOD9536557
Probable space group: I M M A
;
_chemical_formula_sum "Si O2"
_cell_formula_units_Z 88
_cell_length_a 14.848202
_cell_length_b 25.508182
_cell_length_c 11.712220
_cell_angle_alpha 90.000000
_cell_angle_beta 90.000000
_cell_angle_gamma 90.000000
_cell_volume 4436.010809
_symmetry_space_group_name_H-M "I M M A"
_symmetry_group_IT_number 74
_symmetry_cell_setting 'orthorhombic'
loop_
_space_group_symop_operation_xyz
x,y,z
-x,1/2-y,z
x,-y,-z
-x,1/2+y,-z
-x,-y,-z
x,1/2+y,-z
-x,y,z
x,1/2-y,z
1/2+x,1/2+y,1/2+z
1/2-x,-y,1/2+z
1/2+x,1/2-y,1/2-z
1/2-x,y,1/2-z
1/2-x,1/2-y,1/2-z
1/2+x,y,1/2-z
1/2-x,1/2+y,1/2+z
1/2+x,-y,1/2+z
loop_
_atom_site_type_symbol
_atom_site_label
_atom_site_fract_x
_atom_site_fract_y
_atom_site_fract_z
Si Si1 0.146503 0.809553 0.214803
Si Si2 0.000000 0.889865 0.305138
Si Si3 0.500000 0.558139 0.949127
Si Si4 0.847689 0.629537 0.989888
Si Si5 0.894661 0.309961 0.240209
Si Si6 0.000000 0.052795 0.924987
Si Si7 0.312585 0.098516 0.141866
O O1 0.114764 0.750000 0.234237
O O2 0.250000 0.813322 0.250000
O O3 0.085252 0.852746 0.276658
O O4 0.146987 0.824504 0.081870
O O5 0.000000 0.906068 0.436845
O O6 0.000000 0.939071 0.214120
O O7 0.592478 0.569342 0.878516
O O8 0.500000 0.500000 0.000000
O O9 0.880648 0.655075 0.872111
O O10 0.751875 0.601999 0.967398
O O11 0.914022 0.585076 0.033107
O O12 0.867105 0.250000 0.223533
O O13 0.838102 0.340885 0.333797
O O14 0.000000 0.310782 0.270565
O O15 0.000000 0.000000 0.000000
O O16 0.250000 0.079998 0.250000
#
# Coordination Sequence:
#
# PCOD9536557 Si02
#       7
#    16   8   8  16  16   8  16
#     4  10  20  36  58  86 121 160 200 242 296 368
#     4  10  23  40  60  88 122 160 201 258 308 371
#     4  12  26  47  66  89 124 165 207 265 327 370
#     4  10  20  36  59  89 122 162 204 255 306 365
#     4  10  19  34  58  89 124 160 199 248 309 373
#     4  10  22  39  62  91 122 161 211 263 312 361
#     4  10  23  40  64  91 126 162 209 260 309 379
#
# _framework density 19.837644000000001
#
# number of rings (size 3 to 8) (size 9 to 14) (size 15 to 20)
#    0.000    1.818    1.818    1.909    0.000    7.636 
#    0.000    4.545    0.000    0.000    0.000    0.000 
#    0.000    0.000    0.000    0.000    0.000    0.000 
#
# Total GULP energy -245384.141507 kJ/mol
# GULP energy per Si atom -5576.912307 kJ/mol
# Density = 1.979249 g / cm^3
# Si number density = 19.837644 Si / 1000 Ang^3
#
#
#
# Elastic Constant Matrix: (Units=GPa)
#
#
# Indices 1 2 3 4 5 6 
#
# 1 128.1057 27.0625 33.6724 0.0000 -0.0001 0.0001
# 2 27.0625 68.4628 17.3480 0.0001 -0.0003 0.0005
# 3 33.6724 17.3480 62.8619 0.0003 0.0001 -0.0002
# 4 0.0000 0.0001 0.0003 27.4942 -0.0001 0.0002
# 5 -0.0001 -0.0003 0.0001 -0.0001 -64.9692 0.0001
# 6 0.0001 0.0005 -0.0002 0.0002 0.0001 124.5232
#
#
#
# Elastic Compliance Matrix: (Units=1/GPa)
#
#
# Indices 1 2 3 4 5 6 
#
# 1 0.009514 -0.002655 -0.004363 0.000000 0.000000 0.000000
# 2 -0.002655 0.016446 -0.003116 0.000000 0.000000 0.000000
# 3 -0.004363 -0.003116 0.019105 0.000000 0.000000 0.000000
# 4 0.000000 0.000000 0.000000 0.036371 0.000000 0.000000
# 5 0.000000 0.000000 0.000000 0.000000 -0.015392 0.000000
# 6 0.000000 0.000000 0.000000 0.000000 0.000000 0.008031
#
#
# Mechanical properties :
#
#
# Convention : Reuss Voigt Hill
#
# Bulk Modulus (GPa) = 40.33057 46.17735 43.25396
# Shear Modulus (GPa) = 48.72849 29.49947 39.11398
#
# Velocity S-wave (km/s) = 4.96155 3.86041 4.44521
# Velocity P-wave (km/s) = 7.29363 6.57256 6.94246
#
# Compressibility (1/GPa) = 0.02479509
#
# Stress axis : x y z
#
# Youngs Moduli (GPa) = 105.10980 60.80641 52.34176
#
# Poissons Ratio (x) = 0.16144 0.22839
# Poissons Ratio (y) = 0.27907 0.16311
# Poissons Ratio (z) = 0.45864 0.18949
#
# Static dielectric constant tensor:
#      x y z
#    x 1.736900 0.000000 -0.000010 
#    y 0.000000 1.685570 0.000000 
#    z -0.000010 0.000000 0.452680 
# 
# From -- ./inp_files/20710.got.cif
#   From: 2010.05.17/outbox.cif.g08.bks.cpg/sg74_11_cif.got.tgz:20710.got - 2010.06.03 17:57:02.
