data_PCOD9536783
_publ_section_title
;
Structure prediction by ZEFSAII (Michael W. Deem and Ramdas Pophale) SiO2 
 PCOD9536783
Probable space group: I M M A
;
_chemical_formula_sum "Si O2"
_cell_formula_units_Z 64
_cell_length_a 9.720083
_cell_length_b 24.565733
_cell_length_c 14.560677
_cell_angle_alpha 90.000000
_cell_angle_beta 90.000000
_cell_angle_gamma 90.000000
_cell_volume 3476.812486
_symmetry_space_group_name_H-M "I M M A"
_symmetry_group_IT_number 74
_symmetry_cell_setting 'orthorhombic'
loop_
_space_group_symop_operation_xyz
x,y,z
-x,1/2-y,z
x,-y,-z
-x,1/2+y,-z
-x,-y,-z
x,1/2+y,-z
-x,y,z
x,1/2-y,z
1/2+x,1/2+y,1/2+z
1/2-x,-y,1/2+z
1/2+x,1/2-y,1/2-z
1/2-x,y,1/2-z
1/2-x,1/2-y,1/2-z
1/2+x,y,1/2-z
1/2-x,1/2+y,1/2+z
1/2+x,-y,1/2+z
loop_
_atom_site_type_symbol
_atom_site_label
_atom_site_fract_x
_atom_site_fract_y
_atom_site_fract_z
Si Si1 0.210992 0.750000 0.357482
Si Si2 0.843725 0.626001 0.341284
Si Si3 0.838288 0.250000 0.050977
Si Si4 0.160337 0.435660 0.990574
Si Si5 0.836599 0.642910 0.841925
O O1 0.250000 0.750000 0.250000
O O2 0.146301 0.809926 0.368021
O O3 0.317826 0.750000 0.441695
O O4 0.750000 0.622376 0.250000
O O5 0.763746 0.592566 0.419449
O O6 0.000000 0.606347 0.326112
O O7 0.785877 0.304144 0.101056
O O8 0.000000 0.250000 0.066178
O O9 0.000000 0.425603 0.962590
O O10 0.181352 0.500000 0.000000
O O11 0.178628 0.407576 0.089343
O O12 0.750000 0.637118 0.750000
O O13 0.000000 0.648815 0.821523
#
# Coordination Sequence:
#
# PCOD9536783 Si02
#       5
#     8  16   8  16  16
#     4  10  21  36  59  93 123 154 198 245 303 366
#     4  11  23  39  61  90 123 158 198 245 302 364
#     4  10  19  36  62  87 118 157 196 242 299 365
#     4  10  22  41  63  87 118 158 204 251 301 355
#     4  10  21  38  60  87 117 154 196 244 298 354
#
# _framework density 18.407665000000001
#
# number of rings (size 3 to 8) (size 9 to 14) (size 15 to 20)
#    0.000    1.750    2.500    1.500    0.000    6.500 
#    0.000    2.500    0.000    0.000    0.000    0.000 
#    0.000    0.000    0.000    0.000    0.000    0.000 
#
# Total GULP energy -178316.885792 kJ/mol
# GULP energy per Si atom -5572.402681 kJ/mol
# Density = 1.836577 g / cm^3
# Si number density = 18.407665 Si / 1000 Ang^3
#
#
#
# Elastic Constant Matrix: (Units=GPa)
#
#
# Indices 1 2 3 4 5 6 
#
# 1 111.1465 59.9192 77.5055 0.0000 0.0000 0.0000
# 2 59.9192 128.6644 67.4159 0.0000 0.0000 0.0000
# 3 77.5055 67.4159 128.8783 0.0000 0.0000 0.0000
# 4 0.0000 0.0000 0.0000 7.1128 0.0000 0.0000
# 5 0.0000 0.0000 0.0000 0.0000 32.1389 0.0000
# 6 0.0000 0.0000 0.0000 0.0000 0.0000 -12.7969
#
#
#
# Elastic Compliance Matrix: (Units=1/GPa)
#
#
# Indices 1 2 3 4 5 6 
#
# 1 0.016525 -0.003428 -0.008144 0.000000 0.000000 0.000000
# 2 -0.003428 0.011418 -0.003911 0.000000 0.000000 0.000000
# 3 -0.008144 -0.003911 0.014703 0.000000 0.000000 0.000000
# 4 0.000000 0.000000 0.000000 0.140592 0.000000 0.000000
# 5 0.000000 0.000000 0.000000 0.000000 0.031115 0.000000
# 6 0.000000 0.000000 0.000000 0.000000 0.000000 -0.078144
#
#
# Mechanical properties :
#
#
# Convention : Reuss Voigt Hill
#
# Bulk Modulus (GPa) = 85.62838 86.48561 86.05699
# Shear Modulus (GPa) = 29.22804 16.21420 22.72112
#
# Velocity S-wave (km/s) = 3.98907 2.97111 3.51711
# Velocity P-wave (km/s) = 8.23624 7.67173 7.95899
#
# Compressibility (1/GPa) = 0.01167837
#
# Stress axis : x y z
#
# Youngs Moduli (GPa) = 60.51611 87.58174 68.01316
#
# Poissons Ratio (x) = 0.30024 0.55392
# Poissons Ratio (y) = 0.20746 0.26600
# Poissons Ratio (z) = 0.49287 0.34254
#
# Static dielectric constant tensor:
#      x y z
#    x 1.657500 0.000000 0.000000 
#    y 0.000000 1.649260 0.000000 
#    z 0.000000 0.000000 1.607110 
# 
# From -- ./inp_files/28871.got.cif
#   From: 2010.05.17/outbox.cif.g08.bks.cpg/sg74_15_cif.got.tgz:28871.got - 2010.06.03 17:57:02.
