data_PCOD9536486
_publ_section_title
;
Structure prediction by ZEFSAII (Michael W. Deem and Ramdas Pophale) SiO2 
 PCOD9536486
Probable space group: I M M A
;
_chemical_formula_sum "Si O2"
_cell_formula_units_Z 104
_cell_length_a 32.104969
_cell_length_b 8.538698
_cell_length_c 19.854303
_cell_angle_alpha 90.000000
_cell_angle_beta 90.000000
_cell_angle_gamma 90.000000
_cell_volume 5442.752098
_symmetry_space_group_name_H-M "I M M A"
_symmetry_group_IT_number 74
_symmetry_cell_setting 'orthorhombic'
loop_
_space_group_symop_operation_xyz
x,y,z
-x,1/2-y,z
x,-y,-z
-x,1/2+y,-z
-x,-y,-z
x,1/2+y,-z
-x,y,z
x,1/2-y,z
1/2+x,1/2+y,1/2+z
1/2-x,-y,1/2+z
1/2+x,1/2-y,1/2-z
1/2-x,y,1/2-z
1/2-x,1/2-y,1/2-z
1/2+x,y,1/2-z
1/2-x,1/2+y,1/2+z
1/2+x,-y,1/2+z
loop_
_atom_site_type_symbol
_atom_site_label
_atom_site_fract_x
_atom_site_fract_y
_atom_site_fract_z
Si Si1 0.792136 0.058487 0.786268
Si Si2 0.174754 0.061938 0.927644
Si Si3 0.625623 0.062964 0.793775
Si Si4 0.453783 0.562688 0.712942
Si Si5 0.091549 0.937640 0.575787
Si Si6 0.423215 0.561822 0.426683
Si Si7 0.000000 0.938713 0.576396
O O1 0.791634 0.250000 0.786764
O O2 0.750000 0.005903 0.750000
O O3 0.798792 0.007501 0.863469
O O4 0.832978 0.009445 0.744869
O O5 0.175951 0.250000 0.929257
O O6 0.125906 0.018774 0.918331
O O7 0.188685 0.000000 0.000000
O O8 0.625653 0.250000 0.794370
O O9 0.584715 0.007144 0.753964
O O10 0.623560 0.000917 0.869751
O O11 0.500000 0.511938 0.736157
O O12 0.451953 0.750000 0.719035
O O13 0.447708 0.512703 0.635321
O O14 0.092521 0.750000 0.574004
O O15 0.045255 0.988713 0.602147
O O16 0.097131 0.000000 0.500000
O O17 0.436424 0.500000 0.500000
O O18 0.426676 0.750000 0.424189
O O19 0.000000 0.750000 0.578051
O O20 0.000000 0.000000 0.500000
#
# Coordination Sequence:
#
# PCOD9536486 Si02
#       7
#    16  16  16  16  16  16   8
#     4   9  18  36  61  86 114 148 187 231 285 347
#     4   9  17  32  55  84 112 144 186 229 276 333
#     4  11  22  38  59  85 114 149 190 235 289 344
#     4  11  24  39  55  79 114 156 197 237 285 337
#     4  10  20  36  56  81 112 150 192 234 283 337
#     4  10  19  34  56  83 113 149 193 238 284 336
#     4   8  16  30  50  74 104 138 181 226 267 320
#
# _framework density 19.107980000000001
#
# number of rings (size 3 to 8) (size 9 to 14) (size 15 to 20)
#    0.000    2.154    1.538    1.846    1.077    2.769 
#    0.000    0.769    0.000    6.000    0.000    0.000 
#    0.000    0.000    0.000    0.000    0.000    0.000 
#
# Total GULP energy -290224.515310 kJ/mol
# GULP energy per Si atom -5581.240679 kJ/mol
# Density = 1.906449 g / cm^3
# Si number density = 19.107980 Si / 1000 Ang^3
#
#
#
# Elastic Constant Matrix: (Units=GPa)
#
#
# Indices 1 2 3 4 5 6 
#
# 1 115.6671 25.0183 78.7755 0.0000 0.0000 0.0000
# 2 25.0183 26.4384 22.1414 0.0000 0.0000 0.0000
# 3 78.7755 22.1414 139.7098 0.0000 0.0000 0.0000
# 4 0.0000 0.0000 0.0000 32.8150 0.0000 0.0000
# 5 0.0000 0.0000 0.0000 0.0000 40.2385 0.0000
# 6 0.0000 0.0000 0.0000 0.0000 0.0000 11.9798
#
#
#
# Elastic Compliance Matrix: (Units=1/GPa)
#
#
# Indices 1 2 3 4 5 6 
#
# 1 0.015528 -0.008488 -0.007410 0.000000 0.000000 0.000000
# 2 -0.008488 0.048252 -0.002861 0.000000 0.000000 0.000000
# 3 -0.007410 -0.002861 0.011789 0.000000 0.000000 0.000000
# 4 0.000000 0.000000 0.000000 0.030474 0.000000 0.000000
# 5 0.000000 0.000000 0.000000 0.000000 0.024852 0.000000
# 6 0.000000 0.000000 0.000000 0.000000 0.000000 0.083474
#
#
# Mechanical properties :
#
#
# Convention : Reuss Voigt Hill
#
# Bulk Modulus (GPa) = 26.28078 59.29840 42.78959
# Shear Modulus (GPa) = 18.89840 27.39867 23.14853
#
# Velocity S-wave (km/s) = 3.14830 3.79078 3.48438
# Velocity P-wave (km/s) = 5.19609 7.08948 6.21531
#
# Compressibility (1/GPa) = 0.03805062
#
# Stress axis : x y z
#
# Youngs Moduli (GPa) = 64.39803 20.72450 84.82126
#
# Poissons Ratio (x) = 0.17592 0.62857
# Poissons Ratio (y) = 0.54663 0.24267
# Poissons Ratio (z) = 0.47722 0.05929
#
# Static dielectric constant tensor:
#      x y z
#    x 1.674920 0.000000 0.000000 
#    y 0.000000 1.667560 0.000000 
#    z 0.000000 0.000000 1.664300 
# 
# From -- ./inp_files/55217.got.cif
#   From: 2010.05.17/outbox.cif.g08.bks.cpg/sg74_28_cif.got.tgz:55217.got - 2010.06.03 17:57:02.
