data_PCOD9536574
_publ_section_title
;
Structure prediction by ZEFSAII (Michael W. Deem and Ramdas Pophale) SiO2 
 PCOD9536574
Probable space group: I M M A
;
_chemical_formula_sum "Si O2"
_cell_formula_units_Z 84
_cell_length_a 11.265398
_cell_length_b 15.235182
_cell_length_c 25.210913
_cell_angle_alpha 90.000000
_cell_angle_beta 90.000000
_cell_angle_gamma 90.000000
_cell_volume 4326.958801
_symmetry_space_group_name_H-M "I M M A"
_symmetry_group_IT_number 74
_symmetry_cell_setting 'orthorhombic'
loop_
_space_group_symop_operation_xyz
x,y,z
-x,1/2-y,z
x,-y,-z
-x,1/2+y,-z
-x,-y,-z
x,1/2+y,-z
-x,y,z
x,1/2-y,z
1/2+x,1/2+y,1/2+z
1/2-x,-y,1/2+z
1/2+x,1/2-y,1/2-z
1/2-x,y,1/2-z
1/2-x,1/2-y,1/2-z
1/2+x,y,1/2-z
1/2-x,1/2+y,1/2+z
1/2+x,-y,1/2+z
loop_
_atom_site_type_symbol
_atom_site_label
_atom_site_fract_x
_atom_site_fract_y
_atom_site_fract_z
Si Si1 0.749100 0.601409 0.410196
Si Si2 0.856746 0.068920 0.358232
Si Si3 0.500000 0.406000 0.526983
Si Si4 0.240843 0.250000 0.405124
Si Si5 0.636682 0.250000 0.978940
Si Si6 0.368371 0.653886 0.305877
Si Si7 0.000000 0.250000 0.059161
Si Si8 0.750000 0.002262 0.750000
O O1 0.804862 0.506385 0.397653
O O2 0.620997 0.599625 0.438969
O O3 0.831462 0.664218 0.444816
O O4 0.725846 0.644197 0.352706
O O5 0.814882 0.163298 0.379175
O O6 0.797881 0.051072 0.300405
O O7 0.000000 0.063407 0.355710
O O8 0.500000 0.500000 0.500000
O O9 0.500000 0.332845 0.480875
O O10 0.211585 0.250000 0.467524
O O11 0.383450 0.250000 0.404256
O O12 0.500000 0.250000 0.993817
O O13 0.500000 0.649182 0.329495
O O14 0.359347 0.750000 0.280322
O O15 0.350978 0.571165 0.268187
#
# Coordination Sequence:
#
# PCOD9536574 Si02
#       8
#    16  16   8   8   8  16   4   8
#     4  11  22  38  63  96 131 174 209 257 327 381
#     4  11  25  46  67  94 133 171 221 273 330 390
#     4  12  22  38  62  94 136 170 214 272 312 375
#     4  12  26  47  68  96 122 177 218 279 329 376
#     4  12  24  40  63  97 136 170 212 249 318 400
#     4  10  19  34  60  91 127 166 207 258 319 387
#     4  12  24  44  70  98 138 158 230 274 314 382
#     4  10  23  41  64  92 124 168 224 270 328 384
#
# _framework density 19.413173
#
# number of rings (size 3 to 8) (size 9 to 14) (size 15 to 20)
#    0.000    0.952    3.810    3.429    0.000    0.381 
#    3.429    1.905    0.000    0.000    0.000    0.000 
#    0.000    0.000    0.000    0.000    0.000    0.000 
#
# Total GULP energy -234557.975596 kJ/mol
# GULP energy per Si atom -5584.713705 kJ/mol
# Density = 1.936899 g / cm^3
# Si number density = 19.413173 Si / 1000 Ang^3
#
#
#
# Elastic Constant Matrix: (Units=GPa)
#
#
# Indices 1 2 3 4 5 6 
#
# 1 101.8356 19.9182 -10.2469 0.0000 0.0000 0.0000
# 2 19.9182 148.5429 31.4417 0.0000 0.0000 0.0000
# 3 -10.2469 31.4417 49.5166 0.0000 0.0000 0.0000
# 4 0.0000 0.0000 0.0000 18.8672 0.0000 0.0000
# 5 0.0000 0.0000 0.0000 0.0000 30.3964 0.0000
# 6 0.0000 0.0000 0.0000 0.0000 0.0000 20.0560
#
#
#
# Elastic Compliance Matrix: (Units=1/GPa)
#
#
# Indices 1 2 3 4 5 6 
#
# 1 0.010606 -0.002180 0.003579 0.000000 0.000000 0.000000
# 2 -0.002180 0.008225 -0.005674 0.000000 0.000000 0.000000
# 3 0.003579 -0.005674 0.024539 0.000000 0.000000 0.000000
# 4 0.000000 0.000000 0.000000 0.053002 0.000000 0.000000
# 5 0.000000 0.000000 0.000000 0.000000 0.032899 0.000000
# 6 0.000000 0.000000 0.000000 0.000000 0.000000 0.049860
#
#
# Mechanical properties :
#
#
# Convention : Reuss Voigt Hill
#
# Bulk Modulus (GPa) = 28.71858 42.45789 35.58824
# Shear Modulus (GPa) = 25.08937 31.11607 28.10272
#
# Velocity S-wave (km/s) = 3.59888 4.00788 3.80888
# Velocity P-wave (km/s) = 5.66522 6.58298 6.14127
#
# Compressibility (1/GPa) = 0.03482066
#
# Stress axis : x y z
#
# Youngs Moduli (GPa) = 94.28448 121.57574 40.75207
#
# Poissons Ratio (x) = 0.26500 -0.14585
# Poissons Ratio (y) = 0.20551 0.23122
# Poissons Ratio (z) = -0.33743 0.68981
#
# Static dielectric constant tensor:
#      x y z
#    x 1.682800 0.000000 0.000000 
#    y 0.000000 1.658860 0.000000 
#    z 0.000000 0.000000 1.679220 
# 
# From -- ./inp_files/58718.got.cif
#   From: 2010.05.17/outbox.cif.g08.bks.cpg/sg74_30_cif.got.tgz:58718.got - 2010.06.03 17:57:02.
