data_PCOD9536358
_publ_section_title
;
Structure prediction by ZEFSAII (Michael W. Deem and Ramdas Pophale) SiO2 
 PCOD9536358
Probable space group: I M M A
;
_chemical_formula_sum "Si O2"
_cell_formula_units_Z 96
_cell_length_a 26.426649
_cell_length_b 26.009961
_cell_length_c 8.680391
_cell_angle_alpha 90.000000
_cell_angle_beta 90.000000
_cell_angle_gamma 90.000000
_cell_volume 5966.519790
_symmetry_space_group_name_H-M "I M M A"
_symmetry_group_IT_number 74
_symmetry_cell_setting 'orthorhombic'
loop_
_space_group_symop_operation_xyz
x,y,z
-x,1/2-y,z
x,-y,-z
-x,1/2+y,-z
-x,-y,-z
x,1/2+y,-z
-x,y,z
x,1/2-y,z
1/2+x,1/2+y,1/2+z
1/2-x,-y,1/2+z
1/2+x,1/2-y,1/2-z
1/2-x,y,1/2-z
1/2-x,1/2-y,1/2-z
1/2+x,y,1/2-z
1/2-x,1/2+y,1/2+z
1/2+x,-y,1/2+z
loop_
_atom_site_type_symbol
_atom_site_label
_atom_site_fract_x
_atom_site_fract_y
_atom_site_fract_z
Si Si1 0.220491 0.879912 0.395674
Si Si2 0.285534 0.955500 0.613544
Si Si3 0.558831 0.485846 0.322170
Si Si4 0.305518 0.189193 0.171397
Si Si5 0.133573 0.047947 0.595885
Si Si6 0.621861 0.101223 0.221084
O O1 0.250000 0.859429 0.250000
O O2 0.254551 0.914202 0.511993
O O3 0.199414 0.834248 0.500514
O O4 0.177453 0.918267 0.330112
O O5 0.250000 0.976142 0.750000
O O6 0.332146 0.930596 0.702224
O O7 0.302472 0.000000 0.500000
O O8 0.567043 0.500000 0.500000
O O9 0.500000 0.493582 0.283591
O O10 0.593206 0.522097 0.210539
O O11 0.573911 0.425767 0.300077
O O12 0.312865 0.250000 0.177070
O O13 0.250000 0.178305 0.250000
O O14 0.354601 0.158266 0.236826
O O15 0.114260 0.085386 0.458478
O O16 0.156381 0.000000 0.500000
#
# Coordination Sequence:
#
# PCOD9536358 Si02
#       6
#    16  16  16  16  16  16
#     4  11  21  30  47  75 106 142 180 215 253 305
#     4  12  21  30  45  73 109 142 174 206 247 310
#     4  10  22  36  52  76 108 141 172 214 265 319
#     4  10  19  36  54  71 102 140 180 223 264 306
#     4   9  19  32  45  69 100 139 171 207 251 306
#     4  10  19  34  50  73 100 134 177 215 254 309
#
# _framework density 16.089782
#
# number of rings (size 3 to 8) (size 9 to 14) (size 15 to 20)
#    0.000    1.667    5.000    1.500    9.333    3.333 
#    0.000    0.000    0.000    0.500    0.000    0.000 
#    0.000    5.333    0.000    0.000    0.000    0.000 
#
# Total GULP energy -267209.687539 kJ/mol
# GULP energy per Si atom -5566.868490 kJ/mol
# Density = 1.605316 g / cm^3
# Si number density = 16.089782 Si / 1000 Ang^3
#
#
#
# Elastic Constant Matrix: (Units=GPa)
#
#
# Indices 1 2 3 4 5 6 
#
# 1 61.8925 31.5897 32.8396 0.0000 0.0000 0.0000
# 2 31.5897 96.3224 31.3731 0.0000 0.0000 0.0000
# 3 32.8396 31.3731 68.8584 0.0000 0.0000 0.0000
# 4 0.0000 0.0000 0.0000 16.7371 0.0000 0.0000
# 5 0.0000 0.0000 0.0000 0.0000 25.0574 0.0000
# 6 0.0000 0.0000 0.0000 0.0000 0.0000 16.7883
#
#
#
# Elastic Compliance Matrix: (Units=1/GPa)
#
#
# Indices 1 2 3 4 5 6 
#
# 1 0.023332 -0.004729 -0.008972 0.000000 0.000000 0.000000
# 2 -0.004729 0.013150 -0.003736 0.000000 0.000000 0.000000
# 3 -0.008972 -0.003736 0.020504 0.000000 0.000000 0.000000
# 4 0.000000 0.000000 0.000000 0.059748 0.000000 0.000000
# 5 0.000000 0.000000 0.000000 0.000000 0.039908 0.000000
# 6 0.000000 0.000000 0.000000 0.000000 0.000000 0.059565
#
#
# Mechanical properties :
#
#
# Convention : Reuss Voigt Hill
#
# Bulk Modulus (GPa) = 45.22852 46.51978 45.87415
# Shear Modulus (GPa) = 19.34604 20.46796 19.90700
#
# Velocity S-wave (km/s) = 3.47130 3.57053 3.52127
# Velocity P-wave (km/s) = 6.65114 6.78039 6.71607
#
# Compressibility (1/GPa) = 0.02210994
#
# Stress axis : x y z
#
# Youngs Moduli (GPa) = 42.86037 76.04812 48.77183
#
# Poissons Ratio (x) = 0.35966 0.43760
# Poissons Ratio (y) = 0.20270 0.18219
# Poissons Ratio (z) = 0.38456 0.28409
#
# Static dielectric constant tensor:
#      x y z
#    x 1.572850 0.000000 0.000000 
#    y 0.000000 1.546750 0.000000 
#    z 0.000000 0.000000 1.560800 
# 
# From -- ./inp_files/13915.got.cif
#   From: 2010.05.17/outbox.cif.g08.bks.cpg/sg74_7_cif.got.tgz:13915.got - 2010.06.03 17:57:02.
