data_PCOD9536697
_publ_section_title
;
Structure prediction by ZEFSAII (Michael W. Deem and Ramdas Pophale) SiO2 
 PCOD9536697
Probable space group: I M M A
;
_chemical_formula_sum "Si O2"
_cell_formula_units_Z 104
_cell_length_a 20.598454
_cell_length_b 26.558128
_cell_length_c 10.070132
_cell_angle_alpha 90.000000
_cell_angle_beta 90.000000
_cell_angle_gamma 90.000000
_cell_volume 5508.929937
_symmetry_space_group_name_H-M "I M M A"
_symmetry_group_IT_number 74
_symmetry_cell_setting 'orthorhombic'
loop_
_space_group_symop_operation_xyz
x,y,z
-x,1/2-y,z
x,-y,-z
-x,1/2+y,-z
-x,-y,-z
x,1/2+y,-z
-x,y,z
x,1/2-y,z
1/2+x,1/2+y,1/2+z
1/2-x,-y,1/2+z
1/2+x,1/2-y,1/2-z
1/2-x,y,1/2-z
1/2-x,1/2-y,1/2-z
1/2+x,y,1/2-z
1/2-x,1/2+y,1/2+z
1/2+x,-y,1/2+z
loop_
_atom_site_type_symbol
_atom_site_label
_atom_site_fract_x
_atom_site_fract_y
_atom_site_fract_z
Si Si1 0.924147 0.250000 0.131685
Si Si2 0.423924 0.494225 0.157988
Si Si3 0.318467 0.912732 0.790469
Si Si4 0.784612 0.844596 0.471675
Si Si5 0.639632 0.649962 0.542269
Si Si6 0.750000 0.094877 0.750000
Si Si7 0.364943 0.452020 0.601032
Si Si8 0.686669 0.750000 0.851967
O O1 0.905730 0.301581 0.054452
O O2 0.876181 0.250000 0.258523
O O3 0.000000 0.250000 0.165297
O O4 0.500000 0.483608 0.171382
O O5 0.378298 0.449426 0.206286
O O6 0.404601 0.537523 0.263438
O O7 0.410719 0.500000 0.000000
O O8 0.250000 0.937591 0.750000
O O9 0.335213 0.868265 0.687430
O O10 0.304286 0.889913 0.932457
O O11 0.707011 0.835456 0.471365
O O12 0.798614 0.867340 0.327694
O O13 0.812855 0.796819 0.547013
O O14 0.612965 0.599100 0.473877
O O15 0.708546 0.060599 0.649434
O O16 0.367628 0.500000 0.500000
O O17 0.750000 0.750000 0.750000
#
# Coordination Sequence:
#
# PCOD9536697 Si02
#       8
#     8  16  16  16  16   8  16   8
#     4  12  24  38  62  98 128 164 213 266 318 385
#     4  11  25  42  60  88 131 180 215 255 325 394
#     4  10  19  36  61  89 124 162 209 265 319 369
#     4  10  19  35  60  89 127 165 207 264 329 376
#     4  10  20  38  60  94 122 160 210 260 324 373
#     4  10  24  35  58 100 130 159 216 276 326 396
#     4  11  23  41  63  94 130 174 217 268 328 386
#     4  12  18  37  66  85 122 170 210 269 322 386
#
# _framework density 18.878440000000001
#
# number of rings (size 3 to 8) (size 9 to 14) (size 15 to 20)
#    0.000    1.385    4.615    1.385    1.077    2.462 
#    0.000    0.769    0.000    0.000    0.000    4.308 
#    0.000    0.000    0.000    0.000    0.000    0.000 
#
# Total GULP energy -289684.503889 kJ/mol
# GULP energy per Si atom -5570.855844 kJ/mol
# Density = 1.883547 g / cm^3
# Si number density = 18.878440 Si / 1000 Ang^3
#
#
#
# Elastic Constant Matrix: (Units=GPa)
#
#
# Indices 1 2 3 4 5 6 
#
# 1 80.0038 45.2346 22.3014 0.0000 0.0000 0.0000
# 2 45.2346 118.7463 47.8666 0.0000 0.0000 0.0000
# 3 22.3014 47.8666 112.6569 0.0000 0.0000 0.0000
# 4 0.0000 0.0000 0.0000 29.7676 0.0000 0.0000
# 5 0.0000 0.0000 0.0000 0.0000 24.0313 0.0000
# 6 0.0000 0.0000 0.0000 0.0000 0.0000 23.1374
#
#
#
# Elastic Compliance Matrix: (Units=1/GPa)
#
#
# Indices 1 2 3 4 5 6 
#
# 1 0.015976 -0.005805 -0.000696 0.000000 0.000000 0.000000
# 2 -0.005805 0.012271 -0.004065 0.000000 0.000000 0.000000
# 3 -0.000696 -0.004065 0.010741 0.000000 0.000000 0.000000
# 4 0.000000 0.000000 0.000000 0.033594 0.000000 0.000000
# 5 0.000000 0.000000 0.000000 0.000000 0.041612 0.000000
# 6 0.000000 0.000000 0.000000 0.000000 0.000000 0.043220
#
#
# Mechanical properties :
#
#
# Convention : Reuss Voigt Hill
#
# Bulk Modulus (GPa) = 56.00192 60.24579 58.12385
# Shear Modulus (GPa) = 27.10053 28.45420 27.77736
#
# Velocity S-wave (km/s) = 3.79295 3.88652 3.84002
# Velocity P-wave (km/s) = 6.99363 7.21954 7.10748
#
# Compressibility (1/GPa) = 0.01785653
#
# Stress axis : x y z
#
# Youngs Moduli (GPa) = 62.59518 81.49171 93.09828
#
# Poissons Ratio (x) = 0.47307 0.06479
# Poissons Ratio (y) = 0.36337 0.37842
# Poissons Ratio (z) = 0.04356 0.33124
#
# Static dielectric constant tensor:
#      x y z
#    x 1.634310 0.000000 0.000000 
#    y 0.000000 1.704320 0.000000 
#    z 0.000000 0.000000 1.704470 
# 
# From -- ./inp_files/12947.got.cif
#   From: 2010.05.17/outbox.cif.g08.bks.cpg/sg74_7_cif.got.tgz:12947.got - 2010.06.03 17:57:02.
