data_PCOD9536842
_publ_section_title
;
Structure prediction by ZEFSAII (Michael W. Deem and Ramdas Pophale) SiO2 
 PCOD9536842
Probable space group: I M M A
;
_chemical_formula_sum "Si O2"
_cell_formula_units_Z 96
_cell_length_a 8.846058
_cell_length_b 24.699592
_cell_length_c 22.574838
_cell_angle_alpha 90.000000
_cell_angle_beta 90.000000
_cell_angle_gamma 90.000000
_cell_volume 4932.467182
_symmetry_space_group_name_H-M "I M M A"
_symmetry_group_IT_number 74
_symmetry_cell_setting 'orthorhombic'
loop_
_space_group_symop_operation_xyz
x,y,z
-x,1/2-y,z
x,-y,-z
-x,1/2+y,-z
-x,-y,-z
x,1/2+y,-z
-x,y,z
x,1/2-y,z
1/2+x,1/2+y,1/2+z
1/2-x,-y,1/2+z
1/2+x,1/2-y,1/2-z
1/2-x,y,1/2-z
1/2-x,1/2-y,1/2-z
1/2+x,y,1/2-z
1/2-x,1/2+y,1/2+z
1/2+x,-y,1/2+z
loop_
_atom_site_type_symbol
_atom_site_label
_atom_site_fract_x
_atom_site_fract_y
_atom_site_fract_z
Si Si1 0.323954 0.561688 0.485436
Si Si2 0.181805 0.433383 0.185750
Si Si3 0.822058 0.333732 0.689533
Si Si4 0.675157 0.557918 0.344574
Si Si5 0.820202 0.137716 0.419925
Si Si6 0.680885 0.750000 0.541631
Si Si7 0.683128 0.250000 0.910093
O O1 0.280965 0.500000 0.500000
O O2 0.500000 0.569016 0.504165
O O3 0.316053 0.566616 0.415089
O O4 0.223337 0.603491 0.521447
O O5 0.250000 0.420730 0.250000
O O6 0.217348 0.496347 0.170743
O O7 0.252175 0.395356 0.135362
O O8 0.000000 0.428100 0.185677
O O9 0.750000 0.312644 0.750000
O O10 0.778219 0.396394 0.683664
O O11 0.772992 0.301341 0.630732
O O12 0.000000 0.326813 0.693697
O O13 0.500000 0.566133 0.326320
O O14 0.745346 0.196358 0.427249
O O15 0.000000 0.142381 0.414603
O O16 0.500000 0.750000 0.542628
O O17 0.738727 0.750000 0.473582
O O18 0.500000 0.250000 0.918520
#
# Coordination Sequence:
#
# PCOD9536842 Si02
#       7
#    16  16  16  16  16   8   8
#     4  10  19  37  62  92 127 165 207 256 310 367
#     4  11  23  42  64  91 125 165 207 255 311 374
#     4  11  23  38  58  84 121 164 212 260 308 364
#     4  10  21  37  60  89 125 164 206 254 308 367
#     4  12  25  42  65  96 130 165 207 257 310 371
#     4  12  26  45  70  95 123 164 205 254 314 374
#     4  10  23  43  63  89 121 158 205 264 315 368
#
# _framework density 19.462876999999999
#
# number of rings (size 3 to 8) (size 9 to 14) (size 15 to 20)
#    0.000    1.167    1.667    5.000    0.000    7.667 
#    0.000    0.417    0.000    0.000    0.000    0.000 
#    0.000    0.000    0.000    0.000    0.000    0.000 
#
# Total GULP energy -268498.895164 kJ/mol
# GULP energy per Si atom -5593.726983 kJ/mol
# Density = 1.941858 g / cm^3
# Si number density = 19.462877 Si / 1000 Ang^3
#
#
#
# Elastic Constant Matrix: (Units=GPa)
#
#
# Indices 1 2 3 4 5 6 
#
# 1 94.6357 63.1013 40.6848 0.0000 0.0000 0.0000
# 2 63.1013 130.4685 48.4946 0.0000 0.0000 0.0000
# 3 40.6848 48.4946 88.3649 0.0000 0.0000 0.0000
# 4 0.0000 0.0000 0.0000 7.2369 0.0000 0.0000
# 5 0.0000 0.0000 0.0000 0.0000 36.0891 0.0000
# 6 0.0000 0.0000 0.0000 0.0000 0.0000 11.9243
#
#
#
# Elastic Compliance Matrix: (Units=1/GPa)
#
#
# Indices 1 2 3 4 5 6 
#
# 1 0.016696 -0.006555 -0.004090 0.000000 0.000000 0.000000
# 2 -0.006555 0.012202 -0.003679 0.000000 0.000000 0.000000
# 3 -0.004090 -0.003679 0.015219 0.000000 0.000000 0.000000
# 4 0.000000 0.000000 0.000000 0.138181 0.000000 0.000000
# 5 0.000000 0.000000 0.000000 0.000000 0.027709 0.000000
# 6 0.000000 0.000000 0.000000 0.000000 0.000000 0.083863
#
#
# Mechanical properties :
#
#
# Convention : Reuss Voigt Hill
#
# Bulk Modulus (GPa) = 64.64062 68.67005 66.65534
# Shear Modulus (GPa) = 15.25916 21.79594 18.52755
#
# Velocity S-wave (km/s) = 2.80306 3.35008 3.08870
# Velocity P-wave (km/s) = 6.61518 7.09389 6.85871
#
# Compressibility (1/GPa) = 0.01547015
#
# Stress axis : x y z
#
# Youngs Moduli (GPa) = 59.89594 81.95223 65.70924
#
# Poissons Ratio (x) = 0.53717 0.26873
# Poissons Ratio (y) = 0.39260 0.24172
# Poissons Ratio (z) = 0.24496 0.30147
#
# Static dielectric constant tensor:
#      x y z
#    x 1.657380 0.000000 0.000000 
#    y 0.000000 1.671440 0.000000 
#    z 0.000000 0.000000 1.683480 
# 
# From -- ./inp_files/57313.got.cif
#   From: 2010.05.17/outbox.cif.g08.bks.cpg/sg74_29_cif.got.tgz:57313.got - 2010.06.03 17:57:02.
