data_PCOD9536277
_publ_section_title
;
Structure prediction by ZEFSAII (Michael W. Deem and Ramdas Pophale) SiO2 
 PCOD9536277
Probable space group: I M M A
;
_chemical_formula_sum "Si O2"
_cell_formula_units_Z 80
_cell_length_a 9.993247
_cell_length_b 14.303035
_cell_length_c 23.515634
_cell_angle_alpha 90.000000
_cell_angle_beta 90.000000
_cell_angle_gamma 90.000000
_cell_volume 3361.178024
_symmetry_space_group_name_H-M "I M M A"
_symmetry_group_IT_number 74
_symmetry_cell_setting 'orthorhombic'
loop_
_space_group_symop_operation_xyz
x,y,z
-x,1/2-y,z
x,-y,-z
-x,1/2+y,-z
-x,-y,-z
x,1/2+y,-z
-x,y,z
x,1/2-y,z
1/2+x,1/2+y,1/2+z
1/2-x,-y,1/2+z
1/2+x,1/2-y,1/2-z
1/2-x,y,1/2-z
1/2-x,1/2-y,1/2-z
1/2+x,y,1/2-z
1/2-x,1/2+y,1/2+z
1/2+x,-y,1/2+z
loop_
_atom_site_type_symbol
_atom_site_label
_atom_site_fract_x
_atom_site_fract_y
_atom_site_fract_z
Si Si1 0.344097 0.635563 0.196695
Si Si2 0.000000 0.635097 0.715185
Si Si3 0.644353 0.888975 0.999771
Si Si4 0.847505 0.641158 0.096537
Si Si5 0.716438 0.859199 0.872071
Si Si6 0.000000 0.635714 0.846867
O O1 0.500000 0.604832 0.199891
O O2 0.349969 0.750000 0.195881
O O3 0.250000 0.609477 0.250000
O O4 0.262638 0.602431 0.140827
O O5 0.127035 0.601842 0.678821
O O6 0.000000 0.750000 0.714875
O O7 0.000000 0.608796 0.780632
O O8 0.500000 0.856436 0.023751
O O9 0.652686 0.862022 0.933939
O O10 0.773172 0.860057 0.035762
O O11 0.643679 0.000000 0.000000
O O12 0.861234 0.750000 0.112798
O O13 0.000000 0.603256 0.096546
O O14 0.730021 0.750000 0.856954
O O15 0.864585 0.899470 0.874878
O O16 0.000000 0.750000 0.850714
#
# Coordination Sequence:
#
# PCOD9536277 Si02
#       6
#    16   8  16  16  16   8
#     4   9  16  28  50  81 114 144 176 220 276 332
#     4   9  16  30  53  82 112 144 177 222 276 331
#     4  11  24  40  56  77 107 151 194 235 278 332
#     4  10  21  36  57  85 113 142 182 233 284 338
#     4  10  19  33  55  83 114 145 182 229 278 331
#     4   9  18  30  51  84 116 140 175 224 280 335
#
# _framework density 23.801178
#
# number of rings (size 3 to 8) (size 9 to 14) (size 15 to 20)
#    0.000    2.200    1.000    2.400    1.400    7.200 
#    0.000    0.000    0.000    2.400    0.000    0.000 
#    0.000    0.000    0.000    0.000    0.000    0.000 
#
# Total GULP energy -223468.714932 kJ/mol
# GULP energy per Si atom -5586.717873 kJ/mol
# Density = 2.374701 g / cm^3
# Si number density = 23.801178 Si / 1000 Ang^3
#
#
#
# Elastic Constant Matrix: (Units=GPa)
#
#
# Indices 1 2 3 4 5 6 
#
# 1 239.5788 15.2710 59.4411 0.0000 0.0000 0.0000
# 2 15.2710 59.0873 -20.5860 0.0000 0.0000 0.0000
# 3 59.4411 -20.5860 72.4106 0.0000 0.0000 0.0000
# 4 0.0000 0.0000 0.0000 -22.7191 0.0000 0.0000
# 5 0.0000 0.0000 0.0000 0.0000 36.4407 0.0000
# 6 0.0000 0.0000 0.0000 0.0000 0.0000 25.1396
#
#
#
# Elastic Compliance Matrix: (Units=1/GPa)
#
#
# Indices 1 2 3 4 5 6 
#
# 1 0.005836 -0.003527 -0.005794 0.000000 0.000000 0.000000
# 2 -0.003527 0.020916 0.008841 0.000000 0.000000 0.000000
# 3 -0.005794 0.008841 0.021080 0.000000 0.000000 0.000000
# 4 0.000000 0.000000 0.000000 -0.044016 0.000000 0.000000
# 5 0.000000 0.000000 0.000000 0.000000 0.027442 0.000000
# 6 0.000000 0.000000 0.000000 0.000000 0.000000 0.039778
#
#
# Mechanical properties :
#
#
# Convention : Reuss Voigt Hill
#
# Bulk Modulus (GPa) = 21.33381 53.25876 37.29628
# Shear Modulus (GPa) = 57.06573 28.90227 42.98400
#
# Velocity S-wave (km/s) = 4.90184 3.48849 4.25427
# Velocity P-wave (km/s) = 6.40470 6.21701 6.31155
#
# Compressibility (1/GPa) = 0.04687395
#
# Stress axis : x y z
#
# Youngs Moduli (GPa) = 171.34402 47.81035 47.43926
#
# Poissons Ratio (x) = 0.16862 0.27484
# Poissons Ratio (y) = 0.60430 -0.41943
# Poissons Ratio (z) = 0.99269 -0.42271
#
# Static dielectric constant tensor:
#      x y z
#    x 1.917500 0.000000 0.000000 
#    y 0.000000 1.958730 0.000000 
#    z 0.000000 0.000000 1.845860 
# 
# From -- ./inp_files/63982.got.cif
#   From: 2010.05.17/outbox.cif.g08.bks.cpg/sg74_32_cif.got.tgz:63982.got - 2010.06.03 17:57:02.
