data_PCOD9536700
_publ_section_title
;
Structure prediction by ZEFSAII (Michael W. Deem and Ramdas Pophale) SiO2 
 PCOD9536700
Probable space group: I M M A
;
_chemical_formula_sum "Si O2"
_cell_formula_units_Z 116
_cell_length_a 22.026407
_cell_length_b 9.766117
_cell_length_c 24.731169
_cell_angle_alpha 90.000000
_cell_angle_beta 90.000000
_cell_angle_gamma 90.000000
_cell_volume 5319.982796
_symmetry_space_group_name_H-M "I M M A"
_symmetry_group_IT_number 74
_symmetry_cell_setting 'orthorhombic'
loop_
_space_group_symop_operation_xyz
x,y,z
-x,1/2-y,z
x,-y,-z
-x,1/2+y,-z
-x,-y,-z
x,1/2+y,-z
-x,y,z
x,1/2-y,z
1/2+x,1/2+y,1/2+z
1/2-x,-y,1/2+z
1/2+x,1/2-y,1/2-z
1/2-x,y,1/2-z
1/2-x,1/2-y,1/2-z
1/2+x,y,1/2-z
1/2-x,1/2+y,1/2+z
1/2+x,-y,1/2+z
loop_
_atom_site_type_symbol
_atom_site_label
_atom_site_fract_x
_atom_site_fract_y
_atom_site_fract_z
Si Si1 0.144049 0.906883 0.738881
Si Si2 0.634685 0.103394 0.667867
Si Si3 0.279578 0.409057 0.843234
Si Si4 0.250736 0.409118 0.053977
Si Si5 0.108272 0.463251 0.062564
Si Si6 0.428336 0.395268 0.134841
Si Si7 0.500000 0.250000 0.416567
Si Si8 0.425948 0.599098 0.047542
O O1 0.166811 0.750000 0.746251
O O2 0.088816 0.900581 0.696781
O O3 0.121267 0.975151 0.793838
O O4 0.190187 0.007252 0.706467
O O5 0.613321 0.250000 0.690011
O O6 0.707724 0.104470 0.667176
O O7 0.611542 0.083635 0.606936
O O8 0.301847 0.250000 0.848844
O O9 0.280466 0.507789 0.896131
O O10 0.270394 0.250000 0.049333
O O11 0.177507 0.406107 0.063802
O O12 0.260159 0.500000 0.000000
O O13 0.054073 0.366618 0.080780
O O14 0.097153 0.500000 0.000000
O O15 0.500000 0.390784 0.127274
O O16 0.403708 0.250000 0.112586
O O17 0.408361 0.529356 0.103477
O O18 0.500000 0.605947 0.044972
O O19 0.401694 0.750000 0.041151
O O20 0.406244 0.500000 0.000000
#
# Coordination Sequence:
#
# PCOD9536700 Si02
#       8
#    16  16  16  16  16  16   4  16
#     4  11  23  38  61  91 120 153 201 253 306 366
#     4  10  23  42  63  88 120 158 201 250 309 372
#     4  10  21  38  62  89 120 157 200 256 315 369
#     4  10  19  35  60  90 126 167 211 256 313 382
#     4  10  23  39  63  90 126 167 210 255 312 368
#     4   9  19  37  56  77 110 152 191 232 283 345
#     4  12  22  40  62  96 126 170 212 268 300 372
#     4   9  16  27  48  77 104 137 180 225 268 318
#
# _framework density 21.804582
#
# number of rings (size 3 to 8) (size 9 to 14) (size 15 to 20)
#    0.000    2.069    0.690    2.276    1.931    7.172 
#    1.241    0.690    0.000    3.310    0.000    0.000 
#    0.000    0.000    0.000    0.000    0.000    0.000 
#
# Total GULP energy -323071.262648 kJ/mol
# GULP energy per Si atom -5570.194184 kJ/mol
# Density = 2.175495 g / cm^3
# Si number density = 21.804582 Si / 1000 Ang^3
#
#
#
# Elastic Constant Matrix: (Units=GPa)
#
#
# Indices 1 2 3 4 5 6 
#
# 1 60.4426 20.6998 -0.5029 0.0000 0.0000 0.0000
# 2 20.6998 208.7757 70.5845 0.0000 0.0000 0.0000
# 3 -0.5029 70.5845 107.5276 0.0000 0.0000 0.0000
# 4 0.0000 0.0000 0.0000 21.0039 0.0000 0.0000
# 5 0.0000 0.0000 0.0000 0.0000 13.1138 0.0000
# 6 0.0000 0.0000 0.0000 0.0000 0.0000 8.8767
#
#
#
# Elastic Compliance Matrix: (Units=1/GPa)
#
#
# Indices 1 2 3 4 5 6 
#
# 1 0.017326 -0.002243 0.001553 0.000000 0.000000 0.000000
# 2 -0.002243 0.006446 -0.004242 0.000000 0.000000 0.000000
# 3 0.001553 -0.004242 0.012092 0.000000 0.000000 0.000000
# 4 0.000000 0.000000 0.000000 0.047610 0.000000 0.000000
# 5 0.000000 0.000000 0.000000 0.000000 0.076256 0.000000
# 6 0.000000 0.000000 0.000000 0.000000 0.000000 0.112654
#
#
# Mechanical properties :
#
#
# Convention : Reuss Voigt Hill
#
# Bulk Modulus (GPa) = 38.46072 62.03430 50.24751
# Shear Modulus (GPa) = 17.18719 27.66318 22.42518
#
# Velocity S-wave (km/s) = 2.81060 3.56573 3.21044
# Velocity P-wave (km/s) = 5.31129 6.74273 6.06936
#
# Compressibility (1/GPa) = 0.02600055
#
# Stress axis : x y z
#
# Youngs Moduli (GPa) = 57.71773 155.12448 82.70017
#
# Poissons Ratio (x) = 0.34794 -0.12847
# Poissons Ratio (y) = 0.12946 0.35083
# Poissons Ratio (z) = -0.08966 0.65806
#
# Static dielectric constant tensor:
#      x y z
#    x 1.799320 0.000000 0.000000 
#    y 0.000000 1.783840 0.000000 
#    z 0.000000 0.000000 1.797580 
# 
# From -- ./inp_files/68760.got.cif
#   From: 2010.05.17/outbox.cif.g08.bks.cpg/sg74_35_cif.got.tgz:68760.got - 2010.06.03 17:57:02.
