data_PCOD9536521
_publ_section_title
;
Structure prediction by ZEFSAII (Michael W. Deem and Ramdas Pophale) SiO2 
 PCOD9536521
Probable space group: I M M A
;
_chemical_formula_sum "Si O2"
_cell_formula_units_Z 80
_cell_length_a 18.289095
_cell_length_b 28.648771
_cell_length_c 7.501815
_cell_angle_alpha 90.000000
_cell_angle_beta 90.000000
_cell_angle_gamma 90.000000
_cell_volume 3930.651696
_symmetry_space_group_name_H-M "I M M A"
_symmetry_group_IT_number 74
_symmetry_cell_setting 'orthorhombic'
loop_
_space_group_symop_operation_xyz
x,y,z
-x,1/2-y,z
x,-y,-z
-x,1/2+y,-z
-x,-y,-z
x,1/2+y,-z
-x,y,z
x,1/2-y,z
1/2+x,1/2+y,1/2+z
1/2-x,-y,1/2+z
1/2+x,1/2-y,1/2-z
1/2-x,y,1/2-z
1/2-x,1/2-y,1/2-z
1/2+x,y,1/2-z
1/2-x,1/2+y,1/2+z
1/2+x,-y,1/2+z
loop_
_atom_site_type_symbol
_atom_site_label
_atom_site_fract_x
_atom_site_fract_y
_atom_site_fract_z
Si Si1 0.586471 0.194791 0.622461
Si Si2 0.581647 0.026921 0.814148
Si Si3 0.588203 0.126440 0.945892
Si Si4 0.190470 0.039439 0.109627
Si Si5 0.831610 0.139256 0.176648
O O1 0.500000 0.185138 0.586556
O O2 0.594965 0.250000 0.648658
O O3 0.605563 0.167019 0.804292
O O4 0.634339 0.177361 0.455709
O O5 0.500000 0.033749 0.739912
O O6 0.614334 0.077332 0.860964
O O7 0.627665 0.993596 0.687890
O O8 0.576255 0.000000 0.000000
O O9 0.500000 0.123199 0.963722
O O10 0.621649 0.132716 0.141963
O O11 0.250000 0.054787 0.250000
O O12 0.162433 0.090634 0.059913
O O13 0.233727 0.000000 0.000000
O O14 0.750000 0.150536 0.250000
#
# Coordination Sequence:
#
# PCOD9536521 Si02
#       5
#    16  16  16  16  16
#     4  10  23  44  68  93 120 158 212 267 317 372
#     4  10  19  34  57  84 116 153 197 248 297 353
#     4  10  21  40  65  89 122 163 208 261 315 368
#     4  11  23  36  55  84 123 167 205 244 294 361
#     4  11  24  39  60  95 128 166 205 253 312 375
#
# _framework density 20.352858999999999
#
# number of rings (size 3 to 8) (size 9 to 14) (size 15 to 20)
#    0.000    1.600    2.000    2.400    2.800    3.200 
#    0.000    3.000    0.000    0.000    0.000    0.000 
#    0.000    0.000    0.000    0.000    0.000    0.000 
#
# Total GULP energy -222952.235300 kJ/mol
# GULP energy per Si atom -5573.805882 kJ/mol
# Density = 2.030653 g / cm^3
# Si number density = 20.352859 Si / 1000 Ang^3
#
#
#
# Elastic Constant Matrix: (Units=GPa)
#
#
# Indices 1 2 3 4 5 6 
#
# 1 41.6250 24.1454 20.4367 0.0000 0.0000 0.0000
# 2 24.1454 129.4867 30.5656 0.0000 0.0000 0.0000
# 3 20.4367 30.5656 67.9186 0.0000 0.0002 0.0000
# 4 0.0000 0.0000 0.0000 26.1718 0.0000 0.0000
# 5 0.0000 0.0000 0.0002 0.0000 19.5214 0.0000
# 6 0.0000 0.0000 0.0000 0.0000 0.0000 32.2612
#
#
#
# Elastic Compliance Matrix: (Units=1/GPa)
#
#
# Indices 1 2 3 4 5 6 
#
# 1 0.029811 -0.003850 -0.007237 0.000000 0.000000 0.000000
# 2 -0.003850 0.009138 -0.002954 0.000000 0.000000 0.000000
# 3 -0.007237 -0.002954 0.018231 0.000000 0.000000 0.000000
# 4 0.000000 0.000000 0.000000 0.038209 0.000000 0.000000
# 5 0.000000 0.000000 0.000000 0.000000 0.051226 0.000000
# 6 0.000000 0.000000 0.000000 0.000000 0.000000 0.030997
#
#
# Mechanical properties :
#
#
# Convention : Reuss Voigt Hill
#
# Bulk Modulus (GPa) = 34.36860 43.25843 38.81351
# Shear Modulus (GPa) = 23.21335 26.51637 24.86486
#
# Velocity S-wave (km/s) = 3.38086 3.61339 3.49906
# Velocity P-wave (km/s) = 5.67127 6.22167 5.95284
#
# Compressibility (1/GPa) = 0.02909633
#
# Stress axis : x y z
#
# Youngs Moduli (GPa) = 33.54485 109.43248 54.85308
#
# Poissons Ratio (x) = 0.42137 0.39699
# Poissons Ratio (y) = 0.12916 0.16203
# Poissons Ratio (z) = 0.24277 0.32324
#
# Static dielectric constant tensor:
#      x y z
#    x 1.811120 0.000000 0.000000 
#    y 0.000000 1.574990 0.000000 
#    z 0.000000 0.000000 1.535820 
# 
# From -- ./inp_files/11131.got.cif
#   From: 2010.05.17/outbox.cif.g08.bks.cpg/sg74_6_cif.got.tgz:11131.got - 2010.06.03 17:57:02.
