data_PCOD9536901
_publ_section_title
;
Structure prediction by ZEFSAII (Michael W. Deem and Ramdas Pophale) SiO2 
 PCOD9536901
Probable space group: I M M A
;
_chemical_formula_sum "Si O2"
_cell_formula_units_Z 116
_cell_length_a 28.041245
_cell_length_b 18.157376
_cell_length_c 11.744247
_cell_angle_alpha 90.000000
_cell_angle_beta 90.000000
_cell_angle_gamma 90.000000
_cell_volume 5979.647119
_symmetry_space_group_name_H-M "I M M A"
_symmetry_group_IT_number 74
_symmetry_cell_setting 'orthorhombic'
loop_
_space_group_symop_operation_xyz
x,y,z
-x,1/2-y,z
x,-y,-z
-x,1/2+y,-z
-x,-y,-z
x,1/2+y,-z
-x,y,z
x,1/2-y,z
1/2+x,1/2+y,1/2+z
1/2-x,-y,1/2+z
1/2+x,1/2-y,1/2-z
1/2-x,y,1/2-z
1/2-x,1/2-y,1/2-z
1/2+x,y,1/2-z
1/2-x,1/2+y,1/2+z
1/2+x,-y,1/2+z
loop_
_atom_site_type_symbol
_atom_site_label
_atom_site_fract_x
_atom_site_fract_y
_atom_site_fract_z
Si Si1 0.855752 0.837751 0.492298
Si Si2 0.192509 0.165687 0.751279
Si Si3 0.500000 0.750000 0.459668
Si Si4 0.760633 0.162915 0.383059
Si Si5 0.054971 0.428172 0.421874
Si Si6 0.823280 0.086970 0.980180
Si Si7 0.945758 0.506280 0.816342
Si Si8 0.424689 0.882724 0.483552
O O1 0.862464 0.750000 0.497118
O O2 0.832486 0.853939 0.368379
O O3 0.814449 0.858139 0.582748
O O4 0.905792 0.875463 0.521780
O O5 0.177016 0.250000 0.780327
O O6 0.250000 0.167719 0.750000
O O7 0.180994 0.107682 0.848431
O O8 0.458218 0.814239 0.462623
O O9 0.755130 0.250000 0.412687
O O10 0.750000 0.153966 0.250000
O O11 0.723141 0.116122 0.455234
O O12 0.052292 0.500000 0.500000
O O13 0.072722 0.455616 0.297910
O O14 0.000000 0.398651 0.411357
O O15 0.870354 0.130669 0.020765
O O16 0.829908 0.000000 0.000000
O O17 0.922104 0.434226 0.870695
O O18 0.000000 0.484183 0.789274
O O19 0.945757 0.566521 0.916289
#
# Coordination Sequence:
#
# PCOD9536901 Si02
#       8
#    16  16   4  16  16  16  16  16
#     4  10  22  43  69  96 130 172 221 278 331 388
#     4  10  21  43  69  91 129 178 222 269 329 397
#     4  12  24  42  64 104 126 170 228 276 334 404
#     4  10  23  43  63  92 134 174 210 263 333 395
#     4  10  24  42  67  93 126 179 225 265 329 407
#     4  12  25  38  63 100 131 168 217 274 326 397
#     4  10  19  44  65  84 132 174 210 268 336 398
#     4  11  23  39  63  97 130 164 218 277 336 392
#
# _framework density 19.399137
#
# number of rings (size 3 to 8) (size 9 to 14) (size 15 to 20)
#    0.000    1.517    4.138    0.828    5.793    1.379 
#    1.241    0.000    0.000    0.000    0.000    0.000 
#    0.000    0.000    0.000    0.000    0.000    0.000 
#
# Total GULP energy -323042.908416 kJ/mol
# GULP energy per Si atom -5569.705318 kJ/mol
# Density = 1.935498 g / cm^3
# Si number density = 19.399137 Si / 1000 Ang^3
#
#
#
# Elastic Constant Matrix: (Units=GPa)
#
#
# Indices 1 2 3 4 5 6 
#
# 1 136.9757 63.4979 39.1047 0.0000 0.0000 0.0000
# 2 63.4979 93.8218 52.8535 0.0000 0.0000 0.0000
# 3 39.1047 52.8535 104.8756 0.0000 0.0000 0.0000
# 4 0.0000 0.0000 0.0000 15.4602 0.0000 0.0000
# 5 0.0000 0.0000 0.0000 0.0000 34.6806 0.0000
# 6 0.0000 0.0000 0.0000 0.0000 0.0000 170.2779
#
#
#
# Elastic Compliance Matrix: (Units=1/GPa)
#
#
# Indices 1 2 3 4 5 6 
#
# 1 0.010655 -0.006945 -0.000473 0.000000 0.000000 0.000000
# 2 -0.006945 0.019411 -0.007193 0.000000 0.000000 0.000000
# 3 -0.000473 -0.007193 0.013336 0.000000 0.000000 0.000000
# 4 0.000000 0.000000 0.000000 0.064682 0.000000 0.000000
# 5 0.000000 0.000000 0.000000 0.000000 0.028835 0.000000
# 6 0.000000 0.000000 0.000000 0.000000 0.000000 0.005873
#
#
# Mechanical properties :
#
#
# Convention : Reuss Voigt Hill
#
# Bulk Modulus (GPa) = 70.51725 71.84282 71.18004
# Shear Modulus (GPa) = 28.29020 56.09821 42.19421
#
# Velocity S-wave (km/s) = 3.82294 5.38337 4.66881
# Velocity P-wave (km/s) = 7.47771 8.70375 8.11392
#
# Compressibility (1/GPa) = 0.01418093
#
# Stress axis : x y z
#
# Youngs Moduli (GPa) = 93.85279 51.51811 74.98293
#
# Poissons Ratio (x) = 0.35778 0.03547
# Poissons Ratio (y) = 0.65179 0.53934
# Poissons Ratio (z) = 0.04439 0.37056
#
# Static dielectric constant tensor:
#      x y z
#    x 1.723610 0.000000 0.000000 
#    y 0.000000 1.664840 0.000000 
#    z 0.000000 0.000000 1.698150 
# 
# From -- ./inp_files/26398.got.cif
#   From: 2010.05.17/outbox.cif.g08.bks.cpg/sg74_14_cif.got.tgz:26398.got - 2010.06.03 17:57:02.
