data_PCOD9536560
_publ_section_title
;
Structure prediction by ZEFSAII (Michael W. Deem and Ramdas Pophale) SiO2 
 PCOD9536560
Probable space group: I M M A
;
_chemical_formula_sum "Si O2"
_cell_formula_units_Z 72
_cell_length_a 27.623129
_cell_length_b 7.768885
_cell_length_c 18.211820
_cell_angle_alpha 90.000000
_cell_angle_beta 90.000000
_cell_angle_gamma 90.000000
_cell_volume 3908.273191
_symmetry_space_group_name_H-M "I M M A"
_symmetry_group_IT_number 74
_symmetry_cell_setting 'orthorhombic'
loop_
_space_group_symop_operation_xyz
x,y,z
-x,1/2-y,z
x,-y,-z
-x,1/2+y,-z
-x,-y,-z
x,1/2+y,-z
-x,y,z
x,1/2-y,z
1/2+x,1/2+y,1/2+z
1/2-x,-y,1/2+z
1/2+x,1/2-y,1/2-z
1/2-x,y,1/2-z
1/2-x,1/2-y,1/2-z
1/2+x,y,1/2-z
1/2-x,1/2+y,1/2+z
1/2+x,-y,1/2+z
loop_
_atom_site_type_symbol
_atom_site_label
_atom_site_fract_x
_atom_site_fract_y
_atom_site_fract_z
Si Si1 0.557588 0.750000 0.314986
Si Si2 0.344520 0.050857 0.083659
Si Si3 0.440843 0.056414 0.418092
Si Si4 0.295721 0.250000 0.694436
Si Si5 0.879570 0.750000 0.313461
Si Si6 0.272364 0.949728 0.584012
O O1 0.500000 0.750000 0.323865
O O2 0.575703 0.581537 0.358406
O O3 0.570406 0.750000 0.229891
O O4 0.356813 0.250000 0.097273
O O5 0.286186 0.032944 0.091001
O O6 0.369913 0.917556 0.137650
O O7 0.356182 0.000000 0.000000
O O8 0.500000 0.057648 0.418191
O O9 0.424338 0.250000 0.403066
O O10 0.426129 0.000000 0.500000
O O11 0.250000 0.250000 0.750000
O O12 0.341614 0.250000 0.746717
O O13 0.293897 0.416757 0.641973
O O14 0.284962 0.750000 0.597045
O O15 0.284703 0.000000 0.500000
#
# Coordination Sequence:
#
# PCOD9536560 Si02
#       6
#     8  16  16   8   8  16
#     4  10  22  38  56  82 115 148 185 240 294 330
#     4  10  19  34  60  88 109 142 194 232 267 333
#     4   9  15  28  55  83 103 136 187 230 268 326
#     4  12  22  36  54  86 120 143 180 240 277 327
#     4  12  24  38  56  88 118 144 183 240 291 329
#     4  10  19  34  59  81 112 159 194 220 270 334
#
# _framework density 18.422459
#
# number of rings (size 3 to 8) (size 9 to 14) (size 15 to 20)
#    0.000    1.778    5.556    0.000    0.000    2.222 
#    0.000    1.111    0.000    0.667    0.000    0.000 
#    0.000    0.000    0.000    0.000    0.000    0.000 
#
# Total GULP energy -201046.736792 kJ/mol
# GULP energy per Si atom -5584.631578 kJ/mol
# Density = 1.838053 g / cm^3
# Si number density = 18.422459 Si / 1000 Ang^3
#
#
#
# Elastic Constant Matrix: (Units=GPa)
#
#
# Indices 1 2 3 4 5 6 
#
# 1 10.6223 18.9069 15.6434 0.0000 0.0000 0.0000
# 2 18.9069 198.8892 93.2412 0.0000 0.0000 0.0000
# 3 15.6434 93.2412 130.8932 0.0000 0.0000 0.0000
# 4 0.0000 0.0000 0.0000 44.0705 0.0000 0.0000
# 5 0.0000 0.0000 0.0000 0.0000 28.0909 0.0000
# 6 0.0000 0.0000 0.0000 0.0000 0.0000 2.8524
#
#
#
# Elastic Compliance Matrix: (Units=1/GPa)
#
#
# Indices 1 2 3 4 5 6 
#
# 1 0.120515 -0.007063 -0.009372 0.000000 0.000000 0.000000
# 2 -0.007063 0.007963 -0.004828 0.000000 0.000000 0.000000
# 3 -0.009372 -0.004828 0.012199 0.000000 0.000000 0.000000
# 4 0.000000 0.000000 0.000000 0.022691 0.000000 0.000000
# 5 0.000000 0.000000 0.000000 0.000000 0.035599 0.000000
# 6 0.000000 0.000000 0.000000 0.000000 0.000000 0.350576
#
#
# Mechanical properties :
#
#
# Convention : Reuss Voigt Hill
#
# Bulk Modulus (GPa) = 10.18834 66.22083 38.20459
# Shear Modulus (GPa) = 8.00274 29.17697 18.58985
#
# Velocity S-wave (km/s) = 2.08649 3.98398 3.18006
# Velocity P-wave (km/s) = 3.36853 7.56218 5.85378
#
# Compressibility (1/GPa) = 0.09815139
#
# Stress axis : x y z
#
# Youngs Moduli (GPa) = 8.29771 125.58328 81.97238
#
# Poissons Ratio (x) = 0.88697 0.76824
# Poissons Ratio (y) = 0.05861 0.39578
# Poissons Ratio (z) = 0.07777 0.60634
#
# Static dielectric constant tensor:
#      x y z
#    x 1.684980 0.000000 0.000000 
#    y 0.000000 1.623970 0.000000 
#    z 0.000000 0.000000 1.611110 
# 
# From -- ./inp_files/37082.got.cif
#   From: 2010.05.17/outbox.cif.g08.bks.cpg/sg74_19_cif.got.tgz:37082.got - 2010.06.03 17:57:02.
