data_PCOD9536936
_publ_section_title
;
Structure prediction by ZEFSAII (Michael W. Deem and Ramdas Pophale) SiO2 
 PCOD9536936
Probable space group: I M M A
;
_chemical_formula_sum "Si O2"
_cell_formula_units_Z 96
_cell_length_a 24.603679
_cell_length_b 7.996132
_cell_length_c 25.021631
_cell_angle_alpha 90.000000
_cell_angle_beta 90.000000
_cell_angle_gamma 90.000000
_cell_volume 4922.612183
_symmetry_space_group_name_H-M "I M M A"
_symmetry_group_IT_number 74
_symmetry_cell_setting 'orthorhombic'
loop_
_space_group_symop_operation_xyz
x,y,z
-x,1/2-y,z
x,-y,-z
-x,1/2+y,-z
-x,-y,-z
x,1/2+y,-z
-x,y,z
x,1/2-y,z
1/2+x,1/2+y,1/2+z
1/2-x,-y,1/2+z
1/2+x,1/2-y,1/2-z
1/2-x,y,1/2-z
1/2-x,1/2-y,1/2-z
1/2+x,y,1/2-z
1/2-x,1/2+y,1/2+z
1/2+x,-y,1/2+z
loop_
_atom_site_type_symbol
_atom_site_label
_atom_site_fract_x
_atom_site_fract_y
_atom_site_fract_z
Si Si1 0.061445 0.549075 0.231189
Si Si2 0.357171 0.939931 0.354992
Si Si3 0.648406 0.049675 0.059654
Si Si4 0.726726 0.447519 0.560597
Si Si5 0.938797 0.952449 0.646008
Si Si6 0.435471 0.944249 0.559636
O O1 0.060525 0.750000 0.223425
O O2 0.111608 0.481513 0.195774
O O3 0.070253 0.512025 0.293509
O O4 0.000000 0.486742 0.217020
O O5 0.341020 0.750000 0.339991
O O6 0.308071 0.019476 0.389613
O O7 0.404975 0.941044 0.398685
O O8 0.650781 0.250000 0.062063
O O9 0.606575 0.988210 0.104489
O O10 0.709618 0.984716 0.067414
O O11 0.630675 0.000000 0.000000
O O12 0.711370 0.500000 0.500000
O O13 0.717689 0.250000 0.562110
O O14 0.937620 0.750000 0.646374
O O15 0.000000 0.004604 0.630303
O O16 0.500000 0.959391 0.565867
O O17 0.420488 0.750000 0.567835
O O18 0.421584 0.000000 0.500000
#
# Coordination Sequence:
#
# PCOD9536936 Si02
#       6
#    16  16  16  16  16  16
#     4   9  18  33  53  76 102 134 172 213 256 301
#     4  10  20  33  50  72  98 132 174 216 257 300
#     4  10  20  35  56  80 106 135 165 202 250 303
#     4  10  20  34  52  74 102 136 173 214 258 303
#     4   9  19  36  56  79 107 135 164 202 249 302
#     4  10  20  31  44  65  93 126 165 212 265 313
#
# _framework density 19.501842
#
# number of rings (size 3 to 8) (size 9 to 14) (size 15 to 20)
#    0.000    2.333    0.000    3.500    0.000    6.667 
#    0.000    2.500    0.000    5.000    0.000    0.000 
#    0.000    0.000    0.000    0.000    0.000    0.000 
#
# Total GULP energy -267625.584875 kJ/mol
# GULP energy per Si atom -5575.533018 kJ/mol
# Density = 1.945745 g / cm^3
# Si number density = 19.501842 Si / 1000 Ang^3
#
#
#
# Elastic Constant Matrix: (Units=GPa)
#
#
# Indices 1 2 3 4 5 6 
#
# 1 109.1391 6.4906 82.2540 0.0000 0.0000 0.0000
# 2 6.4906 24.5344 -4.5156 0.0000 0.0000 0.0000
# 3 82.2540 -4.5156 110.9530 0.0000 0.0000 0.0000
# 4 0.0000 0.0000 0.0000 22.8801 0.0000 0.0000
# 5 0.0000 0.0000 0.0000 0.0000 44.2587 0.0000
# 6 0.0000 0.0000 0.0000 0.0000 0.0000 21.4484
#
#
#
# Elastic Compliance Matrix: (Units=1/GPa)
#
#
# Indices 1 2 3 4 5 6 
#
# 1 0.022632 -0.009144 -0.017150 0.000000 0.000000 0.000000
# 2 -0.009144 0.044761 0.008600 0.000000 0.000000 0.000000
# 3 -0.017150 0.008600 0.022077 0.000000 0.000000 0.000000
# 4 0.000000 0.000000 0.000000 0.043706 0.000000 0.000000
# 5 0.000000 0.000000 0.000000 0.000000 0.022594 0.000000
# 6 0.000000 0.000000 0.000000 0.000000 0.000000 0.046624
#
#
# Mechanical properties :
#
#
# Convention : Reuss Voigt Hill
#
# Bulk Modulus (GPa) = 18.49016 45.89827 32.19422
# Shear Modulus (GPa) = 19.54596 28.41062 23.97829
#
# Velocity S-wave (km/s) = 3.16929 3.82097 3.51028
# Velocity P-wave (km/s) = 4.78480 6.56147 5.74226
#
# Compressibility (1/GPa) = 0.05408282
#
# Stress axis : x y z
#
# Youngs Moduli (GPa) = 44.18607 22.34087 45.29664
#
# Poissons Ratio (x) = 0.20428 0.77683
# Poissons Ratio (y) = 0.40402 -0.38956
# Poissons Ratio (z) = 0.75778 -0.19214
#
# Static dielectric constant tensor:
#      x y z
#    x 1.700240 0.000000 0.000000 
#    y 0.000000 1.730080 0.000000 
#    z 0.000000 0.000000 1.675620 
# 
# From -- ./inp_files/49123.got.cif
#   From: 2010.05.17/outbox.cif.g08.bks.cpg/sg74_25_cif.got.tgz:49123.got - 2010.06.03 17:57:02.
