data_PCOD9536262
_publ_section_title
;
Structure prediction by ZEFSAII (Michael W. Deem and Ramdas Pophale) SiO2 
 PCOD9536262
Probable space group: I M M A
;
_chemical_formula_sum "Si O2"
_cell_formula_units_Z 96
_cell_length_a 24.176682
_cell_length_b 8.585829
_cell_length_c 26.120395
_cell_angle_alpha 90.000000
_cell_angle_beta 90.000000
_cell_angle_gamma 90.000000
_cell_volume 5421.989509
_symmetry_space_group_name_H-M "I M M A"
_symmetry_group_IT_number 74
_symmetry_cell_setting 'orthorhombic'
loop_
_space_group_symop_operation_xyz
x,y,z
-x,1/2-y,z
x,-y,-z
-x,1/2+y,-z
-x,-y,-z
x,1/2+y,-z
-x,y,z
x,1/2-y,z
1/2+x,1/2+y,1/2+z
1/2-x,-y,1/2+z
1/2+x,1/2-y,1/2-z
1/2-x,y,1/2-z
1/2-x,1/2-y,1/2-z
1/2+x,y,1/2-z
1/2-x,1/2+y,1/2+z
1/2+x,-y,1/2+z
loop_
_atom_site_type_symbol
_atom_site_label
_atom_site_fract_x
_atom_site_fract_y
_atom_site_fract_z
Si Si1 0.693467 0.438056 0.943676
Si Si2 0.880168 0.439826 0.651197
Si Si3 0.314488 0.438025 0.746089
Si Si4 0.385453 0.434790 0.347292
Si Si5 0.000000 0.940053 0.314661
Si Si6 0.678895 0.563251 0.443534
Si Si7 0.000000 0.436819 0.804893
O O1 0.691994 0.250000 0.944839
O O2 0.651834 0.492989 0.899518
O O3 0.757165 0.483431 0.931995
O O4 0.679529 0.500000 0.000000
O O5 0.880405 0.250000 0.649815
O O6 0.846247 0.483529 0.702060
O O7 0.943470 0.491449 0.658152
O O8 0.318902 0.250000 0.740785
O O9 0.250000 0.477544 0.750000
O O10 0.343546 0.513657 0.697493
O O11 0.389127 0.250000 0.349481
O O12 0.361574 0.498811 0.400459
O O13 0.444985 0.503638 0.332428
O O14 0.000000 0.987495 0.254915
O O15 0.000000 0.750000 0.314794
O O16 0.665788 0.500000 0.500000
O O17 0.676618 0.750000 0.443709
O O18 0.000000 0.250000 0.804927
#
# Coordination Sequence:
#
# PCOD9536262 Si02
#       7
#    16  16  16  16   8  16   8
#     4   9  18  33  55  80 109 142 183 229 278 331
#     4   9  16  29  50  78 105 138 186 234 274 322
#     4  10  19  33  55  81 109 144 190 238 283 338
#     4  12  24  37  55  84 119 150 183 229 288 347
#     4   9  16  29  54  79 101 136 189 236 271 315
#     4  10  20  37  59  83 110 147 188 231 280 335
#     4  11  21  39  62  81 106 150 199 237 275 328
#
# _framework density 17.705677999999999
#
# number of rings (size 3 to 8) (size 9 to 14) (size 15 to 20)
#    0.000    2.000    1.667    3.250    0.000    3.667 
#    0.000    1.667    0.000    0.000    0.000    0.000 
#    0.000    0.000    0.000    0.000    0.000    0.000 
#
# Total GULP energy -268009.923386 kJ/mol
# GULP energy per Si atom -5583.540071 kJ/mol
# Density = 1.766538 g / cm^3
# Si number density = 17.705678 Si / 1000 Ang^3
#
#
#
# Elastic Constant Matrix: (Units=GPa)
#
#
# Indices 1 2 3 4 5 6 
#
# 1 141.0158 45.4470 91.8285 0.0000 0.0000 0.0000
# 2 45.4470 41.9484 41.1150 0.0000 0.0000 0.0000
# 3 91.8285 41.1150 142.9410 0.0000 0.0000 0.0000
# 4 0.0000 0.0000 0.0000 28.3223 0.0000 0.0000
# 5 0.0000 0.0000 0.0000 0.0000 17.0811 0.0000
# 6 0.0000 0.0000 0.0000 0.0000 0.0000 14.1574
#
#
#
# Elastic Compliance Matrix: (Units=1/GPa)
#
#
# Indices 1 2 3 4 5 6 
#
# 1 0.014287 -0.009027 -0.006581 0.000000 0.000000 0.000000
# 2 -0.009027 0.038902 -0.005390 0.000000 0.000000 0.000000
# 3 -0.006581 -0.005390 0.012774 0.000000 0.000000 0.000000
# 4 0.000000 0.000000 0.000000 0.035308 0.000000 0.000000
# 5 0.000000 0.000000 0.000000 0.000000 0.058544 0.000000
# 6 0.000000 0.000000 0.000000 0.000000 0.000000 0.070634
#
#
# Mechanical properties :
#
#
# Convention : Reuss Voigt Hill
#
# Bulk Modulus (GPa) = 41.72741 75.85403 58.79072
# Shear Modulus (GPa) = 17.82935 21.74647 19.78791
#
# Velocity S-wave (km/s) = 3.17675 3.50840 3.34668
# Velocity P-wave (km/s) = 6.08884 7.70367 6.94336
#
# Compressibility (1/GPa) = 0.02396506
#
# Stress axis : x y z
#
# Youngs Moduli (GPa) = 69.99585 25.70532 78.28175
#
# Poissons Ratio (x) = 0.23205 0.51520
# Poissons Ratio (y) = 0.63189 0.42196
# Poissons Ratio (z) = 0.46067 0.13856
#
# Static dielectric constant tensor:
#      x y z
#    x 1.594230 0.000000 0.000000 
#    y 0.000000 1.605870 0.000000 
#    z 0.000000 0.000000 1.574390 
# 
# From -- ./inp_files/61944.got.cif
#   From: 2010.05.17/outbox.cif.g08.bks.cpg/sg74_31_cif.got.tgz:61944.got - 2010.06.03 17:57:02.
