data_PCOD9536364
_publ_section_title
;
Structure prediction by ZEFSAII (Michael W. Deem and Ramdas Pophale) SiO2 
 PCOD9536364
Probable space group: I M M A
;
_chemical_formula_sum "Si O2"
_cell_formula_units_Z 88
_cell_length_a 30.993051
_cell_length_b 9.070198
_cell_length_c 19.547218
_cell_angle_alpha 90.000000
_cell_angle_beta 90.000000
_cell_angle_gamma 90.000000
_cell_volume 5494.979228
_symmetry_space_group_name_H-M "I M M A"
_symmetry_group_IT_number 74
_symmetry_cell_setting 'orthorhombic'
loop_
_space_group_symop_operation_xyz
x,y,z
-x,1/2-y,z
x,-y,-z
-x,1/2+y,-z
-x,-y,-z
x,1/2+y,-z
-x,y,z
x,1/2-y,z
1/2+x,1/2+y,1/2+z
1/2-x,-y,1/2+z
1/2+x,1/2-y,1/2-z
1/2-x,y,1/2-z
1/2-x,1/2-y,1/2-z
1/2+x,y,1/2-z
1/2-x,1/2+y,1/2+z
1/2+x,-y,1/2+z
loop_
_atom_site_type_symbol
_atom_site_label
_atom_site_fract_x
_atom_site_fract_y
_atom_site_fract_z
Si Si1 0.345281 0.074159 0.571110
Si Si2 0.548736 0.076407 0.203692
Si Si3 0.626546 0.073125 0.719342
Si Si4 0.000000 0.573241 0.573646
Si Si5 0.243330 0.573518 0.428059
Si Si6 0.293186 0.576179 0.795374
O O1 0.348695 0.250000 0.563351
O O2 0.370902 0.029455 0.639214
O O3 0.294412 0.040324 0.583009
O O4 0.358577 0.000000 0.500000
O O5 0.500000 0.060313 0.232944
O O6 0.560058 0.250000 0.206660
O O7 0.540620 0.035764 0.123506
O O8 0.583633 0.982169 0.243137
O O9 0.630169 0.250000 0.722721
O O10 0.667179 0.999796 0.756994
O O11 0.000000 0.500000 0.500000
O O12 0.000000 0.750000 0.566403
O O13 0.231343 0.500000 0.500000
O O14 0.238449 0.750000 0.430121
O O15 0.216443 0.503084 0.366879
O O16 0.301452 0.750000 0.804985
O O17 0.250000 0.560301 0.750000
#
# Coordination Sequence:
#
# PCOD9536364 Si02
#       6
#    16  16  16   8  16  16
#     4   9  19  32  49  74 103 136 174 216 261 310
#     4   8  18  36  55  79 108 138 170 212 261 314
#     4  11  21  34  54  81 108 136 175 222 267 314
#     4   8  16  32  56  82 109 136 169 208 255 308
#     4  10  19  34  52  71 103 140 178 222 266 313
#     4  11  22  34  51  76 105 143 184 220 265 317
#
# _framework density 16.014620000000001
#
# number of rings (size 3 to 8) (size 9 to 14) (size 15 to 20)
#    0.545    1.818    1.818    1.636    0.000    4.000 
#    0.000    0.909    0.000    2.727    0.000    0.000 
#    0.000    0.000    0.000    0.000    0.000    0.000 
#
# Total GULP energy -245126.313411 kJ/mol
# GULP energy per Si atom -5571.052578 kJ/mol
# Density = 1.597817 g / cm^3
# Si number density = 16.014620 Si / 1000 Ang^3
#
#
#
# Elastic Constant Matrix: (Units=GPa)
#
#
# Indices 1 2 3 4 5 6 
#
# 1 63.3662 43.5354 57.8878 0.0000 0.0000 0.0000
# 2 43.5354 72.8104 67.4613 0.0000 0.0000 0.0000
# 3 57.8878 67.4613 163.6001 0.0000 0.0000 0.0000
# 4 0.0000 0.0000 0.0000 32.1441 0.0000 0.0000
# 5 0.0000 0.0000 0.0000 0.0000 22.4197 0.0000
# 6 0.0000 0.0000 0.0000 0.0000 0.0000 27.2094
#
#
#
# Elastic Compliance Matrix: (Units=1/GPa)
#
#
# Indices 1 2 3 4 5 6 
#
# 1 0.029165 -0.012747 -0.005063 0.000000 0.000000 0.000000
# 2 -0.012747 0.027797 -0.006952 0.000000 0.000000 0.000000
# 3 -0.005063 -0.006952 0.010771 0.000000 0.000000 0.000000
# 4 0.000000 0.000000 0.000000 0.031110 0.000000 0.000000
# 5 0.000000 0.000000 0.000000 0.000000 0.044604 0.000000
# 6 0.000000 0.000000 0.000000 0.000000 0.000000 0.036752
#
#
# Mechanical properties :
#
#
# Convention : Reuss Voigt Hill
#
# Bulk Modulus (GPa) = 54.92062 70.83841 62.87951
# Shear Modulus (GPa) = 21.20512 25.08080 23.14296
#
# Velocity S-wave (km/s) = 3.64278 3.96172 3.80559
# Velocity P-wave (km/s) = 7.21537 8.07815 7.65892
#
# Compressibility (1/GPa) = 0.01820810
#
# Stress axis : x y z
#
# Youngs Moduli (GPa) = 34.28821 35.97453 92.84450
#
# Poissons Ratio (x) = 0.45857 0.47009
# Poissons Ratio (y) = 0.43708 0.64546
# Poissons Ratio (z) = 0.17361 0.25010
#
# Static dielectric constant tensor:
#      x y z
#    x 1.519700 0.000000 0.000000 
#    y 0.000000 1.529250 0.000000 
#    z 0.000000 0.000000 1.532260 
# 
# From -- ./inp_files/47038.got.cif
#   From: 2010.05.17/outbox.cif.g08.bks.cpg/sg74_24_cif.got.tgz:47038.got - 2010.06.03 17:57:02.
