data_PCOD9536517
_publ_section_title
;
Structure prediction by ZEFSAII (Michael W. Deem and Ramdas Pophale) SiO2 
 PCOD9536517
Probable space group: I M M A
;
_chemical_formula_sum "Si O2"
_cell_formula_units_Z 64
_cell_length_a 19.391610
_cell_length_b 11.087486
_cell_length_c 12.949779
_cell_angle_alpha 90.000000
_cell_angle_beta 90.000000
_cell_angle_gamma 90.000000
_cell_volume 2784.256931
_symmetry_space_group_name_H-M "I M M A"
_symmetry_group_IT_number 74
_symmetry_cell_setting 'orthorhombic'
loop_
_space_group_symop_operation_xyz
x,y,z
-x,1/2-y,z
x,-y,-z
-x,1/2+y,-z
-x,-y,-z
x,1/2+y,-z
-x,y,z
x,1/2-y,z
1/2+x,1/2+y,1/2+z
1/2-x,-y,1/2+z
1/2+x,1/2-y,1/2-z
1/2-x,y,1/2-z
1/2-x,1/2-y,1/2-z
1/2+x,y,1/2-z
1/2-x,1/2+y,1/2+z
1/2+x,-y,1/2+z
loop_
_atom_site_type_symbol
_atom_site_label
_atom_site_fract_x
_atom_site_fract_y
_atom_site_fract_z
Si Si1 0.652475 0.621411 0.899714
Si Si2 0.209609 0.119286 0.630175
Si Si3 0.364567 0.885787 0.423399
Si Si4 0.000000 0.615656 0.218957
Si Si5 0.000000 0.383620 0.364594
O O1 0.664702 0.750000 0.846082
O O2 0.673401 0.503846 0.836522
O O3 0.571458 0.613956 0.925873
O O4 0.693391 0.623095 0.006991
O O5 0.185525 0.250000 0.669786
O O6 0.291814 0.108996 0.637352
O O7 0.365219 0.750000 0.472569
O O8 0.431744 0.891814 0.351653
O O9 0.365577 0.000000 0.500000
O O10 0.000000 0.750000 0.269245
O O11 0.000000 0.500716 0.293137
O O12 0.000000 0.250000 0.311006
#
# Coordination Sequence:
#
# PCOD9536517 Si02
#       5
#    16  16  16   8   8
#     4   9  17  32  53  77 107 138 175 221 263 312
#     4   9  17  30  53  83 108 133 170 219 273 318
#     4  10  19  34  57  84 109 135 174 222 270 316
#     4  10  23  39  54  77 110 146 182 217 258 316
#     4  10  22  38  54  75 107 147 186 217 256 317
#
# _framework density 22.986384000000001
#
# number of rings (size 3 to 8) (size 9 to 14) (size 15 to 20)
#    0.000    2.500    2.500    0.375    0.000    4.000 
#    0.000    2.500    0.000    7.500    0.000    0.000 
#    0.000    0.000    0.000    0.000    0.000    0.000 
#
# Total GULP energy -178588.209516 kJ/mol
# GULP energy per Si atom -5580.881547 kJ/mol
# Density = 2.293407 g / cm^3
# Si number density = 22.986384 Si / 1000 Ang^3
#
#
#
# Elastic Constant Matrix: (Units=GPa)
#
#
# Indices 1 2 3 4 5 6 
#
# 1 142.9291 40.0302 -0.8678 0.0000 0.0000 0.0000
# 2 40.0302 264.3595 39.9245 0.0000 0.0000 0.0000
# 3 -0.8678 39.9245 27.6817 0.0000 0.0000 0.0000
# 4 0.0000 0.0000 0.0000 29.5819 0.0000 0.0000
# 5 0.0000 0.0000 0.0000 0.0000 6.4749 0.0000
# 6 0.0000 0.0000 0.0000 0.0000 0.0000 37.0219
#
#
#
# Elastic Compliance Matrix: (Units=1/GPa)
#
#
# Indices 1 2 3 4 5 6 
#
# 1 0.007426 -0.001483 0.002371 0.000000 0.000000 0.000000
# 2 -0.001483 0.005132 -0.007448 0.000000 0.000000 0.000000
# 3 0.002371 -0.007448 0.046942 0.000000 0.000000 0.000000
# 4 0.000000 0.000000 0.000000 0.033804 0.000000 0.000000
# 5 0.000000 0.000000 0.000000 0.000000 0.154442 0.000000
# 6 0.000000 0.000000 0.000000 0.000000 0.000000 0.027011
#
#
# Mechanical properties :
#
#
# Convention : Reuss Voigt Hill
#
# Bulk Modulus (GPa) = 21.56087 65.90490 43.73288
# Shear Modulus (GPa) = 16.48331 38.34131 27.41231
#
# Velocity S-wave (km/s) = 2.68076 4.08855 3.45707
# Velocity P-wave (km/s) = 4.35685 7.14296 5.91625
#
# Compressibility (1/GPa) = 0.04638032
#
# Stress axis : x y z
#
# Youngs Moduli (GPa) = 134.66019 194.85205 21.30298
#
# Poissons Ratio (x) = 0.28888 -0.05051
# Poissons Ratio (y) = 0.19964 0.15867
# Poissons Ratio (z) = -0.31929 1.45133
#
# Static dielectric constant tensor:
#      x y z
#    x 1.830440 0.000000 0.000000 
#    y 0.000000 1.938750 0.000000 
#    z 0.000000 0.000000 1.845870 
# 
# From -- ./inp_files/33615.got.cif
#   From: 2010.05.17/outbox.cif.g08.bks.cpg/sg74_17_cif.got.tgz:33615.got - 2010.06.03 17:57:02.
