data_PCOD9536380
_publ_section_title
;
Structure prediction by ZEFSAII (Michael W. Deem and Ramdas Pophale) SiO2 
 PCOD9536380
Probable space group: I M M A
;
_chemical_formula_sum "Si O2"
_cell_formula_units_Z 104
_cell_length_a 7.506373
_cell_length_b 27.104464
_cell_length_c 24.478347
_cell_angle_alpha 90.000000
_cell_angle_beta 90.000000
_cell_angle_gamma 90.000000
_cell_volume 4980.271873
_symmetry_space_group_name_H-M "I M M A"
_symmetry_group_IT_number 74
_symmetry_cell_setting 'orthorhombic'
loop_
_space_group_symop_operation_xyz
x,y,z
-x,1/2-y,z
x,-y,-z
-x,1/2+y,-z
-x,-y,-z
x,1/2+y,-z
-x,y,z
x,1/2-y,z
1/2+x,1/2+y,1/2+z
1/2-x,-y,1/2+z
1/2+x,1/2-y,1/2-z
1/2-x,y,1/2-z
1/2-x,1/2-y,1/2-z
1/2+x,y,1/2-z
1/2-x,1/2+y,1/2+z
1/2+x,-y,1/2+z
loop_
_atom_site_type_symbol
_atom_site_label
_atom_site_fract_x
_atom_site_fract_y
_atom_site_fract_z
Si Si1 0.281937 0.193045 0.494600
Si Si2 0.785942 0.927058 0.188124
Si Si3 0.287703 0.195164 0.308330
Si Si4 0.213938 0.460406 0.187039
Si Si5 0.206368 0.658478 0.112681
Si Si6 0.717421 0.378832 0.398969
Si Si7 0.289295 0.250000 0.813789
O O1 0.500000 0.194754 0.492634
O O2 0.227177 0.250000 0.479973
O O3 0.220945 0.179748 0.555879
O O4 0.228473 0.146495 0.456258
O O5 0.750000 0.909389 0.250000
O O6 0.715526 0.889765 0.142201
O O7 0.000000 0.928690 0.182739
O O8 0.719113 0.983231 0.183312
O O9 0.500000 0.198293 0.314385
O O10 0.211834 0.250000 0.308148
O O11 0.250000 0.171944 0.250000
O O12 0.221955 0.163284 0.357242
O O13 0.250000 0.443462 0.250000
O O14 0.275811 0.427775 0.134840
O O15 0.000000 0.460757 0.183206
O O16 0.213425 0.701855 0.156896
O O17 0.000000 0.646872 0.100454
O O18 0.500000 0.382027 0.401243
O O19 0.500000 0.250000 0.822337
O O20 0.250000 0.250000 0.750000
#
# Coordination Sequence:
#
# PCOD9536380 Si02
#       7
#    16  16  16  16  16  16   8
#     4   9  16  28  48  71  95 128 167 203 241 290
#     4   9  18  31  49  72  99 127 158 197 245 295
#     4   9  16  25  38  59  86 114 149 195 243 290
#     4   9  17  30  47  70  98 127 161 205 251 295
#     4  10  19  34  53  75 101 131 166 201 240 289
#     4   9  16  26  43  67  92 121 162 204 241 285
#     4  12  24  36  54  80 108 132 159 198 245 294
#
# _framework density 20.882393
#
# number of rings (size 3 to 8) (size 9 to 14) (size 15 to 20)
#    0.000    2.615    0.769    2.077    0.000    3.692 
#    0.000    0.769    0.000    6.462    0.000    0.000 
#    0.000    6.154    0.000    0.000    0.000    0.000 
#
# Total GULP energy -289647.952134 kJ/mol
# GULP energy per Si atom -5570.152926 kJ/mol
# Density = 2.083486 g / cm^3
# Si number density = 20.882393 Si / 1000 Ang^3
#
#
#
# Elastic Constant Matrix: (Units=GPa)
#
#
# Indices 1 2 3 4 5 6 
#
# 1 57.3851 -2.3785 -9.5581 0.0000 0.0000 0.0000
# 2 -2.3785 122.1067 60.1671 0.0000 0.0000 0.0000
# 3 -9.5581 60.1671 132.8615 -0.0001 0.0000 0.0000
# 4 0.0000 0.0000 -0.0001 28.1616 0.0000 0.0000
# 5 0.0000 0.0000 0.0000 0.0000 13.4547 0.0000
# 6 0.0000 0.0000 0.0000 0.0000 0.0000 4.6091
#
#
#
# Elastic Compliance Matrix: (Units=1/GPa)
#
#
# Indices 1 2 3 4 5 6 
#
# 1 0.017650 -0.000363 0.001434 0.000000 0.000000 0.000000
# 2 -0.000363 0.010549 -0.004803 0.000000 0.000000 0.000000
# 3 0.001434 -0.004803 0.009805 0.000000 0.000000 0.000000
# 4 0.000000 0.000000 0.000000 0.035509 0.000000 0.000000
# 5 0.000000 0.000000 0.000000 0.000000 0.074323 0.000000
# 6 0.000000 0.000000 0.000000 0.000000 0.000000 0.216963
#
#
# Mechanical properties :
#
#
# Convention : Reuss Voigt Hill
#
# Bulk Modulus (GPa) = 32.74400 45.42382 39.08391
# Shear Modulus (GPa) = 13.07378 26.85327 19.96353
#
# Velocity S-wave (km/s) = 2.50485 3.58988 3.09528
# Velocity P-wave (km/s) = 4.90713 6.24359 5.61526
#
# Compressibility (1/GPa) = 0.03053994
#
# Stress axis : x y z
#
# Youngs Moduli (GPa) = 56.65741 94.79260 101.98812
#
# Poissons Ratio (x) = 0.03439 -0.14626
# Poissons Ratio (y) = 0.02056 0.48989
# Poissons Ratio (z) = -0.08125 0.45533
#
# Static dielectric constant tensor:
#      x y z
#    x 1.823810 0.000000 0.000000 
#    y 0.000000 1.777880 0.000000 
#    z 0.000000 0.000000 1.741160 
# 
# From -- ./inp_files/57587.got.cif
#   From: 2010.05.17/outbox.cif.g08.bks.cpg/sg74_29_cif.got.tgz:57587.got - 2010.06.03 17:57:02.
