data_PCOD9536337
_publ_section_title
;
Structure prediction by ZEFSAII (Michael W. Deem and Ramdas Pophale) SiO2 
 PCOD9536337
Probable space group: I M M A
;
_chemical_formula_sum "Si O2"
_cell_formula_units_Z 128
_cell_length_a 19.645267
_cell_length_b 25.539036
_cell_length_c 11.471354
_cell_angle_alpha 90.000000
_cell_angle_beta 90.000000
_cell_angle_gamma 90.000000
_cell_volume 5755.421278
_symmetry_space_group_name_H-M "I M M A"
_symmetry_group_IT_number 74
_symmetry_cell_setting 'orthorhombic'
loop_
_space_group_symop_operation_xyz
x,y,z
-x,1/2-y,z
x,-y,-z
-x,1/2+y,-z
-x,-y,-z
x,1/2+y,-z
-x,y,z
x,1/2-y,z
1/2+x,1/2+y,1/2+z
1/2-x,-y,1/2+z
1/2+x,1/2-y,1/2-z
1/2-x,y,1/2-z
1/2-x,1/2-y,1/2-z
1/2+x,y,1/2-z
1/2-x,1/2+y,1/2+z
1/2+x,-y,1/2+z
loop_
_atom_site_type_symbol
_atom_site_label
_atom_site_fract_x
_atom_site_fract_y
_atom_site_fract_z
Si Si1 0.713844 0.443793 0.506952
Si Si2 0.575858 0.018045 0.638804
Si Si3 0.864811 0.414398 0.213337
Si Si4 0.080404 0.941863 0.550102
Si Si5 0.824244 0.191072 0.309286
Si Si6 0.076645 0.396525 0.684131
Si Si7 0.728388 0.836340 0.065635
Si Si8 0.352933 0.692841 0.300200
O O1 0.750020 0.500000 0.500000
O O2 0.642047 0.458503 0.572454
O O3 0.697362 0.422810 0.376639
O O4 0.753227 0.398159 0.573345
O O5 0.500000 0.032317 0.595424
O O6 0.579906 0.045543 0.763610
O O7 0.581962 0.955324 0.654303
O O8 0.867102 0.436158 0.344478
O O9 0.869159 0.352626 0.241746
O O10 0.102752 0.901928 0.447330
O O11 0.000000 0.930656 0.583552
O O12 0.080008 0.000000 0.500000
O O13 0.851978 0.250000 0.300289
O O14 0.750000 0.189531 0.250000
O O15 0.807085 0.178767 0.444906
O O16 0.101921 0.358314 0.785515
O O17 0.000000 0.380102 0.665133
O O18 0.687715 0.814439 0.177249
O O19 0.803199 0.811486 0.089259
O O20 0.385837 0.750000 0.299870
#
# Coordination Sequence:
#
# PCOD9536337 Si02
#       8
#    16  16  16  16  16  16  16  16
#     4  10  22  38  57  91 130 158 202 253 310 371
#     4  10  20  38  64  91 125 162 198 249 314 376
#     4  11  21  37  61  89 119 158 211 245 300 373
#     4  10  19  33  57  89 121 154 193 241 298 365
#     4  11  23  40  60  82 116 164 212 258 303 357
#     4  10  20  37  60  91 126 158 198 253 314 371
#     4  11  21  42  59  88 123 161 205 258 309 371
#     4  11  23  39  65  91 118 163 211 256 309 369
#
# _framework density 22.239901
#
# number of rings (size 3 to 8) (size 9 to 14) (size 15 to 20)
#    0.000    1.500    3.750    2.625    0.000    3.000 
#    2.250    0.000    0.000    2.250    0.000    0.000 
#    0.000    0.000    0.000    0.000    0.000    0.000 
#
# Total GULP energy -356312.748432 kJ/mol
# GULP energy per Si atom -5567.386694 kJ/mol
# Density = 2.218928 g / cm^3
# Si number density = 22.239901 Si / 1000 Ang^3
#
#
#
# Elastic Constant Matrix: (Units=GPa)
#
#
# Indices 1 2 3 4 5 6 
#
# 1 66.3733 17.3713 5.7071 0.0000 0.0000 0.0000
# 2 17.3713 165.2229 9.7764 0.0000 0.0000 0.0000
# 3 5.7071 9.7764 80.3231 0.0000 0.0000 0.0000
# 4 0.0000 0.0000 0.0000 31.4388 0.0000 0.0000
# 5 0.0000 0.0000 0.0000 0.0000 8.4783 0.0000
# 6 0.0000 0.0000 0.0000 0.0000 0.0000 11.0605
#
#
#
# Elastic Compliance Matrix: (Units=1/GPa)
#
#
# Indices 1 2 3 4 5 6 
#
# 1 0.015559 -0.001582 -0.000913 0.000000 0.000000 0.000000
# 2 -0.001582 0.006257 -0.000649 0.000000 0.000000 0.000000
# 3 -0.000913 -0.000649 0.012594 0.000000 0.000000 0.000000
# 4 0.000000 0.000000 0.000000 0.031808 0.000000 0.000000
# 5 0.000000 0.000000 0.000000 0.000000 0.117948 0.000000
# 6 0.000000 0.000000 0.000000 0.000000 0.000000 0.090412
#
#
# Mechanical properties :
#
#
# Convention : Reuss Voigt Hill
#
# Bulk Modulus (GPa) = 35.55979 41.95876 38.75927
# Shear Modulus (GPa) = 17.22720 28.79983 23.01351
#
# Velocity S-wave (km/s) = 2.78620 3.60246 3.22030
# Velocity P-wave (km/s) = 5.13560 6.01756 5.59399
#
# Compressibility (1/GPa) = 0.02812165
#
# Stress axis : x y z
#
# Youngs Moduli (GPa) = 64.27231 159.81714 79.40539
#
# Poissons Ratio (x) = 0.25280 0.07249
# Poissons Ratio (y) = 0.10167 0.05155
# Poissons Ratio (z) = 0.05868 0.10375
#
# Static dielectric constant tensor:
#      x y z
#    x 1.902190 0.000000 0.000000 
#    y 0.000000 1.873180 0.000000 
#    z 0.000000 0.000000 1.886950 
# 
# From -- ./inp_files/25589.got.cif
#   From: 2010.05.17/outbox.cif.g08.bks.cpg/sg74_13_cif.got.tgz:25589.got - 2010.06.03 17:57:02.
