data_PCOD9536218
_publ_section_title
;
Structure prediction by ZEFSAII (Michael W. Deem and Ramdas Pophale) SiO2 
 PCOD9536218
Probable space group: I M M A
;
_chemical_formula_sum "Si O2"
_cell_formula_units_Z 104
_cell_length_a 27.058458
_cell_length_b 7.955104
_cell_length_c 24.634351
_cell_angle_alpha 90.000000
_cell_angle_beta 90.000000
_cell_angle_gamma 90.000000
_cell_volume 5302.614198
_symmetry_space_group_name_H-M "I M M A"
_symmetry_group_IT_number 74
_symmetry_cell_setting 'orthorhombic'
loop_
_space_group_symop_operation_xyz
x,y,z
-x,1/2-y,z
x,-y,-z
-x,1/2+y,-z
-x,-y,-z
x,1/2+y,-z
-x,y,z
x,1/2-y,z
1/2+x,1/2+y,1/2+z
1/2-x,-y,1/2+z
1/2+x,1/2-y,1/2-z
1/2-x,y,1/2-z
1/2-x,1/2-y,1/2-z
1/2+x,y,1/2-z
1/2-x,1/2+y,1/2+z
1/2+x,-y,1/2+z
loop_
_atom_site_type_symbol
_atom_site_label
_atom_site_fract_x
_atom_site_fract_y
_atom_site_fract_z
Si Si1 0.500000 0.048245 0.562044
Si Si2 0.180849 0.451445 0.939009
Si Si3 0.942456 0.950982 0.745561
Si Si4 0.705610 0.447382 0.062308
Si Si5 0.372244 0.454536 0.150136
Si Si6 0.945161 0.049318 0.443565
Si Si7 0.591181 0.454085 0.634133
O O1 0.500000 0.250000 0.565726
O O2 0.451428 0.988077 0.592997
O O3 0.500000 0.000000 0.500000
O O4 0.183306 0.250000 0.937479
O O5 0.236161 0.518967 0.931324
O O6 0.143040 0.509115 0.892368
O O7 0.163874 0.500000 0.000000
O O8 0.945468 0.750000 0.736463
O O9 0.897709 0.013993 0.706304
O O10 0.000000 0.013382 0.737541
O O11 0.924498 0.984833 0.806615
O O12 0.695701 0.250000 0.062727
O O13 0.675822 0.515359 0.115460
O O14 0.693018 0.500000 0.000000
O O15 0.367094 0.250000 0.155304
O O16 0.414890 0.501046 0.107802
O O17 0.948372 0.250000 0.442209
O O18 0.000000 0.975399 0.442707
O O19 0.920893 0.000000 0.500000
O O20 0.591692 0.250000 0.635789
#
# Coordination Sequence:
#
# PCOD9536218 Si02
#       7
#     8  16  16  16  16  16  16
#     4  10  20  34  54  80 110 136 165 204 253 314
#     4  10  20  35  56  81 108 138 171 211 261 317
#     4  10  20  35  56  79 103 138 183 224 259 307
#     4  10  19  33  54  78 107 140 174 220 269 314
#     4   9  18  32  50  73 100 134 177 218 260 306
#     4   9  16  27  44  66  95 127 160 207 262 313
#     4  10  21  37  55  77 109 142 169 209 264 315
#
# _framework density 19.612967000000001
#
# number of rings (size 3 to 8) (size 9 to 14) (size 15 to 20)
#    0.000    2.308    0.769    3.231    0.000    3.692 
#    0.000    3.846    0.000    6.462    0.000    0.000 
#    0.000    0.000    0.000    0.000    0.000    0.000 
#
# Total GULP energy -289583.969568 kJ/mol
# GULP energy per Si atom -5568.922492 kJ/mol
# Density = 1.956833 g / cm^3
# Si number density = 19.612967 Si / 1000 Ang^3
#
#
#
# Elastic Constant Matrix: (Units=GPa)
#
#
# Indices 1 2 3 4 5 6 
#
# 1 120.3293 5.5430 67.2084 0.0000 0.0000 0.0000
# 2 5.5430 14.7503 2.2354 0.0000 0.0000 0.0000
# 3 67.2084 2.2354 150.3801 0.0000 0.0000 0.0000
# 4 0.0000 0.0000 0.0000 24.7326 0.0000 0.0000
# 5 0.0000 0.0000 0.0000 0.0000 39.2931 0.0000
# 6 0.0000 0.0000 0.0000 0.0000 0.0000 12.2857
#
#
#
# Elastic Compliance Matrix: (Units=1/GPa)
#
#
# Indices 1 2 3 4 5 6 
#
# 1 0.011250 -0.003473 -0.004976 0.000000 0.000000 0.000000
# 2 -0.003473 0.069021 0.000526 0.000000 0.000000 0.000000
# 3 -0.004976 0.000526 0.008866 0.000000 0.000000 0.000000
# 4 0.000000 0.000000 0.000000 0.040432 0.000000 0.000000
# 5 0.000000 0.000000 0.000000 0.000000 0.025450 0.000000
# 6 0.000000 0.000000 0.000000 0.000000 0.000000 0.081395
#
#
# Mechanical properties :
#
#
# Convention : Reuss Voigt Hill
#
# Bulk Modulus (GPa) = 13.64440 48.38146 31.01293
# Shear Modulus (GPa) = 18.07071 29.29381 23.68226
#
# Velocity S-wave (km/s) = 3.03869 3.86890 3.47865
# Velocity P-wave (km/s) = 4.39129 6.68427 5.65522
#
# Compressibility (1/GPa) = 0.07329015
#
# Stress axis : x y z
#
# Youngs Moduli (GPa) = 88.88934 14.48838 112.79062
#
# Poissons Ratio (x) = 0.05032 0.56127
# Poissons Ratio (y) = 0.30875 -0.05937
# Poissons Ratio (z) = 0.44233 -0.00763
#
# Static dielectric constant tensor:
#      x y z
#    x 1.729150 0.000000 0.000000 
#    y 0.000000 1.713710 0.000000 
#    z 0.000000 0.000000 1.680140 
# 
# From -- ./inp_files/55681.got.cif
#   From: 2010.05.17/outbox.cif.g08.bks.cpg/sg74_28_cif.got.tgz:55681.got - 2010.06.03 17:57:02.
