data_PCOD9536479
_publ_section_title
;
Structure prediction by ZEFSAII (Michael W. Deem and Ramdas Pophale) SiO2 
 PCOD9536479
Probable space group: I M M A
;
_chemical_formula_sum "Si O2"
_cell_formula_units_Z 72
_cell_length_a 15.857984
_cell_length_b 25.589090
_cell_length_c 9.479979
_cell_angle_alpha 90.000000
_cell_angle_beta 90.000000
_cell_angle_gamma 90.000000
_cell_volume 3846.893759
_symmetry_space_group_name_H-M "I M M A"
_symmetry_group_IT_number 74
_symmetry_cell_setting 'orthorhombic'
loop_
_space_group_symop_operation_xyz
x,y,z
-x,1/2-y,z
x,-y,-z
-x,1/2+y,-z
-x,-y,-z
x,1/2+y,-z
-x,y,z
x,1/2-y,z
1/2+x,1/2+y,1/2+z
1/2-x,-y,1/2+z
1/2+x,1/2-y,1/2-z
1/2-x,y,1/2-z
1/2-x,1/2-y,1/2-z
1/2+x,y,1/2-z
1/2-x,1/2+y,1/2+z
1/2+x,-y,1/2+z
loop_
_atom_site_type_symbol
_atom_site_label
_atom_site_fract_x
_atom_site_fract_y
_atom_site_fract_z
Si Si1 0.094238 0.523332 0.841671
Si Si2 0.749942 0.357770 0.590930
Si Si3 0.403465 0.646972 0.610314
Si Si4 0.250000 0.960777 0.250000
Si Si5 0.596393 0.811521 0.920623
O O1 0.104271 0.585604 0.850876
O O2 0.167427 0.496120 0.753536
O O3 0.000000 0.511911 0.786921
O O4 0.098460 0.500000 0.000000
O O5 0.750000 0.335457 0.750000
O O6 0.667413 0.341270 0.504716
O O7 0.748000 0.420412 0.618540
O O8 0.833438 0.341786 0.508367
O O9 0.500000 0.655705 0.561049
O O10 0.390041 0.678614 0.754259
O O11 0.500000 0.828418 0.952069
O O12 0.603300 0.750000 0.949860
#
# Coordination Sequence:
#
# PCOD9536479 Si02
#       5
#    16  16  16   8  16
#     4  10  19  34  56  81 116 159 195 236 290 347
#     4  10  22  37  57  91 118 155 191 243 290 352
#     4  10  21  38  61  87 115 155 204 246 289 348
#     4  10  22  32  53  92 117 154 194 240 286 350
#     4  10  23  43  64  86 116 154 197 249 302 346
#
# _framework density 18.716398999999999
#
# number of rings (size 3 to 8) (size 9 to 14) (size 15 to 20)
#    0.667    1.333    2.222    0.667    3.111    4.000 
#    0.000    0.000    0.000    7.333    0.000    0.000 
#    0.000    0.000    0.000    0.000    0.000    0.000 
#
# Total GULP energy -200809.607636 kJ/mol
# GULP energy per Si atom -5578.044657 kJ/mol
# Density = 1.867380 g / cm^3
# Si number density = 18.716399 Si / 1000 Ang^3
#
#
#
# Elastic Constant Matrix: (Units=GPa)
#
#
# Indices 1 2 3 4 5 6 
#
# 1 185.5604 29.3284 88.3828 0.0001 0.0000 0.0006
# 2 29.3284 25.7728 5.3752 0.0002 -0.0001 0.0004
# 3 88.3828 5.3752 70.7329 0.0000 0.0004 -0.0022
# 4 0.0001 0.0002 0.0000 16.6348 0.0000 0.0003
# 5 0.0000 -0.0001 0.0004 0.0000 25.0953 0.0001
# 6 0.0006 0.0004 -0.0022 0.0003 0.0001 -0.5088
#
#
#
# Elastic Compliance Matrix: (Units=1/GPa)
#
#
# Indices 1 2 3 4 5 6 
#
# 1 0.018193 -0.016219 -0.021500 0.000000 0.000000 0.000101
# 2 -0.016219 0.053884 0.016171 -0.000001 0.000000 -0.000048
# 3 -0.021500 0.016171 0.039774 0.000000 -0.000001 -0.000184
# 4 0.000000 -0.000001 0.000000 0.060115 0.000000 0.000031
# 5 0.000000 0.000000 -0.000001 0.000000 0.039848 0.000010
# 6 0.000101 -0.000048 -0.000184 0.000031 0.000010 -1.965306
#
#
# Mechanical properties :
#
#
# Convention : Reuss Voigt Hill
#
# Bulk Modulus (GPa) = 14.54426 58.69320 36.61873
# Shear Modulus (GPa) = -2.96301 18.84291 7.93995
#
# Velocity S-wave (km/s) = -1.25958 3.17639 2.06190
# Velocity P-wave (km/s) = 2.38167 6.69925 5.02754
#
# Compressibility (1/GPa) = 0.06875566
#
# Stress axis : x y z
#
# Youngs Moduli (GPa) = 54.96535 18.55821 25.14188
#
# Poissons Ratio (x) = 0.30100 0.54056
# Poissons Ratio (y) = 0.89149 -0.40658
# Poissons Ratio (z) = 1.18178 -0.30011
#
# Static dielectric constant tensor:
#      x y z
#    x 1.636510 0.000000 0.000000 
#    y 0.000000 1.638230 0.000000 
#    z 0.000000 0.000000 1.632680 
# 
# From -- ./inp_files/9333.got.cif
#   From: 2010.05.17/outbox.cif.g08.bks.cpg/sg74_5_cif.got.tgz:9333.got - 2010.06.03 17:57:02.
