data_PCOD9536109
_publ_section_title
;
Structure prediction by ZEFSAII (Michael W. Deem and Ramdas Pophale) SiO2 
 PCOD9536109
Probable space group: I M M A
;
_chemical_formula_sum "Si O2"
_cell_formula_units_Z 92
_cell_length_a 7.500596
_cell_length_b 22.842900
_cell_length_c 30.496715
_cell_angle_alpha 90.000000
_cell_angle_beta 90.000000
_cell_angle_gamma 90.000000
_cell_volume 5225.165777
_symmetry_space_group_name_H-M "I M M A"
_symmetry_group_IT_number 74
_symmetry_cell_setting 'orthorhombic'
loop_
_space_group_symop_operation_xyz
x,y,z
-x,1/2-y,z
x,-y,-z
-x,1/2+y,-z
-x,-y,-z
x,1/2+y,-z
-x,y,z
x,1/2-y,z
1/2+x,1/2+y,1/2+z
1/2-x,-y,1/2+z
1/2+x,1/2-y,1/2-z
1/2-x,y,1/2-z
1/2-x,1/2-y,1/2-z
1/2+x,y,1/2-z
1/2-x,1/2+y,1/2+z
1/2+x,-y,1/2+z
loop_
_atom_site_type_symbol
_atom_site_label
_atom_site_fract_x
_atom_site_fract_y
_atom_site_fract_z
Si Si1 0.708132 0.434272 0.615153
Si Si2 0.714392 0.315452 0.936101
Si Si3 0.785390 0.122739 0.801364
Si Si4 0.783303 0.028093 0.046165
Si Si5 0.712484 0.250000 0.697949
Si Si6 0.000000 0.750000 0.928977
Si Si7 0.793759 0.163286 0.461527
O O1 0.500000 0.448653 0.620292
O O2 0.718432 0.371476 0.590562
O O3 0.783288 0.424124 0.663798
O O4 0.783039 0.485291 0.584641
O O5 0.500000 0.316016 0.932843
O O6 0.776486 0.250000 0.922336
O O7 0.759495 0.324511 0.987490
O O8 0.750000 0.113169 0.750000
O O9 0.716192 0.187053 0.816308
O O10 0.000000 0.125027 0.805174
O O11 0.720397 0.094480 0.047983
O O12 0.000000 0.028690 0.046595
O O13 0.728014 0.000000 0.000000
O O14 0.500000 0.250000 0.690527
O O15 0.750000 0.250000 0.750000
O O16 0.843188 0.800600 0.932580
O O17 0.000000 0.181115 0.456885
#
# Coordination Sequence:
#
# PCOD9536109 Si02
#       7
#    16  16  16  16   8   4  16
#     4  10  21  32  50  72  95 128 175 216 258 311
#     4  10  21  33  44  67  99 128 170 219 262 302
#     4   9  18  32  47  67  90 123 165 214 264 311
#     4  10  19  33  51  73 101 138 178 214 260 311
#     4   8  14  26  43  60  84 113 156 205 258 304
#     4  12  22  36  56  74 104 142 172 214 276 306
#     4  11  22  35  54  77 101 137 180 218 257 315
#
# _framework density 17.607095999999999
#
# number of rings (size 3 to 8) (size 9 to 14) (size 15 to 20)
#    0.000    2.087    3.478    0.261    2.435    2.087 
#    0.000    0.000    0.000    0.000    0.000    0.000 
#    0.000    0.000    0.000    0.783    3.478    0.870 
#
# Total GULP energy -256156.549100 kJ/mol
# GULP energy per Si atom -5568.620633 kJ/mol
# Density = 1.756702 g / cm^3
# Si number density = 17.607096 Si / 1000 Ang^3
#
#
#
# Elastic Constant Matrix: (Units=GPa)
#
#
# Indices 1 2 3 4 5 6 
#
# 1 67.6714 14.4810 9.2134 0.0000 0.0000 0.0000
# 2 14.4810 141.4135 47.6865 0.0000 0.0000 0.0000
# 3 9.2134 47.6865 69.6263 0.0000 0.0000 0.0000
# 4 0.0000 0.0000 0.0000 26.1579 0.0000 0.0000
# 5 0.0000 0.0000 0.0000 0.0000 8.2239 0.0000
# 6 0.0000 0.0000 0.0000 0.0000 0.0000 -81.7059
#
#
#
# Elastic Compliance Matrix: (Units=1/GPa)
#
#
# Indices 1 2 3 4 5 6 
#
# 1 0.015189 -0.001141 -0.001228 0.000000 0.000000 0.000000
# 2 -0.001141 0.009281 -0.006205 0.000000 0.000000 0.000000
# 3 -0.001228 -0.006205 0.018775 0.000000 0.000000 0.000000
# 4 0.000000 0.000000 0.000000 0.038229 0.000000 0.000000
# 5 0.000000 0.000000 0.000000 0.000000 0.121597 0.000000
# 6 0.000000 0.000000 0.000000 0.000000 0.000000 -0.012239
#
#
# Mechanical properties :
#
#
# Convention : Reuss Voigt Hill
#
# Bulk Modulus (GPa) = 38.32173 46.83032 42.57602
# Shear Modulus (GPa) = 23.07551 4.35720 13.71635
#
# Velocity S-wave (km/s) = 3.62412 1.57482 2.79413
# Velocity P-wave (km/s) = 6.27093 5.47375 5.88585
#
# Compressibility (1/GPa) = 0.02609486
#
# Stress axis : x y z
#
# Youngs Moduli (GPa) = 65.83838 107.74879 53.26247
#
# Poissons Ratio (x) = 0.12296 0.06542
# Poissons Ratio (y) = 0.07513 0.33051
# Poissons Ratio (z) = 0.08087 0.66862
#
# Static dielectric constant tensor:
#      x y z
#    x 1.666180 0.000000 0.000000 
#    y 0.000000 1.630650 0.000000 
#    z 0.000000 0.000000 1.608790 
# 
# From -- ./inp_files/70523.got.cif
#   From: 2010.05.17/outbox.cif.g08.bks.cpg/sg74_36_cif.got.tgz:70523.got - 2010.06.03 17:57:02.
