data_PCOD9536650
_publ_section_title
;
Structure prediction by ZEFSAII (Michael W. Deem and Ramdas Pophale) SiO2 
 PCOD9536650
Probable space group: I M M A
;
_chemical_formula_sum "Si O2"
_cell_formula_units_Z 100
_cell_length_a 7.658313
_cell_length_b 26.641707
_cell_length_c 22.019375
_cell_angle_alpha 90.000000
_cell_angle_beta 90.000000
_cell_angle_gamma 90.000000
_cell_volume 4492.624775
_symmetry_space_group_name_H-M "I M M A"
_symmetry_group_IT_number 74
_symmetry_cell_setting 'orthorhombic'
loop_
_space_group_symop_operation_xyz
x,y,z
-x,1/2-y,z
x,-y,-z
-x,1/2+y,-z
-x,-y,-z
x,1/2+y,-z
-x,y,z
x,1/2-y,z
1/2+x,1/2+y,1/2+z
1/2-x,-y,1/2+z
1/2+x,1/2-y,1/2-z
1/2-x,y,1/2-z
1/2-x,1/2-y,1/2-z
1/2+x,y,1/2-z
1/2-x,1/2+y,1/2+z
1/2+x,-y,1/2+z
loop_
_atom_site_type_symbol
_atom_site_label
_atom_site_fract_x
_atom_site_fract_y
_atom_site_fract_z
Si Si1 0.500000 0.750000 0.299335
Si Si2 0.297875 0.617370 0.577336
Si Si3 0.201260 0.494248 0.432543
Si Si4 0.291923 0.945405 0.182555
Si Si5 0.787519 0.192849 0.973272
Si Si6 0.202785 0.170842 0.665029
Si Si7 0.208242 0.193832 0.320713
O O1 0.345803 0.793053 0.306644
O O2 0.500000 0.605908 0.564521
O O3 0.203932 0.564506 0.582944
O O4 0.230030 0.652323 0.522690
O O5 0.286187 0.651151 0.637216
O O6 0.280872 0.500000 0.500000
O O7 0.280704 0.524812 0.375867
O O8 0.000000 0.511916 0.438349
O O9 0.500000 0.948104 0.177992
O O10 0.250000 0.964944 0.250000
O O11 0.247331 0.886633 0.178393
O O12 0.738368 0.250000 0.989853
O O13 0.715000 0.179965 0.907314
O O14 0.000000 0.191731 0.969643
O O15 0.000000 0.181077 0.682866
O O16 0.271838 0.250000 0.337603
O O17 0.250000 0.186342 0.250000
O O18 0.000000 0.192913 0.328365
#
# Coordination Sequence:
#
# PCOD9536650 Si02
#       7
#     4  16  16  16  16  16  16
#     4  12  22  40  66  98 136 176 210 274 320 380
#     4  11  23  36  58  92 125 159 206 261 320 387
#     4  10  22  44  67  93 126 166 221 279 331 386
#     4  10  24  43  69  96 125 172 219 269 337 399
#     4  10  19  35  57  87 128 171 212 263 322 384
#     4  11  22  40  66  95 131 174 221 260 323 391
#     4  10  21  38  59  83 117 162 208 255 318 384
#
# _framework density 22.258702
#
# number of rings (size 3 to 8) (size 9 to 14) (size 15 to 20)
#    0.000    1.600    1.600    2.640    1.120    5.760 
#    0.000    2.000    0.000    0.000    0.000    0.000 
#    0.000    0.000    0.000    0.000    0.000    0.000 
#
# Total GULP energy -279139.933991 kJ/mol
# GULP energy per Si atom -5582.798680 kJ/mol
# Density = 2.220804 g / cm^3
# Si number density = 22.258702 Si / 1000 Ang^3
#
#
#
# Elastic Constant Matrix: (Units=GPa)
#
#
# Indices 1 2 3 4 5 6 
#
# 1 65.9002 31.9242 26.6678 0.0000 0.0000 0.0000
# 2 31.9242 125.1773 87.2712 0.0000 0.0000 0.0000
# 3 26.6678 87.2712 143.3389 0.0000 0.0000 0.0000
# 4 0.0000 0.0000 0.0000 77.7770 0.0000 0.0000
# 5 0.0000 0.0000 0.0000 0.0000 26.9965 0.0000
# 6 0.0000 0.0000 0.0000 0.0000 0.0000 -5.9507
#
#
#
# Elastic Compliance Matrix: (Units=1/GPa)
#
#
# Indices 1 2 3 4 5 6 
#
# 1 0.017384 -0.003786 -0.000930 0.000000 0.000000 0.000000
# 2 -0.003786 0.014705 -0.008249 0.000000 0.000000 0.000000
# 3 -0.000930 -0.008249 0.012172 0.000000 0.000000 0.000000
# 4 0.000000 0.000000 0.000000 0.012857 0.000000 0.000000
# 5 0.000000 0.000000 0.000000 0.000000 0.037042 0.000000
# 6 0.000000 0.000000 0.000000 0.000000 0.000000 -0.168048
#
#
# Mechanical properties :
#
#
# Convention : Reuss Voigt Hill
#
# Bulk Modulus (GPa) = 54.54526 69.57144 62.05835
# Shear Modulus (GPa) = -119.47761 32.33476 -43.57142
#
# Velocity S-wave (km/s) = -7.33439 3.81554 -4.42916
# Velocity P-wave (km/s) = 6.86776 7.12284 1.33579
#
# Compressibility (1/GPa) = 0.01833340
#
# Stress axis : x y z
#
# Youngs Moduli (GPa) = 57.52267 68.00408 82.15825
#
# Poissons Ratio (x) = 0.25743 0.07637
# Poissons Ratio (y) = 0.21776 0.67771
# Poissons Ratio (z) = 0.05347 0.56095
#
# Static dielectric constant tensor:
#      x y z
#    x 1.845570 0.000000 0.000000 
#    y 0.000000 1.783500 0.000000 
#    z 0.000000 0.000000 1.835490 
# 
# From -- ./inp_files/49247.got.cif
#   From: 2010.05.17/outbox.cif.g08.bks.cpg/sg74_25_cif.got.tgz:49247.got - 2010.06.03 17:57:02.
