data_PCOD9536448
_publ_section_title
;
Structure prediction by ZEFSAII (Michael W. Deem and Ramdas Pophale) SiO2 
 PCOD9536448
Probable space group: I M M A
;
_chemical_formula_sum "Si O2"
_cell_formula_units_Z 80
_cell_length_a 16.913183
_cell_length_b 29.046144
_cell_length_c 8.090099
_cell_angle_alpha 90.000000
_cell_angle_beta 90.000000
_cell_angle_gamma 90.000000
_cell_volume 3974.364274
_symmetry_space_group_name_H-M "I M M A"
_symmetry_group_IT_number 74
_symmetry_cell_setting 'orthorhombic'
loop_
_space_group_symop_operation_xyz
x,y,z
-x,1/2-y,z
x,-y,-z
-x,1/2+y,-z
-x,-y,-z
x,1/2+y,-z
-x,y,z
x,1/2-y,z
1/2+x,1/2+y,1/2+z
1/2-x,-y,1/2+z
1/2+x,1/2-y,1/2-z
1/2-x,y,1/2-z
1/2-x,1/2-y,1/2-z
1/2+x,y,1/2-z
1/2-x,1/2+y,1/2+z
1/2+x,-y,1/2+z
loop_
_atom_site_type_symbol
_atom_site_label
_atom_site_fract_x
_atom_site_fract_y
_atom_site_fract_z
Si Si1 0.342211 0.301408 0.692990
Si Si2 0.854702 0.890865 0.379523
Si Si3 0.589107 0.571579 0.784888
Si Si4 0.594407 0.024214 0.675690
Si Si5 0.796218 0.637234 0.911764
O O1 0.375371 0.250000 0.704381
O O2 0.250000 0.298710 0.750000
O O3 0.378885 0.341525 0.805489
O O4 0.340446 0.322405 0.508997
O O5 0.906256 0.905932 0.535720
O O6 0.862603 0.930239 0.240500
O O7 0.767748 0.884065 0.460661
O O8 0.500000 0.573295 0.719094
O O9 0.611135 0.518069 0.799498
O O10 0.646014 0.598572 0.660661
O O11 0.500000 0.033952 0.674272
O O12 0.614695 0.000000 0.500000
O O13 0.750000 0.655202 0.750000
#
# Coordination Sequence:
#
# PCOD9536448 Si02
#       5
#    16  16  16  16  16
#     4   9  18  34  56  80 107 141 181 226 277 330
#     4  10  19  34  55  81 112 142 184 233 273 319
#     4  10  20  36  57  80 111 150 185 220 271 332
#     4  10  20  34  55  82 112 148 184 218 270 339
#     4   9  19  35  55  83 111 140 182 231 277 321
#
# _framework density 20.129004999999999
#
# number of rings (size 3 to 8) (size 9 to 14) (size 15 to 20)
#    0.000    2.400    0.000    2.400    0.000    2.000 
#    0.000   27.000    0.000    6.600    0.000    0.000 
#    0.000    0.800    0.000    0.000    0.000    0.000 
#
# Total GULP energy -223144.886436 kJ/mol
# GULP energy per Si atom -5578.622161 kJ/mol
# Density = 2.008319 g / cm^3
# Si number density = 20.129005 Si / 1000 Ang^3
#
#
#
# Elastic Constant Matrix: (Units=GPa)
#
#
# Indices 1 2 3 4 5 6 
#
# 1 24.3887 28.9762 22.6331 -0.0003 -0.0002 -0.0009
# 2 28.9762 181.6128 78.9711 -0.0012 0.0000 -0.0019
# 3 22.6331 78.9711 126.8709 -0.0068 0.0006 -0.0125
# 4 -0.0003 -0.0012 -0.0068 19.9274 0.0002 -0.0098
# 5 -0.0002 0.0000 0.0006 0.0002 15.8188 -0.0036
# 6 -0.0009 -0.0019 -0.0125 -0.0098 -0.0036 -123.0036
#
#
#
# Elastic Compliance Matrix: (Units=1/GPa)
#
#
# Indices 1 2 3 4 5 6 
#
# 1 0.053540 -0.006018 -0.005805 -0.000002 0.000001 0.000000
# 2 -0.006018 0.008226 -0.004047 -0.000001 0.000000 0.000000
# 3 -0.005805 -0.004047 0.011437 0.000004 0.000000 -0.000001
# 4 -0.000002 -0.000001 0.000004 0.050182 -0.000001 -0.000004
# 5 0.000001 0.000000 0.000000 -0.000001 0.063216 -0.000002
# 6 0.000000 0.000000 -0.000001 -0.000004 -0.000002 -0.008130
#
#
# Mechanical properties :
#
#
# Convention : Reuss Voigt Hill
#
# Bulk Modulus (GPa) = 24.11822 66.00370 45.06096
# Shear Modulus (GPa) = 22.31826 -3.96537 9.17644
#
# Velocity S-wave (km/s) = 3.33342 -1.40508 2.13745
# Velocity P-wave (km/s) = 5.17913 5.49811 5.34100
#
# Compressibility (1/GPa) = 0.04146243
#
# Stress axis : x y z
#
# Youngs Moduli (GPa) = 18.67766 121.56535 87.43858
#
# Poissons Ratio (x) = 0.73157 0.50762
# Poissons Ratio (y) = 0.11240 0.35384
# Poissons Ratio (z) = 0.10843 0.49194
#
# Static dielectric constant tensor:
#      x y z
#    x 1.739910 0.000000 0.000000 
#    y 0.000000 1.708730 0.000000 
#    z 0.000000 0.000000 1.764830 
# 
# From -- ./inp_files/10960.got.cif
#   From: 2010.05.17/outbox.cif.g08.bks.cpg/sg74_6_cif.got.tgz:10960.got - 2010.06.03 17:57:02.
