data_PCOD9536425
_publ_section_title
;
Structure prediction by ZEFSAII (Michael W. Deem and Ramdas Pophale) SiO2 
 PCOD9536425
Probable space group: I M M A
;
_chemical_formula_sum "Si O2"
_cell_formula_units_Z 120
_cell_length_a 28.551566
_cell_length_b 7.422548
_cell_length_c 25.841040
_cell_angle_alpha 90.000000
_cell_angle_beta 90.000000
_cell_angle_gamma 90.000000
_cell_volume 5476.371940
_symmetry_space_group_name_H-M "I M M A"
_symmetry_group_IT_number 74
_symmetry_cell_setting 'orthorhombic'
loop_
_space_group_symop_operation_xyz
x,y,z
-x,1/2-y,z
x,-y,-z
-x,1/2+y,-z
-x,-y,-z
x,1/2+y,-z
-x,y,z
x,1/2-y,z
1/2+x,1/2+y,1/2+z
1/2-x,-y,1/2+z
1/2+x,1/2-y,1/2-z
1/2-x,y,1/2-z
1/2-x,1/2-y,1/2-z
1/2+x,y,1/2-z
1/2-x,1/2+y,1/2+z
1/2+x,-y,1/2+z
loop_
_atom_site_type_symbol
_atom_site_label
_atom_site_fract_x
_atom_site_fract_y
_atom_site_fract_z
Si Si1 0.551103 0.531923 0.697022
Si Si2 0.715142 0.957881 0.653909
Si Si3 0.847467 0.963836 0.056225
Si Si4 0.180412 0.970171 0.640935
Si Si5 0.500000 0.534993 0.938373
Si Si6 0.648443 0.470175 0.255293
Si Si7 0.602602 0.034002 0.061239
Si Si8 0.449331 0.459840 0.575299
O O1 0.500000 0.476641 0.717701
O O2 0.552009 0.750000 0.696068
O O3 0.596781 0.470449 0.727439
O O4 0.553805 0.470118 0.637581
O O5 0.724100 0.750000 0.668228
O O6 0.765828 0.034012 0.639249
O O7 0.686747 0.034485 0.702788
O O8 0.681771 0.962612 0.604052
O O9 0.850223 0.750000 0.064317
O O10 0.900534 0.039620 0.055969
O O11 0.826032 0.000000 0.000000
O O12 0.180715 0.750000 0.637772
O O13 0.160790 0.020901 0.697167
O O14 0.145637 0.033329 0.595756
O O15 0.500000 0.750000 0.929360
O O16 0.448987 0.465955 0.920944
O O17 0.500000 0.500000 0.000000
O O18 0.648380 0.250000 0.257222
O O19 0.601144 0.250000 0.067189
O O20 0.608499 0.000000 0.000000
O O21 0.500000 0.539486 0.560553
O O22 0.450264 0.250000 0.560091
#
# Coordination Sequence:
#
# PCOD9536425 Si02
#       8
#    16  16  16  16   8  16  16  16
#     4   9  16  27  47  76 105 133 166 206 252 300
#     4  10  19  34  55  74  98 136 175 211 252 301
#     4  11  23  37  54  76 103 133 170 215 261 308
#     4   9  18  31  50  78 104 130 170 212 250 296
#     4   8  14  26  46  70  94 126 160 192 239 294
#     4   9  16  29  50  76 104 133 167 207 251 299
#     4   9  17  31  50  72  99 129 162 200 244 295
#     4   9  18  33  52  73  99 133 169 206 253 307
#
# _framework density 21.912316000000001
#
# number of rings (size 3 to 8) (size 9 to 14) (size 15 to 20)
#    0.000    2.667    1.333    0.800    0.000    2.933 
#    1.200    2.000    0.000    4.000    0.000    0.000 
#    0.000    0.000    0.000    0.000    0.000    0.000 
#
# Total GULP energy -334838.217464 kJ/mol
# GULP energy per Si atom -5580.636958 kJ/mol
# Density = 2.186244 g / cm^3
# Si number density = 21.912316 Si / 1000 Ang^3
#
#
#
# Elastic Constant Matrix: (Units=GPa)
#
#
# Indices 1 2 3 4 5 6 
#
# 1 209.3587 8.1617 92.7670 0.0000 0.0000 0.0000
# 2 8.1617 74.8550 -8.2936 0.0000 0.0000 0.0000
# 3 92.7670 -8.2936 114.8396 0.0000 0.0000 0.0000
# 4 0.0000 0.0000 0.0000 9.2739 0.0000 0.0000
# 5 0.0000 0.0000 0.0000 0.0000 -0.7534 0.0000
# 6 0.0000 0.0000 0.0000 0.0000 0.0000 -7.1305
#
#
#
# Elastic Compliance Matrix: (Units=1/GPa)
#
#
# Indices 1 2 3 4 5 6 
#
# 1 0.007608 -0.001523 -0.006255 0.000000 0.000000 0.000000
# 2 -0.001523 0.013772 0.002224 0.000000 0.000000 0.000000
# 3 -0.006255 0.002224 0.013922 0.000000 0.000000 0.000000
# 4 0.000000 0.000000 0.000000 0.107830 0.000000 0.000000
# 5 0.000000 0.000000 0.000000 0.000000 -1.327354 0.000000
# 6 0.000000 0.000000 0.000000 0.000000 0.000000 -0.140243
#
#
# Mechanical properties :
#
#
# Convention : Reuss Voigt Hill
#
# Bulk Modulus (GPa) = 41.33273 64.92484 53.12878
# Shear Modulus (GPa) = -3.83055 20.70588 8.43767
#
# Velocity S-wave (km/s) = -1.32360 3.07733 1.96444
# Velocity P-wave (km/s) = 4.07036 6.50540 5.42624
#
# Compressibility (1/GPa) = 0.02419390
#
# Stress axis : x y z
#
# Youngs Moduli (GPa) = 131.44746 72.61306 71.83131
#
# Poissons Ratio (x) = 0.11056 0.44933
# Poissons Ratio (y) = 0.20014 -0.15979
# Poissons Ratio (z) = 0.82225 -0.16153
#
# Static dielectric constant tensor:
#      x y z
#    x 1.832290 0.000000 0.000000 
#    y 0.000000 1.845490 0.000000 
#    z 0.000000 0.000000 1.738730 
# 
# From -- ./inp_files/68984.got.cif
#   From: 2010.05.17/outbox.cif.g08.bks.cpg/sg74_35_cif.got.tgz:68984.got - 2010.06.03 17:57:02.
