data_PCOD9536044
_publ_section_title
;
Structure prediction by ZEFSAII (Michael W. Deem and Ramdas Pophale) SiO2 
 PCOD9536044
Probable space group: I M M A
;
_chemical_formula_sum "Si O2"
_cell_formula_units_Z 104
_cell_length_a 26.602723
_cell_length_b 8.527855
_cell_length_c 20.349173
_cell_angle_alpha 90.000000
_cell_angle_beta 90.000000
_cell_angle_gamma 90.000000
_cell_volume 4616.498128
_symmetry_space_group_name_H-M "I M M A"
_symmetry_group_IT_number 74
_symmetry_cell_setting 'orthorhombic'
loop_
_space_group_symop_operation_xyz
x,y,z
-x,1/2-y,z
x,-y,-z
-x,1/2+y,-z
-x,-y,-z
x,1/2+y,-z
-x,y,z
x,1/2-y,z
1/2+x,1/2+y,1/2+z
1/2-x,-y,1/2+z
1/2+x,1/2-y,1/2-z
1/2-x,y,1/2-z
1/2-x,1/2-y,1/2-z
1/2+x,y,1/2-z
1/2-x,1/2+y,1/2+z
1/2+x,-y,1/2+z
loop_
_atom_site_type_symbol
_atom_site_label
_atom_site_fract_x
_atom_site_fract_y
_atom_site_fract_z
Si Si1 0.946246 0.435482 0.573687
Si Si2 0.773358 0.500000 0.500000
Si Si3 0.304642 0.560178 0.601159
Si Si4 0.087420 0.064840 0.933959
Si Si5 0.665010 0.436785 0.257389
Si Si6 0.655241 0.072263 0.118376
Si Si7 0.555224 0.063838 0.713119
O O1 0.942045 0.500000 0.500000
O O2 0.948282 0.250000 0.570228
O O3 0.895736 0.478520 0.610156
O O4 0.000000 0.493216 0.601084
O O5 0.732431 0.543977 0.443672
O O6 0.812721 0.425519 0.448373
O O7 0.291793 0.750000 0.595536
O O8 0.360957 0.532277 0.575338
O O9 0.307131 0.505810 0.677056
O O10 0.098436 0.250000 0.940842
O O11 0.057678 0.046521 0.866020
O O12 0.062553 0.000000 0.000000
O O13 0.670017 0.250000 0.263394
O O14 0.683301 0.483316 0.184601
O O15 0.606025 0.482534 0.261726
O O16 0.640001 0.250000 0.131315
O O17 0.500000 0.008835 0.735883
O O18 0.558957 0.250000 0.728315
#
# Coordination Sequence:
#
# PCOD9536044 Si02
#       7
#    16   8  16  16  16  16  16
#     4  10  21  38  62  91 125 165 206 247 297 356
#     4  12  24  36  63  94 119 152 200 252 306 358
#     4  10  21  39  62  87 117 157 203 249 301 361
#     4  10  19  32  54  83 118 157 199 246 298 355
#     4   9  21  41  62  86 121 163 205 248 298 356
#     4  11  24  41  62  93 129 162 200 250 301 355
#     4   9  19  36  57  84 119 159 201 246 298 356
#
# _framework density 22.527899000000001
#
# number of rings (size 3 to 8) (size 9 to 14) (size 15 to 20)
#    0.000    2.000    1.538    1.385    0.000    5.231 
#    0.000    5.385    0.000    0.000    0.000    9.692 
#    0.000    0.000    0.000    0.000    0.000    0.000 
#
# Total GULP energy -289656.418153 kJ/mol
# GULP energy per Si atom -5570.315734 kJ/mol
# Density = 2.247662 g / cm^3
# Si number density = 22.527899 Si / 1000 Ang^3
#
#
#
# Elastic Constant Matrix: (Units=GPa)
#
#
# Indices 1 2 3 4 5 6 
#
# 1 103.5933 12.9255 34.5868 0.0000 0.0000 0.0000
# 2 12.9255 15.8018 32.1251 0.0000 0.0000 0.0000
# 3 34.5868 32.1251 166.9174 0.0000 0.0000 0.0000
# 4 0.0000 0.0000 0.0000 20.2182 0.0000 0.0000
# 5 0.0000 0.0000 0.0000 0.0000 19.2190 0.0000
# 6 0.0000 0.0000 0.0000 0.0000 0.0000 83.2148
#
#
#
# Elastic Compliance Matrix: (Units=1/GPa)
#
#
# Indices 1 2 3 4 5 6 
#
# 1 0.010829 -0.007058 -0.000886 0.000000 0.000000 0.000000
# 2 -0.007058 0.108561 -0.019431 0.000000 0.000000 0.000000
# 3 -0.000886 -0.019431 0.009914 0.000000 0.000000 0.000000
# 4 0.000000 0.000000 0.000000 0.049460 0.000000 0.000000
# 5 0.000000 0.000000 0.000000 0.000000 0.052032 0.000000
# 6 0.000000 0.000000 0.000000 0.000000 0.000000 0.012017
#
#
# Mechanical properties :
#
#
# Convention : Reuss Voigt Hill
#
# Bulk Modulus (GPa) = 13.41284 49.50968 31.46126
# Shear Modulus (GPa) = 15.50794 38.30875 26.90834
#
# Velocity S-wave (km/s) = 2.62656 4.12819 3.45982
# Velocity P-wave (km/s) = 3.89426 6.68935 5.47323
#
# Compressibility (1/GPa) = 0.07455545
#
# Stress axis : x y z
#
# Youngs Moduli (GPa) = 92.34107 9.21139 100.86461
#
# Poissons Ratio (x) = 0.06501 0.08933
# Poissons Ratio (y) = 0.65172 1.95994
# Poissons Ratio (z) = 0.08178 0.17899
#
# Static dielectric constant tensor:
#      x y z
#    x 1.837840 0.000000 0.000000 
#    y 0.000000 1.788910 0.000000 
#    z 0.000000 0.000000 1.885350 
# 
# From -- ./inp_files/55274.got.cif
#   From: 2010.05.17/outbox.cif.g08.bks.cpg/sg74_28_cif.got.tgz:55274.got - 2010.06.03 17:57:02.
