data_PCOD9536118
_publ_section_title
;
Structure prediction by ZEFSAII (Michael W. Deem and Ramdas Pophale) SiO2 
 PCOD9536118
Probable space group: I M M A
;
_chemical_formula_sum "Si O2"
_cell_formula_units_Z 116
_cell_length_a 9.541360
_cell_length_b 22.639481
_cell_length_c 27.574598
_cell_angle_alpha 90.000000
_cell_angle_beta 90.000000
_cell_angle_gamma 90.000000
_cell_volume 5956.428578
_symmetry_space_group_name_H-M "I M M A"
_symmetry_group_IT_number 74
_symmetry_cell_setting 'orthorhombic'
loop_
_space_group_symop_operation_xyz
x,y,z
-x,1/2-y,z
x,-y,-z
-x,1/2+y,-z
-x,-y,-z
x,1/2+y,-z
-x,y,z
x,1/2-y,z
1/2+x,1/2+y,1/2+z
1/2-x,-y,1/2+z
1/2+x,1/2-y,1/2-z
1/2-x,y,1/2-z
1/2-x,1/2-y,1/2-z
1/2+x,y,1/2-z
1/2-x,1/2+y,1/2+z
1/2+x,-y,1/2+z
loop_
_atom_site_type_symbol
_atom_site_label
_atom_site_fract_x
_atom_site_fract_y
_atom_site_fract_z
Si Si1 0.832738 0.950417 0.204891
Si Si2 0.262699 0.460391 0.071217
Si Si3 0.165201 0.816616 0.828263
Si Si4 0.661874 0.909954 0.403117
Si Si5 0.500000 0.000000 0.000000
Si Si6 0.837914 0.568283 0.680215
Si Si7 0.345903 0.162669 0.442406
Si Si8 0.836339 0.317191 0.534819
O O1 0.750000 0.922501 0.250000
O O2 0.812142 0.915051 0.154685
O O3 0.000000 0.956001 0.212964
O O4 0.759892 0.014631 0.198324
O O5 0.192090 0.523993 0.077871
O O6 0.333166 0.441776 0.122158
O O7 0.157256 0.408302 0.058915
O O8 0.378668 0.465402 0.030586
O O9 0.197912 0.750000 0.811448
O O10 0.264667 0.868846 0.809344
O O11 0.179554 0.817362 0.887147
O O12 0.000000 0.829049 0.818341
O O13 0.500000 0.894727 0.411377
O O14 0.759208 0.863893 0.430837
O O15 0.000000 0.565158 0.696732
O O16 0.500000 0.183006 0.457433
O O17 0.231734 0.181148 0.481473
O O18 0.822072 0.250000 0.553304
O O19 0.000000 0.332329 0.532099
#
# Coordination Sequence:
#
# PCOD9536118 Si02
#       8
#    16  16  16  16   4  16  16  16
#     4  10  21  38  62  91 115 137 169 215 279 347
#     4  10  21  31  50  78 110 142 183 228 277 323
#     4   9  18  32  50  73 104 148 197 240 278 317
#     4  10  22  39  60  82 110 144 182 227 277 334
#     4  12  20  28  42  72 106 148 182 220 264 318
#     4  10  19  33  51  78 112 145 181 222 275 325
#     4  10  20  34  53  74 105 146 193 241 279 322
#     4  11  25  39  52  74 107 147 189 232 276 322
#
# _framework density 19.474755999999999
#
# number of rings (size 3 to 8) (size 9 to 14) (size 15 to 20)
#    0.000    1.931    0.690    2.897    3.862    6.897 
#    0.000    2.069    0.000    0.828    0.000    0.000 
#    0.000    0.000    0.000    0.000    0.000    0.000 
#
# Total GULP energy -323411.352530 kJ/mol
# GULP energy per Si atom -5576.057802 kJ/mol
# Density = 1.943043 g / cm^3
# Si number density = 19.474756 Si / 1000 Ang^3
#
#
#
# Elastic Constant Matrix: (Units=GPa)
#
#
# Indices 1 2 3 4 5 6 
#
# 1 123.6049 36.1651 39.7463 0.0000 0.0000 0.0000
# 2 36.1651 71.2087 31.8887 0.0000 0.0000 0.0000
# 3 39.7463 31.8887 40.8618 0.0000 0.0000 0.0000
# 4 0.0000 0.0000 0.0000 7.1562 0.0000 0.0000
# 5 0.0000 0.0000 0.0000 0.0000 17.8109 0.0000
# 6 0.0000 0.0000 0.0000 0.0000 0.0000 -10.3726
#
#
#
# Elastic Compliance Matrix: (Units=1/GPa)
#
#
# Indices 1 2 3 4 5 6 
#
# 1 0.011852 -0.001317 -0.010501 0.000000 0.000000 0.000000
# 2 -0.001317 0.021734 -0.015680 0.000000 0.000000 0.000000
# 3 -0.010501 -0.015680 0.046924 0.000000 0.000000 0.000000
# 4 0.000000 0.000000 0.000000 0.139740 0.000000 0.000000
# 5 0.000000 0.000000 0.000000 0.000000 0.056145 0.000000
# 6 0.000000 0.000000 0.000000 0.000000 0.000000 -0.096408
#
#
# Mechanical properties :
#
#
# Convention : Reuss Voigt Hill
#
# Bulk Modulus (GPa) = 39.19441 50.14177 44.66809
# Shear Modulus (GPa) = 20.53484 11.44391 15.98938
#
# Velocity S-wave (km/s) = 3.25073 2.42673 2.86847
# Velocity P-wave (km/s) = 5.85313 5.80129 5.82727
#
# Compressibility (1/GPa) = 0.02551384
#
# Stress axis : x y z
#
# Youngs Moduli (GPa) = 84.37171 46.01077 21.31099
#
# Poissons Ratio (x) = 0.06059 0.22379
# Poissons Ratio (y) = 0.11111 0.33416
# Poissons Ratio (z) = 0.88599 0.72147
#
# Static dielectric constant tensor:
#      x y z
#    x 1.648890 0.000000 0.000000 
#    y 0.000000 1.690610 0.000000 
#    z 0.000000 0.000000 1.715850 
# 
# From -- ./inp_files/70923.got.cif
#   From: 2010.05.17/outbox.cif.g08.bks.cpg/sg74_36_cif.got.tgz:70923.got - 2010.06.03 17:57:02.
