data_PCOD9536905
_publ_section_title
;
Structure prediction by ZEFSAII (Michael W. Deem and Ramdas Pophale) SiO2 
 PCOD9536905
Probable space group: I M M A
;
_chemical_formula_sum "Si O2"
_cell_formula_units_Z 112
_cell_length_a 14.192876
_cell_length_b 17.252383
_cell_length_c 28.837418
_cell_angle_alpha 90.000000
_cell_angle_beta 90.000000
_cell_angle_gamma 90.000000
_cell_volume 7061.157066
_symmetry_space_group_name_H-M "I M M A"
_symmetry_group_IT_number 74
_symmetry_cell_setting 'orthorhombic'
loop_
_space_group_symop_operation_xyz
x,y,z
-x,1/2-y,z
x,-y,-z
-x,1/2+y,-z
-x,-y,-z
x,1/2+y,-z
-x,y,z
x,1/2-y,z
1/2+x,1/2+y,1/2+z
1/2-x,-y,1/2+z
1/2+x,1/2-y,1/2-z
1/2-x,y,1/2-z
1/2-x,1/2-y,1/2-z
1/2+x,y,1/2-z
1/2-x,1/2+y,1/2+z
1/2+x,-y,1/2+z
loop_
_atom_site_type_symbol
_atom_site_label
_atom_site_fract_x
_atom_site_fract_y
_atom_site_fract_z
Si Si1 0.390673 0.658720 0.759103
Si Si2 0.105695 0.833892 0.901057
Si Si3 0.765744 0.607521 0.823365
Si Si4 0.722930 0.064792 0.639387
Si Si5 0.110536 0.500624 0.053268
Si Si6 0.610334 0.343220 0.824003
Si Si7 0.886461 0.659910 0.217415
O O1 0.500000 0.640002 0.762962
O O2 0.380649 0.750000 0.747593
O O3 0.331985 0.641526 0.805277
O O4 0.339040 0.610195 0.719315
O O5 0.112670 0.750000 0.924919
O O6 0.185000 0.841330 0.862484
O O7 0.000000 0.837248 0.879527
O O8 0.113839 0.910598 0.931440
O O9 0.755444 0.520879 0.841617
O O10 0.670910 0.050791 0.590084
O O11 0.819126 0.114133 0.641158
O O12 0.656285 0.107608 0.676991
O O13 0.000000 0.525022 0.055182
O O14 0.142497 0.500000 0.000000
O O15 0.500000 0.363356 0.830327
O O16 0.617899 0.250000 0.827768
O O17 0.638139 0.363412 0.770478
O O18 0.856903 0.750000 0.211198
O O19 0.000000 0.657730 0.215105
#
# Coordination Sequence:
#
# PCOD9536905 Si02
#       7
#    16  16  16  16  16  16  16
#     4  10  20  32  43  58  88 125 154 186 229 269
#     4   9  16  29  50  69  87 119 158 189 226 283
#     4  10  20  29  42  67  91 117 155 197 229 265
#     4  11  20  30  49  73  94 127 165 201 244 291
#     4   9  19  35  51  71 101 127 154 203 257 297
#     4   9  19  34  50  70 101 139 171 201 240 291
#     4   9  18  31  47  70 102 137 168 198 237 292
#
# _framework density 15.861423
#
# number of rings (size 3 to 8) (size 9 to 14) (size 15 to 20)
#    0.000    2.429    0.000    4.286    4.000    4.571 
#    0.000    1.429    0.000    3.857    0.000    0.000 
#    0.000    9.143    0.000    0.000    0.000    0.000 
#
# Total GULP energy -312065.984388 kJ/mol
# GULP energy per Si atom -5572.606864 kJ/mol
# Density = 1.582532 g / cm^3
# Si number density = 15.861423 Si / 1000 Ang^3
#
#
#
# Elastic Constant Matrix: (Units=GPa)
#
#
# Indices 1 2 3 4 5 6 
#
# 1 92.3050 26.2694 44.7549 0.0000 0.0000 0.0000
# 2 26.2694 50.2459 28.0002 0.0000 0.0000 0.0000
# 3 44.7549 28.0002 81.7417 0.0000 0.0000 0.0000
# 4 0.0000 0.0000 0.0000 9.9633 0.0000 0.0000
# 5 0.0000 0.0000 0.0000 0.0000 19.7255 0.0000
# 6 0.0000 0.0000 0.0000 0.0000 0.0000 27.0250
#
#
#
# Elastic Compliance Matrix: (Units=1/GPa)
#
#
# Indices 1 2 3 4 5 6 
#
# 1 0.015418 -0.004149 -0.007021 0.000000 0.000000 0.000000
# 2 -0.004149 0.025714 -0.006537 0.000000 0.000000 0.000000
# 3 -0.007021 -0.006537 0.018317 0.000000 0.000000 0.000000
# 4 0.000000 0.000000 0.000000 0.100369 0.000000 0.000000
# 5 0.000000 0.000000 0.000000 0.000000 0.050696 0.000000
# 6 0.000000 0.000000 0.000000 0.000000 0.000000 0.037003
#
#
# Mechanical properties :
#
#
# Convention : Reuss Voigt Hill
#
# Bulk Modulus (GPa) = 41.60283 46.92684 44.26484
# Shear Modulus (GPa) = 17.18564 19.69395 18.43980
#
# Velocity S-wave (km/s) = 3.29521 3.52749 3.41333
# Velocity P-wave (km/s) = 6.38465 6.80005 6.59562
#
# Compressibility (1/GPa) = 0.02403683
#
# Stress axis : x y z
#
# Youngs Moduli (GPa) = 64.85766 38.88968 54.59483
#
# Poissons Ratio (x) = 0.16134 0.38330
# Poissons Ratio (y) = 0.26907 0.35687
# Poissons Ratio (z) = 0.45535 0.25421
#
# Static dielectric constant tensor:
#      x y z
#    x 1.546270 0.000000 0.000000 
#    y 0.000000 1.539930 0.000000 
#    z 0.000000 0.000000 1.519090 
# 
# From -- ./inp_files/67219.got.cif
#   From: 2010.05.17/outbox.cif.g08.bks.cpg/sg74_34_cif.got.tgz:67219.got - 2010.06.03 17:57:02.
