data_PCOD9536454
_publ_section_title
;
Structure prediction by ZEFSAII (Michael W. Deem and Ramdas Pophale) SiO2 
 PCOD9536454
Probable space group: I M M A
;
_chemical_formula_sum "Si O2"
_cell_formula_units_Z 96
_cell_length_a 21.026264
_cell_length_b 8.695571
_cell_length_c 29.026338
_cell_angle_alpha 90.000000
_cell_angle_beta 90.000000
_cell_angle_gamma 90.000000
_cell_volume 5307.041291
_symmetry_space_group_name_H-M "I M M A"
_symmetry_group_IT_number 74
_symmetry_cell_setting 'orthorhombic'
loop_
_space_group_symop_operation_xyz
x,y,z
-x,1/2-y,z
x,-y,-z
-x,1/2+y,-z
-x,-y,-z
x,1/2+y,-z
-x,y,z
x,1/2-y,z
1/2+x,1/2+y,1/2+z
1/2-x,-y,1/2+z
1/2+x,1/2-y,1/2-z
1/2-x,y,1/2-z
1/2-x,1/2-y,1/2-z
1/2+x,y,1/2-z
1/2-x,1/2+y,1/2+z
1/2+x,-y,1/2+z
loop_
_atom_site_type_symbol
_atom_site_label
_atom_site_fract_x
_atom_site_fract_y
_atom_site_fract_z
Si Si1 0.000000 0.934214 0.805356
Si Si2 0.623579 0.933650 0.354954
Si Si3 0.125071 0.564502 0.642984
Si Si4 0.745429 0.065593 0.304173
Si Si5 0.328084 0.565892 0.049651
Si Si6 0.320070 0.435143 0.549357
Si Si7 0.500000 0.062357 0.198786
O O1 0.000000 0.750000 0.804682
O O2 0.000000 0.988250 0.751995
O O3 0.937620 0.992029 0.831657
O O4 0.616295 0.750000 0.354973
O O5 0.637371 0.985081 0.407517
O O6 0.686141 0.980109 0.326546
O O7 0.123308 0.750000 0.639832
O O8 0.189031 0.522184 0.670701
O O9 0.131045 0.496502 0.592005
O O10 0.063119 0.513855 0.671367
O O11 0.736420 0.250000 0.309613
O O12 0.750000 0.033282 0.250000
O O13 0.330261 0.750000 0.048578
O O14 0.253872 0.518044 0.057200
O O15 0.347399 0.500000 0.000000
O O16 0.340135 0.500000 0.500000
O O17 0.320923 0.250000 0.547524
O O18 0.500000 0.250000 0.199508
#
# Coordination Sequence:
#
# PCOD9536454 Si02
#       7
#     8  16  16  16  16  16   8
#     4  11  23  41  62  83 112 155 198 235 278 339
#     4  11  22  38  57  84 117 149 186 235 291 341
#     4  10  19  34  57  83 111 147 188 234 284 334
#     4  10  20  34  55  83 112 146 192 239 282 336
#     4  10  19  34  55  83 115 147 184 230 283 338
#     4   9  19  34  55  82 114 146 182 229 281 337
#     4   9  20  39  60  81 112 151 194 237 280 331
#
# _framework density 18.089176999999999
#
# number of rings (size 3 to 8) (size 9 to 14) (size 15 to 20)
#    0.000    2.000    1.667    2.250    0.000    5.000 
#    0.000    4.583    0.000    0.000    0.000    0.000 
#    0.000    0.000    0.000    0.000    0.000    0.000 
#
# Total GULP energy -268025.130956 kJ/mol
# GULP energy per Si atom -5583.856895 kJ/mol
# Density = 1.804800 g / cm^3
# Si number density = 18.089177 Si / 1000 Ang^3
#
#
#
# Elastic Constant Matrix: (Units=GPa)
#
#
# Indices 1 2 3 4 5 6 
#
# 1 131.4894 36.3686 87.7168 0.0000 0.0000 0.0000
# 2 36.3686 25.7935 41.4267 0.0000 0.0000 0.0000
# 3 87.7168 41.4267 183.9579 0.0000 0.0000 0.0000
# 4 0.0000 0.0000 0.0000 30.0714 0.0000 0.0000
# 5 0.0000 0.0000 0.0000 0.0000 31.2283 0.0000
# 6 0.0000 0.0000 0.0000 0.0000 0.0000 41.7604
#
#
#
# Elastic Compliance Matrix: (Units=1/GPa)
#
#
# Indices 1 2 3 4 5 6 
#
# 1 0.013718 -0.013844 -0.003424 0.000000 0.000000 0.000000
# 2 -0.013844 0.074708 -0.010223 0.000000 0.000000 0.000000
# 3 -0.003424 -0.010223 0.009371 0.000000 0.000000 0.000000
# 4 0.000000 0.000000 0.000000 0.033254 0.000000 0.000000
# 5 0.000000 0.000000 0.000000 0.000000 0.032022 0.000000
# 6 0.000000 0.000000 0.000000 0.000000 0.000000 0.023946
#
#
# Mechanical properties :
#
#
# Convention : Reuss Voigt Hill
#
# Bulk Modulus (GPa) = 23.35570 74.69613 49.02591
# Shear Modulus (GPa) = 19.51056 32.32726 25.91891
#
# Velocity S-wave (km/s) = 3.28773 4.23200 3.78939
# Velocity P-wave (km/s) = 5.22988 8.07853 6.80494
#
# Compressibility (1/GPa) = 0.04281610
#
# Stress axis : x y z
#
# Youngs Moduli (GPa) = 72.89612 13.38551 106.71573
#
# Poissons Ratio (x) = 0.18531 0.36536
# Poissons Ratio (y) = 1.00915 1.09094
# Poissons Ratio (z) = 0.24957 0.13684
#
# Static dielectric constant tensor:
#      x y z
#    x 1.596810 0.000000 0.000000 
#    y 0.000000 1.611740 0.000000 
#    z 0.000000 0.000000 1.609390 
# 
# From -- ./inp_files/68617.got.cif
#   From: 2010.05.17/outbox.cif.g08.bks.cpg/sg74_35_cif.got.tgz:68617.got - 2010.06.03 17:57:02.
