data_PCOD9536970
_publ_section_title
;
Structure prediction by ZEFSAII (Michael W. Deem and Ramdas Pophale) SiO2 
 PCOD9536970
Probable space group: I M M A
;
_chemical_formula_sum "Si O2"
_cell_formula_units_Z 96
_cell_length_a 18.643763
_cell_length_b 19.253951
_cell_length_c 15.237194
_cell_angle_alpha 90.000000
_cell_angle_beta 90.000000
_cell_angle_gamma 90.000000
_cell_volume 5469.636094
_symmetry_space_group_name_H-M "I M M A"
_symmetry_group_IT_number 74
_symmetry_cell_setting 'orthorhombic'
loop_
_space_group_symop_operation_xyz
x,y,z
-x,1/2-y,z
x,-y,-z
-x,1/2+y,-z
-x,-y,-z
x,1/2+y,-z
-x,y,z
x,1/2-y,z
1/2+x,1/2+y,1/2+z
1/2-x,-y,1/2+z
1/2+x,1/2-y,1/2-z
1/2-x,y,1/2-z
1/2-x,1/2-y,1/2-z
1/2+x,y,1/2-z
1/2-x,1/2+y,1/2+z
1/2+x,-y,1/2+z
loop_
_atom_site_type_symbol
_atom_site_label
_atom_site_fract_x
_atom_site_fract_y
_atom_site_fract_z
Si Si1 0.081834 0.447289 0.770032
Si Si2 0.823342 0.933185 0.392274
Si Si3 0.341925 0.401119 0.081581
Si Si4 0.187628 0.831779 0.898138
Si Si5 0.340349 0.072384 0.554560
Si Si6 0.581195 0.885392 0.747781
O O1 0.137111 0.416929 0.698442
O O2 0.102308 0.426120 0.868259
O O3 0.087328 0.531476 0.767736
O O4 0.000000 0.429296 0.747490
O O5 0.854988 0.893823 0.477631
O O6 0.737973 0.922342 0.399444
O O7 0.834751 0.015935 0.404736
O O8 0.265794 0.367363 0.106849
O O9 0.400094 0.373932 0.150060
O O10 0.195606 0.750000 0.907776
O O11 0.139437 0.849497 0.814017
O O12 0.152088 0.867090 0.983456
O O13 0.342248 0.000000 0.500000
O O14 0.500000 0.863913 0.727405
#
# Coordination Sequence:
#
# PCOD9536970 Si02
#       6
#    16  16  16  16  16  16
#     4  10  20  31  52  82 108 134 170 217 263 313
#     4   9  16  32  54  79 102 133 174 215 265 304
#     4   9  17  32  53  75 103 137 173 213 255 304
#     4  11  22  35  52  76 105 138 179 220 256 305
#     4  11  18  34  56  76 100 139 179 217 262 308
#     4  10  20  32  48  76 110 143 172 204 254 313
#
# _framework density 17.551442999999999
#
# number of rings (size 3 to 8) (size 9 to 14) (size 15 to 20)
#    0.000    2.000    5.000    1.000    0.000    6.000 
#    0.000    3.333    0.000    8.000    0.000    0.000 
#    0.000    0.000    0.000    0.000    0.000    0.000 
#
# Total GULP energy -267603.729725 kJ/mol
# GULP energy per Si atom -5575.077703 kJ/mol
# Density = 1.751149 g / cm^3
# Si number density = 17.551443 Si / 1000 Ang^3
#
#
#
# Elastic Constant Matrix: (Units=GPa)
#
#
# Indices 1 2 3 4 5 6 
#
# 1 37.9238 19.1976 37.7005 0.0000 0.0000 0.0000
# 2 19.1976 29.1273 28.5941 0.0000 0.0000 0.0000
# 3 37.7005 28.5941 94.3565 0.0000 0.0000 0.0000
# 4 0.0000 0.0000 0.0000 2.1301 0.0000 0.0000
# 5 0.0000 0.0000 0.0000 0.0000 19.5239 0.0000
# 6 0.0000 0.0000 0.0000 0.0000 0.0000 0.2356
#
#
#
# Elastic Compliance Matrix: (Units=1/GPa)
#
#
# Indices 1 2 3 4 5 6 
#
# 1 0.050231 -0.019081 -0.014288 0.000000 0.000000 0.000000
# 2 -0.019081 0.056119 -0.009383 0.000000 0.000000 0.000000
# 3 -0.014288 -0.009383 0.019150 0.000000 0.000000 0.000000
# 4 0.000000 0.000000 0.000000 0.469459 0.000000 0.000000
# 5 0.000000 0.000000 0.000000 0.000000 0.051219 0.000000
# 6 0.000000 0.000000 0.000000 0.000000 0.000000 4.243653
#
#
# Mechanical properties :
#
#
# Convention : Reuss Voigt Hill
#
# Bulk Modulus (GPa) = 25.00129 36.93245 30.96687
# Shear Modulus (GPa) = 1.00227 9.43895 5.22061
#
# Velocity S-wave (km/s) = 0.75650 2.32154 1.72653
# Velocity P-wave (km/s) = 3.87796 5.31734 4.65364
#
# Compressibility (1/GPa) = 0.03999793
#
# Stress axis : x y z
#
# Youngs Moduli (GPa) = 19.90794 17.81933 52.21868
#
# Poissons Ratio (x) = 0.34000 0.74609
# Poissons Ratio (y) = 0.37986 0.48995
# Poissons Ratio (z) = 0.28444 0.16719
#
# Static dielectric constant tensor:
#      x y z
#    x 1.592590 0.000000 0.000000 
#    y 0.000000 1.575300 0.000000 
#    z 0.000000 0.000000 1.624300 
# 
# From -- ./inp_files/35642.got.cif
#   From: 2010.05.17/outbox.cif.g08.bks.cpg/sg74_18_cif.got.tgz:35642.got - 2010.06.03 17:57:02.
