data_PCOD9536976
_publ_section_title
;
Structure prediction by ZEFSAII (Michael W. Deem and Ramdas Pophale) SiO2 
 PCOD9536976
Probable space group: I M M A
;
_chemical_formula_sum "Si O2"
_cell_formula_units_Z 104
_cell_length_a 15.872732
_cell_length_b 26.972182
_cell_length_c 11.897314
_cell_angle_alpha 90.000000
_cell_angle_beta 90.000000
_cell_angle_gamma 90.000000
_cell_volume 5093.504438
_symmetry_space_group_name_H-M "I M M A"
_symmetry_group_IT_number 74
_symmetry_cell_setting 'orthorhombic'
loop_
_space_group_symop_operation_xyz
x,y,z
-x,1/2-y,z
x,-y,-z
-x,1/2+y,-z
-x,-y,-z
x,1/2+y,-z
-x,y,z
x,1/2-y,z
1/2+x,1/2+y,1/2+z
1/2-x,-y,1/2+z
1/2+x,1/2-y,1/2-z
1/2-x,y,1/2-z
1/2-x,1/2-y,1/2-z
1/2+x,y,1/2-z
1/2-x,1/2+y,1/2+z
1/2+x,-y,1/2+z
loop_
_atom_site_type_symbol
_atom_site_label
_atom_site_fract_x
_atom_site_fract_y
_atom_site_fract_z
Si Si1 0.308461 0.500000 0.500000
Si Si2 0.907687 0.846144 0.445978
Si Si3 0.260815 0.194138 0.627389
Si Si4 0.601012 0.467998 0.270701
Si Si5 0.142162 0.859555 0.691130
Si Si6 0.314970 0.809988 0.602903
Si Si7 0.686126 0.441794 0.853252
O O1 0.363425 0.517918 0.605935
O O2 0.246431 0.456802 0.543525
O O3 0.833688 0.807148 0.421731
O O4 0.912418 0.854292 0.579494
O O5 0.872632 0.896429 0.388916
O O6 0.000000 0.832812 0.402455
O O7 0.291032 0.250000 0.645868
O O8 0.250000 0.171024 0.750000
O O9 0.320695 0.173864 0.528016
O O10 0.500000 0.463545 0.272316
O O11 0.641398 0.416444 0.229566
O O12 0.630819 0.511319 0.186398
O O13 0.230537 0.837644 0.644822
O O14 0.119346 0.827930 0.802852
O O15 0.306244 0.750000 0.606208
O O16 0.750000 0.432576 0.750000
#
# Coordination Sequence:
#
# PCOD9536976 Si02
#       7
#     8  16  16  16  16  16  16
#     4  10  23  36  59  80 106 152 202 248 277 350
#     4  11  22  36  55  85 122 152 188 242 305 356
#     4   9  19  37  62  88 115 150 197 243 285 345
#     4  11  23  39  56  81 119 157 195 245 305 355
#     4  10  20  31  57  81 115 148 193 231 288 342
#     4   9  19  35  59  88 116 148 191 241 284 337
#     4  10  22  37  58  81 110 149 203 250 293 346
#
# _framework density 20.418161999999999
#
# number of rings (size 3 to 8) (size 9 to 14) (size 15 to 20)
#    0.000    2.000    0.000    3.462   12.923    0.923 
#    0.000    2.308    0.000    6.462    0.000    4.308 
#    0.000    0.000    0.000    0.000    0.000    0.000 
#
# Total GULP energy -289687.866803 kJ/mol
# GULP energy per Si atom -5570.920515 kJ/mol
# Density = 2.037169 g / cm^3
# Si number density = 20.418162 Si / 1000 Ang^3
#
#
#
# Elastic Constant Matrix: (Units=GPa)
#
#
# Indices 1 2 3 4 5 6 
#
# 1 58.0132 2.9477 14.2855 0.0000 0.0000 0.0000
# 2 2.9477 84.1390 19.4178 -0.0001 0.0000 -0.0003
# 3 14.2855 19.4178 139.9349 -0.0002 -0.0001 -0.0010
# 4 0.0000 -0.0001 -0.0002 -18.7097 -0.0001 -0.0008
# 5 0.0000 0.0000 -0.0001 -0.0001 13.6668 -0.0001
# 6 0.0000 -0.0003 -0.0010 -0.0008 -0.0001 34.4551
#
#
#
# Elastic Compliance Matrix: (Units=1/GPa)
#
#
# Indices 1 2 3 4 5 6 
#
# 1 0.017686 -0.000210 -0.001776 0.000000 0.000000 0.000000
# 2 -0.000210 0.012281 -0.001683 0.000000 0.000000 0.000000
# 3 -0.001776 -0.001683 0.007561 0.000000 0.000000 0.000000
# 4 0.000000 0.000000 0.000000 -0.053448 0.000000 -0.000001
# 5 0.000000 0.000000 0.000000 0.000000 0.073170 0.000000
# 6 0.000000 0.000000 0.000000 -0.000001 0.000000 0.029023
#
#
# Mechanical properties :
#
#
# Convention : Reuss Voigt Hill
#
# Bulk Modulus (GPa) = 33.12368 39.48769 36.30569
# Shear Modulus (GPa) = 48.22834 22.24483 35.23658
#
# Velocity S-wave (km/s) = 4.86535 3.30428 4.15872
# Velocity P-wave (km/s) = 6.91520 5.82573 6.39371
#
# Compressibility (1/GPa) = 0.03018988
#
# Stress axis : x y z
#
# Youngs Moduli (GPa) = 56.54342 81.42804 132.25722
#
# Poissons Ratio (x) = 0.01707 0.23494
# Poissons Ratio (y) = 0.01185 0.22255
# Poissons Ratio (z) = 0.10044 0.13702
#
# Static dielectric constant tensor:
#      x y z
#    x 1.741290 0.000000 0.000000 
#    y 0.000000 1.727840 0.000000 
#    z 0.000000 0.000000 1.812600 
# 
# From -- ./inp_files/22735.got.cif
#   From: 2010.05.17/outbox.cif.g08.bks.cpg/sg74_12_cif.got.tgz:22735.got - 2010.06.03 17:57:02.
