data_PCOD9536501
_publ_section_title
;
Structure prediction by ZEFSAII (Michael W. Deem and Ramdas Pophale) SiO2 
 PCOD9536501
Probable space group: I M M A
;
_chemical_formula_sum "Si O2"
_cell_formula_units_Z 104
_cell_length_a 19.838484
_cell_length_b 8.919658
_cell_length_c 33.897847
_cell_angle_alpha 90.000000
_cell_angle_beta 90.000000
_cell_angle_gamma 90.000000
_cell_volume 5998.308518
_symmetry_space_group_name_H-M "I M M A"
_symmetry_group_IT_number 74
_symmetry_cell_setting 'orthorhombic'
loop_
_space_group_symop_operation_xyz
x,y,z
-x,1/2-y,z
x,-y,-z
-x,1/2+y,-z
-x,-y,-z
x,1/2+y,-z
-x,y,z
x,1/2-y,z
1/2+x,1/2+y,1/2+z
1/2-x,-y,1/2+z
1/2+x,1/2-y,1/2-z
1/2-x,y,1/2-z
1/2-x,1/2-y,1/2-z
1/2+x,y,1/2-z
1/2-x,1/2+y,1/2+z
1/2+x,-y,1/2+z
loop_
_atom_site_type_symbol
_atom_site_label
_atom_site_fract_x
_atom_site_fract_y
_atom_site_fract_z
Si Si1 0.578940 0.569021 0.192342
Si Si2 0.329085 0.073288 0.260401
Si Si3 0.182646 0.073198 0.843846
Si Si4 0.000000 0.927627 0.042741
Si Si5 0.169729 0.072614 0.620940
Si Si6 0.277250 0.570801 0.957756
Si Si7 0.132157 0.427987 0.078107
O O1 0.500000 0.532622 0.196067
O O2 0.586624 0.750000 0.195718
O O3 0.623855 0.492070 0.226024
O O4 0.608559 0.526369 0.149341
O O5 0.342632 0.250000 0.265772
O O6 0.250000 0.056697 0.250000
O O7 0.337981 0.983757 0.301018
O O8 0.168585 0.250000 0.848480
O O9 0.262371 0.051379 0.852871
O O10 0.146502 0.976592 0.877271
O O11 0.000000 0.750000 0.040246
O O12 0.932884 0.985132 0.063697
O O13 0.000000 0.000000 0.000000
O O14 0.164333 0.250000 0.612477
O O15 0.179782 0.988337 0.579571
O O16 0.282213 0.750000 0.959889
O O17 0.199428 0.531503 0.946738
O O18 0.294825 0.500000 0.000000
O O19 0.122213 0.250000 0.074781
#
# Coordination Sequence:
#
# PCOD9536501 Si02
#       7
#    16  16  16   8  16  16  16
#     4  10  21  38  59  84 113 147 187 230 279 337
#     4  11  22  35  56  84 115 150 189 234 279 329
#     4  10  19  34  57  81 107 141 183 229 278 331
#     4  12  24  38  56  78 106 146 192 232 280 338
#     4   9  18  33  55  81 109 141 175 219 272 326
#     4  10  20  33  54  82 110 139 175 223 274 326
#     4  10  21  37  55  78 109 143 181 230 282 335
#
# _framework density 17.338221999999998
#
# number of rings (size 3 to 8) (size 9 to 14) (size 15 to 20)
#    0.000    1.846    1.538    3.000    0.000    5.231 
#    1.385    0.000    0.000    0.462    0.000    0.000 
#    0.000    0.000    0.000    0.000    0.000    0.000 
#
# Total GULP energy -290296.863845 kJ/mol
# GULP energy per Si atom -5582.631997 kJ/mol
# Density = 1.729876 g / cm^3
# Si number density = 17.338222 Si / 1000 Ang^3
#
#
#
# Elastic Constant Matrix: (Units=GPa)
#
#
# Indices 1 2 3 4 5 6 
#
# 1 75.5998 37.1622 35.8030 0.0000 0.0000 0.0000
# 2 37.1622 60.8610 39.3101 0.0000 0.0000 0.0000
# 3 35.8030 39.3101 117.0565 0.0000 0.0000 0.0000
# 4 0.0000 0.0000 0.0000 33.6702 0.0000 0.0000
# 5 0.0000 0.0000 0.0000 0.0000 18.3625 0.0000
# 6 0.0000 0.0000 0.0000 0.0000 0.0000 18.4291
#
#
#
# Elastic Compliance Matrix: (Units=1/GPa)
#
#
# Indices 1 2 3 4 5 6 
#
# 1 0.019459 -0.010264 -0.002505 0.000000 0.000000 0.000000
# 2 -0.010264 0.026396 -0.005725 0.000000 0.000000 0.000000
# 3 -0.002505 -0.005725 0.011232 0.000000 0.000000 0.000000
# 4 0.000000 0.000000 0.000000 0.029700 0.000000 0.000000
# 5 0.000000 0.000000 0.000000 0.000000 0.054459 0.000000
# 6 0.000000 0.000000 0.000000 0.000000 0.000000 0.054262
#
#
# Mechanical properties :
#
#
# Convention : Reuss Voigt Hill
#
# Bulk Modulus (GPa) = 49.75389 53.11867 51.43628
# Shear Modulus (GPa) = 20.90343 23.50849 22.20596
#
# Velocity S-wave (km/s) = 3.47598 3.68622 3.58264
# Velocity P-wave (km/s) = 6.69838 6.98719 6.84431
#
# Compressibility (1/GPa) = 0.02009893
#
# Stress axis : x y z
#
# Youngs Moduli (GPa) = 51.38927 37.88463 89.03444
#
# Poissons Ratio (x) = 0.38885 0.22303
# Poissons Ratio (y) = 0.52746 0.50972
# Poissons Ratio (z) = 0.12873 0.21689
#
# Static dielectric constant tensor:
#      x y z
#    x 1.573090 0.000000 0.000000 
#    y 0.000000 1.575550 0.000000 
#    z 0.000000 0.000000 1.562490 
# 
# From -- ./inp_files/70628.got.cif
#   From: 2010.05.17/outbox.cif.g08.bks.cpg/sg74_36_cif.got.tgz:70628.got - 2010.06.03 17:57:02.
