data_PCOD9536187
_publ_section_title
;
Structure prediction by ZEFSAII (Michael W. Deem and Ramdas Pophale) SiO2 
 PCOD9536187
Probable space group: I M M A
;
_chemical_formula_sum "Si O2"
_cell_formula_units_Z 104
_cell_length_a 28.867840
_cell_length_b 8.017373
_cell_length_c 23.403099
_cell_angle_alpha 90.000000
_cell_angle_beta 90.000000
_cell_angle_gamma 90.000000
_cell_volume 5416.512485
_symmetry_space_group_name_H-M "I M M A"
_symmetry_group_IT_number 74
_symmetry_cell_setting 'orthorhombic'
loop_
_space_group_symop_operation_xyz
x,y,z
-x,1/2-y,z
x,-y,-z
-x,1/2+y,-z
-x,-y,-z
x,1/2+y,-z
-x,y,z
x,1/2-y,z
1/2+x,1/2+y,1/2+z
1/2-x,-y,1/2+z
1/2+x,1/2-y,1/2-z
1/2-x,y,1/2-z
1/2-x,1/2-y,1/2-z
1/2+x,y,1/2-z
1/2-x,1/2+y,1/2+z
1/2+x,-y,1/2+z
loop_
_atom_site_type_symbol
_atom_site_label
_atom_site_fract_x
_atom_site_fract_y
_atom_site_fract_z
Si Si1 0.817228 0.554918 0.854445
Si Si2 0.899541 0.950703 0.066472
Si Si3 0.354081 0.050636 0.122142
Si Si4 0.500000 0.549776 0.433506
Si Si5 0.447692 0.048313 0.066030
Si Si6 0.198730 0.557465 0.264877
Si Si7 0.736543 0.950902 0.936670
O O1 0.810605 0.750000 0.841195
O O2 0.859149 0.533035 0.897856
O O3 0.826448 0.460309 0.795772
O O4 0.771710 0.489711 0.887654
O O5 0.896086 0.750000 0.070556
O O6 0.950268 0.006900 0.088990
O O7 0.895985 0.000000 0.000000
O O8 0.356386 0.250000 0.115772
O O9 0.405285 0.986995 0.105855
O O10 0.315036 0.987516 0.077732
O O11 0.331738 0.018256 0.184303
O O12 0.500000 0.750000 0.430300
O O13 0.500000 0.500000 0.500000
O O14 0.500000 0.988732 0.080598
O O15 0.448664 0.250000 0.069051
O O16 0.438587 0.000000 0.000000
O O17 0.205862 0.750000 0.280334
O O18 0.250000 0.483783 0.250000
O O19 0.737001 0.750000 0.933905
O O20 0.751477 0.000000 0.000000
#
# Coordination Sequence:
#
# PCOD9536187 Si02
#       7
#    16  16  16   8  16  16  16
#     4  11  22  36  54  76 105 142 179 221 269 320
#     4  10  19  33  53  79 109 140 176 217 266 319
#     4  10  20  36  56  78 108 146 183 222 267 322
#     4   8  16  30  50  74 102 136 170 210 255 306
#     4   9  18  33  56  86 117 148 183 225 274 327
#     4  11  23  38  57  80 103 136 181 228 270 319
#     4  10  21  33  49  75 107 141 173 210 260 315
#
# _framework density 19.200547
#
# number of rings (size 3 to 8) (size 9 to 14) (size 15 to 20)
#    0.000    2.000    1.538    2.308    0.000    4.923 
#    0.000    0.000    1.692    0.000    0.000    0.000 
#    0.000    0.000    0.000    0.000    0.000    0.000 
#
# Total GULP energy -290004.973636 kJ/mol
# GULP energy per Si atom -5577.018724 kJ/mol
# Density = 1.915685 g / cm^3
# Si number density = 19.200547 Si / 1000 Ang^3
#
#
#
# Elastic Constant Matrix: (Units=GPa)
#
#
# Indices 1 2 3 4 5 6 
#
# 1 142.7881 9.0355 41.1214 0.0000 0.0000 0.0000
# 2 9.0355 20.7250 -4.6378 0.0000 0.0000 0.0000
# 3 41.1214 -4.6378 80.7031 0.0000 0.0000 0.0000
# 4 0.0000 0.0000 0.0000 26.5045 0.0000 0.0000
# 5 0.0000 0.0000 0.0000 0.0000 17.9233 0.0000
# 6 0.0000 0.0000 0.0000 0.0000 0.0000 17.3106
#
#
#
# Elastic Compliance Matrix: (Units=1/GPa)
#
#
# Indices 1 2 3 4 5 6 
#
# 1 0.008659 -0.004825 -0.004689 0.000000 0.000000 0.000000
# 2 -0.004825 0.051568 0.005422 0.000000 0.000000 0.000000
# 3 -0.004689 0.005422 0.015092 0.000000 0.000000 0.000000
# 4 0.000000 0.000000 0.000000 0.037729 0.000000 0.000000
# 5 0.000000 0.000000 0.000000 0.000000 0.055793 0.000000
# 6 0.000000 0.000000 0.000000 0.000000 0.000000 0.057768
#
#
# Mechanical properties :
#
#
# Convention : Reuss Voigt Hill
#
# Bulk Modulus (GPa) = 14.89551 37.25047 26.07299
# Shear Modulus (GPa) = 19.44223 25.59416 22.51820
#
# Velocity S-wave (km/s) = 3.18557 3.65498 3.42832
# Velocity P-wave (km/s) = 4.61575 6.10366 5.41109
#
# Compressibility (1/GPa) = 0.06713433
#
# Stress axis : x y z
#
# Youngs Moduli (GPa) = 115.48433 19.39205 66.25971
#
# Poissons Ratio (x) = 0.09356 0.31072
# Poissons Ratio (y) = 0.55716 -0.35924
# Poissons Ratio (z) = 0.54156 -0.10514
#
# Static dielectric constant tensor:
#      x y z
#    x 1.728410 0.000000 0.000000 
#    y 0.000000 1.705690 0.000000 
#    z 0.000000 0.000000 1.642590 
# 
# From -- ./inp_files/62325.got.cif
#   From: 2010.05.17/outbox.cif.g08.bks.cpg/sg74_32_cif.got.tgz:62325.got - 2010.06.03 17:57:02.
