data_PCOD9536907
_publ_section_title
;
Structure prediction by ZEFSAII (Michael W. Deem and Ramdas Pophale) SiO2 
 PCOD9536907
Probable space group: I M M A
;
_chemical_formula_sum "Si O2"
_cell_formula_units_Z 88
_cell_length_a 14.680576
_cell_length_b 12.819600
_cell_length_c 26.659413
_cell_angle_alpha 90.000000
_cell_angle_beta 90.000000
_cell_angle_gamma 90.000000
_cell_volume 5017.277855
_symmetry_space_group_name_H-M "I M M A"
_symmetry_group_IT_number 74
_symmetry_cell_setting 'orthorhombic'
loop_
_space_group_symop_operation_xyz
x,y,z
-x,1/2-y,z
x,-y,-z
-x,1/2+y,-z
-x,-y,-z
x,1/2+y,-z
-x,y,z
x,1/2-y,z
1/2+x,1/2+y,1/2+z
1/2-x,-y,1/2+z
1/2+x,1/2-y,1/2-z
1/2-x,y,1/2-z
1/2-x,1/2-y,1/2-z
1/2+x,y,1/2-z
1/2-x,1/2+y,1/2+z
1/2+x,-y,1/2+z
loop_
_atom_site_type_symbol
_atom_site_label
_atom_site_fract_x
_atom_site_fract_y
_atom_site_fract_z
Si Si1 0.892432 0.634561 0.371613
Si Si2 0.610419 0.750000 0.636221
Si Si3 0.893685 0.907909 0.778317
Si Si4 0.893484 0.452729 0.444478
Si Si5 0.141919 0.634589 0.253991
Si Si6 0.708276 0.250000 0.085847
Si Si7 0.388499 0.250000 0.193995
O O1 0.853056 0.750000 0.382405
O O2 0.858452 0.539377 0.404945
O O3 0.883257 0.616591 0.312187
O O4 0.000000 0.639606 0.382968
O O5 0.500000 0.750000 0.625885
O O6 0.636035 0.849524 0.671334
O O7 0.682433 0.750000 0.591249
O O8 0.859065 0.849869 0.728019
O O9 0.000000 0.882842 0.776371
O O10 0.884419 0.031757 0.776418
O O11 0.892474 0.500000 0.500000
O O12 0.831501 0.351634 0.440910
O O13 0.000000 0.426809 0.432229
O O14 0.106188 0.750000 0.239499
O O15 0.250000 0.639778 0.250000
O O16 0.662242 0.250000 0.141369
O O17 0.500000 0.250000 0.186313
#
# Coordination Sequence:
#
# PCOD9536907 Si02
#       7
#    16   8  16  16  16   8   8
#     4   9  18  33  51  69  99 146 181 207 255 312
#     4   9  22  38  52  78 106 138 178 229 276 309
#     4   9  18  32  48  68 105 142 176 220 269 312
#     4  10  22  36  54  83 115 138 168 215 264 324
#     4  10  20  29  43  70 103 136 182 221 252 301
#     4  12  22  33  58  80 104 142 179 212 267 325
#     4   9  18  30  48  80 108 136 174 217 260 318
#
# _framework density 17.539391999999999
#
# number of rings (size 3 to 8) (size 9 to 14) (size 15 to 20)
#    0.000    2.364    0.000    3.545    6.364    4.727 
#    0.000    0.000    0.000    0.545    0.000    0.000 
#    0.000    0.000    0.000    0.000    0.000    0.000 
#
# Total GULP energy -245196.276255 kJ/mol
# GULP energy per Si atom -5572.642642 kJ/mol
# Density = 1.749947 g / cm^3
# Si number density = 17.539392 Si / 1000 Ang^3
#
#
#
# Elastic Constant Matrix: (Units=GPa)
#
#
# Indices 1 2 3 4 5 6 
#
# 1 61.3083 19.9881 14.6493 0.0000 0.0000 0.0000
# 2 19.9881 145.1608 33.3514 0.0000 0.0000 0.0000
# 3 14.6493 33.3514 24.9775 0.0000 0.0000 0.0000
# 4 0.0000 0.0000 0.0000 -10.3306 0.0000 0.0000
# 5 0.0000 0.0000 0.0000 0.0000 -9.0334 0.0000
# 6 0.0000 0.0000 0.0000 0.0000 0.0000 16.1695
#
#
#
# Elastic Compliance Matrix: (Units=1/GPa)
#
#
# Indices 1 2 3 4 5 6 
#
# 1 0.018970 -0.000081 -0.011018 0.000000 0.000000 0.000000
# 2 -0.000081 0.009938 -0.013222 0.000000 0.000000 0.000000
# 3 -0.011018 -0.013222 0.064154 0.000000 0.000000 0.000000
# 4 0.000000 0.000000 0.000000 -0.096800 0.000000 0.000000
# 5 0.000000 0.000000 0.000000 0.000000 -0.110700 0.000000
# 6 0.000000 0.000000 0.000000 0.000000 0.000000 0.061845
#
#
# Mechanical properties :
#
#
# Convention : Reuss Voigt Hill
#
# Bulk Modulus (GPa) = 22.51297 40.82492 31.66894
# Shear Modulus (GPa) = 460.61697 10.25829 235.43763
#
# Velocity S-wave (km/s) = 16.22309 2.42104 11.59849
# Velocity P-wave (km/s) = 19.07306 5.58049 14.05211
#
# Compressibility (1/GPa) = 0.04441884
#
# Stress axis : x y z
#
# Youngs Moduli (GPa) = 52.71465 100.62455 15.58760
#
# Poissons Ratio (x) = 0.00811 0.17175
# Poissons Ratio (y) = 0.00425 0.20611
# Poissons Ratio (z) = 0.58083 1.33050
#
# Static dielectric constant tensor:
#      x y z
#    x 1.603180 0.000000 0.000000 
#    y 0.000000 1.715240 0.000000 
#    z 0.000000 0.000000 1.592150 
# 
# From -- ./inp_files/67020.got.cif
#   From: 2010.05.17/outbox.cif.g08.bks.cpg/sg74_34_cif.got.tgz:67020.got - 2010.06.03 17:57:02.
