data_PCOD9536595
_publ_section_title
;
Structure prediction by ZEFSAII (Michael W. Deem and Ramdas Pophale) SiO2 
 PCOD9536595
Probable space group: I M M A
;
_chemical_formula_sum "Si O2"
_cell_formula_units_Z 96
_cell_length_a 27.590827
_cell_length_b 11.845947
_cell_length_c 17.763176
_cell_angle_alpha 90.000000
_cell_angle_beta 90.000000
_cell_angle_gamma 90.000000
_cell_volume 5805.707106
_symmetry_space_group_name_H-M "I M M A"
_symmetry_group_IT_number 74
_symmetry_cell_setting 'orthorhombic'
loop_
_space_group_symop_operation_xyz
x,y,z
-x,1/2-y,z
x,-y,-z
-x,1/2+y,-z
-x,-y,-z
x,1/2+y,-z
-x,y,z
x,1/2-y,z
1/2+x,1/2+y,1/2+z
1/2-x,-y,1/2+z
1/2+x,1/2-y,1/2-z
1/2-x,y,1/2-z
1/2-x,1/2-y,1/2-z
1/2+x,y,1/2-z
1/2-x,1/2+y,1/2+z
1/2+x,-y,1/2+z
loop_
_atom_site_type_symbol
_atom_site_label
_atom_site_fract_x
_atom_site_fract_y
_atom_site_fract_z
Si Si1 0.389743 0.880875 0.544810
Si Si2 0.793011 0.120136 0.143400
Si Si3 0.169459 0.250000 0.772949
Si Si4 0.945328 0.881995 0.799300
Si Si5 0.741400 0.250000 0.871769
Si Si6 0.144795 0.991405 0.264722
Si Si7 0.702038 0.515173 0.084004
O O1 0.394745 0.750000 0.512344
O O2 0.336279 0.884885 0.582286
O O3 0.427470 0.887865 0.614195
O O4 0.395227 0.000000 0.500000
O O5 0.787238 0.250000 0.166502
O O6 0.812339 0.047835 0.214401
O O7 0.744097 0.071850 0.108024
O O8 0.203001 0.250000 0.846474
O O9 0.207559 0.250000 0.703077
O O10 0.139959 0.364173 0.765437
O O11 0.944799 0.750000 0.779014
O O12 0.904614 0.943627 0.750636
O O13 0.000000 0.925403 0.791096
O O14 0.727844 0.363019 0.914238
O O15 0.161918 0.989782 0.350787
O O16 0.683104 0.500000 0.000000
#
# Coordination Sequence:
#
# PCOD9536595 Si02
#       7
#    16  16   8  16   8  16  16
#     4   9  18  34  51  75 109 142 171 206 256 308
#     4  10  20  33  49  73 105 140 175 208 245 289
#     4   9  16  32  55  70  94 140 175 199 234 299
#     4   9  19  37  58  76  98 130 168 214 266 311
#     4   9  18  34  48  68 101 142 176 191 240 301
#     4  10  19  35  55  73 100 133 174 211 249 300
#     4  11  22  33  48  75 107 138 169 208 250 298
#
# _framework density 16.535454000000001
#
# number of rings (size 3 to 8) (size 9 to 14) (size 15 to 20)
#    0.000    2.333    1.667    2.500    1.167    2.333 
#    7.500    0.417    0.000    0.500    0.000    0.000 
#    0.000    0.000    0.000    0.000    0.000    0.000 
#
# Total GULP energy -267528.780871 kJ/mol
# GULP energy per Si atom -5573.516268 kJ/mol
# Density = 1.649782 g / cm^3
# Si number density = 16.535454 Si / 1000 Ang^3
#
#
#
# Elastic Constant Matrix: (Units=GPa)
#
#
# Indices 1 2 3 4 5 6 
#
# 1 75.4008 28.0335 26.6745 0.0000 0.0000 0.0000
# 2 28.0335 120.2970 51.5582 0.0000 0.0000 0.0000
# 3 26.6745 51.5582 77.2538 0.0000 0.0000 0.0000
# 4 0.0000 0.0000 0.0000 18.9477 0.0000 0.0000
# 5 0.0000 0.0000 0.0000 0.0000 5.4511 0.0000
# 6 0.0000 0.0000 0.0000 0.0000 0.0000 19.5644
#
#
#
# Elastic Compliance Matrix: (Units=1/GPa)
#
#
# Indices 1 2 3 4 5 6 
#
# 1 0.015391 -0.001833 -0.004091 0.000000 0.000000 0.000000
# 2 -0.001833 0.011862 -0.007283 0.000000 0.000000 0.000000
# 3 -0.004091 -0.007283 0.019218 0.000000 0.000000 0.000000
# 4 0.000000 0.000000 0.000000 0.052777 0.000000 0.000000
# 5 0.000000 0.000000 0.000000 0.000000 0.183450 0.000000
# 6 0.000000 0.000000 0.000000 0.000000 0.000000 0.051113
#
#
# Mechanical properties :
#
#
# Convention : Reuss Voigt Hill
#
# Bulk Modulus (GPa) = 49.86138 53.94266 51.90202
# Shear Modulus (GPa) = 13.62729 19.90497 16.76613
#
# Velocity S-wave (km/s) = 2.87387 3.47331 3.18771
# Velocity P-wave (km/s) = 6.42121 6.98416 6.70859
#
# Compressibility (1/GPa) = 0.02005560
#
# Stress axis : x y z
#
# Youngs Moduli (GPa) = 64.97169 84.30616 52.03586
#
# Poissons Ratio (x) = 0.15457 0.21286
# Poissons Ratio (y) = 0.11912 0.37899
# Poissons Ratio (z) = 0.26578 0.61402
#
# Static dielectric constant tensor:
#      x y z
#    x 1.526450 0.000000 0.000000 
#    y 0.000000 1.582210 0.000000 
#    z 0.000000 0.000000 1.567960 
# 
# From -- ./inp_files/37794.got.cif
#   From: 2010.05.17/outbox.cif.g08.bks.cpg/sg74_19_cif.got.tgz:37794.got - 2010.06.03 17:57:02.
