data_PCOD9536182
_publ_section_title
;
Structure prediction by ZEFSAII (Michael W. Deem and Ramdas Pophale) SiO2 
 PCOD9536182
Probable space group: I M M A
;
_chemical_formula_sum "Si O2"
_cell_formula_units_Z 100
_cell_length_a 19.862047
_cell_length_b 10.036494
_cell_length_c 29.637194
_cell_angle_alpha 90.000000
_cell_angle_beta 90.000000
_cell_angle_gamma 90.000000
_cell_volume 5908.035790
_symmetry_space_group_name_H-M "I M M A"
_symmetry_group_IT_number 74
_symmetry_cell_setting 'orthorhombic'
loop_
_space_group_symop_operation_xyz
x,y,z
-x,1/2-y,z
x,-y,-z
-x,1/2+y,-z
-x,-y,-z
x,1/2+y,-z
-x,y,z
x,1/2-y,z
1/2+x,1/2+y,1/2+z
1/2-x,-y,1/2+z
1/2+x,1/2-y,1/2-z
1/2-x,y,1/2-z
1/2-x,1/2-y,1/2-z
1/2+x,y,1/2-z
1/2-x,1/2+y,1/2+z
1/2+x,-y,1/2+z
loop_
_atom_site_type_symbol
_atom_site_label
_atom_site_fract_x
_atom_site_fract_y
_atom_site_fract_z
Si Si1 0.764040 0.403759 0.877226
Si Si2 0.229326 0.095019 0.041023
Si Si3 0.106923 0.900335 0.539141
Si Si4 0.181943 0.905238 0.223056
Si Si5 0.920285 0.400896 0.269810
Si Si6 0.000000 0.250000 0.648849
Si Si7 0.891293 0.016175 0.636470
O O1 0.771298 0.250000 0.893546
O O2 0.786772 0.513896 0.913384
O O3 0.802500 0.417173 0.829900
O O4 0.684850 0.430245 0.868342
O O5 0.206591 0.250000 0.039761
O O6 0.311161 0.100284 0.038156
O O7 0.206340 0.000000 0.000000
O O8 0.083855 0.750000 0.530903
O O9 0.083900 0.000000 0.500000
O O10 0.088609 0.950301 0.588895
O O11 0.167937 0.750000 0.233480
O O12 0.250000 0.942013 0.250000
O O13 0.121681 0.995830 0.240255
O O14 0.908221 0.250000 0.254548
O O15 0.896326 0.416553 0.321523
O O16 0.000000 0.427765 0.267988
O O17 0.941471 0.134799 0.647464
#
# Coordination Sequence:
#
# PCOD9536182 Si02
#       7
#    16  16  16  16  16   4  16
#     4  10  19  33  53  77 106 133 168 221 266 313
#     4   9  17  29  48  75 102 133 169 207 263 320
#     4   9  19  33  51  69  93 124 166 220 274 321
#     4  10  21  36  56  81 108 137 179 223 271 316
#     4  11  24  39  55  76 107 142 179 219 267 321
#     4  12  24  32  56  78  94 132 184 216 272 326
#     4  11  21  35  54  73  98 130 175 220 272 320
#
# _framework density 16.926099000000001
#
# number of rings (size 3 to 8) (size 9 to 14) (size 15 to 20)
#    0.000    1.920    3.200    0.960    2.240    3.840 
#    0.000    0.400    0.000    0.000    0.000    0.000 
#    0.000    0.640    0.000    2.080    0.000    3.040 
#
# Total GULP energy -278491.031304 kJ/mol
# GULP energy per Si atom -5569.820626 kJ/mol
# Density = 1.688757 g / cm^3
# Si number density = 16.926099 Si / 1000 Ang^3
#
#
#
# Elastic Constant Matrix: (Units=GPa)
#
#
# Indices 1 2 3 4 5 6 
#
# 1 26.4022 31.7376 23.8426 0.0000 0.0000 0.0000
# 2 31.7376 128.4513 51.6953 0.0000 0.0000 0.0000
# 3 23.8426 51.6953 76.5920 0.0000 0.0000 0.0000
# 4 0.0000 0.0000 0.0000 14.0462 0.0000 0.0000
# 5 0.0000 0.0000 0.0000 0.0000 0.4096 0.0000
# 6 0.0000 0.0000 0.0000 0.0000 0.0000 27.3642
#
#
#
# Elastic Compliance Matrix: (Units=1/GPa)
#
#
# Indices 1 2 3 4 5 6 
#
# 1 0.061110 -0.010219 -0.012126 0.000000 0.000000 0.000000
# 2 -0.010219 0.012397 -0.005186 0.000000 0.000000 0.000000
# 3 -0.012126 -0.005186 0.020331 0.000000 0.000000 0.000000
# 4 0.000000 0.000000 0.000000 0.071194 0.000000 0.000000
# 5 0.000000 0.000000 0.000000 0.000000 2.441523 0.000000
# 6 0.000000 0.000000 0.000000 0.000000 0.000000 0.036544
#
#
# Mechanical properties :
#
#
# Convention : Reuss Voigt Hill
#
# Bulk Modulus (GPa) = 25.78902 49.55519 37.67211
# Shear Modulus (GPa) = 1.84428 16.64198 9.24313
#
# Velocity S-wave (km/s) = 1.04497 3.13903 2.33939
# Velocity P-wave (km/s) = 4.08966 6.51759 5.44078
#
# Compressibility (1/GPa) = 0.03877619
#
# Stress axis : x y z
#
# Youngs Moduli (GPa) = 16.36392 80.66370 49.18498
#
# Poissons Ratio (x) = 0.82429 0.59642
# Poissons Ratio (y) = 0.16722 0.25509
# Poissons Ratio (z) = 0.19843 0.41835
#
# Static dielectric constant tensor:
#      x y z
#    x 1.544580 0.000000 0.000000 
#    y 0.000000 1.602260 0.000000 
#    z 0.000000 0.000000 1.580100 
# 
# From -- ./inp_files/73333.got.cif
#   From: 2010.05.17/outbox.cif.g08.bks.cpg/sg74_37_cif.got.tgz:73333.got - 2010.06.03 17:57:02.
