data_PCOD9536068
_publ_section_title
;
Structure prediction by ZEFSAII (Michael W. Deem and Ramdas Pophale) SiO2 
 PCOD9536068
Probable space group: I M M A
;
_chemical_formula_sum "Si O2"
_cell_formula_units_Z 72
_cell_length_a 21.516109
_cell_length_b 9.448738
_cell_length_c 19.145142
_cell_angle_alpha 90.000000
_cell_angle_beta 90.000000
_cell_angle_gamma 90.000000
_cell_volume 3892.208837
_symmetry_space_group_name_H-M "I M M A"
_symmetry_group_IT_number 74
_symmetry_cell_setting 'orthorhombic'
loop_
_space_group_symop_operation_xyz
x,y,z
-x,1/2-y,z
x,-y,-z
-x,1/2+y,-z
-x,-y,-z
x,1/2+y,-z
-x,y,z
x,1/2-y,z
1/2+x,1/2+y,1/2+z
1/2-x,-y,1/2+z
1/2+x,1/2-y,1/2-z
1/2-x,y,1/2-z
1/2-x,1/2-y,1/2-z
1/2+x,y,1/2-z
1/2-x,1/2+y,1/2+z
1/2+x,-y,1/2+z
loop_
_atom_site_type_symbol
_atom_site_label
_atom_site_fract_x
_atom_site_fract_y
_atom_site_fract_z
Si Si1 0.371501 0.415437 0.174624
Si Si2 0.373755 0.083705 0.341921
Si Si3 0.500000 0.580070 0.573864
Si Si4 0.072719 0.092808 0.562075
Si Si5 0.251285 0.412240 0.665108
O O1 0.373902 0.250000 0.157063
O O2 0.380574 0.428691 0.257840
O O3 0.421318 0.506101 0.133036
O O4 0.306594 0.485390 0.150194
O O5 0.359597 0.250000 0.355994
O O6 0.437486 0.046774 0.381829
O O7 0.315371 0.983895 0.359674
O O8 0.500000 0.750000 0.562718
O O9 0.500000 0.500000 0.500000
O O10 0.099805 0.250000 0.567583
O O11 0.000000 0.108521 0.546258
O O12 0.101547 0.000000 0.500000
O O13 0.244950 0.250000 0.640587
O O14 0.250000 0.406994 0.750000
#
# Coordination Sequence:
#
# PCOD9536068 Si02
#       5
#    16  16   8  16  16
#     4  10  19  32  56  83 109 141 181 225 270 324
#     4   9  19  35  56  80 108 141 181 224 274 329
#     4  10  22  40  58  80 111 146 183 230 279 332
#     4  10  21  36  52  74 108 146 180 217 262 313
#     4   9  17  31  52  79 111 140 174 224 277 324
#
# _framework density 18.498493
#
# number of rings (size 3 to 8) (size 9 to 14) (size 15 to 20)
#    0.000    2.444    0.000    2.000    1.556    5.778 
#    0.000    1.111    0.000    2.667    0.000    0.000 
#    0.000    0.000    0.000    0.000    0.000    0.000 
#
# Total GULP energy -200586.029316 kJ/mol
# GULP energy per Si atom -5571.834148 kJ/mol
# Density = 1.845639 g / cm^3
# Si number density = 18.498493 Si / 1000 Ang^3
#
#
#
# Elastic Constant Matrix: (Units=GPa)
#
#
# Indices 1 2 3 4 5 6 
#
# 1 101.3955 54.0068 35.3468 0.0000 0.0000 0.0000
# 2 54.0068 146.6637 54.0457 0.0000 0.0000 0.0000
# 3 35.3468 54.0457 44.2475 0.0000 0.0000 0.0000
# 4 0.0000 0.0000 0.0000 19.2830 0.0000 0.0000
# 5 0.0000 0.0000 0.0000 0.0000 -1.6590 0.0000
# 6 0.0000 0.0000 0.0000 0.0000 0.0000 25.0834
#
#
#
# Elastic Compliance Matrix: (Units=1/GPa)
#
#
# Indices 1 2 3 4 5 6 
#
# 1 0.013946 -0.001873 -0.008853 0.000000 0.000000 0.000000
# 2 -0.001873 0.012651 -0.013956 0.000000 0.000000 0.000000
# 3 -0.008853 -0.013956 0.046718 0.000000 0.000000 0.000000
# 4 0.000000 0.000000 0.000000 0.051859 0.000000 0.000000
# 5 0.000000 0.000000 0.000000 0.000000 -0.602786 0.000000
# 6 0.000000 0.000000 0.000000 0.000000 0.000000 0.039867
#
#
# Mechanical properties :
#
#
# Convention : Reuss Voigt Hill
#
# Bulk Modulus (GPa) = 41.75071 64.34505 53.04788
# Shear Modulus (GPa) = -13.14419 18.46865 2.66223
#
# Velocity S-wave (km/s) = -2.66851 3.16315 1.20095
# Velocity P-wave (km/s) = 3.62273 6.94263 5.53734
#
# Compressibility (1/GPa) = 0.02395169
#
# Stress axis : x y z
#
# Youngs Moduli (GPa) = 71.70389 79.04605 21.40485
#
# Poissons Ratio (x) = 0.14807 0.18949
# Poissons Ratio (y) = 0.13432 0.29872
# Poissons Ratio (z) = 0.63478 1.10315
#
# Static dielectric constant tensor:
#      x y z
#    x 1.669970 0.000000 0.000000 
#    y 0.000000 1.649580 0.000000 
#    z 0.000000 0.000000 1.636630 
# 
# From -- ./inp_files/45802.got.cif
#   From: 2010.05.17/outbox.cif.g08.bks.cpg/sg74_23_cif.got.tgz:45802.got - 2010.06.03 17:57:02.
