data_PCOD9536899
_publ_section_title
;
Structure prediction by ZEFSAII (Michael W. Deem and Ramdas Pophale) SiO2 
 PCOD9536899
Probable space group: I M M A
;
_chemical_formula_sum "Si O2"
_cell_formula_units_Z 116
_cell_length_a 20.627010
_cell_length_b 17.714876
_cell_length_c 16.700751
_cell_angle_alpha 90.000000
_cell_angle_beta 90.000000
_cell_angle_gamma 90.000000
_cell_volume 6102.536657
_symmetry_space_group_name_H-M "I M M A"
_symmetry_group_IT_number 74
_symmetry_cell_setting 'orthorhombic'
loop_
_space_group_symop_operation_xyz
x,y,z
-x,1/2-y,z
x,-y,-z
-x,1/2+y,-z
-x,-y,-z
x,1/2+y,-z
-x,y,z
x,1/2-y,z
1/2+x,1/2+y,1/2+z
1/2-x,-y,1/2+z
1/2+x,1/2-y,1/2-z
1/2-x,y,1/2-z
1/2-x,1/2-y,1/2-z
1/2+x,y,1/2-z
1/2-x,1/2+y,1/2+z
1/2+x,-y,1/2+z
loop_
_atom_site_type_symbol
_atom_site_label
_atom_site_fract_x
_atom_site_fract_y
_atom_site_fract_z
Si Si1 0.647344 0.421267 0.605362
Si Si2 0.783338 0.839105 0.372330
Si Si3 0.426347 0.048779 0.148654
Si Si4 0.426522 0.335161 0.294404
Si Si5 0.163986 0.901748 0.923844
Si Si6 0.807571 0.416319 0.468463
Si Si7 0.000000 0.750000 0.299757
Si Si8 0.599873 0.886367 0.227851
O O1 0.716503 0.384390 0.625530
O O2 0.635601 0.395268 0.513973
O O3 0.653408 0.511661 0.603219
O O4 0.598824 0.398370 0.676200
O O5 0.771969 0.750000 0.369940
O O6 0.819389 0.863337 0.454932
O O7 0.827729 0.865681 0.299783
O O8 0.500000 0.056414 0.116510
O O9 0.419046 0.105109 0.223477
O O10 0.370395 0.070980 0.086057
O O11 0.417829 0.964002 0.182472
O O12 0.500000 0.344175 0.326669
O O13 0.420529 0.250000 0.263031
O O14 0.374372 0.349941 0.362793
O O15 0.241474 0.887547 0.926530
O O16 0.789513 0.500000 0.500000
O O17 0.055676 0.683231 0.296925
#
# Coordination Sequence:
#
# PCOD9536899 Si02
#       8
#    16  16  16  16  16  16   4  16
#     4  10  21  37  64  91 120 159 210 249 306 377
#     4  11  23  39  61  89 126 164 205 260 319 371
#     4  11  23  41  67  91 122 171 216 258 318 379
#     4  10  23  44  66  94 128 163 207 259 316 378
#     4  10  19  41  64  94 124 160 203 261 310 367
#     4  11  21  39  63  95 126 159 212 262 305 377
#     4  12  28  40  54  92 138 160 214 274 304 364
#     4  12  22  41  60  88 127 170 209 260 310 373
#
# _framework density 19.008488
#
# number of rings (size 3 to 8) (size 9 to 14) (size 15 to 20)
#    0.000    1.241    6.897    0.414    0.966    4.138 
#    2.483    1.379    0.000    0.000    0.000    0.000 
#    0.000    0.000    0.000    0.000    0.000    0.000 
#
# Total GULP energy -323253.345713 kJ/mol
# GULP energy per Si atom -5573.333547 kJ/mol
# Density = 1.896522 g / cm^3
# Si number density = 19.008488 Si / 1000 Ang^3
#
#
#
# Elastic Constant Matrix: (Units=GPa)
#
#
# Indices 1 2 3 4 5 6 
#
# 1 61.3053 10.8816 36.4618 0.0000 0.0000 0.0000
# 2 10.8816 83.1372 29.9305 0.0000 0.0000 0.0000
# 3 36.4618 29.9305 64.7057 0.0000 0.0000 0.0000
# 4 0.0000 0.0000 0.0000 16.7136 0.0000 0.0000
# 5 0.0000 0.0000 0.0000 0.0000 6.9974 0.0000
# 6 0.0000 0.0000 0.0000 0.0000 0.0000 34.5623
#
#
#
# Elastic Compliance Matrix: (Units=1/GPa)
#
#
# Indices 1 2 3 4 5 6 
#
# 1 0.024850 0.002146 -0.014995 0.000000 0.000000 0.000000
# 2 0.002146 0.014617 -0.007971 0.000000 0.000000 0.000000
# 3 -0.014995 -0.007971 0.027591 0.000000 0.000000 0.000000
# 4 0.000000 0.000000 0.000000 0.059831 0.000000 0.000000
# 5 0.000000 0.000000 0.000000 0.000000 0.142911 0.000000
# 6 0.000000 0.000000 0.000000 0.000000 0.000000 0.028933
#
#
# Mechanical properties :
#
#
# Convention : Reuss Voigt Hill
#
# Bulk Modulus (GPa) = 39.34218 40.41066 39.87642
# Shear Modulus (GPa) = 14.33295 20.44627 17.38961
#
# Velocity S-wave (km/s) = 2.74894 3.28325 3.02790
# Velocity P-wave (km/s) = 5.55136 5.97314 5.76611
#
# Compressibility (1/GPa) = 0.02541801
#
# Stress axis : x y z
#
# Youngs Moduli (GPa) = 40.24215 68.41382 36.24308
#
# Poissons Ratio (x) = -0.14682 0.54348
# Poissons Ratio (y) = -0.08636 0.28888
# Poissons Ratio (z) = 0.60345 0.54530
#
# Static dielectric constant tensor:
#      x y z
#    x 1.675820 0.000000 0.000000 
#    y 0.000000 1.629440 0.000000 
#    z 0.000000 0.000000 1.678730 
# 
# From -- ./inp_files/44290.got.cif
#   From: 2010.05.17/outbox.cif.g08.bks.cpg/sg74_23_cif.got.tgz:44290.got - 2010.06.03 17:57:02.
