data_PCOD9536371
_publ_section_title
;
Structure prediction by ZEFSAII (Michael W. Deem and Ramdas Pophale) SiO2 
 PCOD9536371
Probable space group: I M M A
;
_chemical_formula_sum "Si O2"
_cell_formula_units_Z 88
_cell_length_a 8.040467
_cell_length_b 28.359609
_cell_length_c 18.733706
_cell_angle_alpha 90.000000
_cell_angle_beta 90.000000
_cell_angle_gamma 90.000000
_cell_volume 4271.743949
_symmetry_space_group_name_H-M "I M M A"
_symmetry_group_IT_number 74
_symmetry_cell_setting 'orthorhombic'
loop_
_space_group_symop_operation_xyz
x,y,z
-x,1/2-y,z
x,-y,-z
-x,1/2+y,-z
-x,-y,-z
x,1/2+y,-z
-x,y,z
x,1/2-y,z
1/2+x,1/2+y,1/2+z
1/2-x,-y,1/2+z
1/2+x,1/2-y,1/2-z
1/2-x,y,1/2-z
1/2-x,1/2-y,1/2-z
1/2+x,y,1/2-z
1/2-x,1/2+y,1/2+z
1/2+x,-y,1/2+z
loop_
_atom_site_type_symbol
_atom_site_label
_atom_site_fract_x
_atom_site_fract_y
_atom_site_fract_z
Si Si1 0.196163 0.667310 0.931284
Si Si2 0.200550 0.999085 0.672286
Si Si3 0.199643 0.802036 0.090124
Si Si4 0.200553 0.905031 0.389195
Si Si5 0.302142 0.250000 0.168718
Si Si6 0.307456 0.932155 0.952696
O O1 0.228453 0.704763 0.870646
O O2 0.293191 0.619216 0.917675
O O3 0.000000 0.656682 0.936755
O O4 0.250147 0.689579 0.007343
O O5 0.250000 0.980536 0.750000
O O6 0.255033 0.053504 0.663538
O O7 0.000000 0.997683 0.668825
O O8 0.263878 0.969608 0.603538
O O9 0.261568 0.750000 0.113858
O O10 0.248789 0.851310 0.127064
O O11 0.000000 0.800050 0.092110
O O12 0.263111 0.922251 0.467925
O O13 0.000000 0.904660 0.392336
O O14 0.500000 0.250000 0.161070
O O15 0.250000 0.250000 0.250000
O O16 0.500000 0.945594 0.963989
#
# Coordination Sequence:
#
# PCOD9536371 Si02
#       6
#    16  16  16  16   8  16
#     4  10  19  34  52  74 104 134 168 215 262 309
#     4  10  21  36  54  76 107 141 176 219 268 320
#     4   9  17  31  52  78 108 136 163 207 264 313
#     4   9  18  33  54  80 105 136 178 223 264 308
#     4  12  24  36  50  68  96 138 181 218 261 312
#     4   9  18  34  55  78 103 137 179 220 262 311
#
# _framework density 20.600486
#
# number of rings (size 3 to 8) (size 9 to 14) (size 15 to 20)
#    0.000    2.364    0.909    1.909    0.000    5.455 
#    0.000    1.818    0.000    6.000    0.000    0.000 
#    0.000    0.000    0.000    0.000    0.000    0.000 
#
# Total GULP energy -245306.592396 kJ/mol
# GULP energy per Si atom -5575.149827 kJ/mol
# Density = 2.055360 g / cm^3
# Si number density = 20.600486 Si / 1000 Ang^3
#
#
#
# Elastic Constant Matrix: (Units=GPa)
#
#
# Indices 1 2 3 4 5 6 
#
# 1 25.6044 7.3187 -4.6047 0.0000 0.0000 0.0000
# 2 7.3187 128.3564 14.5780 -0.0001 0.0000 0.0000
# 3 -4.6047 14.5780 23.0943 -0.0002 0.0000 0.0000
# 4 0.0000 -0.0001 -0.0002 12.8533 0.0000 0.0000
# 5 0.0000 0.0000 0.0000 0.0000 13.5886 0.0000
# 6 0.0000 0.0000 0.0000 0.0000 0.0000 14.7954
#
#
#
# Elastic Compliance Matrix: (Units=1/GPa)
#
#
# Indices 1 2 3 4 5 6 
#
# 1 0.042001 -0.003604 0.010650 0.000000 0.000000 0.000000
# 2 -0.003604 0.008702 -0.006212 0.000000 0.000000 0.000000
# 3 0.010650 -0.006212 0.049345 0.000001 0.000000 0.000000
# 4 0.000000 0.000000 0.000001 0.077801 0.000000 0.000000
# 5 0.000000 0.000000 0.000000 0.000000 0.073591 0.000000
# 6 0.000000 0.000000 0.000000 0.000000 0.000000 0.067588
#
#
# Mechanical properties :
#
#
# Convention : Reuss Voigt Hill
#
# Bulk Modulus (GPa) = 9.83132 23.51547 16.67339
# Shear Modulus (GPa) = 14.23420 18.89833 16.56626
#
# Velocity S-wave (km/s) = 2.63147 3.03210 2.83886
# Velocity P-wave (km/s) = 3.74374 4.86806 4.34244
#
# Compressibility (1/GPa) = 0.10171573
#
# Stress axis : x y z
#
# Youngs Moduli (GPa) = 23.80876 114.91866 20.26539
#
# Poissons Ratio (x) = 0.41421 -0.21582
# Poissons Ratio (y) = 0.08582 0.12588
# Poissons Ratio (z) = -0.25356 0.71383
#
# Static dielectric constant tensor:
#      x y z
#    x 1.754640 0.000000 0.000000 
#    y 0.000000 1.794830 0.000000 
#    z 0.000000 0.000000 1.718410 
# 
# From -- ./inp_files/40107.got.cif
#   From: 2010.05.17/outbox.cif.g08.bks.cpg/sg74_21_cif.got.tgz:40107.got - 2010.06.03 17:57:02.
