data_PCOD9536399
_publ_section_title
;
Structure prediction by ZEFSAII (Michael W. Deem and Ramdas Pophale) SiO2 
 PCOD9536399
Probable space group: I M M A
;
_chemical_formula_sum "Si O2"
_cell_formula_units_Z 96
_cell_length_a 19.682564
_cell_length_b 7.679478
_cell_length_c 30.645427
_cell_angle_alpha 90.000000
_cell_angle_beta 90.000000
_cell_angle_gamma 90.000000
_cell_volume 4632.111981
_symmetry_space_group_name_H-M "I M M A"
_symmetry_group_IT_number 74
_symmetry_cell_setting 'orthorhombic'
loop_
_space_group_symop_operation_xyz
x,y,z
-x,1/2-y,z
x,-y,-z
-x,1/2+y,-z
-x,-y,-z
x,1/2+y,-z
-x,y,z
x,1/2-y,z
1/2+x,1/2+y,1/2+z
1/2-x,-y,1/2+z
1/2+x,1/2-y,1/2-z
1/2-x,y,1/2-z
1/2-x,1/2-y,1/2-z
1/2+x,y,1/2-z
1/2-x,1/2+y,1/2+z
1/2+x,-y,1/2+z
loop_
_atom_site_type_symbol
_atom_site_label
_atom_site_fract_x
_atom_site_fract_y
_atom_site_fract_z
Si Si1 0.177425 0.044397 0.231496
Si Si2 0.078304 0.959576 0.049355
Si Si3 0.820689 0.538564 0.618403
Si Si4 0.833178 0.049648 0.868840
Si Si5 0.426808 0.958684 0.949357
Si Si6 0.922726 0.462575 0.303609
O O1 0.180427 0.250000 0.240920
O O2 0.250000 0.973330 0.250000
O O3 0.113499 0.977431 0.259155
O O4 0.164706 0.026173 0.180051
O O5 0.077605 0.750000 0.052078
O O6 0.122800 0.024526 0.090598
O O7 0.000000 0.022264 0.052465
O O8 0.103274 0.000000 0.000000
O O9 0.813655 0.750000 0.619102
O O10 0.746052 0.463010 0.619436
O O11 0.862142 0.477660 0.576381
O O12 0.869375 0.490142 0.658653
O O13 0.853921 0.250000 0.864142
O O14 0.500000 0.024345 0.932680
O O15 0.427696 0.750000 0.943803
O O16 0.422831 0.000000 0.000000
O O17 0.926410 0.250000 0.304274
O O18 0.000000 0.524499 0.309316
#
# Coordination Sequence:
#
# PCOD9536399 Si02
#       6
#    16  16  16  16  16  16
#     4  10  19  35  56  79 107 142 183 226 273 321
#     4   9  20  40  62  83 110 145 184 229 280 333
#     4  10  19  34  54  76 104 140 180 222 265 314
#     4  11  23  36  55  83 113 144 177 217 275 335
#     4   9  18  32  51  74 101 137 178 219 265 313
#     4   9  17  31  54  80 103 133 179 229 267 306
#
# _framework density 20.724888
#
# number of rings (size 3 to 8) (size 9 to 14) (size 15 to 20)
#    0.000    2.333    1.667    1.000    0.000    5.667 
#    0.000    3.333    0.000    2.500    0.000    0.000 
#    0.000    0.000    0.000    0.000    0.000    0.000 
#
# Total GULP energy -267668.871671 kJ/mol
# GULP energy per Si atom -5576.434826 kJ/mol
# Density = 2.067772 g / cm^3
# Si number density = 20.724888 Si / 1000 Ang^3
#
#
#
# Elastic Constant Matrix: (Units=GPa)
#
#
# Indices 1 2 3 4 5 6 
#
# 1 113.8041 -3.7563 68.6790 0.0000 0.0000 0.0000
# 2 -3.7563 30.8188 -10.0462 0.0000 0.0000 0.0000
# 3 68.6790 -10.0462 118.2045 0.0000 0.0000 0.0000
# 4 0.0000 0.0000 0.0000 18.3897 0.0000 0.0000
# 5 0.0000 0.0000 0.0000 0.0000 47.2080 0.0000
# 6 0.0000 0.0000 0.0000 0.0000 0.0000 9.8220
#
#
#
# Elastic Compliance Matrix: (Units=1/GPa)
#
#
# Indices 1 2 3 4 5 6 
#
# 1 0.013558 -0.000941 -0.007958 0.000000 0.000000 0.000000
# 2 -0.000941 0.033438 0.003389 0.000000 0.000000 0.000000
# 3 -0.007958 0.003389 0.013371 0.000000 0.000000 0.000000
# 4 0.000000 0.000000 0.000000 0.054378 0.000000 0.000000
# 5 0.000000 0.000000 0.000000 0.000000 0.021183 0.000000
# 6 0.000000 0.000000 0.000000 0.000000 0.000000 0.101812
#
#
# Mechanical properties :
#
#
# Convention : Reuss Voigt Hill
#
# Bulk Modulus (GPa) = 20.26468 41.39784 30.83126
# Shear Modulus (GPa) = 18.85301 28.94734 23.90017
#
# Velocity S-wave (km/s) = 3.01936 3.74136 3.39958
# Velocity P-wave (km/s) = 4.68557 6.21948 5.50620
#
# Compressibility (1/GPa) = 0.04934695
#
# Stress axis : x y z
#
# Youngs Moduli (GPa) = 73.75583 29.90639 74.78617
#
# Poissons Ratio (x) = 0.02816 0.59512
# Poissons Ratio (y) = 0.06944 -0.25344
# Poissons Ratio (z) = 0.58692 -0.10135
#
# Static dielectric constant tensor:
#      x y z
#    x 1.731550 0.000000 0.000000 
#    y 0.000000 1.804140 0.000000 
#    z 0.000000 0.000000 1.739060 
# 
# From -- ./inp_files/68132.got.cif
#   From: 2010.05.17/outbox.cif.g08.bks.cpg/sg74_35_cif.got.tgz:68132.got - 2010.06.03 17:57:02.
