data_PCOD9536056
_publ_section_title
;
Structure prediction by ZEFSAII (Michael W. Deem and Ramdas Pophale) SiO2 
 PCOD9536056
Probable space group: I M M A
;
_chemical_formula_sum "Si O2"
_cell_formula_units_Z 104
_cell_length_a 23.008149
_cell_length_b 7.853905
_cell_length_c 25.068130
_cell_angle_alpha 90.000000
_cell_angle_beta 90.000000
_cell_angle_gamma 90.000000
_cell_volume 4529.906763
_symmetry_space_group_name_H-M "I M M A"
_symmetry_group_IT_number 74
_symmetry_cell_setting 'orthorhombic'
loop_
_space_group_symop_operation_xyz
x,y,z
-x,1/2-y,z
x,-y,-z
-x,1/2+y,-z
-x,-y,-z
x,1/2+y,-z
-x,y,z
x,1/2-y,z
1/2+x,1/2+y,1/2+z
1/2-x,-y,1/2+z
1/2+x,1/2-y,1/2-z
1/2-x,y,1/2-z
1/2-x,1/2-y,1/2-z
1/2+x,y,1/2-z
1/2-x,1/2+y,1/2+z
1/2+x,-y,1/2+z
loop_
_atom_site_type_symbol
_atom_site_label
_atom_site_fract_x
_atom_site_fract_y
_atom_site_fract_z
Si Si1 0.260455 0.059923 0.920656
Si Si2 0.064409 0.044114 0.285484
Si Si3 0.620525 0.045083 0.890744
Si Si4 0.000000 0.454959 0.561457
Si Si5 0.265540 0.445476 0.308339
Si Si6 0.597204 0.444852 0.329091
Si Si7 0.629627 0.550461 0.558669
O O1 0.260585 0.250000 0.943389
O O2 0.324186 0.977077 0.924552
O O3 0.256148 0.059782 0.856348
O O4 0.199528 0.979805 0.938376
O O5 0.066610 0.250000 0.282910
O O6 0.070663 0.978163 0.224729
O O7 0.000000 0.991576 0.304822
O O8 0.113854 0.990997 0.327421
O O9 0.623611 0.250000 0.896582
O O10 0.559848 0.978427 0.913762
O O11 0.000000 0.500000 0.500000
O O12 0.000000 0.250000 0.568718
O O13 0.243030 0.250000 0.314457
O O14 0.250000 0.507156 0.250000
O O15 0.334617 0.435355 0.314899
O O16 0.574229 0.250000 0.333093
O O17 0.598153 0.525661 0.388538
O O18 0.609025 0.500000 0.500000
O O19 0.621641 0.750000 0.564096
#
# Coordination Sequence:
#
# PCOD9536056 Si02
#       7
#    16  16  16   8  16  16  16
#     4  10  20  32  49  75 102 131 171 213 256 309
#     4  10  19  32  55  83 106 134 179 226 263 312
#     4  10  21  37  54  74 106 142 172 214 271 317
#     4  10  22  40  56  70  96 134 177 216 257 306
#     4   9  16  28  46  68  99 138 169 201 253 311
#     4   8  16  30  48  74 105 135 169 211 263 315
#     4  10  20  36  56  76 104 141 175 215 266 320
#
# _framework density 22.958528999999999
#
# number of rings (size 3 to 8) (size 9 to 14) (size 15 to 20)
#    0.000    2.462    0.769    2.769    0.000    4.000 
#    0.000    6.923    0.000    0.462    0.000    0.000 
#    0.000    0.000    0.000    0.000    0.000    0.615 
#
# Total GULP energy -289839.166969 kJ/mol
# GULP energy per Si atom -5573.830134 kJ/mol
# Density = 2.290627 g / cm^3
# Si number density = 22.958529 Si / 1000 Ang^3
#
#
#
# Elastic Constant Matrix: (Units=GPa)
#
#
# Indices 1 2 3 4 5 6 
#
# 1 34.5667 -4.2115 -13.9293 0.0000 0.0000 0.0000
# 2 -4.2115 28.4742 -8.0609 0.0000 0.0000 0.0000
# 3 -13.9293 -8.0609 114.5410 0.0000 0.0000 0.0000
# 4 0.0000 0.0000 0.0000 24.9579 0.0000 0.0000
# 5 0.0000 0.0000 0.0000 0.0000 15.9436 0.0000
# 6 0.0000 0.0000 0.0000 0.0000 0.0000 6.8219
#
#
#
# Elastic Compliance Matrix: (Units=1/GPa)
#
#
# Indices 1 2 3 4 5 6 
#
# 1 0.031341 0.005831 0.004222 0.000000 0.000000 0.000000
# 2 0.005831 0.036918 0.003307 0.000000 0.000000 0.000000
# 3 0.004222 0.003307 0.009477 0.000000 0.000000 0.000000
# 4 0.000000 0.000000 0.000000 0.040068 0.000000 0.000000
# 5 0.000000 0.000000 0.000000 0.000000 0.062721 0.000000
# 6 0.000000 0.000000 0.000000 0.000000 0.000000 0.146587
#
#
# Mechanical properties :
#
#
# Convention : Reuss Voigt Hill
#
# Bulk Modulus (GPa) = 9.57348 13.90873 11.74111
# Shear Modulus (GPa) = 14.91598 23.13024 19.02311
#
# Velocity S-wave (km/s) = 2.55167 3.17752 2.88164
# Velocity P-wave (km/s) = 3.58613 4.41968 4.02454
#
# Compressibility (1/GPa) = 0.10445519
#
# Stress axis : x y z
#
# Youngs Moduli (GPa) = 31.90691 27.08695 105.52257
#
# Poissons Ratio (x) = -0.15794 -0.44549
# Poissons Ratio (y) = -0.18604 -0.34898
# Poissons Ratio (z) = -0.13470 -0.08958
#
# Static dielectric constant tensor:
#      x y z
#    x 1.911320 0.000000 0.000000 
#    y 0.000000 1.821160 0.000000 
#    z 0.000000 0.000000 1.920810 
# 
# From -- ./inp_files/68687.got.cif
#   From: 2010.05.17/outbox.cif.g08.bks.cpg/sg74_35_cif.got.tgz:68687.got - 2010.06.03 17:57:02.
