data_PCOD9536618
_publ_section_title
;
Structure prediction by ZEFSAII (Michael W. Deem and Ramdas Pophale) SiO2 
 PCOD9536618
Probable space group: I M M A
;
_chemical_formula_sum "Si O2"
_cell_formula_units_Z 96
_cell_length_a 9.152591
_cell_length_b 29.195388
_cell_length_c 20.225403
_cell_angle_alpha 90.000000
_cell_angle_beta 90.000000
_cell_angle_gamma 90.000000
_cell_volume 5404.499621
_symmetry_space_group_name_H-M "I M M A"
_symmetry_group_IT_number 74
_symmetry_cell_setting 'orthorhombic'
loop_
_space_group_symop_operation_xyz
x,y,z
-x,1/2-y,z
x,-y,-z
-x,1/2+y,-z
-x,-y,-z
x,1/2+y,-z
-x,y,z
x,1/2-y,z
1/2+x,1/2+y,1/2+z
1/2-x,-y,1/2+z
1/2+x,1/2-y,1/2-z
1/2-x,y,1/2-z
1/2-x,1/2-y,1/2-z
1/2+x,y,1/2-z
1/2-x,1/2+y,1/2+z
1/2+x,-y,1/2+z
loop_
_atom_site_type_symbol
_atom_site_label
_atom_site_fract_x
_atom_site_fract_y
_atom_site_fract_z
Si Si1 0.827216 0.048907 0.536889
Si Si2 0.673328 0.520085 0.182320
Si Si3 0.330473 0.694194 0.184624
Si Si4 0.674463 0.910745 0.818663
Si Si5 0.672953 0.195165 0.962168
Si Si6 0.826165 0.124747 0.050944
O O1 0.783780 0.043896 0.613645
O O2 0.730260 0.085113 0.498326
O O3 0.000000 0.061689 0.533671
O O4 0.814796 0.000000 0.500000
O O5 0.500000 0.526060 0.189929
O O6 0.750000 0.535093 0.250000
O O7 0.700248 0.465524 0.173265
O O8 0.500000 0.681733 0.189142
O O9 0.322408 0.750000 0.185095
O O10 0.250000 0.677204 0.250000
O O11 0.277904 0.679935 0.111776
O O12 0.500000 0.903668 0.817382
O O13 0.750000 0.897216 0.750000
O O14 0.748489 0.885044 0.879465
O O15 0.500000 0.183869 0.968690
O O16 0.684847 0.250000 0.965243
O O17 0.766941 0.170992 0.017802
O O18 0.000000 0.124221 0.057588
#
# Coordination Sequence:
#
# PCOD9536618 Si02
#       6
#    16  16  16  16  16  16
#     4  10  19  36  56  76 106 146 184 221 270 323
#     4   9  18  32  53  77 105 143 182 223 270 319
#     4   8  14  26  47  74 100 128 167 214 264 316
#     4  10  19  35  56  81 110 142 181 224 268 321
#     4   9  19  37  58  78 104 143 187 229 276 330
#     4  12  24  35  53  84 114 144 181 226 276 326
#
# _framework density 17.762976999999999
#
# number of rings (size 3 to 8) (size 9 to 14) (size 15 to 20)
#    0.000    2.333    1.667    3.000    0.000    2.667 
#    0.000    2.500    0.000    0.500    0.000    0.000 
#    0.000    0.000    0.000    0.000    0.000    0.000 
#
# Total GULP energy -267833.734734 kJ/mol
# GULP energy per Si atom -5579.869474 kJ/mol
# Density = 1.772255 g / cm^3
# Si number density = 17.762977 Si / 1000 Ang^3
#
#
#
# Elastic Constant Matrix: (Units=GPa)
#
#
# Indices 1 2 3 4 5 6 
#
# 1 79.3802 27.9328 71.7540 0.0000 0.0000 0.0000
# 2 27.9328 29.1662 34.4753 0.0000 0.0000 0.0000
# 3 71.7540 34.4753 179.8083 0.0000 0.0000 0.0000
# 4 0.0000 0.0000 0.0000 20.7657 0.0000 0.0000
# 5 0.0000 0.0000 0.0000 0.0000 36.3268 0.0000
# 6 0.0000 0.0000 0.0000 0.0000 0.0000 20.1963
#
#
#
# Elastic Compliance Matrix: (Units=1/GPa)
#
#
# Indices 1 2 3 4 5 6 
#
# 1 0.023902 -0.015021 -0.006658 0.000000 0.000000 0.000000
# 2 -0.015021 0.053773 -0.004316 0.000000 0.000000 0.000000
# 3 -0.006658 -0.004316 0.009046 0.000000 0.000000 0.000000
# 4 0.000000 0.000000 0.000000 0.048156 0.000000 0.000000
# 5 0.000000 0.000000 0.000000 0.000000 0.027528 0.000000
# 6 0.000000 0.000000 0.000000 0.000000 0.000000 0.049514
#
#
# Mechanical properties :
#
#
# Convention : Reuss Voigt Hill
#
# Bulk Modulus (GPa) = 28.79251 61.85320 45.32285
# Shear Modulus (GPa) = 18.14971 25.73728 21.94350
#
# Velocity S-wave (km/s) = 3.19998 3.81061 3.51857
# Velocity P-wave (km/s) = 5.46788 7.36600 6.48674
#
# Compressibility (1/GPa) = 0.03473126
#
# Stress axis : x y z
#
# Youngs Moduli (GPa) = 41.83798 18.59652 110.54596
#
# Poissons Ratio (x) = 0.27933 0.73604
# Poissons Ratio (y) = 0.62844 0.47712
# Poissons Ratio (z) = 0.27857 0.08026
#
# Static dielectric constant tensor:
#      x y z
#    x 1.584940 0.000000 0.000000 
#    y 0.000000 1.623290 0.000000 
#    z 0.000000 0.000000 1.611550 
# 
# From -- ./inp_files/49096.got.cif
#   From: 2010.05.17/outbox.cif.g08.bks.cpg/sg74_25_cif.got.tgz:49096.got - 2010.06.03 17:57:02.
