data_PCOD9536096
_publ_section_title
;
Structure prediction by ZEFSAII (Michael W. Deem and Ramdas Pophale) SiO2 
 PCOD9536096
Probable space group: I M M A
;
_chemical_formula_sum "Si O2"
_cell_formula_units_Z 96
_cell_length_a 18.552371
_cell_length_b 9.585003
_cell_length_c 29.115259
_cell_angle_alpha 90.000000
_cell_angle_beta 90.000000
_cell_angle_gamma 90.000000
_cell_volume 5177.407297
_symmetry_space_group_name_H-M "I M M A"
_symmetry_group_IT_number 74
_symmetry_cell_setting 'orthorhombic'
loop_
_space_group_symop_operation_xyz
x,y,z
-x,1/2-y,z
x,-y,-z
-x,1/2+y,-z
-x,-y,-z
x,1/2+y,-z
-x,y,z
x,1/2-y,z
1/2+x,1/2+y,1/2+z
1/2-x,-y,1/2+z
1/2+x,1/2-y,1/2-z
1/2-x,y,1/2-z
1/2-x,1/2-y,1/2-z
1/2+x,y,1/2-z
1/2-x,1/2+y,1/2+z
1/2+x,-y,1/2+z
loop_
_atom_site_type_symbol
_atom_site_label
_atom_site_fract_x
_atom_site_fract_y
_atom_site_fract_z
Si Si1 0.675888 0.581239 0.848369
Si Si2 0.196102 0.909352 0.197721
Si Si3 0.290977 0.587106 0.954476
Si Si4 0.616901 0.408656 0.457551
Si Si5 0.416231 0.416557 0.780507
Si Si6 0.076956 0.399936 0.879015
O O1 0.675369 0.750000 0.844846
O O2 0.742805 0.516359 0.819069
O O3 0.682983 0.545227 0.902992
O O4 0.607375 0.508540 0.824270
O O5 0.225111 0.750000 0.202962
O O6 0.144691 0.944192 0.241157
O O7 0.140743 0.904565 0.156120
O O8 0.310148 0.750000 0.961149
O O9 0.203736 0.578467 0.952813
O O10 0.313800 0.500000 0.000000
O O11 0.593221 0.500000 0.500000
O O12 0.598194 0.250000 0.464463
O O13 0.582855 0.472555 0.412611
O O14 0.500000 0.445715 0.767327
O O15 0.412119 0.250000 0.789962
O O16 0.081958 0.250000 0.904440
O O17 0.000000 0.401858 0.854523
#
# Coordination Sequence:
#
# PCOD9536096 Si02
#       6
#    16  16  16  16  16  16
#     4  11  22  37  58  88 120 148 184 232 282 336
#     4  10  20  36  58  82 110 148 192 234 275 322
#     4   9  19  34  54  81 112 143 180 228 279 330
#     4  10  19  33  50  70  99 137 181 228 280 332
#     4  10  22  40  60  84 115 151 192 235 278 330
#     4  10  20  33  50  73 102 140 185 232 280 327
#
# _framework density 18.542099
#
# number of rings (size 3 to 8) (size 9 to 14) (size 15 to 20)
#    0.000    2.000    1.667    2.000    0.000    7.667 
#    0.000    0.000    0.000    3.500    0.000    0.000 
#    0.000    0.000    0.000    0.000    0.000    0.000 
#
# Total GULP energy -267471.474450 kJ/mol
# GULP energy per Si atom -5572.322384 kJ/mol
# Density = 1.849990 g / cm^3
# Si number density = 18.542099 Si / 1000 Ang^3
#
#
#
# Elastic Constant Matrix: (Units=GPa)
#
#
# Indices 1 2 3 4 5 6 
#
# 1 44.1028 26.7833 39.7110 0.0000 0.0000 0.0000
# 2 26.7833 87.9366 65.7860 0.0000 0.0000 0.0000
# 3 39.7110 65.7860 121.6196 0.0000 0.0000 0.0000
# 4 0.0000 0.0000 0.0000 30.1041 0.0000 0.0000
# 5 0.0000 0.0000 0.0000 0.0000 155.1018 0.0000
# 6 0.0000 0.0000 0.0000 0.0000 0.0000 16.9428
#
#
#
# Elastic Compliance Matrix: (Units=1/GPa)
#
#
# Indices 1 2 3 4 5 6 
#
# 1 0.032681 -0.003310 -0.008880 0.000000 0.000000 0.000000
# 2 -0.003310 0.019437 -0.009433 0.000000 0.000000 0.000000
# 3 -0.008880 -0.009433 0.016224 0.000000 0.000000 0.000000
# 4 0.000000 0.000000 0.000000 0.033218 0.000000 0.000000
# 5 0.000000 0.000000 0.000000 0.000000 0.006447 0.000000
# 6 0.000000 0.000000 0.000000 0.000000 0.000000 0.059022
#
#
# Mechanical properties :
#
#
# Convention : Reuss Voigt Hill
#
# Bulk Modulus (GPa) = 39.84861 57.57994 48.71428
# Shear Modulus (GPa) = 22.86854 48.52165 35.69510
#
# Velocity S-wave (km/s) = 3.51569 5.12105 4.39234
# Velocity P-wave (km/s) = 6.16585 8.12945 7.21476
#
# Compressibility (1/GPa) = 0.02509498
#
# Stress axis : x y z
#
# Youngs Moduli (GPa) = 30.59925 51.44868 61.63611
#
# Poissons Ratio (x) = 0.17031 0.54734
# Poissons Ratio (y) = 0.10129 0.58140
# Poissons Ratio (z) = 0.27173 0.48531
#
# Static dielectric constant tensor:
#      x y z
#    x 1.655890 0.000000 0.000000 
#    y 0.000000 1.645800 0.000000 
#    z 0.000000 0.000000 1.651660 
# 
# From -- ./inp_files/68121.got.cif
#   From: 2010.05.17/outbox.cif.g08.bks.cpg/sg74_35_cif.got.tgz:68121.got - 2010.06.03 17:57:02.
