data_PCOD9536918
_publ_section_title
;
Structure prediction by ZEFSAII (Michael W. Deem and Ramdas Pophale) SiO2 
 PCOD9536918
Probable space group: I M M A
;
_chemical_formula_sum "Si O2"
_cell_formula_units_Z 120
_cell_length_a 14.915304
_cell_length_b 21.686070
_cell_length_c 20.864714
_cell_angle_alpha 90.000000
_cell_angle_beta 90.000000
_cell_angle_gamma 90.000000
_cell_volume 6748.782017
_symmetry_space_group_name_H-M "I M M A"
_symmetry_group_IT_number 74
_symmetry_cell_setting 'orthorhombic'
loop_
_space_group_symop_operation_xyz
x,y,z
-x,1/2-y,z
x,-y,-z
-x,1/2+y,-z
-x,-y,-z
x,1/2+y,-z
-x,y,z
x,1/2-y,z
1/2+x,1/2+y,1/2+z
1/2-x,-y,1/2+z
1/2+x,1/2-y,1/2-z
1/2-x,y,1/2-z
1/2-x,1/2-y,1/2-z
1/2+x,y,1/2-z
1/2-x,1/2+y,1/2+z
1/2+x,-y,1/2+z
loop_
_atom_site_type_symbol
_atom_site_label
_atom_site_fract_x
_atom_site_fract_y
_atom_site_fract_z
Si Si1 0.102299 0.081108 0.871302
Si Si2 0.602728 0.064947 0.347024
Si Si3 0.765774 0.817439 0.174376
Si Si4 0.898117 0.509116 0.656174
Si Si5 0.642113 0.930076 0.512912
Si Si6 0.143277 0.066495 0.473416
Si Si7 0.100518 0.371308 0.598813
Si Si8 0.750000 0.443819 0.250000
O O1 0.168119 0.125774 0.835092
O O2 0.000000 0.089937 0.852048
O O3 0.122859 0.008588 0.858754
O O4 0.114753 0.099771 0.946075
O O5 0.500000 0.071121 0.323587
O O6 0.606806 0.092427 0.418914
O O7 0.681595 0.088950 0.300393
O O8 0.801642 0.750000 0.154478
O O9 0.750000 0.814923 0.250000
O O10 0.676865 0.831402 0.132536
O O11 0.883854 0.560832 0.600709
O O12 0.887980 0.441037 0.626191
O O13 0.821270 0.517978 0.708221
O O14 0.000000 0.513824 0.680771
O O15 0.749373 0.931793 0.519995
O O16 0.609567 0.000000 0.500000
O O17 0.109247 0.118830 0.521888
O O18 0.111176 0.000000 0.500000
O O19 0.000000 0.350055 0.614003
#
# Coordination Sequence:
#
# PCOD9536918 Si02
#       8
#    16  16  16  16  16  16  16   8
#     4  10  20  34  54  71  87 117 161 207 252 297
#     4  10  20  30  45  71  99 126 159 196 236 285
#     4  11  25  40  51  65  92 127 166 216 262 292
#     4  10  20  30  45  71  99 126 159 196 236 285
#     4   9  15  29  50  71  93 118 148 195 245 289
#     4   9  15  29  50  71  93 118 148 195 245 289
#     4  10  20  34  54  71  87 117 161 207 252 297
#     4  12  20  28  38  60 101 142 159 182 214 272
#
# _framework density 17.780985999999999
#
# number of rings (size 3 to 8) (size 9 to 14) (size 15 to 20)
#    0.000    2.000    2.667    2.000    3.733    4.267 
#    0.000    1.333    0.000    0.000    0.000    0.000 
#    0.000    0.000    0.000    9.600    0.000   35.733 
#
# Total GULP energy -334216.182033 kJ/mol
# GULP energy per Si atom -5570.269701 kJ/mol
# Density = 1.774052 g / cm^3
# Si number density = 17.780986 Si / 1000 Ang^3
#
#
#
# Elastic Constant Matrix: (Units=GPa)
#
#
# Indices 1 2 3 4 5 6 
#
# 1 84.1753 3.6365 21.8959 0.0000 0.0000 0.0000
# 2 3.6365 19.0761 3.2116 0.0000 0.0000 0.0000
# 3 21.8959 3.2116 80.5205 0.0000 0.0000 0.0000
# 4 0.0000 0.0000 0.0000 1.4090 0.0000 0.0000
# 5 0.0000 0.0000 0.0000 0.0000 10.7134 0.0000
# 6 0.0000 0.0000 0.0000 0.0000 0.0000 6.1418
#
#
#
# Elastic Compliance Matrix: (Units=1/GPa)
#
#
# Indices 1 2 3 4 5 6 
#
# 1 0.012850 -0.001874 -0.003420 0.000000 0.000000 0.000000
# 2 -0.001874 0.053049 -0.001606 0.000000 0.000000 0.000000
# 3 -0.003420 -0.001606 0.013413 0.000000 0.000000 0.000000
# 4 0.000000 0.000000 0.000000 0.709702 0.000000 0.000000
# 5 0.000000 0.000000 0.000000 0.000000 0.093341 0.000000
# 6 0.000000 0.000000 0.000000 0.000000 0.000000 0.162819
#
#
# Mechanical properties :
#
#
# Convention : Reuss Voigt Hill
#
# Bulk Modulus (GPa) = 15.26416 26.80665 21.03541
# Shear Modulus (GPa) = 4.62615 13.98805 9.30710
#
# Velocity S-wave (km/s) = 1.61474 2.80783 2.29034
# Velocity P-wave (km/s) = 3.47559 5.06169 4.34168
#
# Compressibility (1/GPa) = 0.06551293
#
# Stress axis : x y z
#
# Youngs Moduli (GPa) = 77.81826 18.85044 74.55360
#
# Poissons Ratio (x) = 0.03532 0.25495
# Poissons Ratio (y) = 0.14583 0.11976
# Poissons Ratio (z) = 0.26611 0.03028
#
# Static dielectric constant tensor:
#      x y z
#    x 1.639090 0.000000 0.000000 
#    y 0.000000 1.562720 0.000000 
#    z 0.000000 0.000000 1.705910 
# 
# From -- ./inp_files/52359.got.cif
#   From: 2010.05.17/outbox.cif.g08.bks.cpg/sg74_27_cif.got.tgz:52359.got - 2010.06.03 17:57:02.
