data_PCOD9536082
_publ_section_title
;
Structure prediction by ZEFSAII (Michael W. Deem and Ramdas Pophale) SiO2 
 PCOD9536082
Probable space group: I M M A
;
_chemical_formula_sum "Si O2"
_cell_formula_units_Z 96
_cell_length_a 14.588623
_cell_length_b 11.698640
_cell_length_c 29.889047
_cell_angle_alpha 90.000000
_cell_angle_beta 90.000000
_cell_angle_gamma 90.000000
_cell_volume 5101.075436
_symmetry_space_group_name_H-M "I M M A"
_symmetry_group_IT_number 74
_symmetry_cell_setting 'orthorhombic'
loop_
_space_group_symop_operation_xyz
x,y,z
-x,1/2-y,z
x,-y,-z
-x,1/2+y,-z
-x,-y,-z
x,1/2+y,-z
-x,y,z
x,1/2-y,z
1/2+x,1/2+y,1/2+z
1/2-x,-y,1/2+z
1/2+x,1/2-y,1/2-z
1/2-x,y,1/2-z
1/2-x,1/2-y,1/2-z
1/2+x,y,1/2-z
1/2-x,1/2+y,1/2+z
1/2+x,-y,1/2+z
loop_
_atom_site_type_symbol
_atom_site_label
_atom_site_fract_x
_atom_site_fract_y
_atom_site_fract_z
Si Si1 0.773333 0.750000 0.406358
Si Si2 0.107035 0.497459 0.203156
Si Si3 0.891671 0.750000 0.325063
Si Si4 0.893307 0.750000 0.166050
Si Si5 0.302343 0.036210 0.551516
Si Si6 0.000000 0.111308 0.965379
Si Si7 0.110277 0.500871 0.695989
Si Si8 0.254423 0.614832 0.634254
O O1 0.863859 0.750000 0.376755
O O2 0.687545 0.750000 0.370906
O O3 0.764755 0.638995 0.436464
O O4 0.116682 0.634091 0.194932
O O5 0.131865 0.461047 0.253584
O O6 0.167839 0.432928 0.167331
O O7 0.000000 0.471516 0.196552
O O8 0.856595 0.869181 0.306047
O O9 0.000000 0.750000 0.317738
O O10 0.000000 0.750000 0.148637
O O11 0.404978 0.086694 0.559807
O O12 0.296735 0.000000 0.500000
O O13 0.277727 0.936067 0.585691
O O14 0.000000 0.250000 0.979218
O O15 0.000000 0.000000 0.000000
O O16 0.161251 0.567705 0.656755
O O17 0.000000 0.504476 0.690539
O O18 0.253412 0.750000 0.633004
#
# Coordination Sequence:
#
# PCOD9536082 Si02
#       8
#     8  16   8   8  16   8  16  16
#     4  12  20  36  65  88 118 160 197 246 308 353
#     4  10  21  37  59  90 124 160 196 243 299 367
#     4  10  19  36  64  96 122 144 192 255 310 362
#     4  10  19  32  60  92 126 154 192 241 302 366
#     4  11  25  41  62  90 121 161 204 250 304 364
#     4  10  22  38  64  94 128 164 206 248 302 374
#     4  10  21  39  63  90 121 156 198 246 306 366
#     4  12  26  41  58  84 120 163 209 257 298 355
#
# _framework density 18.819561
#
# number of rings (size 3 to 8) (size 9 to 14) (size 15 to 20)
#    0.000    1.333    4.167    1.000    3.500    4.667 
#    0.000    4.167    0.000    2.000    0.000    0.000 
#    0.000    0.000    0.000    0.000    0.000    0.000 
#
# Total GULP energy -267851.893911 kJ/mol
# GULP energy per Si atom -5580.247790 kJ/mol
# Density = 1.877673 g / cm^3
# Si number density = 18.819561 Si / 1000 Ang^3
#
#
#
# Elastic Constant Matrix: (Units=GPa)
#
#
# Indices 1 2 3 4 5 6 
#
# 1 42.4395 25.9550 30.2052 0.0000 0.0000 0.0000
# 2 25.9550 127.8722 46.8346 0.0000 0.0000 0.0000
# 3 30.2052 46.8346 117.8796 0.0000 0.0000 0.0000
# 4 0.0000 0.0000 0.0000 187.8145 0.0000 0.0000
# 5 0.0000 0.0000 0.0000 0.0000 27.8206 0.0000
# 6 0.0000 0.0000 0.0000 0.0000 0.0000 35.7150
#
#
#
# Elastic Compliance Matrix: (Units=1/GPa)
#
#
# Indices 1 2 3 4 5 6 
#
# 1 0.030379 -0.003880 -0.006243 0.000000 0.000000 0.000000
# 2 -0.003880 0.009648 -0.002839 0.000000 0.000000 0.000000
# 3 -0.006243 -0.002839 0.011211 0.000000 0.000000 0.000000
# 4 0.000000 0.000000 0.000000 0.005324 0.000000 0.000000
# 5 0.000000 0.000000 0.000000 0.000000 0.035945 0.000000
# 6 0.000000 0.000000 0.000000 0.000000 0.000000 0.027999
#
#
# Mechanical properties :
#
#
# Convention : Reuss Voigt Hill
#
# Bulk Modulus (GPa) = 39.50324 54.90900 47.20612
# Shear Modulus (GPa) = 32.28585 62.61644 47.45114
#
# Velocity S-wave (km/s) = 4.14641 5.77445 5.02678
# Velocity P-wave (km/s) = 6.63021 8.58480 7.67003
#
# Compressibility (1/GPa) = 0.02531438
#
# Stress axis : x y z
#
# Youngs Moduli (GPa) = 32.91770 103.65288 89.19973
#
# Poissons Ratio (x) = 0.40214 0.55685
# Poissons Ratio (y) = 0.12771 0.25323
# Poissons Ratio (z) = 0.20550 0.29426
#
# Static dielectric constant tensor:
#      x y z
#    x 1.679290 0.000000 0.000000 
#    y 0.000000 1.639000 0.000000 
#    z 0.000000 0.000000 1.657330 
# 
# From -- ./inp_files/72489.got.cif
#   From: 2010.05.17/outbox.cif.g08.bks.cpg/sg74_37_cif.got.tgz:72489.got - 2010.06.03 17:57:02.
