data_PCOD9536757
_publ_section_title
;
Structure prediction by ZEFSAII (Michael W. Deem and Ramdas Pophale) SiO2 
 PCOD9536757
Probable space group: I M M A
;
_chemical_formula_sum "Si O2"
_cell_formula_units_Z 88
_cell_length_a 8.822428
_cell_length_b 22.514073
_cell_length_c 24.718660
_cell_angle_alpha 90.000000
_cell_angle_beta 90.000000
_cell_angle_gamma 90.000000
_cell_volume 4909.837478
_symmetry_space_group_name_H-M "I M M A"
_symmetry_group_IT_number 74
_symmetry_cell_setting 'orthorhombic'
loop_
_space_group_symop_operation_xyz
x,y,z
-x,1/2-y,z
x,-y,-z
-x,1/2+y,-z
-x,-y,-z
x,1/2+y,-z
-x,y,z
x,1/2-y,z
1/2+x,1/2+y,1/2+z
1/2-x,-y,1/2+z
1/2+x,1/2-y,1/2-z
1/2-x,y,1/2-z
1/2-x,1/2-y,1/2-z
1/2+x,y,1/2-z
1/2-x,1/2+y,1/2+z
1/2+x,-y,1/2+z
loop_
_atom_site_type_symbol
_atom_site_label
_atom_site_fract_x
_atom_site_fract_y
_atom_site_fract_z
Si Si1 0.819349 0.682495 0.808039
Si Si2 0.683298 0.977819 0.059990
Si Si3 0.817194 0.250000 0.689209
Si Si4 0.820569 0.315674 0.013207
Si Si5 0.819913 0.897796 0.600681
Si Si6 0.816314 0.846208 0.401200
O O1 0.771697 0.750000 0.821848
O O2 0.750000 0.668237 0.750000
O O3 0.761335 0.637162 0.852089
O O4 0.000000 0.681264 0.805243
O O5 0.500000 0.974064 0.055125
O O6 0.729523 0.915367 0.087484
O O7 0.721965 0.033232 0.098047
O O8 0.737289 0.000000 0.000000
O O9 0.750000 0.250000 0.750000
O O10 0.775403 0.191215 0.652994
O O11 0.000000 0.250000 0.693764
O O12 0.795838 0.250000 0.037570
O O13 0.730083 0.365469 0.045527
O O14 0.000000 0.327817 0.015032
O O15 0.760649 0.314987 0.952352
O O16 0.000000 0.893102 0.606129
O O17 0.000000 0.843056 0.405202
#
# Coordination Sequence:
#
# PCOD9536757 Si02
#       6
#    16  16   8  16  16  16
#     4  10  21  38  58  80 109 144 185 233 279 324
#     4   9  17  32  55  82 113 147 182 226 276 332
#     4  10  22  38  62  86 110 146 189 238 283 338
#     4  11  22  33  49  79 116 148 179 229 284 329
#     4  11  21  34  55  81 112 151 188 224 271 333
#     4  10  19  36  59  83 107 140 188 232 280 340
#
# _framework density 17.923199
#
# number of rings (size 3 to 8) (size 9 to 14) (size 15 to 20)
#    0.000    1.818    2.727    2.182    0.000    5.091 
#    0.000    3.636    0.000    2.182    0.000    0.000 
#    0.000    0.000    0.000    0.000    0.000    0.000 
#
# Total GULP energy -245268.811686 kJ/mol
# GULP energy per Si atom -5574.291175 kJ/mol
# Density = 1.788241 g / cm^3
# Si number density = 17.923199 Si / 1000 Ang^3
#
#
#
# Elastic Constant Matrix: (Units=GPa)
#
#
# Indices 1 2 3 4 5 6 
#
# 1 17.1777 12.8606 18.1125 0.0000 0.0000 0.0000
# 2 12.8606 105.2650 65.5398 0.0000 0.0000 -0.0001
# 3 18.1125 65.5398 118.8132 0.0000 0.0000 0.0000
# 4 0.0000 0.0000 0.0000 -11.4753 0.0000 0.0000
# 5 0.0000 0.0000 0.0000 0.0000 33.6195 0.0000
# 6 0.0000 -0.0001 0.0000 0.0000 0.0000 663.3517
#
#
#
# Elastic Compliance Matrix: (Units=1/GPa)
#
#
# Indices 1 2 3 4 5 6 
#
# 1 0.069943 -0.002904 -0.009061 0.000000 0.000000 0.000000
# 2 -0.002904 0.014590 -0.007605 0.000000 0.000000 0.000000
# 3 -0.009061 -0.007605 0.013993 0.000000 0.000000 0.000000
# 4 0.000000 0.000000 0.000000 -0.087144 0.000000 0.000000
# 5 0.000000 0.000000 0.000000 0.000000 0.029745 0.000000
# 6 0.000000 0.000000 0.000000 0.000000 0.000000 0.001507
#
#
# Mechanical properties :
#
#
# Convention : Reuss Voigt Hill
#
# Bulk Modulus (GPa) = 16.83901 48.25352 32.54627
# Shear Modulus (GPa) = 49.22765 146.74871 97.98818
#
# Velocity S-wave (km/s) = 5.24648 9.05837 7.40202
# Velocity P-wave (km/s) = 6.79089 11.67846 9.55255
#
# Compressibility (1/GPa) = 0.05938590
#
# Stress axis : x y z
#
# Youngs Moduli (GPa) = 14.29745 68.54083 71.46387
#
# Poissons Ratio (x) = 0.19903 0.64750
# Poissons Ratio (y) = 0.04152 0.54351
# Poissons Ratio (z) = 0.12954 0.52128
#
# Static dielectric constant tensor:
#      x y z
#    x 1.592370 0.000000 0.000000 
#    y 0.000000 1.661970 0.000000 
#    z 0.000000 0.000000 1.583100 
# 
# From -- ./inp_files/57016.got.cif
#   From: 2010.05.17/outbox.cif.g08.bks.cpg/sg74_29_cif.got.tgz:57016.got - 2010.06.03 17:57:02.
