data_PCOD9536147
_publ_section_title
;
Structure prediction by ZEFSAII (Michael W. Deem and Ramdas Pophale) SiO2 
 PCOD9536147
Probable space group: I M M A
;
_chemical_formula_sum "Si O2"
_cell_formula_units_Z 88
_cell_length_a 27.036415
_cell_length_b 22.394761
_cell_length_c 7.649801
_cell_angle_alpha 90.000000
_cell_angle_beta 90.000000
_cell_angle_gamma 90.000000
_cell_volume 4631.756010
_symmetry_space_group_name_H-M "I M M A"
_symmetry_group_IT_number 74
_symmetry_cell_setting 'orthorhombic'
loop_
_space_group_symop_operation_xyz
x,y,z
-x,1/2-y,z
x,-y,-z
-x,1/2+y,-z
-x,-y,-z
x,1/2+y,-z
-x,y,z
x,1/2-y,z
1/2+x,1/2+y,1/2+z
1/2-x,-y,1/2+z
1/2+x,1/2-y,1/2-z
1/2-x,y,1/2-z
1/2-x,1/2-y,1/2-z
1/2+x,y,1/2-z
1/2-x,1/2+y,1/2+z
1/2+x,-y,1/2+z
loop_
_atom_site_type_symbol
_atom_site_label
_atom_site_fract_x
_atom_site_fract_y
_atom_site_fract_z
Si Si1 0.942899 0.457187 0.168241
Si Si2 0.318665 0.620198 0.960237
Si Si3 0.274916 0.066775 0.563352
Si Si4 0.622212 0.000000 0.000000
Si Si5 0.863470 0.128053 0.073624
Si Si6 0.700799 0.750000 0.984501
Si Si7 0.184633 0.750000 0.939120
O O1 0.911195 0.483600 0.330736
O O2 0.918581 0.395275 0.101063
O O3 0.000000 0.450382 0.220642
O O4 0.940282 0.500000 0.000000
O O5 0.340663 0.623221 0.767409
O O6 0.322711 0.686509 0.045204
O O7 0.260021 0.608894 0.948163
O O8 0.344217 0.559495 0.035498
O O9 0.250000 0.074005 0.750000
O O10 0.331704 0.083833 0.547127
O O11 0.268963 0.000000 0.500000
O O12 0.848325 0.193164 0.011724
O O13 0.760037 0.750000 0.019266
O O14 0.693289 0.750000 0.772353
#
# Coordination Sequence:
#
# PCOD9536147 Si02
#       7
#    16  16  16   8  16   8   8
#     4  10  22  39  61  83 108 143 188 246 299 339
#     4  10  19  33  52  80 109 152 184 224 274 341
#     4  12  23  31  48  76 112 147 182 227 275 336
#     4  10  21  36  60  86 116 142 193 240 292 344
#     4  10  20  35  55  76 108 142 187 227 277 340
#     4   9  16  30  50  74 115 150 192 211 267 344
#     4   9  16  30  53  76 103 152 181 223 265 336
#
# _framework density 18.999274
#
# number of rings (size 3 to 8) (size 9 to 14) (size 15 to 20)
#    0.000    1.818    2.727    2.455    5.091    0.000 
#    0.000    2.273    0.000    0.000    0.000    3.182 
#    0.000    0.000    0.000    0.000    0.000    0.000 
#
# Total GULP energy -245267.771868 kJ/mol
# GULP energy per Si atom -5574.267542 kJ/mol
# Density = 1.895603 g / cm^3
# Si number density = 18.999274 Si / 1000 Ang^3
#
#
#
# Elastic Constant Matrix: (Units=GPa)
#
#
# Indices 1 2 3 4 5 6 
#
# 1 105.1352 53.9328 25.0821 0.0000 0.0000 0.0000
# 2 53.9328 139.5661 21.5329 0.0000 0.0000 0.0000
# 3 25.0821 21.5329 44.7718 0.0000 0.0000 0.0000
# 4 0.0000 0.0000 0.0000 7.1476 0.0000 0.0000
# 5 0.0000 0.0000 0.0000 0.0000 31.3309 0.0000
# 6 0.0000 0.0000 0.0000 0.0000 0.0000 14.6982
#
#
#
# Elastic Compliance Matrix: (Units=1/GPa)
#
#
# Indices 1 2 3 4 5 6 
#
# 1 0.012901 -0.004180 -0.005217 0.000000 0.000000 0.000000
# 2 -0.004180 0.009094 -0.002032 0.000000 0.000000 0.000000
# 3 -0.005217 -0.002032 0.026235 0.000000 0.000000 0.000000
# 4 0.000000 0.000000 0.000000 0.139907 0.000000 0.000000
# 5 0.000000 0.000000 0.000000 0.000000 0.031917 0.000000
# 6 0.000000 0.000000 0.000000 0.000000 0.000000 0.068036
#
#
# Mechanical properties :
#
#
# Convention : Reuss Voigt Hill
#
# Bulk Modulus (GPa) = 39.41335 54.50763 46.96049
# Shear Modulus (GPa) = 15.65412 23.23035 19.44224
#
# Velocity S-wave (km/s) = 2.87354 3.50050 3.20240
# Velocity P-wave (km/s) = 5.63909 6.71488 6.20036
#
# Compressibility (1/GPa) = 0.02537212
#
# Stress axis : x y z
#
# Youngs Moduli (GPa) = 77.51604 109.96319 38.11676
#
# Poissons Ratio (x) = 0.45968 0.19884
# Poissons Ratio (y) = 0.32404 0.07745
# Poissons Ratio (z) = 0.40437 0.22342
#
# Static dielectric constant tensor:
#      x y z
#    x 1.636380 0.000000 0.000000 
#    y 0.000000 1.721400 0.000000 
#    z 0.000000 0.000000 1.725470 
# 
# From -- ./inp_files/16166.got.cif
#   From: 2010.05.17/outbox.cif.g08.bks.cpg/sg74_9_cif.got.tgz:16166.got - 2010.06.03 17:57:02.
