data_PCOD9536911
_publ_section_title
;
Structure prediction by ZEFSAII (Michael W. Deem and Ramdas Pophale) SiO2 
 PCOD9536911
Probable space group: I M M A
;
_chemical_formula_sum "Si O2"
_cell_formula_units_Z 88
_cell_length_a 8.452876
_cell_length_b 28.014814
_cell_length_c 18.841184
_cell_angle_alpha 90.000000
_cell_angle_beta 90.000000
_cell_angle_gamma 90.000000
_cell_volume 4461.700687
_symmetry_space_group_name_H-M "I M M A"
_symmetry_group_IT_number 74
_symmetry_cell_setting 'orthorhombic'
loop_
_space_group_symop_operation_xyz
x,y,z
-x,1/2-y,z
x,-y,-z
-x,1/2+y,-z
-x,-y,-z
x,1/2+y,-z
-x,y,z
x,1/2-y,z
1/2+x,1/2+y,1/2+z
1/2-x,-y,1/2+z
1/2+x,1/2-y,1/2-z
1/2-x,y,1/2-z
1/2-x,1/2-y,1/2-z
1/2+x,y,1/2-z
1/2-x,1/2+y,1/2+z
1/2+x,-y,1/2+z
loop_
_atom_site_type_symbol
_atom_site_label
_atom_site_fract_x
_atom_site_fract_y
_atom_site_fract_z
Si Si1 0.814208 0.676531 0.942227
Si Si2 0.310489 0.250000 0.328191
Si Si3 0.688071 0.003929 0.325984
Si Si4 0.311825 0.302757 0.903934
Si Si5 0.185875 0.433165 0.041603
Si Si6 0.688756 0.590356 0.114060
O O1 0.758526 0.704745 0.873914
O O2 0.803713 0.620503 0.929468
O O3 0.000000 0.687708 0.955933
O O4 0.720749 0.692349 0.011988
O O5 0.500000 0.250000 0.326048
O O6 0.250000 0.250000 0.250000
O O7 0.500000 0.008985 0.326395
O O8 0.750000 0.021834 0.250000
O O9 0.734897 0.948652 0.334986
O O10 0.746877 0.031714 0.396890
O O11 0.500000 0.302315 0.891316
O O12 0.249854 0.250000 0.880772
O O13 0.252019 0.354670 0.876162
O O14 0.000000 0.444298 0.027447
O O15 0.270621 0.428520 0.965588
O O16 0.500000 0.590400 0.122603
#
# Coordination Sequence:
#
# PCOD9536911 Si02
#       6
#    16   8  16  16  16  16
#     4   9  17  31  48  69  96 128 168 211 253 300
#     4  10  20  30  42  62  92 132 171 208 251 298
#     4  11  23  38  55  76 105 142 179 219 266 316
#     4   9  17  30  51  78 105 130 161 205 256 304
#     4   9  19  35  55  77 104 137 175 219 264 310
#     4  10  20  34  55  83 110 138 173 216 262 312
#
# _framework density 19.723420999999998
#
# number of rings (size 3 to 8) (size 9 to 14) (size 15 to 20)
#    0.000    2.364    0.909    1.636    0.000    5.818 
#    0.000    0.000    0.000    0.545    0.000    0.000 
#    0.000    0.000    0.000    0.000    0.000    0.000 
#
# Total GULP energy -245224.559951 kJ/mol
# GULP energy per Si atom -5573.285453 kJ/mol
# Density = 1.967853 g / cm^3
# Si number density = 19.723421 Si / 1000 Ang^3
#
#
#
# Elastic Constant Matrix: (Units=GPa)
#
#
# Indices 1 2 3 4 5 6 
#
# 1 13.5884 6.2488 -0.1714 0.0000 0.0000 0.0000
# 2 6.2488 109.2369 9.3344 0.0000 0.0000 -0.0001
# 3 -0.1714 9.3344 18.0015 -0.0002 0.0000 -0.0001
# 4 0.0000 0.0000 -0.0002 13.8287 0.0000 0.0000
# 5 0.0000 0.0000 0.0000 0.0000 25.4653 0.0000
# 6 0.0000 -0.0001 -0.0001 0.0000 0.0000 7.0816
#
#
#
# Elastic Compliance Matrix: (Units=1/GPa)
#
#
# Indices 1 2 3 4 5 6 
#
# 1 0.075746 -0.004598 0.003105 0.000000 0.000000 0.000000
# 2 -0.004598 0.009858 -0.005156 0.000000 0.000000 0.000000
# 3 0.003105 -0.005156 0.058254 0.000001 0.000000 0.000001
# 4 0.000000 0.000000 0.000001 0.072313 0.000000 0.000000
# 5 0.000000 0.000000 0.000000 0.000000 0.039269 0.000000
# 6 0.000000 0.000000 0.000001 0.000000 0.000000 0.141211
#
#
# Mechanical properties :
#
#
# Convention : Reuss Voigt Hill
#
# Bulk Modulus (GPa) = 7.65926 19.07228 13.36577
# Shear Modulus (GPa) = 11.02613 17.63613 14.33113
#
# Velocity S-wave (km/s) = 2.36696 2.99351 2.69849
# Velocity P-wave (km/s) = 3.37072 4.65178 4.06207
#
# Compressibility (1/GPa) = 0.13056099
#
# Stress axis : x y z
#
# Youngs Moduli (GPa) = 13.20203 101.44048 17.16625
#
# Poissons Ratio (x) = 0.46646 -0.05331
# Poissons Ratio (y) = 0.06071 0.08850
# Poissons Ratio (z) = -0.04100 0.52298
#
# Static dielectric constant tensor:
#      x y z
#    x 1.690830 0.000000 0.000000 
#    y 0.000000 1.746420 0.000000 
#    z 0.000000 0.000000 1.668890 
# 
# From -- ./inp_files/40085.got.cif
#   From: 2010.05.17/outbox.cif.g08.bks.cpg/sg74_21_cif.got.tgz:40085.got - 2010.06.03 17:57:02.
