data_PCOD9536600
_publ_section_title
;
Structure prediction by ZEFSAII (Michael W. Deem and Ramdas Pophale) SiO2 
 PCOD9536600
Probable space group: I M M A
;
_chemical_formula_sum "Si O2"
_cell_formula_units_Z 104
_cell_length_a 9.115361
_cell_length_b 22.056043
_cell_length_c 27.655725
_cell_angle_alpha 90.000000
_cell_angle_beta 90.000000
_cell_angle_gamma 90.000000
_cell_volume 5560.150163
_symmetry_space_group_name_H-M "I M M A"
_symmetry_group_IT_number 74
_symmetry_cell_setting 'orthorhombic'
loop_
_space_group_symop_operation_xyz
x,y,z
-x,1/2-y,z
x,-y,-z
-x,1/2+y,-z
-x,-y,-z
x,1/2+y,-z
-x,y,z
x,1/2-y,z
1/2+x,1/2+y,1/2+z
1/2-x,-y,1/2+z
1/2+x,1/2-y,1/2-z
1/2-x,y,1/2-z
1/2-x,1/2-y,1/2-z
1/2+x,y,1/2-z
1/2-x,1/2+y,1/2+z
1/2+x,-y,1/2+z
loop_
_atom_site_type_symbol
_atom_site_label
_atom_site_fract_x
_atom_site_fract_y
_atom_site_fract_z
Si Si1 0.673531 0.649812 0.136067
Si Si2 0.673769 0.534899 0.199945
Si Si3 0.821234 0.059572 0.470041
Si Si4 0.671922 0.177788 0.300637
Si Si5 0.677093 0.079854 0.140267
Si Si6 0.177570 0.180721 0.524810
Si Si7 0.672811 0.250000 0.698634
O O1 0.500000 0.664604 0.142441
O O2 0.695802 0.582548 0.156474
O O3 0.708470 0.661797 0.080197
O O4 0.771545 0.692665 0.168723
O O5 0.500000 0.532569 0.209050
O O6 0.750000 0.552407 0.250000
O O7 0.722792 0.470007 0.179869
O O8 0.782254 0.058178 0.413512
O O9 0.771292 0.124316 0.492030
O O10 0.000000 0.059295 0.472866
O O11 0.772014 0.000000 0.500000
O O12 0.500000 0.162841 0.297829
O O13 0.686835 0.250000 0.306965
O O14 0.750000 0.161629 0.250000
O O15 0.748826 0.142101 0.343922
O O16 0.500000 0.085332 0.141519
O O17 0.230241 0.250000 0.515334
O O18 0.000000 0.182822 0.520133
O O19 0.500000 0.250000 0.704585
O O20 0.750000 0.250000 0.750000
#
# Coordination Sequence:
#
# PCOD9536600 Si02
#       7
#    16  16  16  16  16  16   8
#     4  10  19  35  55  76 105 141 180 221 269 320
#     4  10  21  34  51  76 107 142 179 220 268 321
#     4   9  17  30  50  79 113 144 179 227 277 324
#     4  10  21  37  57  81 110 146 186 226 276 336
#     4  10  20  34  54  83 115 145 181 227 277 327
#     4   9  16  28  50  77 102 135 179 221 265 318
#     4  12  24  36  52  76 106 138 178 224 271 318
#
# _framework density 18.704532
#
# number of rings (size 3 to 8) (size 9 to 14) (size 15 to 20)
#    0.000    2.154    0.769    3.000    0.000    8.923 
#    0.000    1.538    0.000    1.385    0.000    0.000 
#    0.000    0.000    0.000    0.000    0.000    0.000 
#
# Total GULP energy -290095.076957 kJ/mol
# GULP energy per Si atom -5578.751480 kJ/mol
# Density = 1.866196 g / cm^3
# Si number density = 18.704532 Si / 1000 Ang^3
#
#
#
# Elastic Constant Matrix: (Units=GPa)
#
#
# Indices 1 2 3 4 5 6 
#
# 1 26.5715 21.0623 15.3007 0.0000 0.0000 0.0000
# 2 21.0623 87.4763 35.8462 0.0000 0.0000 0.0000
# 3 15.3007 35.8462 65.4720 0.0000 0.0000 0.0000
# 4 0.0000 0.0000 0.0000 36.3048 0.0000 0.0000
# 5 0.0000 0.0000 0.0000 0.0000 18.7087 0.0000
# 6 0.0000 0.0000 0.0000 0.0000 0.0000 2.7400
#
#
#
# Elastic Compliance Matrix: (Units=1/GPa)
#
#
# Indices 1 2 3 4 5 6 
#
# 1 0.048487 -0.009065 -0.006368 0.000000 0.000000 0.000000
# 2 -0.009065 0.016433 -0.006879 0.000000 0.000000 0.000000
# 3 -0.006368 -0.006879 0.020528 0.000000 0.000000 0.000000
# 4 0.000000 0.000000 0.000000 0.027545 0.000000 0.000000
# 5 0.000000 0.000000 0.000000 0.000000 0.053451 0.000000
# 6 0.000000 0.000000 0.000000 0.000000 0.000000 0.364958
#
#
# Mechanical properties :
#
#
# Convention : Reuss Voigt Hill
#
# Bulk Modulus (GPa) = 24.49530 35.99315 30.24422
# Shear Modulus (GPa) = 8.47986 18.70476 13.59231
#
# Velocity S-wave (km/s) = 2.13153 3.16573 2.69863
# Velocity P-wave (km/s) = 4.37975 5.71378 5.09065
#
# Compressibility (1/GPa) = 0.04082416
#
# Stress axis : x y z
#
# Youngs Moduli (GPa) = 20.62421 60.85294 48.71387
#
# Poissons Ratio (x) = 0.55163 0.31022
# Poissons Ratio (y) = 0.18696 0.33509
# Poissons Ratio (z) = 0.13134 0.41859
#
# Static dielectric constant tensor:
#      x y z
#    x 1.622750 0.000000 0.000000 
#    y 0.000000 1.687800 0.000000 
#    z 0.000000 0.000000 1.655470 
# 
# From -- ./inp_files/64803.got.cif
#   From: 2010.05.17/outbox.cif.g08.bks.cpg/sg74_33_cif.got.tgz:64803.got - 2010.06.03 17:57:02.
