data_PCOD9536656
_publ_section_title
;
Structure prediction by ZEFSAII (Michael W. Deem and Ramdas Pophale) SiO2 
 PCOD9536656
Probable space group: I M M A
;
_chemical_formula_sum "Si O2"
_cell_formula_units_Z 108
_cell_length_a 35.545925
_cell_length_b 31.862524
_cell_length_c 5.144289
_cell_angle_alpha 90.000000
_cell_angle_beta 90.000000
_cell_angle_gamma 90.000000
_cell_volume 5826.333694
_symmetry_space_group_name_H-M "I M M A"
_symmetry_group_IT_number 74
_symmetry_cell_setting 'orthorhombic'
loop_
_space_group_symop_operation_xyz
x,y,z
-x,1/2-y,z
x,-y,-z
-x,1/2+y,-z
-x,-y,-z
x,1/2+y,-z
-x,y,z
x,1/2-y,z
1/2+x,1/2+y,1/2+z
1/2-x,-y,1/2+z
1/2+x,1/2-y,1/2-z
1/2-x,y,1/2-z
1/2-x,1/2-y,1/2-z
1/2+x,y,1/2-z
1/2-x,1/2+y,1/2+z
1/2+x,-y,1/2+z
loop_
_atom_site_type_symbol
_atom_site_label
_atom_site_fract_x
_atom_site_fract_y
_atom_site_fract_z
Si Si1 0.500000 0.750000 0.205580
Si Si2 0.646494 0.202117 0.837257
Si Si3 0.158586 0.346276 0.165982
Si Si4 0.776955 0.591082 0.999992
Si Si5 0.940010 0.325760 0.651996
Si Si6 0.276710 0.500000 0.500000
Si Si7 0.544674 0.471758 0.244096
Si Si8 0.073142 0.621678 0.841387
O O1 0.467673 0.787289 0.200033
O O2 0.655014 0.250000 0.899837
O O3 0.665829 0.171205 0.045468
O O4 0.655608 0.191469 0.540053
O O5 0.602038 0.193087 0.863405
O O6 0.190917 0.375579 0.053268
O O7 0.118085 0.369566 0.168690
O O8 0.750000 0.591212 0.750000
O O9 0.796361 0.544912 0.017986
O O10 0.750000 0.597578 0.250000
O O11 0.946119 0.349889 0.381383
O O12 0.940825 0.360133 0.882749
O O13 0.250000 0.498712 0.250000
O O14 0.549214 0.500000 0.500000
O O15 0.500000 0.463553 0.206193
O O16 0.564220 0.426833 0.286452
O O17 0.557827 0.500000 0.000000
#
# Coordination Sequence:
#
# PCOD9536656 Si02
#       8
#     4  16  16  16  16   8  16  16
#     4  12  24  38  56  94 116 146 192 238 312 334
#     4  10  19  38  55  79 109 150 189 220 277 333
#     4  10  21  35  60  82 110 147 186 228 276 344
#     4  10  19  35  58  85 113 143 182 224 277 338
#     4  10  23  35  57  82 115 146 184 238 280 355
#     4   8  16  30  52  78 110 138 165 208 267 332
#     4  10  21  37  58  79 107 148 195 236 278 330
#     4  10  22  40  56  83 115 150 190 233 292 333
#
# _framework density 18.536529000000002
#
# number of rings (size 3 to 8) (size 9 to 14) (size 15 to 20)
#    0.000    2.074    0.741    2.222    2.074    1.185 
#    1.333    0.000    6.519    8.889    0.000    0.000 
#    0.000    0.000    0.000    0.000    0.000    0.000 
#
# Total GULP energy -300603.163440 kJ/mol
# GULP energy per Si atom -5566.725249 kJ/mol
# Density = 1.849434 g / cm^3
# Si number density = 18.536529 Si / 1000 Ang^3
#
#
#
# Elastic Constant Matrix: (Units=GPa)
#
#
# Indices 1 2 3 4 5 6 
#
# 1 44.8087 44.7725 20.1011 0.0000 0.0000 0.0000
# 2 44.7725 132.2093 22.4129 0.0000 0.0000 0.0000
# 3 20.1011 22.4129 104.5972 0.0000 0.0000 0.0000
# 4 0.0000 0.0000 0.0000 18.1785 0.0000 0.0000
# 5 0.0000 0.0000 0.0000 0.0000 -0.6997 0.0000
# 6 0.0000 0.0000 0.0000 0.0000 0.0000 7.6817
#
#
#
# Elastic Compliance Matrix: (Units=1/GPa)
#
#
# Indices 1 2 3 4 5 6 
#
# 1 0.035595 -0.011305 -0.004418 0.000000 0.000000 0.000000
# 2 -0.011305 0.011440 -0.000279 0.000000 0.000000 0.000000
# 3 -0.004418 -0.000279 0.010469 0.000000 0.000000 0.000000
# 4 0.000000 0.000000 0.000000 0.055010 0.000000 0.000000
# 5 0.000000 0.000000 0.000000 0.000000 -1.429217 0.000000
# 6 0.000000 0.000000 0.000000 0.000000 0.000000 0.130179
#
#
# Mechanical properties :
#
#
# Convention : Reuss Voigt Hill
#
# Bulk Modulus (GPa) = 39.21572 50.68758 44.95165
# Shear Modulus (GPa) = -4.36293 17.98735 6.81221
#
# Velocity S-wave (km/s) = -1.53584 3.11846 1.91911
# Velocity P-wave (km/s) = 4.24933 6.35378 5.40496
#
# Compressibility (1/GPa) = 0.02549998
#
# Stress axis : x y z
#
# Youngs Moduli (GPa) = 28.09366 87.41625 95.51791
#
# Poissons Ratio (x) = 0.98827 0.42200
# Poissons Ratio (y) = 0.31761 0.02661
# Poissons Ratio (z) = 0.12412 0.02436
#
# Static dielectric constant tensor:
#      x y z
#    x 1.670660 0.000000 0.000000 
#    y 0.000000 1.638550 0.000000 
#    z 0.000000 0.000000 1.643790 
# 
# From -- ./inp_files/5363.got.cif
#   From: 2010.05.17/outbox.cif.g08.bks.cpg/sg74_3_cif.got.tgz:5363.got - 2010.06.03 17:57:02.
