data_PCOD9536321
_publ_section_title
;
Structure prediction by ZEFSAII (Michael W. Deem and Ramdas Pophale) SiO2 
 PCOD9536321
Probable space group: I M M A
;
_chemical_formula_sum "Si O2"
_cell_formula_units_Z 88
_cell_length_a 15.675961
_cell_length_b 10.900919
_cell_length_c 24.210113
_cell_angle_alpha 90.000000
_cell_angle_beta 90.000000
_cell_angle_gamma 90.000000
_cell_volume 4137.081756
_symmetry_space_group_name_H-M "I M M A"
_symmetry_group_IT_number 74
_symmetry_cell_setting 'orthorhombic'
loop_
_space_group_symop_operation_xyz
x,y,z
-x,1/2-y,z
x,-y,-z
-x,1/2+y,-z
-x,-y,-z
x,1/2+y,-z
-x,y,z
x,1/2-y,z
1/2+x,1/2+y,1/2+z
1/2-x,-y,1/2+z
1/2+x,1/2-y,1/2-z
1/2-x,y,1/2-z
1/2-x,1/2-y,1/2-z
1/2+x,y,1/2-z
1/2-x,1/2+y,1/2+z
1/2+x,-y,1/2+z
loop_
_atom_site_type_symbol
_atom_site_label
_atom_site_fract_x
_atom_site_fract_y
_atom_site_fract_z
Si Si1 0.600644 0.607956 0.263589
Si Si2 0.655383 0.387318 0.859637
Si Si3 0.157835 0.970242 0.122463
Si Si4 0.093346 0.114676 0.427889
Si Si5 0.220975 0.119363 0.032125
Si Si6 0.500000 0.608241 0.452872
O O1 0.500000 0.591704 0.252601
O O2 0.613369 0.750000 0.281757
O O3 0.650024 0.592866 0.206199
O O4 0.630218 0.524550 0.314035
O O5 0.621998 0.250000 0.871097
O O6 0.753159 0.396116 0.879463
O O7 0.605594 0.497898 0.888719
O O8 0.081211 0.911791 0.087485
O O9 0.184106 0.097953 0.093347
O O10 0.096867 0.250000 0.399548
O O11 0.176312 0.115940 0.466460
O O12 0.000000 0.107843 0.454756
O O13 0.193430 0.250000 0.009666
O O14 0.192287 0.000000 0.000000
O O15 0.500000 0.750000 0.473775
O O16 0.500000 0.500000 0.500000
#
# Coordination Sequence:
#
# PCOD9536321 Si02
#       6
#    16  16  16  16  16   8
#     4  10  19  33  56  88 125 157 195 244 297 355
#     4  10  20  34  58  91 122 154 197 248 296 350
#     4  11  22  38  60  83 118 158 197 242 303 364
#     4   9  19  37  58  82 119 160 193 231 289 361
#     4  10  23  41  61  86 115 150 195 247 301 358
#     4  12  26  42  62  86 116 158 208 258 307 360
#
# _framework density 21.271032000000002
#
# number of rings (size 3 to 8) (size 9 to 14) (size 15 to 20)
#    0.000    1.818    0.909    3.273    0.000    9.455 
#    0.000    0.909    0.000    5.455    0.000    0.000 
#    0.000    0.000    0.000    0.000    0.000    0.000 
#
# Total GULP energy -245555.341550 kJ/mol
# GULP energy per Si atom -5580.803217 kJ/mol
# Density = 2.122262 g / cm^3
# Si number density = 21.271032 Si / 1000 Ang^3
#
#
#
# Elastic Constant Matrix: (Units=GPa)
#
#
# Indices 1 2 3 4 5 6 
#
# 1 123.3754 26.8120 18.2619 0.0000 0.0000 0.0000
# 2 26.8120 164.1682 53.6539 0.0000 0.0000 0.0000
# 3 18.2619 53.6539 41.9579 0.0000 0.0000 0.0000
# 4 0.0000 0.0000 0.0000 26.3497 0.0000 0.0000
# 5 0.0000 0.0000 0.0000 0.0000 31.8681 0.0000
# 6 0.0000 0.0000 0.0000 0.0000 0.0000 15.7780
#
#
#
# Elastic Compliance Matrix: (Units=1/GPa)
#
#
# Indices 1 2 3 4 5 6 
#
# 1 0.008673 -0.000314 -0.003373 0.000000 0.000000 0.000000
# 2 -0.000314 0.010476 -0.013260 0.000000 0.000000 0.000000
# 3 -0.003373 -0.013260 0.042258 0.000000 0.000000 0.000000
# 4 0.000000 0.000000 0.000000 0.037951 0.000000 0.000000
# 5 0.000000 0.000000 0.000000 0.000000 0.031379 0.000000
# 6 0.000000 0.000000 0.000000 0.000000 0.000000 0.063379
#
#
# Mechanical properties :
#
#
# Convention : Reuss Voigt Hill
#
# Bulk Modulus (GPa) = 36.34707 58.55078 47.44892
# Shear Modulus (GPa) = 21.08089 30.18407 25.63248
#
# Velocity S-wave (km/s) = 3.15153 3.77108 3.47514
# Velocity P-wave (km/s) = 5.51067 6.82255 6.20140
#
# Compressibility (1/GPa) = 0.02751254
#
# Stress axis : x y z
#
# Youngs Moduli (GPa) = 115.30182 95.45443 23.66436
#
# Poissons Ratio (x) = 0.02997 0.07983
# Poissons Ratio (y) = 0.03620 0.31379
# Poissons Ratio (z) = 0.38895 1.26571
#
# Static dielectric constant tensor:
#      x y z
#    x 1.786850 0.000000 0.000000 
#    y 0.000000 1.818650 0.000000 
#    z 0.000000 0.000000 1.788660 
# 
# From -- ./inp_files/58622.got.cif
#   From: 2010.05.17/outbox.cif.g08.bks.cpg/sg74_30_cif.got.tgz:58622.got - 2010.06.03 17:57:02.
