data_PCOD9536167
_publ_section_title
;
Structure prediction by ZEFSAII (Michael W. Deem and Ramdas Pophale) SiO2 
 PCOD9536167
Probable space group: I M M A
;
_chemical_formula_sum "Si O2"
_cell_formula_units_Z 72
_cell_length_a 8.803121
_cell_length_b 16.733114
_cell_length_c 28.899267
_cell_angle_alpha 90.000000
_cell_angle_beta 90.000000
_cell_angle_gamma 90.000000
_cell_volume 4256.966854
_symmetry_space_group_name_H-M "I M M A"
_symmetry_group_IT_number 74
_symmetry_cell_setting 'orthorhombic'
loop_
_space_group_symop_operation_xyz
x,y,z
-x,1/2-y,z
x,-y,-z
-x,1/2+y,-z
-x,-y,-z
x,1/2+y,-z
-x,y,z
x,1/2-y,z
1/2+x,1/2+y,1/2+z
1/2-x,-y,1/2+z
1/2+x,1/2-y,1/2-z
1/2-x,y,1/2-z
1/2-x,1/2-y,1/2-z
1/2+x,y,1/2-z
1/2-x,1/2+y,1/2+z
1/2+x,-y,1/2+z
loop_
_atom_site_type_symbol
_atom_site_label
_atom_site_fract_x
_atom_site_fract_y
_atom_site_fract_z
Si Si1 0.182725 0.426066 0.301699
Si Si2 0.182331 0.250000 0.301384
Si Si3 0.673385 0.585556 0.526413
Si Si4 0.682692 0.009732 0.613063
Si Si5 0.180794 0.659371 0.440375
O O1 0.250000 0.434185 0.250000
O O2 0.226534 0.336878 0.320541
O O3 0.249600 0.490047 0.337124
O O4 0.000000 0.431384 0.299612
O O5 0.250000 0.250000 0.250000
O O6 0.000000 0.250000 0.298846
O O7 0.668144 0.500000 0.500000
O O8 0.500000 0.615632 0.529121
O O9 0.730556 0.560680 0.577043
O O10 0.771659 0.641320 0.493431
O O11 0.500000 0.010112 0.613841
O O12 0.740198 0.093041 0.591672
O O13 0.224552 0.750000 0.428368
O O14 0.000000 0.650991 0.436061
#
# Coordination Sequence:
#
# PCOD9536167 Si02
#       5
#    16   8  16  16  16
#     4  10  19  33  53  76 104 136 171 211 253 300
#     4   8  16  30  48  70  96 128 162 200 246 292
#     4   8  16  31  49  69  96 128 164 204 247 296
#     4  10  20  34  52  75 102 135 174 211 252 302
#     4  10  20  33  51  76 103 133 170 211 256 305
#
# _framework density 16.913450999999998
#
# number of rings (size 3 to 8) (size 9 to 14) (size 15 to 20)
#    0.000    2.667    0.000    3.333    0.000    7.556 
#    2.000    0.000    0.000    0.667    0.000    0.000 
#    0.000    0.000    0.000    0.000    0.000    0.000 
#
# Total GULP energy -200477.839467 kJ/mol
# GULP energy per Si atom -5568.828874 kJ/mol
# Density = 1.687496 g / cm^3
# Si number density = 16.913451 Si / 1000 Ang^3
#
#
#
# Elastic Constant Matrix: (Units=GPa)
#
#
# Indices 1 2 3 4 5 6 
#
# 1 49.4221 43.6889 35.9054 0.0000 0.0000 0.0000
# 2 43.6889 98.2826 53.9519 0.0000 0.0000 0.0000
# 3 35.9054 53.9519 102.8129 0.0000 0.0000 0.0000
# 4 0.0000 0.0000 0.0000 21.9461 0.0000 0.0000
# 5 0.0000 0.0000 0.0000 0.0000 25.2951 0.0000
# 6 0.0000 0.0000 0.0000 0.0000 0.0000 12.1082
#
#
#
# Elastic Compliance Matrix: (Units=1/GPa)
#
#
# Indices 1 2 3 4 5 6 
#
# 1 0.035639 -0.012656 -0.005805 0.000000 0.000000 0.000000
# 2 -0.012656 0.018786 -0.005438 0.000000 0.000000 0.000000
# 3 -0.005805 -0.005438 0.014607 0.000000 0.000000 0.000000
# 4 0.000000 0.000000 0.000000 0.045566 0.000000 0.000000
# 5 0.000000 0.000000 0.000000 0.000000 0.039533 0.000000
# 6 0.000000 0.000000 0.000000 0.000000 0.000000 0.082589
#
#
# Mechanical properties :
#
#
# Convention : Reuss Voigt Hill
#
# Bulk Modulus (GPa) = 47.09381 57.51225 52.30303
# Shear Modulus (GPa) = 17.14700 19.66796 18.40748
#
# Velocity S-wave (km/s) = 3.18749 3.41377 3.30257
# Velocity P-wave (km/s) = 6.43826 7.04387 6.74786
#
# Compressibility (1/GPa) = 0.02123421
#
# Stress axis : x y z
#
# Youngs Moduli (GPa) = 28.05937 53.23173 68.45822
#
# Poissons Ratio (x) = 0.67368 0.39740
# Poissons Ratio (y) = 0.35511 0.37229
# Poissons Ratio (z) = 0.16288 0.28949
#
# Static dielectric constant tensor:
#      x y z
#    x 1.567560 0.000000 0.000000 
#    y 0.000000 1.586410 0.000000 
#    z 0.000000 0.000000 1.564620 
# 
# From -- ./inp_files/67468.got.cif
#   From: 2010.05.17/outbox.cif.g08.bks.cpg/sg74_34_cif.got.tgz:67468.got - 2010.06.03 17:57:02.
