data_PCOD9536180
_publ_section_title
;
Structure prediction by ZEFSAII (Michael W. Deem and Ramdas Pophale) SiO2 
 PCOD9536180
Probable space group: I M M A
;
_chemical_formula_sum "Si O2"
_cell_formula_units_Z 112
_cell_length_a 14.558539
_cell_length_b 13.307224
_cell_length_c 26.907553
_cell_angle_alpha 90.000000
_cell_angle_beta 90.000000
_cell_angle_gamma 90.000000
_cell_volume 5212.900866
_symmetry_space_group_name_H-M "I M M A"
_symmetry_group_IT_number 74
_symmetry_cell_setting 'orthorhombic'
loop_
_space_group_symop_operation_xyz
x,y,z
-x,1/2-y,z
x,-y,-z
-x,1/2+y,-z
-x,-y,-z
x,1/2+y,-z
-x,y,z
x,1/2-y,z
1/2+x,1/2+y,1/2+z
1/2-x,-y,1/2+z
1/2+x,1/2-y,1/2-z
1/2-x,y,1/2-z
1/2-x,1/2-y,1/2-z
1/2+x,y,1/2-z
1/2-x,1/2+y,1/2+z
1/2+x,-y,1/2+z
loop_
_atom_site_type_symbol
_atom_site_label
_atom_site_fract_x
_atom_site_fract_y
_atom_site_fract_z
Si Si1 0.893163 0.928613 0.830566
Si Si2 0.713300 0.130265 0.429377
Si Si3 0.895737 0.368874 0.386616
Si Si4 0.171334 0.634620 0.135693
Si Si5 0.105313 0.921338 0.722322
Si Si6 0.330518 0.360277 0.791609
Si Si7 0.105311 0.128330 0.973191
O O1 0.840405 0.887540 0.878075
O O2 0.854204 0.897127 0.776554
O O3 0.000000 0.900525 0.833521
O O4 0.884274 0.049749 0.834843
O O5 0.722470 0.250000 0.435773
O O6 0.816588 0.088579 0.422353
O O7 0.654430 0.094127 0.476295
O O8 0.903058 0.250000 0.395961
O O9 0.859266 0.380592 0.329960
O O10 0.000000 0.411023 0.390075
O O11 0.139473 0.750000 0.143633
O O12 0.274665 0.629726 0.156655
O O13 0.160014 0.609182 0.077762
O O14 0.000000 0.886648 0.724453
O O15 0.109583 0.041959 0.716715
O O16 0.374684 0.250000 0.789193
O O17 0.250000 0.361806 0.750000
O O18 0.100566 0.250000 0.976601
O O19 0.000000 0.092994 0.967903
#
# Coordination Sequence:
#
# PCOD9536180 Si02
#       7
#    16  16  16  16  16  16  16
#     4  11  22  33  50  78 108 143 184 218 258 318
#     4  10  21  36  55  77 105 141 177 220 269 317
#     4   9  19  36  57  80 104 134 176 224 274 325
#     4  10  20  34  53  76 106 143 178 216 260 306
#     4  10  21  35  52  76 108 141 176 226 273 315
#     4  10  19  33  53  77 105 139 181 224 261 311
#     4   9  18  34  54  77 108 142 175 214 262 317
#
# _framework density 21.485157999999998
#
# number of rings (size 3 to 8) (size 9 to 14) (size 15 to 20)
#    0.000    2.143    1.429    1.714    0.000    3.143 
#    0.000    5.714    0.000    0.857    0.000    7.000 
#    0.000    0.000    0.000    0.000    0.000    0.000 
#
# Total GULP energy -312500.099569 kJ/mol
# GULP energy per Si atom -5580.358921 kJ/mol
# Density = 2.143626 g / cm^3
# Si number density = 21.485158 Si / 1000 Ang^3
#
#
#
# Elastic Constant Matrix: (Units=GPa)
#
#
# Indices 1 2 3 4 5 6 
#
# 1 71.5748 -7.4441 54.4314 0.0000 0.0000 0.0000
# 2 -7.4441 28.5916 -3.1956 0.0000 0.0000 0.0000
# 3 54.4314 -3.1956 135.4999 0.0000 0.0000 0.0000
# 4 0.0000 0.0000 0.0000 27.3989 0.0000 0.0000
# 5 0.0000 0.0000 0.0000 0.0000 24.7201 0.0000
# 6 0.0000 0.0000 0.0000 0.0000 0.0000 20.7407
#
#
#
# Elastic Compliance Matrix: (Units=1/GPa)
#
#
# Indices 1 2 3 4 5 6 
#
# 1 0.020670 0.004465 -0.008198 0.000000 0.000000 0.000000
# 2 0.004465 0.036032 -0.000944 0.000000 0.000000 0.000000
# 3 -0.008198 -0.000944 0.010651 0.000000 0.000000 0.000000
# 4 0.000000 0.000000 0.000000 0.036498 0.000000 0.000000
# 5 0.000000 0.000000 0.000000 0.000000 0.040453 0.000000
# 6 0.000000 0.000000 0.000000 0.000000 0.000000 0.048214
#
#
# Mechanical properties :
#
#
# Convention : Reuss Voigt Hill
#
# Bulk Modulus (GPa) = 17.24127 35.91664 26.57896
# Shear Modulus (GPa) = 22.60339 27.36359 24.98349
#
# Velocity S-wave (km/s) = 3.24705 3.57263 3.41372
# Velocity P-wave (km/s) = 4.70105 5.81132 5.28542
#
# Compressibility (1/GPa) = 0.05800036
#
# Stress axis : x y z
#
# Youngs Moduli (GPa) = 48.37844 27.75283 93.88731
#
# Poissons Ratio (x) = -0.12393 0.76970
# Poissons Ratio (y) = -0.21603 0.08863
# Poissons Ratio (z) = 0.39661 0.02620
#
# Static dielectric constant tensor:
#      x y z
#    x 1.784980 0.000000 0.000000 
#    y 0.000000 1.835330 0.000000 
#    z 0.000000 0.000000 1.785760 
# 
# From -- ./inp_files/60105.got.cif
#   From: 2010.05.17/outbox.cif.g08.bks.cpg/sg74_31_cif.got.tgz:60105.got - 2010.06.03 17:57:02.
