data_PCOD9536243
_publ_section_title
;
Structure prediction by ZEFSAII (Michael W. Deem and Ramdas Pophale) SiO2 
 PCOD9536243
Probable space group: I M M A
;
_chemical_formula_sum "Si O2"
_cell_formula_units_Z 104
_cell_length_a 19.467149
_cell_length_b 16.016486
_cell_length_c 19.027715
_cell_angle_alpha 90.000000
_cell_angle_beta 90.000000
_cell_angle_gamma 90.000000
_cell_volume 5932.752476
_symmetry_space_group_name_H-M "I M M A"
_symmetry_group_IT_number 74
_symmetry_cell_setting 'orthorhombic'
loop_
_space_group_symop_operation_xyz
x,y,z
-x,1/2-y,z
x,-y,-z
-x,1/2+y,-z
-x,-y,-z
x,1/2+y,-z
-x,y,z
x,1/2-y,z
1/2+x,1/2+y,1/2+z
1/2-x,-y,1/2+z
1/2+x,1/2-y,1/2-z
1/2-x,y,1/2-z
1/2-x,1/2-y,1/2-z
1/2+x,y,1/2-z
1/2-x,1/2+y,1/2+z
1/2+x,-y,1/2+z
loop_
_atom_site_type_symbol
_atom_site_label
_atom_site_fract_x
_atom_site_fract_y
_atom_site_fract_z
Si Si1 0.076983 0.750000 0.795325
Si Si2 0.176069 0.151669 0.974185
Si Si3 0.579578 0.151226 0.661437
Si Si4 0.671727 0.594786 0.868266
Si Si5 0.576578 0.250000 0.127943
Si Si6 0.828498 0.618065 0.866717
Si Si7 0.328718 0.526546 0.263529
Si Si8 0.721685 0.500000 0.000000
O O1 0.071947 0.750000 0.712252
O O2 0.121533 0.827935 0.819627
O O3 0.000000 0.750000 0.825285
O O4 0.199071 0.250000 0.971227
O O5 0.120833 0.140381 0.912208
O O6 0.149379 0.135070 0.053450
O O7 0.233532 0.078854 0.971446
O O8 0.500000 0.124681 0.654832
O O9 0.580902 0.250000 0.676418
O O10 0.618675 0.100983 0.722826
O O11 0.618279 0.666255 0.887520
O O12 0.747204 0.637771 0.858495
O O13 0.655715 0.538954 0.799440
O O14 0.679923 0.534066 0.934333
O O15 0.500000 0.250000 0.097861
O O16 0.831615 0.525090 0.836529
O O17 0.250000 0.554571 0.250000
#
# Coordination Sequence:
#
# PCOD9536243 Si02
#       8
#     8  16  16  16   8  16  16   8
#     4  11  21  31  47  85 127 154 185 220 267 345
#     4  10  19  34  55  80 122 157 189 241 273 328
#     4  10  22  38  55  78 115 163 201 232 279 336
#     4  10  21  37  62  83 114 143 185 247 293 342
#     4  11  23  37  57  85 115 148 185 230 297 365
#     4  10  19  33  54  87 116 150 194 228 278 336
#     4  10  20  35  57  82 110 147 191 249 287 331
#     4  10  22  38  60  94 112 138 196 244 296 350
#
# _framework density 17.529806000000001
#
# number of rings (size 3 to 8) (size 9 to 14) (size 15 to 20)
#    0.000    1.846    2.308    3.231    3.231    2.769 
#    0.000    3.846    0.000    0.000    0.000    0.000 
#    0.000    0.000    0.000    0.000    0.000    0.000 
#
# Total GULP energy -289690.669254 kJ/mol
# GULP energy per Si atom -5570.974409 kJ/mol
# Density = 1.748991 g / cm^3
# Si number density = 17.529806 Si / 1000 Ang^3
#
#
#
# Elastic Constant Matrix: (Units=GPa)
#
#
# Indices 1 2 3 4 5 6 
#
# 1 89.2211 67.7985 35.3208 0.0000 0.0000 0.0000
# 2 67.7985 103.5959 55.3962 0.0000 0.0000 0.0000
# 3 35.3208 55.3962 77.1839 0.0000 0.0000 0.0000
# 4 0.0000 0.0000 0.0000 27.1969 0.0000 0.0000
# 5 0.0000 0.0000 0.0000 0.0000 15.1334 0.0000
# 6 0.0000 0.0000 0.0000 0.0000 0.0000 -6.0154
#
#
#
# Elastic Compliance Matrix: (Units=1/GPa)
#
#
# Indices 1 2 3 4 5 6 
#
# 1 0.022305 -0.014832 0.000438 0.000000 0.000000 0.000000
# 2 -0.014832 0.025527 -0.011534 0.000000 0.000000 0.000000
# 3 0.000438 -0.011534 0.021034 0.000000 0.000000 0.000000
# 4 0.000000 0.000000 0.000000 0.036769 0.000000 0.000000
# 5 0.000000 0.000000 0.000000 0.000000 0.066079 0.000000
# 6 0.000000 0.000000 0.000000 0.000000 0.000000 -0.166240
#
#
# Mechanical properties :
#
#
# Convention : Reuss Voigt Hill
#
# Bulk Modulus (GPa) = 58.78803 65.22576 62.00690
# Shear Modulus (GPa) = 79.36399 14.69535 47.02967
#
# Velocity S-wave (km/s) = 6.73588 2.89849 5.18523
# Velocity P-wave (km/s) = 9.70077 6.96354 8.44381
#
# Compressibility (1/GPa) = 0.01701026
#
# Stress axis : x y z
#
# Youngs Moduli (GPa) = 44.83205 39.17388 47.54231
#
# Poissons Ratio (x) = 0.58102 -0.02081
# Poissons Ratio (y) = 0.66494 0.54835
# Poissons Ratio (z) = -0.01962 0.45183
#
# Static dielectric constant tensor:
#      x y z
#    x 1.607210 0.000000 0.000000 
#    y 0.000000 1.600090 0.000000 
#    z 0.000000 0.000000 1.609640 
# 
# From -- ./inp_files/53124.got.cif
#   From: 2010.05.17/outbox.cif.g08.bks.cpg/sg74_27_cif.got.tgz:53124.got - 2010.06.03 17:57:02.
