data_PCOD9536397
_publ_section_title
;
Structure prediction by ZEFSAII (Michael W. Deem and Ramdas Pophale) SiO2 
 PCOD9536397
Probable space group: I M M A
;
_chemical_formula_sum "Si O2"
_cell_formula_units_Z 72
_cell_length_a 16.916969
_cell_length_b 8.885667
_cell_length_c 28.400921
_cell_angle_alpha 90.000000
_cell_angle_beta 90.000000
_cell_angle_gamma 90.000000
_cell_volume 4269.185354
_symmetry_space_group_name_H-M "I M M A"
_symmetry_group_IT_number 74
_symmetry_cell_setting 'orthorhombic'
loop_
_space_group_symop_operation_xyz
x,y,z
-x,1/2-y,z
x,-y,-z
-x,1/2+y,-z
-x,-y,-z
x,1/2+y,-z
-x,y,z
x,1/2-y,z
1/2+x,1/2+y,1/2+z
1/2-x,-y,1/2+z
1/2+x,1/2-y,1/2-z
1/2-x,y,1/2-z
1/2-x,1/2-y,1/2-z
1/2+x,y,1/2-z
1/2-x,1/2+y,1/2+z
1/2+x,-y,1/2+z
loop_
_atom_site_type_symbol
_atom_site_label
_atom_site_fract_x
_atom_site_fract_y
_atom_site_fract_z
Si Si1 0.910419 0.431678 0.189631
Si Si2 0.829198 0.420888 0.282142
Si Si3 0.261672 0.428223 0.636809
Si Si4 0.325961 0.430844 0.052301
Si Si5 0.500000 0.569607 0.948015
O O1 0.900156 0.250000 0.186985
O O2 0.894505 0.471682 0.244547
O O3 0.843784 0.508248 0.157786
O O4 0.000000 0.469105 0.176236
O O5 0.846183 0.250000 0.298498
O O6 0.750000 0.414331 0.250000
O O7 0.806049 0.523927 0.325658
O O8 0.265609 0.250000 0.632566
O O9 0.238540 0.503652 0.587597
O O10 0.320413 0.250000 0.049740
O O11 0.414117 0.472144 0.072088
O O12 0.319088 0.500000 0.000000
O O13 0.500000 0.750000 0.951592
O O14 0.500000 0.500000 0.000000
#
# Coordination Sequence:
#
# PCOD9536397 Si02
#       5
#    16  16  16  16   8
#     4   9  18  34  55  76  99 132 173 215 258 303
#     4   8  15  30  50  70  95 127 165 207 249 295
#     4  11  21  32  49  75 106 139 171 206 251 303
#     4  10  19  34  54  76 102 133 171 212 254 301
#     4   8  16  30  50  72  94 124 160 202 248 292
#
# _framework density 16.865044000000001
#
# number of rings (size 3 to 8) (size 9 to 14) (size 15 to 20)
#    0.000    2.667    0.000    4.000    0.000    5.333 
#    2.000    0.000    0.000    0.667    0.000    0.000 
#    0.000    0.000    0.000    0.000    0.000    0.000 
#
# Total GULP energy -200505.617469 kJ/mol
# GULP energy per Si atom -5569.600485 kJ/mol
# Density = 1.682666 g / cm^3
# Si number density = 16.865044 Si / 1000 Ang^3
#
#
#
# Elastic Constant Matrix: (Units=GPa)
#
#
# Indices 1 2 3 4 5 6 
#
# 1 104.2389 48.1171 54.9551 0.0000 0.0000 0.0000
# 2 48.1171 74.8900 50.7042 0.0000 0.0000 0.0000
# 3 54.9551 50.7042 86.9876 0.0000 0.0000 0.0000
# 4 0.0000 0.0000 0.0000 25.7569 0.0000 0.0000
# 5 0.0000 0.0000 0.0000 0.0000 23.3987 0.0000
# 6 0.0000 0.0000 0.0000 0.0000 0.0000 7.5300
#
#
#
# Elastic Compliance Matrix: (Units=1/GPa)
#
#
# Indices 1 2 3 4 5 6 
#
# 1 0.015671 -0.005560 -0.006659 0.000000 0.000000 0.000000
# 2 -0.005560 0.024031 -0.010495 0.000000 0.000000 0.000000
# 3 -0.006659 -0.010495 0.021820 0.000000 0.000000 0.000000
# 4 0.000000 0.000000 0.000000 0.038824 0.000000 0.000000
# 5 0.000000 0.000000 0.000000 0.000000 0.042737 0.000000
# 6 0.000000 0.000000 0.000000 0.000000 0.000000 0.132802
#
#
# Mechanical properties :
#
#
# Convention : Reuss Voigt Hill
#
# Bulk Modulus (GPa) = 62.13582 63.74104 62.93843
# Shear Modulus (GPa) = 15.30561 18.82647 17.06604
#
# Velocity S-wave (km/s) = 3.01580 3.34473 3.18452
# Velocity P-wave (km/s) = 7.00355 7.26589 7.13592
#
# Compressibility (1/GPa) = 0.01609378
#
# Stress axis : x y z
#
# Youngs Moduli (GPa) = 63.81403 41.61375 45.82903
#
# Poissons Ratio (x) = 0.23136 0.30519
# Poissons Ratio (y) = 0.35479 0.48096
# Poissons Ratio (z) = 0.42496 0.43673
#
# Static dielectric constant tensor:
#      x y z
#    x 1.597720 0.000000 0.000000 
#    y 0.000000 1.560230 0.000000 
#    z 0.000000 0.000000 1.560370 
# 
# From -- ./inp_files/72273.got.cif
#   From: 2010.05.17/outbox.cif.g08.bks.cpg/sg74_37_cif.got.tgz:72273.got - 2010.06.03 17:57:02.
