data_PCOD9536253
_publ_section_title
;
Structure prediction by ZEFSAII (Michael W. Deem and Ramdas Pophale) SiO2 
 PCOD9536253
Probable space group: I M M A
;
_chemical_formula_sum "Si O2"
_cell_formula_units_Z 64
_cell_length_a 8.488265
_cell_length_b 14.141418
_cell_length_c 19.942358
_cell_angle_alpha 90.000000
_cell_angle_beta 90.000000
_cell_angle_gamma 90.000000
_cell_volume 2393.802948
_symmetry_space_group_name_H-M "I M M A"
_symmetry_group_IT_number 74
_symmetry_cell_setting 'orthorhombic'
loop_
_space_group_symop_operation_xyz
x,y,z
-x,1/2-y,z
x,-y,-z
-x,1/2+y,-z
-x,-y,-z
x,1/2+y,-z
-x,y,z
x,1/2-y,z
1/2+x,1/2+y,1/2+z
1/2-x,-y,1/2+z
1/2+x,1/2-y,1/2-z
1/2-x,y,1/2-z
1/2-x,1/2-y,1/2-z
1/2+x,y,1/2-z
1/2-x,1/2+y,1/2+z
1/2+x,-y,1/2+z
loop_
_atom_site_type_symbol
_atom_site_label
_atom_site_fract_x
_atom_site_fract_y
_atom_site_fract_z
Si Si1 0.809212 0.858288 0.827371
Si Si2 0.821647 0.940173 0.346436
Si Si3 0.166050 0.888522 0.495625
Si Si4 0.500000 0.145179 0.516833
Si Si5 0.500000 0.863667 0.334878
O O1 0.774091 0.750000 0.850343
O O2 0.750000 0.861662 0.750000
O O3 0.000000 0.871415 0.829824
O O4 0.716571 0.948210 0.858720
O O5 0.825482 0.875916 0.414739
O O6 0.665964 0.902872 0.309429
O O7 0.000000 0.934170 0.319895
O O8 0.338286 0.863894 0.522330
O O9 0.000000 0.849667 0.520854
O O10 0.156911 0.000000 0.500000
O O11 0.500000 0.250000 0.542951
O O12 0.500000 0.090874 0.587432
O O13 0.500000 0.750000 0.326256
#
# Coordination Sequence:
#
# PCOD9536253 Si02
#       5
#    16  16  16   8   8
#     4  10  20  35  56  83 112 142 179 222 269 326
#     4  10  19  33  55  80 105 142 182 220 272 324
#     4   9  18  32  50  71 100 137 175 215 261 317
#     4   9  17  29  47  70  95 127 169 217 259 303
#     4   9  18  33  52  76 106 135 174 223 263 309
#
# _framework density 26.735700999999999
#
# number of rings (size 3 to 8) (size 9 to 14) (size 15 to 20)
#    0.000    2.500    1.250    1.125    0.000    2.500 
#    0.000    6.250    0.000    5.250    0.000    0.000 
#    0.000    0.000    0.000    0.000    0.000    0.000 
#
# Total GULP energy -178469.305136 kJ/mol
# GULP energy per Si atom -5577.165786 kJ/mol
# Density = 2.667485 g / cm^3
# Si number density = 26.735701 Si / 1000 Ang^3
#
#
#
# Elastic Constant Matrix: (Units=GPa)
#
#
# Indices 1 2 3 4 5 6 
#
# 1 348.2380 62.2261 39.6835 0.0000 0.0000 0.0000
# 2 62.2261 136.4899 2.8851 0.0000 0.0000 0.0000
# 3 39.6835 2.8851 69.6472 0.0000 0.0000 0.0000
# 4 0.0000 0.0000 0.0000 20.3584 0.0000 0.0000
# 5 0.0000 0.0000 0.0000 0.0000 -28.0402 0.0000
# 6 0.0000 0.0000 0.0000 0.0000 0.0000 298.7643
#
#
#
# Elastic Compliance Matrix: (Units=1/GPa)
#
#
# Indices 1 2 3 4 5 6 
#
# 1 0.003348 -0.001487 -0.001846 0.000000 0.000000 0.000000
# 2 -0.001487 0.007994 0.000516 0.000000 0.000000 0.000000
# 3 -0.001846 0.000516 0.015388 0.000000 0.000000 0.000000
# 4 0.000000 0.000000 0.000000 0.049120 0.000000 0.000000
# 5 0.000000 0.000000 0.000000 0.000000 -0.035663 0.000000
# 6 0.000000 0.000000 0.000000 0.000000 0.000000 0.003347
#
#
# Mechanical properties :
#
#
# Convention : Reuss Voigt Hill
#
# Bulk Modulus (GPa) = 47.40198 84.88494 66.14346
# Shear Modulus (GPa) = 88.96901 88.18851 88.57876
#
# Velocity S-wave (km/s) = 5.77490 5.74951 5.76222
# Velocity P-wave (km/s) = 7.88887 8.71174 8.31050
#
# Compressibility (1/GPa) = 0.02109617
#
# Stress axis : x y z
#
# Youngs Moduli (GPa) = 298.71375 125.09918 64.98395
#
# Poissons Ratio (x) = 0.18605 0.11995
# Poissons Ratio (y) = 0.44425 -0.03355
# Poissons Ratio (z) = 0.55138 -0.06458
#
# Static dielectric constant tensor:
#      x y z
#    x 2.144600 0.000000 0.000000 
#    y 0.000000 2.003240 0.000000 
#    z 0.000000 0.000000 2.264880 
# 
# From -- ./inp_files/56453.got.cif
#   From: 2010.05.17/outbox.cif.g08.bks.cpg/sg74_29_cif.got.tgz:56453.got - 2010.06.03 17:57:02.
