data_PCOD9536857
_publ_section_title
;
Structure prediction by ZEFSAII (Michael W. Deem and Ramdas Pophale) SiO2 
 PCOD9536857
Probable space group: I M M A
;
_chemical_formula_sum "Si O2"
_cell_formula_units_Z 96
_cell_length_a 13.339133
_cell_length_b 15.979838
_cell_length_c 19.611663
_cell_angle_alpha 90.000000
_cell_angle_beta 90.000000
_cell_angle_gamma 90.000000
_cell_volume 4180.366866
_symmetry_space_group_name_H-M "I M M A"
_symmetry_group_IT_number 74
_symmetry_cell_setting 'orthorhombic'
loop_
_space_group_symop_operation_xyz
x,y,z
-x,1/2-y,z
x,-y,-z
-x,1/2+y,-z
-x,-y,-z
x,1/2+y,-z
-x,y,z
x,1/2-y,z
1/2+x,1/2+y,1/2+z
1/2-x,-y,1/2+z
1/2+x,1/2-y,1/2-z
1/2-x,y,1/2-z
1/2-x,1/2-y,1/2-z
1/2+x,y,1/2-z
1/2-x,1/2+y,1/2+z
1/2+x,-y,1/2+z
loop_
_atom_site_type_symbol
_atom_site_label
_atom_site_fract_x
_atom_site_fract_y
_atom_site_fract_z
Si Si1 0.682777 0.344825 0.354296
Si Si2 0.883740 0.250000 0.661235
Si Si3 0.756272 0.906237 0.989726
Si Si4 0.614531 0.750000 0.997988
Si Si5 0.379780 0.583611 0.231171
Si Si6 0.119284 0.650996 0.120980
Si Si7 0.385013 0.602570 0.791222
O O1 0.654036 0.250000 0.371785
O O2 0.676524 0.401251 0.421460
O O3 0.621038 0.375482 0.288970
O O4 0.798772 0.346110 0.328746
O O5 0.884309 0.250000 0.580404
O O6 0.841092 0.164100 0.690420
O O7 0.000000 0.250000 0.685074
O O8 0.672699 0.834624 0.978737
O O9 0.818843 0.879637 0.056099
O O10 0.716207 0.000000 0.000000
O O11 0.500000 0.750000 0.974145
O O12 0.500000 0.581765 0.223903
O O13 0.360067 0.598113 0.310767
O O14 0.349410 0.493848 0.202858
O O15 0.140130 0.750000 0.133754
O O16 0.000000 0.644499 0.107568
O O17 0.500000 0.613374 0.814601
#
# Coordination Sequence:
#
# PCOD9536857 Si02
#       7
#    16   8  16   8  16  16  16
#     4  11  24  44  62  88 126 157 206 266 311 370
#     4   9  18  35  61  90 127 163 200 256 304 360
#     4  12  26  45  66  93 132 171 217 267 317 382
#     4  11  26  47  66  91 129 171 221 267 317 376
#     4   9  17  34  61  96 130 160 200 252 309 374
#     4  10  19  37  65  97 134 172 205 249 322 396
#     4  10  22  39  65  94 121 159 208 259 316 371
#
# _framework density 22.964490999999999
#
# number of rings (size 3 to 8) (size 9 to 14) (size 15 to 20)
#    0.000    1.667    2.500    2.000    2.333    3.333 
#    0.000    0.833    0.000    0.000    0.000    0.000 
#    0.000    0.000    0.000    0.000    0.000    0.000 
#
# Total GULP energy -268585.190074 kJ/mol
# GULP energy per Si atom -5595.524793 kJ/mol
# Density = 2.291222 g / cm^3
# Si number density = 22.964491 Si / 1000 Ang^3
#
#
#
# Elastic Constant Matrix: (Units=GPa)
#
#
# Indices 1 2 3 4 5 6 
#
# 1 81.3653 16.0250 -29.1202 0.0000 0.0000 0.0000
# 2 16.0250 136.4887 10.5857 0.0000 0.0000 0.0000
# 3 -29.1202 10.5857 59.8172 0.0000 0.0000 0.0000
# 4 0.0000 0.0000 0.0000 18.4971 0.0000 0.0000
# 5 0.0000 0.0000 0.0000 0.0000 17.5429 0.0000
# 6 0.0000 0.0000 0.0000 0.0000 0.0000 7.1443
#
#
#
# Elastic Compliance Matrix: (Units=1/GPa)
#
#
# Indices 1 2 3 4 5 6 
#
# 1 0.015660 -0.002464 0.008060 0.000000 0.000000 0.000000
# 2 -0.002464 0.007816 -0.002583 0.000000 0.000000 0.000000
# 3 0.008060 -0.002583 0.021098 0.000000 0.000000 0.000000
# 4 0.000000 0.000000 0.000000 0.054062 0.000000 0.000000
# 5 0.000000 0.000000 0.000000 0.000000 0.057003 0.000000
# 6 0.000000 0.000000 0.000000 0.000000 0.000000 0.139971
#
#
# Mechanical properties :
#
#
# Convention : Reuss Voigt Hill
#
# Bulk Modulus (GPa) = 19.76249 30.29470 25.02859
# Shear Modulus (GPa) = 16.31579 27.31558 21.81568
#
# Velocity S-wave (km/s) = 2.66837 3.45261 3.08551
# Velocity P-wave (km/s) = 4.25652 5.39580 4.85966
#
# Compressibility (1/GPa) = 0.05060092
#
# Stress axis : x y z
#
# Youngs Moduli (GPa) = 63.85708 127.93982 47.39739
#
# Poissons Ratio (x) = 0.31521 -0.38200
# Poissons Ratio (y) = 0.15733 0.12241
# Poissons Ratio (z) = -0.51466 0.33042
#
# Static dielectric constant tensor:
#      x y z
#    x 1.889250 0.000000 0.000000 
#    y 0.000000 1.852220 0.000000 
#    z 0.000000 0.000000 1.817210 
# 
# From -- ./inp_files/51935.got.cif
#   From: 2010.05.17/outbox.cif.g08.bks.cpg/sg74_26_cif.got.tgz:51935.got - 2010.06.03 17:57:02.
