data_PCOD9536800
_publ_section_title
;
Structure prediction by ZEFSAII (Michael W. Deem and Ramdas Pophale) SiO2 
 PCOD9536800
Probable space group: I M M A
;
_chemical_formula_sum "Si O2"
_cell_formula_units_Z 120
_cell_length_a 25.362222
_cell_length_b 7.507037
_cell_length_c 28.328825
_cell_angle_alpha 90.000000
_cell_angle_beta 90.000000
_cell_angle_gamma 90.000000
_cell_volume 5393.670572
_symmetry_space_group_name_H-M "I M M A"
_symmetry_group_IT_number 74
_symmetry_cell_setting 'orthorhombic'
loop_
_space_group_symop_operation_xyz
x,y,z
-x,1/2-y,z
x,-y,-z
-x,1/2+y,-z
-x,-y,-z
x,1/2+y,-z
-x,y,z
x,1/2-y,z
1/2+x,1/2+y,1/2+z
1/2-x,-y,1/2+z
1/2+x,1/2-y,1/2-z
1/2-x,y,1/2-z
1/2-x,1/2-y,1/2-z
1/2+x,y,1/2-z
1/2-x,1/2+y,1/2+z
1/2+x,-y,1/2+z
loop_
_atom_site_type_symbol
_atom_site_label
_atom_site_fract_x
_atom_site_fract_y
_atom_site_fract_z
Si Si1 0.064011 0.953466 0.446095
Si Si2 0.593000 0.961561 0.552358
Si Si3 0.763764 0.544586 0.349676
Si Si4 0.714472 0.038557 0.447443
Si Si5 0.160244 0.035263 0.798594
Si Si6 0.915247 0.250000 0.367199
Si Si7 0.943702 0.043884 0.847828
Si Si8 0.871411 0.962007 0.309615
O O1 0.080002 0.750000 0.435534
O O2 0.000000 0.963753 0.444019
O O3 0.079112 0.000000 0.500000
O O4 0.084810 0.094122 0.408638
O O5 0.593517 0.750000 0.558726
O O6 0.653822 0.028100 0.554530
O O7 0.572648 0.000000 0.500000
O O8 0.561617 0.040661 0.595753
O O9 0.769716 0.750000 0.334288
O O10 0.746872 0.537812 0.403994
O O11 0.715762 0.466150 0.318825
O O12 0.821503 0.468703 0.340922
O O13 0.713384 0.250000 0.441033
O O14 0.734822 0.000000 0.500000
O O15 0.162831 0.250000 0.806543
O O16 0.110083 0.964380 0.827488
O O17 0.148459 0.008602 0.743818
O O18 0.917138 0.408526 0.326279
O O19 0.944390 0.250000 0.832104
O O20 0.000000 0.963478 0.834140
O O21 0.882170 0.750000 0.315349
#
# Coordination Sequence:
#
# PCOD9536800 Si02
#       8
#    16  16  16  16  16   8  16  16
#     4  10  20  39  72 108 136 170 221 272 318 383
#     4  10  20  34  53  80 110 148 187 239 302 374
#     4  10  19  36  64  87 113 158 216 274 323 379
#     4  10  20  33  54  82 115 150 196 247 311 377
#     4   9  18  38  63  85 114 159 210 274 330 377
#     4  12  23  40  63  98 142 180 201 262 332 386
#     4  10  20  35  57  84 112 148 194 246 317 393
#     4  10  23  41  61  90 129 172 226 271 323 387
#
# _framework density 22.248298999999999
#
# number of rings (size 3 to 8) (size 9 to 14) (size 15 to 20)
#    0.000    2.000    2.000    1.800    0.933    3.200 
#    2.400    2.667    2.933    3.200    0.000    0.000 
#    0.000    0.000    0.000    0.000    0.000    0.000 
#
# Total GULP energy -334049.395776 kJ/mol
# GULP energy per Si atom -5567.489930 kJ/mol
# Density = 2.219766 g / cm^3
# Si number density = 22.248299 Si / 1000 Ang^3
#
#
#
# Elastic Constant Matrix: (Units=GPa)
#
#
# Indices 1 2 3 4 5 6 
#
# 1 29.1318 4.4982 5.8896 0.0000 0.0000 0.0000
# 2 4.4982 122.0199 19.4319 0.0000 0.0000 0.0000
# 3 5.8896 19.4319 81.7294 0.0000 0.0000 0.0000
# 4 0.0000 0.0000 0.0000 25.8503 0.0000 0.0000
# 5 0.0000 0.0000 0.0000 0.0000 -65.1325 0.0000
# 6 0.0000 0.0000 0.0000 0.0000 0.0000 -9.9609
#
#
#
# Elastic Compliance Matrix: (Units=1/GPa)
#
#
# Indices 1 2 3 4 5 6 
#
# 1 0.034934 -0.000922 -0.002298 0.000000 0.000000 0.000000
# 2 -0.000922 0.008542 -0.001965 0.000000 0.000000 0.000000
# 3 -0.002298 -0.001965 0.012868 0.000000 0.000000 0.000000
# 4 0.000000 0.000000 0.000000 0.038684 0.000000 0.000000
# 5 0.000000 0.000000 0.000000 0.000000 -0.015353 0.000000
# 6 0.000000 0.000000 0.000000 0.000000 0.000000 -0.100392
#
#
# Mechanical properties :
#
#
# Convention : Reuss Voigt Hill
#
# Bulk Modulus (GPa) = 21.75099 32.50228 27.12663
# Shear Modulus (GPa) = 1004.58430 3.68879 504.13654
#
# Velocity S-wave (km/s) = 21.27236 1.28903 15.06942
# Velocity P-wave (km/s) = 24.76184 4.10562 17.74831
#
# Compressibility (1/GPa) = 0.04597493
#
# Stress axis : x y z
#
# Youngs Moduli (GPa) = 28.62561 117.06549 77.71088
#
# Poissons Ratio (x) = 0.10791 0.17860
# Poissons Ratio (y) = 0.02639 0.15267
# Poissons Ratio (z) = 0.06579 0.22998
#
# Static dielectric constant tensor:
#      x y z
#    x 2.082350 0.000000 0.000000 
#    y 0.000000 1.825210 0.000000 
#    z 0.000000 0.000000 1.794200 
# 
# From -- ./inp_files/68986.got.cif
#   From: 2010.05.17/outbox.cif.g08.bks.cpg/sg74_35_cif.got.tgz:68986.got - 2010.06.03 17:57:02.
