data_PCOD9536961
_publ_section_title
;
Structure prediction by ZEFSAII (Michael W. Deem and Ramdas Pophale) SiO2 
 PCOD9536961
Probable space group: I M M A
;
_chemical_formula_sum "Si O2"
_cell_formula_units_Z 80
_cell_length_a 30.050840
_cell_length_b 9.395482
_cell_length_c 16.854186
_cell_angle_alpha 90.000000
_cell_angle_beta 90.000000
_cell_angle_gamma 90.000000
_cell_volume 4758.646712
_symmetry_space_group_name_H-M "I M M A"
_symmetry_group_IT_number 74
_symmetry_cell_setting 'orthorhombic'
loop_
_space_group_symop_operation_xyz
x,y,z
-x,1/2-y,z
x,-y,-z
-x,1/2+y,-z
-x,-y,-z
x,1/2+y,-z
-x,y,z
x,1/2-y,z
1/2+x,1/2+y,1/2+z
1/2-x,-y,1/2+z
1/2+x,1/2-y,1/2-z
1/2-x,y,1/2-z
1/2-x,1/2-y,1/2-z
1/2+x,y,1/2-z
1/2-x,1/2+y,1/2+z
1/2+x,-y,1/2+z
loop_
_atom_site_type_symbol
_atom_site_label
_atom_site_fract_x
_atom_site_fract_y
_atom_site_fract_z
Si Si1 0.805398 0.581949 0.076352
Si Si2 0.000000 0.918943 0.584236
Si Si3 0.282302 0.911758 0.875051
Si Si4 0.146099 0.500000 0.500000
Si Si5 0.582078 0.909271 0.137399
Si Si6 0.336665 0.415085 0.750070
O O1 0.800025 0.750000 0.060304
O O2 0.757798 0.510633 0.095698
O O3 0.833992 0.564242 0.156249
O O4 0.823766 0.500000 0.000000
O O5 0.000000 0.750000 0.573423
O O6 0.000000 0.000000 0.500000
O O7 0.955969 0.974135 0.628492
O O8 0.267478 0.750000 0.862620
O O9 0.303385 0.980936 0.796362
O O10 0.321033 0.914596 0.941802
O O11 0.113869 0.416089 0.559742
O O12 0.562907 0.750000 0.142304
O O13 0.614880 0.934192 0.211366
O O14 0.323407 0.250000 0.766595
#
# Coordination Sequence:
#
# PCOD9536961 Si02
#       6
#    16   8  16   8  16  16
#     4  11  22  36  53  74 102 137 179 226 272 315
#     4  12  24  36  54  82 113 140 171 210 255 308
#     4  11  21  32  50  75 104 140 182 224 265 311
#     4  10  20  31  50  74 110 142 184 219 258 296
#     4  10  20  36  56  76 105 141 177 212 258 313
#     4   9  21  38  54  74 103 138 176 221 269 316
#
# _framework density 16.811502000000001
#
# number of rings (size 3 to 8) (size 9 to 14) (size 15 to 20)
#    0.000    1.600    2.000    3.300    0.000    8.800 
#    0.000    0.000    0.000    0.000    0.000    0.700 
#    0.000    0.000    0.000    0.000    0.000    0.000 
#
# Total GULP energy -223336.679965 kJ/mol
# GULP energy per Si atom -5583.416999 kJ/mol
# Density = 1.677324 g / cm^3
# Si number density = 16.811502 Si / 1000 Ang^3
#
#
#
# Elastic Constant Matrix: (Units=GPa)
#
#
# Indices 1 2 3 4 5 6 
#
# 1 59.5912 43.6141 37.9503 0.0000 0.0000 0.0000
# 2 43.6141 134.8148 65.1764 0.0000 0.0000 0.0000
# 3 37.9503 65.1764 115.2797 0.0000 0.0000 0.0000
# 4 0.0000 0.0000 0.0000 18.3010 0.0000 0.0000
# 5 0.0000 0.0000 0.0000 0.0000 12.4996 0.0000
# 6 0.0000 0.0000 0.0000 0.0000 0.0000 20.8569
#
#
#
# Elastic Compliance Matrix: (Units=1/GPa)
#
#
# Indices 1 2 3 4 5 6 
#
# 1 0.023761 -0.005374 -0.004784 0.000000 0.000000 0.000000
# 2 -0.005374 0.011423 -0.004689 0.000000 0.000000 0.000000
# 3 -0.004784 -0.004689 0.012901 0.000000 0.000000 0.000000
# 4 0.000000 0.000000 0.000000 0.054642 0.000000 0.000000
# 5 0.000000 0.000000 0.000000 0.000000 0.080003 0.000000
# 6 0.000000 0.000000 0.000000 0.000000 0.000000 0.047946
#
#
# Mechanical properties :
#
#
# Convention : Reuss Voigt Hill
#
# Bulk Modulus (GPa) = 54.37636 67.01860 60.69748
# Shear Modulus (GPa) = 18.76179 21.19448 19.97813
#
# Velocity S-wave (km/s) = 3.34430 3.55450 3.45100
# Velocity P-wave (km/s) = 6.87949 7.53640 7.21542
#
# Compressibility (1/GPa) = 0.01839034
#
# Stress axis : x y z
#
# Youngs Moduli (GPa) = 42.08620 87.54107 77.51630
#
# Poissons Ratio (x) = 0.47046 0.37081
# Poissons Ratio (y) = 0.22618 0.36349
# Poissons Ratio (z) = 0.20133 0.41050
#
# Static dielectric constant tensor:
#      x y z
#    x 1.557180 0.000000 0.000000 
#    y 0.000000 1.581640 0.000000 
#    z 0.000000 0.000000 1.581200 
# 
# From -- ./inp_files/46517.got.cif
#   From: 2010.05.17/outbox.cif.g08.bks.cpg/sg74_24_cif.got.tgz:46517.got - 2010.06.03 17:57:02.
