data_PCOD9536412
_publ_section_title
;
Structure prediction by ZEFSAII (Michael W. Deem and Ramdas Pophale) SiO2 
 PCOD9536412
Probable space group: I M M A
;
_chemical_formula_sum "Si O2"
_cell_formula_units_Z 96
_cell_length_a 24.143576
_cell_length_b 8.697841
_cell_length_c 26.111511
_cell_angle_alpha 90.000000
_cell_angle_beta 90.000000
_cell_angle_gamma 90.000000
_cell_volume 5483.338590
_symmetry_space_group_name_H-M "I M M A"
_symmetry_group_IT_number 74
_symmetry_cell_setting 'orthorhombic'
loop_
_space_group_symop_operation_xyz
x,y,z
-x,1/2-y,z
x,-y,-z
-x,1/2+y,-z
-x,-y,-z
x,1/2+y,-z
-x,y,z
x,1/2-y,z
1/2+x,1/2+y,1/2+z
1/2-x,-y,1/2+z
1/2+x,1/2-y,1/2-z
1/2-x,y,1/2-z
1/2-x,1/2-y,1/2-z
1/2+x,y,1/2-z
1/2-x,1/2+y,1/2+z
1/2+x,-y,1/2+z
loop_
_atom_site_type_symbol
_atom_site_label
_atom_site_fract_x
_atom_site_fract_y
_atom_site_fract_z
Si Si1 0.381109 0.935389 0.350308
Si Si2 0.685341 0.064654 0.055776
Si Si3 0.686986 0.934022 0.555884
Si Si4 0.500000 0.437234 0.689796
Si Si5 0.000000 0.565469 0.309308
Si Si6 0.384563 0.565823 0.846235
Si Si7 0.814586 0.434964 0.747379
O O1 0.380836 0.750000 0.354999
O O2 0.443864 0.986093 0.338384
O O3 0.344656 0.975459 0.300453
O O4 0.353647 0.005535 0.400494
O O5 0.684269 0.250000 0.053580
O O6 0.749126 0.018332 0.067299
O O7 0.644351 0.014472 0.100867
O O8 0.670786 0.000000 0.000000
O O9 0.685282 0.750000 0.554164
O O10 0.673008 0.000000 0.500000
O O11 0.500000 0.250000 0.690492
O O12 0.500000 0.485302 0.749436
O O13 0.055297 0.505086 0.336250
O O14 0.000000 0.750000 0.309515
O O15 0.388938 0.750000 0.846981
O O16 0.345310 0.514660 0.799585
O O17 0.819311 0.250000 0.740827
O O18 0.750000 0.475249 0.750000
#
# Coordination Sequence:
#
# PCOD9536412 Si02
#       7
#    16  16  16   8   8  16  16
#     4  10  19  34  54  78 108 143 183 228 271 319
#     4   9  20  37  57  81 112 145 181 225 276 330
#     4  10  20  36  57  82 110 144 181 224 277 332
#     4   9  18  35  56  75 104 145 186 226 268 313
#     4  11  21  39  60  79 108 151 194 230 272 330
#     4  11  22  36  55  83 115 145 182 232 285 332
#     4  10  20  33  53  82 113 147 186 225 272 335
#
# _framework density 17.507583
#
# number of rings (size 3 to 8) (size 9 to 14) (size 15 to 20)
#    0.000    2.000    1.667    2.250    0.000    3.000 
#    0.000    1.250    0.000    0.000    0.000    0.000 
#    0.000    0.000    0.000    0.000    0.000    0.000 
#
# Total GULP energy -268020.411622 kJ/mol
# GULP energy per Si atom -5583.758575 kJ/mol
# Density = 1.746773 g / cm^3
# Si number density = 17.507583 Si / 1000 Ang^3
#
#
#
# Elastic Constant Matrix: (Units=GPa)
#
#
# Indices 1 2 3 4 5 6 
#
# 1 174.8083 47.0525 119.8009 0.0000 0.0000 0.0000
# 2 47.0525 28.8744 45.8167 0.0000 0.0000 0.0000
# 3 119.8009 45.8167 173.2495 0.0000 0.0000 0.0000
# 4 0.0000 0.0000 0.0000 31.1976 0.0000 0.0000
# 5 0.0000 0.0000 0.0000 0.0000 15.1183 0.0000
# 6 0.0000 0.0000 0.0000 0.0000 0.0000 16.5129
#
#
#
# Elastic Compliance Matrix: (Units=1/GPa)
#
#
# Indices 1 2 3 4 5 6 
#
# 1 0.012842 -0.011779 -0.005765 0.000000 0.000000 0.000000
# 2 -0.011779 0.070477 -0.010493 0.000000 0.000000 0.000000
# 3 -0.005765 -0.010493 0.012534 0.000000 0.000000 0.000000
# 4 0.000000 0.000000 0.000000 0.032054 0.000000 0.000000
# 5 0.000000 0.000000 0.000000 0.000000 0.066145 0.000000
# 6 0.000000 0.000000 0.000000 0.000000 0.000000 0.060559
#
#
# Mechanical properties :
#
#
# Convention : Reuss Voigt Hill
#
# Bulk Modulus (GPa) = 25.13924 89.14136 57.14030
# Shear Modulus (GPa) = 15.43477 23.51658 19.47568
#
# Velocity S-wave (km/s) = 2.97240 3.66898 3.33890
# Velocity P-wave (km/s) = 5.11571 8.30511 6.89730
#
# Compressibility (1/GPa) = 0.03977846
#
# Stress axis : x y z
#
# Youngs Moduli (GPa) = 77.86871 14.18902 79.78578
#
# Poissons Ratio (x) = 0.16713 0.45998
# Poissons Ratio (y) = 0.91721 0.83719
# Poissons Ratio (z) = 0.44893 0.14888
#
# Static dielectric constant tensor:
#      x y z
#    x 1.585060 0.000000 0.000000 
#    y 0.000000 1.594140 0.000000 
#    z 0.000000 0.000000 1.561960 
# 
# From -- ./inp_files/61925.got.cif
#   From: 2010.05.17/outbox.cif.g08.bks.cpg/sg74_31_cif.got.tgz:61925.got - 2010.06.03 17:57:02.
