data_PCOD9536967
_publ_section_title
;
Structure prediction by ZEFSAII (Michael W. Deem and Ramdas Pophale) SiO2 
 PCOD9536967
Probable space group: I M M A
;
_chemical_formula_sum "Si O2"
_cell_formula_units_Z 128
_cell_length_a 7.483821
_cell_length_b 25.814832
_cell_length_c 30.429478
_cell_angle_alpha 90.000000
_cell_angle_beta 90.000000
_cell_angle_gamma 90.000000
_cell_volume 5878.779848
_symmetry_space_group_name_H-M "I M M A"
_symmetry_group_IT_number 74
_symmetry_cell_setting 'orthorhombic'
loop_
_space_group_symop_operation_xyz
x,y,z
-x,1/2-y,z
x,-y,-z
-x,1/2+y,-z
-x,-y,-z
x,1/2+y,-z
-x,y,z
x,1/2-y,z
1/2+x,1/2+y,1/2+z
1/2-x,-y,1/2+z
1/2+x,1/2-y,1/2-z
1/2-x,y,1/2-z
1/2-x,1/2-y,1/2-z
1/2+x,y,1/2-z
1/2-x,1/2+y,1/2+z
1/2+x,-y,1/2+z
loop_
_atom_site_type_symbol
_atom_site_label
_atom_site_fract_x
_atom_site_fract_y
_atom_site_fract_z
Si Si1 0.713632 0.023220 0.201599
Si Si2 0.213360 0.190303 0.797550
Si Si3 0.786596 0.142014 0.298417
Si Si4 0.215599 0.189942 0.893642
Si Si5 0.781446 0.807797 0.611824
Si Si6 0.781622 0.404787 0.445476
Si Si7 0.790466 0.597203 0.455140
Si Si8 0.281463 0.992419 0.107965
O O1 0.500000 0.026189 0.197845
O O2 0.750000 0.001437 0.250000
O O3 0.782728 0.082711 0.200046
O O4 0.779269 0.993516 0.158530
O O5 0.281232 0.250000 0.795414
O O6 0.250000 0.165325 0.750000
O O7 0.275921 0.169854 0.845077
O O8 0.000000 0.192675 0.800520
O O9 0.750000 0.163463 0.250000
O O10 0.722289 0.175299 0.339403
O O11 0.000000 0.138650 0.303118
O O12 0.271815 0.250000 0.898014
O O13 0.275643 0.153212 0.932824
O O14 0.000000 0.189553 0.894127
O O15 0.722496 0.750000 0.600894
O O16 0.724371 0.852111 0.578181
O O17 0.000000 0.807589 0.611697
O O18 0.717473 0.406930 0.495650
O O19 0.730249 0.454424 0.416525
O O20 0.000000 0.404524 0.445758
O O21 0.715774 0.555598 0.420758
O O22 0.000000 0.584816 0.459613
O O23 0.500000 0.990878 0.108641
#
# Coordination Sequence:
#
# PCOD9536967 Si02
#       8
#    16  16  16  16  16  16  16  16
#     4   9  16  28  48  70  96 130 166 198 238 296
#     4   8  14  26  46  70  92 119 156 191 226 275
#     4   9  16  27  44  66  92 125 162 198 237 287
#     4   9  19  36  53  69  99 140 167 187 236 309
#     4   9  16  26  42  67  98 129 161 199 245 296
#     4   9  16  29  48  71  99 129 161 203 255 300
#     4  10  20  31  51  80 100 119 163 219 254 282
#     4   9  16  30  50  72 100 131 160 199 254 306
#
# _framework density 21.773226000000001
#
# number of rings (size 3 to 8) (size 9 to 14) (size 15 to 20)
#    0.000    3.000    1.250    1.125    0.000    3.000 
#    0.000    3.750    0.000    6.000    0.000    0.000 
#    0.000    0.000    0.000    0.000    0.000    0.000 
#
# Total GULP energy -357011.711585 kJ/mol
# GULP energy per Si atom -5578.307994 kJ/mol
# Density = 2.172367 g / cm^3
# Si number density = 21.773226 Si / 1000 Ang^3
#
#
#
# Elastic Constant Matrix: (Units=GPa)
#
#
# Indices 1 2 3 4 5 6 
#
# 1 57.9470 -1.4215 1.3416 0.0000 0.0000 0.0000
# 2 -1.4215 88.9188 79.7292 0.0000 0.0000 0.0000
# 3 1.3416 79.7292 194.9978 0.0000 0.0000 0.0000
# 4 0.0000 0.0000 0.0000 -3.5731 0.0000 0.0000
# 5 0.0000 0.0000 0.0000 0.0000 15.9378 0.0000
# 6 0.0000 0.0000 0.0000 0.0000 0.0000 -5.9698
#
#
#
# Elastic Compliance Matrix: (Units=1/GPa)
#
#
# Indices 1 2 3 4 5 6 
#
# 1 0.017280 0.000604 -0.000366 0.000000 0.000000 0.000000
# 2 0.000604 0.017777 -0.007273 0.000000 0.000000 0.000000
# 3 -0.000366 -0.007273 0.008104 0.000000 0.000000 0.000000
# 4 0.000000 0.000000 0.000000 -0.279868 0.000000 0.000000
# 5 0.000000 0.000000 0.000000 0.000000 0.062744 0.000000
# 6 0.000000 0.000000 0.000000 0.000000 0.000000 -0.167509
#
#
# Mechanical properties :
#
#
# Convention : Reuss Voigt Hill
#
# Bulk Modulus (GPa) = 34.37220 55.68469 45.02844
# Shear Modulus (GPa) = -15.73789 18.75992 1.51102
#
# Velocity S-wave (km/s) = -2.69143 2.93850 0.83396
# Velocity P-wave (km/s) = 2.48241 6.09454 4.65326
#
# Compressibility (1/GPa) = 0.02909328
#
# Stress axis : x y z
#
# Youngs Moduli (GPa) = 57.86886 56.25274 123.39021
#
# Poissons Ratio (x) = -0.03400 0.04517
# Poissons Ratio (y) = -0.03498 0.89737
# Poissons Ratio (z) = 0.02118 0.40911
#
# Static dielectric constant tensor:
#      x y z
#    x 1.859550 0.000000 0.000000 
#    y 0.000000 1.757240 0.000000 
#    z 0.000000 0.000000 1.805350 
# 
# From -- ./inp_files/59308.got.cif
#   From: 2010.05.17/outbox.cif.g08.bks.cpg/sg74_30_cif.got.tgz:59308.got - 2010.06.03 17:57:02.
