data_PCOD9536078
_publ_section_title
;
Structure prediction by ZEFSAII (Michael W. Deem and Ramdas Pophale) SiO2 
 PCOD9536078
Probable space group: I M M A
;
_chemical_formula_sum "Si O2"
_cell_formula_units_Z 104
_cell_length_a 17.946456
_cell_length_b 20.733512
_cell_length_c 15.612019
_cell_angle_alpha 90.000000
_cell_angle_beta 90.000000
_cell_angle_gamma 90.000000
_cell_volume 5809.123936
_symmetry_space_group_name_H-M "I M M A"
_symmetry_group_IT_number 74
_symmetry_cell_setting 'orthorhombic'
loop_
_space_group_symop_operation_xyz
x,y,z
-x,1/2-y,z
x,-y,-z
-x,1/2+y,-z
-x,-y,-z
x,1/2+y,-z
-x,y,z
x,1/2-y,z
1/2+x,1/2+y,1/2+z
1/2-x,-y,1/2+z
1/2+x,1/2-y,1/2-z
1/2-x,y,1/2-z
1/2-x,1/2-y,1/2-z
1/2+x,y,1/2-z
1/2-x,1/2+y,1/2+z
1/2+x,-y,1/2+z
loop_
_atom_site_type_symbol
_atom_site_label
_atom_site_fract_x
_atom_site_fract_y
_atom_site_fract_z
Si Si1 0.328218 0.500000 0.500000
Si Si2 0.586556 0.073519 0.034246
Si Si3 0.738800 0.131296 0.004313
Si Si4 0.588567 0.945604 0.334897
Si Si5 0.309068 0.323657 0.673320
Si Si6 0.412264 0.428703 0.238420
Si Si7 0.811928 0.179220 0.176311
O O1 0.275454 0.560746 0.517949
O O2 0.379378 0.522449 0.421413
O O3 0.500000 0.090767 0.016115
O O4 0.650347 0.119852 0.997342
O O5 0.598649 0.078212 0.136831
O O6 0.596593 0.000000 0.000000
O O7 0.768938 0.169212 0.086943
O O8 0.769394 0.162430 0.917510
O O9 0.500000 0.938597 0.339960
O O10 0.627557 0.877593 0.318789
O O11 0.608196 0.998140 0.262679
O O12 0.336661 0.250000 0.675038
O O13 0.250000 0.331620 0.750000
O O14 0.500000 0.420591 0.256343
O O15 0.367301 0.378107 0.296473
O O16 0.849054 0.250000 0.175568
O O17 0.750000 0.179008 0.250000
#
# Coordination Sequence:
#
# PCOD9536078 Si02
#       7
#     8  16  16  16  16  16  16
#     4  10  19  32  57  88 114 148 184 240 291 342
#     4  10  21  35  55  88 124 151 189 241 291 344
#     4  11  20  36  61  84 115 153 198 240 295 346
#     4  10  21  36  60  88 115 148 187 236 293 351
#     4  10  24  42  59  83 116 154 200 250 295 345
#     4  10  21  37  57  87 121 151 188 237 290 347
#     4  11  22  36  57  83 115 155 196 235 283 351
#
# _framework density 17.902871999999999
#
# number of rings (size 3 to 8) (size 9 to 14) (size 15 to 20)
#    0.000    1.692    3.846    0.692    2.154    1.231 
#    0.000    0.000    0.000    4.615    0.000    0.000 
#    0.000    0.000    0.000    0.000    0.000    0.000 
#
# Total GULP energy -290073.216189 kJ/mol
# GULP energy per Si atom -5578.331081 kJ/mol
# Density = 1.786212 g / cm^3
# Si number density = 17.902872 Si / 1000 Ang^3
#
#
#
# Elastic Constant Matrix: (Units=GPa)
#
#
# Indices 1 2 3 4 5 6 
#
# 1 71.1893 46.6003 18.8038 0.0000 0.0000 0.0000
# 2 46.6003 115.8028 27.5392 0.0000 0.0000 0.0000
# 3 18.8038 27.5392 68.2166 0.0000 0.0000 0.0000
# 4 0.0000 0.0000 0.0000 64.5866 0.0000 0.0000
# 5 0.0000 0.0000 0.0000 0.0000 21.2973 0.0000
# 6 0.0000 0.0000 0.0000 0.0000 0.0000 9.3496
#
#
#
# Elastic Compliance Matrix: (Units=1/GPa)
#
#
# Indices 1 2 3 4 5 6 
#
# 1 0.019429 -0.007240 -0.002433 0.000000 0.000000 0.000000
# 2 -0.007240 0.012250 -0.002950 0.000000 0.000000 0.000000
# 3 -0.002433 -0.002950 0.016521 0.000000 0.000000 0.000000
# 4 0.000000 0.000000 0.000000 0.015483 0.000000 0.000000
# 5 0.000000 0.000000 0.000000 0.000000 0.046954 0.000000
# 6 0.000000 0.000000 0.000000 0.000000 0.000000 0.106957
#
#
# Mechanical properties :
#
#
# Convention : Reuss Voigt Hill
#
# Bulk Modulus (GPa) = 43.56379 49.01061 46.28720
# Shear Modulus (GPa) = 19.96084 29.86440 24.91262
#
# Velocity S-wave (km/s) = 3.34271 4.08871 3.73439
# Velocity P-wave (km/s) = 6.26774 7.05162 6.67120
#
# Compressibility (1/GPa) = 0.02295485
#
# Stress axis : x y z
#
# Youngs Moduli (GPa) = 51.46996 81.63101 60.53037
#
# Poissons Ratio (x) = 0.59099 0.14726
# Poissons Ratio (y) = 0.37263 0.17855
# Poissons Ratio (z) = 0.12522 0.24080
#
# Static dielectric constant tensor:
#      x y z
#    x 1.599020 0.000000 0.000000 
#    y 0.000000 1.616590 0.000000 
#    z 0.000000 0.000000 1.608120 
# 
# From -- ./inp_files/34332.got.cif
#   From: 2010.05.17/outbox.cif.g08.bks.cpg/sg74_18_cif.got.tgz:34332.got - 2010.06.03 17:57:02.
