data_PCOD9536662
_publ_section_title
;
Structure prediction by ZEFSAII (Michael W. Deem and Ramdas Pophale) SiO2 
 PCOD9536662
Probable space group: I M M A
;
_chemical_formula_sum "Si O2"
_cell_formula_units_Z 96
_cell_length_a 8.866446
_cell_length_b 17.089875
_cell_length_c 30.069678
_cell_angle_alpha 90.000000
_cell_angle_beta 90.000000
_cell_angle_gamma 90.000000
_cell_volume 4556.351675
_symmetry_space_group_name_H-M "I M M A"
_symmetry_group_IT_number 74
_symmetry_cell_setting 'orthorhombic'
loop_
_space_group_symop_operation_xyz
x,y,z
-x,1/2-y,z
x,-y,-z
-x,1/2+y,-z
-x,-y,-z
x,1/2+y,-z
-x,y,z
x,1/2-y,z
1/2+x,1/2+y,1/2+z
1/2-x,-y,1/2+z
1/2+x,1/2-y,1/2-z
1/2-x,y,1/2-z
1/2-x,1/2-y,1/2-z
1/2+x,y,1/2-z
1/2-x,1/2+y,1/2+z
1/2+x,-y,1/2+z
loop_
_atom_site_type_symbol
_atom_site_label
_atom_site_fract_x
_atom_site_fract_y
_atom_site_fract_z
Si Si1 0.667374 0.157940 0.139764
Si Si2 0.680271 0.608793 0.203533
Si Si3 0.325573 0.438407 0.291830
Si Si4 0.320028 0.836564 0.485664
Si Si5 0.826217 0.055764 0.443586
Si Si6 0.317749 0.892507 0.102801
O O1 0.500000 0.132316 0.156615
O O2 0.677491 0.250000 0.143652
O O3 0.797780 0.115254 0.166253
O O4 0.676012 0.129094 0.089651
O O5 0.500000 0.616749 0.206469
O O6 0.750000 0.641658 0.250000
O O7 0.730763 0.517961 0.203075
O O8 0.727894 0.632604 0.153087
O O9 0.500000 0.456782 0.284703
O O10 0.250000 0.395828 0.250000
O O11 0.500000 0.841732 0.483929
O O12 0.279782 0.750000 0.504313
O O13 0.259684 0.910981 0.513576
O O14 0.251883 0.841355 0.436281
O O15 0.000000 0.039844 0.455623
O O16 0.774697 0.981221 0.413661
O O17 0.500000 0.889366 0.102297
#
# Coordination Sequence:
#
# PCOD9536662 Si02
#       6
#    16  16  16  16  16  16
#     4  10  20  35  54  75 105 146 189 236 286 337
#     4  10  19  35  58  87 119 148 186 235 285 342
#     4  11  21  33  51  73 104 144 187 235 286 339
#     4  11  25  41  57  84 122 156 191 239 291 343
#     4  10  20  38  61  85 113 149 194 239 284 339
#     4  10  21  38  63  90 117 150 194 240 282 340
#
# _framework density 21.069489999999998
#
# number of rings (size 3 to 8) (size 9 to 14) (size 15 to 20)
#    0.000    1.667    1.667    4.500    0.000    7.333 
#    0.000    0.000    0.000    0.500    0.000    0.000 
#    0.000    0.000    0.000    0.000    0.000    0.000 
#
# Total GULP energy -267644.516818 kJ/mol
# GULP energy per Si atom -5575.927434 kJ/mol
# Density = 2.102154 g / cm^3
# Si number density = 21.069490 Si / 1000 Ang^3
#
#
#
# Elastic Constant Matrix: (Units=GPa)
#
#
# Indices 1 2 3 4 5 6 
#
# 1 30.1318 1.5852 27.4310 0.0000 0.0000 0.0000
# 2 1.5852 31.1176 2.4697 0.0000 0.0000 0.0000
# 3 27.4310 2.4697 124.6731 0.0000 0.0000 0.0000
# 4 0.0000 0.0000 0.0000 17.6258 0.0000 0.0000
# 5 0.0000 0.0000 0.0000 0.0000 31.4085 0.0000
# 6 0.0000 0.0000 0.0000 0.0000 0.0000 14.7311
#
#
#
# Elastic Compliance Matrix: (Units=1/GPa)
#
#
# Indices 1 2 3 4 5 6 
#
# 1 0.041560 -0.001394 -0.009117 0.000000 0.000000 0.000000
# 2 -0.001394 0.032233 -0.000332 0.000000 0.000000 0.000000
# 3 -0.009117 -0.000332 0.010033 0.000000 0.000000 0.000000
# 4 0.000000 0.000000 0.000000 0.056735 0.000000 0.000000
# 5 0.000000 0.000000 0.000000 0.000000 0.031839 0.000000
# 6 0.000000 0.000000 0.000000 0.000000 0.000000 0.067884
#
#
# Mechanical properties :
#
#
# Convention : Reuss Voigt Hill
#
# Bulk Modulus (GPa) = 16.09193 27.65492 21.87343
# Shear Modulus (GPa) = 17.68764 23.04884 20.36824
#
# Velocity S-wave (km/s) = 2.90054 3.31107 3.11258
# Velocity P-wave (km/s) = 4.34415 5.26988 4.82925
#
# Compressibility (1/GPa) = 0.06214296
#
# Stress axis : x y z
#
# Youngs Moduli (GPa) = 24.06137 31.02363 99.66688
#
# Poissons Ratio (x) = 0.04324 0.90863
# Poissons Ratio (y) = 0.03353 0.03308
# Poissons Ratio (z) = 0.21936 0.01030
#
# Static dielectric constant tensor:
#      x y z
#    x 1.737750 0.000000 0.000000 
#    y 0.000000 1.763800 0.000000 
#    z 0.000000 0.000000 1.836670 
# 
# From -- ./inp_files/64284.got.cif
#   From: 2010.05.17/outbox.cif.g08.bks.cpg/sg74_33_cif.got.tgz:64284.got - 2010.06.03 17:57:02.
