data_PCOD9536354
_publ_section_title
;
Structure prediction by ZEFSAII (Michael W. Deem and Ramdas Pophale) SiO2 
 PCOD9536354
Probable space group: I M M A
;
_chemical_formula_sum "Si O2"
_cell_formula_units_Z 52
_cell_length_a 14.449234
_cell_length_b 15.770963
_cell_length_c 11.101442
_cell_angle_alpha 90.000000
_cell_angle_beta 90.000000
_cell_angle_gamma 90.000000
_cell_volume 2529.778117
_symmetry_space_group_name_H-M "I M M A"
_symmetry_group_IT_number 74
_symmetry_cell_setting 'orthorhombic'
loop_
_space_group_symop_operation_xyz
x,y,z
-x,1/2-y,z
x,-y,-z
-x,1/2+y,-z
-x,-y,-z
x,1/2+y,-z
-x,y,z
x,1/2-y,z
1/2+x,1/2+y,1/2+z
1/2-x,-y,1/2+z
1/2+x,1/2-y,1/2-z
1/2-x,y,1/2-z
1/2-x,1/2-y,1/2-z
1/2+x,y,1/2-z
1/2-x,1/2+y,1/2+z
1/2+x,-y,1/2+z
loop_
_atom_site_type_symbol
_atom_site_label
_atom_site_fract_x
_atom_site_fract_y
_atom_site_fract_z
Si Si1 0.000000 0.912822 0.569639
Si Si2 0.500000 0.750000 0.102521
Si Si3 0.359264 0.652000 0.746459
Si Si4 0.607144 0.250000 0.663099
Si Si5 0.393745 0.593037 0.480151
O O1 0.000000 0.833719 0.478043
O O2 0.912329 0.904687 0.657792
O O3 0.000000 0.000000 0.500000
O O4 0.588058 0.750000 0.194467
O O5 0.378421 0.750000 0.777433
O O6 0.250000 0.638258 0.750000
O O7 0.393243 0.634797 0.611633
O O8 0.500000 0.250000 0.613054
O O9 0.648791 0.162908 0.610628
O O10 0.350076 0.500000 0.500000
O O11 0.500000 0.577221 0.437700
#
# Coordination Sequence:
#
# PCOD9536354 Si02
#       5
#     8   4  16   8  16
#     4  12  26  41  68  94 130 177 213 265 339 398
#     4  10  22  38  56  92 132 160 210 250 330 406
#     4  11  23  41  66  94 127 170 220 273 323 387
#     4   8  18  31  54  86 115 154 192 256 303 376
#     4  10  19  33  62  90 113 151 211 261 309 361
#
# _framework density 20.555161999999999
#
# number of rings (size 3 to 8) (size 9 to 14) (size 15 to 20)
#    0.462    1.231    4.615    0.000    4.308    1.231 
#    0.000    0.000    0.000    1.846    0.000    0.000 
#    0.000    0.000    0.000    0.000    0.000    0.000 
#
# Total GULP energy -145009.748402 kJ/mol
# GULP energy per Si atom -5577.298015 kJ/mol
# Density = 2.050838 g / cm^3
# Si number density = 20.555162 Si / 1000 Ang^3
#
#
#
# Elastic Constant Matrix: (Units=GPa)
#
#
# Indices 1 2 3 4 5 6 
#
# 1 46.9993 17.5827 12.0440 0.0000 0.0000 0.0000
# 2 17.5827 93.4142 12.0483 0.0000 0.0000 0.0000
# 3 12.0440 12.0483 95.2129 0.0000 0.0000 0.0000
# 4 0.0000 0.0000 0.0000 38.8145 0.0000 0.0000
# 5 0.0000 0.0000 0.0000 0.0000 -6.5468 0.0000
# 6 0.0000 0.0000 0.0000 0.0000 0.0000 -23.0564
#
#
#
# Elastic Compliance Matrix: (Units=1/GPa)
#
#
# Indices 1 2 3 4 5 6 
#
# 1 0.023436 -0.004096 -0.002446 0.000000 0.000000 0.000000
# 2 -0.004096 0.011598 -0.000950 0.000000 0.000000 0.000000
# 3 -0.002446 -0.000950 0.010932 0.000000 0.000000 0.000000
# 4 0.000000 0.000000 0.000000 0.025764 0.000000 0.000000
# 5 0.000000 0.000000 0.000000 0.000000 -0.152748 0.000000
# 6 0.000000 0.000000 0.000000 0.000000 0.000000 -0.043372
#
#
# Mechanical properties :
#
#
# Convention : Reuss Voigt Hill
#
# Bulk Modulus (GPa) = 32.27505 35.44185 33.85845
# Shear Modulus (GPa) = -50.46523 14.77236 -17.84644
#
# Velocity S-wave (km/s) = -4.96028 2.68371 -2.94976
# Velocity P-wave (km/s) = 4.13160 5.18486 2.21502
#
# Compressibility (1/GPa) = 0.03098368
#
# Stress axis : x y z
#
# Youngs Moduli (GPa) = 42.66934 86.21893 91.47137
#
# Poissons Ratio (x) = 0.35313 0.22377
# Poissons Ratio (y) = 0.17476 0.08686
# Poissons Ratio (z) = 0.10438 0.08187
#
# Static dielectric constant tensor:
#      x y z
#    x 1.735440 0.000000 0.000000 
#    y 0.000000 1.782050 0.000000 
#    z 0.000000 0.000000 1.695970 
# 
# From -- ./inp_files/9946.got.cif
#   From: 2010.05.17/outbox.cif.g08.bks.cpg/sg74_5_cif.got.tgz:9946.got - 2010.06.03 17:57:02.
