data_PCOD9536593
_publ_section_title
;
Structure prediction by ZEFSAII (Michael W. Deem and Ramdas Pophale) SiO2 
 PCOD9536593
Probable space group: I M M A
;
_chemical_formula_sum "Si O2"
_cell_formula_units_Z 100
_cell_length_a 9.149038
_cell_length_b 20.687939
_cell_length_c 29.912798
_cell_angle_alpha 90.000000
_cell_angle_beta 90.000000
_cell_angle_gamma 90.000000
_cell_volume 5661.737066
_symmetry_space_group_name_H-M "I M M A"
_symmetry_group_IT_number 74
_symmetry_cell_setting 'orthorhombic'
loop_
_space_group_symop_operation_xyz
x,y,z
-x,1/2-y,z
x,-y,-z
-x,1/2+y,-z
-x,-y,-z
x,1/2+y,-z
-x,y,z
x,1/2-y,z
1/2+x,1/2+y,1/2+z
1/2-x,-y,1/2+z
1/2+x,1/2-y,1/2-z
1/2-x,y,1/2-z
1/2-x,1/2-y,1/2-z
1/2+x,y,1/2-z
1/2-x,1/2+y,1/2+z
1/2+x,-y,1/2+z
loop_
_atom_site_type_symbol
_atom_site_label
_atom_site_fract_x
_atom_site_fract_y
_atom_site_fract_z
Si Si1 0.829317 0.323510 0.886201
Si Si2 0.327232 0.014416 0.203903
Si Si3 0.500000 0.250000 0.486248
Si Si4 0.160650 0.618820 0.967849
Si Si5 0.173518 0.859041 0.296460
Si Si6 0.675080 0.060285 0.107225
Si Si7 0.325983 0.571662 0.052882
O O1 0.825061 0.250000 0.903177
O O2 0.757294 0.326833 0.837429
O O3 0.738308 0.371029 0.917054
O O4 0.000000 0.342949 0.884667
O O5 0.500000 0.025774 0.208389
O O6 0.250000 0.033426 0.250000
O O7 0.276619 0.049039 0.158402
O O8 0.308735 0.936860 0.198060
O O9 0.624886 0.191673 0.483668
O O10 0.243186 0.615190 0.920663
O O11 0.000000 0.587748 0.962584
O O12 0.251882 0.580559 0.004946
O O13 0.250000 0.840762 0.250000
O O14 0.000000 0.844855 0.296437
O O15 0.500000 0.069967 0.107198
O O16 0.704838 0.994446 0.079427
O O17 0.500000 0.576675 0.048203
#
# Coordination Sequence:
#
# PCOD9536593 Si02
#       7
#    16  16   4  16  16  16  16
#     4  11  24  37  51  73 105 148 197 244 286 335
#     4   9  18  33  53  81 118 146 178 231 285 336
#     4   8  24  44  56  80 126 144 188 244 282 332
#     4  10  22  39  59  80 116 150 187 229 284 337
#     4  10  19  35  54  74 102 143 188 239 292 337
#     4  10  20  37  58  87 120 147 187 238 287 338
#     4  11  22  37  57  83 115 150 192 242 289 335
#
# _framework density 17.662424000000001
#
# number of rings (size 3 to 8) (size 9 to 14) (size 15 to 20)
#    0.480    1.440    1.600    2.400    1.120    6.080 
#    0.000    1.200    0.000    0.000    0.000    0.560 
#    0.000    0.000    0.000    0.000    0.000    0.000 
#
# Total GULP energy -278469.113883 kJ/mol
# GULP energy per Si atom -5569.382278 kJ/mol
# Density = 1.762222 g / cm^3
# Si number density = 17.662424 Si / 1000 Ang^3
#
#
#
# Elastic Constant Matrix: (Units=GPa)
#
#
# Indices 1 2 3 4 5 6 
#
# 1 47.7493 13.1047 26.0347 0.0000 0.0000 0.0000
# 2 13.1047 26.9093 14.2979 0.0000 0.0000 0.0000
# 3 26.0347 14.2979 106.2022 0.0000 0.0000 0.0000
# 4 0.0000 0.0000 0.0000 21.9766 0.0000 0.0000
# 5 0.0000 0.0000 0.0000 0.0000 31.6093 0.0000
# 6 0.0000 0.0000 0.0000 0.0000 0.0000 26.0334
#
#
#
# Elastic Compliance Matrix: (Units=1/GPa)
#
#
# Indices 1 2 3 4 5 6 
#
# 1 0.026540 -0.010197 -0.005133 0.000000 0.000000 0.000000
# 2 -0.010197 0.043943 -0.003416 0.000000 0.000000 0.000000
# 3 -0.005133 -0.003416 0.011134 0.000000 0.000000 0.000000
# 4 0.000000 0.000000 0.000000 0.045503 0.000000 0.000000
# 5 0.000000 0.000000 0.000000 0.000000 0.031636 0.000000
# 6 0.000000 0.000000 0.000000 0.000000 0.000000 0.038412
#
#
# Mechanical properties :
#
#
# Convention : Reuss Voigt Hill
#
# Bulk Modulus (GPa) = 22.66348 31.97059 27.31704
# Shear Modulus (GPa) = 20.05047 24.41877 22.23462
#
# Velocity S-wave (km/s) = 3.37294 3.72227 3.55190
# Velocity P-wave (km/s) = 5.29417 6.05094 5.68516
#
# Compressibility (1/GPa) = 0.04412384
#
# Stress axis : x y z
#
# Youngs Moduli (GPa) = 37.67872 22.75670 89.81258
#
# Poissons Ratio (x) = 0.23206 0.46103
# Poissons Ratio (y) = 0.38423 0.30682
# Poissons Ratio (z) = 0.19341 0.07774
#
# Static dielectric constant tensor:
#      x y z
#    x 1.593290 0.000000 0.000000 
#    y 0.000000 1.601100 0.000000 
#    z 0.000000 0.000000 1.636350 
# 
# From -- ./inp_files/70589.got.cif
#   From: 2010.05.17/outbox.cif.g08.bks.cpg/sg74_36_cif.got.tgz:70589.got - 2010.06.03 17:57:02.
