data_PCOD9536376
_publ_section_title
;
Structure prediction by ZEFSAII (Michael W. Deem and Ramdas Pophale) SiO2 
 PCOD9536376
Probable space group: I M M A
;
_chemical_formula_sum "Si O2"
_cell_formula_units_Z 72
_cell_length_a 27.676037
_cell_length_b 26.278985
_cell_length_c 4.998305
_cell_angle_alpha 90.000000
_cell_angle_beta 90.000000
_cell_angle_gamma 90.000000
_cell_volume 3635.258036
_symmetry_space_group_name_H-M "I M M A"
_symmetry_group_IT_number 74
_symmetry_cell_setting 'orthorhombic'
loop_
_space_group_symop_operation_xyz
x,y,z
-x,1/2-y,z
x,-y,-z
-x,1/2+y,-z
-x,-y,-z
x,1/2+y,-z
-x,y,z
x,1/2-y,z
1/2+x,1/2+y,1/2+z
1/2-x,-y,1/2+z
1/2+x,1/2-y,1/2-z
1/2-x,y,1/2-z
1/2-x,1/2-y,1/2-z
1/2+x,y,1/2-z
1/2-x,1/2+y,1/2+z
1/2+x,-y,1/2+z
loop_
_atom_site_type_symbol
_atom_site_label
_atom_site_fract_x
_atom_site_fract_y
_atom_site_fract_z
Si Si1 0.657724 0.087115 0.494689
Si Si2 0.116039 0.306902 0.938628
Si Si3 0.750000 0.965900 0.250000
Si Si4 0.554698 0.835931 0.930586
Si Si5 0.903023 0.442482 0.502148
O O1 0.653719 0.148251 0.494490
O O2 0.707767 0.066796 0.611788
O O3 0.641156 0.065028 0.209156
O O4 0.617126 0.068648 0.703483
O O5 0.135457 0.250000 0.961533
O O6 0.092833 0.315846 0.648138
O O7 0.072370 0.315045 0.147250
O O8 0.768342 0.000000 0.500000
O O9 0.500000 0.821385 0.992432
O O10 0.560318 0.897298 0.929300
O O11 0.921374 0.500000 0.500000
#
# Coordination Sequence:
#
# PCOD9536376 Si02
#       5
#    16  16   8  16  16
#     4  10  21  35  52  79 106 134 175 213 253 311
#     4  10  21  37  55  74 104 141 174 216 265 305
#     4  12  22  34  57  84 109 134 168 212 258 308
#     4  10  21  34  52  80 105 133 180 223 256 307
#     4  10  19  34  53  73 107 144 170 207 262 314
#
# _framework density 19.80602
#
# number of rings (size 3 to 8) (size 9 to 14) (size 15 to 20)
#    0.000    1.778    0.000    5.333    0.000    3.111 
#    0.000    0.556    0.000    8.000    0.000   10.889 
#    0.000    0.000    0.000    0.000    0.000    0.000 
#
# Total GULP energy -201036.337730 kJ/mol
# GULP energy per Si atom -5584.342715 kJ/mol
# Density = 1.976094 g / cm^3
# Si number density = 19.806020 Si / 1000 Ang^3
#
#
#
# Elastic Constant Matrix: (Units=GPa)
#
#
# Indices 1 2 3 4 5 6 
#
# 1 50.6840 8.5745 -7.6548 0.0000 0.0000 0.0000
# 2 8.5745 146.3576 18.3706 0.0000 0.0000 0.0000
# 3 -7.6548 18.3706 72.5506 0.0000 0.0000 0.0000
# 4 0.0000 0.0000 0.0000 10.3774 0.0000 0.0000
# 5 0.0000 0.0000 0.0000 0.0000 17.2920 0.0000
# 6 0.0000 0.0000 0.0000 0.0000 0.0000 -3.0356
#
#
#
# Elastic Compliance Matrix: (Units=1/GPa)
#
#
# Indices 1 2 3 4 5 6 
#
# 1 0.020368 -0.001511 0.002532 0.000000 0.000000 0.000000
# 2 -0.001511 0.007169 -0.001975 0.000000 0.000000 0.000000
# 3 0.002532 -0.001975 0.014551 0.000000 0.000000 0.000000
# 4 0.000000 0.000000 0.000000 0.096363 0.000000 0.000000
# 5 0.000000 0.000000 0.000000 0.000000 0.057830 0.000000
# 6 0.000000 0.000000 0.000000 0.000000 0.000000 -0.329426
#
#
# Mechanical properties :
#
#
# Convention : Reuss Voigt Hill
#
# Bulk Modulus (GPa) = 24.88835 34.24144 29.56489
# Shear Modulus (GPa) = -42.42925 21.61356 -10.40785
#
# Velocity S-wave (km/s) = -4.63346 3.30701 -2.29484
# Velocity P-wave (km/s) = 4.00398 5.64869 2.81743
#
# Compressibility (1/GPa) = 0.04017945
#
# Stress axis : x y z
#
# Youngs Moduli (GPa) = 49.09643 139.49010 68.72563
#
# Poissons Ratio (x) = 0.21078 -0.17399
# Poissons Ratio (y) = 0.07419 0.13571
# Poissons Ratio (z) = -0.12429 0.27545
#
# Static dielectric constant tensor:
#      x y z
#    x 1.664730 0.000000 0.000000 
#    y 0.000000 1.748120 0.000000 
#    z 0.000000 0.000000 1.673890 
# 
# From -- ./inp_files/3807.got.cif
#   From: 2010.05.17/outbox.cif.g08.bks.cpg/sg74_2_cif.got.tgz:3807.got - 2010.06.03 17:57:02.
