data_PCOD9536706
_publ_section_title
;
Structure prediction by ZEFSAII (Michael W. Deem and Ramdas Pophale) SiO2 
 PCOD9536706
Probable space group: I M M A
;
_chemical_formula_sum "Si O2"
_cell_formula_units_Z 88
_cell_length_a 28.177242
_cell_length_b 23.801854
_cell_length_c 7.070269
_cell_angle_alpha 90.000000
_cell_angle_beta 90.000000
_cell_angle_gamma 90.000000
_cell_volume 4741.821554
_symmetry_space_group_name_H-M "I M M A"
_symmetry_group_IT_number 74
_symmetry_cell_setting 'orthorhombic'
loop_
_space_group_symop_operation_xyz
x,y,z
-x,1/2-y,z
x,-y,-z
-x,1/2+y,-z
-x,-y,-z
x,1/2+y,-z
-x,y,z
x,1/2-y,z
1/2+x,1/2+y,1/2+z
1/2-x,-y,1/2+z
1/2+x,1/2-y,1/2-z
1/2-x,y,1/2-z
1/2-x,1/2-y,1/2-z
1/2+x,y,1/2-z
1/2-x,1/2+y,1/2+z
1/2+x,-y,1/2+z
loop_
_atom_site_type_symbol
_atom_site_label
_atom_site_fract_x
_atom_site_fract_y
_atom_site_fract_z
Si Si1 0.553342 0.250000 0.586343
Si Si2 0.804073 0.250000 0.820897
Si Si3 0.867477 0.630018 0.620050
Si Si4 0.445186 0.368563 0.795962
Si Si5 0.879193 0.566612 0.013788
Si Si6 0.193909 0.874610 0.282248
Si Si7 0.642907 0.750000 0.693828
O O1 0.500000 0.250000 0.500739
O O2 0.557524 0.194581 0.713782
O O3 0.595122 0.250000 0.433438
O O4 0.750000 0.250000 0.750000
O O5 0.823610 0.309810 0.749417
O O6 0.813413 0.250000 0.045402
O O7 0.912726 0.627276 0.481478
O O8 0.823353 0.609611 0.491755
O O9 0.857317 0.693654 0.684922
O O10 0.876364 0.594122 0.807242
O O11 0.500000 0.381856 0.833889
O O12 0.422903 0.408338 0.634579
O O13 0.833252 0.587309 0.131217
O O14 0.881535 0.500000 0.000000
O O15 0.250000 0.876610 0.250000
#
# Coordination Sequence:
#
# PCOD9536706 Si02
#       7
#     8   8  16  16  16  16   8
#     4  10  19  35  61  91 126 155 190 248 306 363
#     4  10  19  37  61  89 125 151 192 253 312 377
#     4  11  22  37  65  89 119 162 203 242 312 373
#     4  10  22  40  62  92 127 157 198 256 304 360
#     4  11  24  43  61  87 121 164 210 256 298 357
#     4  10  22  42  60  90 124 155 201 261 311 365
#     4  12  18  36  64  92 124 166 190 244 316 371
#
# _framework density 18.558268999999999
#
# number of rings (size 3 to 8) (size 9 to 14) (size 15 to 20)
#    0.000    1.455    3.636    2.182    0.000    5.455 
#    3.273    2.727    0.000    0.000    0.000    0.000 
#    0.000    0.000    0.000    0.000    0.000    0.000 
#
# Total GULP energy -245719.622187 kJ/mol
# GULP energy per Si atom -5584.536868 kJ/mol
# Density = 1.851603 g / cm^3
# Si number density = 18.558269 Si / 1000 Ang^3
#
#
#
# Elastic Constant Matrix: (Units=GPa)
#
#
# Indices 1 2 3 4 5 6 
#
# 1 138.5014 30.6830 66.6173 0.0000 0.0000 0.0000
# 2 30.6830 139.1712 57.9803 0.0000 0.0000 0.0000
# 3 66.6173 57.9803 162.5783 0.0000 0.0000 0.0000
# 4 0.0000 0.0000 0.0000 -2.1372 0.0000 0.0000
# 5 0.0000 0.0000 0.0000 0.0000 10.2317 0.0000
# 6 0.0000 0.0000 0.0000 0.0000 0.0000 41.2871
#
#
#
# Elastic Compliance Matrix: (Units=1/GPa)
#
#
# Indices 1 2 3 4 5 6 
#
# 1 0.009025 -0.000527 -0.003510 0.000000 0.000000 0.000000
# 2 -0.000527 0.008470 -0.002805 0.000000 0.000000 0.000000
# 3 -0.003510 -0.002805 0.008589 0.000000 0.000000 0.000000
# 4 0.000000 0.000000 0.000000 -0.467891 0.000000 0.000000
# 5 0.000000 0.000000 0.000000 0.000000 0.097735 0.000000
# 6 0.000000 0.000000 0.000000 0.000000 0.000000 0.024221
#
#
# Mechanical properties :
#
#
# Convention : Reuss Voigt Hill
#
# Bulk Modulus (GPa) = 80.64151 83.42356 82.03254
# Shear Modulus (GPa) = -16.55449 28.87434 6.15992
#
# Velocity S-wave (km/s) = -2.98992 3.94874 1.82385
# Velocity P-wave (km/s) = 5.62387 8.11418 6.98097
#
# Compressibility (1/GPa) = 0.01240056
#
# Stress axis : x y z
#
# Youngs Moduli (GPa) = 110.79990 118.06242 116.42352
#
# Poissons Ratio (x) = 0.06228 0.40865
# Poissons Ratio (y) = 0.05844 0.32652
# Poissons Ratio (z) = 0.38891 0.33111
#
# Static dielectric constant tensor:
#      x y z
#    x 1.651630 0.000000 0.000000 
#    y 0.000000 1.625630 0.000000 
#    z 0.000000 0.000000 1.627890 
# 
# From -- ./inp_files/3973.got.cif
#   From: 2010.05.17/outbox.cif.g08.bks.cpg/sg74_2_cif.got.tgz:3973.got - 2010.06.03 17:57:02.
