data_PCOD9536577
_publ_section_title
;
Structure prediction by ZEFSAII (Michael W. Deem and Ramdas Pophale) SiO2 
 PCOD9536577
Probable space group: I M M A
;
_chemical_formula_sum "Si O2"
_cell_formula_units_Z 72
_cell_length_a 13.830295
_cell_length_b 23.768627
_cell_length_c 11.058513
_cell_angle_alpha 90.000000
_cell_angle_beta 90.000000
_cell_angle_gamma 90.000000
_cell_volume 3635.233165
_symmetry_space_group_name_H-M "I M M A"
_symmetry_group_IT_number 74
_symmetry_cell_setting 'orthorhombic'
loop_
_space_group_symop_operation_xyz
x,y,z
-x,1/2-y,z
x,-y,-z
-x,1/2+y,-z
-x,-y,-z
x,1/2+y,-z
-x,y,z
x,1/2-y,z
1/2+x,1/2+y,1/2+z
1/2-x,-y,1/2+z
1/2+x,1/2-y,1/2-z
1/2-x,y,1/2-z
1/2-x,1/2-y,1/2-z
1/2+x,y,1/2-z
1/2-x,1/2+y,1/2+z
1/2+x,-y,1/2+z
loop_
_atom_site_type_symbol
_atom_site_label
_atom_site_fract_x
_atom_site_fract_y
_atom_site_fract_z
Si Si1 0.290905 0.686394 0.367904
Si Si2 0.500000 0.314493 0.165140
Si Si3 0.000000 0.187542 0.933143
Si Si4 0.791376 0.651616 0.619590
Si Si5 0.789218 0.530670 0.871352
Si Si6 0.000000 0.910181 0.870396
O O1 0.251147 0.750000 0.369212
O O2 0.250000 0.655918 0.250000
O O3 0.405011 0.686998 0.353783
O O4 0.272080 0.665772 0.503230
O O5 0.500000 0.250000 0.209225
O O6 0.601527 0.325010 0.098699
O O7 0.500000 0.363379 0.265396
O O8 0.000000 0.250000 0.997513
O O9 0.000000 0.131174 0.013550
O O10 0.750000 0.672806 0.750000
O O11 0.782495 0.584496 0.626602
O O12 0.750000 0.499306 0.750000
O O13 0.900899 0.553403 0.863259
O O14 0.781240 0.500000 0.000000
#
# Coordination Sequence:
#
# PCOD9536577 Si02
#       6
#    16   8   8  16  16   8
#     4  10  21  36  57  87 128 173 210 255 319 391
#     4  12  23  36  65 103 138 170 205 269 345 399
#     4  10  19  34  61  91 125 171 211 247 312 398
#     4  11  22  41  62  93 132 164 219 271 318 398
#     4  11  24  44  69  94 128 167 222 284 334 376
#     4  12  20  42  64 100 130 164 219 281 310 402
#
# _framework density 19.806158
#
# number of rings (size 3 to 8) (size 9 to 14) (size 15 to 20)
#    0.000    1.111    6.667    1.333    0.000    5.333 
#    0.000    4.444    0.000    0.000    0.000    0.000 
#    0.000    0.000    0.000    0.000    0.000    0.000 
#
# Total GULP energy -200428.685881 kJ/mol
# GULP energy per Si atom -5567.463497 kJ/mol
# Density = 1.976108 g / cm^3
# Si number density = 19.806158 Si / 1000 Ang^3
#
#
#
# Elastic Constant Matrix: (Units=GPa)
#
#
# Indices 1 2 3 4 5 6 
#
# 1 143.1733 23.7194 48.7324 0.0000 0.0000 0.0000
# 2 23.7194 46.2213 33.6612 0.0000 0.0000 0.0000
# 3 48.7324 33.6612 137.5970 -0.0005 0.0000 0.0001
# 4 0.0000 0.0000 -0.0005 6.8468 0.0001 0.0000
# 5 0.0000 0.0000 0.0000 0.0001 12.2947 0.0000
# 6 0.0000 0.0000 0.0001 0.0000 0.0000 14.9320
#
#
#
# Elastic Compliance Matrix: (Units=1/GPa)
#
#
# Indices 1 2 3 4 5 6 
#
# 1 0.008180 -0.002541 -0.002276 0.000000 0.000000 0.000000
# 2 -0.002541 0.027114 -0.005733 -0.000001 0.000000 0.000000
# 3 -0.002276 -0.005733 0.009476 0.000001 0.000000 0.000000
# 4 0.000000 -0.000001 0.000001 0.146054 -0.000001 0.000000
# 5 0.000000 0.000000 0.000000 -0.000001 0.081336 0.000000
# 6 0.000000 0.000000 0.000000 0.000000 0.000000 0.066970
#
#
# Mechanical properties :
#
#
# Convention : Reuss Voigt Hill
#
# Bulk Modulus (GPa) = 42.24508 59.91306 51.07907
# Shear Modulus (GPa) = 13.58257 21.53995 17.56126
#
# Velocity S-wave (km/s) = 2.62157 3.30136 2.98091
# Velocity P-wave (km/s) = 5.52622 6.69682 6.13948
#
# Compressibility (1/GPa) = 0.02367139
#
# Stress axis : x y z
#
# Youngs Moduli (GPa) = 122.24977 36.88114 105.52846
#
# Poissons Ratio (x) = 0.09370 0.24014
# Poissons Ratio (y) = 0.31058 0.60503
# Poissons Ratio (z) = 0.27819 0.21145
#
# Static dielectric constant tensor:
#      x y z
#    x 1.804770 0.000000 0.000000 
#    y 0.000000 1.746660 0.000000 
#    z 0.000000 0.000000 1.837070 
# 
# From -- ./inp_files/18830.got.cif
#   From: 2010.05.17/outbox.cif.g08.bks.cpg/sg74_10_cif.got.tgz:18830.got - 2010.06.03 17:57:02.
