data_PCOD9536144
_publ_section_title
;
Structure prediction by ZEFSAII (Michael W. Deem and Ramdas Pophale) SiO2 
 PCOD9536144
Probable space group: I M M A
;
_chemical_formula_sum "Si O2"
_cell_formula_units_Z 116
_cell_length_a 7.563663
_cell_length_b 29.561981
_cell_length_c 23.610010
_cell_angle_alpha 90.000000
_cell_angle_beta 90.000000
_cell_angle_gamma 90.000000
_cell_volume 5279.124145
_symmetry_space_group_name_H-M "I M M A"
_symmetry_group_IT_number 74
_symmetry_cell_setting 'orthorhombic'
loop_
_space_group_symop_operation_xyz
x,y,z
-x,1/2-y,z
x,-y,-z
-x,1/2+y,-z
-x,-y,-z
x,1/2+y,-z
-x,y,z
x,1/2-y,z
1/2+x,1/2+y,1/2+z
1/2-x,-y,1/2+z
1/2+x,1/2-y,1/2-z
1/2-x,y,1/2-z
1/2-x,1/2-y,1/2-z
1/2+x,y,1/2-z
1/2-x,1/2+y,1/2+z
1/2+x,-y,1/2+z
loop_
_atom_site_type_symbol
_atom_site_label
_atom_site_fract_x
_atom_site_fract_y
_atom_site_fract_z
Si Si1 0.706694 0.626926 0.566595
Si Si2 0.210909 0.506221 0.685560
Si Si3 0.285420 0.199494 0.523068
Si Si4 0.295111 0.950213 0.006996
Si Si5 0.794789 0.181114 0.845362
Si Si6 0.785708 0.583683 0.376031
Si Si7 0.790543 0.608241 0.686246
Si Si8 0.000000 0.750000 0.304363
O O1 0.500000 0.622319 0.555165
O O2 0.780684 0.664073 0.523313
O O3 0.787893 0.578557 0.550087
O O4 0.729259 0.637013 0.632673
O O5 0.250000 0.493345 0.750000
O O6 0.273313 0.465064 0.647230
O O7 0.284073 0.557034 0.678807
O O8 0.000000 0.508849 0.676979
O O9 0.500000 0.199082 0.520822
O O10 0.224762 0.250000 0.509653
O O11 0.241585 0.189611 0.588442
O O12 0.500000 0.957707 0.022676
O O13 0.225749 0.918789 0.058158
O O14 0.214653 0.000000 0.000000
O O15 0.784159 0.126723 0.841731
O O16 0.656479 0.210261 0.809840
O O17 0.000000 0.195201 0.836635
O O18 0.000000 0.587275 0.372766
O O19 0.750000 0.623650 0.750000
O O20 0.000000 0.605518 0.682221
#
# Coordination Sequence:
#
# PCOD9536144 Si02
#       8
#    16  16  16  16  16  16  16   4
#     4  11  21  33  52  79 109 142 182 227 279 337
#     4   9  19  35  56  79 109 144 187 232 275 326
#     4   9  18  34  53  75 108 143 182 229 280 332
#     4  10  20  33  50  73 109 155 190 223 276 337
#     4  11  21  35  55  81 114 149 187 234 283 341
#     4  10  19  33  52  78 114 149 186 231 280 335
#     4  10  20  37  57  79 106 144 187 234 279 327
#     4  12  22  36  56  82 112 148 194 232 288 338
#
# _framework density 21.973341999999999
#
# number of rings (size 3 to 8) (size 9 to 14) (size 15 to 20)
#    0.000    1.931    2.759    1.862    0.000    3.586 
#    1.241    1.379    0.000    0.414    0.000    0.483 
#    0.000    0.000    0.000    0.000    0.000    0.000 
#
# Total GULP energy -323370.361227 kJ/mol
# GULP energy per Si atom -5575.351056 kJ/mol
# Density = 2.192333 g / cm^3
# Si number density = 21.973342 Si / 1000 Ang^3
#
#
#
# Elastic Constant Matrix: (Units=GPa)
#
#
# Indices 1 2 3 4 5 6 
#
# 1 92.1301 10.0069 -0.5656 0.0000 0.0000 0.0000
# 2 10.0069 54.1661 4.7172 0.0000 0.0000 0.0000
# 3 -0.5656 4.7172 73.0959 0.0000 0.0000 0.0000
# 4 0.0000 0.0000 0.0000 4.1337 0.0000 0.0000
# 5 0.0000 0.0000 0.0000 0.0000 15.7159 0.0000
# 6 0.0000 0.0000 0.0000 0.0000 0.0000 7.8974
#
#
#
# Elastic Compliance Matrix: (Units=1/GPa)
#
#
# Indices 1 2 3 4 5 6 
#
# 1 0.011080 -0.002066 0.000219 0.000000 0.000000 0.000000
# 2 -0.002066 0.018951 -0.001239 0.000000 0.000000 0.000000
# 3 0.000219 -0.001239 0.013762 0.000000 0.000000 0.000000
# 4 0.000000 0.000000 0.000000 0.241915 0.000000 0.000000
# 5 0.000000 0.000000 0.000000 0.000000 0.063630 0.000000
# 6 0.000000 0.000000 0.000000 0.000000 0.000000 0.126624
#
#
# Mechanical properties :
#
#
# Convention : Reuss Voigt Hill
#
# Bulk Modulus (GPa) = 26.58043 27.52322 27.05183
# Shear Modulus (GPa) = 10.10766 19.23163 14.66965
#
# Velocity S-wave (km/s) = 2.14708 2.96163 2.58662
# Velocity P-wave (km/s) = 4.27429 4.92422 4.61072
#
# Compressibility (1/GPa) = 0.03762166
#
# Stress axis : x y z
#
# Youngs Moduli (GPa) = 90.25292 52.76675 72.66220
#
# Poissons Ratio (x) = 0.10902 -0.01592
# Poissons Ratio (y) = 0.18647 0.09003
# Poissons Ratio (z) = -0.01977 0.06538
#
# Static dielectric constant tensor:
#      x y z
#    x 1.835930 0.000000 0.000000 
#    y 0.000000 1.814490 0.000000 
#    z 0.000000 0.000000 1.842050 
# 
# From -- ./inp_files/57907.got.cif
#   From: 2010.05.17/outbox.cif.g08.bks.cpg/sg74_29_cif.got.tgz:57907.got - 2010.06.03 17:57:02.
