data_PCOD9536975
_publ_section_title
;
Structure prediction by ZEFSAII (Michael W. Deem and Ramdas Pophale) SiO2 
 PCOD9536975
Probable space group: I M M A
;
_chemical_formula_sum "Si O2"
_cell_formula_units_Z 104
_cell_length_a 22.538374
_cell_length_b 26.439627
_cell_length_c 7.318796
_cell_angle_alpha 90.000000
_cell_angle_beta 90.000000
_cell_angle_gamma 90.000000
_cell_volume 4361.315926
_symmetry_space_group_name_H-M "I M M A"
_symmetry_group_IT_number 74
_symmetry_cell_setting 'orthorhombic'
loop_
_space_group_symop_operation_xyz
x,y,z
-x,1/2-y,z
x,-y,-z
-x,1/2+y,-z
-x,-y,-z
x,1/2+y,-z
-x,y,z
x,1/2-y,z
1/2+x,1/2+y,1/2+z
1/2-x,-y,1/2+z
1/2+x,1/2-y,1/2-z
1/2-x,y,1/2-z
1/2-x,1/2-y,1/2-z
1/2+x,y,1/2-z
1/2-x,1/2+y,1/2+z
1/2+x,-y,1/2+z
loop_
_atom_site_type_symbol
_atom_site_label
_atom_site_fract_x
_atom_site_fract_y
_atom_site_fract_z
Si Si1 0.294892 0.158712 0.108364
Si Si2 0.000000 0.695716 0.259769
Si Si3 0.372963 0.577000 0.819310
Si Si4 0.872378 0.079815 0.756091
Si Si5 0.500000 0.912899 0.294350
Si Si6 0.500000 0.553981 0.894373
Si Si7 0.725350 0.553691 0.525536
Si Si8 0.631459 0.195592 0.790469
O O1 0.250000 0.183147 0.250000
O O2 0.354470 0.135882 0.200704
O O3 0.260659 0.106847 0.042430
O O4 0.317853 0.191635 0.943019
O O5 0.936894 0.695176 0.363310
O O6 0.000000 0.750000 0.159210
O O7 0.000000 0.645049 0.138911
O O8 0.322013 0.551940 0.694735
O O9 0.371591 0.568793 0.039717
O O10 0.440401 0.562188 0.778589
O O11 0.936466 0.062793 0.832100
O O12 0.866072 0.140049 0.798147
O O13 0.816456 0.056881 0.851192
O O14 0.500000 0.908001 0.069628
O O15 0.500000 0.500000 0.000000
O O16 0.757441 0.500000 0.500000
O O17 0.638585 0.250000 0.693140
#
# Coordination Sequence:
#
# PCOD9536975 Si02
#       8
#    16   8  16  16   8   8  16  16
#     4   9  20  40  52  78 117 150 198 244 278 349
#     4   8  14  28  53  87 113 138 185 229 285 367
#     4   9  21  39  55  77 110 145 184 242 291 340
#     4   9  19  37  58  82 117 145 190 239 287 349
#     4   8  16  31  52  81 110 148 174 231 291 332
#     4  10  20  31  55  81 109 142 184 240 300 350
#     4  11  24  38  55  79 107 157 205 235 281 340
#     4   9  17  33  61  89 116 150 186 240 305 356
#
# _framework density 23.846014
#
# number of rings (size 3 to 8) (size 9 to 14) (size 15 to 20)
#    0.000    2.769    0.000    0.923    4.308    4.000 
#   13.846    2.308    0.000    3.692    0.000    0.000 
#    0.000   56.615    0.000    0.000    0.000    0.000 
#
# Total GULP energy -289470.382127 kJ/mol
# GULP energy per Si atom -5566.738118 kJ/mol
# Density = 2.379174 g / cm^3
# Si number density = 23.846014 Si / 1000 Ang^3
#
#
#
# Elastic Constant Matrix: (Units=GPa)
#
#
# Indices 1 2 3 4 5 6 
#
# 1 124.7123 9.7040 9.1926 0.0000 0.0000 0.0000
# 2 9.7040 99.6016 -11.9842 0.0000 0.0000 0.0000
# 3 9.1926 -11.9842 49.1300 0.0000 0.0000 0.0000
# 4 0.0000 0.0000 0.0000 9.2145 0.0000 0.0000
# 5 0.0000 0.0000 0.0000 0.0000 1.2141 0.0000
# 6 0.0000 0.0000 0.0000 0.0000 0.0000 -8.1720
#
#
#
# Elastic Compliance Matrix: (Units=1/GPa)
#
#
# Indices 1 2 3 4 5 6 
#
# 1 0.008229 -0.001017 -0.001788 0.000000 0.000000 0.000000
# 2 -0.001017 0.010469 0.002744 0.000000 0.000000 0.000000
# 3 -0.001788 0.002744 0.021358 0.000000 0.000000 0.000000
# 4 0.000000 0.000000 0.000000 0.108524 0.000000 0.000000
# 5 0.000000 0.000000 0.000000 0.000000 0.823653 0.000000
# 6 0.000000 0.000000 0.000000 0.000000 0.000000 -0.122369
#
#
# Mechanical properties :
#
#
# Convention : Reuss Voigt Hill
#
# Bulk Modulus (GPa) = 25.04057 31.91875 28.47966
# Shear Modulus (GPa) = 5.79174 18.22009 12.00592
#
# Velocity S-wave (km/s) = 1.56015 2.76719 2.24626
# Velocity P-wave (km/s) = 3.71068 4.86047 4.32397
#
# Compressibility (1/GPa) = 0.03993520
#
# Stress axis : x y z
#
# Youngs Moduli (GPa) = 121.51611 95.51803 46.82084
#
# Poissons Ratio (x) = 0.09713 0.08371
# Poissons Ratio (y) = 0.12357 -0.12848
# Poissons Ratio (z) = 0.21725 -0.26210
#
# Static dielectric constant tensor:
#      x y z
#    x 2.027540 0.000000 0.000000 
#    y 0.000000 1.948930 0.000000 
#    z 0.000000 0.000000 1.999580 
# 
# From -- ./inp_files/12954.got.cif
#   From: 2010.05.17/outbox.cif.g08.bks.cpg/sg74_7_cif.got.tgz:12954.got - 2010.06.03 17:57:02.
