data_PCOD9536261
_publ_section_title
;
Structure prediction by ZEFSAII (Michael W. Deem and Ramdas Pophale) SiO2 
 PCOD9536261
Probable space group: I M M A
;
_chemical_formula_sum "Si O2"
_cell_formula_units_Z 80
_cell_length_a 20.855900
_cell_length_b 18.166607
_cell_length_c 9.672601
_cell_angle_alpha 90.000000
_cell_angle_beta 90.000000
_cell_angle_gamma 90.000000
_cell_volume 3664.764149
_symmetry_space_group_name_H-M "I M M A"
_symmetry_group_IT_number 74
_symmetry_cell_setting 'orthorhombic'
loop_
_space_group_symop_operation_xyz
x,y,z
-x,1/2-y,z
x,-y,-z
-x,1/2+y,-z
-x,-y,-z
x,1/2+y,-z
-x,y,z
x,1/2-y,z
1/2+x,1/2+y,1/2+z
1/2-x,-y,1/2+z
1/2+x,1/2-y,1/2-z
1/2-x,y,1/2-z
1/2-x,1/2-y,1/2-z
1/2+x,y,1/2-z
1/2-x,1/2+y,1/2+z
1/2+x,-y,1/2+z
loop_
_atom_site_type_symbol
_atom_site_label
_atom_site_fract_x
_atom_site_fract_y
_atom_site_fract_z
Si Si1 0.627150 0.333320 0.522553
Si Si2 0.000000 0.580049 0.058491
Si Si3 0.690991 0.019852 0.159943
Si Si4 0.000000 0.925292 0.401295
Si Si5 0.728584 0.664264 0.942636
Si Si6 0.628320 0.877281 0.167925
O O1 0.618652 0.250000 0.472768
O O2 0.563706 0.380675 0.498746
O O3 0.697289 0.358770 0.469625
O O4 0.628096 0.334605 0.689654
O O5 0.000000 0.574088 0.228759
O O6 0.000000 0.500000 0.000000
O O7 0.750000 0.994111 0.250000
O O8 0.634404 0.965487 0.201711
O O9 0.692211 0.108104 0.160958
O O10 0.701882 0.000000 0.000000
O O11 0.064635 0.878198 0.425682
O O12 0.000000 0.000000 0.500000
O O13 0.726715 0.750000 0.903792
O O14 0.688531 0.652436 0.082867
#
# Coordination Sequence:
#
# PCOD9536261 Si02
#       6
#    16   8  16   8  16  16
#     4  10  20  36  58  84 114 147 188 236 282 332
#     4  10  23  37  56  87 118 148 184 230 284 340
#     4  10  20  34  54  80 109 142 183 228 276 331
#     4  10  20  35  54  79 110 144 184 228 276 330
#     4  10  20  33  52  79 112 147 182 226 284 342
#     4  10  19  33  55  81 108 143 187 237 281 327
#
# _framework density 21.829508000000001
#
# number of rings (size 3 to 8) (size 9 to 14) (size 15 to 20)
#    0.000    2.000    0.000    5.700    0.000    7.600 
#    0.000    1.500    0.000    0.000    0.000   12.600 
#    0.000    0.000    0.000    0.000    0.000    0.000 
#
# Total GULP energy -222757.460592 kJ/mol
# GULP energy per Si atom -5568.936515 kJ/mol
# Density = 2.177982 g / cm^3
# Si number density = 21.829508 Si / 1000 Ang^3
#
#
#
# Elastic Constant Matrix: (Units=GPa)
#
#
# Indices 1 2 3 4 5 6 
#
# 1 141.5962 54.6628 -7.2853 0.0000 0.0000 0.0000
# 2 54.6628 121.5645 2.6485 0.0000 0.0000 0.0000
# 3 -7.2853 2.6485 11.8994 0.0000 0.0000 0.0000
# 4 0.0000 0.0000 0.0000 -23.0917 0.0000 0.0000
# 5 0.0000 0.0000 0.0000 0.0000 9.9411 0.0000
# 6 0.0000 0.0000 0.0000 0.0000 0.0000 13.2618
#
#
#
# Elastic Compliance Matrix: (Units=1/GPa)
#
#
# Indices 1 2 3 4 5 6 
#
# 1 0.009013 -0.004193 0.006452 0.000000 0.000000 0.000000
# 2 -0.004193 0.010217 -0.004841 0.000000 0.000000 0.000000
# 3 0.006452 -0.004841 0.089065 0.000000 0.000000 0.000000
# 4 0.000000 0.000000 0.000000 -0.043306 0.000000 0.000000
# 5 0.000000 0.000000 0.000000 0.000000 0.100593 0.000000
# 6 0.000000 0.000000 0.000000 0.000000 0.000000 0.075404
#
#
# Mechanical properties :
#
#
# Convention : Reuss Voigt Hill
#
# Bulk Modulus (GPa) = 9.69660 41.67912 25.68786
# Shear Modulus (GPa) = 17.82339 15.02451 16.42395
#
# Velocity S-wave (km/s) = 2.86051 2.62633 2.74592
# Velocity P-wave (km/s) = 3.91940 5.32271 4.67402
#
# Compressibility (1/GPa) = 0.10312898
#
# Stress axis : x y z
#
# Youngs Moduli (GPa) = 110.94928 97.87441 11.22772
#
# Poissons Ratio (x) = 0.41043 -0.07244
# Poissons Ratio (y) = 0.46526 0.05436
# Poissons Ratio (z) = -0.71579 0.47385
#
# Static dielectric constant tensor:
#      x y z
#    x 1.784540 0.000000 0.000000 
#    y 0.000000 1.870280 0.000000 
#    z 0.000000 0.000000 1.523830 
# 
# From -- ./inp_files/23613.got.cif
#   From: 2010.05.17/outbox.cif.g08.bks.cpg/sg74_12_cif.got.tgz:23613.got - 2010.06.03 17:57:02.
