data_PCOD9536319
_publ_section_title
;
Structure prediction by ZEFSAII (Michael W. Deem and Ramdas Pophale) SiO2 
 PCOD9536319
Probable space group: I M M A
;
_chemical_formula_sum "Si O2"
_cell_formula_units_Z 100
_cell_length_a 7.744755
_cell_length_b 20.848649
_cell_length_c 29.825791
_cell_angle_alpha 90.000000
_cell_angle_beta 90.000000
_cell_angle_gamma 90.000000
_cell_volume 4815.901235
_symmetry_space_group_name_H-M "I M M A"
_symmetry_group_IT_number 74
_symmetry_cell_setting 'orthorhombic'
loop_
_space_group_symop_operation_xyz
x,y,z
-x,1/2-y,z
x,-y,-z
-x,1/2+y,-z
-x,-y,-z
x,1/2+y,-z
-x,y,z
x,1/2-y,z
1/2+x,1/2+y,1/2+z
1/2-x,-y,1/2+z
1/2+x,1/2-y,1/2-z
1/2-x,y,1/2-z
1/2-x,1/2-y,1/2-z
1/2+x,y,1/2-z
1/2-x,1/2+y,1/2+z
1/2+x,-y,1/2+z
loop_
_atom_site_type_symbol
_atom_site_label
_atom_site_fract_x
_atom_site_fract_y
_atom_site_fract_z
Si Si1 0.793405 0.127206 0.200879
Si Si2 0.294424 0.519606 0.300000
Si Si3 0.790273 0.319569 0.107706
Si Si4 0.192011 0.853940 0.025924
Si Si5 0.795584 0.065463 0.603885
Si Si6 0.000000 0.250000 0.510868
Si Si7 0.700255 0.558796 0.950319
O O1 0.750000 0.152266 0.250000
O O2 0.736530 0.169496 0.159151
O O3 0.000000 0.123468 0.198001
O O4 0.725171 0.053967 0.196863
O O5 0.500000 0.516582 0.303166
O O6 0.250000 0.543472 0.250000
O O7 0.232173 0.558929 0.343001
O O8 0.731708 0.250000 0.091327
O O9 0.717603 0.377773 0.079796
O O10 0.000000 0.321668 0.105181
O O11 0.209812 0.875924 0.077571
O O12 0.346504 0.806195 0.013601
O O13 0.000000 0.828278 0.016828
O O14 0.212564 0.919178 0.996389
O O15 0.000000 0.070689 0.595924
O O16 0.732058 0.999646 0.579977
O O17 0.500000 0.546257 0.959717
#
# Coordination Sequence:
#
# PCOD9536319 Si02
#       7
#    16  16  16  16  16   4  16
#     4   9  18  32  49  71 105 147 202 260 317 378
#     4  10  19  33  56  87 124 162 205 263 329 391
#     4  10  21  35  51  75 108 157 213 264 318 380
#     4  12  26  44  71  97 130 176 216 262 328 387
#     4  11  22  40  64  95 133 168 215 272 327 385
#     4  12  26  52  66  98 138 164 220 276 308 402
#     4  11  23  39  60  89 128 169 215 275 322 376
#
# _framework density 20.764545999999999
#
# number of rings (size 3 to 8) (size 9 to 14) (size 15 to 20)
#    0.000    1.440    3.200    2.160    1.120    5.760 
#    0.000    0.000    0.000    0.000    0.000    0.560 
#    0.000    0.000    0.000    0.000    0.000    0.000 
#
# Total GULP energy -278913.853787 kJ/mol
# GULP energy per Si atom -5578.277076 kJ/mol
# Density = 2.071729 g / cm^3
# Si number density = 20.764546 Si / 1000 Ang^3
#
#
#
# Elastic Constant Matrix: (Units=GPa)
#
#
# Indices 1 2 3 4 5 6 
#
# 1 101.9638 10.1677 4.1883 0.0000 0.0000 0.0000
# 2 10.1677 34.4823 27.1168 0.0000 0.0000 0.0000
# 3 4.1883 27.1168 119.7580 0.0000 0.0000 0.0000
# 4 0.0000 0.0000 0.0000 15.2528 0.0000 0.0000
# 5 0.0000 0.0000 0.0000 0.0000 25.9833 0.0000
# 6 0.0000 0.0000 0.0000 0.0000 0.0000 5.6043
#
#
#
# Elastic Compliance Matrix: (Units=1/GPa)
#
#
# Indices 1 2 3 4 5 6 
#
# 1 0.010120 -0.003292 0.000391 0.000000 0.000000 0.000000
# 2 -0.003292 0.036354 -0.008116 0.000000 0.000000 0.000000
# 3 0.000391 -0.008116 0.010174 0.000000 0.000000 0.000000
# 4 0.000000 0.000000 0.000000 0.065562 0.000000 0.000000
# 5 0.000000 0.000000 0.000000 0.000000 0.038486 0.000000
# 6 0.000000 0.000000 0.000000 0.000000 0.000000 0.178436
#
#
# Mechanical properties :
#
#
# Convention : Reuss Voigt Hill
#
# Bulk Modulus (GPa) = 28.88999 37.68329 33.28664
# Shear Modulus (GPa) = 13.41551 23.68350 18.54951
#
# Velocity S-wave (km/s) = 2.54456 3.38090 2.99210
# Velocity P-wave (km/s) = 4.75146 5.78169 5.29171
#
# Compressibility (1/GPa) = 0.03461406
#
# Stress axis : x y z
#
# Youngs Moduli (GPa) = 98.81840 27.50750 98.28695
#
# Poissons Ratio (x) = 0.09055 -0.03847
# Poissons Ratio (y) = 0.32529 0.79774
# Poissons Ratio (z) = -0.03868 0.22326
#
# Static dielectric constant tensor:
#      x y z
#    x 1.764830 0.000000 0.000000 
#    y 0.000000 1.741380 0.000000 
#    z 0.000000 0.000000 1.776030 
# 
# From -- ./inp_files/64523.got.cif
#   From: 2010.05.17/outbox.cif.g08.bks.cpg/sg74_33_cif.got.tgz:64523.got - 2010.06.03 17:57:02.
