data_PCOD9536077
_publ_section_title
;
Structure prediction by ZEFSAII (Michael W. Deem and Ramdas Pophale) SiO2 
 PCOD9536077
Probable space group: I M M A
;
_chemical_formula_sum "Si O2"
_cell_formula_units_Z 96
_cell_length_a 14.452316
_cell_length_b 22.370217
_cell_length_c 14.289864
_cell_angle_alpha 90.000000
_cell_angle_beta 90.000000
_cell_angle_gamma 90.000000
_cell_volume 4619.933681
_symmetry_space_group_name_H-M "I M M A"
_symmetry_group_IT_number 74
_symmetry_cell_setting 'orthorhombic'
loop_
_space_group_symop_operation_xyz
x,y,z
-x,1/2-y,z
x,-y,-z
-x,1/2+y,-z
-x,-y,-z
x,1/2+y,-z
-x,y,z
x,1/2-y,z
1/2+x,1/2+y,1/2+z
1/2-x,-y,1/2+z
1/2+x,1/2-y,1/2-z
1/2-x,y,1/2-z
1/2-x,1/2-y,1/2-z
1/2+x,y,1/2-z
1/2-x,1/2+y,1/2+z
1/2+x,-y,1/2+z
loop_
_atom_site_type_symbol
_atom_site_label
_atom_site_fract_x
_atom_site_fract_y
_atom_site_fract_z
Si Si1 0.891891 0.887706 0.232317
Si Si2 0.681926 0.682924 0.429643
Si Si3 0.355121 0.446617 0.060394
Si Si4 0.103162 0.343431 0.559398
Si Si5 0.108883 0.020148 0.231809
Si Si6 0.357732 0.935023 0.534797
O O1 0.836269 0.837305 0.177287
O O2 0.888420 0.881111 0.344017
O O3 0.000000 0.882766 0.205293
O O4 0.856039 0.953746 0.205266
O O5 0.646660 0.750000 0.447355
O O6 0.793631 0.684775 0.446957
O O7 0.627636 0.629346 0.485604
O O8 0.350256 0.459257 0.169998
O O9 0.251653 0.440394 0.022676
O O10 0.398141 0.500000 0.000000
O O11 0.401865 0.385417 0.031199
O O12 0.000000 0.314162 0.567233
O O13 0.121395 0.064306 0.145112
O O14 0.000000 0.012762 0.249938
O O15 0.397124 0.000000 0.500000
#
# Coordination Sequence:
#
# PCOD9536077 Si02
#       6
#    16  16  16  16  16  16
#     4  10  21  35  56  88 122 159 197 238 289 353
#     4  11  24  41  60  84 118 160 202 246 297 351
#     4  10  19  32  57  87 122 153 187 237 298 354
#     4  10  21  36  57  87 122 156 194 241 296 357
#     4  11  21  33  57  89 122 154 192 243 297 348
#     4  10  21  37  58  85 114 155 199 243 291 346
#
# _framework density 20.779517999999999
#
# number of rings (size 3 to 8) (size 9 to 14) (size 15 to 20)
#    0.000    1.667    3.333    1.500    0.000    5.000 
#    0.000    1.667    0.000    8.000    0.000    0.000 
#    0.000    0.000    0.000    0.000    0.000    0.000 
#
# Total GULP energy -267355.503087 kJ/mol
# GULP energy per Si atom -5569.906314 kJ/mol
# Density = 2.073222 g / cm^3
# Si number density = 20.779518 Si / 1000 Ang^3
#
#
#
# Elastic Constant Matrix: (Units=GPa)
#
#
# Indices 1 2 3 4 5 6 
#
# 1 69.0909 17.6096 -11.6704 0.0000 0.0000 0.0001
# 2 17.6096 131.5799 58.1074 0.0001 0.0000 0.0001
# 3 -11.6704 58.1074 99.8670 0.0005 0.0000 0.0005
# 4 0.0000 0.0001 0.0005 -2.2316 0.0000 0.0005
# 5 0.0000 0.0000 0.0000 0.0000 38.3679 -0.0008
# 6 0.0001 0.0001 0.0005 0.0005 -0.0008 23.4924
#
#
#
# Elastic Compliance Matrix: (Units=1/GPa)
#
#
# Indices 1 2 3 4 5 6 
#
# 1 0.016224 -0.004049 0.004252 0.000001 0.000000 0.000000
# 2 -0.004049 0.011239 -0.007012 -0.000001 0.000000 0.000000
# 3 0.004252 -0.007012 0.014590 0.000003 0.000000 0.000000
# 4 0.000001 -0.000001 0.000003 -0.448102 0.000000 0.000010
# 5 0.000000 0.000000 0.000000 0.000000 0.026063 0.000001
# 6 0.000000 0.000000 0.000000 0.000010 0.000001 0.042567
#
#
# Mechanical properties :
#
#
# Convention : Reuss Voigt Hill
#
# Bulk Modulus (GPa) = 35.16945 47.62567 41.39756
# Shear Modulus (GPa) = -15.90726 27.69183 5.89229
#
# Velocity S-wave (km/s) = -2.76982 3.65451 1.68576
# Velocity P-wave (km/s) = 2.59473 6.38565 4.87387
#
# Compressibility (1/GPa) = 0.02843377
#
# Stress axis : x y z
#
# Youngs Moduli (GPa) = 61.63773 88.97977 68.53905
#
# Poissons Ratio (x) = 0.36027 -0.29141
# Poissons Ratio (y) = 0.24956 0.48061
# Poissons Ratio (z) = -0.26207 0.62395
#
# Static dielectric constant tensor:
#      x y z
#    x 1.812130 0.000000 0.000000 
#    y 0.000000 1.791550 0.000000 
#    z 0.000000 0.000000 1.720330 
# 
# From -- ./inp_files/32380.got.cif
#   From: 2010.05.17/outbox.cif.g08.bks.cpg/sg74_17_cif.got.tgz:32380.got - 2010.06.03 17:57:02.
