data_PCOD9536100
_publ_section_title
;
Structure prediction by ZEFSAII (Michael W. Deem and Ramdas Pophale) SiO2 
 PCOD9536100
Probable space group: I M M A
;
_chemical_formula_sum "Si O2"
_cell_formula_units_Z 88
_cell_length_a 28.006507
_cell_length_b 8.751569
_cell_length_c 18.842555
_cell_angle_alpha 90.000000
_cell_angle_beta 90.000000
_cell_angle_gamma 90.000000
_cell_volume 4618.326783
_symmetry_space_group_name_H-M "I M M A"
_symmetry_group_IT_number 74
_symmetry_cell_setting 'orthorhombic'
loop_
_space_group_symop_operation_xyz
x,y,z
-x,1/2-y,z
x,-y,-z
-x,1/2+y,-z
-x,-y,-z
x,1/2+y,-z
-x,y,z
x,1/2-y,z
1/2+x,1/2+y,1/2+z
1/2-x,-y,1/2+z
1/2+x,1/2-y,1/2-z
1/2-x,y,1/2-z
1/2-x,1/2-y,1/2-z
1/2+x,y,1/2-z
1/2-x,1/2+y,1/2+z
1/2+x,-y,1/2+z
loop_
_atom_site_type_symbol
_atom_site_label
_atom_site_fract_x
_atom_site_fract_y
_atom_site_fract_z
Si Si1 0.249301 0.568982 0.925149
Si Si2 0.553376 0.434068 0.831042
Si Si3 0.339654 0.566444 0.139071
Si Si4 0.082613 0.066983 0.181176
Si Si5 0.500000 0.567607 0.576497
Si Si6 0.183550 0.430962 0.802866
O O1 0.245673 0.750000 0.928205
O O2 0.303968 0.516518 0.913781
O O3 0.220876 0.509241 0.855750
O O4 0.231542 0.500000 0.000000
O O5 0.500000 0.470370 0.860403
O O6 0.554884 0.250000 0.820663
O O7 0.603945 0.472543 0.869153
O O8 0.559334 0.516615 0.755555
O O9 0.335032 0.750000 0.132025
O O10 0.321020 0.526018 0.219165
O O11 0.090527 0.250000 0.181704
O O12 0.046328 0.022211 0.120184
O O13 0.131470 0.977728 0.170174
O O14 0.500000 0.750000 0.573469
O O15 0.500000 0.500000 0.500000
O O16 0.192129 0.250000 0.805016
#
# Coordination Sequence:
#
# PCOD9536100 Si02
#       6
#    16  16  16  16   8  16
#     4  12  25  40  59  82 111 149 189 233 284 341
#     4   9  17  31  55  84 112 144 179 219 274 331
#     4   9  19  36  58  86 118 149 184 230 279 331
#     4  10  19  33  50  75 107 139 180 230 275 319
#     4  10  22  34  46  66  98 142 183 224 271 318
#     4  10  21  38  60  85 112 146 185 231 282 334
#
# _framework density 19.05452
#
# number of rings (size 3 to 8) (size 9 to 14) (size 15 to 20)
#    0.000    2.000    0.909    4.364    0.000    8.000 
#    0.000    1.818    0.000    0.545    0.000    0.000 
#    0.000    0.000    0.000    0.000    0.000    0.000 
#
# Total GULP energy -245382.639002 kJ/mol
# GULP energy per Si atom -5576.878159 kJ/mol
# Density = 1.901115 g / cm^3
# Si number density = 19.054520 Si / 1000 Ang^3
#
#
#
# Elastic Constant Matrix: (Units=GPa)
#
#
# Indices 1 2 3 4 5 6 
#
# 1 107.5446 25.3509 24.7454 0.0000 0.0000 0.0000
# 2 25.3509 31.3428 18.7460 0.0000 0.0000 0.0000
# 3 24.7454 18.7460 26.9748 0.0000 0.0000 0.0000
# 4 0.0000 0.0000 0.0000 23.9430 0.0000 0.0000
# 5 0.0000 0.0000 0.0000 0.0000 13.3134 0.0000
# 6 0.0000 0.0000 0.0000 0.0000 0.0000 30.0193
#
#
#
# Elastic Compliance Matrix: (Units=1/GPa)
#
#
# Indices 1 2 3 4 5 6 
#
# 1 0.012313 -0.005482 -0.007486 0.000000 0.000000 0.000000
# 2 -0.005482 0.057040 -0.034610 0.000000 0.000000 0.000000
# 3 -0.007486 -0.034610 0.067991 0.000000 0.000000 0.000000
# 4 0.000000 0.000000 0.000000 0.041766 0.000000 0.000000
# 5 0.000000 0.000000 0.000000 0.000000 0.075112 0.000000
# 6 0.000000 0.000000 0.000000 0.000000 0.000000 0.033312
#
#
# Mechanical properties :
#
#
# Convention : Reuss Voigt Hill
#
# Bulk Modulus (GPa) = 23.70380 33.72743 28.71562
# Shear Modulus (GPa) = 12.60230 19.92314 16.26272
#
# Velocity S-wave (km/s) = 2.57452 3.23706 2.92461
# Velocity P-wave (km/s) = 4.61569 5.63119 5.14854
#
# Compressibility (1/GPa) = 0.04218733
#
# Stress axis : x y z
#
# Youngs Moduli (GPa) = 81.21401 17.53168 14.70782
#
# Poissons Ratio (x) = 0.09611 0.11010
# Poissons Ratio (y) = 0.44522 0.50904
# Poissons Ratio (z) = 0.60795 0.60678
#
# Static dielectric constant tensor:
#      x y z
#    x 1.723600 0.000000 0.000000 
#    y 0.000000 1.645670 0.000000 
#    z 0.000000 0.000000 1.640530 
# 
# From -- ./inp_files/47003.got.cif
#   From: 2010.05.17/outbox.cif.g08.bks.cpg/sg74_24_cif.got.tgz:47003.got - 2010.06.03 17:57:02.
