data_PCOD9536714
_publ_section_title
;
Structure prediction by ZEFSAII (Michael W. Deem and Ramdas Pophale) SiO2 
 PCOD9536714
Probable space group: I M M A
;
_chemical_formula_sum "Si O2"
_cell_formula_units_Z 96
_cell_length_a 22.820658
_cell_length_b 7.434534
_cell_length_c 29.506355
_cell_angle_alpha 90.000000
_cell_angle_beta 90.000000
_cell_angle_gamma 90.000000
_cell_volume 5006.076451
_symmetry_space_group_name_H-M "I M M A"
_symmetry_group_IT_number 74
_symmetry_cell_setting 'orthorhombic'
loop_
_space_group_symop_operation_xyz
x,y,z
-x,1/2-y,z
x,-y,-z
-x,1/2+y,-z
-x,-y,-z
x,1/2+y,-z
-x,y,z
x,1/2-y,z
1/2+x,1/2+y,1/2+z
1/2-x,-y,1/2+z
1/2+x,1/2-y,1/2-z
1/2-x,y,1/2-z
1/2-x,1/2-y,1/2-z
1/2+x,y,1/2-z
1/2-x,1/2+y,1/2+z
1/2+x,-y,1/2+z
loop_
_atom_site_type_symbol
_atom_site_label
_atom_site_fract_x
_atom_site_fract_y
_atom_site_fract_z
Si Si1 0.641766 0.963390 0.550661
Si Si2 0.930605 0.536542 0.861884
Si Si3 0.113553 0.750000 0.208859
Si Si4 0.743549 0.035145 0.096303
Si Si5 0.740405 0.750000 0.326894
Si Si6 0.624229 0.750000 0.188622
Si Si7 0.500000 0.964028 0.946820
Si Si8 0.388672 0.533707 0.889021
O O1 0.640745 0.750000 0.555031
O O2 0.603102 0.029658 0.592838
O O3 0.709340 0.020603 0.558383
O O4 0.620867 0.000000 0.500000
O O5 0.918840 0.750000 0.855533
O O6 0.910039 0.421735 0.818910
O O7 0.000000 0.514073 0.868341
O O8 0.183992 0.750000 0.204354
O O9 0.096896 0.750000 0.261592
O O10 0.748023 0.250000 0.103328
O O11 0.675059 0.994328 0.088875
O O12 0.761967 0.924937 0.140726
O O13 0.805123 0.750000 0.306141
O O14 0.608656 0.576991 0.157746
O O15 0.500000 0.750000 0.941593
O O16 0.558616 0.026708 0.921435
O O17 0.500000 0.000000 0.000000
O O18 0.391889 0.750000 0.881638
#
# Coordination Sequence:
#
# PCOD9536714 Si02
#       8
#    16  16   8  16   8   8   8  16
#     4  10  21  34  56  85 113 151 196 244 304 355
#     4  10  23  43  60  81 119 160 201 252 300 359
#     4  12  22  38  66  91 118 155 206 249 303 362
#     4   9  18  35  56  80 115 159 192 237 299 354
#     4  10  19  35  62  86 123 152 188 248 300 361
#     4  10  23  38  61  96 120 160 200 245 311 347
#     4  10  22  38  62  90 118 164 204 243 305 355
#     4   9  20  40  59  83 124 160 197 249 292 358
#
# _framework density 19.176693
#
# number of rings (size 3 to 8) (size 9 to 14) (size 15 to 20)
#    0.000    2.167    1.667    0.500    3.500    1.667 
#    3.000    0.000    0.000    5.000    0.000    0.000 
#    0.000    0.000    0.000    0.000    0.000    0.000 
#
# Total GULP energy -267696.191908 kJ/mol
# GULP energy per Si atom -5577.003998 kJ/mol
# Density = 1.913305 g / cm^3
# Si number density = 19.176693 Si / 1000 Ang^3
#
#
#
# Elastic Constant Matrix: (Units=GPa)
#
#
# Indices 1 2 3 4 5 6 
#
# 1 105.7825 38.8676 77.4342 0.0000 0.0000 0.0000
# 2 38.8676 70.8906 36.1482 0.0000 0.0000 0.0000
# 3 77.4342 36.1482 143.2280 0.0000 0.0000 0.0000
# 4 0.0000 0.0000 0.0000 19.7506 0.0000 0.0000
# 5 0.0000 0.0000 0.0000 0.0000 11.9540 0.0000
# 6 0.0000 0.0000 0.0000 0.0000 0.0000 19.5002
#
#
#
# Elastic Compliance Matrix: (Units=1/GPa)
#
#
# Indices 1 2 3 4 5 6 
#
# 1 0.017279 -0.005406 -0.007977 0.000000 0.000000 0.000000
# 2 -0.005406 0.017881 -0.001590 0.000000 0.000000 0.000000
# 3 -0.007977 -0.001590 0.011696 0.000000 0.000000 0.000000
# 4 0.000000 0.000000 0.000000 0.050631 0.000000 0.000000
# 5 0.000000 0.000000 0.000000 0.000000 0.083654 0.000000
# 6 0.000000 0.000000 0.000000 0.000000 0.000000 0.051281
#
#
# Mechanical properties :
#
#
# Convention : Reuss Voigt Hill
#
# Bulk Modulus (GPa) = 59.13929 69.42235 64.28082
# Shear Modulus (GPa) = 18.65624 21.40438 20.03031
#
# Velocity S-wave (km/s) = 3.12245 3.34453 3.23540
# Velocity P-wave (km/s) = 6.62614 7.15504 6.89566
#
# Compressibility (1/GPa) = 0.01690923
#
# Stress axis : x y z
#
# Youngs Moduli (GPa) = 57.87287 55.92501 85.49868
#
# Poissons Ratio (x) = 0.30233 0.68206
# Poissons Ratio (y) = 0.31286 0.13596
# Poissons Ratio (z) = 0.46168 0.08893
#
# Static dielectric constant tensor:
#      x y z
#    x 1.699710 0.000000 0.000000 
#    y 0.000000 1.666530 0.000000 
#    z 0.000000 0.000000 1.646090 
# 
# From -- ./inp_files/61979.got.cif
#   From: 2010.05.17/outbox.cif.g08.bks.cpg/sg74_31_cif.got.tgz:61979.got - 2010.06.03 17:57:02.
