data_PCOD9536424
_publ_section_title
;
Structure prediction by ZEFSAII (Michael W. Deem and Ramdas Pophale) SiO2 
 PCOD9536424
Probable space group: I M M A
;
_chemical_formula_sum "Si O2"
_cell_formula_units_Z 92
_cell_length_a 7.899805
_cell_length_b 22.406840
_cell_length_c 28.431175
_cell_angle_alpha 90.000000
_cell_angle_beta 90.000000
_cell_angle_gamma 90.000000
_cell_volume 5032.592810
_symmetry_space_group_name_H-M "I M M A"
_symmetry_group_IT_number 74
_symmetry_cell_setting 'orthorhombic'
loop_
_space_group_symop_operation_xyz
x,y,z
-x,1/2-y,z
x,-y,-z
-x,1/2+y,-z
-x,-y,-z
x,1/2+y,-z
-x,y,z
x,1/2-y,z
1/2+x,1/2+y,1/2+z
1/2-x,-y,1/2+z
1/2+x,1/2-y,1/2-z
1/2-x,y,1/2-z
1/2-x,1/2-y,1/2-z
1/2+x,y,1/2-z
1/2-x,1/2+y,1/2+z
1/2+x,-y,1/2+z
loop_
_atom_site_type_symbol
_atom_site_label
_atom_site_fract_x
_atom_site_fract_y
_atom_site_fract_z
Si Si1 0.500000 0.750000 0.468723
Si Si2 0.296429 0.041010 0.901705
Si Si3 0.200782 0.250000 0.304605
Si Si4 0.194618 0.002973 0.302351
Si Si5 0.699773 0.622987 0.655547
Si Si6 0.800446 0.920649 0.946547
Si Si7 0.196509 0.849242 0.464145
O O1 0.346829 0.801524 0.468774
O O2 0.500000 0.032334 0.901998
O O3 0.264808 0.107171 0.920144
O O4 0.227299 0.027100 0.849217
O O5 0.224984 0.990740 0.936825
O O6 0.250000 0.250000 0.250000
O O7 0.268263 0.190022 0.328546
O O8 0.000000 0.250000 0.308551
O O9 0.250000 0.987202 0.250000
O O10 0.215725 0.073925 0.310901
O O11 0.000000 0.986913 0.304290
O O12 0.500000 0.610731 0.657196
O O13 0.757355 0.610717 0.602208
O O14 0.000000 0.909067 0.952738
O O15 0.705201 0.892382 0.990277
O O16 0.000000 0.827287 0.460135
#
# Coordination Sequence:
#
# PCOD9536424 Si02
#       7
#     4  16   8  16  16  16  16
#     4  12  26  42  58  86 114 158 200 244 284 344
#     4   9  20  36  58  87 118 151 192 235 293 354
#     4  12  24  37  52  68  94 141 199 241 284 330
#     4  10  19  34  54  82 117 144 181 231 289 347
#     4  10  21  36  52  74 107 147 190 237 283 333
#     4  10  20  35  58  87 117 151 190 242 294 347
#     4  11  23  41  62  86 120 156 198 241 291 350
#
# _framework density 18.280835
#
# number of rings (size 3 to 8) (size 9 to 14) (size 15 to 20)
#    0.000    1.739    0.870    3.652    1.217    5.565 
#    0.000    0.000    0.000    0.000    0.000    0.609 
#    0.000    0.000    0.000    0.000    0.000    0.000 
#
# Total GULP energy -256151.449100 kJ/mol
# GULP energy per Si atom -5568.509763 kJ/mol
# Density = 1.823923 g / cm^3
# Si number density = 18.280835 Si / 1000 Ang^3
#
#
#
# Elastic Constant Matrix: (Units=GPa)
#
#
# Indices 1 2 3 4 5 6 
#
# 1 74.0492 32.8092 24.7576 0.0000 0.0000 0.0000
# 2 32.8092 73.4842 36.6396 0.0000 0.0000 0.0000
# 3 24.7576 36.6396 81.4441 0.0000 0.0000 0.0000
# 4 0.0000 0.0000 0.0000 2.4257 0.0000 0.0000
# 5 0.0000 0.0000 0.0000 0.0000 18.3000 0.0000
# 6 0.0000 0.0000 0.0000 0.0000 0.0000 42.4585
#
#
#
# Elastic Compliance Matrix: (Units=1/GPa)
#
#
# Indices 1 2 3 4 5 6 
#
# 1 0.017157 -0.006523 -0.002281 0.000000 0.000000 0.000000
# 2 -0.006523 0.020024 -0.007025 0.000000 0.000000 0.000000
# 3 -0.002281 -0.007025 0.016132 0.000000 0.000000 0.000000
# 4 0.000000 0.000000 0.000000 0.412245 0.000000 0.000000
# 5 0.000000 0.000000 0.000000 0.000000 0.054645 0.000000
# 6 0.000000 0.000000 0.000000 0.000000 0.000000 0.023552
#
#
# Mechanical properties :
#
#
# Convention : Reuss Voigt Hill
#
# Bulk Modulus (GPa) = 46.17953 46.37671 46.27812
# Shear Modulus (GPa) = 8.58175 21.62157 15.10166
#
# Velocity S-wave (km/s) = 2.16901 3.44284 2.87730
# Velocity P-wave (km/s) = 5.62039 6.42093 6.03395
#
# Compressibility (1/GPa) = 0.02165462
#
# Stress axis : x y z
#
# Youngs Moduli (GPa) = 58.28403 49.94106 61.98783
#
# Poissons Ratio (x) = 0.32577 0.14139
# Poissons Ratio (y) = 0.38019 0.43548
# Poissons Ratio (z) = 0.13294 0.35085
#
# Static dielectric constant tensor:
#      x y z
#    x 1.652330 0.000000 0.000000 
#    y 0.000000 0.672620 0.000000 
#    z 0.000000 0.000000 1.671690 
# 
# From -- ./inp_files/64392.got.cif
#   From: 2010.05.17/outbox.cif.g08.bks.cpg/sg74_33_cif.got.tgz:64392.got - 2010.06.03 17:57:02.
