data_PCOD9536286
_publ_section_title
;
Structure prediction by ZEFSAII (Michael W. Deem and Ramdas Pophale) SiO2 
 PCOD9536286
Probable space group: I M M A
;
_chemical_formula_sum "Si O2"
_cell_formula_units_Z 116
_cell_length_a 7.690000
_cell_length_b 32.114509
_cell_length_c 22.660291
_cell_angle_alpha 90.000000
_cell_angle_beta 90.000000
_cell_angle_gamma 90.000000
_cell_volume 5596.198477
_symmetry_space_group_name_H-M "I M M A"
_symmetry_group_IT_number 74
_symmetry_cell_setting 'orthorhombic'
loop_
_space_group_symop_operation_xyz
x,y,z
-x,1/2-y,z
x,-y,-z
-x,1/2+y,-z
-x,-y,-z
x,1/2+y,-z
-x,y,z
x,1/2-y,z
1/2+x,1/2+y,1/2+z
1/2-x,-y,1/2+z
1/2+x,1/2-y,1/2-z
1/2-x,y,1/2-z
1/2-x,1/2-y,1/2-z
1/2+x,y,1/2-z
1/2-x,1/2+y,1/2+z
1/2+x,-y,1/2+z
loop_
_atom_site_type_symbol
_atom_site_label
_atom_site_fract_x
_atom_site_fract_y
_atom_site_fract_z
Si Si1 0.198899 0.027425 0.864510
Si Si2 0.292876 0.382159 0.073446
Si Si3 0.210004 0.203556 0.477200
Si Si4 0.291468 0.313897 0.884206
Si Si5 0.200965 0.045468 0.510210
Si Si6 0.000000 0.750000 0.155388
Si Si7 0.796476 0.392717 0.688013
Si Si8 0.206939 0.938564 0.818706
O O1 0.294260 0.048589 0.919669
O O2 0.202149 0.063136 0.815732
O O3 0.000000 0.020294 0.882416
O O4 0.274494 0.983292 0.843202
O O5 0.500000 0.379135 0.063009
O O6 0.224017 0.335805 0.060516
O O7 0.266510 0.401777 0.137933
O O8 0.222178 0.416346 0.026560
O O9 0.277619 0.250000 0.463316
O O10 0.241217 0.194229 0.546421
O O11 0.000000 0.205411 0.470346
O O12 0.500000 0.305647 0.873479
O O13 0.155501 0.285664 0.849326
O O14 0.256759 0.361211 0.864897
O O15 0.000000 0.042748 0.490114
O O16 0.282178 0.000000 0.500000
O O17 0.750000 0.371573 0.750000
O O18 0.000000 0.401227 0.686809
O O19 0.250000 0.933178 0.750000
O O20 0.000000 0.940503 0.822839
#
# Coordination Sequence:
#
# PCOD9536286 Si02
#       8
#    16  16  16  16  16   4  16  16
#     4  11  23  37  58  86 118 156 200 245 294 350
#     4  10  20  36  59  86 116 158 195 237 298 354
#     4   9  17  35  61  87 120 152 191 239 297 364
#     4  10  22  41  63  89 123 158 199 254 310 370
#     4  10  19  33  55  84 119 155 192 233 288 357
#     4  12  22  36  70  90 118 158 208 250 316 368
#     4  11  24  41  62  83 116 155 203 256 303 356
#     4  11  24  40  57  82 116 155 197 245 291 348
#
# _framework density 20.728358
#
# number of rings (size 3 to 8) (size 9 to 14) (size 15 to 20)
#    0.000    1.655    2.069    2.690    1.931    5.793 
#    1.241    0.345    0.000    0.414    0.000    0.000 
#    0.000    0.000    0.000    0.000    0.000    0.000 
#
# Total GULP energy -323142.306958 kJ/mol
# GULP energy per Si atom -5571.419085 kJ/mol
# Density = 2.068118 g / cm^3
# Si number density = 20.728358 Si / 1000 Ang^3
#
#
#
# Elastic Constant Matrix: (Units=GPa)
#
#
# Indices 1 2 3 4 5 6 
#
# 1 52.9600 22.4267 -3.8058 0.0000 0.0000 0.0000
# 2 22.4267 184.1067 67.3965 0.0000 0.0000 0.0000
# 3 -3.8058 67.3965 86.7662 0.0000 0.0000 0.0000
# 4 0.0000 0.0000 0.0000 -28.8575 0.0000 0.0000
# 5 0.0000 0.0000 0.0000 0.0000 19.1762 0.0000
# 6 0.0000 0.0000 0.0000 0.0000 0.0000 24.3570
#
#
#
# Elastic Compliance Matrix: (Units=1/GPa)
#
#
# Indices 1 2 3 4 5 6 
#
# 1 0.020875 -0.004022 0.004040 0.000000 0.000000 0.000000
# 2 -0.004022 0.008365 -0.006674 0.000000 0.000000 0.000000
# 3 0.004040 -0.006674 0.016886 0.000000 0.000000 0.000000
# 4 0.000000 0.000000 0.000000 -0.034653 0.000000 0.000000
# 5 0.000000 0.000000 0.000000 0.000000 0.052148 0.000000
# 6 0.000000 0.000000 0.000000 0.000000 0.000000 0.041056
#
#
# Mechanical properties :
#
#
# Convention : Reuss Voigt Hill
#
# Bulk Modulus (GPa) = 30.47418 55.09642 42.78530
# Shear Modulus (GPa) = 38.78158 18.78949 28.78553
#
# Velocity S-wave (km/s) = 4.33013 3.01402 3.73057
# Velocity P-wave (km/s) = 6.30346 6.22498 6.26434
#
# Compressibility (1/GPa) = 0.03281467
#
# Stress axis : x y z
#
# Youngs Moduli (GPa) = 47.90307 119.55177 59.21984
#
# Poissons Ratio (x) = 0.48080 -0.23922
# Poissons Ratio (y) = 0.19265 0.39521
# Poissons Ratio (z) = -0.19351 0.79785
#
# Static dielectric constant tensor:
#      x y z
#    x 1.767670 0.000000 0.000000 
#    y 0.000000 1.796840 0.000000 
#    z 0.000000 0.000000 1.810140 
# 
# From -- ./inp_files/57935.got.cif
#   From: 2010.05.17/outbox.cif.g08.bks.cpg/sg74_29_cif.got.tgz:57935.got - 2010.06.03 17:57:02.
