data_PCOD9536185
_publ_section_title
;
Structure prediction by ZEFSAII (Michael W. Deem and Ramdas Pophale) SiO2 
 PCOD9536185
Probable space group: I M M A
;
_chemical_formula_sum "Si O2"
_cell_formula_units_Z 116
_cell_length_a 27.840345
_cell_length_b 8.456876
_cell_length_c 27.420439
_cell_angle_alpha 90.000000
_cell_angle_beta 90.000000
_cell_angle_gamma 90.000000
_cell_volume 6455.932472
_symmetry_space_group_name_H-M "I M M A"
_symmetry_group_IT_number 74
_symmetry_cell_setting 'orthorhombic'
loop_
_space_group_symop_operation_xyz
x,y,z
-x,1/2-y,z
x,-y,-z
-x,1/2+y,-z
-x,-y,-z
x,1/2+y,-z
-x,y,z
x,1/2-y,z
1/2+x,1/2+y,1/2+z
1/2-x,-y,1/2+z
1/2+x,1/2-y,1/2-z
1/2-x,y,1/2-z
1/2-x,1/2-y,1/2-z
1/2+x,y,1/2-z
1/2-x,1/2+y,1/2+z
1/2+x,-y,1/2+z
loop_
_atom_site_type_symbol
_atom_site_label
_atom_site_fract_x
_atom_site_fract_y
_atom_site_fract_z
Si Si1 0.686876 0.437799 0.415919
Si Si2 0.056183 0.064253 0.822794
Si Si3 0.370419 0.566119 0.754020
Si Si4 0.288905 0.935444 0.312629
Si Si5 0.000000 0.000000 0.000000
Si Si6 0.580196 0.064754 0.427659
Si Si7 0.818492 0.940116 0.342439
Si Si8 0.212115 0.939891 0.449240
O O1 0.688833 0.250000 0.404872
O O2 0.688779 0.536262 0.365913
O O3 0.635528 0.467861 0.440265
O O4 0.734458 0.487160 0.444559
O O5 0.061592 0.250000 0.833855
O O6 0.000000 0.030578 0.814133
O O7 0.088508 0.023808 0.776054
O O8 0.073352 0.968017 0.870245
O O9 0.381387 0.750000 0.752607
O O10 0.321039 0.531019 0.724864
O O11 0.359997 0.510873 0.809032
O O12 0.290687 0.750000 0.299527
O O13 0.233470 0.983875 0.319196
O O14 0.957904 0.030636 0.958903
O O15 0.568847 0.250000 0.437336
O O16 0.821305 0.750000 0.340366
O O17 0.815471 0.986337 0.399405
O O18 0.216090 0.750000 0.449518
O O19 0.190591 0.000000 0.500000
#
# Coordination Sequence:
#
# PCOD9536185 Si02
#       8
#    16  16  16  16   4  16  16  16
#     4  10  20  34  53  78 103 135 180 227 277 331
#     4  11  24  41  62  82 103 138 181 227 283 342
#     4  12  23  34  54  82 110 143 178 221 275 330
#     4  10  19  33  53  78 108 143 178 219 270 326
#     4  12  26  40  56  78 102 136 180 238 300 340
#     4  11  24  41  58  77 101 133 178 235 291 337
#     4   9  20  36  53  77 111 146 181 222 266 318
#     4  10  21  37  56  79 108 146 183 222 269 316
#
# _framework density 17.967969
#
# number of rings (size 3 to 8) (size 9 to 14) (size 15 to 20)
#    0.000    1.517    2.069    4.345    0.966    7.448 
#    0.000    0.000    0.000    0.000    0.000    0.000 
#    0.000    0.552    0.000    1.793    0.000    2.207 
#
# Total GULP energy -323469.723412 kJ/mol
# GULP energy per Si atom -5577.064197 kJ/mol
# Density = 1.792707 g / cm^3
# Si number density = 17.967969 Si / 1000 Ang^3
#
#
#
# Elastic Constant Matrix: (Units=GPa)
#
#
# Indices 1 2 3 4 5 6 
#
# 1 38.9218 9.1642 30.5188 0.0000 0.0000 0.0000
# 2 9.1642 27.9148 5.2405 0.0000 0.0000 0.0000
# 3 30.5188 5.2405 91.2049 0.0000 0.0000 0.0000
# 4 0.0000 0.0000 0.0000 17.5156 0.0000 0.0000
# 5 0.0000 0.0000 0.0000 0.0000 33.1866 0.0000
# 6 0.0000 0.0000 0.0000 0.0000 0.0000 21.1330
#
#
#
# Elastic Compliance Matrix: (Units=1/GPa)
#
#
# Indices 1 2 3 4 5 6 
#
# 1 0.037424 -0.010043 -0.011946 0.000000 0.000000 0.000000
# 2 -0.010043 0.038909 0.001125 0.000000 0.000000 0.000000
# 3 -0.011946 0.001125 0.014897 0.000000 0.000000 0.000000
# 4 0.000000 0.000000 0.000000 0.057092 0.000000 0.000000
# 5 0.000000 0.000000 0.000000 0.000000 0.030133 0.000000
# 6 0.000000 0.000000 0.000000 0.000000 0.000000 0.047319
#
#
# Mechanical properties :
#
#
# Convention : Reuss Voigt Hill
#
# Bulk Modulus (GPa) = 20.20119 27.54317 23.87218
# Shear Modulus (GPa) = 17.60547 21.90825 19.75686
#
# Velocity S-wave (km/s) = 3.13361 3.49563 3.31956
# Velocity P-wave (km/s) = 4.93558 5.62627 5.29220
#
# Compressibility (1/GPa) = 0.04950204
#
# Stress axis : x y z
#
# Youngs Moduli (GPa) = 26.72091 25.70081 67.12810
#
# Poissons Ratio (x) = 0.25812 0.80189
# Poissons Ratio (y) = 0.26837 -0.07552
# Poissons Ratio (z) = 0.31920 -0.02891
#
# Static dielectric constant tensor:
#      x y z
#    x 1.649260 0.000000 0.000000 
#    y 0.000000 1.632440 0.000000 
#    z 0.000000 0.000000 1.644590 
# 
# From -- ./inp_files/69045.got.cif
#   From: 2010.05.17/outbox.cif.g08.bks.cpg/sg74_35_cif.got.tgz:69045.got - 2010.06.03 17:57:02.
