data_PCOD9536333
_publ_section_title
;
Structure prediction by ZEFSAII (Michael W. Deem and Ramdas Pophale) SiO2 
 PCOD9536333
Probable space group: I M M A
;
_chemical_formula_sum "Si O2"
_cell_formula_units_Z 96
_cell_length_a 21.909247
_cell_length_b 22.389371
_cell_length_c 11.544682
_cell_angle_alpha 90.000000
_cell_angle_beta 90.000000
_cell_angle_gamma 90.000000
_cell_volume 5663.062035
_symmetry_space_group_name_H-M "I M M A"
_symmetry_group_IT_number 74
_symmetry_cell_setting 'orthorhombic'
loop_
_space_group_symop_operation_xyz
x,y,z
-x,1/2-y,z
x,-y,-z
-x,1/2+y,-z
-x,-y,-z
x,1/2+y,-z
-x,y,z
x,1/2-y,z
1/2+x,1/2+y,1/2+z
1/2-x,-y,1/2+z
1/2+x,1/2-y,1/2-z
1/2-x,y,1/2-z
1/2-x,1/2-y,1/2-z
1/2+x,y,1/2-z
1/2-x,1/2+y,1/2+z
1/2+x,-y,1/2+z
loop_
_atom_site_type_symbol
_atom_site_label
_atom_site_fract_x
_atom_site_fract_y
_atom_site_fract_z
Si Si1 0.232501 0.750000 0.073002
Si Si2 0.659239 0.071282 0.002577
Si Si3 0.208598 0.119831 0.008917
Si Si4 0.895110 0.039433 0.890054
Si Si5 0.929657 0.872446 0.312410
Si Si6 0.682499 0.558618 0.740687
Si Si7 0.145972 0.750000 0.296041
O O1 0.192630 0.750000 0.189553
O O2 0.305611 0.750000 0.097092
O O3 0.212814 0.810425 0.011395
O O4 0.726703 0.092893 0.967234
O O5 0.657520 0.085377 0.139854
O O6 0.608511 0.097382 0.917365
O O7 0.656881 0.000000 0.000000
O O8 0.195878 0.107525 0.143394
O O9 0.156343 0.082786 0.943960
O O10 0.929371 0.083686 0.800514
O O11 0.863494 0.989905 0.809310
O O12 0.921500 0.000000 0.000000
O O13 0.895203 0.809508 0.290873
O O14 0.000000 0.862224 0.344771
O O15 0.750000 0.528880 0.750000
#
# Coordination Sequence:
#
# PCOD9536333 Si02
#       7
#     8  16  16  16  16  16   8
#     4  11  20  34  62  88 110 147 188 245 289 351
#     4  11  20  35  56  84 118 146 187 235 290 352
#     4  10  19  33  57  87 116 142 180 237 305 343
#     4  10  20  35  57  85 116 143 185 242 295 344
#     4  12  25  39  58  81 115 160 200 237 279 339
#     4   9  18  32  53  84 118 145 169 226 302 349
#     4  11  23  40  57  85 120 145 191 244 295 340
#
# _framework density 16.95196
#
# number of rings (size 3 to 8) (size 9 to 14) (size 15 to 20)
#    0.000    1.500    5.000    2.750    0.000    0.667 
#    0.000    4.583    0.000    0.000    0.000    0.000 
#    0.000    0.000    0.000    0.000    0.000    0.000 
#
# Total GULP energy -267301.099142 kJ/mol
# GULP energy per Si atom -5568.772899 kJ/mol
# Density = 1.691338 g / cm^3
# Si number density = 16.951960 Si / 1000 Ang^3
#
#
#
# Elastic Constant Matrix: (Units=GPa)
#
#
# Indices 1 2 3 4 5 6 
#
# 1 95.0876 45.5720 45.4683 0.0000 0.0000 0.0000
# 2 45.5720 129.7371 34.0196 0.0000 0.0000 0.0000
# 3 45.4683 34.0196 86.3012 0.0000 0.0000 0.0000
# 4 0.0000 0.0000 0.0000 1.5461 0.0000 0.0000
# 5 0.0000 0.0000 0.0000 0.0000 6.4328 0.0000
# 6 0.0000 0.0000 0.0000 0.0000 0.0000 6.1707
#
#
#
# Elastic Compliance Matrix: (Units=1/GPa)
#
#
# Indices 1 2 3 4 5 6 
#
# 1 0.015489 -0.003681 -0.006709 0.000000 0.000000 0.000000
# 2 -0.003681 0.009472 -0.001794 0.000000 0.000000 0.000000
# 3 -0.006709 -0.001794 0.015829 0.000000 0.000000 0.000000
# 4 0.000000 0.000000 0.000000 0.646802 0.000000 0.000000
# 5 0.000000 0.000000 0.000000 0.000000 0.155453 0.000000
# 6 0.000000 0.000000 0.000000 0.000000 0.000000 0.162055
#
#
# Mechanical properties :
#
#
# Convention : Reuss Voigt Hill
#
# Bulk Modulus (GPa) = 60.89991 62.36064 61.63028
# Shear Modulus (GPa) = 4.83118 15.23432 10.03275
#
# Velocity S-wave (km/s) = 1.69000 3.00104 2.43540
# Velocity P-wave (km/s) = 6.30961 6.99106 6.65906
#
# Compressibility (1/GPa) = 0.01642039
#
# Stress axis : x y z
#
# Youngs Moduli (GPa) = 64.56089 105.57987 63.17363
#
# Poissons Ratio (x) = 0.38869 0.42385
# Poissons Ratio (y) = 0.23768 0.11333
# Poissons Ratio (z) = 0.43316 0.18941
#
# Static dielectric constant tensor:
#      x y z
#    x 1.569490 0.000000 0.000000 
#    y 0.000000 1.553510 0.000000 
#    z 0.000000 0.000000 1.621960 
# 
# From -- ./inp_files/23973.got.cif
#   From: 2010.05.17/outbox.cif.g08.bks.cpg/sg74_12_cif.got.tgz:23973.got - 2010.06.03 17:57:02.
