data_PCOD9536745
_publ_section_title
;
Structure prediction by ZEFSAII (Michael W. Deem and Ramdas Pophale) SiO2 
 PCOD9536745
Probable space group: I M M A
;
_chemical_formula_sum "Si O2"
_cell_formula_units_Z 72
_cell_length_a 9.225748
_cell_length_b 27.274218
_cell_length_c 14.918083
_cell_angle_alpha 90.000000
_cell_angle_beta 90.000000
_cell_angle_gamma 90.000000
_cell_volume 3753.763562
_symmetry_space_group_name_H-M "I M M A"
_symmetry_group_IT_number 74
_symmetry_cell_setting 'orthorhombic'
loop_
_space_group_symop_operation_xyz
x,y,z
-x,1/2-y,z
x,-y,-z
-x,1/2+y,-z
-x,-y,-z
x,1/2+y,-z
-x,y,z
x,1/2-y,z
1/2+x,1/2+y,1/2+z
1/2-x,-y,1/2+z
1/2+x,1/2-y,1/2-z
1/2-x,y,1/2-z
1/2-x,1/2-y,1/2-z
1/2+x,y,1/2-z
1/2-x,1/2+y,1/2+z
1/2+x,-y,1/2+z
loop_
_atom_site_type_symbol
_atom_site_label
_atom_site_fract_x
_atom_site_fract_y
_atom_site_fract_z
Si Si1 0.666307 0.511537 0.894001
Si Si2 0.826009 0.154664 0.534560
Si Si3 0.827299 0.250000 0.653858
Si Si4 0.328723 0.581129 0.338583
Si Si5 0.828549 0.875221 0.657402
O O1 0.500000 0.500538 0.864283
O O2 0.780045 0.475106 0.849210
O O3 0.697543 0.567986 0.871336
O O4 0.670794 0.500000 0.000000
O O5 0.793289 0.202500 0.593350
O O6 0.738302 0.110282 0.578268
O O7 0.788968 0.157283 0.429364
O O8 0.000000 0.144787 0.540122
O O9 0.750000 0.250000 0.750000
O O10 0.000000 0.250000 0.669685
O O11 0.500000 0.586489 0.332775
O O12 0.250000 0.601217 0.250000
O O13 0.750000 0.864117 0.750000
O O14 0.000000 0.870266 0.671441
#
# Coordination Sequence:
#
# PCOD9536745 Si02
#       5
#    16  16   8  16  16
#     4  10  19  36  58  81 114 157 196 240 290 339
#     4  10  21  41  62  85 115 152 192 240 295 353
#     4  10  22  40  67  92 116 146 187 236 297 360
#     4  12  24  36  55  84 117 155 195 240 287 347
#     4  10  21  37  59  83 116 156 197 239 287 341
#
# _framework density 19.180748999999999
#
# number of rings (size 3 to 8) (size 9 to 14) (size 15 to 20)
#    0.000    1.556    2.222    3.333    0.000    6.667 
#    0.000    0.556    0.000    0.000    0.000    0.000 
#    0.000    0.000    0.000    0.000    0.000    0.000 
#
# Total GULP energy -201116.058215 kJ/mol
# GULP energy per Si atom -5586.557173 kJ/mol
# Density = 1.913709 g / cm^3
# Si number density = 19.180749 Si / 1000 Ang^3
#
#
#
# Elastic Constant Matrix: (Units=GPa)
#
#
# Indices 1 2 3 4 5 6 
#
# 1 70.1356 38.5028 66.1593 0.0000 0.0000 0.0000
# 2 38.5028 67.5077 48.9225 0.0000 0.0000 0.0000
# 3 66.1593 48.9225 182.8050 0.0000 0.0000 0.0000
# 4 0.0000 0.0000 0.0000 23.8948 0.0000 0.0000
# 5 0.0000 0.0000 0.0000 0.0000 34.5826 0.0000
# 6 0.0000 0.0000 0.0000 0.0000 0.0000 9.1535
#
#
#
# Elastic Compliance Matrix: (Units=1/GPa)
#
#
# Indices 1 2 3 4 5 6 
#
# 1 0.026148 -0.009994 -0.006789 0.000000 0.000000 0.000000
# 2 -0.009994 0.022197 -0.002323 0.000000 0.000000 0.000000
# 3 -0.006789 -0.002323 0.008549 0.000000 0.000000 0.000000
# 4 0.000000 0.000000 0.000000 0.041850 0.000000 0.000000
# 5 0.000000 0.000000 0.000000 0.000000 0.028916 0.000000
# 6 0.000000 0.000000 0.000000 0.000000 0.000000 0.109248
#
#
# Mechanical properties :
#
#
# Convention : Reuss Voigt Hill
#
# Bulk Modulus (GPa) = 53.52719 69.73528 61.63124
# Shear Modulus (GPa) = 17.77157 24.65044 21.21100
#
# Velocity S-wave (km/s) = 3.04720 3.58881 3.32904
# Velocity P-wave (km/s) = 6.35200 7.32179 6.85407
#
# Compressibility (1/GPa) = 0.01868209
#
# Stress axis : x y z
#
# Youngs Moduli (GPa) = 38.24315 45.05140 116.97135
#
# Poissons Ratio (x) = 0.45024 0.79411
# Poissons Ratio (y) = 0.38219 0.27178
# Poissons Ratio (z) = 0.25963 0.10468
#
# Static dielectric constant tensor:
#      x y z
#    x 1.640310 0.000000 0.000000 
#    y 0.000000 1.688420 0.000000 
#    z 0.000000 0.000000 1.697680 
# 
# From -- ./inp_files/29168.got.cif
#   From: 2010.05.17/outbox.cif.g08.bks.cpg/sg74_15_cif.got.tgz:29168.got - 2010.06.03 17:57:02.
