data_PCOD9536624
_publ_section_title
;
Structure prediction by ZEFSAII (Michael W. Deem and Ramdas Pophale) SiO2 
 PCOD9536624
Probable space group: I M M A
;
_chemical_formula_sum "Si O2"
_cell_formula_units_Z 116
_cell_length_a 32.228558
_cell_length_b 7.973057
_cell_length_c 23.193295
_cell_angle_alpha 90.000000
_cell_angle_beta 90.000000
_cell_angle_gamma 90.000000
_cell_volume 5959.752097
_symmetry_space_group_name_H-M "I M M A"
_symmetry_group_IT_number 74
_symmetry_cell_setting 'orthorhombic'
loop_
_space_group_symop_operation_xyz
x,y,z
-x,1/2-y,z
x,-y,-z
-x,1/2+y,-z
-x,-y,-z
x,1/2+y,-z
-x,y,z
x,1/2-y,z
1/2+x,1/2+y,1/2+z
1/2-x,-y,1/2+z
1/2+x,1/2-y,1/2-z
1/2-x,y,1/2-z
1/2-x,1/2-y,1/2-z
1/2+x,y,1/2-z
1/2-x,1/2+y,1/2+z
1/2+x,-y,1/2+z
loop_
_atom_site_type_symbol
_atom_site_label
_atom_site_fract_x
_atom_site_fract_y
_atom_site_fract_z
Si Si1 0.297976 0.950131 0.266634
Si Si2 0.306530 0.047283 0.602076
Si Si3 0.281426 0.942946 0.060703
Si Si4 0.065706 0.546761 0.696467
Si Si5 0.897310 0.550551 0.936196
Si Si6 0.500000 0.250000 0.828029
Si Si7 0.547937 0.047525 0.328731
Si Si8 0.843088 0.439588 0.344271
O O1 0.306310 0.750000 0.262696
O O2 0.250000 0.974469 0.250000
O O3 0.306849 0.008082 0.331274
O O4 0.324912 0.043117 0.219601
O O5 0.304773 0.250000 0.603355
O O6 0.263810 0.978265 0.574511
O O7 0.349294 0.999820 0.571825
O O8 0.272231 0.750000 0.053163
O O9 0.313537 0.960245 0.112795
O O10 0.299340 0.000000 0.000000
O O11 0.054765 0.750000 0.690560
O O12 0.067791 0.515531 0.765908
O O13 0.108833 0.519757 0.663291
O O14 0.035208 0.402305 0.674435
O O15 0.899129 0.750000 0.932993
O O16 0.925058 0.483253 0.882772
O O17 0.911929 0.500000 0.000000
O O18 0.500000 0.985750 0.328551
O O19 0.545949 0.250000 0.333957
O O20 0.839671 0.250000 0.365232
#
# Coordination Sequence:
#
# PCOD9536624 Si02
#       8
#    16  16  16  16  16   4  16  16
#     4  10  19  35  56  84 120 156 194 247 301 350
#     4  10  21  38  58  81 113 157 197 247 297 349
#     4  11  23  40  60  83 117 157 205 248 291 347
#     4  10  22  40  61  94 131 156 196 249 298 373
#     4  11  23  38  55  78 108 151 203 252 305 358
#     4  12  22  36  68  98 122 164 198 228 322 364
#     4   9  18  38  61  79 114 151 185 246 311 358
#     4  11  23  38  59  89 126 161 198 245 301 355
#
# _framework density 19.463898
#
# number of rings (size 3 to 8) (size 9 to 14) (size 15 to 20)
#    0.000    1.655    2.069    2.690    1.931    4.414 
#    2.483    0.000    0.000    0.000    0.000    0.483 
#    0.000    0.000    0.000    0.000    0.000    0.000 
#
# Total GULP energy -323021.927224 kJ/mol
# GULP energy per Si atom -5569.343573 kJ/mol
# Density = 1.941960 g / cm^3
# Si number density = 19.463898 Si / 1000 Ang^3
#
#
#
# Elastic Constant Matrix: (Units=GPa)
#
#
# Indices 1 2 3 4 5 6 
#
# 1 68.7235 22.1607 20.8595 0.0000 0.0000 0.0000
# 2 22.1607 39.7580 5.2807 0.0000 0.0000 0.0000
# 3 20.8595 5.2807 50.1740 0.0000 0.0000 0.0000
# 4 0.0000 0.0000 0.0000 24.1990 0.0000 0.0000
# 5 0.0000 0.0000 0.0000 0.0000 382.0470 0.0000
# 6 0.0000 0.0000 0.0000 0.0000 0.0000 24.9234
#
#
#
# Elastic Compliance Matrix: (Units=1/GPa)
#
#
# Indices 1 2 3 4 5 6 
#
# 1 0.020047 -0.010210 -0.007260 0.000000 0.000000 0.000000
# 2 -0.010210 0.030708 0.001013 0.000000 0.000000 0.000000
# 3 -0.007260 0.001013 0.022842 0.000000 0.000000 0.000000
# 4 0.000000 0.000000 0.000000 0.041324 0.000000 0.000000
# 5 0.000000 0.000000 0.000000 0.000000 0.002617 0.000000
# 6 0.000000 0.000000 0.000000 0.000000 0.000000 0.040123
#
#
# Mechanical properties :
#
#
# Convention : Reuss Voigt Hill
#
# Bulk Modulus (GPa) = 24.57975 28.36190 26.47083
# Shear Modulus (GPa) = 24.49337 93.59086 59.04211
#
# Velocity S-wave (km/s) = 3.55124 6.94181 5.51362
# Velocity P-wave (km/s) = 5.42871 8.88002 7.35954
#
# Compressibility (1/GPa) = 0.04068389
#
# Stress axis : x y z
#
# Youngs Moduli (GPa) = 49.88319 32.56436 43.77852
#
# Poissons Ratio (x) = 0.33247 0.31782
# Poissons Ratio (y) = 0.50929 -0.04433
# Poissons Ratio (z) = 0.36214 -0.03298
#
# Static dielectric constant tensor:
#      x y z
#    x 1.720760 0.000000 0.000000 
#    y 0.000000 1.707070 0.000000 
#    z 0.000000 0.000000 1.674150 
# 
# From -- ./inp_files/62749.got.cif
#   From: 2010.05.17/outbox.cif.g08.bks.cpg/sg74_32_cif.got.tgz:62749.got - 2010.06.03 17:57:02.
