data_PCOD9536730
_publ_section_title
;
Structure prediction by ZEFSAII (Michael W. Deem and Ramdas Pophale) SiO2 
 PCOD9536730
Probable space group: I M M A
;
_chemical_formula_sum "Si O2"
_cell_formula_units_Z 96
_cell_length_a 7.890658
_cell_length_b 26.287921
_cell_length_c 24.279478
_cell_angle_alpha 90.000000
_cell_angle_beta 90.000000
_cell_angle_gamma 90.000000
_cell_volume 5036.267700
_symmetry_space_group_name_H-M "I M M A"
_symmetry_group_IT_number 74
_symmetry_cell_setting 'orthorhombic'
loop_
_space_group_symop_operation_xyz
x,y,z
-x,1/2-y,z
x,-y,-z
-x,1/2+y,-z
-x,-y,-z
x,1/2+y,-z
-x,y,z
x,1/2-y,z
1/2+x,1/2+y,1/2+z
1/2-x,-y,1/2+z
1/2+x,1/2-y,1/2-z
1/2-x,y,1/2-z
1/2-x,1/2-y,1/2-z
1/2+x,y,1/2-z
1/2-x,1/2+y,1/2+z
1/2+x,-y,1/2+z
loop_
_atom_site_type_symbol
_atom_site_label
_atom_site_fract_x
_atom_site_fract_y
_atom_site_fract_z
Si Si1 0.704582 0.192043 0.812589
Si Si2 0.300903 0.899166 0.112709
Si Si3 0.704355 0.807120 0.686837
Si Si4 0.202703 0.994965 0.186073
Si Si5 0.701500 0.057592 0.496349
Si Si6 0.207621 0.095839 0.120439
O O1 0.500000 0.192624 0.815753
O O2 0.765483 0.250000 0.821659
O O3 0.750000 0.177196 0.750000
O O4 0.769079 0.150754 0.856289
O O5 0.500000 0.891284 0.104561
O O6 0.227552 0.913147 0.053304
O O7 0.275139 0.947170 0.152912
O O8 0.500000 0.806060 0.683182
O O9 0.767169 0.750000 0.674416
O O10 0.750000 0.818938 0.750000
O O11 0.767252 0.851529 0.647035
O O12 0.250000 0.993583 0.250000
O O13 0.258891 0.047616 0.157654
O O14 0.000000 0.992254 0.180889
O O15 0.500000 0.052457 0.487971
O O16 0.766176 0.085849 0.441868
O O17 0.771655 0.000000 0.500000
O O18 0.000000 0.097141 0.120987
#
# Coordination Sequence:
#
# PCOD9536730 Si02
#       6
#    16  16  16  16  16  16
#     4   9  19  36  56  77 104 137 171 210 260 313
#     4  11  22  35  53  79 106 135 174 218 261 308
#     4   9  17  31  52  76 102 132 167 209 254 303
#     4  11  21  34  51  75 106 137 169 210 262 315
#     4  10  19  36  56  73 100 143 179 211 258 311
#     4   9  18  33  52  73 100 135 173 208 255 308
#
# _framework density 19.061734999999999
#
# number of rings (size 3 to 8) (size 9 to 14) (size 15 to 20)
#    0.000    2.167    1.667    2.000    0.000    3.000 
#    0.000    2.500    0.000    1.000    0.000    0.000 
#    0.000    0.000    0.000    0.000    0.000    0.000 
#
# Total GULP energy -267936.834045 kJ/mol
# GULP energy per Si atom -5582.017376 kJ/mol
# Density = 1.901835 g / cm^3
# Si number density = 19.061735 Si / 1000 Ang^3
#
#
#
# Elastic Constant Matrix: (Units=GPa)
#
#
# Indices 1 2 3 4 5 6 
#
# 1 13.6934 -2.4711 -12.2482 0.0000 0.0000 0.0000
# 2 -2.4711 144.8157 97.6835 0.0000 0.0000 0.0000
# 3 -12.2482 97.6835 154.8265 0.0000 0.0000 0.0000
# 4 0.0000 0.0000 0.0000 22.9802 0.0000 0.0000
# 5 0.0000 0.0000 0.0000 0.0000 27.7608 0.0000
# 6 0.0000 0.0000 0.0000 0.0000 0.0000 -2.2905
#
#
#
# Elastic Compliance Matrix: (Units=1/GPa)
#
#
# Indices 1 2 3 4 5 6 
#
# 1 0.080695 -0.005099 0.009601 0.000000 0.000000 0.000000
# 2 -0.005099 0.012344 -0.008191 0.000000 0.000000 0.000000
# 3 0.009601 -0.008191 0.012386 0.000000 0.000000 0.000000
# 4 0.000000 0.000000 0.000000 0.043516 0.000000 0.000000
# 5 0.000000 0.000000 0.000000 0.000000 0.036022 0.000000
# 6 0.000000 0.000000 0.000000 0.000000 0.000000 -0.436590
#
#
# Mechanical properties :
#
#
# Convention : Reuss Voigt Hill
#
# Bulk Modulus (GPa) = 10.19927 53.25155 31.72541
# Shear Modulus (GPa) = -23.63332 25.04819 0.70743
#
# Velocity S-wave (km/s) = -3.52494 3.62892 0.60986
# Velocity P-wave (km/s) = 3.34734 6.74950 4.14434
#
# Compressibility (1/GPa) = 0.09804626
#
# Stress axis : x y z
#
# Youngs Moduli (GPa) = 12.39230 81.01356 80.73367
#
# Poissons Ratio (x) = 0.41310 -0.77512
# Poissons Ratio (y) = 0.06319 0.66131
# Poissons Ratio (z) = -0.11898 0.66360
#
# Static dielectric constant tensor:
#      x y z
#    x 1.700790 0.000000 0.000000 
#    y 0.000000 1.670880 0.000000 
#    z 0.000000 0.000000 1.623040 
# 
# From -- ./inp_files/49163.got.cif
#   From: 2010.05.17/outbox.cif.g08.bks.cpg/sg74_25_cif.got.tgz:49163.got - 2010.06.03 17:57:02.
