data_PCOD9536750
_publ_section_title
;
Structure prediction by ZEFSAII (Michael W. Deem and Ramdas Pophale) SiO2 
 PCOD9536750
Probable space group: I M M A
;
_chemical_formula_sum "Si O2"
_cell_formula_units_Z 96
_cell_length_a 8.834624
_cell_length_b 24.979523
_cell_length_c 22.785968
_cell_angle_alpha 90.000000
_cell_angle_beta 90.000000
_cell_angle_gamma 90.000000
_cell_volume 5028.514362
_symmetry_space_group_name_H-M "I M M A"
_symmetry_group_IT_number 74
_symmetry_cell_setting 'orthorhombic'
loop_
_space_group_symop_operation_xyz
x,y,z
-x,1/2-y,z
x,-y,-z
-x,1/2+y,-z
-x,-y,-z
x,1/2+y,-z
-x,y,z
x,1/2-y,z
1/2+x,1/2+y,1/2+z
1/2-x,-y,1/2+z
1/2+x,1/2-y,1/2-z
1/2-x,y,1/2-z
1/2-x,1/2-y,1/2-z
1/2+x,y,1/2-z
1/2-x,1/2+y,1/2+z
1/2+x,-y,1/2+z
loop_
_atom_site_type_symbol
_atom_site_label
_atom_site_fract_x
_atom_site_fract_y
_atom_site_fract_z
Si Si1 0.322344 0.560775 0.485374
Si Si2 0.181643 0.435914 0.186470
Si Si3 0.820734 0.334384 0.689825
Si Si4 0.677237 0.557864 0.346056
Si Si5 0.180792 0.133910 0.417953
Si Si6 0.815469 0.750000 0.541215
Si Si7 0.315635 0.250000 0.906102
O O1 0.276875 0.500000 0.500000
O O2 0.500000 0.566512 0.502023
O O3 0.309191 0.566402 0.415829
O O4 0.226563 0.602152 0.523075
O O5 0.250000 0.423261 0.250000
O O6 0.222980 0.497422 0.170065
O O7 0.243398 0.396577 0.136396
O O8 0.000000 0.433047 0.187883
O O9 0.750000 0.313395 0.750000
O O10 0.774493 0.396062 0.683391
O O11 0.768344 0.301245 0.632618
O O12 0.000000 0.328953 0.693298
O O13 0.500000 0.564398 0.329982
O O14 0.230653 0.195392 0.426648
O O15 0.000000 0.132622 0.410823
O O16 0.762558 0.750000 0.473240
O O17 0.000000 0.750000 0.539643
O O18 0.500000 0.250000 0.908508
#
# Coordination Sequence:
#
# PCOD9536750 Si02
#       7
#    16  16  16  16  16   8   8
#     4  10  19  36  58  85 121 157 188 236 297 342
#     4  11  23  41  61  85 118 155 193 241 295 350
#     4  11  22  36  56  81 114 155 200 243 286 338
#     4  10  21  37  58  84 118 155 191 236 291 344
#     4  11  22  38  62  91 120 155 196 238 287 350
#     4   9  20  39  61  87 120 150 186 241 298 343
#     4   9  19  37  58  81 113 152 191 241 292 335
#
# _framework density 19.091125999999999
#
# number of rings (size 3 to 8) (size 9 to 14) (size 15 to 20)
#    0.000    1.667    1.667    3.250    0.000    5.000 
#    0.000    3.333    0.000    6.000    0.000    0.000 
#    0.000    0.000    0.000    0.000    0.000    0.000 
#
# Total GULP energy -268212.215062 kJ/mol
# GULP energy per Si atom -5587.754480 kJ/mol
# Density = 1.904767 g / cm^3
# Si number density = 19.091126 Si / 1000 Ang^3
#
#
#
# Elastic Constant Matrix: (Units=GPa)
#
#
# Indices 1 2 3 4 5 6 
#
# 1 39.2957 38.2170 31.2724 0.0000 0.0000 0.0000
# 2 38.2170 141.4235 55.8046 0.0000 0.0000 0.0000
# 3 31.2724 55.8046 91.1741 0.0000 0.0000 0.0000
# 4 0.0000 0.0000 0.0000 8.3057 0.0000 0.0000
# 5 0.0000 0.0000 0.0000 0.0000 33.1964 0.0000
# 6 0.0000 0.0000 0.0000 0.0000 0.0000 -5.9165
#
#
#
# Elastic Compliance Matrix: (Units=1/GPa)
#
#
# Indices 1 2 3 4 5 6 
#
# 1 0.039719 -0.007064 -0.009300 0.000000 0.000000 0.000000
# 2 -0.007064 0.010579 -0.004052 0.000000 0.000000 0.000000
# 3 -0.009300 -0.004052 0.016638 0.000000 0.000000 0.000000
# 4 0.000000 0.000000 0.000000 0.120399 0.000000 0.000000
# 5 0.000000 0.000000 0.000000 0.000000 0.030124 0.000000
# 6 0.000000 0.000000 0.000000 0.000000 0.000000 -0.169018
#
#
# Mechanical properties :
#
#
# Convention : Reuss Voigt Hill
#
# Bulk Modulus (GPa) = 38.30792 58.05346 48.18069
# Shear Modulus (GPa) = 51.03455 16.89041 33.96248
#
# Velocity S-wave (km/s) = 5.17592 2.97766 4.22236
# Velocity P-wave (km/s) = 7.47192 6.50358 7.00450
#
# Compressibility (1/GPa) = 0.02610426
#
# Stress axis : x y z
#
# Youngs Moduli (GPa) = 25.17689 94.52990 60.10322
#
# Poissons Ratio (x) = 0.66772 0.55896
# Poissons Ratio (y) = 0.17784 0.24354
# Poissons Ratio (z) = 0.23415 0.38304
#
# Static dielectric constant tensor:
#      x y z
#    x 1.648570 0.000000 0.000000 
#    y 0.000000 1.659440 0.000000 
#    z 0.000000 0.000000 1.668230 
# 
# From -- ./inp_files/57316.got.cif
#   From: 2010.05.17/outbox.cif.g08.bks.cpg/sg74_29_cif.got.tgz:57316.got - 2010.06.03 17:57:02.
