data_PCOD9536490
_publ_section_title
;
Structure prediction by ZEFSAII (Michael W. Deem and Ramdas Pophale) SiO2 
 PCOD9536490
Probable space group: I M M A
;
_chemical_formula_sum "Si O2"
_cell_formula_units_Z 56
_cell_length_a 10.671650
_cell_length_b 9.654261
_cell_length_c 28.609937
_cell_angle_alpha 90.000000
_cell_angle_beta 90.000000
_cell_angle_gamma 90.000000
_cell_volume 2947.592958
_symmetry_space_group_name_H-M "I M M A"
_symmetry_group_IT_number 74
_symmetry_cell_setting 'orthorhombic'
loop_
_space_group_symop_operation_xyz
x,y,z
-x,1/2-y,z
x,-y,-z
-x,1/2+y,-z
-x,-y,-z
x,1/2+y,-z
-x,y,z
x,1/2-y,z
1/2+x,1/2+y,1/2+z
1/2-x,-y,1/2+z
1/2+x,1/2-y,1/2-z
1/2-x,y,1/2-z
1/2-x,1/2-y,1/2-z
1/2+x,y,1/2-z
1/2-x,1/2+y,1/2+z
1/2+x,-y,1/2+z
loop_
_atom_site_type_symbol
_atom_site_label
_atom_site_fract_x
_atom_site_fract_y
_atom_site_fract_z
Si Si1 0.348573 0.250000 0.665843
Si Si2 0.226006 0.000000 0.500000
Si Si3 0.849908 0.250000 0.941916
Si Si4 0.854612 0.966951 0.786346
Si Si5 0.863643 0.250000 0.131211
Si Si6 0.134903 0.250000 0.438842
O O1 0.500000 0.250000 0.662724
O O2 0.303944 0.250000 0.612109
O O3 0.313791 0.382938 0.695805
O O4 0.304311 0.108509 0.532360
O O5 0.147793 0.109720 0.469294
O O6 0.000000 0.250000 0.942404
O O7 0.750000 0.916480 0.750000
O O8 0.856684 0.877879 0.833517
O O9 0.000000 0.966792 0.768542
O O10 0.752102 0.250000 0.095359
O O11 0.000000 0.250000 0.107113
O O12 0.000000 0.250000 0.414801
#
# Coordination Sequence:
#
# PCOD9536490 Si02
#       6
#     8   8   8  16   8   8
#     4   9  18  32  51  75 108 145 179 222 275 326
#     4  10  22  36  56  84 113 150 193 236 279 336
#     4  10  19  34  56  85 118 151 189 235 287 337
#     4  10  20  35  55  79 108 142 179 223 274 328
#     4  10  22  38  57  82 111 142 181 230 279 329
#     4  11  23  40  60  82 114 154 191 231 283 338
#
# _framework density 18.998552
#
# number of rings (size 3 to 8) (size 9 to 14) (size 15 to 20)
#    0.000    2.000    0.000    3.429    0.000    6.857 
#    0.000    0.000    0.000    3.429    0.000    0.000 
#    0.000    0.000    0.000    0.000    0.000    0.000 
#
# Total GULP energy -156076.910112 kJ/mol
# GULP energy per Si atom -5574.175361 kJ/mol
# Density = 1.895531 g / cm^3
# Si number density = 18.998552 Si / 1000 Ang^3
#
#
#
# Elastic Constant Matrix: (Units=GPa)
#
#
# Indices 1 2 3 4 5 6 
#
# 1 139.7769 29.2149 63.1562 0.0000 0.0000 0.0000
# 2 29.2149 127.0179 16.6920 0.0000 0.0000 0.0000
# 3 63.1562 16.6920 74.9619 0.0000 0.0000 0.0000
# 4 0.0000 0.0000 0.0000 -1.7678 0.0000 0.0000
# 5 0.0000 0.0000 0.0000 0.0000 27.3395 0.0000
# 6 0.0000 0.0000 0.0000 0.0000 0.0000 14.1298
#
#
#
# Elastic Compliance Matrix: (Units=1/GPa)
#
#
# Indices 1 2 3 4 5 6 
#
# 1 0.011806 -0.001451 -0.009623 0.000000 0.000000 0.000000
# 2 -0.001451 0.008289 -0.000623 0.000000 0.000000 0.000000
# 3 -0.009623 -0.000623 0.021587 0.000000 0.000000 0.000000
# 4 0.000000 0.000000 0.000000 -0.565685 0.000000 0.000000
# 5 0.000000 0.000000 0.000000 0.000000 0.036577 0.000000
# 6 0.000000 0.000000 0.000000 0.000000 0.000000 0.070772
#
#
# Mechanical properties :
#
#
# Convention : Reuss Voigt Hill
#
# Bulk Modulus (GPa) = 54.68679 62.20920 58.44799
# Shear Modulus (GPa) = -12.91440 23.45323 5.26941
#
# Velocity S-wave (km/s) = -2.61004 3.51732 1.66722
# Velocity P-wave (km/s) = 4.44568 7.02215 5.87685
#
# Compressibility (1/GPa) = 0.01828595
#
# Stress axis : x y z
#
# Youngs Moduli (GPa) = 84.70527 120.64909 46.32486
#
# Poissons Ratio (x) = 0.17503 0.44580
# Poissons Ratio (y) = 0.12288 0.02888
# Poissons Ratio (z) = 0.81515 0.07521
#
# Static dielectric constant tensor:
#      x y z
#    x 1.664940 0.000000 0.000000 
#    y 0.000000 1.179090 0.000000 
#    z 0.000000 0.000000 1.644250 
# 
# From -- ./inp_files/65564.got.cif
#   From: 2010.05.17/outbox.cif.g08.bks.cpg/sg74_33_cif.got.tgz:65564.got - 2010.06.03 17:57:02.
