data_PCOD9536343
_publ_section_title
;
Structure prediction by ZEFSAII (Michael W. Deem and Ramdas Pophale) SiO2 
 PCOD9536343
Probable space group: I M M A
;
_chemical_formula_sum "Si O2"
_cell_formula_units_Z 112
_cell_length_a 26.346278
_cell_length_b 14.573049
_cell_length_c 13.875665
_cell_angle_alpha 90.000000
_cell_angle_beta 90.000000
_cell_angle_gamma 90.000000
_cell_volume 5327.500527
_symmetry_space_group_name_H-M "I M M A"
_symmetry_group_IT_number 74
_symmetry_cell_setting 'orthorhombic'
loop_
_space_group_symop_operation_xyz
x,y,z
-x,1/2-y,z
x,-y,-z
-x,1/2+y,-z
-x,-y,-z
x,1/2+y,-z
-x,y,z
x,1/2-y,z
1/2+x,1/2+y,1/2+z
1/2-x,-y,1/2+z
1/2+x,1/2-y,1/2-z
1/2-x,y,1/2-z
1/2-x,1/2-y,1/2-z
1/2+x,y,1/2-z
1/2-x,1/2+y,1/2+z
1/2+x,-y,1/2+z
loop_
_atom_site_type_symbol
_atom_site_label
_atom_site_fract_x
_atom_site_fract_y
_atom_site_fract_z
Si Si1 0.752878 0.862055 0.638883
Si Si2 0.397149 0.858179 0.144801
Si Si3 0.635542 0.140278 0.074825
Si Si4 0.695386 0.638759 0.286641
Si Si5 0.555826 0.588182 0.568028
Si Si6 0.665404 0.357559 0.501885
Si Si7 0.443767 0.463149 0.208216
O O1 0.751958 0.750000 0.639624
O O2 0.750000 0.890920 0.750000
O O3 0.806251 0.889063 0.590890
O O4 0.705044 0.894816 0.576561
O O5 0.409694 0.750000 0.156060
O O6 0.347220 0.879377 0.207479
O O7 0.438238 0.929335 0.183927
O O8 0.383793 0.875993 0.033451
O O9 0.633272 0.250000 0.091936
O O10 0.599200 0.089254 0.149074
O O11 0.699077 0.750000 0.292612
O O12 0.750000 0.605493 0.250000
O O13 0.676750 0.604652 0.391199
O O14 0.552987 0.500000 0.500000
O O15 0.500000 0.635258 0.560410
O O16 0.607414 0.635341 0.532649
O O17 0.561988 0.557263 0.678667
O O18 0.676851 0.250000 0.508712
O O19 0.500000 0.431247 0.178887
#
# Coordination Sequence:
#
# PCOD9536343 Si02
#       7
#    16  16  16  16  16  16  16
#     4   9  17  31  53  82 117 152 185 228 285 351
#     4  10  21  38  60  85 115 151 192 242 299 356
#     4  10  21  38  60  87 120 155 191 236 295 360
#     4   9  17  32  56  86 119 154 195 244 298 357
#     4  10  22  40  58  79 114 155 195 246 301 350
#     4  10  19  33  58  88 116 152 198 245 298 363
#     4  11  24  41  61  85 115 152 198 250 300 357
#
# _framework density 21.022993
#
# number of rings (size 3 to 8) (size 9 to 14) (size 15 to 20)
#    0.000    2.143    0.000    3.000    0.000    7.143 
#    0.000    7.857    0.000    5.143    0.000    0.000 
#    0.000    0.000    0.000    0.000    0.000    0.000 
#
# Total GULP energy -312766.184879 kJ/mol
# GULP energy per Si atom -5585.110444 kJ/mol
# Density = 2.097514 g / cm^3
# Si number density = 21.022993 Si / 1000 Ang^3
#
#
#
# Elastic Constant Matrix: (Units=GPa)
#
#
# Indices 1 2 3 4 5 6 
#
# 1 138.6788 16.0830 64.5185 0.0000 0.0000 0.0000
# 2 16.0830 42.7750 24.5346 0.0000 0.0000 0.0000
# 3 64.5185 24.5346 143.6837 0.0000 0.0000 0.0000
# 4 0.0000 0.0000 0.0000 18.1310 0.0000 0.0000
# 5 0.0000 0.0000 0.0000 0.0000 29.1431 0.0000
# 6 0.0000 0.0000 0.0000 0.0000 0.0000 -10.4440
#
#
#
# Elastic Compliance Matrix: (Units=1/GPa)
#
#
# Indices 1 2 3 4 5 6 
#
# 1 0.009171 -0.001204 -0.003912 0.000000 0.000000 0.000000
# 2 -0.001204 0.026074 -0.003912 0.000000 0.000000 0.000000
# 3 -0.003912 -0.003912 0.009384 0.000000 0.000000 0.000000
# 4 0.000000 0.000000 0.000000 0.055154 0.000000 0.000000
# 5 0.000000 0.000000 0.000000 0.000000 0.034313 0.000000
# 6 0.000000 0.000000 0.000000 0.000000 0.000000 -0.095749
#
#
# Mechanical properties :
#
#
# Convention : Reuss Voigt Hill
#
# Bulk Modulus (GPa) = 37.63150 59.48996 48.56073
# Shear Modulus (GPa) = 76.61347 22.03277 49.32312
#
# Velocity S-wave (km/s) = 6.04333 3.24084 4.84896
# Velocity P-wave (km/s) = 8.16301 6.50869 7.38234
#
# Compressibility (1/GPa) = 0.02657348
#
# Stress axis : x y z
#
# Youngs Moduli (GPa) = 109.04276 38.35165 106.55959
#
# Poissons Ratio (x) = 0.04618 0.41690
# Poissons Ratio (y) = 0.13130 0.41682
# Poissons Ratio (z) = 0.42661 0.15002
#
# Static dielectric constant tensor:
#      x y z
#    x 1.737480 0.000000 0.000000 
#    y 0.000000 1.805530 0.000000 
#    z 0.000000 0.000000 1.721190 
# 
# From -- ./inp_files/36489.got.cif
#   From: 2010.05.17/outbox.cif.g08.bks.cpg/sg74_19_cif.got.tgz:36489.got - 2010.06.03 17:57:02.
