data_PCOD9536422
_publ_section_title
;
Structure prediction by ZEFSAII (Michael W. Deem and Ramdas Pophale) SiO2 
 PCOD9536422
Probable space group: I M M A
;
_chemical_formula_sum "Si O2"
_cell_formula_units_Z 68
_cell_length_a 17.252011
_cell_length_b 20.130714
_cell_length_c 7.149361
_cell_angle_alpha 90.000000
_cell_angle_beta 90.000000
_cell_angle_gamma 90.000000
_cell_volume 2482.939469
_symmetry_space_group_name_H-M "I M M A"
_symmetry_group_IT_number 74
_symmetry_cell_setting 'orthorhombic'
loop_
_space_group_symop_operation_xyz
x,y,z
-x,1/2-y,z
x,-y,-z
-x,1/2+y,-z
-x,-y,-z
x,1/2+y,-z
-x,y,z
x,1/2-y,z
1/2+x,1/2+y,1/2+z
1/2-x,-y,1/2+z
1/2+x,1/2-y,1/2-z
1/2-x,y,1/2-z
1/2-x,1/2-y,1/2-z
1/2+x,y,1/2-z
1/2-x,1/2+y,1/2+z
1/2+x,-y,1/2+z
loop_
_atom_site_type_symbol
_atom_site_label
_atom_site_fract_x
_atom_site_fract_y
_atom_site_fract_z
Si Si1 0.000000 0.750000 0.137482
Si Si2 0.364173 0.250000 0.943302
Si Si3 0.170572 0.893872 0.433035
Si Si4 0.500000 0.102293 0.504034
Si Si5 0.500000 0.075677 0.947930
Si Si6 0.166398 0.899114 0.998123
Si Si7 0.665526 0.250000 0.344734
O O1 0.929367 0.750000 0.284683
O O2 0.000000 0.816715 0.014173
O O3 0.390023 0.250000 0.160939
O O4 0.315389 0.184257 0.914820
O O5 0.083695 0.897641 0.514160
O O6 0.166061 0.917270 0.219220
O O7 0.244601 0.920266 0.547194
O O8 0.500000 0.086632 0.725422
O O9 0.417767 0.076027 0.425880
O O10 0.500000 0.000000 0.000000
O O11 0.159810 0.819963 0.952684
O O12 0.750000 0.250000 0.250000
#
# Coordination Sequence:
#
# PCOD9536422 Si02
#       7
#     4   8  16   8   8  16   8
#     4  12  18  32  52  86 118 144 200 226 286 352
#     4  12  19  31  51  81 123 151 195 225 289 348
#     4  10  19  34  59  82 111 162 193 243 287 353
#     4  10  20  35  60  87 118 158 198 243 281 362
#     4  10  20  36  59  92 109 128 199 266 308 339
#     4  10  19  34  54  80 119 159 199 222 284 351
#     4  12  22  30  47  85 135 165 190 232 287 348
#
# _framework density 27.386896
#
# number of rings (size 3 to 8) (size 9 to 14) (size 15 to 20)
#    0.000    1.412    7.059    1.412    0.000    2.824 
#    0.000    0.000    0.000   11.294    0.000    7.412 
#    0.000    0.000    0.000    0.000    0.000    0.000 
#
# Total GULP energy -189688.444011 kJ/mol
# GULP energy per Si atom -5579.071883 kJ/mol
# Density = 2.732456 g / cm^3
# Si number density = 27.386896 Si / 1000 Ang^3
#
#
#
# Elastic Constant Matrix: (Units=GPa)
#
#
# Indices 1 2 3 4 5 6 
#
# 1 312.8463 4.2946 28.1537 0.0000 0.0000 0.0000
# 2 4.2946 83.4803 -20.5981 0.0000 0.0000 0.0000
# 3 28.1537 -20.5981 114.5235 0.0000 0.0000 0.0000
# 4 0.0000 0.0000 0.0000 -17.9746 0.0000 0.0000
# 5 0.0000 0.0000 0.0000 0.0000 -7.9120 0.0000
# 6 0.0000 0.0000 0.0000 0.0000 0.0000 -47.6946
#
#
#
# Elastic Compliance Matrix: (Units=1/GPa)
#
#
# Indices 1 2 3 4 5 6 
#
# 1 0.003281 -0.000385 -0.000876 0.000000 0.000000 0.000000
# 2 -0.000385 0.012580 0.002357 0.000000 0.000000 0.000000
# 3 -0.000876 0.002357 0.009371 0.000000 0.000000 0.000000
# 4 0.000000 0.000000 0.000000 -0.055634 0.000000 0.000000
# 5 0.000000 0.000000 0.000000 0.000000 -0.126390 0.000000
# 6 0.000000 0.000000 0.000000 0.000000 0.000000 -0.020967
#
#
# Mechanical properties :
#
#
# Convention : Reuss Voigt Hill
#
# Bulk Modulus (GPa) = 36.46242 59.39449 47.92845
# Shear Modulus (GPa) = -29.27218 18.55042 -5.36088
#
# Velocity S-wave (km/s) = -3.27286 2.60541 -1.40061
# Velocity P-wave (km/s) = 0.96923 5.54844 3.86301
#
# Compressibility (1/GPa) = 0.02742550
#
# Stress axis : x y z
#
# Youngs Moduli (GPa) = 304.82742 79.48924 106.71124
#
# Poissons Ratio (x) = 0.03059 0.09345
# Poissons Ratio (y) = 0.11731 -0.25155
# Poissons Ratio (z) = 0.26693 -0.18738
#
# Static dielectric constant tensor:
#      x y z
#    x 2.446800 0.000000 0.000000 
#    y 0.000000 2.095210 0.000000 
#    z 0.000000 0.000000 2.123280 
# 
# From -- ./inp_files/10516.got.cif
#   From: 2010.05.17/outbox.cif.g08.bks.cpg/sg74_6_cif.got.tgz:10516.got - 2010.06.03 17:57:02.
