data_PCOD9536361
_publ_section_title
;
Structure prediction by ZEFSAII (Michael W. Deem and Ramdas Pophale) SiO2 
 PCOD9536361
Probable space group: I M M A
;
_chemical_formula_sum "Si O2"
_cell_formula_units_Z 88
_cell_length_a 20.798684
_cell_length_b 7.917128
_cell_length_c 31.172879
_cell_angle_alpha 90.000000
_cell_angle_beta 90.000000
_cell_angle_gamma 90.000000
_cell_volume 5133.108414
_symmetry_space_group_name_H-M "I M M A"
_symmetry_group_IT_number 74
_symmetry_cell_setting 'orthorhombic'
loop_
_space_group_symop_operation_xyz
x,y,z
-x,1/2-y,z
x,-y,-z
-x,1/2+y,-z
-x,-y,-z
x,1/2+y,-z
-x,y,z
x,1/2-y,z
1/2+x,1/2+y,1/2+z
1/2-x,-y,1/2+z
1/2+x,1/2-y,1/2-z
1/2-x,y,1/2-z
1/2-x,1/2-y,1/2-z
1/2+x,y,1/2-z
1/2-x,1/2+y,1/2+z
1/2+x,-y,1/2+z
loop_
_atom_site_type_symbol
_atom_site_label
_atom_site_fract_x
_atom_site_fract_y
_atom_site_fract_z
Si Si1 0.202062 0.952755 0.868599
Si Si2 0.429763 0.548965 0.235393
Si Si3 0.931051 0.949037 0.833593
Si Si4 0.790479 0.953799 0.707882
Si Si5 0.858552 0.548970 0.049552
Si Si6 0.500000 0.953375 0.449564
O O1 0.201353 0.750000 0.863895
O O2 0.134101 0.025027 0.851657
O O3 0.256907 0.014011 0.836129
O O4 0.198008 0.990178 0.918954
O O5 0.500000 0.502807 0.216341
O O6 0.429473 0.750000 0.241876
O O7 0.426710 0.464966 0.282233
O O8 0.364953 0.502476 0.210885
O O9 0.932193 0.750000 0.843972
O O10 0.000000 0.024661 0.847113
O O11 0.787551 0.750000 0.708941
O O12 0.750000 0.012877 0.750000
O O13 0.861672 0.750000 0.051566
O O14 0.929533 0.481395 0.064812
O O15 0.849609 0.500000 0.000000
O O16 0.500000 0.750000 0.444837
O O17 0.500000 0.000000 0.500000
#
# Coordination Sequence:
#
# PCOD9536361 Si02
#       6
#    16  16  16  16  16   8
#     4  10  20  32  48  70  93 122 161 203 243 285
#     4  10  20  32  47  69  96 126 161 202 243 282
#     4   9  17  30  46  64  90 127 166 200 237 283
#     4  10  19  34  51  69  96 129 164 199 237 286
#     4  10  20  34  49  66  91 122 159 201 245 288
#     4   8  16  30  46  64  86 118 156 198 242 282
#
# _framework density 17.143609999999999
#
# number of rings (size 3 to 8) (size 9 to 14) (size 15 to 20)
#    0.000    2.364    1.818    1.091    1.273    3.636 
#    0.000    0.000    0.000    0.000    0.000    0.000 
#    0.000    0.727    0.000    2.364    0.000    3.455 
#
# Total GULP energy -245218.958253 kJ/mol
# GULP energy per Si atom -5573.158142 kJ/mol
# Density = 1.710459 g / cm^3
# Si number density = 17.143610 Si / 1000 Ang^3
#
#
#
# Elastic Constant Matrix: (Units=GPa)
#
#
# Indices 1 2 3 4 5 6 
#
# 1 118.8712 8.3857 61.8044 0.0000 0.0000 0.0000
# 2 8.3857 31.1327 6.0619 0.0000 0.0000 0.0000
# 3 61.8044 6.0619 85.4548 0.0000 0.0000 0.0000
# 4 0.0000 0.0000 0.0000 9.7016 0.0000 0.0000
# 5 0.0000 0.0000 0.0000 0.0000 25.0236 0.0000
# 6 0.0000 0.0000 0.0000 0.0000 0.0000 16.9816
#
#
#
# Elastic Compliance Matrix: (Units=1/GPa)
#
#
# Indices 1 2 3 4 5 6 
#
# 1 0.013578 -0.001770 -0.009694 0.000000 0.000000 0.000000
# 2 -0.001770 0.032801 -0.001047 0.000000 0.000000 0.000000
# 3 -0.009694 -0.001047 0.018788 0.000000 0.000000 0.000000
# 4 0.000000 0.000000 0.000000 0.103076 0.000000 0.000000
# 5 0.000000 0.000000 0.000000 0.000000 0.039962 0.000000
# 6 0.000000 0.000000 0.000000 0.000000 0.000000 0.058887
#
#
# Mechanical properties :
#
#
# Convention : Reuss Voigt Hill
#
# Bulk Modulus (GPa) = 24.90994 43.10695 34.00845
# Shear Modulus (GPa) = 16.36686 20.95513 18.66100
#
# Velocity S-wave (km/s) = 3.09316 3.49998 3.30284
# Velocity P-wave (km/s) = 5.22672 6.44456 5.86732
#
# Compressibility (1/GPa) = 0.04014461
#
# Stress axis : x y z
#
# Youngs Moduli (GPa) = 73.65019 30.48678 53.22611
#
# Poissons Ratio (x) = 0.05395 0.51600
# Poissons Ratio (y) = 0.13033 0.05573
# Poissons Ratio (z) = 0.71400 0.03192
#
# Static dielectric constant tensor:
#      x y z
#    x 1.617100 0.000000 0.000000 
#    y 0.000000 1.610540 0.000000 
#    z 0.000000 0.000000 1.586420 
# 
# From -- ./inp_files/73273.got.cif
#   From: 2010.05.17/outbox.cif.g08.bks.cpg/sg74_37_cif.got.tgz:73273.got - 2010.06.03 17:57:02.
