data_PCOD9536852
_publ_section_title
;
Structure prediction by ZEFSAII (Michael W. Deem and Ramdas Pophale) SiO2 
 PCOD9536852
Probable space group: I M M A
;
_chemical_formula_sum "Si O2"
_cell_formula_units_Z 92
_cell_length_a 7.596568
_cell_length_b 31.430134
_cell_length_c 16.518756
_cell_angle_alpha 90.000000
_cell_angle_beta 90.000000
_cell_angle_gamma 90.000000
_cell_volume 3944.037182
_symmetry_space_group_name_H-M "I M M A"
_symmetry_group_IT_number 74
_symmetry_cell_setting 'orthorhombic'
loop_
_space_group_symop_operation_xyz
x,y,z
-x,1/2-y,z
x,-y,-z
-x,1/2+y,-z
-x,-y,-z
x,1/2+y,-z
-x,y,z
x,1/2-y,z
1/2+x,1/2+y,1/2+z
1/2-x,-y,1/2+z
1/2+x,1/2-y,1/2-z
1/2-x,y,1/2-z
1/2-x,1/2-y,1/2-z
1/2+x,y,1/2-z
1/2-x,1/2+y,1/2+z
1/2+x,-y,1/2+z
loop_
_atom_site_type_symbol
_atom_site_label
_atom_site_fract_x
_atom_site_fract_y
_atom_site_fract_z
Si Si1 0.288860 0.999923 0.346199
Si Si2 0.708955 0.750000 0.843219
Si Si3 0.290231 0.908641 0.345277
Si Si4 0.297971 0.327493 0.448997
Si Si5 0.000000 0.250000 0.824727
Si Si6 0.212345 0.593378 0.846161
Si Si7 0.691359 0.686837 0.122428
O O1 0.500000 0.999891 0.357061
O O2 0.250000 0.999594 0.250000
O O3 0.225606 0.954299 0.379738
O O4 0.223279 0.046359 0.372302
O O5 0.500000 0.750000 0.857799
O O6 0.750000 0.750000 0.750000
O O7 0.792648 0.791736 0.881365
O O8 0.500000 0.906375 0.358110
O O9 0.250000 0.910557 0.250000
O O10 0.210836 0.864152 0.372124
O O11 0.500000 0.335810 0.475015
O O12 0.223741 0.369961 0.406840
O O13 0.204025 0.307022 0.526097
O O14 0.154779 0.212835 0.835328
O O15 0.250000 0.600441 0.750000
O O16 0.000000 0.593782 0.851940
O O17 0.500000 0.699941 0.154314
#
# Coordination Sequence:
#
# PCOD9536852 Si02
#       7
#    16   8  16  16   4  16  16
#     4   8  15  29  53  85 118 160 202 245 302 362
#     4  12  25  40  58  85 114 154 210 258 310 365
#     4  10  19  37  64  93 127 160 203 254 302 369
#     4  11  22  39  59  85 122 162 206 263 312 367
#     4  12  24  48  66  88 120 152 200 252 302 372
#     4   9  18  32  54  84 122 163 206 255 311 362
#     4  12  25  43  68  93 122 163 208 251 313 378
#
# _framework density 23.326353000000001
#
# number of rings (size 3 to 8) (size 9 to 14) (size 15 to 20)
#    0.000    1.739    1.739    3.130    0.000    3.478 
#    0.000    1.304    0.000    5.217    0.000    0.000 
#    0.000    0.000    0.000    0.000    0.000    0.000 
#
# Total GULP energy -256470.672419 kJ/mol
# GULP energy per Si atom -5575.449400 kJ/mol
# Density = 2.327326 g / cm^3
# Si number density = 23.326353 Si / 1000 Ang^3
#
#
#
# Elastic Constant Matrix: (Units=GPa)
#
#
# Indices 1 2 3 4 5 6 
#
# 1 134.7059 22.1772 2.3311 -0.0001 0.0000 0.0000
# 2 22.1772 168.2849 13.4076 -0.0002 0.0000 0.0000
# 3 2.3311 13.4076 57.5278 -0.0006 0.0000 0.0000
# 4 -0.0001 -0.0002 -0.0006 80.4711 0.0000 0.0000
# 5 0.0000 0.0000 0.0000 0.0000 19.3355 0.0000
# 6 0.0000 0.0000 0.0000 0.0000 0.0000 15.5461
#
#
#
# Elastic Compliance Matrix: (Units=1/GPa)
#
#
# Indices 1 2 3 4 5 6 
#
# 1 0.007589 -0.000994 -0.000076 0.000000 0.000000 0.000000
# 2 -0.000994 0.006185 -0.001401 0.000000 0.000000 0.000000
# 3 -0.000076 -0.001401 0.017713 0.000000 0.000000 0.000000
# 4 0.000000 0.000000 0.000000 0.012427 0.000000 0.000000
# 5 0.000000 0.000000 0.000000 0.000000 0.051718 0.000000
# 6 0.000000 0.000000 0.000000 0.000000 0.000000 0.064325
#
#
# Mechanical properties :
#
#
# Convention : Reuss Voigt Hill
#
# Bulk Modulus (GPa) = 37.67338 48.48337 43.07837
# Shear Modulus (GPa) = 28.77766 44.57741 36.67754
#
# Velocity S-wave (km/s) = 3.51621 4.37628 3.96961
# Velocity P-wave (km/s) = 5.71582 6.80923 6.28635
#
# Compressibility (1/GPa) = 0.02654394
#
# Stress axis : x y z
#
# Youngs Moduli (GPa) = 131.77766 161.68326 56.45723
#
# Poissons Ratio (x) = 0.16071 0.00428
# Poissons Ratio (y) = 0.13099 0.07911
# Poissons Ratio (z) = 0.00999 0.22655
#
# Static dielectric constant tensor:
#      x y z
#    x 1.875950 0.000000 0.000000 
#    y 0.000000 1.920050 0.000000 
#    z 0.000000 0.000000 1.829620 
# 
# From -- ./inp_files/49526.got.cif
#   From: 2010.05.17/outbox.cif.g08.bks.cpg/sg74_25_cif.got.tgz:49526.got - 2010.06.03 17:57:02.
