data_PCOD9536156
_publ_section_title
;
Structure prediction by ZEFSAII (Michael W. Deem and Ramdas Pophale) SiO2 
 PCOD9536156
Probable space group: I M M A
;
_chemical_formula_sum "Si O2"
_cell_formula_units_Z 80
_cell_length_a 15.708597
_cell_length_b 24.284148
_cell_length_c 11.681505
_cell_angle_alpha 90.000000
_cell_angle_beta 90.000000
_cell_angle_gamma 90.000000
_cell_volume 4456.142479
_symmetry_space_group_name_H-M "I M M A"
_symmetry_group_IT_number 74
_symmetry_cell_setting 'orthorhombic'
loop_
_space_group_symop_operation_xyz
x,y,z
-x,1/2-y,z
x,-y,-z
-x,1/2+y,-z
-x,-y,-z
x,1/2+y,-z
-x,y,z
x,1/2-y,z
1/2+x,1/2+y,1/2+z
1/2-x,-y,1/2+z
1/2+x,1/2-y,1/2-z
1/2-x,y,1/2-z
1/2-x,1/2-y,1/2-z
1/2+x,y,1/2-z
1/2-x,1/2+y,1/2+z
1/2+x,-y,1/2+z
loop_
_atom_site_type_symbol
_atom_site_label
_atom_site_fract_x
_atom_site_fract_y
_atom_site_fract_z
Si Si1 0.679058 0.922066 0.521086
Si Si2 0.902567 0.509659 0.170873
Si Si3 0.597720 0.312240 0.955959
Si Si4 0.821979 0.915189 0.345516
Si Si5 0.239750 0.687262 0.884112
O O1 0.612214 0.942483 0.424898
O O2 0.770122 0.931494 0.459492
O O3 0.680819 0.858600 0.557058
O O4 0.659035 0.960811 0.628914
O O5 0.875793 0.535587 0.291136
O O6 0.000000 0.491725 0.169739
O O7 0.500000 0.318880 0.994063
O O8 0.605731 0.250000 0.907290
O O9 0.622674 0.361188 0.870315
O O10 0.667281 0.315872 0.056784
O O11 0.750000 0.902105 0.250000
O O12 0.208686 0.750000 0.898662
O O13 0.250000 0.675802 0.750000
#
# Coordination Sequence:
#
# PCOD9536156 Si02
#       5
#    16  16  16  16  16
#     4   9  18  31  50  74  98 129 166 202 242 292
#     4  10  19  33  53  75 102 133 166 204 250 297
#     4   9  17  31  51  75 103 132 163 202 247 291
#     4   9  18  31  49  75 101 132 168 203 241 290
#     4   9  18  33  53  74  98 131 167 204 247 297
#
# _framework density 17.952746999999999
#
# number of rings (size 3 to 8) (size 9 to 14) (size 15 to 20)
#    0.000    2.800    0.000    1.800    0.000    4.400 
#    0.000    5.000    0.000    6.000    0.000   57.400 
#    0.000    0.000    0.000    0.000    0.000    0.000 
#
# Total GULP energy -222724.913721 kJ/mol
# GULP energy per Si atom -5568.122843 kJ/mol
# Density = 1.791189 g / cm^3
# Si number density = 17.952747 Si / 1000 Ang^3
#
#
#
# Elastic Constant Matrix: (Units=GPa)
#
#
# Indices 1 2 3 4 5 6 
#
# 1 64.0704 49.9305 15.3015 0.0000 0.0000 0.0000
# 2 49.9305 107.9856 43.9661 0.0000 0.0000 0.0000
# 3 15.3015 43.9661 46.0621 0.0000 0.0000 0.0000
# 4 0.0000 0.0000 0.0000 28.0881 0.0000 0.0000
# 5 0.0000 0.0000 0.0000 0.0000 6.1338 0.0000
# 6 0.0000 0.0000 0.0000 0.0000 0.0000 22.4251
#
#
#
# Elastic Compliance Matrix: (Units=1/GPa)
#
#
# Indices 1 2 3 4 5 6 
#
# 1 0.024946 -0.013348 0.004454 0.000000 0.000000 0.000000
# 2 -0.013348 0.022289 -0.016841 0.000000 0.000000 0.000000
# 3 0.004454 -0.016841 0.036305 0.000000 0.000000 0.000000
# 4 0.000000 0.000000 0.000000 0.035602 0.000000 0.000000
# 5 0.000000 0.000000 0.000000 0.000000 0.163031 0.000000
# 6 0.000000 0.000000 0.000000 0.000000 0.000000 0.044593
#
#
# Mechanical properties :
#
#
# Convention : Reuss Voigt Hill
#
# Bulk Modulus (GPa) = 31.18176 48.50158 39.84167
# Shear Modulus (GPa) = 12.85589 18.59074 15.72332
#
# Velocity S-wave (km/s) = 2.67890 3.22147 2.96263
# Velocity P-wave (km/s) = 5.19376 6.39625 5.82611
#
# Compressibility (1/GPa) = 0.03207003
#
# Stress axis : x y z
#
# Youngs Moduli (GPa) = 40.08589 44.86514 27.54462
#
# Poissons Ratio (x) = 0.59886 -0.12267
# Poissons Ratio (y) = 0.53507 0.46387
# Poissons Ratio (z) = -0.17853 0.75556
#
# Static dielectric constant tensor:
#      x y z
#    x 1.601930 0.000000 0.000000 
#    y 0.000000 1.634980 0.000000 
#    z 0.000000 0.000000 1.629840 
# 
# From -- ./inp_files/20515.got.cif
#   From: 2010.05.17/outbox.cif.g08.bks.cpg/sg74_11_cif.got.tgz:20515.got - 2010.06.03 17:57:02.
