data_PCOD9536440
_publ_section_title
;
Structure prediction by ZEFSAII (Michael W. Deem and Ramdas Pophale) SiO2 
 PCOD9536440
Probable space group: I M M A
;
_chemical_formula_sum "Si O2"
_cell_formula_units_Z 72
_cell_length_a 26.927358
_cell_length_b 10.568859
_cell_length_c 13.800426
_cell_angle_alpha 90.000000
_cell_angle_beta 90.000000
_cell_angle_gamma 90.000000
_cell_volume 3927.483245
_symmetry_space_group_name_H-M "I M M A"
_symmetry_group_IT_number 74
_symmetry_cell_setting 'orthorhombic'
loop_
_space_group_symop_operation_xyz
x,y,z
-x,1/2-y,z
x,-y,-z
-x,1/2+y,-z
-x,-y,-z
x,1/2+y,-z
-x,y,z
x,1/2-y,z
1/2+x,1/2+y,1/2+z
1/2-x,-y,1/2+z
1/2+x,1/2-y,1/2-z
1/2-x,y,1/2-z
1/2-x,1/2-y,1/2-z
1/2+x,y,1/2-z
1/2-x,1/2+y,1/2+z
1/2+x,-y,1/2+z
loop_
_atom_site_type_symbol
_atom_site_label
_atom_site_fract_x
_atom_site_fract_y
_atom_site_fract_z
Si Si1 0.055917 0.750000 0.616419
Si Si2 0.056438 0.750000 0.379928
Si Si3 0.388534 0.601026 0.587821
Si Si4 0.500000 0.896856 0.585247
Si Si5 0.191786 0.600299 0.742714
Si Si6 0.385954 0.499431 0.883998
O O1 0.054425 0.750000 0.498259
O O2 0.084147 0.624404 0.646359
O O3 0.000000 0.750000 0.653282
O O4 0.085570 0.624961 0.350425
O O5 0.000000 0.750000 0.344924
O O6 0.384519 0.500000 0.500000
O O7 0.384787 0.750000 0.557138
O O8 0.444892 0.586688 0.631576
O O9 0.343781 0.579433 0.663908
O O10 0.500000 0.750000 0.550918
O O11 0.500000 0.000000 0.500000
O O12 0.187498 0.750000 0.718483
O O13 0.250000 0.573181 0.750000
O O14 0.168106 0.514760 0.659514
O O15 0.384505 0.500000 0.000000
#
# Coordination Sequence:
#
# PCOD9536440 Si02
#       6
#     8   8  16   8  16  16
#     4   9  16  30  53  80 105 147 186 218 258 322
#     4   9  18  32  51  78 117 145 172 216 272 322
#     4   9  18  35  58  81 107 138 175 223 275 326
#     4   8  14  28  52  80 105 130 166 216 271 324
#     4  10  21  38  57  79 108 143 189 234 270 317
#     4  10  19  34  55  79 111 146 184 222 268 327
#
# _framework density 18.332350999999999
#
# number of rings (size 3 to 8) (size 9 to 14) (size 15 to 20)
#    0.000    2.667    1.111    0.667    0.000    3.556 
#    6.000    0.556    0.000    0.000    0.000    0.000 
#    0.000    0.000    0.000    0.000    0.000    0.000 
#
# Total GULP energy -200521.727463 kJ/mol
# GULP energy per Si atom -5570.047985 kJ/mol
# Density = 1.829063 g / cm^3
# Si number density = 18.332351 Si / 1000 Ang^3
#
#
#
# Elastic Constant Matrix: (Units=GPa)
#
#
# Indices 1 2 3 4 5 6 
#
# 1 191.0449 75.7740 41.5526 0.0000 0.0000 0.0000
# 2 75.7740 118.5355 33.7097 0.0000 0.0000 0.0000
# 3 41.5526 33.7097 44.9713 0.0000 0.0000 0.0000
# 4 0.0000 0.0000 0.0000 -13.3363 0.0000 0.0000
# 5 0.0000 0.0000 0.0000 0.0000 27.7934 0.0000
# 6 0.0000 0.0000 0.0000 0.0000 0.0000 38.6944
#
#
#
# Elastic Compliance Matrix: (Units=1/GPa)
#
#
# Indices 1 2 3 4 5 6 
#
# 1 0.007616 -0.003644 -0.004306 0.000000 0.000000 0.000000
# 2 -0.003644 0.012466 -0.005977 0.000000 0.000000 0.000000
# 3 -0.004306 -0.005977 0.030695 0.000000 0.000000 0.000000
# 4 0.000000 0.000000 0.000000 -0.074983 0.000000 0.000000
# 5 0.000000 0.000000 0.000000 0.000000 0.035980 0.000000
# 6 0.000000 0.000000 0.000000 0.000000 0.000000 0.025844
#
#
# Mechanical properties :
#
#
# Convention : Reuss Voigt Hill
#
# Bulk Modulus (GPa) = 43.62357 72.95825 58.29091
# Shear Modulus (GPa) = 68.38890 24.19799 46.29345
#
# Velocity S-wave (km/s) = 6.11441 3.63707 5.03062
# Velocity P-wave (km/s) = 8.58462 7.58430 8.09992
#
# Compressibility (1/GPa) = 0.02292339
#
# Stress axis : x y z
#
# Youngs Moduli (GPa) = 131.29792 80.22078 32.57880
#
# Poissons Ratio (x) = 0.29235 0.14027
# Poissons Ratio (y) = 0.47848 0.19472
# Poissons Ratio (z) = 0.56532 0.47946
#
# Static dielectric constant tensor:
#      x y z
#    x 1.679560 0.000000 0.000000 
#    y 0.000000 1.648310 0.000000 
#    z 0.000000 0.000000 1.651410 
# 
# From -- ./inp_files/29237.got.cif
#   From: 2010.05.17/outbox.cif.g08.bks.cpg/sg74_15_cif.got.tgz:29237.got - 2010.06.03 17:57:02.
