data_PCOD9536367
_publ_section_title
;
Structure prediction by ZEFSAII (Michael W. Deem and Ramdas Pophale) SiO2 
 PCOD9536367
Probable space group: I M M A
;
_chemical_formula_sum "Si O2"
_cell_formula_units_Z 88
_cell_length_a 18.568246
_cell_length_b 9.380003
_cell_length_c 29.744002
_cell_angle_alpha 90.000000
_cell_angle_beta 90.000000
_cell_angle_gamma 90.000000
_cell_volume 5180.518872
_symmetry_space_group_name_H-M "I M M A"
_symmetry_group_IT_number 74
_symmetry_cell_setting 'orthorhombic'
loop_
_space_group_symop_operation_xyz
x,y,z
-x,1/2-y,z
x,-y,-z
-x,1/2+y,-z
-x,-y,-z
x,1/2+y,-z
-x,y,z
x,1/2-y,z
1/2+x,1/2+y,1/2+z
1/2-x,-y,1/2+z
1/2+x,1/2-y,1/2-z
1/2-x,y,1/2-z
1/2-x,1/2-y,1/2-z
1/2+x,y,1/2-z
1/2-x,1/2+y,1/2+z
1/2+x,-y,1/2+z
loop_
_atom_site_type_symbol
_atom_site_label
_atom_site_fract_x
_atom_site_fract_y
_atom_site_fract_z
Si Si1 0.695943 0.087077 0.208090
Si Si2 0.658874 0.578692 0.048243
Si Si3 0.730511 0.581832 0.611305
Si Si4 0.415616 0.586252 0.256500
Si Si5 0.417763 0.079450 0.349899
Si Si6 0.500000 0.080532 0.952516
O O1 0.669121 0.250000 0.209429
O O2 0.750000 0.069253 0.250000
O O3 0.737166 0.066579 0.161504
O O4 0.631409 0.979881 0.217014
O O5 0.666060 0.750000 0.043384
O O6 0.721737 0.513419 0.078581
O O7 0.578360 0.548293 0.068575
O O8 0.661443 0.500000 0.000000
O O9 0.735829 0.750000 0.598956
O O10 0.646165 0.542077 0.615785
O O11 0.500000 0.579036 0.245756
O O12 0.395552 0.750000 0.264519
O O13 0.404788 0.497828 0.302420
O O14 0.500000 0.046853 0.364239
O O15 0.412605 0.250000 0.342496
O O16 0.500000 0.250000 0.960871
O O17 0.500000 0.000000 0.000000
#
# Coordination Sequence:
#
# PCOD9536367 Si02
#       6
#    16  16  16  16  16   8
#     4  10  19  34  52  72 101 138 176 215 256 304
#     4  10  20  36  58  81 106 136 169 210 257 305
#     4  10  20  34  53  79 106 133 172 216 258 309
#     4  10  20  32  47  70 100 135 175 218 260 303
#     4   9  17  32  54  75  99 136 177 215 255 305
#     4   8  16  32  54  78 102 132 168 204 246 300
#
# _framework density 16.986715
#
# number of rings (size 3 to 8) (size 9 to 14) (size 15 to 20)
#    0.000    2.364    1.818    1.091    0.000    3.636 
#    1.636    0.000    0.000    0.545    0.000    0.000 
#    0.000    0.000    0.000    0.000    0.000    0.000 
#
# Total GULP energy -245178.427707 kJ/mol
# GULP energy per Si atom -5572.236993 kJ/mol
# Density = 1.694805 g / cm^3
# Si number density = 16.986715 Si / 1000 Ang^3
#
#
#
# Elastic Constant Matrix: (Units=GPa)
#
#
# Indices 1 2 3 4 5 6 
#
# 1 130.3232 61.5081 39.0983 0.0000 0.0000 0.0000
# 2 61.5081 54.8687 30.1069 0.0000 0.0000 0.0000
# 3 39.0983 30.1069 43.5028 0.0000 0.0000 0.0000
# 4 0.0000 0.0000 0.0000 21.0254 0.0000 0.0000
# 5 0.0000 0.0000 0.0000 0.0000 27.4172 0.0000
# 6 0.0000 0.0000 0.0000 0.0000 0.0000 24.5257
#
#
#
# Elastic Compliance Matrix: (Units=1/GPa)
#
#
# Indices 1 2 3 4 5 6 
#
# 1 0.016580 -0.016783 -0.003286 0.000000 0.000000 0.000000
# 2 -0.016783 0.046373 -0.017009 0.000000 0.000000 0.000000
# 3 -0.003286 -0.017009 0.037712 0.000000 0.000000 0.000000
# 4 0.000000 0.000000 0.000000 0.047562 0.000000 0.000000
# 5 0.000000 0.000000 0.000000 0.000000 0.036473 0.000000
# 6 0.000000 0.000000 0.000000 0.000000 0.000000 0.040774
#
#
# Mechanical properties :
#
#
# Convention : Reuss Voigt Hill
#
# Bulk Modulus (GPa) = 37.72501 54.45792 46.09146
# Shear Modulus (GPa) = 16.20921 21.12576 18.66748
#
# Velocity S-wave (km/s) = 3.09241 3.53039 3.31863
# Velocity P-wave (km/s) = 5.91671 6.98190 6.47126
#
# Compressibility (1/GPa) = 0.02650761
#
# Stress axis : x y z
#
# Youngs Moduli (GPa) = 60.31210 21.56445 26.51680
#
# Poissons Ratio (x) = 0.36193 0.08714
# Poissons Ratio (y) = 1.01225 0.45102
# Poissons Ratio (z) = 0.19821 0.36679
#
# Static dielectric constant tensor:
#      x y z
#    x 1.621430 0.000000 0.000000 
#    y 0.000000 1.572600 0.000000 
#    z 0.000000 0.000000 1.537740 
# 
# From -- ./inp_files/57022.got.cif
#   From: 2010.05.17/outbox.cif.g08.bks.cpg/sg74_29_cif.got.tgz:57022.got - 2010.06.03 17:57:02.
