data_PCOD9536432
_publ_section_title
;
Structure prediction by ZEFSAII (Michael W. Deem and Ramdas Pophale) SiO2 
 PCOD9536432
Probable space group: I M M A
;
_chemical_formula_sum "Si O2"
_cell_formula_units_Z 104
_cell_length_a 9.394931
_cell_length_b 21.029885
_cell_length_c 26.231509
_cell_angle_alpha 90.000000
_cell_angle_beta 90.000000
_cell_angle_gamma 90.000000
_cell_volume 5182.672514
_symmetry_space_group_name_H-M "I M M A"
_symmetry_group_IT_number 74
_symmetry_cell_setting 'orthorhombic'
loop_
_space_group_symop_operation_xyz
x,y,z
-x,1/2-y,z
x,-y,-z
-x,1/2+y,-z
-x,-y,-z
x,1/2+y,-z
-x,y,z
x,1/2-y,z
1/2+x,1/2+y,1/2+z
1/2-x,-y,1/2+z
1/2+x,1/2-y,1/2-z
1/2-x,y,1/2-z
1/2-x,1/2-y,1/2-z
1/2+x,y,1/2-z
1/2-x,1/2+y,1/2+z
1/2+x,-y,1/2+z
loop_
_atom_site_type_symbol
_atom_site_label
_atom_site_fract_x
_atom_site_fract_y
_atom_site_fract_z
Si Si1 0.838789 0.174466 0.088772
Si Si2 0.828633 0.324980 0.514832
Si Si3 0.335922 0.535889 0.053952
Si Si4 0.666557 0.128187 0.301674
Si Si5 0.335253 0.004505 0.645183
Si Si6 0.833525 0.750000 0.303001
Si Si7 0.668195 0.884506 0.196411
O O1 0.853255 0.250000 0.087692
O O2 0.742213 0.160003 0.040064
O O3 0.780872 0.158147 0.145000
O O4 0.000000 0.146101 0.085025
O O5 0.789442 0.250000 0.528845
O O6 0.794029 0.388805 0.548140
O O7 0.000000 0.325082 0.510835
O O8 0.500000 0.534804 0.073283
O O9 0.231367 0.494858 0.089639
O O10 0.336132 0.500000 0.000000
O O11 0.500000 0.145665 0.295523
O O12 0.750000 0.143223 0.250000
O O13 0.675273 0.053558 0.315463
O O14 0.500000 0.022273 0.641550
O O15 0.237602 0.060400 0.665264
O O16 0.750000 0.750000 0.250000
O O17 0.806520 0.816183 0.330228
O O18 0.000000 0.750000 0.289429
O O19 0.500000 0.893240 0.204100
O O20 0.750000 0.882926 0.250000
#
# Coordination Sequence:
#
# PCOD9536432 Si02
#       7
#    16  16  16  16  16   8  16
#     4   9  18  34  56  81 109 141 177 218 265 320
#     4   9  18  34  56  82 110 140 176 220 271 326
#     4  10  21  37  57  80 106 139 180 226 275 328
#     4  10  22  37  53  77 109 144 181 222 269 318
#     4  11  23  37  53  77 107 141 180 222 270 321
#     4   8  16  30  50  74  98 130 168 208 254 302
#     4  10  19  34  55  78 105 137 175 217 263 314
#
# _framework density 20.066866999999998
#
# number of rings (size 3 to 8) (size 9 to 14) (size 15 to 20)
#    0.000    2.308    0.000    2.308    0.000    4.923 
#    1.385    0.000    0.000    0.000    0.000    0.000 
#    0.000    0.000    0.000    0.000    0.000    0.000 
#
# Total GULP energy -289674.337030 kJ/mol
# GULP energy per Si atom -5570.660327 kJ/mol
# Density = 2.002119 g / cm^3
# Si number density = 20.066867 Si / 1000 Ang^3
#
#
#
# Elastic Constant Matrix: (Units=GPa)
#
#
# Indices 1 2 3 4 5 6 
#
# 1 37.0496 2.2081 6.9362 0.0000 0.0000 0.0000
# 2 2.2081 31.2149 -13.0659 0.0000 0.0000 0.0000
# 3 6.9362 -13.0659 35.0123 0.0000 0.0000 0.0000
# 4 0.0000 0.0000 0.0000 32.1655 0.0000 0.0000
# 5 0.0000 0.0000 0.0000 0.0000 24.1684 0.0000
# 6 0.0000 0.0000 0.0000 0.0000 0.0000 21.9263
#
#
#
# Elastic Compliance Matrix: (Units=1/GPa)
#
#
# Indices 1 2 3 4 5 6 
#
# 1 0.028734 -0.005233 -0.007645 0.000000 0.000000 0.000000
# 2 -0.005233 0.038919 0.015561 0.000000 0.000000 0.000000
# 3 -0.007645 0.015561 0.035883 0.000000 0.000000 0.000000
# 4 0.000000 0.000000 0.000000 0.031089 0.000000 0.000000
# 5 0.000000 0.000000 0.000000 0.000000 0.041376 0.000000
# 6 0.000000 0.000000 0.000000 0.000000 0.000000 0.045607
#
#
# Mechanical properties :
#
#
# Convention : Reuss Voigt Hill
#
# Bulk Modulus (GPa) = 9.18259 10.60374 9.89317
# Shear Modulus (GPa) = 19.79849 22.79858 21.29853
#
# Velocity S-wave (km/s) = 3.14447 3.37431 3.26141
# Velocity P-wave (km/s) = 4.21539 4.52515 4.37301
#
# Compressibility (1/GPa) = 0.10890168
#
# Stress axis : x y z
#
# Youngs Moduli (GPa) = 34.80197 25.69411 27.86845
#
# Poissons Ratio (x) = 0.13445 0.21306
# Poissons Ratio (y) = 0.18211 -0.43365
# Poissons Ratio (z) = 0.26607 -0.39982
#
# Static dielectric constant tensor:
#      x y z
#    x 1.624700 0.000000 0.000000 
#    y 0.000000 1.789460 0.000000 
#    z 0.000000 0.000000 1.775720 
# 
# From -- ./inp_files/64436.got.cif
#   From: 2010.05.17/outbox.cif.g08.bks.cpg/sg74_33_cif.got.tgz:64436.got - 2010.06.03 17:57:02.
