data_PCOD9536775
_publ_section_title
;
Structure prediction by ZEFSAII (Michael W. Deem and Ramdas Pophale) SiO2 
 PCOD9536775
Probable space group: I M M A
;
_chemical_formula_sum "Si O2"
_cell_formula_units_Z 72
_cell_length_a 7.773843
_cell_length_b 23.426601
_cell_length_c 19.090902
_cell_angle_alpha 90.000000
_cell_angle_beta 90.000000
_cell_angle_gamma 90.000000
_cell_volume 3476.734238
_symmetry_space_group_name_H-M "I M M A"
_symmetry_group_IT_number 74
_symmetry_cell_setting 'orthorhombic'
loop_
_space_group_symop_operation_xyz
x,y,z
-x,1/2-y,z
x,-y,-z
-x,1/2+y,-z
-x,-y,-z
x,1/2+y,-z
-x,y,z
x,1/2-y,z
1/2+x,1/2+y,1/2+z
1/2-x,-y,1/2+z
1/2+x,1/2-y,1/2-z
1/2-x,y,1/2-z
1/2-x,1/2-y,1/2-z
1/2+x,y,1/2-z
1/2-x,1/2+y,1/2+z
1/2+x,-y,1/2+z
loop_
_atom_site_type_symbol
_atom_site_label
_atom_site_fract_x
_atom_site_fract_y
_atom_site_fract_z
Si Si1 0.289217 0.511728 0.080302
Si Si2 0.699595 0.137428 0.907801
Si Si3 0.207815 0.750000 0.331491
Si Si4 0.202027 0.315271 0.053507
Si Si5 0.205057 0.402769 0.331335
O O1 0.500000 0.512860 0.080730
O O2 0.226436 0.574353 0.103387
O O3 0.232014 0.460481 0.130355
O O4 0.237616 0.500000 0.000000
O O5 0.500000 0.134180 0.886264
O O6 0.775547 0.192279 0.868193
O O7 0.707747 0.151183 0.990427
O O8 0.250000 0.750000 0.250000
O O9 0.000000 0.750000 0.340967
O O10 0.264586 0.250000 0.056710
O O11 0.226371 0.348759 0.125620
O O12 0.000000 0.314385 0.036645
O O13 0.250000 0.401807 0.250000
O O14 0.000000 0.401800 0.338358
#
# Coordination Sequence:
#
# PCOD9536775 Si02
#       5
#    16  16   8  16  16
#     4   9  17  33  60  88 113 147 191 236 282 341
#     4  10  19  36  61  88 114 152 200 239 285 346
#     4  10  22  36  56  84 119 156 193 236 286 340
#     4  11  23  38  59  88 118 150 192 244 296 348
#     4  11  23  40  61  86 120 156 193 240 292 348
#
# _framework density 20.709088000000001
#
# number of rings (size 3 to 8) (size 9 to 14) (size 15 to 20)
#    0.000    1.778    3.333    1.333    0.000    3.556 
#    0.000    3.333    0.000    0.000    0.000    0.000 
#    0.000    0.000    0.000    0.000    0.000    0.000 
#
# Total GULP energy -201109.392000 kJ/mol
# GULP energy per Si atom -5586.372000 kJ/mol
# Density = 2.066195 g / cm^3
# Si number density = 20.709088 Si / 1000 Ang^3
#
#
#
# Elastic Constant Matrix: (Units=GPa)
#
#
# Indices 1 2 3 4 5 6 
#
# 1 34.9217 -1.9748 -20.3723 0.0000 0.0000 0.0000
# 2 -1.9748 110.1908 1.9714 0.0000 0.0000 0.0000
# 3 -20.3723 1.9714 73.3764 0.0002 0.0000 0.0000
# 4 0.0000 0.0000 0.0002 -103.1122 0.0000 0.0000
# 5 0.0000 0.0000 0.0000 0.0000 27.6613 0.0000
# 6 0.0000 0.0000 0.0000 0.0000 0.0000 -55.6984
#
#
#
# Elastic Compliance Matrix: (Units=1/GPa)
#
#
# Indices 1 2 3 4 5 6 
#
# 1 0.034192 0.000443 0.009481 0.000000 0.000000 0.000000
# 2 0.000443 0.009085 -0.000121 0.000000 0.000000 0.000000
# 3 0.009481 -0.000121 0.016264 0.000000 0.000000 0.000000
# 4 0.000000 0.000000 0.000000 -0.009698 0.000000 0.000000
# 5 0.000000 0.000000 0.000000 0.000000 0.036152 0.000000
# 6 0.000000 0.000000 0.000000 0.000000 0.000000 -0.017954
#
#
# Mechanical properties :
#
#
# Convention : Reuss Voigt Hill
#
# Bulk Modulus (GPa) = 12.63470 19.74859 16.19165
# Shear Modulus (GPa) = 66.83031 -10.30554 28.26238
#
# Velocity S-wave (km/s) = 5.68692 -2.23319 3.69824
# Velocity P-wave (km/s) = 7.01682 1.70510 5.10603
#
# Compressibility (1/GPa) = 0.07914713
#
# Stress axis : x y z
#
# Youngs Moduli (GPa) = 29.24700 110.06820 61.48564
#
# Poissons Ratio (x) = -0.04878 -0.58295
# Poissons Ratio (y) = -0.01296 0.00744
# Poissons Ratio (z) = -0.27729 0.01332
#
# Static dielectric constant tensor:
#      x y z
#    x 1.766940 0.000000 0.000000 
#    y 0.000000 1.757090 0.000000 
#    z 0.000000 0.000000 1.703310 
# 
# From -- ./inp_files/39470.got.cif
#   From: 2010.05.17/outbox.cif.g08.bks.cpg/sg74_20_cif.got.tgz:39470.got - 2010.06.03 17:57:02.
