data_PCOD9536756
_publ_section_title
;
Structure prediction by ZEFSAII (Michael W. Deem and Ramdas Pophale) SiO2 
 PCOD9536756
Probable space group: I M M A
;
_chemical_formula_sum "Si O2"
_cell_formula_units_Z 96
_cell_length_a 16.398308
_cell_length_b 30.740406
_cell_length_c 9.201867
_cell_angle_alpha 90.000000
_cell_angle_beta 90.000000
_cell_angle_gamma 90.000000
_cell_volume 4638.575077
_symmetry_space_group_name_H-M "I M M A"
_symmetry_group_IT_number 74
_symmetry_cell_setting 'orthorhombic'
loop_
_space_group_symop_operation_xyz
x,y,z
-x,1/2-y,z
x,-y,-z
-x,1/2+y,-z
-x,-y,-z
x,1/2+y,-z
-x,y,z
x,1/2-y,z
1/2+x,1/2+y,1/2+z
1/2-x,-y,1/2+z
1/2+x,1/2-y,1/2-z
1/2-x,y,1/2-z
1/2-x,1/2-y,1/2-z
1/2+x,y,1/2-z
1/2-x,1/2+y,1/2+z
1/2+x,-y,1/2+z
loop_
_atom_site_type_symbol
_atom_site_label
_atom_site_fract_x
_atom_site_fract_y
_atom_site_fract_z
Si Si1 0.099618 0.883333 0.007808
Si Si2 0.400576 0.297996 0.344457
Si Si3 0.093414 0.530833 0.858118
Si Si4 0.185647 0.971668 0.368570
Si Si5 0.401706 0.613625 0.151560
Si Si6 0.099397 0.701435 0.506079
O O1 0.118702 0.887978 0.177223
O O2 0.000000 0.884399 0.000632
O O3 0.127997 0.837682 0.942415
O O4 0.130941 0.923618 0.911673
O O5 0.500000 0.298135 0.349035
O O6 0.373477 0.250000 0.392737
O O7 0.378085 0.303711 0.175551
O O8 0.131802 0.505316 0.724802
O O9 0.000000 0.539689 0.817498
O O10 0.092535 0.500000 0.000000
O O11 0.250000 0.956254 0.250000
O O12 0.221134 0.000000 0.500000
O O13 0.136600 0.929356 0.419599
O O14 0.500000 0.611315 0.138024
O O15 0.373567 0.659390 0.083862
O O16 0.125627 0.750000 0.457505
O O17 0.000000 0.701568 0.499815
#
# Coordination Sequence:
#
# PCOD9536756 Si02
#       6
#    16  16  16  16  16  16
#     4   9  17  28  49  77 106 141 174 216 270 325
#     4   8  14  25  42  70 110 148 177 212 265 327
#     4  10  19  36  59  82 112 144 177 225 283 335
#     4  12  27  42  57  78 110 148 192 236 288 340
#     4  10  20  35  57  85 113 144 186 232 278 331
#     4   8  15  28  47  76 114 147 178 224 276 324
#
# _framework density 20.696010999999999
#
# number of rings (size 3 to 8) (size 9 to 14) (size 15 to 20)
#    0.000    2.500    1.667    2.000    2.333    2.000 
#    0.000    3.333    0.000    0.500    0.000    0.000 
#    0.000    4.000    0.000    0.000    0.000    0.000 
#
# Total GULP energy -267812.853389 kJ/mol
# GULP energy per Si atom -5579.434446 kJ/mol
# Density = 2.064891 g / cm^3
# Si number density = 20.696011 Si / 1000 Ang^3
#
#
#
# Elastic Constant Matrix: (Units=GPa)
#
#
# Indices 1 2 3 4 5 6 
#
# 1 17.1502 22.0888 13.4373 0.0004 -0.0002 -0.0002
# 2 22.0888 173.1572 35.0563 0.0007 0.0002 -0.0004
# 3 13.4373 35.0563 22.6858 -0.0042 -0.0009 0.0010
# 4 0.0004 0.0007 -0.0042 41.4314 -0.0004 0.0002
# 5 -0.0002 0.0002 -0.0009 -0.0004 13.5317 0.0001
# 6 -0.0002 -0.0004 0.0010 0.0002 0.0001 -6.8089
#
#
#
# Elastic Compliance Matrix: (Units=1/GPa)
#
#
# Indices 1 2 3 4 5 6 
#
# 1 0.108977 -0.001213 -0.062676 -0.000007 -0.000003 -0.000012
# 2 -0.001213 0.008418 -0.012290 -0.000001 -0.000001 -0.000002
# 3 -0.062676 -0.012290 0.100196 0.000011 0.000006 0.000017
# 4 -0.000007 -0.000001 0.000011 0.024136 0.000001 0.000001
# 5 -0.000003 -0.000001 0.000006 0.000001 0.073901 0.000002
# 6 -0.000012 -0.000002 0.000017 0.000001 0.000002 -0.146866
#
#
# Mechanical properties :
#
#
# Convention : Reuss Voigt Hill
#
# Bulk Modulus (GPa) = 15.32924 39.35089 27.34006
# Shear Modulus (GPa) = 14.58306 19.12489 16.85398
#
# Velocity S-wave (km/s) = 2.65737 3.04318 2.85679
# Velocity P-wave (km/s) = 4.10346 5.60383 4.91128
#
# Compressibility (1/GPa) = 0.06523482
#
# Stress axis : x y z
#
# Youngs Moduli (GPa) = 9.17623 118.79413 9.98044
#
# Poissons Ratio (x) = 0.14407 0.62553
# Poissons Ratio (y) = 0.01113 0.12266
# Poissons Ratio (z) = 0.57512 1.45996
#
# Static dielectric constant tensor:
#      x y z
#    x 1.767080 0.000000 0.000000 
#    y 0.000000 1.745790 0.000000 
#    z 0.000000 0.000000 1.705940 
# 
# From -- ./inp_files/12662.got.cif
#   From: 2010.05.17/outbox.cif.g08.bks.cpg/sg74_7_cif.got.tgz:12662.got - 2010.06.03 17:57:02.
