data_PCOD9536519
_publ_section_title
;
Structure prediction by ZEFSAII (Michael W. Deem and Ramdas Pophale) SiO2 
 PCOD9536519
Probable space group: I M M A
;
_chemical_formula_sum "Si O2"
_cell_formula_units_Z 56
_cell_length_a 13.480665
_cell_length_b 18.079293
_cell_length_c 11.244983
_cell_angle_alpha 90.000000
_cell_angle_beta 90.000000
_cell_angle_gamma 90.000000
_cell_volume 2740.637291
_symmetry_space_group_name_H-M "I M M A"
_symmetry_group_IT_number 74
_symmetry_cell_setting 'orthorhombic'
loop_
_space_group_symop_operation_xyz
x,y,z
-x,1/2-y,z
x,-y,-z
-x,1/2+y,-z
-x,-y,-z
x,1/2+y,-z
-x,y,z
x,1/2-y,z
1/2+x,1/2+y,1/2+z
1/2-x,-y,1/2+z
1/2+x,1/2-y,1/2-z
1/2-x,y,1/2-z
1/2-x,1/2-y,1/2-z
1/2+x,y,1/2-z
1/2-x,1/2+y,1/2+z
1/2+x,-y,1/2+z
loop_
_atom_site_type_symbol
_atom_site_label
_atom_site_fract_x
_atom_site_fract_y
_atom_site_fract_z
Si Si1 0.618749 0.665641 0.219514
Si Si2 0.750000 0.082485 0.250000
Si Si3 0.617471 0.412327 0.033431
Si Si4 0.881402 0.968120 0.126623
O O1 0.500000 0.666524 0.233528
O O2 0.651030 0.750000 0.227463
O O3 0.654766 0.610807 0.324348
O O4 0.634628 0.630850 0.089747
O O5 0.698034 0.116460 0.131780
O O6 0.840413 0.029296 0.214628
O O7 0.500000 0.401954 0.068314
O O8 0.628415 0.500000 0.000000
O O9 0.000000 0.966784 0.126528
O O10 0.848842 0.000000 0.000000
#
# Coordination Sequence:
#
# PCOD9536519 Si02
#       4
#    16   8  16  16
#     4   9  18  36  61  86 111 145 192 245 293 341
#     4  12  20  32  56  82 114 150 196 240 280 336
#     4  10  19  34  57  84 113 151 197 241 287 344
#     4  10  21  35  55  85 115 147 190 237 289 346
#
# _framework density 20.433204
#
# number of rings (size 3 to 8) (size 9 to 14) (size 15 to 20)
#    0.000    2.000    2.857    1.714    0.000    0.000 
#    0.000    1.429    0.000    1.714    0.000    8.000 
#    0.000    0.000    0.000    0.000    0.000    0.000 
#
# Total GULP energy -155962.531002 kJ/mol
# GULP energy per Si atom -5570.090393 kJ/mol
# Density = 2.038670 g / cm^3
# Si number density = 20.433204 Si / 1000 Ang^3
#
#
#
# Elastic Constant Matrix: (Units=GPa)
#
#
# Indices 1 2 3 4 5 6 
#
# 1 123.2115 19.5252 36.2210 0.0000 0.0000 0.0000
# 2 19.5252 105.1672 71.6715 0.0000 0.0000 0.0000
# 3 36.2210 71.6715 118.0875 0.0000 0.0000 0.0000
# 4 0.0000 0.0000 0.0000 4.0418 0.0000 0.0000
# 5 0.0000 0.0000 0.0000 0.0000 41.5021 0.0000
# 6 0.0000 0.0000 0.0000 0.0000 0.0000 -101.0057
#
#
#
# Elastic Compliance Matrix: (Units=1/GPa)
#
#
# Indices 1 2 3 4 5 6 
#
# 1 0.008928 0.000356 -0.002955 0.000000 0.000000 0.000000
# 2 0.000356 0.016230 -0.009960 0.000000 0.000000 0.000000
# 3 -0.002955 -0.009960 0.015420 0.000000 0.000000 0.000000
# 4 0.000000 0.000000 0.000000 0.247413 0.000000 0.000000
# 5 0.000000 0.000000 0.000000 0.000000 0.024095 0.000000
# 6 0.000000 0.000000 0.000000 0.000000 0.000000 -0.009900
#
#
# Mechanical properties :
#
#
# Convention : Reuss Voigt Hill
#
# Bulk Modulus (GPa) = 64.67881 66.81130 65.74505
# Shear Modulus (GPa) = 15.03954 3.51089 9.27521
#
# Velocity S-wave (km/s) = 2.71594 1.31223 2.13287
# Velocity P-wave (km/s) = 6.44652 5.92152 6.18959
#
# Compressibility (1/GPa) = 0.01546101
#
# Stress axis : x y z
#
# Youngs Moduli (GPa) = 112.00338 61.61328 64.85254
#
# Poissons Ratio (x) = -0.02193 0.19162
# Poissons Ratio (y) = -0.03987 0.64593
# Poissons Ratio (z) = 0.33093 0.61366
#
# Static dielectric constant tensor:
#      x y z
#    x 1.787240 0.000000 0.000000 
#    y 0.000000 1.708680 0.000000 
#    z 0.000000 0.000000 1.955780 
# 
# From -- ./inp_files/19590.got.cif
#   From: 2010.05.17/outbox.cif.g08.bks.cpg/sg74_10_cif.got.tgz:19590.got - 2010.06.03 17:57:02.
