data_PCOD9536419
_publ_section_title
;
Structure prediction by ZEFSAII (Michael W. Deem and Ramdas Pophale) SiO2 
 PCOD9536419
Probable space group: I M M A
;
_chemical_formula_sum "Si O2"
_cell_formula_units_Z 96
_cell_length_a 23.952322
_cell_length_b 23.188560
_cell_length_c 8.588514
_cell_angle_alpha 90.000000
_cell_angle_beta 90.000000
_cell_angle_gamma 90.000000
_cell_volume 4770.231208
_symmetry_space_group_name_H-M "I M M A"
_symmetry_group_IT_number 74
_symmetry_cell_setting 'orthorhombic'
loop_
_space_group_symop_operation_xyz
x,y,z
-x,1/2-y,z
x,-y,-z
-x,1/2+y,-z
-x,-y,-z
x,1/2+y,-z
-x,y,z
x,1/2-y,z
1/2+x,1/2+y,1/2+z
1/2-x,-y,1/2+z
1/2+x,1/2-y,1/2-z
1/2-x,y,1/2-z
1/2-x,1/2-y,1/2-z
1/2+x,y,1/2-z
1/2-x,1/2+y,1/2+z
1/2+x,-y,1/2+z
loop_
_atom_site_type_symbol
_atom_site_label
_atom_site_fract_x
_atom_site_fract_y
_atom_site_fract_z
Si Si1 0.062670 0.535213 0.767269
Si Si2 0.773628 0.392292 0.581562
Si Si3 0.889782 0.086853 0.713550
Si Si4 0.438405 0.147723 0.053410
Si Si5 0.339228 0.408928 0.455583
Si Si6 0.326208 0.815147 0.812759
O O1 0.072827 0.470210 0.713903
O O2 0.064022 0.584043 0.633912
O O3 0.117180 0.548905 0.871284
O O4 0.000000 0.540052 0.838783
O O5 0.750000 0.370559 0.750000
O O6 0.831499 0.424345 0.621203
O O7 0.722673 0.428667 0.507929
O O8 0.791254 0.344224 0.454235
O O9 0.922448 0.136724 0.624537
O O10 0.871333 0.106028 0.885240
O O11 0.500000 0.170926 0.074735
O O12 0.390103 0.184064 0.130784
O O13 0.326924 0.356576 0.337393
O O14 0.309249 0.750000 0.780469
#
# Coordination Sequence:
#
# PCOD9536419 Si02
#       6
#    16  16  16  16  16  16
#     4  10  20  35  57  84 113 149 189 227 275 332
#     4   9  20  38  55  79 111 141 182 232 281 332
#     4  10  19  34  54  80 113 147 183 224 268 324
#     4   9  19  36  57  81 109 141 182 230 276 329
#     4  10  21  36  52  80 115 145 183 227 273 331
#     4  10  21  38  60  81 104 141 185 231 285 341
#
# _framework density 20.124811000000001
#
# number of rings (size 3 to 8) (size 9 to 14) (size 15 to 20)
#    0.000    2.333    0.000    2.000    0.000    5.333 
#    0.000   35.000    0.000    0.000    0.000    0.000 
#    0.000    0.000    0.000    0.000    0.000    0.000 
#
# Total GULP energy -267491.218040 kJ/mol
# GULP energy per Si atom -5572.733709 kJ/mol
# Density = 2.007901 g / cm^3
# Si number density = 20.124811 Si / 1000 Ang^3
#
#
#
# Elastic Constant Matrix: (Units=GPa)
#
#
# Indices 1 2 3 4 5 6 
#
# 1 149.0641 18.5902 17.6950 0.0000 0.0000 0.0000
# 2 18.5902 64.2085 29.4863 0.0000 0.0000 0.0000
# 3 17.6950 29.4863 61.0621 0.0000 0.0000 0.0000
# 4 0.0000 0.0000 0.0000 5.8517 0.0000 0.0000
# 5 0.0000 0.0000 0.0000 0.0000 17.3313 0.0000
# 6 0.0000 0.0000 0.0000 0.0000 0.0000 -2.6894
#
#
#
# Elastic Compliance Matrix: (Units=1/GPa)
#
#
# Indices 1 2 3 4 5 6 
#
# 1 0.007046 -0.001417 -0.001358 0.000000 0.000000 0.000000
# 2 -0.001417 0.020297 -0.009391 0.000000 0.000000 0.000000
# 3 -0.001358 -0.009391 0.021305 0.000000 0.000000 0.000000
# 4 0.000000 0.000000 0.000000 0.170890 0.000000 0.000000
# 5 0.000000 0.000000 0.000000 0.000000 0.057699 0.000000
# 6 0.000000 0.000000 0.000000 0.000000 0.000000 -0.371825
#
#
# Mechanical properties :
#
#
# Convention : Reuss Voigt Hill
#
# Bulk Modulus (GPa) = 41.12193 45.09753 43.10973
# Shear Modulus (GPa) = -80.44980 18.00292 -31.22344
#
# Velocity S-wave (km/s) = -6.32947 2.99417 -3.94317
# Velocity P-wave (km/s) = 5.73921 5.86609 0.85805
#
# Compressibility (1/GPa) = 0.02431793
#
# Stress axis : x y z
#
# Youngs Moduli (GPa) = 141.91689 49.26878 46.93749
#
# Poissons Ratio (x) = 0.06979 0.06374
# Poissons Ratio (y) = 0.20103 0.44077
# Poissons Ratio (z) = 0.19271 0.46267
#
# Static dielectric constant tensor:
#      x y z
#    x 1.734140 0.000000 0.000000 
#    y 0.000000 1.655400 0.000000 
#    z 0.000000 0.000000 1.748980 
# 
# From -- ./inp_files/13893.got.cif
#   From: 2010.05.17/outbox.cif.g08.bks.cpg/sg74_7_cif.got.tgz:13893.got - 2010.06.03 17:57:02.
