data_PCOD9536206
_publ_section_title
;
Structure prediction by ZEFSAII (Michael W. Deem and Ramdas Pophale) SiO2 
 PCOD9536206
Probable space group: I M M A
;
_chemical_formula_sum "Si O2"
_cell_formula_units_Z 80
_cell_length_a 25.400544
_cell_length_b 33.973003
_cell_length_c 5.058247
_cell_angle_alpha 90.000000
_cell_angle_beta 90.000000
_cell_angle_gamma 90.000000
_cell_volume 4364.927032
_symmetry_space_group_name_H-M "I M M A"
_symmetry_group_IT_number 74
_symmetry_cell_setting 'orthorhombic'
loop_
_space_group_symop_operation_xyz
x,y,z
-x,1/2-y,z
x,-y,-z
-x,1/2+y,-z
-x,-y,-z
x,1/2+y,-z
-x,y,z
x,1/2-y,z
1/2+x,1/2+y,1/2+z
1/2-x,-y,1/2+z
1/2+x,1/2-y,1/2-z
1/2-x,y,1/2-z
1/2-x,1/2-y,1/2-z
1/2+x,y,1/2-z
1/2-x,1/2+y,1/2+z
1/2+x,-y,1/2+z
loop_
_atom_site_type_symbol
_atom_site_label
_atom_site_fract_x
_atom_site_fract_y
_atom_site_fract_z
Si Si1 0.612839 0.899234 0.688686
Si Si2 0.786105 0.204898 0.490812
Si Si3 0.386574 0.155918 0.817102
Si Si4 0.687627 0.472802 0.252590
Si Si5 0.500000 0.657291 0.078153
Si Si6 0.000000 0.396173 0.072285
O O1 0.621601 0.864564 0.469334
O O2 0.656359 0.932563 0.707706
O O3 0.555217 0.916914 0.624312
O O4 0.609909 0.879454 0.974187
O O5 0.799868 0.250000 0.416025
O O6 0.750000 0.188478 0.250000
O O7 0.838436 0.182056 0.578526
O O8 0.750000 0.205545 0.750000
O O9 0.443976 0.176867 0.846494
O O10 0.676111 0.500000 0.500000
O O11 0.750000 0.464077 0.250000
O O12 0.674895 0.500000 0.000000
O O13 0.500000 0.619640 0.274437
O O14 0.500000 0.641593 0.776072
#
# Coordination Sequence:
#
# PCOD9536206 Si02
#       6
#    16  16  16  16   8   8
#     4  10  19  33  54  76  99 129 169 210 248 300
#     4  10  21  36  52  74 108 142 169 208 262 308
#     4  10  19  33  54  78 101 131 172 212 249 300
#     4  10  21  36  50  68  99 134 164 203 257 304
#     4   8  16  30  49  73 102 130 159 206 261 296
#     4   8  16  30  48  73 101 126 155 204 261 296
#
# _framework density 18.327912999999999
#
# number of rings (size 3 to 8) (size 9 to 14) (size 15 to 20)
#    0.000    2.400    0.000    2.400    0.000    2.400 
#    0.000    1.500    0.000    0.000    0.000   12.600 
#    0.000    0.000    0.000    0.000    0.000    0.000 
#
# Total GULP energy -222712.171661 kJ/mol
# GULP energy per Si atom -5567.804292 kJ/mol
# Density = 1.828620 g / cm^3
# Si number density = 18.327913 Si / 1000 Ang^3
#
#
#
# Elastic Constant Matrix: (Units=GPa)
#
#
# Indices 1 2 3 4 5 6 
#
# 1 115.5788 43.0108 14.8951 0.0000 0.0000 0.0000
# 2 43.0108 30.6938 2.7585 0.0000 0.0000 0.0000
# 3 14.8951 2.7585 101.5885 0.0000 0.0000 0.0000
# 4 0.0000 0.0000 0.0000 19.5724 0.0000 0.0000
# 5 0.0000 0.0000 0.0000 0.0000 30.8789 0.0000
# 6 0.0000 0.0000 0.0000 0.0000 0.0000 -36.8040
#
#
#
# Elastic Compliance Matrix: (Units=1/GPa)
#
#
# Indices 1 2 3 4 5 6 
#
# 1 0.018482 -0.025717 -0.002011 0.000000 0.000000 0.000000
# 2 -0.025717 0.068445 0.001912 0.000000 0.000000 0.000000
# 3 -0.002011 0.001912 0.010087 0.000000 0.000000 0.000000
# 4 0.000000 0.000000 0.000000 0.051092 0.000000 0.000000
# 5 0.000000 0.000000 0.000000 0.000000 0.032385 0.000000
# 6 0.000000 0.000000 0.000000 0.000000 0.000000 -0.027171
#
#
# Mechanical properties :
#
#
# Convention : Reuss Voigt Hill
#
# Bulk Modulus (GPa) = 22.03594 41.02112 31.52853
# Shear Modulus (GPa) = 22.71906 15.20924 18.96415
#
# Velocity S-wave (km/s) = 3.52460 2.88382 3.22019
# Velocity P-wave (km/s) = 5.34911 5.78955 5.57368
#
# Compressibility (1/GPa) = 0.04538040
#
# Stress axis : x y z
#
# Youngs Moduli (GPa) = 54.10785 14.61019 99.14106
#
# Poissons Ratio (x) = 0.37573 0.19942
# Poissons Ratio (y) = 1.39151 -0.18957
# Poissons Ratio (z) = 0.10884 -0.02794
#
# Static dielectric constant tensor:
#      x y z
#    x 1.695750 0.000000 0.000000 
#    y 0.000000 1.576280 0.000000 
#    z 0.000000 0.000000 1.622970 
# 
# From -- ./inp_files/3886.got.cif
#   From: 2010.05.17/outbox.cif.g08.bks.cpg/sg74_2_cif.got.tgz:3886.got - 2010.06.03 17:57:02.
