data_PCOD9536489
_publ_section_title
;
Structure prediction by ZEFSAII (Michael W. Deem and Ramdas Pophale) SiO2 
 PCOD9536489
Probable space group: I M M A
;
_chemical_formula_sum "Si O2"
_cell_formula_units_Z 104
_cell_length_a 8.770532
_cell_length_b 33.580393
_cell_length_c 20.355104
_cell_angle_alpha 90.000000
_cell_angle_beta 90.000000
_cell_angle_gamma 90.000000
_cell_volume 5994.942716
_symmetry_space_group_name_H-M "I M M A"
_symmetry_group_IT_number 74
_symmetry_cell_setting 'orthorhombic'
loop_
_space_group_symop_operation_xyz
x,y,z
-x,1/2-y,z
x,-y,-z
-x,1/2+y,-z
-x,-y,-z
x,1/2+y,-z
-x,y,z
x,1/2-y,z
1/2+x,1/2+y,1/2+z
1/2-x,-y,1/2+z
1/2+x,1/2-y,1/2-z
1/2-x,y,1/2-z
1/2-x,1/2-y,1/2-z
1/2+x,y,1/2-z
1/2-x,1/2+y,1/2+z
1/2+x,-y,1/2+z
loop_
_atom_site_type_symbol
_atom_site_label
_atom_site_fract_x
_atom_site_fract_y
_atom_site_fract_z
Si Si1 0.318136 0.750000 0.177440
Si Si2 0.182564 0.984967 0.073679
Si Si3 0.816972 0.794268 0.933879
Si Si4 0.683064 0.600363 0.052494
Si Si5 0.317239 0.683227 0.415366
Si Si6 0.816496 0.547101 0.677904
Si Si7 0.682804 0.123312 0.096993
O O1 0.500000 0.750000 0.179538
O O2 0.250000 0.750000 0.250000
O O3 0.257630 0.711866 0.137606
O O4 0.248328 0.940563 0.078731
O O5 0.000000 0.984790 0.080871
O O6 0.255409 0.014400 0.126801
O O7 0.219796 0.000000 0.000000
O O8 0.764155 0.750000 0.913835
O O9 0.780034 0.800678 0.011193
O O10 0.000000 0.795321 0.928328
O O11 0.750294 0.832516 0.896888
O O12 0.500000 0.600022 0.057107
O O13 0.752114 0.638763 0.088276
O O14 0.725177 0.606247 0.975283
O O15 0.500000 0.683526 0.408779
O O16 0.750000 0.540505 0.750000
O O17 0.769314 0.590654 0.650298
O O18 0.000000 0.545582 0.679157
O O19 0.500000 0.126401 0.098308
#
# Coordination Sequence:
#
# PCOD9536489 Si02
#       7
#     8  16  16  16  16  16  16
#     4  12  24  38  56  78 106 148 193 232 279 338
#     4  11  22  36  58  87 116 151 194 237 285 341
#     4   9  17  30  51  80 112 142 175 222 277 325
#     4  10  19  34  56  84 114 145 184 232 285 335
#     4  10  19  35  54  78 111 144 181 229 280 332
#     4  11  23  40  59  83 116 153 192 237 288 344
#     4   9  19  33  52  80 112 146 183 226 278 330
#
# _framework density 17.347957000000001
#
# number of rings (size 3 to 8) (size 9 to 14) (size 15 to 20)
#    0.000    1.846    2.308    2.538    0.000    3.385 
#    0.000    0.769    0.000    0.462    0.000    0.000 
#    0.000    0.000    0.000    0.000    0.000    0.000 
#
# Total GULP energy -290318.727262 kJ/mol
# GULP energy per Si atom -5583.052447 kJ/mol
# Density = 1.730847 g / cm^3
# Si number density = 17.347957 Si / 1000 Ang^3
#
#
#
# Elastic Constant Matrix: (Units=GPa)
#
#
# Indices 1 2 3 4 5 6 
#
# 1 62.8512 55.6941 47.6600 0.0000 0.0000 0.0000
# 2 55.6941 184.0619 69.5233 0.0000 0.0000 0.0000
# 3 47.6600 69.5233 97.3162 0.0000 0.0000 0.0000
# 4 0.0000 0.0000 0.0000 20.9342 0.0000 0.0000
# 5 0.0000 0.0000 0.0000 0.0000 21.4512 0.0000
# 6 0.0000 0.0000 0.0000 0.0000 0.0000 35.2922
#
#
#
# Elastic Compliance Matrix: (Units=1/GPa)
#
#
# Indices 1 2 3 4 5 6 
#
# 1 0.027759 -0.004471 -0.010401 0.000000 0.000000 0.000000
# 2 -0.004471 0.008161 -0.003641 0.000000 0.000000 0.000000
# 3 -0.010401 -0.003641 0.017970 0.000000 0.000000 0.000000
# 4 0.000000 0.000000 0.000000 0.047769 0.000000 0.000000
# 5 0.000000 0.000000 0.000000 0.000000 0.046617 0.000000
# 6 0.000000 0.000000 0.000000 0.000000 0.000000 0.028335
#
#
# Mechanical properties :
#
#
# Convention : Reuss Voigt Hill
#
# Bulk Modulus (GPa) = 59.29144 76.66490 67.97817
# Shear Modulus (GPa) = 22.80411 26.95898 24.88155
#
# Velocity S-wave (km/s) = 3.62955 3.94638 3.79128
# Velocity P-wave (km/s) = 7.19839 8.06558 7.64429
#
# Compressibility (1/GPa) = 0.01686584
#
# Stress axis : x y z
#
# Youngs Moduli (GPa) = 36.02372 122.53564 55.64687
#
# Poissons Ratio (x) = 0.54785 0.57878
# Poissons Ratio (y) = 0.16106 0.20259
# Poissons Ratio (z) = 0.37468 0.44610
#
# Static dielectric constant tensor:
#      x y z
#    x 1.576870 0.000000 0.000000 
#    y 0.000000 1.589710 0.000000 
#    z 0.000000 0.000000 1.569020 
# 
# From -- ./inp_files/49609.got.cif
#   From: 2010.05.17/outbox.cif.g08.bks.cpg/sg74_25_cif.got.tgz:49609.got - 2010.06.03 17:57:02.
