data_PCOD9536729
_publ_section_title
;
Structure prediction by ZEFSAII (Michael W. Deem and Ramdas Pophale) SiO2 
 PCOD9536729
Probable space group: I M M A
;
_chemical_formula_sum "Si O2"
_cell_formula_units_Z 112
_cell_length_a 30.067867
_cell_length_b 14.709051
_cell_length_c 13.182386
_cell_angle_alpha 90.000000
_cell_angle_beta 90.000000
_cell_angle_gamma 90.000000
_cell_volume 5830.171077
_symmetry_space_group_name_H-M "I M M A"
_symmetry_group_IT_number 74
_symmetry_cell_setting 'orthorhombic'
loop_
_space_group_symop_operation_xyz
x,y,z
-x,1/2-y,z
x,-y,-z
-x,1/2+y,-z
-x,-y,-z
x,1/2+y,-z
-x,y,z
x,1/2-y,z
1/2+x,1/2+y,1/2+z
1/2-x,-y,1/2+z
1/2+x,1/2-y,1/2-z
1/2-x,y,1/2-z
1/2-x,1/2-y,1/2-z
1/2+x,y,1/2-z
1/2-x,1/2+y,1/2+z
1/2+x,-y,1/2+z
loop_
_atom_site_type_symbol
_atom_site_label
_atom_site_fract_x
_atom_site_fract_y
_atom_site_fract_z
Si Si1 0.772318 0.607989 0.102878
Si Si2 0.319211 0.149298 0.167190
Si Si3 0.612804 0.501012 0.158353
Si Si4 0.948331 0.854613 0.456804
Si Si5 0.783174 0.391932 0.119022
Si Si6 0.318418 0.848654 0.193560
Si Si7 0.551473 0.647485 0.797412
O O1 0.780438 0.501014 0.118719
O O2 0.719249 0.624235 0.111335
O O3 0.793639 0.655139 0.199150
O O4 0.792648 0.637123 0.995862
O O5 0.335135 0.250000 0.140825
O O6 0.267531 0.139519 0.138245
O O7 0.315415 0.137892 0.290061
O O8 0.351142 0.073623 0.118014
O O9 0.581807 0.564808 0.087973
O O10 0.644597 0.575733 0.206997
O O11 0.582348 0.437541 0.230336
O O12 0.937170 0.750000 0.426236
O O13 0.946546 0.855769 0.579290
O O14 0.000000 0.871128 0.428302
O O15 0.336324 0.750000 0.165827
O O16 0.500000 0.635464 0.768208
O O17 0.565269 0.750000 0.766388
#
# Coordination Sequence:
#
# PCOD9536729 Si02
#       7
#    16  16  16  16  16  16  16
#     4  10  19  36  56  71  96 139 180 215 261 306
#     4  11  22  35  51  74 104 136 175 219 257 301
#     4  12  20  32  47  72 104 135 162 209 257 292
#     4   9  19  35  53  73  98 133 174 208 247 305
#     4  10  19  36  56  71  96 139 180 215 261 306
#     4  11  22  35  51  74 104 136 175 219 257 301
#     4   9  19  35  53  73  98 133 174 208 247 305
#
# _framework density 19.210415000000001
#
# number of rings (size 3 to 8) (size 9 to 14) (size 15 to 20)
#    0.000    1.714    2.857    5.143    0.000    5.714 
#    0.000    0.000    0.000    0.000    0.000    0.000 
#    0.000    9.143    0.000   24.000    0.000    0.000 
#
# Total GULP energy -312309.534005 kJ/mol
# GULP energy per Si atom -5576.955964 kJ/mol
# Density = 1.916669 g / cm^3
# Si number density = 19.210415 Si / 1000 Ang^3
#
#
#
# Elastic Constant Matrix: (Units=GPa)
#
#
# Indices 1 2 3 4 5 6 
#
# 1 85.5590 43.7403 1.8019 0.0000 0.0000 0.0000
# 2 43.7403 156.8726 5.8808 0.0000 0.0000 0.0000
# 3 1.8019 5.8808 46.5897 0.0000 0.0000 0.0000
# 4 0.0000 0.0000 0.0000 7.2127 0.0000 0.0000
# 5 0.0000 0.0000 0.0000 0.0000 11.5389 0.0000
# 6 0.0000 0.0000 0.0000 0.0000 0.0000 -29.6770
#
#
#
# Elastic Compliance Matrix: (Units=1/GPa)
#
#
# Indices 1 2 3 4 5 6 
#
# 1 0.013631 -0.003799 -0.000048 0.000000 0.000000 0.000000
# 2 -0.003799 0.007464 -0.000795 0.000000 0.000000 0.000000
# 3 -0.000048 -0.000795 0.021566 0.000000 0.000000 0.000000
# 4 0.000000 0.000000 0.000000 0.138645 0.000000 0.000000
# 5 0.000000 0.000000 0.000000 0.000000 0.086663 0.000000
# 6 0.000000 0.000000 0.000000 0.000000 0.000000 -0.033696
#
#
# Mechanical properties :
#
#
# Convention : Reuss Voigt Hill
#
# Bulk Modulus (GPa) = 29.96048 43.54082 36.75065
# Shear Modulus (GPa) = 19.63231 13.65480 16.64356
#
# Velocity S-wave (km/s) = 3.20028 2.66898 2.94663
# Velocity P-wave (km/s) = 5.41161 5.67559 5.54517
#
# Compressibility (1/GPa) = 0.03337731
#
# Stress axis : x y z
#
# Youngs Moduli (GPa) = 73.36250 133.98290 46.36887
#
# Poissons Ratio (x) = 0.50899 0.00221
# Poissons Ratio (y) = 0.27870 0.03687
# Poissons Ratio (z) = 0.00350 0.10654
#
# Static dielectric constant tensor:
#      x y z
#    x 1.703500 0.000000 0.000000 
#    y 0.000000 1.727530 0.000000 
#    z 0.000000 0.000000 1.686550 
# 
# From -- ./inp_files/37942.got.cif
#   From: 2010.05.17/outbox.cif.g08.bks.cpg/sg74_19_cif.got.tgz:37942.got - 2010.06.03 17:57:02.
