data_PCOD9536236
_publ_section_title
;
Structure prediction by ZEFSAII (Michael W. Deem and Ramdas Pophale) SiO2 
 PCOD9536236
Probable space group: I M M A
;
_chemical_formula_sum "Si O2"
_cell_formula_units_Z 72
_cell_length_a 10.899902
_cell_length_b 15.005353
_cell_length_c 25.064469
_cell_angle_alpha 90.000000
_cell_angle_beta 90.000000
_cell_angle_gamma 90.000000
_cell_volume 4099.466278
_symmetry_space_group_name_H-M "I M M A"
_symmetry_group_IT_number 74
_symmetry_cell_setting 'orthorhombic'
loop_
_space_group_symop_operation_xyz
x,y,z
-x,1/2-y,z
x,-y,-z
-x,1/2+y,-z
-x,-y,-z
x,1/2+y,-z
-x,y,z
x,1/2-y,z
1/2+x,1/2+y,1/2+z
1/2-x,-y,1/2+z
1/2+x,1/2-y,1/2-z
1/2-x,y,1/2-z
1/2-x,1/2-y,1/2-z
1/2+x,y,1/2-z
1/2-x,1/2+y,1/2+z
1/2+x,-y,1/2+z
loop_
_atom_site_type_symbol
_atom_site_label
_atom_site_fract_x
_atom_site_fract_y
_atom_site_fract_z
Si Si1 0.250000 0.549388 0.250000
Si Si2 0.000000 0.356480 0.718017
Si Si3 0.000000 0.142509 0.594259
Si Si4 0.852662 0.648723 0.945309
Si Si5 0.144919 0.495185 0.141868
Si Si6 0.769541 0.642803 0.064057
O O1 0.373948 0.607004 0.242794
O O2 0.223077 0.495291 0.195947
O O3 0.000000 0.250000 0.721027
O O4 0.000000 0.384788 0.655960
O O5 0.873143 0.115815 0.567421
O O6 0.000000 0.250000 0.593899
O O7 0.807147 0.750000 0.936980
O O8 0.812634 0.580357 0.899861
O O9 0.000000 0.650443 0.943106
O O10 0.818265 0.621029 0.005290
O O11 0.162786 0.588547 0.110489
O O12 0.000000 0.482997 0.153508
O O13 0.781552 0.750000 0.071873
#
# Coordination Sequence:
#
# PCOD9536236 Si02
#       6
#     8   8   8  16  16  16
#     4  12  23  38  55  82 112 150 192 232 270 322
#     4  11  22  38  55  79 116 156 191 224 265 326
#     4   9  18  32  50  74 112 147 175 208 261 330
#     4   9  19  37  59  80 104 137 182 232 280 325
#     4  11  22  36  55  80 109 144 183 230 275 324
#     4  10  19  33  54  82 112 143 175 217 271 336
#
# _framework density 17.563262000000002
#
# number of rings (size 3 to 8) (size 9 to 14) (size 15 to 20)
#    0.000    1.778    3.333    1.667    0.000    4.000 
#    0.000    3.889    0.000    0.000    0.000    0.000 
#    0.000    0.000    0.000    0.000    0.000    0.000 
#
# Total GULP energy -200799.380181 kJ/mol
# GULP energy per Si atom -5577.760561 kJ/mol
# Density = 1.752329 g / cm^3
# Si number density = 17.563262 Si / 1000 Ang^3
#
#
#
# Elastic Constant Matrix: (Units=GPa)
#
#
# Indices 1 2 3 4 5 6 
#
# 1 64.4256 11.1141 22.0390 0.0000 0.0000 0.0000
# 2 11.1141 44.6531 45.0259 0.0000 0.0000 0.0000
# 3 22.0390 45.0259 128.4765 0.0000 0.0000 0.0000
# 4 0.0000 0.0000 0.0000 25.2637 0.0000 0.0000
# 5 0.0000 0.0000 0.0000 0.0000 37.5822 0.0000
# 6 0.0000 0.0000 0.0000 0.0000 0.0000 12.5093
#
#
#
# Elastic Compliance Matrix: (Units=1/GPa)
#
#
# Indices 1 2 3 4 5 6 
#
# 1 0.016598 -0.001949 -0.002164 0.000000 0.000000 0.000000
# 2 -0.001949 0.034863 -0.011884 0.000000 0.000000 0.000000
# 3 -0.002164 -0.011884 0.012320 0.000000 0.000000 0.000000
# 4 0.000000 0.000000 0.000000 0.039583 0.000000 0.000000
# 5 0.000000 0.000000 0.000000 0.000000 0.026608 0.000000
# 6 0.000000 0.000000 0.000000 0.000000 0.000000 0.079940
#
#
# Mechanical properties :
#
#
# Convention : Reuss Voigt Hill
#
# Bulk Modulus (GPa) = 31.45949 43.76813 37.61381
# Shear Modulus (GPa) = 19.80186 25.69612 22.74899
#
# Velocity S-wave (km/s) = 3.36141 3.82915 3.60288
# Velocity P-wave (km/s) = 5.74599 6.67265 6.22658
#
# Compressibility (1/GPa) = 0.03178691
#
# Stress axis : x y z
#
# Youngs Moduli (GPa) = 60.24688 28.68379 81.17172
#
# Poissons Ratio (x) = 0.05590 0.17568
# Poissons Ratio (y) = 0.11742 0.96462
# Poissons Ratio (z) = 0.13039 0.34087
#
# Static dielectric constant tensor:
#      x y z
#    x 1.607800 0.000000 0.000000 
#    y 0.000000 1.613030 0.000000 
#    z 0.000000 0.000000 1.598600 
# 
# From -- ./inp_files/58431.got.cif
#   From: 2010.05.17/outbox.cif.g08.bks.cpg/sg74_30_cif.got.tgz:58431.got - 2010.06.03 17:57:02.
