data_PCOD9536805
_publ_section_title
;
Structure prediction by ZEFSAII (Michael W. Deem and Ramdas Pophale) SiO2 
 PCOD9536805
Probable space group: I M M A
;
_chemical_formula_sum "Si O2"
_cell_formula_units_Z 80
_cell_length_a 14.713408
_cell_length_b 13.118792
_cell_length_c 16.466022
_cell_angle_alpha 90.000000
_cell_angle_beta 90.000000
_cell_angle_gamma 90.000000
_cell_volume 3178.306790
_symmetry_space_group_name_H-M "I M M A"
_symmetry_group_IT_number 74
_symmetry_cell_setting 'orthorhombic'
loop_
_space_group_symop_operation_xyz
x,y,z
-x,1/2-y,z
x,-y,-z
-x,1/2+y,-z
-x,-y,-z
x,1/2+y,-z
-x,y,z
x,1/2-y,z
1/2+x,1/2+y,1/2+z
1/2-x,-y,1/2+z
1/2+x,1/2-y,1/2-z
1/2-x,y,1/2-z
1/2-x,1/2-y,1/2-z
1/2+x,y,1/2-z
1/2-x,1/2+y,1/2+z
1/2+x,-y,1/2+z
loop_
_atom_site_type_symbol
_atom_site_label
_atom_site_fract_x
_atom_site_fract_y
_atom_site_fract_z
Si Si1 0.607156 0.750000 0.336697
Si Si2 0.897218 0.000514 0.186949
Si Si3 0.388146 0.750000 0.151092
Si Si4 0.391776 0.376281 0.528340
Si Si5 0.103782 0.033113 0.620380
Si Si6 0.247347 0.136708 0.389588
O O1 0.500000 0.750000 0.320699
O O2 0.618687 0.894702 0.364020
O O3 0.646129 0.750000 0.245627
O O4 0.000000 0.035599 0.168113
O O5 0.897722 0.971527 0.281149
O O6 0.817401 0.079514 0.171523
O O7 0.500000 0.750000 0.151519
O O8 0.358703 0.646957 0.106738
O O9 0.391640 0.500000 0.500000
O O10 0.500000 0.359180 0.510059
O O11 0.378668 0.250000 0.567715
O O12 0.306220 0.355566 0.469092
O O13 0.164029 0.939150 0.594318
O O14 0.000000 0.025998 0.592149
O O15 0.219793 0.250000 0.361486
#
# Coordination Sequence:
#
# PCOD9536805 Si02
#       6
#     8  16   8  16  16  16
#     4   9  14  28  63 103 127 158 208 273 349 405
#     4  10  21  39  65  95 130 172 218 275 339 397
#     4   9  16  36  70 100 125 157 212 285 349 400
#     4  10  19  36  65 100 137 171 211 273 344 405
#     4  10  22  41  66  95 128 172 224 278 335 390
#     4  12  25  38  57  94 143 186 222 260 316 402
#
# _framework density 25.170634
#
# number of rings (size 3 to 8) (size 9 to 14) (size 15 to 20)
#    0.000    1.800    3.000    1.800    0.000    4.800 
#    0.000    5.000    2.200    2.400    0.000    0.000 
#    0.000    3.200    0.000    0.000    0.000    0.000 
#
# Total GULP energy -223049.587700 kJ/mol
# GULP energy per Si atom -5576.239693 kJ/mol
# Density = 2.511334 g / cm^3
# Si number density = 25.170634 Si / 1000 Ang^3
#
#
#
# Elastic Constant Matrix: (Units=GPa)
#
#
# Indices 1 2 3 4 5 6 
#
# 1 94.8228 69.8200 15.3367 0.0000 0.0000 0.0000
# 2 69.8200 251.4353 27.9099 0.0000 0.0000 0.0000
# 3 15.3367 27.9099 84.5332 0.0000 0.0000 0.0000
# 4 0.0000 0.0000 0.0000 33.7402 0.0000 0.0000
# 5 0.0000 0.0000 0.0000 0.0000 25.8300 0.0000
# 6 0.0000 0.0000 0.0000 0.0000 0.0000 45.0520
#
#
#
# Elastic Compliance Matrix: (Units=1/GPa)
#
#
# Indices 1 2 3 4 5 6 
#
# 1 0.013382 -0.003578 -0.001247 0.000000 0.000000 0.000000
# 2 -0.003578 0.005085 -0.001030 0.000000 0.000000 0.000000
# 3 -0.001247 -0.001030 0.012396 0.000000 0.000000 0.000000
# 4 0.000000 0.000000 0.000000 0.029638 0.000000 0.000000
# 5 0.000000 0.000000 0.000000 0.000000 0.038715 0.000000
# 6 0.000000 0.000000 0.000000 0.000000 0.000000 0.022197
#
#
# Mechanical properties :
#
#
# Convention : Reuss Voigt Hill
#
# Bulk Modulus (GPa) = 52.20679 72.99161 62.59920
# Shear Modulus (GPa) = 35.84102 42.10610 38.97356
#
# Velocity S-wave (km/s) = 3.77758 4.09446 3.93921
# Velocity P-wave (km/s) = 6.30976 7.17039 6.75379
#
# Compressibility (1/GPa) = 0.01915460
#
# Stress axis : x y z
#
# Youngs Moduli (GPa) = 74.72799 196.66005 80.67221
#
# Poissons Ratio (x) = 0.70357 0.10057
# Poissons Ratio (y) = 0.26734 0.08308
# Poissons Ratio (z) = 0.09316 0.20252
#
# Static dielectric constant tensor:
#      x y z
#    x 1.887750 0.000000 0.000000 
#    y 0.000000 0.441970 0.000000 
#    z 0.000000 0.000000 2.153550 
# 
# From -- ./inp_files/59736.got.cif
#   From: 2010.05.17/outbox.cif.g08.bks.cpg/sg74_30_cif.got.tgz:59736.got - 2010.06.03 17:57:02.
