data_PCOD9536301
_publ_section_title
;
Structure prediction by ZEFSAII (Michael W. Deem and Ramdas Pophale) SiO2 
 PCOD9536301
Probable space group: I M M A
;
_chemical_formula_sum "Si O2"
_cell_formula_units_Z 72
_cell_length_a 26.132730
_cell_length_b 9.878807
_cell_length_c 14.971363
_cell_angle_alpha 90.000000
_cell_angle_beta 90.000000
_cell_angle_gamma 90.000000
_cell_volume 3865.010007
_symmetry_space_group_name_H-M "I M M A"
_symmetry_group_IT_number 74
_symmetry_cell_setting 'orthorhombic'
loop_
_space_group_symop_operation_xyz
x,y,z
-x,1/2-y,z
x,-y,-z
-x,1/2+y,-z
-x,-y,-z
x,1/2+y,-z
-x,y,z
x,1/2-y,z
1/2+x,1/2+y,1/2+z
1/2-x,-y,1/2+z
1/2+x,1/2-y,1/2-z
1/2-x,y,1/2-z
1/2-x,1/2-y,1/2-z
1/2+x,y,1/2-z
1/2-x,1/2+y,1/2+z
1/2+x,-y,1/2+z
loop_
_atom_site_type_symbol
_atom_site_label
_atom_site_fract_x
_atom_site_fract_y
_atom_site_fract_z
Si Si1 0.585287 0.902089 0.575118
Si Si2 0.314527 0.000000 0.500000
Si Si3 0.735861 0.087977 0.848622
Si Si4 0.124065 0.589871 0.415911
Si Si5 0.438756 0.596537 0.264611
O O1 0.564908 0.750000 0.578575
O O2 0.644764 0.898057 0.544742
O O3 0.560660 0.000000 0.500000
O O4 0.580461 0.983648 0.666917
O O5 0.278738 0.055184 0.578343
O O6 0.732069 0.250000 0.840925
O O7 0.750000 0.034635 0.750000
O O8 0.680326 0.042443 0.883183
O O9 0.108399 0.500000 0.500000
O O10 0.126755 0.750000 0.439394
O O11 0.086167 0.577098 0.332157
O O12 0.500000 0.590290 0.259730
O O13 0.424255 0.750000 0.295363
#
# Coordination Sequence:
#
# PCOD9536301 Si02
#       5
#    16   8  16  16  16
#     4  10  22  37  59  88 121 155 193 238 290 349
#     4  10  20  34  57  86 123 150 194 238 282 346
#     4  10  19  33  56  82 113 156 197 235 285 344
#     4  10  21  38  59  86 118 153 196 244 292 348
#     4  10  22  41  64  87 114 152 199 247 295 346
#
# _framework density 18.628671000000001
#
# number of rings (size 3 to 8) (size 9 to 14) (size 15 to 20)
#    0.667    1.333    1.111    2.667    0.000    4.000 
#    0.000    0.000    0.000    3.333    0.000    0.000 
#    0.000    0.000    0.000    0.000    0.000    0.000 
#
# Total GULP energy -200680.089066 kJ/mol
# GULP energy per Si atom -5574.446918 kJ/mol
# Density = 1.858627 g / cm^3
# Si number density = 18.628671 Si / 1000 Ang^3
#
#
#
# Elastic Constant Matrix: (Units=GPa)
#
#
# Indices 1 2 3 4 5 6 
#
# 1 64.2928 23.2738 32.2440 0.0000 0.0000 0.0000
# 2 23.2738 116.9421 69.6973 0.0000 0.0000 0.0000
# 3 32.2440 69.6973 124.9844 0.0000 0.0000 0.0000
# 4 0.0000 0.0000 0.0000 20.3478 0.0000 0.0000
# 5 0.0000 0.0000 0.0000 0.0000 14.0434 0.0000
# 6 0.0000 0.0000 0.0000 0.0000 0.0000 -186.6628
#
#
#
# Elastic Compliance Matrix: (Units=1/GPa)
#
#
# Indices 1 2 3 4 5 6 
#
# 1 0.017981 -0.001219 -0.003959 0.000000 0.000000 0.000000
# 2 -0.001219 0.012891 -0.006874 0.000000 0.000000 0.000000
# 3 -0.003959 -0.006874 0.012856 0.000000 0.000000 0.000000
# 4 0.000000 0.000000 0.000000 0.049145 0.000000 0.000000
# 5 0.000000 0.000000 0.000000 0.000000 0.071208 0.000000
# 6 0.000000 0.000000 0.000000 0.000000 0.000000 -0.005357
#
#
# Mechanical properties :
#
#
# Convention : Reuss Voigt Hill
#
# Bulk Modulus (GPa) = 50.96038 61.84992 56.40515
# Shear Modulus (GPa) = 26.40368 -18.38736 4.00816
#
# Velocity S-wave (km/s) = 3.76888 -3.14514 1.46843
# Velocity P-wave (km/s) = 6.80842 4.48156 5.76363
#
# Compressibility (1/GPa) = 0.01962309
#
# Stress axis : x y z
#
# Youngs Moduli (GPa) = 55.61553 77.57505 77.78698
#
# Poissons Ratio (x) = 0.09456 0.30795
# Poissons Ratio (y) = 0.06779 0.53471
# Poissons Ratio (z) = 0.22018 0.53325
#
# Static dielectric constant tensor:
#      x y z
#    x 1.660960 0.000000 0.000000 
#    y 0.000000 1.647640 0.000000 
#    z 0.000000 0.000000 1.626020 
# 
# From -- ./inp_files/37044.got.cif
#   From: 2010.05.17/outbox.cif.g08.bks.cpg/sg74_19_cif.got.tgz:37044.got - 2010.06.03 17:57:02.
