data_PCOD9536683
_publ_section_title
;
Structure prediction by ZEFSAII (Michael W. Deem and Ramdas Pophale) SiO2 
 PCOD9536683
Probable space group: I M M A
;
_chemical_formula_sum "Si O2"
_cell_formula_units_Z 80
_cell_length_a 17.993982
_cell_length_b 16.288667
_cell_length_c 13.961116
_cell_angle_alpha 90.000000
_cell_angle_beta 90.000000
_cell_angle_gamma 90.000000
_cell_volume 4091.974909
_symmetry_space_group_name_H-M "I M M A"
_symmetry_group_IT_number 74
_symmetry_cell_setting 'orthorhombic'
loop_
_space_group_symop_operation_xyz
x,y,z
-x,1/2-y,z
x,-y,-z
-x,1/2+y,-z
-x,-y,-z
x,1/2+y,-z
-x,y,z
x,1/2-y,z
1/2+x,1/2+y,1/2+z
1/2-x,-y,1/2+z
1/2+x,1/2-y,1/2-z
1/2-x,y,1/2-z
1/2-x,1/2-y,1/2-z
1/2+x,y,1/2-z
1/2-x,1/2+y,1/2+z
1/2+x,-y,1/2+z
loop_
_atom_site_type_symbol
_atom_site_label
_atom_site_fract_x
_atom_site_fract_y
_atom_site_fract_z
Si Si1 0.313414 0.096417 0.473658
Si Si2 0.914505 0.341366 0.516458
Si Si3 0.283598 0.622821 0.149330
Si Si4 0.828199 0.931420 0.643424
Si Si5 0.913243 0.153100 0.184265
O O1 0.280392 0.135521 0.569753
O O2 0.247761 0.108776 0.395351
O O3 0.385935 0.130525 0.422508
O O4 0.321269 0.000000 0.500000
O O5 0.909963 0.250000 0.470388
O O6 0.859132 0.340342 0.606514
O O7 0.885449 0.409475 0.442072
O O8 0.000000 0.355811 0.542679
O O9 0.250000 0.649332 0.250000
O O10 0.305933 0.526221 0.154996
O O11 0.864091 0.896344 0.739148
O O12 0.903163 0.250000 0.199774
O O13 0.000000 0.133212 0.197496
#
# Coordination Sequence:
#
# PCOD9536683 Si02
#       5
#    16  16  16  16  16
#     4   9  19  36  56  78 107 145 187 226 266 320
#     4  10  21  36  55  83 115 144 180 227 276 326
#     4  10  21  38  58  80 107 144 192 235 269 317
#     4  10  19  35  60  84 110 141 177 227 284 335
#     4  11  23  36  54  86 121 147 176 218 274 340
#
# _framework density 19.550463000000001
#
# number of rings (size 3 to 8) (size 9 to 14) (size 15 to 20)
#    0.000    2.000    0.000    6.000    0.000    9.600 
#    0.000    1.000    0.000    2.400    0.000    0.000 
#    0.000    0.000    0.000    0.000    0.000    0.000 
#
# Total GULP energy -223144.361102 kJ/mol
# GULP energy per Si atom -5578.609028 kJ/mol
# Density = 1.950597 g / cm^3
# Si number density = 19.550463 Si / 1000 Ang^3
#
#
#
# Elastic Constant Matrix: (Units=GPa)
#
#
# Indices 1 2 3 4 5 6 
#
# 1 49.1956 20.6539 64.6585 0.0000 0.0000 0.0000
# 2 20.6539 44.5694 34.0688 0.0000 0.0000 0.0000
# 3 64.6585 34.0688 126.4758 0.0000 0.0000 0.0000
# 4 0.0000 0.0000 0.0000 17.3019 0.0000 0.0000
# 5 0.0000 0.0000 0.0000 0.0000 7.4002 0.0000
# 6 0.0000 0.0000 0.0000 0.0000 0.0000 20.6430
#
#
#
# Elastic Compliance Matrix: (Units=1/GPa)
#
#
# Indices 1 2 3 4 5 6 
#
# 1 0.063115 -0.005772 -0.030711 0.000000 0.000000 0.000000
# 2 -0.005772 0.028783 -0.004802 0.000000 0.000000 0.000000
# 3 -0.030711 -0.004802 0.024901 0.000000 0.000000 0.000000
# 4 0.000000 0.000000 0.000000 0.057797 0.000000 0.000000
# 5 0.000000 0.000000 0.000000 0.000000 0.135132 0.000000
# 6 0.000000 0.000000 0.000000 0.000000 0.000000 0.048443
#
#
# Mechanical properties :
#
#
# Convention : Reuss Voigt Hill
#
# Bulk Modulus (GPa) = 29.21713 51.00034 40.10874
# Shear Modulus (GPa) = 11.05825 15.79298 13.42561
#
# Velocity S-wave (km/s) = 2.38087 2.84528 2.62337
# Velocity P-wave (km/s) = 4.74710 6.07760 5.45308
#
# Compressibility (1/GPa) = 0.03422650
#
# Stress axis : x y z
#
# Youngs Moduli (GPa) = 15.84414 34.74315 40.15922
#
# Poissons Ratio (x) = 0.20055 1.23335
# Poissons Ratio (y) = 0.09146 0.19285
# Poissons Ratio (z) = 0.48660 0.16684
#
# Static dielectric constant tensor:
#      x y z
#    x 1.670020 0.000000 0.000000 
#    y 0.000000 1.708370 0.000000 
#    z 0.000000 0.000000 1.700810 
# 
# From -- ./inp_files/33978.got.cif
#   From: 2010.05.17/outbox.cif.g08.bks.cpg/sg74_17_cif.got.tgz:33978.got - 2010.06.03 17:57:02.
