data_PCOD9536398
_publ_section_title
;
Structure prediction by ZEFSAII (Michael W. Deem and Ramdas Pophale) SiO2 
 PCOD9536398
Probable space group: I M M A
;
_chemical_formula_sum "Si O2"
_cell_formula_units_Z 100
_cell_length_a 8.985882
_cell_length_b 19.049297
_cell_length_c 33.522814
_cell_angle_alpha 90.000000
_cell_angle_beta 90.000000
_cell_angle_gamma 90.000000
_cell_volume 5738.258804
_symmetry_space_group_name_H-M "I M M A"
_symmetry_group_IT_number 74
_symmetry_cell_setting 'orthorhombic'
loop_
_space_group_symop_operation_xyz
x,y,z
-x,1/2-y,z
x,-y,-z
-x,1/2+y,-z
-x,-y,-z
x,1/2+y,-z
-x,y,z
x,1/2-y,z
1/2+x,1/2+y,1/2+z
1/2-x,-y,1/2+z
1/2+x,1/2-y,1/2-z
1/2-x,y,1/2-z
1/2-x,1/2-y,1/2-z
1/2+x,y,1/2-z
1/2-x,1/2+y,1/2+z
1/2+x,-y,1/2+z
loop_
_atom_site_type_symbol
_atom_site_label
_atom_site_fract_x
_atom_site_fract_y
_atom_site_fract_z
Si Si1 0.822188 0.562396 0.127072
Si Si2 0.176520 0.470682 0.708297
Si Si3 0.750000 0.750000 0.750000
Si Si4 0.321803 0.632925 0.814628
Si Si5 0.677343 0.401529 0.396287
Si Si6 0.176282 0.333785 0.473200
Si Si7 0.678507 0.667737 0.442655
O O1 0.742671 0.567775 0.169647
O O2 0.792244 0.484504 0.109732
O O3 0.776180 0.619988 0.094632
O O4 0.000000 0.567879 0.133114
O O5 0.250000 0.449758 0.750000
O O6 0.207184 0.553777 0.700842
O O7 0.000000 0.461624 0.710178
O O8 0.746984 0.811149 0.784713
O O9 0.500000 0.644211 0.815375
O O10 0.254669 0.636837 0.858875
O O11 0.500000 0.391061 0.394787
O O12 0.742727 0.373888 0.437564
O O13 0.201366 0.250000 0.468378
O O14 0.241782 0.353540 0.516357
O O15 0.000000 0.346636 0.471841
O O16 0.500000 0.660370 0.447861
O O17 0.710358 0.750000 0.435389
#
# Coordination Sequence:
#
# PCOD9536398 Si02
#       7
#    16  16   4  16  16  16  16
#     4   9  19  35  55  81 108 136 171 214 262 311
#     4  10  19  34  54  76 103 137 174 213 256 305
#     4  12  22  36  52  74 102 140 182 226 270 312
#     4  10  22  36  51  73 102 137 179 223 264 307
#     4  10  21  36  54  76 105 140 179 221 264 312
#     4  10  21  36  53  74 105 142 179 219 263 309
#     4   9  18  35  59  83 107 135 169 209 258 318
#
# _framework density 17.426888999999999
#
# number of rings (size 3 to 8) (size 9 to 14) (size 15 to 20)
#    0.000    2.240    0.800    1.680    1.120    4.800 
#    0.000    3.200    0.000    0.480    0.000    0.000 
#    0.000    0.000    0.000    0.000    0.000    0.000 
#
# Total GULP energy -278556.518242 kJ/mol
# GULP energy per Si atom -5571.130365 kJ/mol
# Density = 1.738722 g / cm^3
# Si number density = 17.426889 Si / 1000 Ang^3
#
#
#
# Elastic Constant Matrix: (Units=GPa)
#
#
# Indices 1 2 3 4 5 6 
#
# 1 21.8682 23.9897 54.0622 0.0000 0.0000 0.0000
# 2 23.9897 44.7827 66.8333 0.0000 0.0000 0.0000
# 3 54.0622 66.8333 192.0251 0.0000 0.0000 0.0000
# 4 0.0000 0.0000 0.0000 36.5219 0.0000 0.0000
# 5 0.0000 0.0000 0.0000 0.0000 24.1205 0.0000
# 6 0.0000 0.0000 0.0000 0.0000 0.0000 11.6114
#
#
#
# Elastic Compliance Matrix: (Units=1/GPa)
#
#
# Indices 1 2 3 4 5 6 
#
# 1 0.185050 -0.044485 -0.036616 0.000000 0.000000 0.000000
# 2 -0.044485 0.057159 -0.007370 0.000000 0.000000 0.000000
# 3 -0.036616 -0.007370 0.018081 0.000000 0.000000 0.000000
# 4 0.000000 0.000000 0.000000 0.027381 0.000000 0.000000
# 5 0.000000 0.000000 0.000000 0.000000 0.041459 0.000000
# 6 0.000000 0.000000 0.000000 0.000000 0.000000 0.086122
#
#
# Mechanical properties :
#
#
# Convention : Reuss Voigt Hill
#
# Bulk Modulus (GPa) = 11.99766 60.93849 36.46808
# Shear Modulus (GPa) = 8.06483 22.03679 15.05081
#
# Velocity S-wave (km/s) = 2.15357 3.55988 2.94199
# Velocity P-wave (km/s) = 3.61709 7.20701 5.70194
#
# Compressibility (1/GPa) = 0.08334958
#
# Stress axis : x y z
#
# Youngs Moduli (GPa) = 5.40394 17.49517 55.30571
#
# Poissons Ratio (x) = 0.77827 2.02506
# Poissons Ratio (y) = 0.24039 0.40758
# Poissons Ratio (z) = 0.19787 0.12893
#
# Static dielectric constant tensor:
#      x y z
#    x 1.592010 0.000000 0.000000 
#    y 0.000000 1.579230 0.000000 
#    z 0.000000 0.000000 1.562890 
# 
# From -- ./inp_files/64509.got.cif
#   From: 2010.05.17/outbox.cif.g08.bks.cpg/sg74_33_cif.got.tgz:64509.got - 2010.06.03 17:57:02.
