data_PCOD9536437
_publ_section_title
;
Structure prediction by ZEFSAII (Michael W. Deem and Ramdas Pophale) SiO2 
 PCOD9536437
Probable space group: I M M A
;
_chemical_formula_sum "Si O2"
_cell_formula_units_Z 112
_cell_length_a 18.188763
_cell_length_b 21.449175
_cell_length_c 16.295882
_cell_angle_alpha 90.000000
_cell_angle_beta 90.000000
_cell_angle_gamma 90.000000
_cell_volume 6357.576986
_symmetry_space_group_name_H-M "I M M A"
_symmetry_group_IT_number 74
_symmetry_cell_setting 'orthorhombic'
loop_
_space_group_symop_operation_xyz
x,y,z
-x,1/2-y,z
x,-y,-z
-x,1/2+y,-z
-x,-y,-z
x,1/2+y,-z
-x,y,z
x,1/2-y,z
1/2+x,1/2+y,1/2+z
1/2-x,-y,1/2+z
1/2+x,1/2-y,1/2-z
1/2-x,y,1/2-z
1/2-x,1/2-y,1/2-z
1/2+x,y,1/2-z
1/2-x,1/2+y,1/2+z
1/2+x,-y,1/2+z
loop_
_atom_site_type_symbol
_atom_site_label
_atom_site_fract_x
_atom_site_fract_y
_atom_site_fract_z
Si Si1 0.323826 0.398765 0.472297
Si Si2 0.087188 0.816530 0.861401
Si Si3 0.912436 0.645070 0.683111
Si Si4 0.143108 0.446791 0.573007
Si Si5 0.082806 0.999572 0.728290
Si Si6 0.174122 0.823052 0.519857
Si Si7 0.693943 0.974445 0.375580
O O1 0.389876 0.369171 0.423333
O O2 0.257730 0.348917 0.475587
O O3 0.299800 0.458028 0.418282
O O4 0.343591 0.426338 0.560854
O O5 0.113508 0.750000 0.892883
O O6 0.114303 0.826360 0.769021
O O7 0.000000 0.816327 0.854359
O O8 0.903923 0.571034 0.696984
O O9 0.865411 0.669825 0.607740
O O10 0.000000 0.657939 0.670950
O O11 0.140569 0.500000 0.500000
O O12 0.086339 0.460590 0.645077
O O13 0.136796 0.377496 0.535696
O O14 0.221606 0.451824 0.620841
O O15 0.145554 0.018443 0.793903
O O16 0.000000 0.001792 0.764308
O O17 0.170775 0.750000 0.494523
#
# Coordination Sequence:
#
# PCOD9536437 Si02
#       7
#    16  16  16  16  16  16  16
#     4  10  19  34  55  79 106 142 185 230 268 323
#     4  10  20  33  48  72 113 155 183 218 275 335
#     4  10  20  34  52  78 114 150 181 217 274 341
#     4  11  20  38  59  82 112 150 185 232 287 332
#     4  11  22  35  58  87 114 146 186 231 278 335
#     4  11  22  36  56  82 110 145 189 229 273 335
#     4  10  19  36  58  80 110 146 182 226 286 330
#
# _framework density 17.616775000000001
#
# number of rings (size 3 to 8) (size 9 to 14) (size 15 to 20)
#    0.000    1.571    5.714    1.286    0.000    2.857 
#    0.000    2.857    0.000    7.714    0.000    0.000 
#    0.000    0.000    0.000    0.000    0.000    0.000 
#
# Total GULP energy -311962.189979 kJ/mol
# GULP energy per Si atom -5570.753392 kJ/mol
# Density = 1.757668 g / cm^3
# Si number density = 17.616775 Si / 1000 Ang^3
#
#
#
# Elastic Constant Matrix: (Units=GPa)
#
#
# Indices 1 2 3 4 5 6 
#
# 1 23.2696 22.6207 22.1945 0.0000 0.0000 0.0000
# 2 22.6207 120.2952 37.7410 0.0000 0.0000 0.0000
# 3 22.1945 37.7410 65.1846 0.0000 0.0000 0.0000
# 4 0.0000 0.0000 0.0000 75.6955 0.0000 0.0000
# 5 0.0000 0.0000 0.0000 0.0000 24.5519 0.0000
# 6 0.0000 0.0000 0.0000 0.0000 0.0000 -36.6906
#
#
#
# Elastic Compliance Matrix: (Units=1/GPa)
#
#
# Indices 1 2 3 4 5 6 
#
# 1 0.067829 -0.006732 -0.019197 0.000000 0.000000 0.000000
# 2 -0.006732 0.010826 -0.003976 0.000000 0.000000 0.000000
# 3 -0.019197 -0.003976 0.024180 0.000000 0.000000 0.000000
# 4 0.000000 0.000000 0.000000 0.013211 0.000000 0.000000
# 5 0.000000 0.000000 0.000000 0.000000 0.040730 0.000000
# 6 0.000000 0.000000 0.000000 0.000000 0.000000 -0.027255
#
#
# Mechanical properties :
#
#
# Convention : Reuss Voigt Hill
#
# Bulk Modulus (GPa) = 23.24269 41.54018 32.39144
# Shear Modulus (GPa) = 24.54924 21.12425 22.83674
#
# Velocity S-wave (km/s) = 3.73703 3.46656 3.60433
# Velocity P-wave (km/s) = 5.64293 6.29712 5.97898
#
# Compressibility (1/GPa) = 0.04302427
#
# Stress axis : x y z
#
# Youngs Moduli (GPa) = 14.74299 92.36831 41.35727
#
# Poissons Ratio (x) = 0.62181 0.79394
# Poissons Ratio (y) = 0.09925 0.16444
# Poissons Ratio (z) = 0.28302 0.36727
#
# Static dielectric constant tensor:
#      x y z
#    x 1.625240 0.000000 0.000000 
#    y 0.000000 1.635460 0.000000 
#    z 0.000000 0.000000 1.601310 
# 
# From -- ./inp_files/44455.got.cif
#   From: 2010.05.17/outbox.cif.g08.bks.cpg/sg74_23_cif.got.tgz:44455.got - 2010.06.03 17:57:02.
