data_PCOD9536723
_publ_section_title
;
Structure prediction by ZEFSAII (Michael W. Deem and Ramdas Pophale) SiO2 
 PCOD9536723
Probable space group: I M M A
;
_chemical_formula_sum "Si O2"
_cell_formula_units_Z 112
_cell_length_a 18.928692
_cell_length_b 28.743047
_cell_length_c 12.485616
_cell_angle_alpha 90.000000
_cell_angle_beta 90.000000
_cell_angle_gamma 90.000000
_cell_volume 6793.027669
_symmetry_space_group_name_H-M "I M M A"
_symmetry_group_IT_number 74
_symmetry_cell_setting 'orthorhombic'
loop_
_space_group_symop_operation_xyz
x,y,z
-x,1/2-y,z
x,-y,-z
-x,1/2+y,-z
-x,-y,-z
x,1/2+y,-z
-x,y,z
x,1/2-y,z
1/2+x,1/2+y,1/2+z
1/2-x,-y,1/2+z
1/2+x,1/2-y,1/2-z
1/2-x,y,1/2-z
1/2-x,1/2-y,1/2-z
1/2+x,y,1/2-z
1/2-x,1/2+y,1/2+z
1/2+x,-y,1/2+z
loop_
_atom_site_type_symbol
_atom_site_label
_atom_site_fract_x
_atom_site_fract_y
_atom_site_fract_z
Si Si1 0.826711 0.608024 0.802847
Si Si2 0.134599 0.942801 0.419551
Si Si3 0.081804 0.044377 0.353871
Si Si4 0.332421 0.885554 0.278413
Si Si5 0.300857 0.446870 0.522661
Si Si6 0.582227 0.803434 0.382174
Si Si7 0.416985 0.196471 0.360150
O O1 0.750000 0.613983 0.750000
O O2 0.871401 0.572529 0.729940
O O3 0.868012 0.656809 0.810667
O O4 0.817369 0.585074 0.920127
O O5 0.091048 0.933891 0.527366
O O6 0.130205 0.904228 0.328261
O O7 0.216576 0.946911 0.454993
O O8 0.110158 0.991898 0.369727
O O9 0.000000 0.043970 0.322882
O O10 0.250000 0.878515 0.250000
O O11 0.335324 0.924724 0.371442
O O12 0.367624 0.839450 0.323789
O O13 0.322622 0.500000 0.500000
O O14 0.500000 0.813346 0.357951
O O15 0.597006 0.750000 0.352427
O O16 0.589988 0.806934 0.510828
O O17 0.500000 0.188635 0.334687
O O18 0.399594 0.250000 0.330064
#
# Coordination Sequence:
#
# PCOD9536723 Si02
#       7
#    16  16  16  16  16  16  16
#     4  12  21  34  58  82 112 141 181 232 275 318
#     4  10  19  36  53  75 109 150 186 219 256 317
#     4  11  22  36  54  79 110 152 191 217 260 325
#     4  10  21  33  56  82 107 138 181 223 275 317
#     4  11  19  34  53  79 111 143 181 226 273 315
#     4   9  18  35  57  78 103 137 175 218 273 330
#     4   9  19  37  59  80 106 140 177 222 278 335
#
# _framework density 16.487493000000001
#
# number of rings (size 3 to 8) (size 9 to 14) (size 15 to 20)
#    0.000    1.714    4.286    3.000    0.000    2.857 
#    0.000    0.000    0.000    3.000    0.000    2.000 
#    0.000    0.000    0.000    0.000    0.000    0.000 
#
# Total GULP energy -312471.331340 kJ/mol
# GULP energy per Si atom -5579.845202 kJ/mol
# Density = 1.644997 g / cm^3
# Si number density = 16.487493 Si / 1000 Ang^3
#
#
#
# Elastic Constant Matrix: (Units=GPa)
#
#
# Indices 1 2 3 4 5 6 
#
# 1 80.8553 49.5552 31.8163 0.0000 0.0000 0.0000
# 2 49.5552 72.5683 24.5769 0.0000 0.0000 0.0000
# 3 31.8163 24.5769 55.3846 0.0000 0.0000 0.0000
# 4 0.0000 0.0000 0.0000 23.1543 0.0000 0.0000
# 5 0.0000 0.0000 0.0000 0.0000 7.1539 0.0000
# 6 0.0000 0.0000 0.0000 0.0000 0.0000 29.2653
#
#
#
# Elastic Compliance Matrix: (Units=1/GPa)
#
#
# Indices 1 2 3 4 5 6 
#
# 1 0.023689 -0.013614 -0.007567 0.000000 0.000000 0.000000
# 2 -0.013614 0.024041 -0.002848 0.000000 0.000000 0.000000
# 3 -0.007567 -0.002848 0.023666 0.000000 0.000000 0.000000
# 4 0.000000 0.000000 0.000000 0.043189 0.000000 0.000000
# 5 0.000000 0.000000 0.000000 0.000000 0.139784 0.000000
# 6 0.000000 0.000000 0.000000 0.000000 0.000000 0.034170
#
#
# Mechanical properties :
#
#
# Convention : Reuss Voigt Hill
#
# Bulk Modulus (GPa) = 42.84680 46.74498 44.79589
# Shear Modulus (GPa) = 14.51898 18.77202 16.64550
#
# Velocity S-wave (km/s) = 2.97072 3.37792 3.18084
# Velocity P-wave (km/s) = 6.14905 6.60508 6.38114
#
# Compressibility (1/GPa) = 0.02333896
#
# Stress axis : x y z
#
# Youngs Moduli (GPa) = 42.21296 41.59525 42.25412
#
# Poissons Ratio (x) = 0.56628 0.31975
# Poissons Ratio (y) = 0.57469 0.12032
# Poissons Ratio (z) = 0.31944 0.11844
#
# Static dielectric constant tensor:
#      x y z
#    x 1.544800 0.000000 0.000000 
#    y 0.000000 1.534250 0.000000 
#    z 0.000000 0.000000 1.546440 
# 
# From -- ./inp_files/24346.got.cif
#   From: 2010.05.17/outbox.cif.g08.bks.cpg/sg74_13_cif.got.tgz:24346.got - 2010.06.03 17:57:02.
