data_PCOD9536549
_publ_section_title
;
Structure prediction by ZEFSAII (Michael W. Deem and Ramdas Pophale) SiO2 
 PCOD9536549
Probable space group: I M M A
;
_chemical_formula_sum "Si O2"
_cell_formula_units_Z 88
_cell_length_a 24.230748
_cell_length_b 20.947076
_cell_length_c 9.012359
_cell_angle_alpha 90.000000
_cell_angle_beta 90.000000
_cell_angle_gamma 90.000000
_cell_volume 4574.342854
_symmetry_space_group_name_H-M "I M M A"
_symmetry_group_IT_number 74
_symmetry_cell_setting 'orthorhombic'
loop_
_space_group_symop_operation_xyz
x,y,z
-x,1/2-y,z
x,-y,-z
-x,1/2+y,-z
-x,-y,-z
x,1/2+y,-z
-x,y,z
x,1/2-y,z
1/2+x,1/2+y,1/2+z
1/2-x,-y,1/2+z
1/2+x,1/2-y,1/2-z
1/2-x,y,1/2-z
1/2-x,1/2-y,1/2-z
1/2+x,y,1/2-z
1/2-x,1/2+y,1/2+z
1/2+x,-y,1/2+z
loop_
_atom_site_type_symbol
_atom_site_label
_atom_site_fract_x
_atom_site_fract_y
_atom_site_fract_z
Si Si1 0.708239 0.941493 0.619467
Si Si2 0.278886 0.676113 0.408104
Si Si3 0.592737 0.383635 0.272186
Si Si4 0.000000 0.824577 0.571957
Si Si5 0.591411 0.320570 0.578366
Si Si6 0.500000 0.384901 0.758363
Si Si7 0.000000 0.483413 0.171702
O O1 0.750000 0.962637 0.750000
O O2 0.732399 0.880808 0.525109
O O3 0.654593 0.911840 0.706024
O O4 0.697339 0.000000 0.500000
O O5 0.266406 0.750000 0.457780
O O6 0.250000 0.665877 0.250000
O O7 0.344661 0.673203 0.381892
O O8 0.558078 0.353316 0.135645
O O9 0.587168 0.332038 0.403449
O O10 0.554455 0.443230 0.306623
O O11 0.000000 0.750000 0.602981
O O12 0.000000 0.840794 0.399682
O O13 0.571707 0.250000 0.617727
O O14 0.553524 0.370812 0.660121
O O15 0.500000 0.459384 0.788352
O O16 0.000000 0.500000 0.000000
#
# Coordination Sequence:
#
# PCOD9536549 Si02
#       7
#    16  16  16   8  16   8   8
#     4  11  24  42  64  95 126 167 216 271 323 378
#     4   9  20  39  63  90 123 164 210 259 313 377
#     4  10  22  39  63  84 118 169 205 250 302 375
#     4  11  24  42  60  93 133 161 201 263 326 378
#     4  10  19  34  58  86 114 156 206 244 292 363
#     4  12  23  34  58  89 124 156 195 255 312 366
#     4  11  19  37  60  86 114 156 206 244 293 369
#
# _framework density 19.237736000000002
#
# number of rings (size 3 to 8) (size 9 to 14) (size 15 to 20)
#    0.000    1.636    1.818    3.000    2.545    4.000 
#    3.273    1.818    0.000    0.000    0.000    0.000 
#    0.000    0.000    0.000    0.000    0.000    0.000 
#
# Total GULP energy -244946.532140 kJ/mol
# GULP energy per Si atom -5566.966640 kJ/mol
# Density = 1.919395 g / cm^3
# Si number density = 19.237736 Si / 1000 Ang^3
#
#
#
# Elastic Constant Matrix: (Units=GPa)
#
#
# Indices 1 2 3 4 5 6 
#
# 1 54.8880 11.3896 27.1657 0.0000 0.0000 0.0000
# 2 11.3896 82.1450 -1.7214 0.0000 0.0000 0.0000
# 3 27.1657 -1.7214 33.6096 0.0000 0.0000 0.0000
# 4 0.0000 0.0000 0.0000 30.7496 0.0000 0.0000
# 5 0.0000 0.0000 0.0000 0.0000 23.1023 0.0000
# 6 0.0000 0.0000 0.0000 0.0000 0.0000 27.8313
#
#
#
# Elastic Compliance Matrix: (Units=1/GPa)
#
#
# Indices 1 2 3 4 5 6 
#
# 1 0.032321 -0.005034 -0.026382 0.000000 0.000000 0.000000
# 2 -0.005034 0.012971 0.004733 0.000000 0.000000 0.000000
# 3 -0.026382 0.004733 0.051319 0.000000 0.000000 0.000000
# 4 0.000000 0.000000 0.000000 0.032521 0.000000 0.000000
# 5 0.000000 0.000000 0.000000 0.000000 0.043286 0.000000
# 6 0.000000 0.000000 0.000000 0.000000 0.000000 0.035931
#
#
# Mechanical properties :
#
#
# Convention : Reuss Voigt Hill
#
# Bulk Modulus (GPa) = 23.12366 27.14558 25.13462
# Shear Modulus (GPa) = 18.10756 25.25725 21.68241
#
# Velocity S-wave (km/s) = 3.07131 3.62733 3.36084
# Velocity P-wave (km/s) = 4.96219 5.62891 5.30603
#
# Compressibility (1/GPa) = 0.04324574
#
# Stress axis : x y z
#
# Youngs Moduli (GPa) = 30.94008 77.09633 19.48585
#
# Poissons Ratio (x) = 0.38812 0.51407
# Poissons Ratio (y) = 0.15576 -0.09223
# Poissons Ratio (z) = 0.81625 -0.36492
#
# Static dielectric constant tensor:
#      x y z
#    x 1.659120 0.000000 0.000000 
#    y 0.000000 1.717160 0.000000 
#    z 0.000000 0.000000 1.968910 
# 
# From -- ./inp_files/12510.got.cif
#   From: 2010.05.17/outbox.cif.g08.bks.cpg/sg74_7_cif.got.tgz:12510.got - 2010.06.03 17:57:02.
