data_PCOD9536043
_publ_section_title
;
Structure prediction by ZEFSAII (Michael W. Deem and Ramdas Pophale) SiO2 
 PCOD9536043
Probable space group: I M M A
;
_chemical_formula_sum "Si O2"
_cell_formula_units_Z 112
_cell_length_a 25.851435
_cell_length_b 14.475426
_cell_length_c 14.074376
_cell_angle_alpha 90.000000
_cell_angle_beta 90.000000
_cell_angle_gamma 90.000000
_cell_volume 5266.779763
_symmetry_space_group_name_H-M "I M M A"
_symmetry_group_IT_number 74
_symmetry_cell_setting 'orthorhombic'
loop_
_space_group_symop_operation_xyz
x,y,z
-x,1/2-y,z
x,-y,-z
-x,1/2+y,-z
-x,-y,-z
x,1/2+y,-z
-x,y,z
x,1/2-y,z
1/2+x,1/2+y,1/2+z
1/2-x,-y,1/2+z
1/2+x,1/2-y,1/2-z
1/2-x,y,1/2-z
1/2-x,1/2-y,1/2-z
1/2+x,y,1/2-z
1/2-x,1/2+y,1/2+z
1/2+x,-y,1/2+z
loop_
_atom_site_type_symbol
_atom_site_label
_atom_site_fract_x
_atom_site_fract_y
_atom_site_fract_z
Si Si1 0.854479 0.100215 0.043404
Si Si2 0.695959 0.638840 0.208449
Si Si3 0.252750 0.142180 0.143591
Si Si4 0.942017 0.451281 0.190516
Si Si5 0.099837 0.352719 0.845070
Si Si6 0.940992 0.139268 0.395442
Si Si7 0.661161 0.137340 0.998015
O O1 0.801822 0.137000 0.088958
O O2 0.897801 0.091413 0.124375
O O3 0.880357 0.149875 0.953497
O O4 0.842049 0.000000 0.000000
O O5 0.701644 0.750000 0.199464
O O6 0.750000 0.603966 0.250000
O O7 0.650263 0.623535 0.282608
O O8 0.679020 0.604608 0.105279
O O9 0.266059 0.250000 0.155557
O O10 0.250000 0.102675 0.250000
O O11 0.298085 0.104437 0.076968
O O12 0.937777 0.561658 0.174324
O O13 0.933596 0.418147 0.298439
O O14 0.000000 0.420943 0.163155
O O15 0.080933 0.250000 0.818483
O O16 0.935698 0.250000 0.374645
O O17 0.896867 0.113625 0.470587
O O18 0.000000 0.124462 0.428864
O O19 0.662955 0.250000 0.995214
#
# Coordination Sequence:
#
# PCOD9536043 Si02
#       7
#    16  16  16  16  16  16  16
#     4  10  21  36  54  78 111 148 185 230 281 338
#     4   9  17  32  55  82 114 153 196 237 279 335
#     4  10  19  32  54  83 114 144 177 225 283 341
#     4  10  22  40  59  82 113 145 186 243 295 344
#     4  10  21  37  58  82 110 148 189 230 282 342
#     4   9  18  35  59  84 113 153 197 240 289 343
#     4   9  17  31  54  84 117 153 192 235 286 343
#
# _framework density 21.265366
#
# number of rings (size 3 to 8) (size 9 to 14) (size 15 to 20)
#    0.000    2.429    0.000    2.143    0.000    7.429 
#    0.000   11.429    0.000    4.286    0.000    0.000 
#    0.000    0.000    0.000    0.000    0.000    0.000 
#
# Total GULP energy -312707.436733 kJ/mol
# GULP energy per Si atom -5584.061370 kJ/mol
# Density = 2.121697 g / cm^3
# Si number density = 21.265366 Si / 1000 Ang^3
#
#
#
# Elastic Constant Matrix: (Units=GPa)
#
#
# Indices 1 2 3 4 5 6 
#
# 1 139.0912 12.4783 87.6501 0.0000 0.0000 0.0000
# 2 12.4783 58.4814 7.4047 0.0000 0.0000 0.0000
# 3 87.6501 7.4047 126.4323 0.0000 0.0000 0.0000
# 4 0.0000 0.0000 0.0000 45.6706 0.0000 0.0000
# 5 0.0000 0.0000 0.0000 0.0000 14.4380 0.0000
# 6 0.0000 0.0000 0.0000 0.0000 0.0000 20.5843
#
#
#
# Elastic Compliance Matrix: (Units=1/GPa)
#
#
# Indices 1 2 3 4 5 6 
#
# 1 0.012920 -0.001635 -0.008861 0.000000 0.000000 0.000000
# 2 -0.001635 0.017434 0.000112 0.000000 0.000000 0.000000
# 3 -0.008861 0.000112 0.014046 0.000000 0.000000 0.000000
# 4 0.000000 0.000000 0.000000 0.021896 0.000000 0.000000
# 5 0.000000 0.000000 0.000000 0.000000 0.069262 0.000000
# 6 0.000000 0.000000 0.000000 0.000000 0.000000 0.048581
#
#
# Mechanical properties :
#
#
# Convention : Reuss Voigt Hill
#
# Bulk Modulus (GPa) = 42.31445 59.89679 51.10562
# Shear Modulus (GPa) = 23.49803 30.57003 27.03403
#
# Velocity S-wave (km/s) = 3.32775 3.79562 3.56936
# Velocity P-wave (km/s) = 5.89124 6.88741 6.40871
#
# Compressibility (1/GPa) = 0.02363259
#
# Stress axis : x y z
#
# Youngs Moduli (GPa) = 77.39784 57.35901 71.19482
#
# Poissons Ratio (x) = 0.09377 0.63088
# Poissons Ratio (y) = 0.12653 -0.00800
# Poissons Ratio (z) = 0.68585 -0.00644
#
# Static dielectric constant tensor:
#      x y z
#    x 1.750480 0.000000 0.000000 
#    y 0.000000 1.815460 0.000000 
#    z 0.000000 0.000000 1.762400 
# 
# From -- ./inp_files/36479.got.cif
#   From: 2010.05.17/outbox.cif.g08.bks.cpg/sg74_19_cif.got.tgz:36479.got - 2010.06.03 17:57:02.
