data_PCOD9536208
_publ_section_title
;
Structure prediction by ZEFSAII (Michael W. Deem and Ramdas Pophale) SiO2 
 PCOD9536208
Probable space group: I M M A
;
_chemical_formula_sum "Si O2"
_cell_formula_units_Z 104
_cell_length_a 8.953904
_cell_length_b 20.994070
_cell_length_c 32.221646
_cell_angle_alpha 90.000000
_cell_angle_beta 90.000000
_cell_angle_gamma 90.000000
_cell_volume 6056.989164
_symmetry_space_group_name_H-M "I M M A"
_symmetry_group_IT_number 74
_symmetry_cell_setting 'orthorhombic'
loop_
_space_group_symop_operation_xyz
x,y,z
-x,1/2-y,z
x,-y,-z
-x,1/2+y,-z
-x,-y,-z
x,1/2+y,-z
-x,y,z
x,1/2-y,z
1/2+x,1/2+y,1/2+z
1/2-x,-y,1/2+z
1/2+x,1/2-y,1/2-z
1/2-x,y,1/2-z
1/2-x,1/2-y,1/2-z
1/2+x,y,1/2-z
1/2-x,1/2+y,1/2+z
1/2+x,-y,1/2+z
loop_
_atom_site_type_symbol
_atom_site_label
_atom_site_fract_x
_atom_site_fract_y
_atom_site_fract_z
Si Si1 0.679092 0.442292 0.619676
Si Si2 0.176885 0.073207 0.080526
Si Si3 0.678572 0.322510 0.923682
Si Si4 0.178418 0.750000 0.705452
Si Si5 0.179045 0.677906 0.521975
Si Si6 0.323555 0.118294 0.163857
Si Si7 0.676285 0.486354 0.794023
O O1 0.500000 0.444534 0.623345
O O2 0.724590 0.499328 0.587581
O O3 0.734772 0.375768 0.601593
O O4 0.750007 0.455214 0.665002
O O5 0.251597 0.118643 0.046439
O O6 0.222876 0.102896 0.124579
O O7 0.000000 0.073844 0.073913
O O8 0.500000 0.331053 0.918441
O O9 0.715664 0.250000 0.911172
O O10 0.710262 0.328007 0.972903
O O11 0.250000 0.750000 0.750000
O O12 0.219569 0.813799 0.681560
O O13 0.000000 0.750000 0.709653
O O14 0.228328 0.750000 0.535174
O O15 0.000000 0.676192 0.527468
O O16 0.500000 0.118828 0.151755
O O17 0.306185 0.062137 0.197409
O O18 0.500000 0.471950 0.793208
O O19 0.750000 0.469379 0.750000
#
# Coordination Sequence:
#
# PCOD9536208 Si02
#       7
#    16  16  16   8  16  16  16
#     4  10  21  36  54  79 110 141 174 214 261 313
#     4  10  21  34  49  74 106 138 177 222 264 305
#     4   9  19  37  59  82 106 135 173 214 259 314
#     4  10  20  32  46  66  92 126 170 218 266 314
#     4   9  19  35  54  75 103 141 181 220 263 314
#     4   9  19  33  48  68  97 135 175 216 264 313
#     4  10  19  33  54  77 103 136 174 216 261 311
#
# _framework density 17.170247
#
# number of rings (size 3 to 8) (size 9 to 14) (size 15 to 20)
#    0.000    2.462    0.000    2.769    1.077    4.923 
#    0.000    4.615    0.000    0.462    0.000    0.000 
#    0.000    0.000    0.000    0.000    0.000    0.000 
#
# Total GULP energy -289923.571255 kJ/mol
# GULP energy per Si atom -5575.453293 kJ/mol
# Density = 1.713117 g / cm^3
# Si number density = 17.170247 Si / 1000 Ang^3
#
#
#
# Elastic Constant Matrix: (Units=GPa)
#
#
# Indices 1 2 3 4 5 6 
#
# 1 47.9106 54.1001 43.3855 0.0000 0.0000 0.0000
# 2 54.1001 136.6417 67.6476 0.0000 0.0000 0.0000
# 3 43.3855 67.6476 68.8065 0.0000 0.0000 0.0000
# 4 0.0000 0.0000 0.0000 7.1380 0.0000 0.0000
# 5 0.0000 0.0000 0.0000 0.0000 30.8914 0.0000
# 6 0.0000 0.0000 0.0000 0.0000 0.0000 25.8838
#
#
#
# Elastic Compliance Matrix: (Units=1/GPa)
#
#
# Indices 1 2 3 4 5 6 
#
# 1 0.053515 -0.008733 -0.025157 0.000000 0.000000 0.000000
# 2 -0.008733 0.015684 -0.009913 0.000000 0.000000 0.000000
# 3 -0.025157 -0.009913 0.040142 0.000000 0.000000 0.000000
# 4 0.000000 0.000000 0.000000 0.140095 0.000000 0.000000
# 5 0.000000 0.000000 0.000000 0.000000 0.032372 0.000000
# 6 0.000000 0.000000 0.000000 0.000000 0.000000 0.038634
#
#
# Mechanical properties :
#
#
# Convention : Reuss Voigt Hill
#
# Bulk Modulus (GPa) = 46.01095 64.84726 55.42910
# Shear Modulus (GPa) = 12.03968 18.66434 15.35201
#
# Velocity S-wave (km/s) = 2.65088 3.30057 2.99340
# Velocity P-wave (km/s) = 6.01869 7.23700 6.65578
#
# Compressibility (1/GPa) = 0.02173396
#
# Stress axis : x y z
#
# Youngs Moduli (GPa) = 18.68637 63.76025 24.91145
#
# Poissons Ratio (x) = 0.55684 0.62670
# Poissons Ratio (y) = 0.16319 0.24694
# Poissons Ratio (z) = 0.47010 0.63205
#
# Static dielectric constant tensor:
#      x y z
#    x 1.576760 0.000000 0.000000 
#    y 0.000000 1.595000 0.000000 
#    z 0.000000 0.000000 1.554320 
# 
# From -- ./inp_files/70550.got.cif
#   From: 2010.05.17/outbox.cif.g08.bks.cpg/sg74_36_cif.got.tgz:70550.got - 2010.06.03 17:57:02.
