data_PCOD9536658
_publ_section_title
;
Structure prediction by ZEFSAII (Michael W. Deem and Ramdas Pophale) SiO2 
 PCOD9536658
Probable space group: I M M A
;
_chemical_formula_sum "Si O2"
_cell_formula_units_Z 100
_cell_length_a 21.089363
_cell_length_b 7.728814
_cell_length_c 33.280609
_cell_angle_alpha 90.000000
_cell_angle_beta 90.000000
_cell_angle_gamma 90.000000
_cell_volume 5424.598291
_symmetry_space_group_name_H-M "I M M A"
_symmetry_group_IT_number 74
_symmetry_cell_setting 'orthorhombic'
loop_
_space_group_symop_operation_xyz
x,y,z
-x,1/2-y,z
x,-y,-z
-x,1/2+y,-z
-x,-y,-z
x,1/2+y,-z
-x,y,z
x,1/2-y,z
1/2+x,1/2+y,1/2+z
1/2-x,-y,1/2+z
1/2+x,1/2-y,1/2-z
1/2-x,y,1/2-z
1/2-x,1/2-y,1/2-z
1/2+x,y,1/2-z
1/2-x,1/2+y,1/2+z
1/2+x,-y,1/2+z
loop_
_atom_site_type_symbol
_atom_site_label
_atom_site_fract_x
_atom_site_fract_y
_atom_site_fract_z
Si Si1 0.822415 0.457493 0.751099
Si Si2 0.803112 0.543255 0.453689
Si Si3 0.273142 0.047738 0.378212
Si Si4 0.000000 0.750000 0.844073
Si Si5 0.069919 0.953353 0.411715
Si Si6 0.893596 0.049376 0.833492
Si Si7 0.145041 0.954546 0.663608
O O1 0.818381 0.250000 0.750646
O O2 0.750000 0.526369 0.750000
O O3 0.859439 0.503293 0.791489
O O4 0.858594 0.511956 0.710733
O O5 0.793989 0.500000 0.500000
O O6 0.802888 0.750000 0.448663
O O7 0.749646 0.471161 0.423971
O O8 0.871439 0.474833 0.437721
O O9 0.281139 0.250000 0.368633
O O10 0.213503 0.978444 0.352019
O O11 0.337530 0.955294 0.366414
O O12 0.054828 0.595308 0.843115
O O13 0.066357 0.750000 0.421319
O O14 0.000000 0.029163 0.418287
O O15 0.091432 0.969379 0.365308
O O16 0.916228 0.250000 0.829856
O O17 0.144224 0.750000 0.656345
#
# Coordination Sequence:
#
# PCOD9536658 Si02
#       7
#    16  16  16   4  16  16  16
#     4  10  20  34  56  82 109 144 191 244 302 351
#     4  10  20  34  55  85 118 147 185 240 295 352
#     4  10  19  35  58  86 115 146 186 242 300 349
#     4  12  26  44  58  82 122 160 202 240 292 362
#     4   9  19  36  53  71 106 157 204 238 284 345
#     4  11  23  40  62  87 118 157 199 246 300 357
#     4  10  20  31  52  80 110 145 192 249 298 346
#
# _framework density 18.434545
#
# number of rings (size 3 to 8) (size 9 to 14) (size 15 to 20)
#    0.000    1.920    2.400    1.680    1.120    2.880 
#    1.440    0.000    0.000    0.000    0.000    0.560 
#    0.000    0.000    0.000    0.000    0.000    0.000 
#
# Total GULP energy -278483.283591 kJ/mol
# GULP energy per Si atom -5569.665672 kJ/mol
# Density = 1.839259 g / cm^3
# Si number density = 18.434545 Si / 1000 Ang^3
#
#
#
# Elastic Constant Matrix: (Units=GPa)
#
#
# Indices 1 2 3 4 5 6 
#
# 1 96.8566 35.8227 35.6569 0.0000 0.0000 0.0000
# 2 35.8227 67.4377 2.6021 0.0000 0.0000 0.0000
# 3 35.6569 2.6021 101.6470 0.0000 0.0000 0.0000
# 4 0.0000 0.0000 0.0000 12.5122 0.0000 0.0000
# 5 0.0000 0.0000 0.0000 0.0000 3.5036 0.0000
# 6 0.0000 0.0000 0.0000 0.0000 0.0000 17.5111
#
#
#
# Elastic Compliance Matrix: (Units=1/GPa)
#
#
# Indices 1 2 3 4 5 6 
#
# 1 0.015092 -0.007820 -0.005094 0.000000 0.000000 0.000000
# 2 -0.007820 0.018895 0.002260 0.000000 0.000000 0.000000
# 3 -0.005094 0.002260 0.011567 0.000000 0.000000 0.000000
# 4 0.000000 0.000000 0.000000 0.079922 0.000000 0.000000
# 5 0.000000 0.000000 0.000000 0.000000 0.285418 0.000000
# 6 0.000000 0.000000 0.000000 0.000000 0.000000 0.057107
#
#
# Mechanical properties :
#
#
# Convention : Reuss Voigt Hill
#
# Bulk Modulus (GPa) = 41.24532 46.01161 43.62846
# Shear Modulus (GPa) = 10.05242 19.49603 14.77422
#
# Velocity S-wave (km/s) = 2.33771 3.25558 2.83405
# Velocity P-wave (km/s) = 5.45060 6.25662 5.86747
#
# Compressibility (1/GPa) = 0.02424518
#
# Stress axis : x y z
#
# Youngs Moduli (GPa) = 66.25906 52.92269 86.45229
#
# Poissons Ratio (x) = 0.41388 0.44039
# Poissons Ratio (y) = 0.51817 -0.19535
# Poissons Ratio (z) = 0.33753 -0.11959
#
# Static dielectric constant tensor:
#      x y z
#    x 1.640140 0.000000 0.000000 
#    y 0.000000 1.669160 0.000000 
#    z 0.000000 0.000000 1.623660 
# 
# From -- ./inp_files/73332.got.cif
#   From: 2010.05.17/outbox.cif.g08.bks.cpg/sg74_37_cif.got.tgz:73332.got - 2010.06.03 17:57:02.
