data_PCOD9536859
_publ_section_title
;
Structure prediction by ZEFSAII (Michael W. Deem and Ramdas Pophale) SiO2 
 PCOD9536859
Probable space group: I M M A
;
_chemical_formula_sum "Si O2"
_cell_formula_units_Z 88
_cell_length_a 9.970698
_cell_length_b 21.329230
_cell_length_c 22.480929
_cell_angle_alpha 90.000000
_cell_angle_beta 90.000000
_cell_angle_gamma 90.000000
_cell_volume 4780.958717
_symmetry_space_group_name_H-M "I M M A"
_symmetry_group_IT_number 74
_symmetry_cell_setting 'orthorhombic'
loop_
_space_group_symop_operation_xyz
x,y,z
-x,1/2-y,z
x,-y,-z
-x,1/2+y,-z
-x,-y,-z
x,1/2+y,-z
-x,y,z
x,1/2-y,z
1/2+x,1/2+y,1/2+z
1/2-x,-y,1/2+z
1/2+x,1/2-y,1/2-z
1/2-x,y,1/2-z
1/2-x,1/2-y,1/2-z
1/2+x,y,1/2-z
1/2-x,1/2+y,1/2+z
1/2+x,-y,1/2+z
loop_
_atom_site_type_symbol
_atom_site_label
_atom_site_fract_x
_atom_site_fract_y
_atom_site_fract_z
Si Si1 0.841010 0.011525 0.309811
Si Si2 0.000000 0.321588 0.687560
Si Si3 0.345152 0.648206 0.869282
Si Si4 0.239577 0.390659 0.623070
Si Si5 0.658278 0.677002 0.007432
Si Si6 0.836918 0.250000 0.189769
Si Si7 0.500000 0.676710 0.329655
O O1 0.750000 0.007877 0.250000
O O2 0.835530 0.080392 0.338945
O O3 0.000000 0.997832 0.297399
O O4 0.783918 0.962368 0.358244
O O5 0.872600 0.354747 0.660677
O O6 0.000000 0.324143 0.758379
O O7 0.000000 0.250000 0.668161
O O8 0.500000 0.671335 0.856790
O O9 0.330244 0.651355 0.940462
O O10 0.224540 0.690239 0.844273
O O11 0.223421 0.369814 0.554834
O O12 0.375182 0.361350 0.646419
O O13 0.500000 0.678601 0.021674
O O14 0.706289 0.750000 0.010776
O O15 0.750000 0.250000 0.250000
O O16 0.000000 0.250000 0.195802
O O17 0.500000 0.750000 0.348201
#
# Coordination Sequence:
#
# PCOD9536859 Si02
#       7
#    16   8  16  16  16   8   8
#     4  11  24  41  65  93 128 168 214 265 323 390
#     4  11  20  36  60  83 118 159 219 270 315 375
#     4  10  22  42  67  97 127 171 216 265 323 382
#     4  12  23  38  59  92 125 168 216 258 324 382
#     4  10  19  37  66  92 126 167 215 265 316 382
#     4  12  24  42  68 102 134 166 213 274 327 383
#     4  11  24  38  56  87 124 169 213 280 327 371
#
# _framework density 18.406351000000001
#
# number of rings (size 3 to 8) (size 9 to 14) (size 15 to 20)
#    0.000    1.091    2.727    4.636    1.273    4.364 
#    1.636    2.727    0.000    1.091    0.000    0.000 
#    0.000    0.000    0.000    0.000    0.000    0.000 
#
# Total GULP energy -245548.111412 kJ/mol
# GULP energy per Si atom -5580.638896 kJ/mol
# Density = 1.836446 g / cm^3
# Si number density = 18.406351 Si / 1000 Ang^3
#
#
#
# Elastic Constant Matrix: (Units=GPa)
#
#
# Indices 1 2 3 4 5 6 
#
# 1 156.9175 52.2991 48.2609 0.0000 0.0000 0.0000
# 2 52.2991 102.8095 39.2942 0.0000 0.0000 0.0000
# 3 48.2609 39.2942 104.5810 0.0000 0.0000 0.0000
# 4 0.0000 0.0000 0.0000 32.1625 0.0000 0.0000
# 5 0.0000 0.0000 0.0000 0.0000 -65.1401 0.0000
# 6 0.0000 0.0000 0.0000 0.0000 0.0000 26.5281
#
#
#
# Elastic Compliance Matrix: (Units=1/GPa)
#
#
# Indices 1 2 3 4 5 6 
#
# 1 0.008238 -0.003197 -0.002600 0.000000 0.000000 0.000000
# 2 -0.003197 0.012598 -0.003258 0.000000 0.000000 0.000000
# 3 -0.002600 -0.003258 0.011986 0.000000 0.000000 0.000000
# 4 0.000000 0.000000 0.000000 0.031092 0.000000 0.000000
# 5 0.000000 0.000000 0.000000 0.000000 -0.015352 0.000000
# 6 0.000000 0.000000 0.000000 0.000000 0.000000 0.037696
#
#
# Mechanical properties :
#
#
# Convention : Reuss Voigt Hill
#
# Bulk Modulus (GPa) = 67.97449 71.55737 69.76593
# Shear Modulus (GPa) = 45.75656 13.67368 29.71512
#
# Velocity S-wave (km/s) = 4.99130 2.72854 4.02231
# Velocity P-wave (km/s) = 8.38019 6.99195 7.71735
#
# Compressibility (1/GPa) = 0.01471140
#
# Stress axis : x y z
#
# Youngs Moduli (GPa) = 121.38846 79.37594 83.42892
#
# Poissons Ratio (x) = 0.25375 0.21695
# Poissons Ratio (y) = 0.38805 0.27184
# Poissons Ratio (z) = 0.31567 0.25863
#
# Static dielectric constant tensor:
#      x y z
#    x 1.636950 0.000000 0.000000 
#    y 0.000000 1.615510 0.000000 
#    z 0.000000 0.000000 1.644720 
# 
# From -- ./inp_files/57065.got.cif
#   From: 2010.05.17/outbox.cif.g08.bks.cpg/sg74_29_cif.got.tgz:57065.got - 2010.06.03 17:57:02.
