data_PCOD9536529
_publ_section_title
;
Structure prediction by ZEFSAII (Michael W. Deem and Ramdas Pophale) SiO2 
 PCOD9536529
Probable space group: I M M A
;
_chemical_formula_sum "Si O2"
_cell_formula_units_Z 72
_cell_length_a 18.283815
_cell_length_b 16.335516
_cell_length_c 13.201060
_cell_angle_alpha 90.000000
_cell_angle_beta 90.000000
_cell_angle_gamma 90.000000
_cell_volume 3942.833889
_symmetry_space_group_name_H-M "I M M A"
_symmetry_group_IT_number 74
_symmetry_cell_setting 'orthorhombic'
loop_
_space_group_symop_operation_xyz
x,y,z
-x,1/2-y,z
x,-y,-z
-x,1/2+y,-z
-x,-y,-z
x,1/2+y,-z
-x,y,z
x,1/2-y,z
1/2+x,1/2+y,1/2+z
1/2-x,-y,1/2+z
1/2+x,1/2-y,1/2-z
1/2-x,y,1/2-z
1/2-x,1/2-y,1/2-z
1/2+x,y,1/2-z
1/2-x,1/2+y,1/2+z
1/2+x,-y,1/2+z
loop_
_atom_site_type_symbol
_atom_site_label
_atom_site_fract_x
_atom_site_fract_y
_atom_site_fract_z
Si Si1 0.084418 0.066087 0.591811
Si Si2 0.415501 0.013757 0.313093
Si Si3 0.704313 0.157589 0.008383
Si Si4 0.831450 0.342852 0.264759
Si Si5 0.689467 0.500000 0.500000
O O1 0.144269 0.135703 0.575292
O O2 0.000000 0.093249 0.584471
O O3 0.095279 0.000000 0.500000
O O4 0.095634 0.027772 0.703030
O O5 0.500000 0.004033 0.341710
O O6 0.393190 0.107310 0.291243
O O7 0.361389 0.986355 0.401790
O O8 0.734895 0.250000 0.997003
O O9 0.660436 0.157149 0.114753
O O10 0.761586 0.082337 0.011470
O O11 0.828513 0.250000 0.226828
O O12 0.750000 0.379744 0.250000
#
# Coordination Sequence:
#
# PCOD9536529 Si02
#       5
#    16  16  16  16   8
#     4  10  20  37  58  84 118 153 190 239 293 346
#     4  11  23  38  59  84 116 161 200 235 291 349
#     4  11  22  36  62  93 117 152 195 242 302 353
#     4  10  19  34  57  87 119 146 185 247 306 349
#     4  12  23  40  59  84 124 158 198 246 281 340
#
# _framework density 18.260978000000001
#
# number of rings (size 3 to 8) (size 9 to 14) (size 15 to 20)
#    0.000    1.333    5.556    0.333    0.000    0.889 
#    0.000    4.444    0.000    3.333    0.000    0.000 
#    0.000    0.000    0.000    0.000    0.000    0.000 
#
# Total GULP energy -200668.051142 kJ/mol
# GULP energy per Si atom -5574.112532 kJ/mol
# Density = 1.821941 g / cm^3
# Si number density = 18.260978 Si / 1000 Ang^3
#
#
#
# Elastic Constant Matrix: (Units=GPa)
#
#
# Indices 1 2 3 4 5 6 
#
# 1 66.8394 36.4352 39.7276 0.0000 0.0000 0.0000
# 2 36.4352 86.0108 22.4948 0.0000 0.0000 0.0000
# 3 39.7276 22.4948 81.7709 0.0000 0.0000 0.0000
# 4 0.0000 0.0000 0.0000 17.1512 0.0000 0.0000
# 5 0.0000 0.0000 0.0000 0.0000 33.8904 0.0000
# 6 0.0000 0.0000 0.0000 0.0000 0.0000 14.3971
#
#
#
# Elastic Compliance Matrix: (Units=1/GPa)
#
#
# Indices 1 2 3 4 5 6 
#
# 1 0.025388 -0.008113 -0.010103 0.000000 0.000000 0.000000
# 2 -0.008113 0.015120 -0.000218 0.000000 0.000000 0.000000
# 3 -0.010103 -0.000218 0.017198 0.000000 0.000000 0.000000
# 4 0.000000 0.000000 0.000000 0.058305 0.000000 0.000000
# 5 0.000000 0.000000 0.000000 0.000000 0.029507 0.000000
# 6 0.000000 0.000000 0.000000 0.000000 0.000000 0.069458
#
#
# Mechanical properties :
#
#
# Convention : Reuss Voigt Hill
#
# Bulk Modulus (GPa) = 47.98693 47.99290 47.98992
# Shear Modulus (GPa) = 19.32066 22.15196 20.73631
#
# Velocity S-wave (km/s) = 3.25627 3.48670 3.37345
# Velocity P-wave (km/s) = 6.36185 6.52290 6.44288
#
# Compressibility (1/GPa) = 0.02083901
#
# Stress axis : x y z
#
# Youngs Moduli (GPa) = 39.38793 66.13733 58.14727
#
# Poissons Ratio (x) = 0.53654 0.58746
# Poissons Ratio (y) = 0.31954 0.01268
# Poissons Ratio (z) = 0.39794 0.01442
#
# Static dielectric constant tensor:
#      x y z
#    x 1.637410 0.000000 0.000000 
#    y 0.000000 1.662910 0.000000 
#    z 0.000000 0.000000 1.654110 
# 
# From -- ./inp_files/21867.got.cif
#   From: 2010.05.17/outbox.cif.g08.bks.cpg/sg74_11_cif.got.tgz:21867.got - 2010.06.03 17:57:02.
