data_PCOD9536005
_publ_section_title
;
Structure prediction by ZEFSAII (Michael W. Deem and Ramdas Pophale) SiO2 
 PCOD9536005
Probable space group: I M M A
;
_chemical_formula_sum "Si O2"
_cell_formula_units_Z 116
_cell_length_a 11.735430
_cell_length_b 17.532992
_cell_length_c 28.349005
_cell_angle_alpha 90.000000
_cell_angle_beta 90.000000
_cell_angle_gamma 90.000000
_cell_volume 5833.011900
_symmetry_space_group_name_H-M "I M M A"
_symmetry_group_IT_number 74
_symmetry_cell_setting 'orthorhombic'
loop_
_space_group_symop_operation_xyz
x,y,z
-x,1/2-y,z
x,-y,-z
-x,1/2+y,-z
-x,-y,-z
x,1/2+y,-z
-x,y,z
x,1/2-y,z
1/2+x,1/2+y,1/2+z
1/2-x,-y,1/2+z
1/2+x,1/2-y,1/2-z
1/2-x,y,1/2-z
1/2-x,1/2-y,1/2-z
1/2+x,y,1/2-z
1/2-x,1/2+y,1/2+z
1/2+x,-y,1/2+z
loop_
_atom_site_type_symbol
_atom_site_label
_atom_site_fract_x
_atom_site_fract_y
_atom_site_fract_z
Si Si1 0.500000 0.750000 0.044141
Si Si2 0.695067 0.380665 0.945731
Si Si3 0.218667 0.834998 0.880717
Si Si4 0.368955 0.126468 0.278592
Si Si5 0.867344 0.516021 0.621242
Si Si6 0.797981 0.542979 0.202308
Si Si7 0.876143 0.665459 0.132603
Si Si8 0.626492 0.159835 0.482775
O O1 0.598587 0.682086 0.045430
O O2 0.651715 0.460258 0.923558
O O3 0.779230 0.348829 0.905335
O O4 0.774051 0.386573 0.991791
O O5 0.269137 0.750000 0.882566
O O6 0.151046 0.843593 0.831676
O O7 0.311849 0.901124 0.884480
O O8 0.139843 0.844262 0.926453
O O9 0.500000 0.146998 0.262504
O O10 0.250000 0.148117 0.250000
O O11 0.361579 0.034563 0.282659
O O12 0.803140 0.480990 0.666650
O O13 0.000000 0.521934 0.630671
O O14 0.750000 0.578504 0.250000
O O15 0.870048 0.602289 0.172708
O O16 0.862429 0.750000 0.152868
O O17 0.000000 0.661365 0.109149
O O18 0.500000 0.134366 0.496118
O O19 0.639094 0.250000 0.495526
#
# Coordination Sequence:
#
# PCOD9536005 Si02
#       8
#     4  16  16  16  16  16  16  16
#     4  12  20  36  62  86 128 156 204 238 274 362
#     4  11  21  37  60  89 118 160 202 237 291 343
#     4  10  23  42  61  88 118 154 197 244 305 357
#     4  10  21  39  65  90 119 154 198 249 306 365
#     4  10  22  40  59  84 120 160 200 246 290 357
#     4   9  20  35  56  82 114 154 199 245 303 358
#     4  10  19  32  53  81 116 151 200 250 290 340
#     4  10  20  38  63  89 120 153 199 247 293 346
#
# _framework density 19.886811000000002
#
# number of rings (size 3 to 8) (size 9 to 14) (size 15 to 20)
#    0.000    1.931    2.069    1.241    0.000    8.828 
#    1.241    3.448    0.000    0.000    0.000    0.000 
#    0.000    0.000    0.000    0.000    0.000    0.000 
#
# Total GULP energy -322965.621007 kJ/mol
# GULP energy per Si atom -5568.372776 kJ/mol
# Density = 1.984155 g / cm^3
# Si number density = 19.886811 Si / 1000 Ang^3
#
#
#
# Elastic Constant Matrix: (Units=GPa)
#
#
# Indices 1 2 3 4 5 6 
#
# 1 161.3854 44.9443 35.1631 0.0000 0.0000 0.0000
# 2 44.9443 83.7832 18.0715 0.0000 0.0000 0.0000
# 3 35.1631 18.0715 90.7957 0.0000 0.0000 0.0000
# 4 0.0000 0.0000 0.0000 11.9630 0.0000 0.0000
# 5 0.0000 0.0000 0.0000 0.0000 -0.5580 0.0000
# 6 0.0000 0.0000 0.0000 0.0000 0.0000 -2.8750
#
#
#
# Elastic Compliance Matrix: (Units=1/GPa)
#
#
# Indices 1 2 3 4 5 6 
#
# 1 0.007704 -0.003645 -0.002258 0.000000 0.000000 0.000000
# 2 -0.003645 0.014196 -0.001414 0.000000 0.000000 0.000000
# 3 -0.002258 -0.001414 0.012170 0.000000 0.000000 0.000000
# 4 0.000000 0.000000 0.000000 0.083591 0.000000 0.000000
# 5 0.000000 0.000000 0.000000 0.000000 -1.792075 0.000000
# 6 0.000000 0.000000 0.000000 0.000000 0.000000 -0.347826
#
#
# Mechanical properties :
#
#
# Convention : Reuss Voigt Hill
#
# Bulk Modulus (GPa) = 51.45323 59.14689 55.30006
# Shear Modulus (GPa) = -2.49859 17.55835 7.52988
#
# Velocity S-wave (km/s) = -1.12211 2.97461 1.94797
# Velocity P-wave (km/s) = 4.92447 6.45012 5.73822
#
# Compressibility (1/GPa) = 0.01943513
#
# Stress axis : x y z
#
# Youngs Moduli (GPa) = 129.81100 70.44222 82.17248
#
# Poissons Ratio (x) = 0.25679 0.18553
# Poissons Ratio (y) = 0.47322 0.11617
# Poissons Ratio (z) = 0.29309 0.09958
#
# Static dielectric constant tensor:
#      x y z
#    x 1.711920 0.000000 0.000000 
#    y 0.000000 1.710770 0.000000 
#    z 0.000000 0.000000 1.710080 
# 
# From -- ./inp_files/66262.got.cif
#   From: 2010.05.17/outbox.cif.g08.bks.cpg/sg74_34_cif.got.tgz:66262.got - 2010.06.03 17:57:02.
