data_PCOD9536194
_publ_section_title
;
Structure prediction by ZEFSAII (Michael W. Deem and Ramdas Pophale) SiO2 
 PCOD9536194
Probable space group: I M M A
;
_chemical_formula_sum "Si O2"
_cell_formula_units_Z 72
_cell_length_a 25.832292
_cell_length_b 18.373468
_cell_length_c 8.091597
_cell_angle_alpha 90.000000
_cell_angle_beta 90.000000
_cell_angle_gamma 90.000000
_cell_volume 3840.504897
_symmetry_space_group_name_H-M "I M M A"
_symmetry_group_IT_number 74
_symmetry_cell_setting 'orthorhombic'
loop_
_space_group_symop_operation_xyz
x,y,z
-x,1/2-y,z
x,-y,-z
-x,1/2+y,-z
-x,-y,-z
x,1/2+y,-z
-x,y,z
x,1/2-y,z
1/2+x,1/2+y,1/2+z
1/2-x,-y,1/2+z
1/2+x,1/2-y,1/2-z
1/2-x,y,1/2-z
1/2-x,1/2-y,1/2-z
1/2+x,y,1/2-z
1/2-x,1/2+y,1/2+z
1/2+x,-y,1/2+z
loop_
_atom_site_type_symbol
_atom_site_label
_atom_site_fract_x
_atom_site_fract_y
_atom_site_fract_z
Si Si1 0.500000 0.375125 0.047195
Si Si2 0.940767 0.250000 0.948950
Si Si3 0.500000 0.015119 0.739748
Si Si4 0.324173 0.250000 0.130821
Si Si5 0.856524 0.353877 0.080903
Si Si6 0.924908 0.750000 0.445657
Si Si7 0.778034 0.750000 0.076052
Si Si8 0.406196 0.000000 0.500000
O O1 0.500000 0.429329 0.891169
O O2 0.451402 0.320636 0.029469
O O3 0.500000 0.430574 0.200535
O O4 0.936587 0.250000 0.749734
O O5 0.000000 0.250000 0.996640
O O6 0.910577 0.317430 0.027144
O O7 0.552752 0.027668 0.637545
O O8 0.337720 0.180627 0.246342
O O9 0.364336 0.250000 0.980213
O O10 0.266444 0.250000 0.063162
O O11 0.868812 0.438191 0.073031
O O12 0.814640 0.320244 0.953036
O O13 0.750000 0.750000 0.250000
#
# Coordination Sequence:
#
# PCOD9536194 Si02
#       8
#     8   8   8   8  16   8   8   8
#     4  10  20  34  48  80 114 148 192 230 276 328
#     4  10  19  33  53  81 112 153 191 240 276 333
#     4  10  22  34  50  72 116 162 182 222 274 338
#     4  10  20  39  61  87 109 146 186 248 292 327
#     4  10  22  37  57  83 114 147 191 234 284 345
#     4  11  19  31  57  82 111 142 196 240 277 334
#     4  10  21  42  66  85 107 142 186 245 300 343
#     4  11  22  36  54  78 116 154 192 217 284 342
#
# _framework density 18.747534999999999
#
# number of rings (size 3 to 8) (size 9 to 14) (size 15 to 20)
#    0.000    2.000    1.111    5.333    3.111    0.000 
#    8.000    2.222    0.000    2.667    0.000    0.000 
#    0.000    0.000    0.000    0.000    0.000    0.000 
#
# Total GULP energy -200923.124525 kJ/mol
# GULP energy per Si atom -5581.197903 kJ/mol
# Density = 1.870487 g / cm^3
# Si number density = 18.747535 Si / 1000 Ang^3
#
#
#
# Elastic Constant Matrix: (Units=GPa)
#
#
# Indices 1 2 3 4 5 6 
#
# 1 137.2777 35.3513 32.3562 0.0000 0.0000 0.0000
# 2 35.3513 101.9065 10.5070 0.0000 0.0000 0.0000
# 3 32.3562 10.5070 61.2275 0.0000 0.0000 0.0000
# 4 0.0000 0.0000 0.0000 7.0477 0.0000 0.0000
# 5 0.0000 0.0000 0.0000 0.0000 37.0722 0.0000
# 6 0.0000 0.0000 0.0000 0.0000 0.0000 5.7129
#
#
#
# Elastic Compliance Matrix: (Units=1/GPa)
#
#
# Indices 1 2 3 4 5 6 
#
# 1 0.008984 -0.002674 -0.004289 0.000000 0.000000 0.000000
# 2 -0.002674 0.010786 -0.000438 0.000000 0.000000 0.000000
# 3 -0.004289 -0.000438 0.018674 0.000000 0.000000 0.000000
# 4 0.000000 0.000000 0.000000 0.141891 0.000000 0.000000
# 5 0.000000 0.000000 0.000000 0.000000 0.026974 0.000000
# 6 0.000000 0.000000 0.000000 0.000000 0.000000 0.175044
#
#
# Mechanical properties :
#
#
# Convention : Reuss Voigt Hill
#
# Bulk Modulus (GPa) = 42.29688 50.76008 46.52848
# Shear Modulus (GPa) = 12.34461 24.77970 18.56216
#
# Velocity S-wave (km/s) = 2.56884 3.63954 3.15002
# Velocity P-wave (km/s) = 5.60436 6.69299 6.17272
#
# Compressibility (1/GPa) = 0.02364240
#
# Stress axis : x y z
#
# Youngs Moduli (GPa) = 111.30828 92.71469 53.55022
#
# Poissons Ratio (x) = 0.24795 0.22966
# Poissons Ratio (y) = 0.29768 0.02343
# Poissons Ratio (z) = 0.47737 0.04057
#
# Static dielectric constant tensor:
#      x y z
#    x 1.633080 0.000000 0.000000 
#    y 0.000000 1.674030 0.000000 
#    z 0.000000 0.000000 1.684620 
# 
# From -- ./inp_files/14882.got.cif
#   From: 2010.05.17/outbox.cif.g08.bks.cpg/sg74_8_cif.got.tgz:14882.got - 2010.06.03 17:57:02.
