data_PCOD9536407
_publ_section_title
;
Structure prediction by ZEFSAII (Michael W. Deem and Ramdas Pophale) SiO2 
 PCOD9536407
Probable space group: I M M A
;
_chemical_formula_sum "Si O2"
_cell_formula_units_Z 96
_cell_length_a 9.046643
_cell_length_b 30.045621
_cell_length_c 20.258358
_cell_angle_alpha 90.000000
_cell_angle_beta 90.000000
_cell_angle_gamma 90.000000
_cell_volume 5506.464944
_symmetry_space_group_name_H-M "I M M A"
_symmetry_group_IT_number 74
_symmetry_cell_setting 'orthorhombic'
loop_
_space_group_symop_operation_xyz
x,y,z
-x,1/2-y,z
x,-y,-z
-x,1/2+y,-z
-x,-y,-z
x,1/2+y,-z
-x,y,z
x,1/2-y,z
1/2+x,1/2+y,1/2+z
1/2-x,-y,1/2+z
1/2+x,1/2-y,1/2-z
1/2-x,y,1/2-z
1/2-x,1/2-y,1/2-z
1/2+x,y,1/2-z
1/2-x,1/2+y,1/2+z
1/2+x,-y,1/2+z
loop_
_atom_site_type_symbol
_atom_site_label
_atom_site_fract_x
_atom_site_fract_y
_atom_site_fract_z
Si Si1 0.822993 0.480771 0.319318
Si Si2 0.171001 0.695773 0.815787
Si Si3 0.177424 0.697185 0.961875
Si Si4 0.675456 0.586866 0.182726
Si Si5 0.822345 0.377601 0.541595
Si Si6 0.176662 0.544502 0.956230
O O1 0.750000 0.466095 0.250000
O O2 0.794612 0.534056 0.325032
O O3 0.748986 0.459867 0.384040
O O4 0.000000 0.473772 0.318444
O O5 0.177619 0.750000 0.815234
O O6 0.250000 0.679325 0.750000
O O7 0.227976 0.682491 0.888047
O O8 0.000000 0.683210 0.812201
O O9 0.201560 0.750000 0.967816
O O10 0.000000 0.689773 0.965659
O O11 0.262950 0.669297 0.015981
O O12 0.500000 0.591785 0.189147
O O13 0.750000 0.602428 0.250000
O O14 0.723618 0.611794 0.116627
O O15 0.749410 0.414808 0.495130
O O16 0.000000 0.380334 0.537640
O O17 0.000000 0.550171 0.950445
O O18 0.204248 0.500000 0.000000
#
# Coordination Sequence:
#
# PCOD9536407 Si02
#       6
#    16  16  16  16  16  16
#     4  10  19  34  54  77 110 147 183 223 270 321
#     4   8  14  26  46  71  98 128 165 209 256 306
#     4   9  19  36  55  77 107 142 180 225 275 327
#     4   9  19  33  52  78 107 138 174 218 266 319
#     4  11  22  36  55  82 111 141 179 225 275 323
#     4  11  22  35  54  80 109 144 183 221 266 322
#
# _framework density 17.434052999999999
#
# number of rings (size 3 to 8) (size 9 to 14) (size 15 to 20)
#    0.000    2.333    1.667    2.500    0.000    3.667 
#    0.000    2.500    0.000    2.500    0.000    0.000 
#    0.000    0.000    0.000    0.000    0.000    0.000 
#
# Total GULP energy -267772.950630 kJ/mol
# GULP energy per Si atom -5578.603138 kJ/mol
# Density = 1.739437 g / cm^3
# Si number density = 17.434053 Si / 1000 Ang^3
#
#
#
# Elastic Constant Matrix: (Units=GPa)
#
#
# Indices 1 2 3 4 5 6 
#
# 1 52.1162 31.4597 63.2703 0.0000 0.0000 0.0000
# 2 31.4597 35.6481 46.4813 0.0000 0.0000 0.0000
# 3 63.2703 46.4813 187.7133 -0.0001 0.0000 0.0000
# 4 0.0000 0.0000 -0.0001 23.9401 0.0000 0.0000
# 5 0.0000 0.0000 0.0000 0.0000 35.6758 0.0000
# 6 0.0000 0.0000 0.0000 0.0000 0.0000 23.2431
#
#
#
# Elastic Compliance Matrix: (Units=1/GPa)
#
#
# Indices 1 2 3 4 5 6 
#
# 1 0.048881 -0.031981 -0.008557 0.000000 0.000000 0.000000
# 2 -0.031981 0.062351 -0.004660 0.000000 0.000000 0.000000
# 3 -0.008557 -0.004660 0.009365 0.000000 0.000000 0.000000
# 4 0.000000 0.000000 0.000000 0.041771 0.000000 0.000000
# 5 0.000000 0.000000 0.000000 0.000000 0.028030 0.000000
# 6 0.000000 0.000000 0.000000 0.000000 0.000000 0.043023
#
#
# Mechanical properties :
#
#
# Convention : Reuss Voigt Hill
#
# Bulk Modulus (GPa) = 33.10967 61.98891 47.54929
# Shear Modulus (GPa) = 14.97520 25.52290 20.24905
#
# Velocity S-wave (km/s) = 2.93399 3.83033 3.41173
# Velocity P-wave (km/s) = 5.52361 7.42936 6.54621
#
# Compressibility (1/GPa) = 0.03020266
#
# Stress axis : x y z
#
# Youngs Moduli (GPa) = 20.45774 16.03811 106.77742
#
# Poissons Ratio (x) = 0.51292 0.91367
# Poissons Ratio (y) = 0.65426 0.49757
# Poissons Ratio (z) = 0.17505 0.07474
#
# Static dielectric constant tensor:
#      x y z
#    x 1.580380 0.000000 0.000000 
#    y 0.000000 1.600450 0.000000 
#    z 0.000000 0.000000 1.593970 
# 
# From -- ./inp_files/49087.got.cif
#   From: 2010.05.17/outbox.cif.g08.bks.cpg/sg74_25_cif.got.tgz:49087.got - 2010.06.03 17:57:02.
