data_PCOD9536469
_publ_section_title
;
Structure prediction by ZEFSAII (Michael W. Deem and Ramdas Pophale) SiO2 
 PCOD9536469
Probable space group: I M M A
;
_chemical_formula_sum "Si O2"
_cell_formula_units_Z 112
_cell_length_a 16.267044
_cell_length_b 25.320824
_cell_length_c 14.391696
_cell_angle_alpha 90.000000
_cell_angle_beta 90.000000
_cell_angle_gamma 90.000000
_cell_volume 5927.867021
_symmetry_space_group_name_H-M "I M M A"
_symmetry_group_IT_number 74
_symmetry_cell_setting 'orthorhombic'
loop_
_space_group_symop_operation_xyz
x,y,z
-x,1/2-y,z
x,-y,-z
-x,1/2+y,-z
-x,-y,-z
x,1/2+y,-z
-x,y,z
x,1/2-y,z
1/2+x,1/2+y,1/2+z
1/2-x,-y,1/2+z
1/2+x,1/2-y,1/2-z
1/2-x,y,1/2-z
1/2-x,1/2-y,1/2-z
1/2+x,y,1/2-z
1/2-x,1/2+y,1/2+z
1/2+x,-y,1/2+z
loop_
_atom_site_type_symbol
_atom_site_label
_atom_site_fract_x
_atom_site_fract_y
_atom_site_fract_z
Si Si1 0.653987 0.104993 0.741950
Si Si2 0.282814 0.585812 0.855554
Si Si3 0.592991 0.142508 0.543950
Si Si4 0.260107 0.190281 0.027870
Si Si5 0.908207 0.190537 0.619269
Si Si6 0.879306 0.956380 0.924087
Si Si7 0.908223 0.008581 0.284642
O O1 0.750000 0.118704 0.750000
O O2 0.620374 0.111382 0.637326
O O3 0.604032 0.146320 0.803694
O O4 0.642475 0.045735 0.779764
O O5 0.250000 0.588543 0.750000
O O6 0.279488 0.643838 0.899229
O O7 0.218868 0.550525 0.913915
O O8 0.367131 0.553796 0.847102
O O9 0.500000 0.164526 0.555620
O O10 0.670105 0.180019 0.518076
O O11 0.590250 0.099656 0.461393
O O12 0.261704 0.250000 0.065840
O O13 0.333124 0.185925 0.952412
O O14 0.903302 0.250000 0.659605
O O15 0.000000 0.185335 0.577216
O O16 0.909522 0.970954 0.821871
O O17 0.900706 0.000000 0.000000
O O18 0.000000 0.996322 0.315233
#
# Coordination Sequence:
#
# PCOD9536469 Si02
#       7
#    16  16  16  16  16  16  16
#     4  12  22  36  57  85 122 163 199 242 294 362
#     4   9  21  38  57  84 115 152 192 246 304 358
#     4  11  22  35  56  88 120 156 197 243 303 365
#     4  10  22  41  63  85 112 154 203 253 305 359
#     4  10  22  40  59  81 113 154 202 251 295 347
#     4  10  19  34  56  80 115 157 196 236 291 361
#     4  11  22  35  56  87 121 155 196 246 300 358
#
# _framework density 18.893810999999999
#
# number of rings (size 3 to 8) (size 9 to 14) (size 15 to 20)
#    0.000    1.571    2.857    3.000    0.000    2.571 
#    0.000    0.000    0.000    2.143    0.000    2.000 
#    0.000    0.000    0.000    0.000    0.000    0.000 
#
# Total GULP energy -312377.746562 kJ/mol
# GULP energy per Si atom -5578.174046 kJ/mol
# Density = 1.885081 g / cm^3
# Si number density = 18.893811 Si / 1000 Ang^3
#
#
#
# Elastic Constant Matrix: (Units=GPa)
#
#
# Indices 1 2 3 4 5 6 
#
# 1 125.0829 26.3428 22.8661 0.0000 0.0000 0.0000
# 2 26.3428 88.2490 20.4524 0.0000 0.0000 0.0000
# 3 22.8661 20.4524 30.1358 -0.0001 0.0000 0.0000
# 4 0.0000 0.0000 -0.0001 22.6561 0.0000 0.0000
# 5 0.0000 0.0000 0.0000 0.0000 15.8654 0.0000
# 6 0.0000 0.0000 0.0000 0.0000 0.0000 15.4493
#
#
#
# Elastic Compliance Matrix: (Units=1/GPa)
#
#
# Indices 1 2 3 4 5 6 
#
# 1 0.009420 -0.001371 -0.006217 0.000000 0.000000 0.000000
# 2 -0.001371 0.013646 -0.008221 0.000000 0.000000 0.000000
# 3 -0.006217 -0.008221 0.043480 0.000000 0.000000 0.000000
# 4 0.000000 0.000000 0.000000 0.044138 0.000000 0.000000
# 5 0.000000 0.000000 0.000000 0.000000 0.063030 0.000000
# 6 0.000000 0.000000 0.000000 0.000000 0.000000 0.064728
#
#
# Mechanical properties :
#
#
# Convention : Reuss Voigt Hill
#
# Bulk Modulus (GPa) = 28.63058 42.53227 35.58143
# Shear Modulus (GPa) = 17.74919 22.38126 20.06523
#
# Velocity S-wave (km/s) = 3.06832 3.44551 3.26237
# Velocity P-wave (km/s) = 5.26679 6.19587 5.75013
#
# Compressibility (1/GPa) = 0.03492769
#
# Stress axis : x y z
#
# Youngs Moduli (GPa) = 106.15747 73.28097 22.99920
#
# Poissons Ratio (x) = 0.10047 0.14299
# Poissons Ratio (y) = 0.14555 0.18908
# Poissons Ratio (z) = 0.65999 0.60244
#
# Static dielectric constant tensor:
#      x y z
#    x 1.688630 0.000000 0.000000 
#    y 0.000000 1.638870 0.000000 
#    z 0.000000 0.000000 1.636350 
# 
# From -- ./inp_files/32719.got.cif
#   From: 2010.05.17/outbox.cif.g08.bks.cpg/sg74_17_cif.got.tgz:32719.got - 2010.06.03 17:57:02.
