data_PCOD9536681
_publ_section_title
;
Structure prediction by ZEFSAII (Michael W. Deem and Ramdas Pophale) SiO2 
 PCOD9536681
Probable space group: I M M A
;
_chemical_formula_sum "Si O2"
_cell_formula_units_Z 72
_cell_length_a 13.794352
_cell_length_b 15.132235
_cell_length_c 15.233712
_cell_angle_alpha 90.000000
_cell_angle_beta 90.000000
_cell_angle_gamma 90.000000
_cell_volume 3179.875539
_symmetry_space_group_name_H-M "I M M A"
_symmetry_group_IT_number 74
_symmetry_cell_setting 'orthorhombic'
loop_
_space_group_symop_operation_xyz
x,y,z
-x,1/2-y,z
x,-y,-z
-x,1/2+y,-z
-x,-y,-z
x,1/2+y,-z
-x,y,z
x,1/2-y,z
1/2+x,1/2+y,1/2+z
1/2-x,-y,1/2+z
1/2+x,1/2-y,1/2-z
1/2-x,y,1/2-z
1/2-x,1/2-y,1/2-z
1/2+x,y,1/2-z
1/2-x,1/2+y,1/2+z
1/2+x,-y,1/2+z
loop_
_atom_site_type_symbol
_atom_site_label
_atom_site_fract_x
_atom_site_fract_y
_atom_site_fract_z
Si Si1 0.167357 0.750000 0.824268
Si Si2 0.111508 0.057985 0.729148
Si Si3 0.606301 0.069242 0.385975
Si Si4 0.821558 0.560859 0.576332
Si Si5 0.171743 0.750000 0.537806
Si Si6 0.882626 0.750000 0.335957
O O1 0.250000 0.750000 0.750000
O O2 0.112012 0.657060 0.823943
O O3 0.221907 0.750000 0.918427
O O4 0.142575 0.159167 0.714450
O O5 0.000000 0.053278 0.698998
O O6 0.112382 0.018691 0.826591
O O7 0.168408 0.990417 0.667139
O O8 0.500000 0.072743 0.429513
O O9 0.705798 0.071978 0.440074
O O10 0.863112 0.500000 0.500000
O O11 0.869465 0.657288 0.573004
O O12 0.164599 0.750000 0.432791
O O13 0.000000 0.750000 0.347541
#
# Coordination Sequence:
#
# PCOD9536681 Si02
#       6
#     8  16  16  16   8   8
#     4  10  19  35  60  83 116 149 192 241 296 350
#     4  10  21  37  58  84 117 151 191 237 293 357
#     4  10  21  37  57  84 115 155 196 239 291 344
#     4  11  21  36  59  81 116 149 194 240 293 346
#     4  10  20  35  53  83 113 144 183 239 287 346
#     4  10  20  36  57  85 119 152 187 237 294 356
#
# _framework density 22.642396000000002
#
# number of rings (size 3 to 8) (size 9 to 14) (size 15 to 20)
#    0.000    1.778    2.222    3.667    0.000    1.778 
#    0.000    5.556    0.000    0.000    0.000    0.000 
#    0.000    0.000    0.000    0.000    0.000    0.000 
#
# Total GULP energy -200734.096230 kJ/mol
# GULP energy per Si atom -5575.947118 kJ/mol
# Density = 2.259086 g / cm^3
# Si number density = 22.642396 Si / 1000 Ang^3
#
#
#
# Elastic Constant Matrix: (Units=GPa)
#
#
# Indices 1 2 3 4 5 6 
#
# 1 89.5794 9.4820 1.3667 0.0000 0.0000 0.0000
# 2 9.4820 208.0753 30.4953 0.0000 0.0000 0.0000
# 3 1.3667 30.4953 26.4588 0.0000 0.0000 0.0000
# 4 0.0000 0.0000 0.0000 31.8854 0.0000 0.0000
# 5 0.0000 0.0000 0.0000 0.0000 10.2338 0.0000
# 6 0.0000 0.0000 0.0000 0.0000 0.0000 5.6456
#
#
#
# Elastic Compliance Matrix: (Units=1/GPa)
#
#
# Indices 1 2 3 4 5 6 
#
# 1 0.011217 -0.000513 0.000012 0.000000 0.000000 0.000000
# 2 -0.000513 0.005806 -0.006666 0.000000 0.000000 0.000000
# 3 0.000012 -0.006666 0.045476 0.000000 0.000000 0.000000
# 4 0.000000 0.000000 0.000000 0.031362 0.000000 0.000000
# 5 0.000000 0.000000 0.000000 0.000000 0.097716 0.000000
# 6 0.000000 0.000000 0.000000 0.000000 0.000000 0.177129
#
#
# Mechanical properties :
#
#
# Convention : Reuss Voigt Hill
#
# Bulk Modulus (GPa) = 20.76129 45.20018 32.98074
# Shear Modulus (GPa) = 12.52834 28.40427 20.46631
#
# Velocity S-wave (km/s) = 2.35481 3.54570 3.00974
# Velocity P-wave (km/s) = 4.07218 6.06371 5.16484
#
# Compressibility (1/GPa) = 0.04816656
#
# Stress axis : x y z
#
# Youngs Moduli (GPa) = 89.14730 172.22923 21.98947
#
# Poissons Ratio (x) = 0.08834 -0.00026
# Poissons Ratio (y) = 0.04572 0.14657
# Poissons Ratio (z) = -0.00104 1.14799
#
# Static dielectric constant tensor:
#      x y z
#    x 1.913290 0.000000 0.000000 
#    y 0.000000 1.911650 0.000000 
#    z 0.000000 0.000000 1.799640 
# 
# From -- ./inp_files/42545.got.cif
#   From: 2010.05.17/outbox.cif.g08.bks.cpg/sg74_22_cif.got.tgz:42545.got - 2010.06.03 17:57:02.
