data_PCOD9536511
_publ_section_title
;
Structure prediction by ZEFSAII (Michael W. Deem and Ramdas Pophale) SiO2 
 PCOD9536511
Probable space group: I M M A
;
_chemical_formula_sum "Si O2"
_cell_formula_units_Z 64
_cell_length_a 19.938251
_cell_length_b 17.351259
_cell_length_c 10.269077
_cell_angle_alpha 90.000000
_cell_angle_beta 90.000000
_cell_angle_gamma 90.000000
_cell_volume 3552.625770
_symmetry_space_group_name_H-M "I M M A"
_symmetry_group_IT_number 74
_symmetry_cell_setting 'orthorhombic'
loop_
_space_group_symop_operation_xyz
x,y,z
-x,1/2-y,z
x,-y,-z
-x,1/2+y,-z
-x,-y,-z
x,1/2+y,-z
-x,y,z
x,1/2-y,z
1/2+x,1/2+y,1/2+z
1/2-x,-y,1/2+z
1/2+x,1/2-y,1/2-z
1/2-x,y,1/2-z
1/2-x,1/2-y,1/2-z
1/2+x,y,1/2-z
1/2-x,1/2+y,1/2+z
1/2+x,-y,1/2+z
loop_
_atom_site_type_symbol
_atom_site_label
_atom_site_fract_x
_atom_site_fract_y
_atom_site_fract_z
Si Si1 0.078455 0.157782 0.889848
Si Si2 0.168127 0.161537 0.132258
Si Si3 0.313999 0.098493 0.103800
Si Si4 0.823528 0.421034 0.686444
O O1 0.086450 0.250000 0.865932
O O2 0.121820 0.109817 0.786975
O O3 0.000000 0.139460 0.883782
O O4 0.108995 0.142239 0.033243
O O5 0.188052 0.250000 0.108196
O O6 0.233405 0.109770 0.106104
O O7 0.153675 0.151179 0.284789
O O8 0.328549 0.011551 0.150786
O O9 0.333137 0.116648 0.955902
O O10 0.750000 0.406876 0.750000
#
# Coordination Sequence:
#
# PCOD9536511 Si02
#       4
#    16  16  16  16
#     4  10  23  41  59  84 119 158 199 239 287 352
#     4  10  19  34  57  82 115 151 191 241 293 342
#     4  10  20  33  56  87 117 142 190 244 292 338
#     4  11  20  35  60  84 119 152 190 244 292 338
#
# _framework density 18.014844
#
# number of rings (size 3 to 8) (size 9 to 14) (size 15 to 20)
#    0.000    1.750    5.000    1.500    0.000    3.500 
#    0.000    6.250    0.000    3.000    0.000    0.000 
#    0.000    0.000    0.000    0.000    0.000    0.000 
#
# Total GULP energy -178387.658230 kJ/mol
# GULP energy per Si atom -5574.614320 kJ/mol
# Density = 1.797384 g / cm^3
# Si number density = 18.014844 Si / 1000 Ang^3
#
#
#
# Elastic Constant Matrix: (Units=GPa)
#
#
# Indices 1 2 3 4 5 6 
#
# 1 117.7821 45.5991 73.8977 0.0000 0.0000 0.0000
# 2 45.5991 36.8210 31.0262 0.0000 0.0000 0.0000
# 3 73.8977 31.0262 158.4283 0.0000 0.0000 0.0000
# 4 0.0000 0.0000 0.0000 31.6506 0.0000 0.0000
# 5 0.0000 0.0000 0.0000 0.0000 20.0813 0.0000
# 6 0.0000 0.0000 0.0000 0.0000 0.0000 -34.3220
#
#
#
# Elastic Compliance Matrix: (Units=1/GPa)
#
#
# Indices 1 2 3 4 5 6 
#
# 1 0.019305 -0.019545 -0.005177 0.000000 0.000000 0.000000
# 2 -0.019545 0.052314 -0.001128 0.000000 0.000000 0.000000
# 3 -0.005177 -0.001128 0.008948 0.000000 0.000000 0.000000
# 4 0.000000 0.000000 0.000000 0.031595 0.000000 0.000000
# 5 0.000000 0.000000 0.000000 0.000000 0.049798 0.000000
# 6 0.000000 0.000000 0.000000 0.000000 0.000000 -0.029136
#
#
# Mechanical properties :
#
#
# Convention : Reuss Voigt Hill
#
# Bulk Modulus (GPa) = 34.64313 68.23083 51.43698
# Shear Modulus (GPa) = 25.75356 14.31588 20.03472
#
# Velocity S-wave (km/s) = 3.78507 2.82205 3.33847
# Velocity P-wave (km/s) = 6.19471 6.96962 6.59356
#
# Compressibility (1/GPa) = 0.02886576
#
# Stress axis : x y z
#
# Youngs Moduli (GPa) = 51.79886 19.11524 111.75941
#
# Poissons Ratio (x) = 0.37362 0.57859
# Poissons Ratio (y) = 1.01243 0.12609
# Poissons Ratio (z) = 0.26817 0.02157
#
# Static dielectric constant tensor:
#      x y z
#    x 1.577360 0.000000 0.000000 
#    y 0.000000 1.650160 0.000000 
#    z 0.000000 0.000000 1.666430 
# 
# From -- ./inp_files/11804.got.cif
#   From: 2010.05.17/outbox.cif.g08.bks.cpg/sg74_6_cif.got.tgz:11804.got - 2010.06.03 17:57:02.
