data_PCOD9536474
_publ_section_title
;
Structure prediction by ZEFSAII (Michael W. Deem and Ramdas Pophale) SiO2 
 PCOD9536474
Probable space group: I M M A
;
_chemical_formula_sum "Si O2"
_cell_formula_units_Z 96
_cell_length_a 8.540103
_cell_length_b 28.450009
_cell_length_c 21.066231
_cell_angle_alpha 90.000000
_cell_angle_beta 90.000000
_cell_angle_gamma 90.000000
_cell_volume 5118.378033
_symmetry_space_group_name_H-M "I M M A"
_symmetry_group_IT_number 74
_symmetry_cell_setting 'orthorhombic'
loop_
_space_group_symop_operation_xyz
x,y,z
-x,1/2-y,z
x,-y,-z
-x,1/2+y,-z
-x,-y,-z
x,1/2+y,-z
-x,y,z
x,1/2-y,z
1/2+x,1/2+y,1/2+z
1/2-x,-y,1/2+z
1/2+x,1/2-y,1/2-z
1/2-x,y,1/2-z
1/2-x,1/2-y,1/2-z
1/2+x,y,1/2-z
1/2-x,1/2+y,1/2+z
1/2+x,-y,1/2+z
loop_
_atom_site_type_symbol
_atom_site_label
_atom_site_fract_x
_atom_site_fract_y
_atom_site_fract_z
Si Si1 0.689530 0.530017 0.438405
Si Si2 0.810776 0.138619 0.938690
Si Si3 0.691151 0.303956 0.437262
Si Si4 0.313443 0.527083 0.819313
Si Si5 0.312552 0.695632 0.180554
Si Si6 0.188206 0.632308 0.819194
O O1 0.738203 0.500000 0.500000
O O2 0.500000 0.528416 0.435372
O O3 0.737941 0.584329 0.444282
O O4 0.755874 0.506833 0.374850
O O5 0.750724 0.162562 0.874670
O O6 0.000000 0.139499 0.937988
O O7 0.757764 0.168622 0.999615
O O8 0.500000 0.303688 0.437621
O O9 0.743739 0.250000 0.437034
O O10 0.739099 0.332484 0.374661
O O11 0.500000 0.528578 0.817040
O O12 0.250000 0.512717 0.750000
O O13 0.249326 0.579667 0.831863
O O14 0.500000 0.694231 0.181254
O O15 0.262808 0.750000 0.168928
O O16 0.250000 0.682070 0.250000
O O17 0.250000 0.646644 0.750000
O O18 0.000000 0.630737 0.817752
#
# Coordination Sequence:
#
# PCOD9536474 Si02
#       6
#    16  16  16  16  16  16
#     4  10  21  38  59  83 111 144 183 226 274 327
#     4  10  20  35  58  83 107 140 181 225 270 319
#     4   9  18  33  55  82 110 143 183 223 266 320
#     4  11  22  37  58  82 110 145 184 227 274 326
#     4  10  21  37  57  81 110 144 180 220 267 319
#     4  10  19  34  56  81 111 146 183 225 271 321
#
# _framework density 18.755942000000001
#
# number of rings (size 3 to 8) (size 9 to 14) (size 15 to 20)
#    0.000    2.000    0.000    5.000    0.000    6.333 
#    0.000    3.333    0.000    3.500    0.000    0.000 
#    0.000    0.000    0.000    0.000    0.000    0.000 
#
# Total GULP energy -268161.654675 kJ/mol
# GULP energy per Si atom -5586.701139 kJ/mol
# Density = 1.871325 g / cm^3
# Si number density = 18.755942 Si / 1000 Ang^3
#
#
#
# Elastic Constant Matrix: (Units=GPa)
#
#
# Indices 1 2 3 4 5 6 
#
# 1 36.7107 31.7209 29.1820 0.0000 0.0000 0.0000
# 2 31.7209 128.1402 104.0754 0.0000 0.0000 0.0000
# 3 29.1820 104.0754 144.6437 0.0000 0.0000 0.0000
# 4 0.0000 0.0000 0.0000 43.1283 0.0000 0.0000
# 5 0.0000 0.0000 0.0000 0.0000 32.1357 0.0000
# 6 0.0000 0.0000 0.0000 0.0000 0.0000 16.6753
#
#
#
# Elastic Compliance Matrix: (Units=1/GPa)
#
#
# Indices 1 2 3 4 5 6 
#
# 1 0.034887 -0.007025 -0.001984 0.000000 0.000000 0.000000
# 2 -0.007025 0.020192 -0.013112 0.000000 0.000000 0.000000
# 3 -0.001984 -0.013112 0.016748 0.000000 0.000000 0.000000
# 4 0.000000 0.000000 0.000000 0.023187 0.000000 0.000000
# 5 0.000000 0.000000 0.000000 0.000000 0.031118 0.000000
# 6 0.000000 0.000000 0.000000 0.000000 0.000000 0.059969
#
#
# Mechanical properties :
#
#
# Convention : Reuss Voigt Hill
#
# Bulk Modulus (GPa) = 36.24964 71.05014 53.64989
# Shear Modulus (GPa) = 20.87361 28.02228 24.44795
#
# Velocity S-wave (km/s) = 3.33964 3.86949 3.61429
# Velocity P-wave (km/s) = 5.85149 7.61101 6.78850
#
# Compressibility (1/GPa) = 0.02758648
#
# Stress axis : x y z
#
# Youngs Moduli (GPa) = 28.66386 49.52422 59.70894
#
# Poissons Ratio (x) = 0.34791 0.11845
# Poissons Ratio (y) = 0.20136 0.78288
# Poissons Ratio (z) = 0.05686 0.64934
#
# Static dielectric constant tensor:
#      x y z
#    x 1.640890 0.000000 0.000000 
#    y 0.000000 1.631840 0.000000 
#    z 0.000000 0.000000 1.618200 
# 
# From -- ./inp_files/49103.got.cif
#   From: 2010.05.17/outbox.cif.g08.bks.cpg/sg74_25_cif.got.tgz:49103.got - 2010.06.03 17:57:02.
