data_PCOD9536995
_publ_section_title
;
Structure prediction by ZEFSAII (Michael W. Deem and Ramdas Pophale) SiO2 
 PCOD9536995
Probable space group: I M M A
;
_chemical_formula_sum "Si O2"
_cell_formula_units_Z 96
_cell_length_a 11.779061
_cell_length_b 13.875702
_cell_length_c 38.187187
_cell_angle_alpha 90.000000
_cell_angle_beta 90.000000
_cell_angle_gamma 90.000000
_cell_volume 6241.418487
_symmetry_space_group_name_H-M "I M M A"
_symmetry_group_IT_number 74
_symmetry_cell_setting 'orthorhombic'
loop_
_space_group_symop_operation_xyz
x,y,z
-x,1/2-y,z
x,-y,-z
-x,1/2+y,-z
-x,-y,-z
x,1/2+y,-z
-x,y,z
x,1/2-y,z
1/2+x,1/2+y,1/2+z
1/2-x,-y,1/2+z
1/2+x,1/2-y,1/2-z
1/2-x,y,1/2-z
1/2-x,1/2-y,1/2-z
1/2+x,y,1/2-z
1/2-x,1/2+y,1/2+z
1/2+x,-y,1/2+z
loop_
_atom_site_type_symbol
_atom_site_label
_atom_site_fract_x
_atom_site_fract_y
_atom_site_fract_z
Si Si1 0.133358 0.860121 0.149425
Si Si2 0.500000 0.133209 0.923994
Si Si3 0.130713 0.866122 0.232188
Si Si4 0.236744 0.040520 0.588831
Si Si5 0.370179 0.133983 0.524211
Si Si6 0.268585 0.634851 0.955732
Si Si7 0.000000 0.134121 0.493877
O O1 0.175021 0.750000 0.143852
O O2 0.143391 0.882962 0.190526
O O3 0.196448 0.931153 0.123498
O O4 0.000000 0.860810 0.140813
O O5 0.500000 0.250000 0.920344
O O6 0.388389 0.084755 0.908309
O O7 0.500000 0.108966 0.965475
O O8 0.128069 0.750000 0.237387
O O9 0.250000 0.900484 0.250000
O O10 0.000000 0.899278 0.242218
O O11 0.293468 0.090863 0.554783
O O12 0.241432 0.928156 0.578971
O O13 0.500000 0.103736 0.528638
O O14 0.363510 0.250000 0.527427
O O15 0.325399 0.111628 0.485243
O O16 0.268151 0.750000 0.949870
O O17 0.386780 0.604434 0.973985
O O18 0.000000 0.250000 0.493210
#
# Coordination Sequence:
#
# PCOD9536995 Si02
#       7
#    16   8  16  16  16  16   8
#     4   9  18  32  48  67  93 123 152 180 214 267
#     4  11  21  31  46  68  91 111 142 192 239 277
#     4   8  14  27  47  69  94 124 155 181 211 258
#     4  12  21  30  47  64  87 118 148 182 230 279
#     4  10  20  32  45  62  83 108 144 188 230 276
#     4  10  21  34  46  61  81 111 153 197 232 267
#     4   9  17  33  49  58  77 109 148 189 233 276
#
# _framework density 15.381118000000001
#
# number of rings (size 3 to 8) (size 9 to 14) (size 15 to 20)
#    0.000    2.167    1.667    4.000    0.000    4.000 
#    1.500    0.000    0.000    0.000    0.000    0.000 
#    0.000    0.667    0.000    0.500    0.000    0.667 
#
# Total GULP energy -267608.112105 kJ/mol
# GULP energy per Si atom -5575.169002 kJ/mol
# Density = 1.534611 g / cm^3
# Si number density = 15.381118 Si / 1000 Ang^3
#
#
#
# Elastic Constant Matrix: (Units=GPa)
#
#
# Indices 1 2 3 4 5 6 
#
# 1 103.6003 25.3382 34.0239 0.0000 0.0000 0.0000
# 2 25.3382 50.9221 18.1688 0.0000 0.0000 0.0000
# 3 34.0239 18.1688 40.0763 0.0000 0.0000 0.0000
# 4 0.0000 0.0000 0.0000 15.8798 0.0000 0.0000
# 5 0.0000 0.0000 0.0000 0.0000 12.3438 0.0000
# 6 0.0000 0.0000 0.0000 0.0000 0.0000 10.1407
#
#
#
# Elastic Compliance Matrix: (Units=1/GPa)
#
#
# Indices 1 2 3 4 5 6 
#
# 1 0.013810 -0.003207 -0.010270 0.000000 0.000000 0.000000
# 2 -0.003207 0.024172 -0.008236 0.000000 0.000000 0.000000
# 3 -0.010270 -0.008236 0.037405 0.000000 0.000000 0.000000
# 4 0.000000 0.000000 0.000000 0.062973 0.000000 0.000000
# 5 0.000000 0.000000 0.000000 0.000000 0.081012 0.000000
# 6 0.000000 0.000000 0.000000 0.000000 0.000000 0.098613
#
#
# Mechanical properties :
#
#
# Convention : Reuss Voigt Hill
#
# Bulk Modulus (GPa) = 31.28816 38.85116 35.06966
# Shear Modulus (GPa) = 13.43851 15.47739 14.45795
#
# Velocity S-wave (km/s) = 2.95905 3.17560 3.06924
# Velocity P-wave (km/s) = 5.66222 6.22573 5.95065
#
# Compressibility (1/GPa) = 0.03196098
#
# Stress axis : x y z
#
# Youngs Moduli (GPa) = 72.41252 41.36985 26.73420
#
# Poissons Ratio (x) = 0.13268 0.27457
# Poissons Ratio (y) = 0.23224 0.22018
# Poissons Ratio (z) = 0.74369 0.34071
#
# Static dielectric constant tensor:
#      x y z
#    x 1.549170 0.000000 0.000000 
#    y 0.000000 1.536250 0.000000 
#    z 0.000000 0.000000 1.479270 
# 
# From -- ./inp_files/71829.got.cif
#   From: 2010.05.17/outbox.cif.g08.bks.cpg/sg74_36_cif.got.tgz:71829.got - 2010.06.03 17:57:02.
