data_PCOD9536639
_publ_section_title
;
Structure prediction by ZEFSAII (Michael W. Deem and Ramdas Pophale) SiO2 
 PCOD9536639
Probable space group: I M M A
;
_chemical_formula_sum "Si O2"
_cell_formula_units_Z 96
_cell_length_a 30.095491
_cell_length_b 19.581283
_cell_length_c 9.232687
_cell_angle_alpha 90.000000
_cell_angle_beta 90.000000
_cell_angle_gamma 90.000000
_cell_volume 5440.899323
_symmetry_space_group_name_H-M "I M M A"
_symmetry_group_IT_number 74
_symmetry_cell_setting 'orthorhombic'
loop_
_space_group_symop_operation_xyz
x,y,z
-x,1/2-y,z
x,-y,-z
-x,1/2+y,-z
-x,-y,-z
x,1/2+y,-z
-x,y,z
x,1/2-y,z
1/2+x,1/2+y,1/2+z
1/2-x,-y,1/2+z
1/2+x,1/2-y,1/2-z
1/2-x,y,1/2-z
1/2-x,1/2-y,1/2-z
1/2+x,y,1/2-z
1/2-x,1/2+y,1/2+z
1/2+x,-y,1/2+z
loop_
_atom_site_type_symbol
_atom_site_label
_atom_site_fract_x
_atom_site_fract_y
_atom_site_fract_z
Si Si1 0.643323 0.912817 0.375708
Si Si2 0.184399 0.828669 0.612618
Si Si3 0.231043 0.171857 0.913700
Si Si4 0.949560 0.572862 0.580084
Si Si5 0.368785 0.566897 0.698154
Si Si6 0.103249 0.671448 0.382980
O O1 0.691117 0.880919 0.411029
O O2 0.620445 0.916314 0.532043
O O3 0.617336 0.865517 0.263894
O O4 0.647158 0.988204 0.306458
O O5 0.186446 0.750000 0.667080
O O6 0.230706 0.844106 0.531217
O O7 0.168043 0.882333 0.732871
O O8 0.146554 0.830717 0.487902
O O9 0.215726 0.250000 0.941489
O O10 0.250000 0.171452 0.750000
O O11 0.946843 0.500000 0.500000
O O12 0.912850 0.573082 0.705466
O O13 0.935017 0.630345 0.465414
O O14 0.000000 0.583028 0.630776
O O15 0.091668 0.750000 0.359121
#
# Coordination Sequence:
#
# PCOD9536639 Si02
#       6
#    16  16  16  16  16  16
#     4  11  21  37  53  84 122 154 191 239 290 344
#     4   9  19  36  58  82 110 156 203 241 283 334
#     4  10  19  35  57  82 113 152 202 243 275 327
#     4  10  20  39  66  88 109 145 190 240 293 352
#     4  10  23  39  55  85 123 151 191 239 295 353
#     4  10  19  35  61  86 113 152 193 237 287 343
#
# _framework density 17.644141999999999
#
# number of rings (size 3 to 8) (size 9 to 14) (size 15 to 20)
#    0.000    2.000    3.333    0.500    0.000    2.333 
#    6.000    4.167    0.000    0.000    0.000    0.000 
#    0.000    0.000    0.000    0.000    0.000    0.000 
#
# Total GULP energy -267839.208689 kJ/mol
# GULP energy per Si atom -5579.983514 kJ/mol
# Density = 1.760398 g / cm^3
# Si number density = 17.644142 Si / 1000 Ang^3
#
#
#
# Elastic Constant Matrix: (Units=GPa)
#
#
# Indices 1 2 3 4 5 6 
#
# 1 101.5785 60.2173 39.7872 0.0000 0.0000 0.0000
# 2 60.2173 146.2433 74.7553 0.0000 0.0000 0.0000
# 3 39.7872 74.7553 97.9736 0.0000 0.0000 0.0000
# 4 0.0000 0.0000 0.0000 26.0004 0.0000 0.0000
# 5 0.0000 0.0000 0.0000 0.0000 14.8760 0.0000
# 6 0.0000 0.0000 0.0000 0.0000 0.0000 -1.8484
#
#
#
# Elastic Compliance Matrix: (Units=1/GPa)
#
#
# Indices 1 2 3 4 5 6 
#
# 1 0.013258 -0.004438 -0.001998 0.000000 0.000000 0.000000
# 2 -0.004438 0.012696 -0.007885 0.000000 0.000000 0.000000
# 3 -0.001998 -0.007885 0.017034 0.000000 0.000000 0.000000
# 4 0.000000 0.000000 0.000000 0.038461 0.000000 0.000000
# 5 0.000000 0.000000 0.000000 0.000000 0.067222 0.000000
# 6 0.000000 0.000000 0.000000 0.000000 0.000000 -0.541006
#
#
# Mechanical properties :
#
#
# Convention : Reuss Voigt Hill
#
# Bulk Modulus (GPa) = 69.70124 77.25723 73.47924
# Shear Modulus (GPa) = -13.93105 19.20796 2.63846
#
# Velocity S-wave (km/s) = -2.81295 3.30302 1.22418
# Velocity P-wave (km/s) = 5.38882 7.64382 6.61314
#
# Compressibility (1/GPa) = 0.01434695
#
# Stress axis : x y z
#
# Youngs Moduli (GPa) = 75.42615 78.76658 58.70452
#
# Poissons Ratio (x) = 0.34955 0.11729
# Poissons Ratio (y) = 0.33473 0.46288
# Poissons Ratio (z) = 0.15070 0.62106
#
# Static dielectric constant tensor:
#      x y z
#    x 1.578870 0.000000 0.000000 
#    y 0.000000 1.606030 0.000000 
#    z 0.000000 0.000000 1.604640 
# 
# From -- ./inp_files/15140.got.cif
#   From: 2010.05.17/outbox.cif.g08.bks.cpg/sg74_8_cif.got.tgz:15140.got - 2010.06.03 17:57:02.
