data_PCOD9536863
_publ_section_title
;
Structure prediction by ZEFSAII (Michael W. Deem and Ramdas Pophale) SiO2 
 PCOD9536863
Probable space group: I M M A
;
_chemical_formula_sum "Si O2"
_cell_formula_units_Z 64
_cell_length_a 9.837234
_cell_length_b 15.443137
_cell_length_c 24.222013
_cell_angle_alpha 90.000000
_cell_angle_beta 90.000000
_cell_angle_gamma 90.000000
_cell_volume 3679.753773
_symmetry_space_group_name_H-M "I M M A"
_symmetry_group_IT_number 74
_symmetry_cell_setting 'orthorhombic'
loop_
_space_group_symop_operation_xyz
x,y,z
-x,1/2-y,z
x,-y,-z
-x,1/2+y,-z
-x,-y,-z
x,1/2+y,-z
-x,y,z
x,1/2-y,z
1/2+x,1/2+y,1/2+z
1/2-x,-y,1/2+z
1/2+x,1/2-y,1/2-z
1/2-x,y,1/2-z
1/2-x,1/2-y,1/2-z
1/2+x,y,1/2-z
1/2-x,1/2+y,1/2+z
1/2+x,-y,1/2+z
loop_
_atom_site_type_symbol
_atom_site_label
_atom_site_fract_x
_atom_site_fract_y
_atom_site_fract_z
Si Si1 0.500000 0.250000 0.047830
Si Si2 0.000000 0.853879 0.162234
Si Si3 0.000000 0.750000 0.814565
Si Si4 0.000000 0.088310 0.533682
Si Si5 0.500000 0.627029 0.788156
Si Si6 0.197680 0.750000 0.648413
Si Si7 0.500000 0.578937 0.213708
Si Si8 0.295065 0.646075 0.124737
O O1 0.630801 0.250000 0.088132
O O2 0.500000 0.333575 0.009520
O O3 0.000000 0.894696 0.222801
O O4 0.862569 0.876578 0.130209
O O5 0.000000 0.750000 0.169646
O O6 0.000000 0.667489 0.773072
O O7 0.140651 0.750000 0.847932
O O8 0.128431 0.099546 0.574528
O O9 0.000000 0.000000 0.500000
O O10 0.630744 0.668307 0.819253
O O11 0.500000 0.524639 0.790557
O O12 0.371260 0.617854 0.180849
O O13 0.310613 0.750000 0.118067
#
# Coordination Sequence:
#
# PCOD9536863 Si02
#       8
#     4   8   4   8   8   8   8  16
#     4  10  21  42  60  82 108 138 193 240 276 328
#     4  10  21  36  55  84 119 146 173 223 276 329
#     4  10  19  38  52  80 114 152 175 224 280 322
#     4  11  22  40  65  81 101 144 193 234 280 334
#     4   9  19  35  54  79 115 154 182 215 264 327
#     4   9  21  35  58  78 110 144 190 225 269 327
#     4  11  20  32  57  86 115 149 185 215 261 331
#     4  10  21  38  58  82 112 146 183 222 276 331
#
# _framework density 17.392467
#
# number of rings (size 3 to 8) (size 9 to 14) (size 15 to 20)
#    0.000    2.250    1.250    4.125    7.000    6.000 
#    0.000    1.875    0.000    0.000    0.000    0.000 
#    0.000    0.000    0.000    0.000    0.000    0.000 
#
# Total GULP energy -178622.013042 kJ/mol
# GULP energy per Si atom -5581.937908 kJ/mol
# Density = 1.735288 g / cm^3
# Si number density = 17.392467 Si / 1000 Ang^3
#
#
#
# Elastic Constant Matrix: (Units=GPa)
#
#
# Indices 1 2 3 4 5 6 
#
# 1 185.6178 54.9676 74.2055 0.0000 0.0000 0.0000
# 2 54.9676 93.0137 55.5321 0.0000 0.0000 0.0000
# 3 74.2055 55.5321 125.5537 0.0000 0.0000 0.0000
# 4 0.0000 0.0000 0.0000 -41.8344 0.0000 0.0001
# 5 0.0000 0.0000 0.0000 0.0000 0.3589 0.0000
# 6 0.0000 0.0000 0.0000 0.0001 0.0000 -273.5234
#
#
#
# Elastic Compliance Matrix: (Units=1/GPa)
#
#
# Indices 1 2 3 4 5 6 
#
# 1 0.007430 -0.002404 -0.003328 0.000000 0.000000 0.000000
# 2 -0.002404 0.015386 -0.005385 0.000000 0.000000 0.000000
# 3 -0.003328 -0.005385 0.012313 0.000000 0.000000 0.000000
# 4 0.000000 0.000000 0.000000 -0.023904 0.000000 0.000000
# 5 0.000000 0.000000 0.000000 0.000000 2.786236 0.000000
# 6 0.000000 0.000000 0.000000 0.000000 0.000000 -0.003656
#
#
# Mechanical properties :
#
#
# Convention : Reuss Voigt Hill
#
# Bulk Modulus (GPa) = 77.54002 85.95506 81.74754
# Shear Modulus (GPa) = 1.77284 -48.36780 -23.29748
#
# Velocity S-wave (km/s) = 1.01071 -5.27920 -3.66391
# Velocity P-wave (km/s) = 6.78538 3.51684 5.40414
#
# Compressibility (1/GPa) = 0.01289657
#
# Stress axis : x y z
#
# Youngs Moduli (GPa) = 134.59509 64.99211 81.21315
#
# Poissons Ratio (x) = 0.15623 0.27027
# Poissons Ratio (y) = 0.32354 0.43731
# Poissons Ratio (z) = 0.44793 0.34996
#
# Static dielectric constant tensor:
#      x y z
#    x 1.604570 0.000000 0.000000 
#    y 0.000000 1.575600 0.000000 
#    z 0.000000 0.000000 1.569180 
# 
# From -- ./inp_files/56537.got.cif
#   From: 2010.05.17/outbox.cif.g08.bks.cpg/sg74_29_cif.got.tgz:56537.got - 2010.06.03 17:57:02.
