data_PCOD9536392
_publ_section_title
;
Structure prediction by ZEFSAII (Michael W. Deem and Ramdas Pophale) SiO2 
 PCOD9536392
Probable space group: I M M A
;
_chemical_formula_sum "Si O2"
_cell_formula_units_Z 64
_cell_length_a 10.193287
_cell_length_b 14.808161
_cell_length_c 15.903011
_cell_angle_alpha 90.000000
_cell_angle_beta 90.000000
_cell_angle_gamma 90.000000
_cell_volume 2400.461469
_symmetry_space_group_name_H-M "I M M A"
_symmetry_group_IT_number 74
_symmetry_cell_setting 'orthorhombic'
loop_
_space_group_symop_operation_xyz
x,y,z
-x,1/2-y,z
x,-y,-z
-x,1/2+y,-z
-x,-y,-z
x,1/2+y,-z
-x,y,z
x,1/2-y,z
1/2+x,1/2+y,1/2+z
1/2-x,-y,1/2+z
1/2+x,1/2-y,1/2-z
1/2-x,y,1/2-z
1/2-x,1/2-y,1/2-z
1/2+x,y,1/2-z
1/2-x,1/2+y,1/2+z
1/2+x,-y,1/2+z
loop_
_atom_site_type_symbol
_atom_site_label
_atom_site_fract_x
_atom_site_fract_y
_atom_site_fract_z
Si Si1 0.500000 0.359505 0.496133
Si Si2 0.708369 0.603980 0.007860
Si Si3 0.170068 0.601232 0.681247
Si Si4 0.142649 0.616367 0.314309
Si Si5 0.500000 0.857955 0.693598
O O1 0.500000 0.250000 0.497441
O O2 0.637361 0.392798 0.531515
O O3 0.500000 0.396322 0.401013
O O4 0.645573 0.648204 0.089564
O O5 0.664793 0.500000 0.000000
O O6 0.683631 0.641250 0.914022
O O7 0.165096 0.492018 0.677500
O O8 0.335439 0.621580 0.710783
O O9 0.000000 0.622280 0.697596
O O10 0.250000 0.650777 0.250000
O O11 0.000000 0.631479 0.276860
O O12 0.500000 0.750000 0.688347
#
# Coordination Sequence:
#
# PCOD9536392 Si02
#       5
#     8  16  16  16   8
#     4  11  23  39  59  89 131 171 206 249 314 382
#     4  10  22  36  61  89 120 163 214 264 309 367
#     4  10  19  34  53  81 124 162 200 253 298 359
#     4  10  22  37  61  92 121 153 203 269 326 365
#     4  11  22  33  54  83 129 175 206 233 297 386
#
# _framework density 26.661541
#
# number of rings (size 3 to 8) (size 9 to 14) (size 15 to 20)
#    0.000    1.750    3.750    0.375    3.500    3.000 
#    0.000    0.000    0.000    0.750    0.000    0.000 
#    0.000    0.000    0.000    0.000    0.000    0.000 
#
# Total GULP energy -178646.638845 kJ/mol
# GULP energy per Si atom -5582.707464 kJ/mol
# Density = 2.660086 g / cm^3
# Si number density = 26.661541 Si / 1000 Ang^3
#
#
#
# Elastic Constant Matrix: (Units=GPa)
#
#
# Indices 1 2 3 4 5 6 
#
# 1 238.5080 14.1270 74.3709 0.0000 0.0000 0.0000
# 2 14.1270 111.6197 12.1658 0.0000 0.0000 0.0000
# 3 74.3709 12.1658 187.0162 0.0000 0.0000 0.0000
# 4 0.0000 0.0000 0.0000 -11.9519 0.0000 0.0000
# 5 0.0000 0.0000 0.0000 0.0000 54.3047 0.0000
# 6 0.0000 0.0000 0.0000 0.0000 0.0000 -46.5365
#
#
#
# Elastic Compliance Matrix: (Units=1/GPa)
#
#
# Indices 1 2 3 4 5 6 
#
# 1 0.004804 -0.000403 -0.001884 0.000000 0.000000 0.000000
# 2 -0.000403 0.009057 -0.000429 0.000000 0.000000 0.000000
# 3 -0.001884 -0.000429 0.006124 0.000000 0.000000 0.000000
# 4 0.000000 0.000000 0.000000 -0.083669 0.000000 0.000000
# 5 0.000000 0.000000 0.000000 0.000000 0.018415 0.000000
# 6 0.000000 0.000000 0.000000 0.000000 0.000000 -0.021489
#
#
# Mechanical properties :
#
#
# Convention : Reuss Voigt Hill
#
# Bulk Modulus (GPa) = 68.71301 82.05237 75.38269
# Shear Modulus (GPa) = -88.53590 28.26192 -30.13699
#
# Velocity S-wave (km/s) = -5.76883 3.25934 -3.36572
# Velocity P-wave (km/s) = 4.30631 6.70871 3.63747
#
# Compressibility (1/GPa) = 0.01455328
#
# Stress axis : x y z
#
# Youngs Moduli (GPa) = 208.15432 110.41529 163.28237
#
# Poissons Ratio (x) = 0.04446 0.30767
# Poissons Ratio (y) = 0.08381 0.07005
# Poissons Ratio (z) = 0.39222 0.04737
#
# Static dielectric constant tensor:
#      x y z
#    x 2.281410 0.000000 0.000000 
#    y 0.000000 1.916050 0.000000 
#    z 0.000000 0.000000 2.096130 
# 
# From -- ./inp_files/39115.got.cif
#   From: 2010.05.17/outbox.cif.g08.bks.cpg/sg74_20_cif.got.tgz:39115.got - 2010.06.03 17:57:02.
