data_PCOD9536270
_publ_section_title
;
Structure prediction by ZEFSAII (Michael W. Deem and Ramdas Pophale) SiO2 
 PCOD9536270
Probable space group: I M M A
;
_chemical_formula_sum "Si O2"
_cell_formula_units_Z 80
_cell_length_a 9.382319
_cell_length_b 15.567748
_cell_length_c 29.845325
_cell_angle_alpha 90.000000
_cell_angle_beta 90.000000
_cell_angle_gamma 90.000000
_cell_volume 4359.255261
_symmetry_space_group_name_H-M "I M M A"
_symmetry_group_IT_number 74
_symmetry_cell_setting 'orthorhombic'
loop_
_space_group_symop_operation_xyz
x,y,z
-x,1/2-y,z
x,-y,-z
-x,1/2+y,-z
-x,-y,-z
x,1/2+y,-z
-x,y,z
x,1/2-y,z
1/2+x,1/2+y,1/2+z
1/2-x,-y,1/2+z
1/2+x,1/2-y,1/2-z
1/2-x,y,1/2-z
1/2-x,1/2-y,1/2-z
1/2+x,y,1/2-z
1/2-x,1/2+y,1/2+z
1/2+x,-y,1/2+z
loop_
_atom_site_type_symbol
_atom_site_label
_atom_site_fract_x
_atom_site_fract_y
_atom_site_fract_z
Si Si1 0.834961 0.604508 0.706196
Si Si2 0.329240 0.652101 0.893095
Si Si3 0.671036 0.505851 0.552091
Si Si4 0.331361 0.347208 0.615985
Si Si5 0.665997 0.396316 0.794629
O O1 0.750000 0.632494 0.750000
O O2 0.782992 0.640156 0.658688
O O3 0.827005 0.500553 0.703422
O O4 0.000000 0.628913 0.711301
O O5 0.500000 0.636317 0.894155
O O6 0.303063 0.750000 0.907099
O O7 0.249447 0.583935 0.923645
O O8 0.710908 0.500000 0.500000
O O9 0.500000 0.518044 0.554539
O O10 0.705605 0.418680 0.579158
O O11 0.500000 0.357196 0.626612
O O12 0.309496 0.250000 0.599522
O O13 0.241271 0.361768 0.660899
O O14 0.500000 0.371753 0.792488
O O15 0.750000 0.368878 0.750000
#
# Coordination Sequence:
#
# PCOD9536270 Si02
#       5
#    16  16  16  16  16
#     4   9  18  32  52  80 113 149 187 227 271 324
#     4  10  21  38  59  85 118 153 189 231 279 333
#     4  10  22  40  62  86 112 145 186 237 291 340
#     4  10  21  37  57  82 113 148 187 232 282 336
#     4  10  19  33  55  82 113 150 189 230 276 330
#
# _framework density 18.351759000000001
#
# number of rings (size 3 to 8) (size 9 to 14) (size 15 to 20)
#    0.000    2.200    2.000    0.600    0.000    4.400 
#    0.000    2.000    0.000    0.000    0.000    0.000 
#    0.000    0.000    0.000    0.000    0.000    0.000 
#
# Total GULP energy -223345.430243 kJ/mol
# GULP energy per Si atom -5583.635756 kJ/mol
# Density = 1.830999 g / cm^3
# Si number density = 18.351759 Si / 1000 Ang^3
#
#
#
# Elastic Constant Matrix: (Units=GPa)
#
#
# Indices 1 2 3 4 5 6 
#
# 1 58.5601 60.2834 72.2942 0.0000 0.0000 0.0000
# 2 60.2834 110.6904 89.2852 0.0000 0.0000 0.0000
# 3 72.2942 89.2852 172.6871 0.0000 0.0000 0.0000
# 4 0.0000 0.0000 0.0000 -5.7646 0.0000 0.0000
# 5 0.0000 0.0000 0.0000 0.0000 32.3676 0.0000
# 6 0.0000 0.0000 0.0000 0.0000 0.0000 -89.6977
#
#
#
# Elastic Compliance Matrix: (Units=1/GPa)
#
#
# Indices 1 2 3 4 5 6 
#
# 1 0.049593 -0.017604 -0.011660 0.000000 0.000000 0.000000
# 2 -0.017604 0.021746 -0.003874 0.000000 0.000000 0.000000
# 3 -0.011660 -0.003874 0.012675 0.000000 0.000000 0.000000
# 4 0.000000 0.000000 0.000000 -0.173472 0.000000 0.000000
# 5 0.000000 0.000000 0.000000 0.000000 0.030895 0.000000
# 6 0.000000 0.000000 0.000000 0.000000 0.000000 -0.011149
#
#
# Mechanical properties :
#
#
# Convention : Reuss Voigt Hill
#
# Bulk Modulus (GPa) = 56.37291 87.29591 71.83441
# Shear Modulus (GPa) = 2018.82963 -4.61396 1007.10783
#
# Velocity S-wave (km/s) = 33.20335 -1.58734 23.45147
# Velocity P-wave (km/s) = 38.73931 6.65672 27.79430
#
# Compressibility (1/GPa) = 0.01773902
#
# Stress axis : x y z
#
# Youngs Moduli (GPa) = 20.16422 45.98514 78.89511
#
# Poissons Ratio (x) = 0.80951 0.91991
# Poissons Ratio (y) = 0.35497 0.30563
# Poissons Ratio (z) = 0.23511 0.17814
#
# Static dielectric constant tensor:
#      x y z
#    x 1.615700 0.000000 0.000000 
#    y 0.000000 1.644420 0.000000 
#    z 0.000000 0.000000 1.595280 
# 
# From -- ./inp_files/63960.got.cif
#   From: 2010.05.17/outbox.cif.g08.bks.cpg/sg74_32_cif.got.tgz:63960.got - 2010.06.03 17:57:02.
