data_PCOD9536820
_publ_section_title
;
Structure prediction by ZEFSAII (Michael W. Deem and Ramdas Pophale) SiO2 
 PCOD9536820
Probable space group: I M M A
;
_chemical_formula_sum "Si O2"
_cell_formula_units_Z 72
_cell_length_a 8.669435
_cell_length_b 27.540155
_cell_length_c 14.935058
_cell_angle_alpha 90.000000
_cell_angle_beta 90.000000
_cell_angle_gamma 90.000000
_cell_volume 3565.858360
_symmetry_space_group_name_H-M "I M M A"
_symmetry_group_IT_number 74
_symmetry_cell_setting 'orthorhombic'
loop_
_space_group_symop_operation_xyz
x,y,z
-x,1/2-y,z
x,-y,-z
-x,1/2+y,-z
-x,-y,-z
x,1/2+y,-z
-x,y,z
x,1/2-y,z
1/2+x,1/2+y,1/2+z
1/2-x,-y,1/2+z
1/2+x,1/2-y,1/2-z
1/2-x,y,1/2-z
1/2-x,1/2-y,1/2-z
1/2+x,y,1/2-z
1/2-x,1/2+y,1/2+z
1/2+x,-y,1/2+z
loop_
_atom_site_type_symbol
_atom_site_label
_atom_site_fract_x
_atom_site_fract_y
_atom_site_fract_z
Si Si1 0.685031 0.163764 0.525641
Si Si2 0.817780 0.520269 0.898780
Si Si3 0.684646 0.250000 0.851630
Si Si4 0.316731 0.875293 0.848667
Si Si5 0.815258 0.918633 0.160818
O O1 0.500000 0.169380 0.523519
O O2 0.756581 0.204276 0.590096
O O3 0.749241 0.160047 0.425391
O O4 0.722844 0.112626 0.573950
O O5 0.731747 0.569744 0.876354
O O6 0.755930 0.473521 0.845801
O O7 0.000000 0.528727 0.879766
O O8 0.809507 0.500000 0.000000
O O9 0.500000 0.250000 0.846476
O O10 0.750000 0.250000 0.750000
O O11 0.500000 0.871531 0.847064
O O12 0.250000 0.865586 0.750000
O O13 0.750000 0.894549 0.250000
O O14 0.000000 0.920748 0.165886
#
# Coordination Sequence:
#
# PCOD9536820 Si02
#       5
#    16  16   8  16  16
#     4  11  23  44  68  93 125 167 211 264 323 382
#     4  10  19  37  59  85 124 170 214 263 315 371
#     4  12  26  46  71 104 135 168 208 256 318 386
#     4  12  25  41  63  93 128 172 219 267 319 382
#     4  10  21  35  57  86 121 162 207 256 311 371
#
# _framework density 20.191492
#
# number of rings (size 3 to 8) (size 9 to 14) (size 15 to 20)
#    0.000    1.111    2.222    5.000    0.000    6.667 
#    0.000    0.556    0.000    0.000    0.000    0.000 
#    0.000    0.000    0.000    0.000    0.000    0.000 
#
# Total GULP energy -201160.019897 kJ/mol
# GULP energy per Si atom -5587.778330 kJ/mol
# Density = 2.014554 g / cm^3
# Si number density = 20.191492 Si / 1000 Ang^3
#
#
#
# Elastic Constant Matrix: (Units=GPa)
#
#
# Indices 1 2 3 4 5 6 
#
# 1 110.1354 48.8164 70.7951 0.0000 0.0000 -0.0001
# 2 48.8164 89.0179 62.2376 0.0000 0.0000 -0.0001
# 3 70.7951 62.2376 181.8681 -0.0001 0.0000 -0.0005
# 4 0.0000 0.0000 -0.0001 30.2367 0.0000 -0.0002
# 5 0.0000 0.0000 0.0000 0.0000 35.6798 0.0000
# 6 -0.0001 -0.0001 -0.0005 -0.0002 0.0000 55.1600
#
#
#
# Elastic Compliance Matrix: (Units=1/GPa)
#
#
# Indices 1 2 3 4 5 6 
#
# 1 0.013578 -0.004930 -0.003598 0.000000 0.000000 0.000000
# 2 -0.004930 0.016557 -0.003747 0.000000 0.000000 0.000000
# 3 -0.003598 -0.003747 0.008181 0.000000 0.000000 0.000000
# 4 0.000000 0.000000 0.000000 0.033072 0.000000 0.000000
# 5 0.000000 0.000000 0.000000 0.000000 0.028027 0.000000
# 6 0.000000 0.000000 0.000000 0.000000 0.000000 0.018129
#
#
# Mechanical properties :
#
#
# Convention : Reuss Voigt Hill
#
# Bulk Modulus (GPa) = 72.64443 82.74663 77.69553
# Shear Modulus (GPa) = 34.08684 37.49345 35.79015
#
# Velocity S-wave (km/s) = 4.11320 4.31384 4.21472
# Velocity P-wave (km/s) = 7.65596 8.11679 7.88974
#
# Compressibility (1/GPa) = 0.01376568
#
# Stress axis : x y z
#
# Youngs Moduli (GPa) = 73.64867 60.39732 122.22874
#
# Poissons Ratio (x) = 0.29777 0.43981
# Poissons Ratio (y) = 0.36311 0.45797
# Poissons Ratio (z) = 0.26501 0.22630
#
# Static dielectric constant tensor:
#      x y z
#    x 1.677050 0.000000 0.000000 
#    y 0.000000 1.732510 0.000000 
#    z 0.000000 0.000000 1.755310 
# 
# From -- ./inp_files/29198.got.cif
#   From: 2010.05.17/outbox.cif.g08.bks.cpg/sg74_15_cif.got.tgz:29198.got - 2010.06.03 17:57:02.
