data_PCOD9536401
_publ_section_title
;
Structure prediction by ZEFSAII (Michael W. Deem and Ramdas Pophale) SiO2 
 PCOD9536401
Probable space group: I M M A
;
_chemical_formula_sum "Si O2"
_cell_formula_units_Z 116
_cell_length_a 27.541429
_cell_length_b 8.572863
_cell_length_c 27.608835
_cell_angle_alpha 90.000000
_cell_angle_beta 90.000000
_cell_angle_gamma 90.000000
_cell_volume 6518.691597
_symmetry_space_group_name_H-M "I M M A"
_symmetry_group_IT_number 74
_symmetry_cell_setting 'orthorhombic'
loop_
_space_group_symop_operation_xyz
x,y,z
-x,1/2-y,z
x,-y,-z
-x,1/2+y,-z
-x,-y,-z
x,1/2+y,-z
-x,y,z
x,1/2-y,z
1/2+x,1/2+y,1/2+z
1/2-x,-y,1/2+z
1/2+x,1/2-y,1/2-z
1/2-x,y,1/2-z
1/2-x,1/2-y,1/2-z
1/2+x,y,1/2-z
1/2-x,1/2+y,1/2+z
1/2+x,-y,1/2+z
loop_
_atom_site_type_symbol
_atom_site_label
_atom_site_fract_x
_atom_site_fract_y
_atom_site_fract_z
Si Si1 0.685106 0.431837 0.425127
Si Si2 0.056782 0.062773 0.814700
Si Si3 0.360201 0.567570 0.751710
Si Si4 0.290582 0.931517 0.324996
Si Si5 0.000000 0.000000 0.000000
Si Si6 0.582218 0.935538 0.426067
Si Si7 0.822387 0.934215 0.344633
Si Si8 0.209304 0.937028 0.449534
O O1 0.681642 0.250000 0.436830
O O2 0.688717 0.459772 0.367310
O O3 0.636723 0.521024 0.440868
O O4 0.735493 0.501117 0.444649
O O5 0.062138 0.250000 0.808893
O O6 0.074280 0.026431 0.869375
O O7 0.000000 0.023831 0.810234
O O8 0.090436 0.979849 0.775381
O O9 0.351011 0.750000 0.745801
O O10 0.317928 0.472104 0.724048
O O11 0.357478 0.522678 0.808073
O O12 0.300023 0.750000 0.338069
O O13 0.232824 0.953097 0.324872
O O14 0.957470 0.980546 0.958615
O O15 0.573120 0.750000 0.432086
O O16 0.833524 0.750000 0.343589
O O17 0.819033 0.986038 0.400700
O O18 0.210966 0.750000 0.449744
O O19 0.188944 0.000000 0.500000
#
# Coordination Sequence:
#
# PCOD9536401 Si02
#       8
#    16  16  16  16   4  16  16  16
#     4  11  22  35  54  79 104 136 180 227 277 329
#     4  10  21  40  63  79  99 140 186 226 277 344
#     4  12  23  33  52  83 112 141 176 224 279 328
#     4  10  19  34  54  76 106 143 180 221 271 328
#     4  12  26  40  60  82  98 128 192 250 292 336
#     4  11  23  41  59  75  99 135 179 232 294 342
#     4   9  20  36  54  77 108 147 184 219 263 323
#     4  10  21  38  58  80 109 146 184 222 267 315
#
# _framework density 17.794981
#
# number of rings (size 3 to 8) (size 9 to 14) (size 15 to 20)
#    0.000    1.517    2.069    4.759    0.966    6.345 
#    0.000    0.000    0.000    0.000    0.000    0.000 
#    0.000    0.552    0.000    1.793    0.000    2.207 
#
# Total GULP energy -323531.807785 kJ/mol
# GULP energy per Si atom -5578.134617 kJ/mol
# Density = 1.775448 g / cm^3
# Si number density = 17.794981 Si / 1000 Ang^3
#
#
#
# Elastic Constant Matrix: (Units=GPa)
#
#
# Indices 1 2 3 4 5 6 
#
# 1 33.6612 12.2538 30.5959 0.0000 0.0000 0.0000
# 2 12.2538 29.3883 12.9292 0.0000 0.0000 0.0000
# 3 30.5959 12.9292 111.3231 0.0000 0.0000 0.0000
# 4 0.0000 0.0000 0.0000 14.7942 0.0000 0.0000
# 5 0.0000 0.0000 0.0000 0.0000 27.1861 0.0000
# 6 0.0000 0.0000 0.0000 0.0000 0.0000 2.9259
#
#
#
# Elastic Compliance Matrix: (Units=1/GPa)
#
#
# Indices 1 2 3 4 5 6 
#
# 1 0.044370 -0.013843 -0.010587 0.000000 0.000000 0.000000
# 2 -0.013843 0.040178 -0.000862 0.000000 0.000000 0.000000
# 3 -0.010587 -0.000862 0.011993 0.000000 0.000000 0.000000
# 4 0.000000 0.000000 0.000000 0.067594 0.000000 0.000000
# 5 0.000000 0.000000 0.000000 0.000000 0.036784 0.000000
# 6 0.000000 0.000000 0.000000 0.000000 0.000000 0.341774
#
#
# Mechanical properties :
#
#
# Convention : Reuss Voigt Hill
#
# Bulk Modulus (GPa) = 21.75919 31.77006 26.76463
# Shear Modulus (GPa) = 8.21565 16.88749 12.55157
#
# Velocity S-wave (km/s) = 2.15101 3.08393 2.65871
# Velocity P-wave (km/s) = 4.29225 5.52928 4.94956
#
# Compressibility (1/GPa) = 0.04595759
#
# Stress axis : x y z
#
# Youngs Moduli (GPa) = 22.53783 24.88910 83.38464
#
# Poissons Ratio (x) = 0.34454 0.88278
# Poissons Ratio (y) = 0.31199 0.07186
# Poissons Ratio (z) = 0.23860 0.02145
#
# Static dielectric constant tensor:
#      x y z
#    x 1.575080 0.000000 0.000000 
#    y 0.000000 1.608230 0.000000 
#    z 0.000000 0.000000 1.646260 
# 
# From -- ./inp_files/69046.got.cif
#   From: 2010.05.17/outbox.cif.g08.bks.cpg/sg74_35_cif.got.tgz:69046.got - 2010.06.03 17:57:02.
