data_PCOD9536230
_publ_section_title
;
Structure prediction by ZEFSAII (Michael W. Deem and Ramdas Pophale) SiO2 
 PCOD9536230
Probable space group: I M M A
;
_chemical_formula_sum "Si O2"
_cell_formula_units_Z 96
_cell_length_a 24.272507
_cell_length_b 8.476253
_cell_length_c 23.781775
_cell_angle_alpha 90.000000
_cell_angle_beta 90.000000
_cell_angle_gamma 90.000000
_cell_volume 4892.860255
_symmetry_space_group_name_H-M "I M M A"
_symmetry_group_IT_number 74
_symmetry_cell_setting 'orthorhombic'
loop_
_space_group_symop_operation_xyz
x,y,z
-x,1/2-y,z
x,-y,-z
-x,1/2+y,-z
-x,-y,-z
x,1/2+y,-z
-x,y,z
x,1/2-y,z
1/2+x,1/2+y,1/2+z
1/2-x,-y,1/2+z
1/2+x,1/2-y,1/2-z
1/2-x,y,1/2-z
1/2-x,1/2-y,1/2-z
1/2+x,y,1/2-z
1/2-x,1/2+y,1/2+z
1/2+x,-y,1/2+z
loop_
_atom_site_type_symbol
_atom_site_label
_atom_site_fract_x
_atom_site_fract_y
_atom_site_fract_z
Si Si1 0.680754 0.560134 0.563855
Si Si2 0.940787 0.940412 0.935618
Si Si3 0.746280 0.066138 0.664160
Si Si4 0.165640 0.563615 0.745075
Si Si5 0.567027 0.931273 0.059334
Si Si6 0.062337 0.060602 0.320414
O O1 0.684860 0.500000 0.500000
O O2 0.684132 0.750000 0.565100
O O3 0.619418 0.512022 0.586578
O O4 0.727387 0.486549 0.602855
O O5 0.940834 0.750000 0.935646
O O6 0.000000 0.991950 0.910172
O O7 0.941244 0.000000 0.000000
O O8 0.760841 0.250000 0.666268
O O9 0.795295 0.964027 0.690949
O O10 0.694529 0.031255 0.705207
O O11 0.164964 0.750000 0.759399
O O12 0.105270 0.508161 0.726754
O O13 0.500000 0.939807 0.057495
O O14 0.583300 0.750000 0.063443
O O15 0.582586 0.016973 0.116964
O O16 0.587068 0.000000 0.000000
O O17 0.060525 0.250000 0.317434
O O18 0.000000 0.999397 0.313321
#
# Coordination Sequence:
#
# PCOD9536230 Si02
#       6
#    16  16  16  16  16  16
#     4  10  19  33  54  80 110 141 175 217 266 315
#     4   8  14  25  43  68  98 133 170 206 247 300
#     4  11  22  37  57  79 105 138 178 220 261 308
#     4  10  20  37  60  81 103 135 176 218 260 309
#     4   9  16  26  43  68 100 138 175 209 248 300
#     4   9  18  33  54  80 108 136 168 211 263 315
#
# _framework density 19.620425000000001
#
# number of rings (size 3 to 8) (size 9 to 14) (size 15 to 20)
#    0.000    2.500    0.000    4.000    0.000    4.000 
#    0.000    1.667    0.000    9.000    0.000    0.000 
#    0.000    0.000    0.000    0.000    0.000    0.000 
#
# Total GULP energy -267538.233864 kJ/mol
# GULP energy per Si atom -5573.713205 kJ/mol
# Density = 1.957577 g / cm^3
# Si number density = 19.620425 Si / 1000 Ang^3
#
#
#
# Elastic Constant Matrix: (Units=GPa)
#
#
# Indices 1 2 3 4 5 6 
#
# 1 31.1136 -5.2583 18.2993 0.0000 0.0000 0.0000
# 2 -5.2583 24.3769 -4.3579 0.0000 0.0000 0.0000
# 3 18.2993 -4.3579 33.1256 0.0000 0.0000 0.0000
# 4 0.0000 0.0000 0.0000 27.4441 0.0000 0.0000
# 5 0.0000 0.0000 0.0000 0.0000 23.1058 0.0000
# 6 0.0000 0.0000 0.0000 0.0000 0.0000 8.8139
#
#
#
# Elastic Compliance Matrix: (Units=1/GPa)
#
#
# Indices 1 2 3 4 5 6 
#
# 1 0.048395 0.005796 -0.025972 0.000000 0.000000 0.000000
# 2 0.005796 0.042705 0.002416 0.000000 0.000000 0.000000
# 3 -0.025972 0.002416 0.044853 0.000000 0.000000 0.000000
# 4 0.000000 0.000000 0.000000 0.036438 0.000000 0.000000
# 5 0.000000 0.000000 0.000000 0.000000 0.043279 0.000000
# 6 0.000000 0.000000 0.000000 0.000000 0.000000 0.113457
#
#
# Mechanical properties :
#
#
# Convention : Reuss Voigt Hill
#
# Bulk Modulus (GPa) = 9.95679 11.77581 10.86630
# Shear Modulus (GPa) = 12.55890 17.20163 14.88027
#
# Velocity S-wave (km/s) = 2.53275 2.96416 2.75691
# Velocity P-wave (km/s) = 3.69308 4.21068 3.96034
#
# Compressibility (1/GPa) = 0.10043399
#
# Stress axis : x y z
#
# Youngs Moduli (GPa) = 20.66323 23.41664 22.29486
#
# Poissons Ratio (x) = -0.13573 0.57904
# Poissons Ratio (y) = -0.11977 -0.05387
# Poissons Ratio (z) = 0.53666 -0.05658
#
# Static dielectric constant tensor:
#      x y z
#    x 1.751150 0.000000 0.000000 
#    y 0.000000 1.666820 0.000000 
#    z 0.000000 0.000000 1.669940 
# 
# From -- ./inp_files/61921.got.cif
#   From: 2010.05.17/outbox.cif.g08.bks.cpg/sg74_31_cif.got.tgz:61921.got - 2010.06.03 17:57:02.
