data_PCOD9536772
_publ_section_title
;
Structure prediction by ZEFSAII (Michael W. Deem and Ramdas Pophale) SiO2 
 PCOD9536772
Probable space group: I M M A
;
_chemical_formula_sum "Si O2"
_cell_formula_units_Z 88
_cell_length_a 7.452677
_cell_length_b 18.946305
_cell_length_c 32.503061
_cell_angle_alpha 90.000000
_cell_angle_beta 90.000000
_cell_angle_gamma 90.000000
_cell_volume 4589.454689
_symmetry_space_group_name_H-M "I M M A"
_symmetry_group_IT_number 74
_symmetry_cell_setting 'orthorhombic'
loop_
_space_group_symop_operation_xyz
x,y,z
-x,1/2-y,z
x,-y,-z
-x,1/2+y,-z
-x,-y,-z
x,1/2+y,-z
-x,y,z
x,1/2-y,z
1/2+x,1/2+y,1/2+z
1/2-x,-y,1/2+z
1/2+x,1/2-y,1/2-z
1/2-x,y,1/2-z
1/2-x,1/2-y,1/2-z
1/2+x,y,1/2-z
1/2-x,1/2+y,1/2+z
1/2+x,-y,1/2+z
loop_
_atom_site_type_symbol
_atom_site_label
_atom_site_fract_x
_atom_site_fract_y
_atom_site_fract_z
Si Si1 0.000000 0.107627 0.985667
Si Si2 0.500000 0.965206 0.569963
Si Si3 0.282592 0.388350 0.844949
Si Si4 0.714600 0.250000 0.798017
Si Si5 0.781983 0.543452 0.642537
Si Si6 0.294125 0.667205 0.067625
Si Si7 0.714324 0.670180 0.797765
O O1 0.826505 0.150101 0.971059
O O2 0.000000 0.036964 0.957178
O O3 0.000000 0.092204 0.033703
O O4 0.327639 0.958083 0.599853
O O5 0.500000 0.385049 0.844153
O O6 0.216013 0.322874 0.817884
O O7 0.235843 0.468942 0.835043
O O8 0.227596 0.373115 0.891877
O O9 0.500000 0.250000 0.804910
O O10 0.750000 0.250000 0.750000
O O11 0.725837 0.609790 0.670635
O O12 0.000000 0.544980 0.636295
O O13 0.500000 0.647059 0.060268
O O14 0.287963 0.750000 0.077608
O O15 0.500000 0.673147 0.802364
O O16 0.784504 0.750000 0.805134
O O17 0.750000 0.652212 0.750000
#
# Coordination Sequence:
#
# PCOD9536772 Si02
#       7
#     8   8  16   8  16  16  16
#     4  11  23  38  56  90 123 146 201 262 290 360
#     4  11  24  38  58  88 122 155 194 249 310 354
#     4   9  17  33  56  76 108 151 194 238 282 342
#     4  10  20  36  50  78 120 154 196 242 294 350
#     4  10  21  39  60  85 118 159 198 239 298 362
#     4  10  19  36  61  85 111 154 200 245 294 341
#     4   9  19  36  59  87 115 148 195 246 296 357
#
# _framework density 19.174392000000001
#
# number of rings (size 3 to 8) (size 9 to 14) (size 15 to 20)
#    0.000    2.182    2.727    0.273    1.273    1.455 
#    3.273    3.636    0.000    2.182    0.000    0.000 
#    0.000    0.000    0.000    0.000    0.000    0.000 
#
# Total GULP energy -245382.027727 kJ/mol
# GULP energy per Si atom -5576.864267 kJ/mol
# Density = 1.913075 g / cm^3
# Si number density = 19.174392 Si / 1000 Ang^3
#
#
#
# Elastic Constant Matrix: (Units=GPa)
#
#
# Indices 1 2 3 4 5 6 
#
# 1 72.3716 30.3851 26.3409 0.0000 0.0000 0.0000
# 2 30.3851 122.8843 76.6557 0.0000 0.0000 0.0000
# 3 26.3409 76.6557 110.8195 0.0000 0.0000 0.0000
# 4 0.0000 0.0000 0.0000 37.7516 0.0000 0.0000
# 5 0.0000 0.0000 0.0000 0.0000 29.5341 0.0000
# 6 0.0000 0.0000 0.0000 0.0000 0.0000 6.7752
#
#
#
# Elastic Compliance Matrix: (Units=1/GPa)
#
#
# Indices 1 2 3 4 5 6 
#
# 1 0.015627 -0.002721 -0.001832 0.000000 0.000000 0.000000
# 2 -0.002721 0.014788 -0.009582 0.000000 0.000000 0.000000
# 3 -0.001832 -0.009582 0.016087 0.000000 0.000000 0.000000
# 4 0.000000 0.000000 0.000000 0.026489 0.000000 0.000000
# 5 0.000000 0.000000 0.000000 0.000000 0.033859 0.000000
# 6 0.000000 0.000000 0.000000 0.000000 0.000000 0.147598
#
#
# Mechanical properties :
#
#
# Convention : Reuss Voigt Hill
#
# Bulk Modulus (GPa) = 54.85113 63.64875 59.24994
# Shear Modulus (GPa) = 17.31321 26.32508 21.81915
#
# Velocity S-wave (km/s) = 3.00815 3.70933 3.37698
# Velocity P-wave (km/s) = 6.38230 7.18416 6.79507
#
# Compressibility (1/GPa) = 0.01823116
#
# Stress axis : x y z
#
# Youngs Moduli (GPa) = 63.99235 67.62193 62.16016
#
# Poissons Ratio (x) = 0.18401 0.11389
# Poissons Ratio (y) = 0.17413 0.59564
# Poissons Ratio (z) = 0.11724 0.64798
#
# Static dielectric constant tensor:
#      x y z
#    x 1.702560 0.000000 0.000000 
#    y 0.000000 1.717930 0.000000 
#    z 0.000000 0.000000 1.624000 
# 
# From -- ./inp_files/70347.got.cif
#   From: 2010.05.17/outbox.cif.g08.bks.cpg/sg74_36_cif.got.tgz:70347.got - 2010.06.03 17:57:02.
