data_PCOD9536136
_publ_section_title
;
Structure prediction by ZEFSAII (Michael W. Deem and Ramdas Pophale) SiO2 
 PCOD9536136
Probable space group: I M M A
;
_chemical_formula_sum "Si O2"
_cell_formula_units_Z 80
_cell_length_a 13.398013
_cell_length_b 26.581929
_cell_length_c 10.102905
_cell_angle_alpha 90.000000
_cell_angle_beta 90.000000
_cell_angle_gamma 90.000000
_cell_volume 3598.099407
_symmetry_space_group_name_H-M "I M M A"
_symmetry_group_IT_number 74
_symmetry_cell_setting 'orthorhombic'
loop_
_space_group_symop_operation_xyz
x,y,z
-x,1/2-y,z
x,-y,-z
-x,1/2+y,-z
-x,-y,-z
x,1/2+y,-z
-x,y,z
x,1/2-y,z
1/2+x,1/2+y,1/2+z
1/2-x,-y,1/2+z
1/2+x,1/2-y,1/2-z
1/2-x,y,1/2-z
1/2-x,1/2-y,1/2-z
1/2+x,y,1/2-z
1/2-x,1/2+y,1/2+z
1/2+x,-y,1/2+z
loop_
_atom_site_type_symbol
_atom_site_label
_atom_site_fract_x
_atom_site_fract_y
_atom_site_fract_z
Si Si1 0.618823 0.805156 0.772728
Si Si2 0.679642 0.659403 0.059507
Si Si3 0.321228 0.445010 0.052204
Si Si4 0.385050 0.087651 0.340720
Si Si5 0.110123 0.809062 0.160589
O O1 0.500000 0.806390 0.785234
O O2 0.645943 0.750000 0.719325
O O3 0.642756 0.853522 0.683616
O O4 0.660113 0.813500 0.920206
O O5 0.795989 0.662845 0.098595
O O6 0.621301 0.684215 0.181308
O O7 0.648057 0.601422 0.040858
O O8 0.372492 0.435750 0.193917
O O9 0.201688 0.437711 0.073557
O O10 0.343772 0.500000 0.000000
O O11 0.500000 0.082924 0.384196
O O12 0.119904 0.750000 0.129572
O O13 0.000000 0.825948 0.116992
#
# Coordination Sequence:
#
# PCOD9536136 Si02
#       5
#    16  16  16  16  16
#     4   9  16  30  55  82 107 137 170 206 255 315
#     4  10  19  33  52  75 104 140 178 214 258 309
#     4  10  22  39  56  77 105 137 176 222 263 303
#     4   9  20  38  57  81 109 134 169 216 261 310
#     4  10  20  33  50  77 111 141 173 214 256 306
#
# _framework density 22.233961000000001
#
# number of rings (size 3 to 8) (size 9 to 14) (size 15 to 20)
#    0.000    2.400    0.000    3.000    0.000    7.200 
#    0.000   12.000    0.000    2.400    0.000    0.000 
#    0.000    0.000    0.000    0.000    0.000    0.000 
#
# Total GULP energy -223703.299406 kJ/mol
# GULP energy per Si atom -5592.582485 kJ/mol
# Density = 2.218336 g / cm^3
# Si number density = 22.233961 Si / 1000 Ang^3
#
#
#
# Elastic Constant Matrix: (Units=GPa)
#
#
# Indices 1 2 3 4 5 6 
#
# 1 87.3564 -12.6611 -4.3053 0.0003 0.0002 0.0001
# 2 -12.6611 136.3588 13.9168 0.0007 0.0002 0.0001
# 3 -4.3053 13.9168 47.1664 -0.0001 0.0024 0.0008
# 4 0.0003 0.0007 -0.0001 2.1007 0.0002 0.0000
# 5 0.0002 0.0002 0.0024 0.0002 13.0609 -0.0004
# 6 0.0001 0.0001 0.0008 0.0000 -0.0004 17.4809
#
#
#
# Elastic Compliance Matrix: (Units=1/GPa)
#
#
# Indices 1 2 3 4 5 6 
#
# 1 0.011630 0.001002 0.000766 -0.000002 0.000000 0.000000
# 2 0.001002 0.007648 -0.002165 -0.000003 0.000000 0.000000
# 3 0.000766 -0.002165 0.021910 0.000002 -0.000004 -0.000001
# 4 -0.000002 -0.000003 0.000002 0.476039 -0.000006 -0.000001
# 5 0.000000 0.000000 -0.000004 -0.000006 0.076564 0.000002
# 6 0.000000 0.000000 -0.000001 -0.000001 0.000002 0.057205
#
#
# Mechanical properties :
#
#
# Convention : Reuss Voigt Hill
#
# Bulk Modulus (GPa) = 24.75644 29.42029 27.08836
# Shear Modulus (GPa) = 7.51590 24.79056 16.15323
#
# Velocity S-wave (km/s) = 1.84057 3.34276 2.69831
# Velocity P-wave (km/s) = 3.95925 5.30656 4.68163
#
# Compressibility (1/GPa) = 0.04039353
#
# Stress axis : x y z
#
# Youngs Moduli (GPa) = 85.98234 130.76056 45.64068
#
# Poissons Ratio (x) = -0.13098 -0.03496
# Poissons Ratio (y) = -0.08613 0.09881
# Poissons Ratio (z) = -0.06587 0.28310
#
# Static dielectric constant tensor:
#      x y z
#    x 1.851050 0.000000 0.000000 
#    y 0.000000 1.788510 0.000000 
#    z 0.000000 0.000000 1.801150 
# 
# From -- ./inp_files/20500.got.cif
#   From: 2010.05.17/outbox.cif.g08.bks.cpg/sg74_11_cif.got.tgz:20500.got - 2010.06.03 17:57:02.
