data_PCOD9536288
_publ_section_title
;
Structure prediction by ZEFSAII (Michael W. Deem and Ramdas Pophale) SiO2 
 PCOD9536288
Probable space group: I M M A
;
_chemical_formula_sum "Si O2"
_cell_formula_units_Z 96
_cell_length_a 25.038200
_cell_length_b 7.836814
_cell_length_c 23.395480
_cell_angle_alpha 90.000000
_cell_angle_beta 90.000000
_cell_angle_gamma 90.000000
_cell_volume 4590.654448
_symmetry_space_group_name_H-M "I M M A"
_symmetry_group_IT_number 74
_symmetry_cell_setting 'orthorhombic'
loop_
_space_group_symop_operation_xyz
x,y,z
-x,1/2-y,z
x,-y,-z
-x,1/2+y,-z
-x,-y,-z
x,1/2+y,-z
-x,y,z
x,1/2-y,z
1/2+x,1/2+y,1/2+z
1/2-x,-y,1/2+z
1/2+x,1/2-y,1/2-z
1/2-x,y,1/2-z
1/2-x,1/2-y,1/2-z
1/2+x,y,1/2-z
1/2-x,1/2+y,1/2+z
1/2+x,-y,1/2+z
loop_
_atom_site_type_symbol
_atom_site_label
_atom_site_fract_x
_atom_site_fract_y
_atom_site_fract_z
Si Si1 0.500000 0.452879 0.284872
Si Si2 0.885146 0.455021 0.827928
Si Si3 0.199686 0.046465 0.599969
Si Si4 0.085872 0.547394 0.561800
Si Si5 0.183273 0.955607 0.064217
Si Si6 0.500000 0.040765 0.153264
Si Si7 0.808969 0.957651 0.272249
O O1 0.500000 0.250000 0.280471
O O2 0.553171 0.505476 0.318341
O O3 0.500000 0.519520 0.218951
O O4 0.879462 0.250000 0.828375
O O5 0.856551 0.517558 0.885900
O O6 0.852591 0.520672 0.772652
O O7 0.206712 0.250000 0.604991
O O8 0.256098 0.980063 0.576081
O O9 0.187133 0.977836 0.663331
O O10 0.146639 0.015169 0.564368
O O11 0.062764 0.500000 0.500000
O O12 0.086358 0.750000 0.565749
O O13 0.051096 0.483836 0.615648
O O14 0.184493 0.750000 0.067756
O O15 0.166962 0.000000 0.000000
O O16 0.500000 0.250000 0.154188
O O17 0.813141 0.750000 0.273656
O O18 0.750000 0.998075 0.250000
#
# Coordination Sequence:
#
# PCOD9536288 Si02
#       7
#     8  16  16  16  16   8  16
#     4  11  23  40  61  85 114 146 178 225 286 341
#     4  10  20  37  60  86 113 145 186 230 274 327
#     4  10  19  33  55  85 116 148 183 225 278 333
#     4  11  22  37  55  77 109 151 194 235 273 319
#     4  10  21  36  56  81 113 148 183 225 276 330
#     4   9  21  40  58  77 109 148 185 229 282 329
#     4   9  15  29  56  86 113 142 181 228 276 324
#
# _framework density 20.912053
#
# number of rings (size 3 to 8) (size 9 to 14) (size 15 to 20)
#    0.000    2.000    1.667    2.500    0.000    2.667 
#    0.000    4.167    0.000    1.000    0.000    0.000 
#    0.000    0.000    0.000    0.000    0.000    0.000 
#
# Total GULP energy -268078.199684 kJ/mol
# GULP energy per Si atom -5584.962493 kJ/mol
# Density = 2.086446 g / cm^3
# Si number density = 20.912053 Si / 1000 Ang^3
#
#
#
# Elastic Constant Matrix: (Units=GPa)
#
#
# Indices 1 2 3 4 5 6 
#
# 1 144.4214 -3.4780 74.1375 0.0000 0.0000 0.0000
# 2 -3.4780 23.1726 6.3732 0.0000 0.0000 0.0000
# 3 74.1375 6.3732 159.1709 0.0000 0.0000 0.0000
# 4 0.0000 0.0000 0.0000 20.5938 0.0000 0.0000
# 5 0.0000 0.0000 0.0000 0.0000 20.5029 0.0000
# 6 0.0000 0.0000 0.0000 0.0000 0.0000 3.6984
#
#
#
# Elastic Compliance Matrix: (Units=1/GPa)
#
#
# Indices 1 2 3 4 5 6 
#
# 1 0.009253 0.002603 -0.004414 0.000000 0.000000 0.000000
# 2 0.002603 0.044367 -0.002989 0.000000 0.000000 0.000000
# 3 -0.004414 -0.002989 0.008458 0.000000 0.000000 0.000000
# 4 0.000000 0.000000 0.000000 0.048558 0.000000 0.000000
# 5 0.000000 0.000000 0.000000 0.000000 0.048774 0.000000
# 6 0.000000 0.000000 0.000000 0.000000 0.000000 0.270390
#
#
# Mechanical properties :
#
#
# Convention : Reuss Voigt Hill
#
# Bulk Modulus (GPa) = 19.05559 53.42557 36.24058
# Shear Modulus (GPa) = 10.94350 25.60783 18.27566
#
# Velocity S-wave (km/s) = 2.29008 3.50315 2.95944
# Velocity P-wave (km/s) = 4.01555 6.47811 5.38937
#
# Compressibility (1/GPa) = 0.05247805
#
# Stress axis : x y z
#
# Youngs Moduli (GPa) = 108.07683 22.53926 118.23018
#
# Poissons Ratio (x) = -0.05866 0.52185
# Poissons Ratio (y) = -0.28129 0.35336
# Poissons Ratio (z) = 0.47704 0.06736
#
# Static dielectric constant tensor:
#      x y z
#    x 1.746000 0.000000 0.000000 
#    y 0.000000 1.769800 0.000000 
#    z 0.000000 0.000000 1.767810 
# 
# From -- ./inp_files/61960.got.cif
#   From: 2010.05.17/outbox.cif.g08.bks.cpg/sg74_31_cif.got.tgz:61960.got - 2010.06.03 17:57:02.
