data_PCOD9536884
_publ_section_title
;
Structure prediction by ZEFSAII (Michael W. Deem and Ramdas Pophale) SiO2 
 PCOD9536884
Probable space group: I M M A
;
_chemical_formula_sum "Si O2"
_cell_formula_units_Z 80
_cell_length_a 16.143300
_cell_length_b 14.814895
_cell_length_c 17.509707
_cell_angle_alpha 90.000000
_cell_angle_beta 90.000000
_cell_angle_gamma 90.000000
_cell_volume 4187.644192
_symmetry_space_group_name_H-M "I M M A"
_symmetry_group_IT_number 74
_symmetry_cell_setting 'orthorhombic'
loop_
_space_group_symop_operation_xyz
x,y,z
-x,1/2-y,z
x,-y,-z
-x,1/2+y,-z
-x,-y,-z
x,1/2+y,-z
-x,y,z
x,1/2-y,z
1/2+x,1/2+y,1/2+z
1/2-x,-y,1/2+z
1/2+x,1/2-y,1/2-z
1/2-x,y,1/2-z
1/2-x,1/2-y,1/2-z
1/2+x,y,1/2-z
1/2-x,1/2+y,1/2+z
1/2+x,-y,1/2+z
loop_
_atom_site_type_symbol
_atom_site_label
_atom_site_fract_x
_atom_site_fract_y
_atom_site_fract_z
Si Si1 0.398408 0.147577 0.990143
Si Si2 0.400120 0.553874 0.421389
Si Si3 0.100988 0.750000 0.024214
Si Si4 0.097608 0.509977 0.616951
Si Si5 0.342817 0.560724 0.720271
Si Si6 0.099372 0.750000 0.847612
O O1 0.500000 0.152034 0.990138
O O2 0.368149 0.250000 0.986413
O O3 0.370835 0.083252 0.920262
O O4 0.370702 0.094624 0.066686
O O5 0.384695 0.500000 0.500000
O O6 0.500000 0.549976 0.407964
O O7 0.374653 0.657477 0.434511
O O8 0.355703 0.505071 0.351429
O O9 0.000000 0.750000 0.022190
O O10 0.128655 0.750000 0.935831
O O11 0.109348 0.523645 0.705959
O O12 0.000000 0.508380 0.601681
O O13 0.250000 0.565746 0.750000
O O14 0.372179 0.659536 0.694492
O O15 0.000000 0.750000 0.849147
#
# Coordination Sequence:
#
# PCOD9536884 Si02
#       6
#    16  16   8  16  16   8
#     4   8  15  31  55  81 107 140 191 244 278 323
#     4  10  19  38  66  91 118 160 213 262 305 357
#     4   9  18  35  64  96 115 149 215 270 304 345
#     4   9  18  34  56  81 109 148 198 239 281 341
#     4  12  25  39  56  89 131 159 189 245 315 379
#     4  11  21  39  67  94 119 153 204 259 306 364
#
# _framework density 19.103819000000001
#
# number of rings (size 3 to 8) (size 9 to 14) (size 15 to 20)
#    0.000    2.200    2.000    3.300    1.400    0.000 
#    5.400    0.500    0.000    0.000    0.000    0.000 
#    0.000    0.000    0.000    0.000    0.000    0.000 
#
# Total GULP energy -223207.538967 kJ/mol
# GULP energy per Si atom -5580.188474 kJ/mol
# Density = 1.906034 g / cm^3
# Si number density = 19.103819 Si / 1000 Ang^3
#
#
#
# Elastic Constant Matrix: (Units=GPa)
#
#
# Indices 1 2 3 4 5 6 
#
# 1 28.4425 36.4832 29.8821 0.0000 0.0000 0.0000
# 2 36.4832 202.3083 99.4970 0.0000 0.0000 0.0000
# 3 29.8821 99.4970 161.3411 0.0000 0.0000 0.0000
# 4 0.0000 0.0000 0.0000 -6.4481 0.0000 0.0000
# 5 0.0000 0.0000 0.0000 0.0000 201.7543 0.0000
# 6 0.0000 0.0000 0.0000 0.0000 0.0000 -2.1467
#
#
#
# Elastic Compliance Matrix: (Units=1/GPa)
#
#
# Indices 1 2 3 4 5 6 
#
# 1 0.048555 -0.006220 -0.005157 0.000000 0.000000 0.000000
# 2 -0.006220 0.007891 -0.003715 0.000000 0.000000 0.000000
# 3 -0.005157 -0.003715 0.009444 0.000000 0.000000 0.000000
# 4 0.000000 0.000000 0.000000 -0.155084 0.000000 0.000000
# 5 0.000000 0.000000 0.000000 0.000000 0.004957 0.000000
# 6 0.000000 0.000000 0.000000 0.000000 0.000000 -0.465829
#
#
# Mechanical properties :
#
#
# Convention : Reuss Voigt Hill
#
# Bulk Modulus (GPa) = 28.00553 80.42405 54.21479
# Shear Modulus (GPa) = -9.84290 53.71387 21.93549
#
# Velocity S-wave (km/s) = -2.27233 5.30828 3.39222
# Velocity P-wave (km/s) = 2.79407 8.93086 6.61691
#
# Compressibility (1/GPa) = 0.03570723
#
# Stress axis : x y z
#
# Youngs Moduli (GPa) = 20.59517 126.71917 105.88765
#
# Poissons Ratio (x) = 0.78817 0.54609
# Poissons Ratio (y) = 0.12810 0.39333
# Poissons Ratio (z) = 0.10621 0.47071
#
# Static dielectric constant tensor:
#      x y z
#    x 1.679120 0.000000 0.000000 
#    y 0.000000 1.663400 0.000000 
#    z 0.000000 0.000000 1.660850 
# 
# From -- ./inp_files/43882.got.cif
#   From: 2010.05.17/outbox.cif.g08.bks.cpg/sg74_22_cif.got.tgz:43882.got - 2010.06.03 17:57:02.
