data_PCOD9536471
_publ_section_title
;
Structure prediction by ZEFSAII (Michael W. Deem and Ramdas Pophale) SiO2 
 PCOD9536471
Probable space group: I M M A
;
_chemical_formula_sum "Si O2"
_cell_formula_units_Z 96
_cell_length_a 17.911948
_cell_length_b 11.571654
_cell_length_c 24.365487
_cell_angle_alpha 90.000000
_cell_angle_beta 90.000000
_cell_angle_gamma 90.000000
_cell_volume 5050.255560
_symmetry_space_group_name_H-M "I M M A"
_symmetry_group_IT_number 74
_symmetry_cell_setting 'orthorhombic'
loop_
_space_group_symop_operation_xyz
x,y,z
-x,1/2-y,z
x,-y,-z
-x,1/2+y,-z
-x,-y,-z
x,1/2+y,-z
-x,y,z
x,1/2-y,z
1/2+x,1/2+y,1/2+z
1/2-x,-y,1/2+z
1/2+x,1/2-y,1/2-z
1/2-x,y,1/2-z
1/2-x,1/2-y,1/2-z
1/2+x,y,1/2-z
1/2-x,1/2+y,1/2+z
1/2+x,-y,1/2+z
loop_
_atom_site_type_symbol
_atom_site_label
_atom_site_fract_x
_atom_site_fract_y
_atom_site_fract_z
Si Si1 0.083745 0.114548 0.779163
Si Si2 0.292686 0.504648 0.355397
Si Si3 0.201123 0.250000 0.162177
Si Si4 0.864782 0.750000 0.719909
Si Si5 0.380574 0.009065 0.173310
Si Si6 0.249899 0.379919 0.535706
Si Si7 0.418845 0.428437 0.944025
O O1 0.095347 0.250000 0.788761
O O2 0.000000 0.083167 0.797464
O O3 0.146923 0.043865 0.811019
O O4 0.089942 0.087677 0.714502
O O5 0.306596 0.369856 0.370057
O O6 0.209238 0.506033 0.330127
O O7 0.292182 0.587931 0.407894
O O8 0.146952 0.250000 0.214938
O O9 0.283537 0.250000 0.189892
O O10 0.900881 0.631781 0.699878
O O11 0.410496 0.001487 0.111780
O O12 0.257185 0.500000 0.500000
O O13 0.271735 0.250000 0.514917
O O14 0.161797 0.369743 0.550492
O O15 0.500000 0.369737 0.939850
O O16 0.422361 0.500000 0.000000
#
# Coordination Sequence:
#
# PCOD9536471 Si02
#       7
#    16  16   8   8  16  16  16
#     4  11  23  36  52  78 112 147 183 227 285 343
#     4  10  20  36  59  83 112 145 186 230 282 340
#     4   9  16  30  56  84 108 144 176 227 290 337
#     4   9  16  30  52  82 112 136 184 233 282 335
#     4  10  19  34  56  81 108 146 191 235 277 334
#     4  10  22  38  60  88 114 148 194 240 284 337
#     4   9  19  37  54  76 113 154 194 237 286 336
#
# _framework density 19.008939999999999
#
# number of rings (size 3 to 8) (size 9 to 14) (size 15 to 20)
#    0.000    2.167    1.667    1.500    1.167    4.333 
#    9.000    2.917    0.000    0.500    0.000    0.000 
#    0.000    0.000    0.000    0.000    0.000    0.000 
#
# Total GULP energy -267255.670025 kJ/mol
# GULP energy per Si atom -5567.826459 kJ/mol
# Density = 1.896567 g / cm^3
# Si number density = 19.008940 Si / 1000 Ang^3
#
#
#
# Elastic Constant Matrix: (Units=GPa)
#
#
# Indices 1 2 3 4 5 6 
#
# 1 71.0461 29.9710 32.5948 0.0000 0.0000 0.0000
# 2 29.9710 110.3367 28.0081 0.0000 0.0000 0.0000
# 3 32.5948 28.0081 65.8716 0.0000 0.0000 0.0000
# 4 0.0000 0.0000 0.0000 7.2799 0.0000 0.0000
# 5 0.0000 0.0000 0.0000 0.0000 43.4935 0.0000
# 6 0.0000 0.0000 0.0000 0.0000 0.0000 -9.1811
#
#
#
# Elastic Compliance Matrix: (Units=1/GPa)
#
#
# Indices 1 2 3 4 5 6 
#
# 1 0.019128 -0.003131 -0.008134 0.000000 0.000000 0.000000
# 2 -0.003131 0.010672 -0.002988 0.000000 0.000000 0.000000
# 3 -0.008134 -0.002988 0.020476 0.000000 0.000000 0.000000
# 4 0.000000 0.000000 0.000000 0.137365 0.000000 0.000000
# 5 0.000000 0.000000 0.000000 0.000000 0.022992 0.000000
# 6 0.000000 0.000000 0.000000 0.000000 0.000000 -0.108919
#
#
# Mechanical properties :
#
#
# Convention : Reuss Voigt Hill
#
# Bulk Modulus (GPa) = 45.93417 47.60023 46.76720
# Shear Modulus (GPa) = 36.36964 18.76381 27.56673
#
# Velocity S-wave (km/s) = 4.37886 3.14523 3.81228
# Velocity P-wave (km/s) = 7.05570 6.18751 6.63582
#
# Compressibility (1/GPa) = 0.02177028
#
# Stress axis : x y z
#
# Youngs Moduli (GPa) = 52.27999 93.70086 48.83670
#
# Poissons Ratio (x) = 0.29338 0.39722
# Poissons Ratio (y) = 0.16369 0.14595
# Poissons Ratio (z) = 0.42522 0.28002
#
# Static dielectric constant tensor:
#      x y z
#    x 1.665520 0.000000 0.000000 
#    y 0.000000 1.674820 0.000000 
#    z 0.000000 0.000000 1.652450 
# 
# From -- ./inp_files/60812.got.cif
#   From: 2010.05.17/outbox.cif.g08.bks.cpg/sg74_31_cif.got.tgz:60812.got - 2010.06.03 17:57:02.
