data_PCOD9536034
_publ_section_title
;
Structure prediction by ZEFSAII (Michael W. Deem and Ramdas Pophale) SiO2 
 PCOD9536034
Probable space group: I M M A
;
_chemical_formula_sum "Si O2"
_cell_formula_units_Z 96
_cell_length_a 25.232294
_cell_length_b 7.631381
_cell_length_c 23.306254
_cell_angle_alpha 90.000000
_cell_angle_beta 90.000000
_cell_angle_gamma 90.000000
_cell_volume 4487.788155
_symmetry_space_group_name_H-M "I M M A"
_symmetry_group_IT_number 74
_symmetry_cell_setting 'orthorhombic'
loop_
_space_group_symop_operation_xyz
x,y,z
-x,1/2-y,z
x,-y,-z
-x,1/2+y,-z
-x,-y,-z
x,1/2+y,-z
-x,y,z
x,1/2-y,z
1/2+x,1/2+y,1/2+z
1/2-x,-y,1/2+z
1/2+x,1/2-y,1/2-z
1/2-x,y,1/2-z
1/2-x,1/2-y,1/2-z
1/2+x,y,1/2-z
1/2-x,1/2+y,1/2+z
1/2+x,-y,1/2+z
loop_
_atom_site_type_symbol
_atom_site_label
_atom_site_fract_x
_atom_site_fract_y
_atom_site_fract_z
Si Si1 0.500000 0.959375 0.288185
Si Si2 0.886521 0.465051 0.828537
Si Si3 0.199709 0.042465 0.600615
Si Si4 0.086088 0.542472 0.562620
Si Si5 0.184486 0.960318 0.064973
Si Si6 0.500000 0.038052 0.152656
Si Si7 0.808328 0.963382 0.271517
O O1 0.500000 0.750000 0.295591
O O2 0.446332 0.025650 0.317851
O O3 0.500000 0.989096 0.219427
O O4 0.886713 0.250000 0.829163
O O5 0.856194 0.522959 0.886138
O O6 0.851963 0.521840 0.773677
O O7 0.208317 0.250000 0.607128
O O8 0.255391 0.972018 0.576458
O O9 0.186447 0.971236 0.663833
O O10 0.146622 0.020005 0.564690
O O11 0.063229 0.500000 0.500000
O O12 0.087149 0.750000 0.568111
O O13 0.050900 0.474395 0.615793
O O14 0.185956 0.750000 0.070324
O O15 0.168702 0.000000 0.000000
O O16 0.500000 0.250000 0.150946
O O17 0.811133 0.750000 0.272061
O O18 0.750000 0.010472 0.250000
#
# Coordination Sequence:
#
# PCOD9536034 Si02
#       7
#     8  16  16  16  16   8  16
#     4  10  20  35  60  87 106 130 173 228 271 316
#     4   9  17  31  51  79 109 135 171 220 268 311
#     4  10  19  32  54  82 109 140 177 221 270 318
#     4  11  23  38  55  76 107 146 185 223 260 308
#     4  10  20  34  52  75 107 143 177 217 267 319
#     4  10  23  41  57  77 109 144 174 214 271 322
#     4   9  14  25  48  77 104 132 169 211 258 313
#
# _framework density 21.391385
#
# number of rings (size 3 to 8) (size 9 to 14) (size 15 to 20)
#    0.000    2.167    1.667    2.250    0.000    4.667 
#    0.000    1.250    0.000    1.500    0.000    0.000 
#    0.000    0.000    0.000    0.000    0.000    0.000 
#
# Total GULP energy -268059.536101 kJ/mol
# GULP energy per Si atom -5584.573669 kJ/mol
# Density = 2.134270 g / cm^3
# Si number density = 21.391385 Si / 1000 Ang^3
#
#
#
# Elastic Constant Matrix: (Units=GPa)
#
#
# Indices 1 2 3 4 5 6 
#
# 1 174.3002 3.9466 81.0156 0.0000 0.0000 0.0000
# 2 3.9466 40.3209 -0.5127 0.0000 0.0000 0.0000
# 3 81.0156 -0.5127 157.1284 0.0000 0.0000 0.0000
# 4 0.0000 0.0000 0.0000 20.6760 0.0000 0.0000
# 5 0.0000 0.0000 0.0000 0.0000 23.7463 0.0000
# 6 0.0000 0.0000 0.0000 0.0000 0.0000 -14.5708
#
#
#
# Elastic Compliance Matrix: (Units=1/GPa)
#
#
# Indices 1 2 3 4 5 6 
#
# 1 0.007571 -0.000791 -0.003906 0.000000 0.000000 0.000000
# 2 -0.000791 0.024885 0.000489 0.000000 0.000000 0.000000
# 3 -0.003906 0.000489 0.008380 0.000000 0.000000 0.000000
# 4 0.000000 0.000000 0.000000 0.048365 0.000000 0.000000
# 5 0.000000 0.000000 0.000000 0.000000 0.042112 0.000000
# 6 0.000000 0.000000 0.000000 0.000000 0.000000 -0.068630
#
#
# Mechanical properties :
#
#
# Convention : Reuss Voigt Hill
#
# Bulk Modulus (GPa) = 30.84574 60.07208 45.45891
# Shear Modulus (GPa) = 61.04711 25.12364 43.08538
#
# Velocity S-wave (km/s) = 5.34791 3.43078 4.49279
# Velocity P-wave (km/s) = 7.25152 6.62095 6.94340
#
# Compressibility (1/GPa) = 0.03241939
#
# Stress axis : x y z
#
# Youngs Moduli (GPa) = 132.08869 40.18544 119.33501
#
# Poissons Ratio (x) = 0.03177 0.46613
# Poissons Ratio (y) = 0.10444 -0.05834
# Poissons Ratio (z) = 0.51594 -0.01965
#
# Static dielectric constant tensor:
#      x y z
#    x 1.777930 0.000000 0.000000 
#    y 0.000000 1.809900 0.000000 
#    z 0.000000 0.000000 1.772440 
# 
# From -- ./inp_files/61961.got.cif
#   From: 2010.05.17/outbox.cif.g08.bks.cpg/sg74_31_cif.got.tgz:61961.got - 2010.06.03 17:57:02.
