data_PCOD9536382
_publ_section_title
;
Structure prediction by ZEFSAII (Michael W. Deem and Ramdas Pophale) SiO2 
 PCOD9536382
Probable space group: I M M A
;
_chemical_formula_sum "Si O2"
_cell_formula_units_Z 96
_cell_length_a 22.116873
_cell_length_b 20.705880
_cell_length_c 9.827406
_cell_angle_alpha 90.000000
_cell_angle_beta 90.000000
_cell_angle_gamma 90.000000
_cell_volume 4500.453878
_symmetry_space_group_name_H-M "I M M A"
_symmetry_group_IT_number 74
_symmetry_cell_setting 'orthorhombic'
loop_
_space_group_symop_operation_xyz
x,y,z
-x,1/2-y,z
x,-y,-z
-x,1/2+y,-z
-x,-y,-z
x,1/2+y,-z
-x,y,z
x,1/2-y,z
1/2+x,1/2+y,1/2+z
1/2-x,-y,1/2+z
1/2+x,1/2-y,1/2-z
1/2-x,y,1/2-z
1/2-x,1/2-y,1/2-z
1/2+x,y,1/2-z
1/2-x,1/2+y,1/2+z
1/2+x,-y,1/2+z
loop_
_atom_site_type_symbol
_atom_site_label
_atom_site_fract_x
_atom_site_fract_y
_atom_site_fract_z
Si Si1 0.071730 0.463529 0.141059
Si Si2 0.396281 0.548503 0.107507
Si Si3 0.240109 0.823585 0.591477
Si Si4 0.745734 0.559865 0.086783
Si Si5 0.431353 0.821471 0.679747
Si Si6 0.597603 0.679424 0.989876
O O1 0.100551 0.510686 0.252085
O O2 0.096752 0.390130 0.136454
O O3 0.000000 0.458026 0.175074
O O4 0.076960 0.500000 0.000000
O O5 0.326467 0.557025 0.066457
O O6 0.425976 0.500000 0.000000
O O7 0.420115 0.620928 0.088530
O O8 0.262358 0.750000 0.577372
O O9 0.250000 0.843081 0.750000
O O10 0.267628 0.874219 0.484385
O O11 0.168604 0.821944 0.554682
O O12 0.750000 0.556828 0.250000
O O13 0.771868 0.500000 0.000000
O O14 0.500000 0.820254 0.625511
O O15 0.404135 0.750000 0.649541
O O16 0.433713 0.826304 0.843473
O O17 0.585005 0.750000 0.049201
#
# Coordination Sequence:
#
# PCOD9536382 Si02
#       6
#    16  16  16  16  16  16
#     4  10  21  36  53  78 109 139 172 212 261 315
#     4  10  19  34  53  76 101 134 175 214 260 310
#     4   9  18  34  55  76 103 138 176 219 265 315
#     4  10  21  35  51  75 105 138 174 220 268 314
#     4   9  17  31  53  78 102 131 169 212 257 305
#     4   9  17  31  52  77 106 134 170 220 263 305
#
# _framework density 21.331181999999998
#
# number of rings (size 3 to 8) (size 9 to 14) (size 15 to 20)
#    0.000    2.500    1.667    0.500    0.000    2.000 
#    3.000    0.833    0.000    1.000    0.000    0.000 
#    0.000    0.000    0.000    0.000    0.000    0.000 
#
# Total GULP energy -267435.001687 kJ/mol
# GULP energy per Si atom -5571.562535 kJ/mol
# Density = 2.128263 g / cm^3
# Si number density = 21.331182 Si / 1000 Ang^3
#
#
#
# Elastic Constant Matrix: (Units=GPa)
#
#
# Indices 1 2 3 4 5 6 
#
# 1 38.8691 10.7774 -16.6097 0.0000 0.0000 0.0000
# 2 10.7774 232.9045 82.9317 0.0000 0.0000 0.0000
# 3 -16.6097 82.9317 87.0609 0.0000 0.0000 0.0000
# 4 0.0000 0.0000 0.0000 30.8033 0.0000 0.0000
# 5 0.0000 0.0000 0.0000 0.0000 20.8945 0.0000
# 6 0.0000 0.0000 0.0000 0.0000 0.0000 5.5748
#
#
#
# Elastic Compliance Matrix: (Units=1/GPa)
#
#
# Indices 1 2 3 4 5 6 
#
# 1 0.032151 -0.005557 0.011427 0.000000 0.000000 0.000000
# 2 -0.005557 0.007458 -0.008164 0.000000 0.000000 0.000000
# 3 0.011427 -0.008164 0.021443 0.000000 0.000000 0.000000
# 4 0.000000 0.000000 0.000000 0.032464 0.000000 0.000000
# 5 0.000000 0.000000 0.000000 0.000000 0.047860 0.000000
# 6 0.000000 0.000000 0.000000 0.000000 0.000000 0.179378
#
#
# Mechanical properties :
#
#
# Convention : Reuss Voigt Hill
#
# Bulk Modulus (GPa) = 17.71028 57.00368 37.35698
# Shear Modulus (GPa) = 14.52801 30.23686 22.38243
#
# Velocity S-wave (km/s) = 2.61256 3.76905 3.24278
# Velocity P-wave (km/s) = 4.17387 6.76182 5.61887
#
# Compressibility (1/GPa) = 0.05646438
#
# Stress axis : x y z
#
# Youngs Moduli (GPa) = 31.10317 134.08778 46.63471
#
# Poissons Ratio (x) = 0.74507 -0.53289
# Poissons Ratio (y) = 0.17283 0.38073
# Poissons Ratio (z) = -0.35541 1.09472
#
# Static dielectric constant tensor:
#      x y z
#    x 1.861990 0.000000 0.000000 
#    y 0.000000 2.274160 0.000000 
#    z 0.000000 0.000000 3.512340 
# 
# From -- ./inp_files/15115.got.cif
#   From: 2010.05.17/outbox.cif.g08.bks.cpg/sg74_8_cif.got.tgz:15115.got - 2010.06.03 17:57:02.
