data_PCOD9536220
_publ_section_title
;
Structure prediction by ZEFSAII (Michael W. Deem and Ramdas Pophale) SiO2 
 PCOD9536220
Probable space group: I M M A
;
_chemical_formula_sum "Si O2"
_cell_formula_units_Z 80
_cell_length_a 8.464817
_cell_length_b 18.270557
_cell_length_c 27.575201
_cell_angle_alpha 90.000000
_cell_angle_beta 90.000000
_cell_angle_gamma 90.000000
_cell_volume 4264.695696
_symmetry_space_group_name_H-M "I M M A"
_symmetry_group_IT_number 74
_symmetry_cell_setting 'orthorhombic'
loop_
_space_group_symop_operation_xyz
x,y,z
-x,1/2-y,z
x,-y,-z
-x,1/2+y,-z
-x,-y,-z
x,1/2+y,-z
-x,y,z
x,1/2-y,z
1/2+x,1/2+y,1/2+z
1/2-x,-y,1/2+z
1/2+x,1/2-y,1/2-z
1/2-x,y,1/2-z
1/2-x,1/2-y,1/2-z
1/2+x,y,1/2-z
1/2-x,1/2+y,1/2+z
1/2+x,-y,1/2+z
loop_
_atom_site_type_symbol
_atom_site_label
_atom_site_fract_x
_atom_site_fract_y
_atom_site_fract_z
Si Si1 0.813272 0.168455 0.830118
Si Si2 0.814970 0.027177 0.095751
Si Si3 0.185561 0.985387 0.301720
Si Si4 0.809390 0.667654 0.541540
Si Si5 0.813576 0.125630 0.567541
O O1 0.765908 0.250000 0.814541
O O2 0.719518 0.101662 0.806442
O O3 0.780549 0.160437 0.887709
O O4 0.000000 0.158588 0.821090
O O5 0.767910 0.104460 0.073286
O O6 0.000000 0.012914 0.088971
O O7 0.772693 0.021451 0.152543
O O8 0.719177 0.961259 0.070303
O O9 0.250000 0.010527 0.250000
O O10 0.000000 0.998370 0.305913
O O11 0.764866 0.750000 0.556025
O O12 0.768157 0.655348 0.485006
O O13 0.000000 0.660965 0.544946
O O14 0.000000 0.139480 0.575154
#
# Coordination Sequence:
#
# PCOD9536220 Si02
#       5
#    16  16  16  16  16
#     4  10  20  33  50  76 111 146 180 219 262 309
#     4  11  22  36  55  80 109 140 177 219 264 315
#     4  11  22  38  59  79 102 134 175 221 268 318
#     4  10  21  36  54  78 109 144 181 220 263 312
#     4  10  19  33  54  78 107 146 187 220 256 306
#
# _framework density 18.758665000000001
#
# number of rings (size 3 to 8) (size 9 to 14) (size 15 to 20)
#    0.000    1.600    0.000    8.400    0.000    7.200 
#    0.000    0.000    0.000    0.600    0.000    0.000 
#    0.000    0.000    0.000    0.000    0.000    0.000 
#
# Total GULP energy -223611.428646 kJ/mol
# GULP energy per Si atom -5590.285716 kJ/mol
# Density = 1.871597 g / cm^3
# Si number density = 18.758665 Si / 1000 Ang^3
#
#
#
# Elastic Constant Matrix: (Units=GPa)
#
#
# Indices 1 2 3 4 5 6 
#
# 1 31.0284 -9.9278 -4.2331 0.0000 0.0000 0.0000
# 2 -9.9278 56.9878 11.6357 0.0000 0.0000 0.0000
# 3 -4.2331 11.6357 51.7509 0.0000 0.0000 0.0000
# 4 0.0000 0.0000 0.0000 -2.2921 0.0000 0.0000
# 5 0.0000 0.0000 0.0000 0.0000 29.1160 0.0000
# 6 0.0000 0.0000 0.0000 0.0000 0.0000 22.8610
#
#
#
# Elastic Compliance Matrix: (Units=1/GPa)
#
#
# Indices 1 2 3 4 5 6 
#
# 1 0.034246 0.005654 0.001530 0.000000 0.000000 0.000000
# 2 0.005654 0.019325 -0.003883 0.000000 0.000000 0.000000
# 3 0.001530 -0.003883 0.020321 0.000000 0.000000 0.000000
# 4 0.000000 0.000000 0.000000 -0.436283 0.000000 0.000000
# 5 0.000000 0.000000 0.000000 0.000000 0.034345 0.000000
# 6 0.000000 0.000000 0.000000 0.000000 0.000000 0.043743
#
#
# Mechanical properties :
#
#
# Convention : Reuss Voigt Hill
#
# Bulk Modulus (GPa) = 12.42315 14.96854 13.69585
# Shear Modulus (GPa) = -18.93421 19.42314 0.24447
#
# Velocity S-wave (km/s) = -3.18049 3.22129 0.36139
# Velocity P-wave (km/s) = 2.61731 4.67252 2.73698
#
# Compressibility (1/GPa) = 0.08049486
#
# Stress axis : x y z
#
# Youngs Moduli (GPa) = 29.20036 51.74577 49.20906
#
# Poissons Ratio (x) = -0.29255 -0.07529
# Poissons Ratio (y) = -0.16509 0.19106
# Poissons Ratio (z) = -0.04468 0.20091
#
# Static dielectric constant tensor:
#      x y z
#    x 1.631440 0.000000 0.000000 
#    y 0.000000 1.643730 0.000000 
#    z 0.000000 0.000000 1.646710 
# 
# From -- ./inp_files/67537.got.cif
#   From: 2010.05.17/outbox.cif.g08.bks.cpg/sg74_34_cif.got.tgz:67537.got - 2010.06.03 17:57:02.
