data_PCOD9536445
_publ_section_title
;
Structure prediction by ZEFSAII (Michael W. Deem and Ramdas Pophale) SiO2 
 PCOD9536445
Probable space group: I M M A
;
_chemical_formula_sum "Si O2"
_cell_formula_units_Z 116
_cell_length_a 32.468600
_cell_length_b 7.594954
_cell_length_c 23.113167
_cell_angle_alpha 90.000000
_cell_angle_beta 90.000000
_cell_angle_gamma 90.000000
_cell_volume 5699.649741
_symmetry_space_group_name_H-M "I M M A"
_symmetry_group_IT_number 74
_symmetry_cell_setting 'orthorhombic'
loop_
_space_group_symop_operation_xyz
x,y,z
-x,1/2-y,z
x,-y,-z
-x,1/2+y,-z
-x,-y,-z
x,1/2+y,-z
-x,y,z
x,1/2-y,z
1/2+x,1/2+y,1/2+z
1/2-x,-y,1/2+z
1/2+x,1/2-y,1/2-z
1/2-x,y,1/2-z
1/2-x,1/2-y,1/2-z
1/2+x,y,1/2-z
1/2-x,1/2+y,1/2+z
1/2+x,-y,1/2+z
loop_
_atom_site_type_symbol
_atom_site_label
_atom_site_fract_x
_atom_site_fract_y
_atom_site_fract_z
Si Si1 0.807582 0.538108 0.901969
Si Si2 0.500000 0.750000 0.838348
Si Si3 0.294807 0.535579 0.728195
Si Si4 0.345901 0.964006 0.837988
Si Si5 0.452083 0.036377 0.674475
Si Si6 0.282270 0.039450 0.064082
Si Si7 0.400036 0.956362 0.435031
Si Si8 0.435225 0.453005 0.806154
O O1 0.805695 0.750000 0.902370
O O2 0.806270 0.475344 0.835612
O O3 0.764781 0.471907 0.929667
O O4 0.851286 0.493855 0.929771
O O5 0.464764 0.594634 0.834593
O O6 0.293554 0.750000 0.726259
O O7 0.250000 0.478012 0.750000
O O8 0.327172 0.483647 0.776285
O O9 0.347660 0.750000 0.840352
O O10 0.313977 0.024493 0.887268
O O11 0.391616 0.036311 0.838160
O O12 0.500000 0.976962 0.673276
O O13 0.452892 0.250000 0.671490
O O14 0.425687 0.967794 0.619626
O O15 0.433111 0.994170 0.737531
O O16 0.280071 0.250000 0.071860
O O17 0.297407 0.000000 0.000000
O O18 0.404746 0.750000 0.429476
O O19 0.414393 0.000000 0.500000
O O20 0.449853 0.250000 0.807375
#
# Coordination Sequence:
#
# PCOD9536445 Si02
#       8
#    16   4  16  16  16  16  16  16
#     4  10  19  34  55  80 109 152 195 240 294 351
#     4  12  22  40  64  98 126 156 198 232 298 372
#     4   9  15  28  53  83 114 150 192 241 296 353
#     4  10  19  34  56  86 120 154 199 248 298 357
#     4   9  19  38  60  80 112 147 184 241 307 360
#     4  10  21  35  54  78 114 155 201 245 286 340
#     4  11  23  38  53  75 107 148 200 251 299 351
#     4  11  22  39  63  93 128 158 190 243 302 364
#
# _framework density 20.352126999999999
#
# number of rings (size 3 to 8) (size 9 to 14) (size 15 to 20)
#    0.000    1.931    2.759    1.862    0.000    2.483 
#    2.483    0.000    0.000    0.828    0.000    0.483 
#    0.000    0.000    0.000    0.000    0.000    0.000 
#
# Total GULP energy -323264.160386 kJ/mol
# GULP energy per Si atom -5573.520007 kJ/mol
# Density = 2.030580 g / cm^3
# Si number density = 20.352127 Si / 1000 Ang^3
#
#
#
# Elastic Constant Matrix: (Units=GPa)
#
#
# Indices 1 2 3 4 5 6 
#
# 1 100.8675 9.4823 20.4298 0.0000 0.0000 0.0000
# 2 9.4823 65.9968 -4.1726 0.0000 0.0000 0.0000
# 3 20.4298 -4.1726 75.3215 0.0000 0.0000 0.0000
# 4 0.0000 0.0000 0.0000 8.5312 0.0000 0.0000
# 5 0.0000 0.0000 0.0000 0.0000 219.4545 0.0000
# 6 0.0000 0.0000 0.0000 0.0000 0.0000 5.4961
#
#
#
# Elastic Compliance Matrix: (Units=1/GPa)
#
#
# Indices 1 2 3 4 5 6 
#
# 1 0.010682 -0.001724 -0.002993 0.000000 0.000000 0.000000
# 2 -0.001724 0.015484 0.001325 0.000000 0.000000 0.000000
# 3 -0.002993 0.001325 0.014162 0.000000 0.000000 0.000000
# 4 0.000000 0.000000 0.000000 0.117216 0.000000 0.000000
# 5 0.000000 0.000000 0.000000 0.000000 0.004557 0.000000
# 6 0.000000 0.000000 0.000000 0.000000 0.000000 0.181946
#
#
# Mechanical properties :
#
#
# Convention : Reuss Voigt Hill
#
# Bulk Modulus (GPa) = 29.81116 32.62944 31.22030
# Shear Modulus (GPa) = 13.81173 61.12613 37.46893
#
# Velocity S-wave (km/s) = 2.60789 5.48630 4.29538
# Velocity P-wave (km/s) = 4.87315 7.49666 6.32248
#
# Compressibility (1/GPa) = 0.03354448
#
# Stress axis : x y z
#
# Youngs Moduli (GPa) = 93.61317 64.58382 70.61341
#
# Poissons Ratio (x) = 0.11134 0.21134
# Poissons Ratio (y) = 0.16139 -0.09359
# Poissons Ratio (z) = 0.28018 -0.08560
#
# Static dielectric constant tensor:
#      x y z
#    x 1.735160 0.000000 0.000000 
#    y 0.000000 1.755130 0.000000 
#    z 0.000000 0.000000 1.722070 
# 
# From -- ./inp_files/62776.got.cif
#   From: 2010.05.17/outbox.cif.g08.bks.cpg/sg74_32_cif.got.tgz:62776.got - 2010.06.03 17:57:02.
