data_PCOD9536622
_publ_section_title
;
Structure prediction by ZEFSAII (Michael W. Deem and Ramdas Pophale) SiO2 
 PCOD9536622
Probable space group: I M M A
;
_chemical_formula_sum "Si O2"
_cell_formula_units_Z 64
_cell_length_a 29.741697
_cell_length_b 5.588735
_cell_length_c 15.839457
_cell_angle_alpha 90.000000
_cell_angle_beta 90.000000
_cell_angle_gamma 90.000000
_cell_volume 2632.810197
_symmetry_space_group_name_H-M "I M M A"
_symmetry_group_IT_number 74
_symmetry_cell_setting 'orthorhombic'
loop_
_space_group_symop_operation_xyz
x,y,z
-x,1/2-y,z
x,-y,-z
-x,1/2+y,-z
-x,-y,-z
x,1/2+y,-z
-x,y,z
x,1/2-y,z
1/2+x,1/2+y,1/2+z
1/2-x,-y,1/2+z
1/2+x,1/2-y,1/2-z
1/2-x,y,1/2-z
1/2-x,1/2-y,1/2-z
1/2+x,y,1/2-z
1/2-x,1/2+y,1/2+z
1/2+x,-y,1/2+z
loop_
_atom_site_type_symbol
_atom_site_label
_atom_site_fract_x
_atom_site_fract_y
_atom_site_fract_z
Si Si1 0.310110 0.250000 0.875580
Si Si2 0.383929 0.250000 0.358278
Si Si3 0.789361 0.750000 0.050731
Si Si4 0.071616 0.750000 0.680047
Si Si5 0.803121 0.250000 0.272373
Si Si6 0.378785 0.250000 0.632938
Si Si7 0.547808 0.250000 0.776831
Si Si8 0.609670 0.250000 0.015261
O O1 0.261662 0.250000 0.919639
O O2 0.311696 0.496284 0.821371
O O3 0.347749 0.250000 0.951008
O O4 0.417165 0.250000 0.278878
O O5 0.335500 0.250000 0.310219
O O6 0.391144 0.495905 0.405858
O O7 0.824705 0.750000 0.127832
O O8 0.796713 0.500000 0.000000
O O9 0.048719 0.493611 0.670273
O O10 0.113799 0.750000 0.616745
O O11 0.750000 0.250000 0.250000
O O12 0.405862 0.250000 0.721880
O O13 0.500000 0.250000 0.727679
O O14 0.585732 0.500000 0.000000
#
# Coordination Sequence:
#
# PCOD9536622 Si02
#       8
#     8   8   8   8   8   8   8   8
#     4  12  24  38  56  84 118 162 211 249 293 350
#     4  10  19  35  56  83 114 149 190 246 304 351
#     4  12  24  40  58  81 118 163 204 241 287 355
#     4  10  21  36  60  90 120 152 194 244 297 359
#     4  12  23  37  57  83 117 153 201 262 310 343
#     4  10  21  38  60  87 117 150 194 244 305 365
#     4  10  21  40  68  95 118 147 191 254 319 377
#     4  12  23  38  58  85 122 164 209 248 287 350
#
# _framework density 24.308626
#
# number of rings (size 3 to 8) (size 9 to 14) (size 15 to 20)
#    0.000    1.000    0.000    8.250    0.000    2.000 
#    0.000    0.000    0.000    8.250    0.000    0.000 
#    0.000    0.000    0.000    0.000    0.000    0.000 
#
# Total GULP energy -178318.297300 kJ/mol
# GULP energy per Si atom -5572.446791 kJ/mol
# Density = 2.425330 g / cm^3
# Si number density = 24.308626 Si / 1000 Ang^3
#
#
#
# Elastic Constant Matrix: (Units=GPa)
#
#
# Indices 1 2 3 4 5 6 
#
# 1 80.4278 31.3606 55.7043 0.0000 0.0000 0.0000
# 2 31.3606 329.8910 53.9053 0.0000 0.0000 0.0000
# 3 55.7043 53.9053 110.4871 0.0000 0.0000 0.0000
# 4 0.0000 0.0000 0.0000 -4.9975 0.0000 0.0000
# 5 0.0000 0.0000 0.0000 0.0000 2.1202 0.0000
# 6 0.0000 0.0000 0.0000 0.0000 0.0000 25.5944
#
#
#
# Elastic Compliance Matrix: (Units=1/GPa)
#
#
# Indices 1 2 3 4 5 6 
#
# 1 0.019126 -0.000264 -0.009514 0.000000 0.000000 0.000000
# 2 -0.000264 0.003298 -0.001476 0.000000 0.000000 0.000000
# 3 -0.009514 -0.001476 0.014568 0.000000 0.000000 0.000000
# 4 0.000000 0.000000 0.000000 -0.200100 0.000000 0.000000
# 5 0.000000 0.000000 0.000000 0.000000 0.471652 0.000000
# 6 0.000000 0.000000 0.000000 0.000000 0.000000 0.039071
#
#
# Mechanical properties :
#
#
# Convention : Reuss Voigt Hill
#
# Bulk Modulus (GPa) = 69.04263 89.19402 79.11832
# Shear Modulus (GPa) = 13.33515 29.86580 21.60047
#
# Velocity S-wave (km/s) = 2.34471 3.50895 2.98416
# Velocity P-wave (km/s) = 5.98284 7.29308 6.67021
#
# Compressibility (1/GPa) = 0.01448381
#
# Stress axis : x y z
#
# Youngs Moduli (GPa) = 52.28566 303.25696 68.64531
#
# Poissons Ratio (x) = 0.07992 0.65309
# Poissons Ratio (y) = 0.01378 0.10132
# Poissons Ratio (z) = 0.49745 0.44760
#
# Static dielectric constant tensor:
#      x y z
#    x 1.935770 0.000000 0.000000 
#    y 0.000000 2.045600 0.000000 
#    z 0.000000 0.000000 1.976370 
# 
# From -- ./inp_files/46894.got.cif
#   From: 2010.05.17/outbox.cif.g08.bks.cpg/sg74_24_cif.got.tgz:46894.got - 2010.06.03 17:57:02.
