data_PCOD9536739
_publ_section_title
;
Structure prediction by ZEFSAII (Michael W. Deem and Ramdas Pophale) SiO2 
 PCOD9536739
Probable space group: I M M A
;
_chemical_formula_sum "Si O2"
_cell_formula_units_Z 60
_cell_length_a 11.268881
_cell_length_b 22.811921
_cell_length_c 9.955058
_cell_angle_alpha 90.000000
_cell_angle_beta 90.000000
_cell_angle_gamma 90.000000
_cell_volume 2559.095224
_symmetry_space_group_name_H-M "I M M A"
_symmetry_group_IT_number 74
_symmetry_cell_setting 'orthorhombic'
loop_
_space_group_symop_operation_xyz
x,y,z
-x,1/2-y,z
x,-y,-z
-x,1/2+y,-z
-x,-y,-z
x,1/2+y,-z
-x,y,z
x,1/2-y,z
1/2+x,1/2+y,1/2+z
1/2-x,-y,1/2+z
1/2+x,1/2-y,1/2-z
1/2-x,y,1/2-z
1/2-x,1/2-y,1/2-z
1/2+x,y,1/2-z
1/2-x,1/2+y,1/2+z
1/2+x,-y,1/2+z
loop_
_atom_site_type_symbol
_atom_site_label
_atom_site_fract_x
_atom_site_fract_y
_atom_site_fract_z
Si Si1 0.500000 0.058854 0.761825
Si Si2 0.500000 0.376633 0.043762
Si Si3 0.261414 0.122599 0.463013
Si Si4 0.000000 0.250000 0.352748
Si Si5 0.362386 0.250000 0.413021
Si Si6 0.250000 0.559334 0.250000
Si Si7 0.500000 0.430881 0.469810
O O1 0.625410 0.025617 0.761192
O O2 0.500000 0.094932 0.622749
O O3 0.500000 0.099019 0.892522
O O4 0.500000 0.306925 0.057103
O O5 0.631862 0.392346 0.097370
O O6 0.293624 0.191210 0.454119
O O7 0.254174 0.098884 0.616389
O O8 0.378348 0.090633 0.405735
O O9 0.110000 0.250000 0.247408
O O10 0.500000 0.250000 0.468230
O O11 0.500000 0.500000 0.500000
#
# Coordination Sequence:
#
# PCOD9536739 Si02
#       7
#     8   8  16   4   8   8   8
#     4   8  16  31  51  81 108 144 184 236 291 347
#     4  10  20  34  58  85 122 151 197 250 305 359
#     4  10  19  36  57  88 117 158 195 246 309 362
#     4  10  22  38  56  88 114 172 204 252 308 356
#     4  10  21  36  56  82 121 155 205 247 281 367
#     4   8  16  29  54  80 116 146 184 225 290 358
#     4  10  19  36  62  85 114 157 203 240 299 380
#
# _framework density 23.445785999999998
#
# number of rings (size 3 to 8) (size 9 to 14) (size 15 to 20)
#    0.400    2.133    1.333    0.800    0.000    2.667 
#    0.000    8.667    0.000   38.400    0.000    0.000 
#    0.000    0.000    0.000    0.000    0.000    0.000 
#
# Total GULP energy -167039.418002 kJ/mol
# GULP energy per Si atom -5567.980600 kJ/mol
# Density = 2.339242 g / cm^3
# Si number density = 23.445786 Si / 1000 Ang^3
#
#
#
# Elastic Constant Matrix: (Units=GPa)
#
#
# Indices 1 2 3 4 5 6 
#
# 1 330.1608 59.6297 18.2753 0.0000 0.0000 0.0000
# 2 59.6297 120.4727 36.1609 0.0000 -0.0001 0.0000
# 3 18.2753 36.1609 87.4628 0.0000 0.0001 -0.0005
# 4 0.0000 0.0000 0.0000 19.0060 0.0000 -0.0003
# 5 0.0000 -0.0001 0.0001 0.0000 -10.5306 0.0002
# 6 0.0000 0.0000 -0.0005 -0.0003 0.0002 231.1284
#
#
#
# Elastic Compliance Matrix: (Units=1/GPa)
#
#
# Indices 1 2 3 4 5 6 
#
# 1 0.003326 -0.001641 -0.000016 0.000000 0.000000 0.000000
# 2 -0.001641 0.010287 -0.003910 0.000000 0.000000 0.000000
# 3 -0.000016 -0.003910 0.013053 0.000000 0.000000 0.000000
# 4 0.000000 0.000000 0.000000 0.052615 0.000000 0.000000
# 5 0.000000 0.000000 0.000000 0.000000 -0.094961 0.000000
# 6 0.000000 0.000000 0.000000 0.000000 0.000000 0.004327
#
#
# Mechanical properties :
#
#
# Convention : Reuss Voigt Hill
#
# Bulk Modulus (GPa) = 64.38849 85.13645 74.76247
# Shear Modulus (GPa) = 1008.17242 76.18943 542.18093
#
# Velocity S-wave (km/s) = 20.75898 5.70671 15.22336
# Velocity P-wave (km/s) = 24.53777 8.93381 18.46504
#
# Compressibility (1/GPa) = 0.01553073
#
# Stress axis : x y z
#
# Youngs Moduli (GPa) = 300.64433 97.21288 76.60837
#
# Poissons Ratio (x) = 0.15957 0.00125
# Poissons Ratio (y) = 0.49349 0.29954
# Poissons Ratio (z) = 0.00492 0.38010
#
# Static dielectric constant tensor:
#      x y z
#    x 2.062150 0.000000 0.000000 
#    y 0.000000 1.784900 0.000000 
#    z 0.000000 0.000000 1.882300 
# 
# From -- ./inp_files/18697.got.cif
#   From: 2010.05.17/outbox.cif.g08.bks.cpg/sg74_10_cif.got.tgz:18697.got - 2010.06.03 17:57:02.
