data_PCOD9536534
_publ_section_title
;
Structure prediction by ZEFSAII (Michael W. Deem and Ramdas Pophale) SiO2 
 PCOD9536534
Probable space group: I M M A
;
_chemical_formula_sum "Si O2"
_cell_formula_units_Z 80
_cell_length_a 11.310237
_cell_length_b 21.814121
_cell_length_c 14.564995
_cell_angle_alpha 90.000000
_cell_angle_beta 90.000000
_cell_angle_gamma 90.000000
_cell_volume 3593.517491
_symmetry_space_group_name_H-M "I M M A"
_symmetry_group_IT_number 74
_symmetry_cell_setting 'orthorhombic'
loop_
_space_group_symop_operation_xyz
x,y,z
-x,1/2-y,z
x,-y,-z
-x,1/2+y,-z
-x,-y,-z
x,1/2+y,-z
-x,y,z
x,1/2-y,z
1/2+x,1/2+y,1/2+z
1/2-x,-y,1/2+z
1/2+x,1/2-y,1/2-z
1/2-x,y,1/2-z
1/2-x,1/2-y,1/2-z
1/2+x,y,1/2-z
1/2-x,1/2+y,1/2+z
1/2+x,-y,1/2+z
loop_
_atom_site_type_symbol
_atom_site_label
_atom_site_fract_x
_atom_site_fract_y
_atom_site_fract_z
Si Si1 0.866895 0.063673 0.031006
Si Si2 0.714054 0.318162 0.993989
Si Si3 0.372319 0.676975 0.207463
Si Si4 0.625974 0.025043 0.259277
Si Si5 0.868951 0.341507 0.306575
O O1 0.876005 0.056237 0.140332
O O2 0.000000 0.064200 0.991697
O O3 0.804312 0.125754 0.002950
O O4 0.807120 0.000000 0.000000
O O5 0.768900 0.250000 0.984745
O O6 0.638539 0.328576 0.902538
O O7 0.643520 0.319256 0.089570
O O8 0.500000 0.652435 0.239080
O O9 0.373703 0.750000 0.228132
O O10 0.250000 0.652680 0.250000
O O11 0.500000 0.993150 0.245367
O O12 0.750000 0.990397 0.250000
O O13 0.631714 0.084202 0.193055
O O14 0.750000 0.323068 0.250000
O O15 0.000000 0.323801 0.269309
#
# Coordination Sequence:
#
# PCOD9536534 Si02
#       5
#    16  16  16  16  16
#     4  10  21  39  60  85 123 171 216 260 313 369
#     4  11  22  37  61  94 128 165 209 262 323 385
#     4   9  19  37  61  88 120 161 209 263 324 382
#     4   9  16  32  57  84 118 164 208 250 297 361
#     4  10  19  34  57  90 133 175 213 256 309 374
#
# _framework density 22.262308999999998
#
# number of rings (size 3 to 8) (size 9 to 14) (size 15 to 20)
#    0.000    2.200    4.000    0.600    0.000    2.800 
#    0.000    3.000    0.000    7.800    0.000    0.000 
#    0.000    0.000    0.000    0.000    0.000    0.000 
#
# Total GULP energy -222919.864638 kJ/mol
# GULP energy per Si atom -5572.996616 kJ/mol
# Density = 2.221164 g / cm^3
# Si number density = 22.262309 Si / 1000 Ang^3
#
#
#
# Elastic Constant Matrix: (Units=GPa)
#
#
# Indices 1 2 3 4 5 6 
#
# 1 235.4055 39.5931 36.4598 0.0000 0.0000 0.0000
# 2 39.5931 123.8642 5.6609 0.0000 0.0000 0.0001
# 3 36.4598 5.6609 67.9926 0.0001 -0.0001 0.0000
# 4 0.0000 0.0000 0.0001 -3.6038 -0.0001 0.0000
# 5 0.0000 0.0000 -0.0001 -0.0001 6.7221 0.0001
# 6 0.0000 0.0001 0.0000 0.0000 0.0001 -46.6834
#
#
#
# Elastic Compliance Matrix: (Units=1/GPa)
#
#
# Indices 1 2 3 4 5 6 
#
# 1 0.004877 -0.001445 -0.002495 0.000000 0.000000 0.000000
# 2 -0.001445 0.008532 0.000064 0.000000 0.000000 0.000000
# 3 -0.002495 0.000064 0.016040 0.000000 0.000000 0.000000
# 4 0.000000 0.000000 0.000000 -0.277485 -0.000002 0.000000
# 5 0.000000 0.000000 0.000000 -0.000002 0.148763 0.000000
# 6 0.000000 0.000000 0.000000 0.000000 0.000000 -0.021421
#
#
# Mechanical properties :
#
#
# Convention : Reuss Voigt Hill
#
# Bulk Modulus (GPa) = 46.08615 65.63222 55.85918
# Shear Modulus (GPa) = -47.29994 14.32354 -16.48820
#
# Velocity S-wave (km/s) = -4.61441 2.53928 -2.72441
# Velocity P-wave (km/s) = 2.76478 6.17597 3.90503
#
# Compressibility (1/GPa) = 0.02169849
#
# Stress axis : x y z
#
# Youngs Moduli (GPa) = 205.02369 117.20139 62.34379
#
# Poissons Ratio (x) = 0.16936 0.15556
# Poissons Ratio (y) = 0.29627 -0.00402
# Poissons Ratio (z) = 0.51156 -0.00756
#
# Static dielectric constant tensor:
#      x y z
#    x 1.918110 0.000000 0.000000 
#    y 0.000000 1.817930 0.000000 
#    z 0.000000 0.000000 1.837400 
# 
# From -- ./inp_files/30681.got.cif
#   From: 2010.05.17/outbox.cif.g08.bks.cpg/sg74_16_cif.got.tgz:30681.got - 2010.06.03 17:57:02.
