data_PCOD9536720
_publ_section_title
;
Structure prediction by ZEFSAII (Michael W. Deem and Ramdas Pophale) SiO2 
 PCOD9536720
Probable space group: I M M A
;
_chemical_formula_sum "Si O2"
_cell_formula_units_Z 64
_cell_length_a 22.621942
_cell_length_b 17.406182
_cell_length_c 7.412310
_cell_angle_alpha 90.000000
_cell_angle_beta 90.000000
_cell_angle_gamma 90.000000
_cell_volume 2918.683339
_symmetry_space_group_name_H-M "I M M A"
_symmetry_group_IT_number 74
_symmetry_cell_setting 'orthorhombic'
loop_
_space_group_symop_operation_xyz
x,y,z
-x,1/2-y,z
x,-y,-z
-x,1/2+y,-z
-x,-y,-z
x,1/2+y,-z
-x,y,z
x,1/2-y,z
1/2+x,1/2+y,1/2+z
1/2-x,-y,1/2+z
1/2+x,1/2-y,1/2-z
1/2-x,y,1/2-z
1/2-x,1/2-y,1/2-z
1/2+x,y,1/2-z
1/2-x,1/2+y,1/2+z
1/2+x,-y,1/2+z
loop_
_atom_site_type_symbol
_atom_site_label
_atom_site_fract_x
_atom_site_fract_y
_atom_site_fract_z
Si Si1 0.066879 0.053358 0.734187
Si Si2 0.628904 0.663409 0.504749
Si Si3 0.380384 0.896851 0.895548
Si Si4 0.750898 0.089835 0.463868
O O1 0.071321 0.105096 0.552783
O O2 0.000000 0.025197 0.756200
O O3 0.110234 0.981421 0.694953
O O4 0.087866 0.102535 0.903145
O O5 0.617481 0.750000 0.445556
O O6 0.619334 0.657092 0.721342
O O7 0.696778 0.639123 0.462442
O O8 0.318577 0.889864 0.004662
O O9 0.750000 0.100623 0.250000
O O10 0.740510 0.000000 0.500000
#
# Coordination Sequence:
#
# PCOD9536720 Si02
#       4
#    16  16  16  16
#     4  11  23  42  67  95 120 160 221 268 305 368
#     4  11  25  40  58  93 134 170 203 249 317 387
#     4  10  21  40  68  92 120 158 209 271 318 362
#     4  10  19  35  64  90 122 157 207 259 322 372
#
# _framework density 21.927695
#
# number of rings (size 3 to 8) (size 9 to 14) (size 15 to 20)
#    0.000    1.500    2.500    5.250    0.000    9.000 
#    0.000    1.250    0.000    0.000    0.000    0.000 
#    0.000    0.000    0.000    0.000    0.000    0.000 
#
# Total GULP energy -178631.229177 kJ/mol
# GULP energy per Si atom -5582.225912 kJ/mol
# Density = 2.187779 g / cm^3
# Si number density = 21.927695 Si / 1000 Ang^3
#
#
#
# Elastic Constant Matrix: (Units=GPa)
#
#
# Indices 1 2 3 4 5 6 
#
# 1 67.4866 -4.4736 5.7490 0.0000 0.0000 0.0000
# 2 -4.4736 40.2177 7.0839 0.0000 0.0000 0.0000
# 3 5.7490 7.0839 69.2193 0.0000 0.0000 0.0000
# 4 0.0000 0.0000 0.0000 19.9070 0.0000 0.0000
# 5 0.0000 0.0000 0.0000 0.0000 12.4021 0.0000
# 6 0.0000 0.0000 0.0000 0.0000 0.0000 44.7442
#
#
#
# Elastic Compliance Matrix: (Units=1/GPa)
#
#
# Indices 1 2 3 4 5 6 
#
# 1 0.015069 0.001931 -0.001449 0.000000 0.000000 0.000000
# 2 0.001931 0.025569 -0.002777 0.000000 0.000000 0.000000
# 3 -0.001449 -0.002777 0.014851 0.000000 0.000000 0.000000
# 4 0.000000 0.000000 0.000000 0.050234 0.000000 0.000000
# 5 0.000000 0.000000 0.000000 0.000000 0.080631 0.000000
# 6 0.000000 0.000000 0.000000 0.000000 0.000000 0.022349
#
#
# Mechanical properties :
#
#
# Convention : Reuss Voigt Hill
#
# Bulk Modulus (GPa) = 19.64651 21.51579 20.58115
# Shear Modulus (GPa) = 21.71458 26.64827 24.18143
#
# Velocity S-wave (km/s) = 3.15029 3.48987 3.32442
# Velocity P-wave (km/s) = 4.71291 5.10611 4.91345
#
# Compressibility (1/GPa) = 0.05089962
#
# Stress axis : x y z
#
# Youngs Moduli (GPa) = 66.36028 39.11030 67.33362
#
# Poissons Ratio (x) = -0.07554 0.09758
# Poissons Ratio (y) = -0.12817 0.18699
# Poissons Ratio (z) = 0.09617 0.10861
#
# Static dielectric constant tensor:
#      x y z
#    x 1.872050 0.000000 0.000000 
#    y 0.000000 1.766180 0.000000 
#    z 0.000000 0.000000 1.973970 
# 
# From -- ./inp_files/10573.got.cif
#   From: 2010.05.17/outbox.cif.g08.bks.cpg/sg74_6_cif.got.tgz:10573.got - 2010.06.03 17:57:02.
