data_PCOD9536525
_publ_section_title
;
Structure prediction by ZEFSAII (Michael W. Deem and Ramdas Pophale) SiO2 
 PCOD9536525
Probable space group: I M M A
;
_chemical_formula_sum "Si O2"
_cell_formula_units_Z 80
_cell_length_a 16.062295
_cell_length_b 8.344588
_cell_length_c 29.983009
_cell_angle_alpha 90.000000
_cell_angle_beta 90.000000
_cell_angle_gamma 90.000000
_cell_volume 4018.719665
_symmetry_space_group_name_H-M "I M M A"
_symmetry_group_IT_number 74
_symmetry_cell_setting 'orthorhombic'
loop_
_space_group_symop_operation_xyz
x,y,z
-x,1/2-y,z
x,-y,-z
-x,1/2+y,-z
-x,-y,-z
x,1/2+y,-z
-x,y,z
x,1/2-y,z
1/2+x,1/2+y,1/2+z
1/2-x,-y,1/2+z
1/2+x,1/2-y,1/2-z
1/2-x,y,1/2-z
1/2-x,1/2-y,1/2-z
1/2+x,y,1/2-z
1/2-x,1/2+y,1/2+z
1/2+x,-y,1/2+z
loop_
_atom_site_type_symbol
_atom_site_label
_atom_site_fract_x
_atom_site_fract_y
_atom_site_fract_z
Si Si1 0.408046 0.558714 0.857235
Si Si2 0.749369 0.443470 0.800973
Si Si3 0.654224 0.942446 0.452494
Si Si4 0.848850 0.057942 0.548119
Si Si5 0.408422 0.054045 0.642819
O O1 0.500000 0.501921 0.842974
O O2 0.405592 0.750000 0.854010
O O3 0.333337 0.490320 0.827670
O O4 0.394141 0.510633 0.908741
O O5 0.752742 0.250000 0.800374
O O6 0.750000 0.500777 0.750000
O O7 0.831420 0.500898 0.827217
O O8 0.653153 0.750000 0.452705
O O9 0.751326 0.992716 0.448905
O O10 0.606956 0.996978 0.408288
O O11 0.620966 0.000000 0.500000
O O12 0.852246 0.250000 0.549787
O O13 0.880621 0.000000 0.500000
O O14 0.500000 0.003563 0.658183
O O15 0.406927 0.250000 0.643073
#
# Coordination Sequence:
#
# PCOD9536525 Si02
#       5
#    16  16  16  16  16
#     4  11  24  40  59  85 118 157 198 240 291 348
#     4  10  21  39  63  88 113 146 191 242 296 350
#     4   9  17  30  50  77 109 146 183 223 271 328
#     4  10  19  34  57  85 117 154 196 240 288 345
#     4   9  17  32  54  81 113 146 181 226 282 341
#
# _framework density 19.906838
#
# number of rings (size 3 to 8) (size 9 to 14) (size 15 to 20)
#    0.000    2.200    2.000    1.200    0.000    4.400 
#    0.000    2.000    0.000    1.800    0.000    0.000 
#    0.000    0.000    0.000    0.000    0.000    0.000 
#
# Total GULP energy -223328.117349 kJ/mol
# GULP energy per Si atom -5583.202934 kJ/mol
# Density = 1.986153 g / cm^3
# Si number density = 19.906838 Si / 1000 Ang^3
#
#
#
# Elastic Constant Matrix: (Units=GPa)
#
#
# Indices 1 2 3 4 5 6 
#
# 1 159.0355 11.8170 91.3791 0.0000 0.0000 0.0000
# 2 11.8170 3.0701 10.0581 0.0000 0.0000 0.0000
# 3 91.3791 10.0581 156.6465 0.0000 0.0000 0.0000
# 4 0.0000 0.0000 0.0000 25.8125 0.0000 0.0000
# 5 0.0000 0.0000 0.0000 0.0000 -4.0761 0.0000
# 6 0.0000 0.0000 0.0000 0.0000 0.0000 3.7690
#
#
#
# Elastic Compliance Matrix: (Units=1/GPa)
#
#
# Indices 1 2 3 4 5 6 
#
# 1 0.010974 -0.026932 -0.004672 0.000000 0.000000 0.000000
# 2 -0.026932 0.478598 -0.015019 0.000000 0.000000 0.000000
# 3 -0.004672 -0.015019 0.010074 0.000000 0.000000 0.000000
# 4 0.000000 0.000000 0.000000 0.038741 0.000000 0.000000
# 5 0.000000 0.000000 0.000000 0.000000 -0.245330 0.000000
# 6 0.000000 0.000000 0.000000 0.000000 0.000000 0.265321
#
#
# Mechanical properties :
#
#
# Convention : Reuss Voigt Hill
#
# Bulk Modulus (GPa) = 2.46064 60.58450 31.52257
# Shear Modulus (GPa) = 6.35251 18.80093 12.57672
#
# Velocity S-wave (km/s) = 1.78831 3.07652 2.51625
# Velocity P-wave (km/s) = 2.34581 6.56658 4.93066
#
# Compressibility (1/GPa) = 0.40639804
#
# Stress axis : x y z
#
# Youngs Moduli (GPa) = 91.12783 2.08944 99.26887
#
# Poissons Ratio (x) = 0.05627 0.46380
# Poissons Ratio (y) = 2.45425 1.49096
# Poissons Ratio (z) = 0.42576 0.03138
#
# Static dielectric constant tensor:
#      x y z
#    x 1.719910 0.000000 0.000000 
#    y 0.000000 1.692310 0.000000 
#    z 0.000000 0.000000 1.681250 
# 
# From -- ./inp_files/67525.got.cif
#   From: 2010.05.17/outbox.cif.g08.bks.cpg/sg74_34_cif.got.tgz:67525.got - 2010.06.03 17:57:02.
