data_PCOD9536121
_publ_section_title
;
Structure prediction by ZEFSAII (Michael W. Deem and Ramdas Pophale) SiO2 
 PCOD9536121
Probable space group: I M M A
;
_chemical_formula_sum "Si O2"
_cell_formula_units_Z 88
_cell_length_a 31.807636
_cell_length_b 28.828614
_cell_length_c 5.111617
_cell_angle_alpha 90.000000
_cell_angle_beta 90.000000
_cell_angle_gamma 90.000000
_cell_volume 4687.199750
_symmetry_space_group_name_H-M "I M M A"
_symmetry_group_IT_number 74
_symmetry_cell_setting 'orthorhombic'
loop_
_space_group_symop_operation_xyz
x,y,z
-x,1/2-y,z
x,-y,-z
-x,1/2+y,-z
-x,-y,-z
x,1/2+y,-z
-x,y,z
x,1/2-y,z
1/2+x,1/2+y,1/2+z
1/2-x,-y,1/2+z
1/2+x,1/2-y,1/2-z
1/2-x,y,1/2-z
1/2-x,1/2-y,1/2-z
1/2+x,y,1/2-z
1/2-x,1/2+y,1/2+z
1/2+x,-y,1/2+z
loop_
_atom_site_type_symbol
_atom_site_label
_atom_site_fract_x
_atom_site_fract_y
_atom_site_fract_z
Si Si1 0.938309 0.697427 0.118750
Si Si2 0.703506 0.033213 0.246734
Si Si3 0.220730 0.750000 0.004440
Si Si4 0.045851 0.135613 0.390416
Si Si5 0.345879 0.830674 0.441765
Si Si6 0.638980 0.889997 0.943490
O O1 0.952323 0.750000 0.073663
O O2 0.953684 0.675211 0.387739
O O3 0.887826 0.696663 0.137274
O O4 0.949959 0.662274 0.885490
O O5 0.750000 0.057282 0.250000
O O6 0.665428 0.067534 0.176287
O O7 0.697026 0.000000 0.500000
O O8 0.706910 0.000000 0.000000
O O9 0.250000 0.750000 0.750000
O O10 0.250000 0.750000 0.250000
O O11 0.192360 0.795762 0.033382
O O12 0.087940 0.105187 0.446079
O O13 0.000000 0.111813 0.399488
O O14 0.353363 0.850067 0.731050
O O15 0.343934 0.872071 0.225146
#
# Coordination Sequence:
#
# PCOD9536121 Si02
#       6
#    16  16   8  16  16  16
#     4  10  19  33  52  70 103 147 186 235 277 312
#     4  10  21  38  61  88 111 133 172 229 284 341
#     4  12  24  36  52  76 109 150 195 244 278 310
#     4  10  21  33  50  79 108 141 185 227 274 329
#     4  10  21  37  52  76 108 149 193 225 268 332
#     4  10  21  37  60  79 109 150 178 223 287 337
#
# _framework density 18.774533999999999
#
# number of rings (size 3 to 8) (size 9 to 14) (size 15 to 20)
#    0.000    1.818    0.909    3.273    0.000    4.364 
#    0.000    0.000    0.000    1.091    0.000    0.000 
#    0.000    0.000    0.000    0.000    0.000    0.000 
#
# Total GULP energy -245229.806188 kJ/mol
# GULP energy per Si atom -5573.404686 kJ/mol
# Density = 1.873180 g / cm^3
# Si number density = 18.774534 Si / 1000 Ang^3
#
#
#
# Elastic Constant Matrix: (Units=GPa)
#
#
# Indices 1 2 3 4 5 6 
#
# 1 170.2801 39.7386 17.3238 0.0000 0.0000 0.0000
# 2 39.7386 29.7860 -8.9521 0.0000 0.0000 0.0000
# 3 17.3238 -8.9521 100.1512 0.0000 0.0000 0.0000
# 4 0.0000 0.0000 0.0000 17.6657 0.0000 0.0000
# 5 0.0000 0.0000 0.0000 0.0000 415.4557 0.0000
# 6 0.0000 0.0000 0.0000 0.0000 0.0000 17.5851
#
#
#
# Elastic Compliance Matrix: (Units=1/GPa)
#
#
# Indices 1 2 3 4 5 6 
#
# 1 0.009219 -0.013131 -0.002768 0.000000 0.000000 0.000000
# 2 -0.013131 0.053204 0.007027 0.000000 0.000000 0.000000
# 3 -0.002768 0.007027 0.011092 0.000000 0.000000 0.000000
# 4 0.000000 0.000000 0.000000 0.056607 0.000000 0.000000
# 5 0.000000 0.000000 0.000000 0.000000 0.002407 0.000000
# 6 0.000000 0.000000 0.000000 0.000000 0.000000 0.056866
#
#
# Mechanical properties :
#
#
# Convention : Reuss Voigt Hill
#
# Bulk Modulus (GPa) = 17.93103 44.04863 30.98983
# Shear Modulus (GPa) = 22.15045 106.94844 64.54944
#
# Velocity S-wave (km/s) = 3.43857 7.55568 5.86993
# Velocity P-wave (km/s) = 5.03353 9.98151 7.90465
#
# Compressibility (1/GPa) = 0.05576925
#
# Stress axis : x y z
#
# Youngs Moduli (GPa) = 108.47448 18.79575 90.15599
#
# Poissons Ratio (x) = 0.24681 0.24958
# Poissons Ratio (y) = 1.42439 -0.63353
# Poissons Ratio (z) = 0.30030 -0.13208
#
# Static dielectric constant tensor:
#      x y z
#    x 1.719480 0.000000 0.000000 
#    y 0.000000 1.613490 0.000000 
#    z 0.000000 0.000000 1.629050 
# 
# From -- ./inp_files/5147.got.cif
#   From: 2010.05.17/outbox.cif.g08.bks.cpg/sg74_3_cif.got.tgz:5147.got - 2010.06.03 17:57:02.
