data_PCOD9536426
_publ_section_title
;
Structure prediction by ZEFSAII (Michael W. Deem and Ramdas Pophale) SiO2 
 PCOD9536426
Probable space group: I M M A
;
_chemical_formula_sum "Si O2"
_cell_formula_units_Z 56
_cell_length_a 8.838388
_cell_length_b 13.774555
_cell_length_c 23.799531
_cell_angle_alpha 90.000000
_cell_angle_beta 90.000000
_cell_angle_gamma 90.000000
_cell_volume 2897.470608
_symmetry_space_group_name_H-M "I M M A"
_symmetry_group_IT_number 74
_symmetry_cell_setting 'orthorhombic'
loop_
_space_group_symop_operation_xyz
x,y,z
-x,1/2-y,z
x,-y,-z
-x,1/2+y,-z
-x,-y,-z
x,1/2+y,-z
-x,y,z
x,1/2-y,z
1/2+x,1/2+y,1/2+z
1/2-x,-y,1/2+z
1/2+x,1/2-y,1/2-z
1/2-x,y,1/2-z
1/2-x,1/2-y,1/2-z
1/2+x,y,1/2-z
1/2-x,1/2+y,1/2+z
1/2+x,-y,1/2+z
loop_
_atom_site_type_symbol
_atom_site_label
_atom_site_fract_x
_atom_site_fract_y
_atom_site_fract_z
Si Si1 0.320215 0.357494 0.383029
Si Si2 0.675267 0.861169 0.004638
Si Si3 0.181966 0.555910 0.377747
Si Si4 0.183415 0.750000 0.312007
O O1 0.500000 0.362052 0.377289
O O2 0.268366 0.250000 0.363125
O O3 0.274088 0.362447 0.448830
O O4 0.246927 0.453676 0.356880
O O5 0.500000 0.883765 0.989418
O O6 0.675188 0.750000 0.026163
O O7 0.724261 0.926759 0.056732
O O8 0.231304 0.651181 0.343670
O O9 0.000000 0.552367 0.376241
O O10 0.250000 0.750000 0.250000
O O11 0.000000 0.750000 0.310758
#
# Coordination Sequence:
#
# PCOD9536426 Si02
#       4
#    16  16  16   8
#     4  10  21  33  46  73 112 146 176 213 257 309
#     4   9  16  29  49  73 103 141 180 215 254 305
#     4  10  19  34  55  76 102 137 178 220 260 311
#     4  10  22  40  60  84 108 132 172 226 277 322
#
# _framework density 19.327200999999999
#
# number of rings (size 3 to 8) (size 9 to 14) (size 15 to 20)
#    0.000    2.286    1.429    1.714    0.000    7.429 
#    0.000    0.000    0.000    0.857    0.000    0.000 
#    0.000    0.000    0.000    0.000    0.000    0.000 
#
# Total GULP energy -156185.246550 kJ/mol
# GULP energy per Si atom -5578.044520 kJ/mol
# Density = 1.928321 g / cm^3
# Si number density = 19.327201 Si / 1000 Ang^3
#
#
#
# Elastic Constant Matrix: (Units=GPa)
#
#
# Indices 1 2 3 4 5 6 
#
# 1 11.5223 28.4972 6.5206 0.0000 0.0000 0.0000
# 2 28.4972 203.6485 27.7614 0.0000 0.0000 0.0000
# 3 6.5206 27.7614 35.0788 0.0000 0.0000 0.0000
# 4 0.0000 0.0000 0.0000 11.2976 0.0000 0.0000
# 5 0.0000 0.0000 0.0000 0.0000 19.5547 0.0000
# 6 0.0000 0.0000 0.0000 0.0000 0.0000 26.2894
#
#
#
# Elastic Compliance Matrix: (Units=1/GPa)
#
#
# Indices 1 2 3 4 5 6 
#
# 1 0.136751 -0.017566 -0.011518 0.000000 0.000000 0.000000
# 2 -0.017566 0.007761 -0.002877 0.000000 0.000000 0.000000
# 3 -0.011518 -0.002877 0.032925 0.000000 0.000000 0.000000
# 4 0.000000 0.000000 0.000000 0.088514 0.000000 0.000000
# 5 0.000000 0.000000 0.000000 0.000000 0.051138 0.000000
# 6 0.000000 0.000000 0.000000 0.000000 0.000000 0.038038
#
#
# Mechanical properties :
#
#
# Convention : Reuss Voigt Hill
#
# Bulk Modulus (GPa) = 8.80943 41.75645 25.28294
# Shear Modulus (GPa) = 10.94364 23.92638 17.43501
#
# Velocity S-wave (km/s) = 2.38214 3.52229 3.00675
# Velocity P-wave (km/s) = 3.48340 6.18012 5.01637
#
# Compressibility (1/GPa) = 0.11351478
#
# Stress axis : x y z
#
# Youngs Moduli (GPa) = 7.31258 128.85628 30.37220
#
# Poissons Ratio (x) = 2.26346 0.34984
# Poissons Ratio (y) = 0.12845 0.08737
# Poissons Ratio (z) = 0.08423 0.37066
#
# Static dielectric constant tensor:
#      x y z
#    x 1.648310 0.000000 0.000000 
#    y 0.000000 1.778970 0.000000 
#    z 0.000000 0.000000 1.640290 
# 
# From -- ./inp_files/47823.got.cif
#   From: 2010.05.17/outbox.cif.g08.bks.cpg/sg74_24_cif.got.tgz:47823.got - 2010.06.03 17:57:02.
