data_PCOD9536293
_publ_section_title
;
Structure prediction by ZEFSAII (Michael W. Deem and Ramdas Pophale) SiO2 
 PCOD9536293
Probable space group: I M M A
;
_chemical_formula_sum "Si O2"
_cell_formula_units_Z 96
_cell_length_a 19.023085
_cell_length_b 14.895383
_cell_length_c 20.062799
_cell_angle_alpha 90.000000
_cell_angle_beta 90.000000
_cell_angle_gamma 90.000000
_cell_volume 5684.917220
_symmetry_space_group_name_H-M "I M M A"
_symmetry_group_IT_number 74
_symmetry_cell_setting 'orthorhombic'
loop_
_space_group_symop_operation_xyz
x,y,z
-x,1/2-y,z
x,-y,-z
-x,1/2+y,-z
-x,-y,-z
x,1/2+y,-z
-x,y,z
x,1/2-y,z
1/2+x,1/2+y,1/2+z
1/2-x,-y,1/2+z
1/2+x,1/2-y,1/2-z
1/2-x,y,1/2-z
1/2-x,1/2-y,1/2-z
1/2+x,y,1/2-z
1/2-x,1/2+y,1/2+z
1/2+x,-y,1/2+z
loop_
_atom_site_type_symbol
_atom_site_label
_atom_site_fract_x
_atom_site_fract_y
_atom_site_fract_z
Si Si1 0.712012 0.855427 0.413495
Si Si2 0.176921 0.490555 0.424333
Si Si3 0.306390 0.356717 0.436740
Si Si4 0.331507 0.355087 0.730204
Si Si5 0.082187 0.856977 0.823388
Si Si6 0.416349 0.488845 0.202335
O O1 0.731375 0.750000 0.410958
O O2 0.676754 0.873533 0.485182
O O3 0.664486 0.872760 0.349089
O O4 0.780464 0.917767 0.409110
O O5 0.149725 0.500000 0.500000
O O6 0.236462 0.413418 0.422745
O O7 0.119341 0.471770 0.368784
O O8 0.293665 0.250000 0.429828
O O9 0.367353 0.381750 0.384940
O O10 0.345131 0.250000 0.742954
O O11 0.250000 0.372574 0.750000
O O12 0.382965 0.419775 0.769338
O O13 0.089573 0.750000 0.811922
O O14 0.100840 0.912247 0.757063
O O15 0.000000 0.874519 0.838810
O O16 0.500000 0.494542 0.196608
#
# Coordination Sequence:
#
# PCOD9536293 Si02
#       6
#    16  16  16  16  16  16
#     4   9  17  31  52  79 105 131 170 211 254 301
#     4  10  20  34  53  74 100 135 171 219 260 306
#     4   9  18  32  53  80 105 132 173 215 250 305
#     4  10  19  33  56  79 101 136 173 209 255 306
#     4   9  19  35  53  76 108 142 172 209 261 311
#     4  11  23  36  52  76 105 138 174 217 261 307
#
# _framework density 16.886790000000001
#
# number of rings (size 3 to 8) (size 9 to 14) (size 15 to 20)
#    0.000    2.333    1.667    1.000    0.000    1.333 
#    0.000    2.500    0.000    9.500    0.000    7.000 
#    0.000    0.000    0.000    0.000    0.000    0.000 
#
# Total GULP energy -267636.820759 kJ/mol
# GULP energy per Si atom -5575.767099 kJ/mol
# Density = 1.684835 g / cm^3
# Si number density = 16.886790 Si / 1000 Ang^3
#
#
#
# Elastic Constant Matrix: (Units=GPa)
#
#
# Indices 1 2 3 4 5 6 
#
# 1 69.3240 33.3581 78.5302 0.0000 0.0000 0.0000
# 2 33.3581 43.4872 49.1269 0.0000 0.0000 0.0000
# 3 78.5302 49.1269 158.2049 0.0000 0.0000 0.0000
# 4 0.0000 0.0000 0.0000 26.1219 0.0000 0.0000
# 5 0.0000 0.0000 0.0000 0.0000 23.6199 0.0000
# 6 0.0000 0.0000 0.0000 0.0000 0.0000 20.0306
#
#
#
# Elastic Compliance Matrix: (Units=1/GPa)
#
#
# Indices 1 2 3 4 5 6 
#
# 1 0.036375 -0.011560 -0.014466 0.000000 0.000000 0.000000
# 2 -0.011560 0.039095 -0.006402 0.000000 0.000000 0.000000
# 3 -0.014466 -0.006402 0.015490 0.000000 0.000000 0.000000
# 4 0.000000 0.000000 0.000000 0.038282 0.000000 0.000000
# 5 0.000000 0.000000 0.000000 0.000000 0.042337 0.000000
# 6 0.000000 0.000000 0.000000 0.000000 0.000000 0.049924
#
#
# Mechanical properties :
#
#
# Convention : Reuss Voigt Hill
#
# Bulk Modulus (GPa) = 38.30955 65.89408 52.10181
# Shear Modulus (GPa) = 16.94572 21.28785 19.11679
#
# Velocity S-wave (km/s) = 3.17123 3.55437 3.36825
# Velocity P-wave (km/s) = 6.01201 7.48001 6.78582
#
# Compressibility (1/GPa) = 0.02610315
#
# Stress axis : x y z
#
# Youngs Moduli (GPa) = 27.49143 25.57882 64.55966
#
# Poissons Ratio (x) = 0.29570 0.93393
# Poissons Ratio (y) = 0.31781 0.41329
# Poissons Ratio (z) = 0.39769 0.16375
#
# Static dielectric constant tensor:
#      x y z
#    x 1.525970 0.000000 0.000000 
#    y 0.000000 1.579190 0.000000 
#    z 0.000000 0.000000 1.596740 
# 
# From -- ./inp_files/51871.got.cif
#   From: 2010.05.17/outbox.cif.g08.bks.cpg/sg74_26_cif.got.tgz:51871.got - 2010.06.03 17:57:02.
