data_PCOD9536466
_publ_section_title
;
Structure prediction by ZEFSAII (Michael W. Deem and Ramdas Pophale) SiO2 
 PCOD9536466
Probable space group: I M M A
;
_chemical_formula_sum "Si O2"
_cell_formula_units_Z 96
_cell_length_a 24.231710
_cell_length_b 8.505659
_cell_length_c 26.110742
_cell_angle_alpha 90.000000
_cell_angle_beta 90.000000
_cell_angle_gamma 90.000000
_cell_volume 5381.597882
_symmetry_space_group_name_H-M "I M M A"
_symmetry_group_IT_number 74
_symmetry_cell_setting 'orthorhombic'
loop_
_space_group_symop_operation_xyz
x,y,z
-x,1/2-y,z
x,-y,-z
-x,1/2+y,-z
-x,-y,-z
x,1/2+y,-z
-x,y,z
x,1/2-y,z
1/2+x,1/2+y,1/2+z
1/2-x,-y,1/2+z
1/2+x,1/2-y,1/2-z
1/2-x,y,1/2-z
1/2-x,1/2-y,1/2-z
1/2+x,y,1/2-z
1/2-x,1/2+y,1/2+z
1/2+x,-y,1/2+z
loop_
_atom_site_type_symbol
_atom_site_label
_atom_site_fract_x
_atom_site_fract_y
_atom_site_fract_z
Si Si1 0.751641 0.938284 0.190366
Si Si2 0.436943 0.558364 0.749910
Si Si3 0.436783 0.561687 0.443018
Si Si4 0.632476 0.061499 0.348925
Si Si5 0.135711 0.059497 0.347475
Si Si6 0.436653 0.939792 0.943393
O O1 0.753135 0.750000 0.190654
O O2 0.750000 0.992995 0.250000
O O3 0.806319 0.001514 0.162975
O O4 0.696661 0.995588 0.162001
O O5 0.500000 0.504155 0.751844
O O6 0.437765 0.750000 0.749970
O O7 0.406200 0.507796 0.698333
O O8 0.402191 0.509840 0.799455
O O9 0.424697 0.500000 0.500000
O O10 0.500000 0.511420 0.430244
O O11 0.435346 0.750000 0.443349
O O12 0.394332 0.498500 0.401246
O O13 0.633013 0.250000 0.349388
O O14 0.137926 0.250000 0.347579
O O15 0.105755 0.007893 0.399682
O O16 0.500000 0.988986 0.931624
O O17 0.436248 0.750000 0.943924
O O18 0.422842 0.000000 0.000000
#
# Coordination Sequence:
#
# PCOD9536466 Si02
#       6
#    16  16  16  16  16  16
#     4  11  23  38  55  77 111 150 188 231 284 340
#     4   9  17  29  50  81 111 137 172 223 277 332
#     4  10  21  38  60  86 118 153 188 229 279 334
#     4  11  21  35  58  84 112 146 190 234 279 336
#     4  10  19  34  56  80 107 142 188 230 272 329
#     4   9  18  33  55  82 112 145 180 222 272 326
#
# _framework density 17.838567999999999
#
# number of rings (size 3 to 8) (size 9 to 14) (size 15 to 20)
#    0.000    2.000    1.667    2.500    0.000    5.000 
#    0.000    0.833    0.000    4.500    0.000    0.000 
#    0.000    0.000    0.000    0.000    0.000    0.000 
#
# Total GULP energy -268021.399043 kJ/mol
# GULP energy per Si atom -5583.779147 kJ/mol
# Density = 1.779797 g / cm^3
# Si number density = 17.838568 Si / 1000 Ang^3
#
#
#
# Elastic Constant Matrix: (Units=GPa)
#
#
# Indices 1 2 3 4 5 6 
#
# 1 188.3200 37.0993 118.4065 0.0000 0.0000 0.0000
# 2 37.0993 31.3075 36.5111 0.0000 0.0000 0.0000
# 3 118.4065 36.5111 159.3753 0.0000 0.0000 0.0000
# 4 0.0000 0.0000 0.0000 23.6212 0.0000 0.0000
# 5 0.0000 0.0000 0.0000 0.0000 19.3683 0.0000
# 6 0.0000 0.0000 0.0000 0.0000 0.0000 10.6398
#
#
#
# Elastic Compliance Matrix: (Units=1/GPa)
#
#
# Indices 1 2 3 4 5 6 
#
# 1 0.010415 -0.004528 -0.006701 0.000000 0.000000 0.000000
# 2 -0.004528 0.045554 -0.007072 0.000000 0.000000 0.000000
# 3 -0.006701 -0.007072 0.012873 0.000000 0.000000 0.000000
# 4 0.000000 0.000000 0.000000 0.042335 0.000000 0.000000
# 5 0.000000 0.000000 0.000000 0.000000 0.051631 0.000000
# 6 0.000000 0.000000 0.000000 0.000000 0.000000 0.093987
#
#
# Mechanical properties :
#
#
# Convention : Reuss Voigt Hill
#
# Bulk Modulus (GPa) = 31.01617 84.78185 57.89901
# Shear Modulus (GPa) = 16.43970 23.19160 19.81565
#
# Velocity S-wave (km/s) = 3.03905 3.60958 3.33653
# Velocity P-wave (km/s) = 5.45338 8.06241 6.88265
#
# Compressibility (1/GPa) = 0.03224124
#
# Stress axis : x y z
#
# Youngs Moduli (GPa) = 96.01532 21.95193 77.68335
#
# Poissons Ratio (x) = 0.09939 0.52052
# Poissons Ratio (y) = 0.43471 0.54940
# Poissons Ratio (z) = 0.64335 0.15525
#
# Static dielectric constant tensor:
#      x y z
#    x 1.585310 0.000000 0.000000 
#    y 0.000000 1.608130 0.000000 
#    z 0.000000 0.000000 1.587710 
# 
# From -- ./inp_files/57252.got.cif
#   From: 2010.05.17/outbox.cif.g08.bks.cpg/sg74_29_cif.got.tgz:57252.got - 2010.06.03 17:57:02.
