data_PCOD9536638
_publ_section_title
;
Structure prediction by ZEFSAII (Michael W. Deem and Ramdas Pophale) SiO2 
 PCOD9536638
Probable space group: I M M A
;
_chemical_formula_sum "Si O2"
_cell_formula_units_Z 52
_cell_length_a 9.973992
_cell_length_b 20.676854
_cell_length_c 14.166364
_cell_angle_alpha 90.000000
_cell_angle_beta 90.000000
_cell_angle_gamma 90.000000
_cell_volume 2921.540246
_symmetry_space_group_name_H-M "I M M A"
_symmetry_group_IT_number 74
_symmetry_cell_setting 'orthorhombic'
loop_
_space_group_symop_operation_xyz
x,y,z
-x,1/2-y,z
x,-y,-z
-x,1/2+y,-z
-x,-y,-z
x,1/2+y,-z
-x,y,z
x,1/2-y,z
1/2+x,1/2+y,1/2+z
1/2-x,-y,1/2+z
1/2+x,1/2-y,1/2-z
1/2-x,y,1/2-z
1/2-x,1/2-y,1/2-z
1/2+x,y,1/2-z
1/2-x,1/2+y,1/2+z
1/2+x,-y,1/2+z
loop_
_atom_site_type_symbol
_atom_site_label
_atom_site_fract_x
_atom_site_fract_y
_atom_site_fract_z
Si Si1 0.500000 0.457032 0.592398
Si Si2 0.000000 0.983962 0.301187
Si Si3 0.000000 0.608167 0.564620
Si Si4 0.000000 0.250000 0.433149
Si Si5 0.785945 0.392635 0.604295
Si Si6 0.849352 0.750000 0.378712
O O1 0.500000 0.500000 0.500000
O O2 0.500000 0.496919 0.690189
O O3 0.635649 0.415769 0.591888
O O4 0.128419 0.939948 0.328397
O O5 0.000000 0.048363 0.364440
O O6 0.000000 0.679356 0.613159
O O7 0.872340 0.604676 0.493469
O O8 0.876320 0.250000 0.507633
O O9 0.786037 0.318971 0.641398
O O10 0.000000 0.750000 0.337015
#
# Coordination Sequence:
#
# PCOD9536638 Si02
#       6
#     8   8   8   4  16   8
#     4  12  25  36  47  77 117 146 175 228 276 312
#     4  11  20  35  56  78 101 149 192 217 254 320
#     4   9  16  33  61  81 100 138 184 222 259 316
#     4   6  12  26  52  86 100 116 166 228 262 292
#     4  10  19  35  57  82 110 137 178 221 269 321
#     4   8  14  33  58  82 106 135 176 222 257 322
#
# _framework density 17.798829999999999
#
# number of rings (size 3 to 8) (size 9 to 14) (size 15 to 20)
#    0.462    1.846    3.077    4.615    0.000    0.615 
#    0.000    4.615    0.000    1.846    0.000   10.769 
#    0.000    0.000    0.000    0.000    0.000    0.000 
#
# Total GULP energy -144833.738568 kJ/mol
# GULP energy per Si atom -5570.528406 kJ/mol
# Density = 1.775832 g / cm^3
# Si number density = 17.798830 Si / 1000 Ang^3
#
#
#
# Elastic Constant Matrix: (Units=GPa)
#
#
# Indices 1 2 3 4 5 6 
#
# 1 149.6269 52.9177 37.5549 0.0000 0.0000 0.0000
# 2 52.9177 158.8395 77.3517 0.0001 0.0000 0.0000
# 3 37.5549 77.3517 99.1967 0.0000 0.0000 0.0000
# 4 0.0000 0.0001 0.0000 -9.3537 0.0000 0.0000
# 5 0.0000 0.0000 0.0000 0.0000 1.4963 0.0000
# 6 0.0000 0.0000 0.0000 0.0000 0.0000 26.2636
#
#
#
# Elastic Compliance Matrix: (Units=1/GPa)
#
#
# Indices 1 2 3 4 5 6 
#
# 1 0.007708 -0.001849 -0.001476 0.000000 0.000000 0.000000
# 2 -0.001849 0.010594 -0.007561 0.000000 0.000000 0.000000
# 3 -0.001476 -0.007561 0.016536 0.000000 0.000000 0.000000
# 4 0.000000 0.000000 0.000000 -0.106909 -0.000001 0.000000
# 5 0.000000 0.000000 0.000000 -0.000001 0.668333 0.000000
# 6 0.000000 0.000000 0.000000 0.000000 0.000000 0.038076
#
#
# Mechanical properties :
#
#
# Convention : Reuss Voigt Hill
#
# Bulk Modulus (GPa) = 76.54018 82.59020 79.56519
# Shear Modulus (GPa) = 7.57045 19.67047 13.62046
#
# Velocity S-wave (km/s) = 2.06460 3.32799 2.76931
# Velocity P-wave (km/s) = 6.98425 7.82753 7.41788
#
# Compressibility (1/GPa) = 0.01306503
#
# Stress axis : x y z
#
# Youngs Moduli (GPa) = 129.73996 94.39744 60.47576
#
# Poissons Ratio (x) = 0.17453 0.08928
# Poissons Ratio (y) = 0.23988 0.45724
# Poissons Ratio (z) = 0.19154 0.71370
#
# Static dielectric constant tensor:
#      x y z
#    x 1.600980 0.000000 0.000000 
#    y 0.000000 1.686010 0.000000 
#    z 0.000000 0.000000 1.623680 
# 
# From -- ./inp_files/28461.got.cif
#   From: 2010.05.17/outbox.cif.g08.bks.cpg/sg74_15_cif.got.tgz:28461.got - 2010.06.03 17:57:02.
