data_PCOD9536776
_publ_section_title
;
Structure prediction by ZEFSAII (Michael W. Deem and Ramdas Pophale) SiO2 
 PCOD9536776
Probable space group: I M M A
;
_chemical_formula_sum "Si O2"
_cell_formula_units_Z 112
_cell_length_a 29.322773
_cell_length_b 15.188279
_cell_length_c 11.360531
_cell_angle_alpha 90.000000
_cell_angle_beta 90.000000
_cell_angle_gamma 90.000000
_cell_volume 5059.554003
_symmetry_space_group_name_H-M "I M M A"
_symmetry_group_IT_number 74
_symmetry_cell_setting 'orthorhombic'
loop_
_space_group_symop_operation_xyz
x,y,z
-x,1/2-y,z
x,-y,-z
-x,1/2+y,-z
-x,-y,-z
x,1/2+y,-z
-x,y,z
x,1/2-y,z
1/2+x,1/2+y,1/2+z
1/2-x,-y,1/2+z
1/2+x,1/2-y,1/2-z
1/2-x,y,1/2-z
1/2-x,1/2-y,1/2-z
1/2+x,y,1/2-z
1/2-x,1/2+y,1/2+z
1/2+x,-y,1/2+z
loop_
_atom_site_type_symbol
_atom_site_label
_atom_site_fract_x
_atom_site_fract_y
_atom_site_fract_z
Si Si1 0.779922 0.350125 0.642205
Si Si2 0.663312 0.352061 0.072267
Si Si3 0.420403 0.980143 0.881147
Si Si4 0.291858 0.149716 0.319614
Si Si5 0.050165 0.652166 0.814190
Si Si6 0.869851 0.397104 0.011162
Si Si7 0.618130 0.153420 0.756322
O O1 0.761732 0.250000 0.627916
O O2 0.750000 0.390716 0.750000
O O3 0.792631 0.380894 0.508138
O O4 0.830837 0.348901 0.693121
O O5 0.652793 0.250000 0.036632
O O6 0.622605 0.421986 0.068826
O O7 0.673304 0.347384 0.210782
O O8 0.444609 0.918944 0.787021
O O9 0.406536 0.069414 0.812944
O O10 0.447232 0.000000 0.000000
O O11 0.277426 0.250000 0.349870
O O12 0.250000 0.104581 0.250000
O O13 0.319800 0.114000 0.430216
O O14 0.053036 0.750000 0.762156
O O15 0.091583 0.641751 0.904254
O O16 0.000000 0.643096 0.871237
O O17 0.878496 0.500000 0.000000
O O18 0.875491 0.356261 0.883186
O O19 0.597795 0.250000 0.782694
#
# Coordination Sequence:
#
# PCOD9536776 Si02
#       7
#    16  16  16  16  16  16  16
#     4   9  19  34  56  88 127 176 229 276 331 396
#     4  10  19  36  61  88 127 176 226 278 327 391
#     4  12  23  41  68  97 135 172 225 278 342 408
#     4  10  21  36  61  95 131 178 231 282 335 395
#     4  11  25  47  76 105 134 176 228 284 351 427
#     4  12  23  43  69  98 137 182 229 286 345 411
#     4  11  23  39  62  96 134 180 226 273 345 412
#
# _framework density 22.136337999999999
#
# number of rings (size 3 to 8) (size 9 to 14) (size 15 to 20)
#    0.000    1.286    4.286    1.714    2.000    1.143 
#    0.000    3.571    0.000    0.429    0.000    0.000 
#    0.000    0.571    0.000    0.000    0.000    0.000 
#
# Total GULP energy -312344.905839 kJ/mol
# GULP energy per Si atom -5577.587604 kJ/mol
# Density = 2.208595 g / cm^3
# Si number density = 22.136338 Si / 1000 Ang^3
#
#
#
# Elastic Constant Matrix: (Units=GPa)
#
#
# Indices 1 2 3 4 5 6 
#
# 1 71.1993 34.6061 16.1348 0.0000 0.0000 0.0000
# 2 34.6061 138.1446 28.4757 0.0000 0.0000 0.0000
# 3 16.1348 28.4757 133.7880 0.0000 0.0000 0.0000
# 4 0.0000 0.0000 0.0000 29.1320 0.0000 0.0000
# 5 0.0000 0.0000 0.0000 0.0000 6.1331 0.0000
# 6 0.0000 0.0000 0.0000 0.0000 0.0000 935.9317
#
#
#
# Elastic Compliance Matrix: (Units=1/GPa)
#
#
# Indices 1 2 3 4 5 6 
#
# 1 0.016156 -0.003813 -0.001137 0.000000 0.000000 0.000000
# 2 -0.003813 0.008471 -0.001343 0.000000 0.000000 0.000000
# 3 -0.001137 -0.001343 0.007897 0.000000 0.000000 0.000000
# 4 0.000000 0.000000 0.000000 0.034327 0.000000 0.000000
# 5 0.000000 0.000000 0.000000 0.000000 0.163051 0.000000
# 6 0.000000 0.000000 0.000000 0.000000 0.000000 0.001068
#
#
# Mechanical properties :
#
#
# Convention : Reuss Voigt Hill
#
# Bulk Modulus (GPa) = 50.15402 55.72947 52.94174
# Shear Modulus (GPa) = 19.98389 211.83370 115.90879
#
# Velocity S-wave (km/s) = 3.00786 9.79300 7.24396
# Velocity P-wave (km/s) = 5.89653 12.37338 9.69200
#
# Compressibility (1/GPa) = 0.01993858
#
# Stress axis : x y z
#
# Youngs Moduli (GPa) = 61.89682 118.05285 126.62254
#
# Poissons Ratio (x) = 0.45011 0.14395
# Poissons Ratio (y) = 0.23600 0.17007
# Poissons Ratio (z) = 0.07037 0.15856
#
# Static dielectric constant tensor:
#      x y z
#    x 1.835280 0.000000 0.000000 
#    y 0.000000 1.841380 0.000000 
#    z 0.000000 0.000000 1.873410 
# 
# From -- ./inp_files/27212.got.cif
#   From: 2010.05.17/outbox.cif.g08.bks.cpg/sg74_14_cif.got.tgz:27212.got - 2010.06.03 17:57:02.
