data_PCOD9536676
_publ_section_title
;
Structure prediction by ZEFSAII (Michael W. Deem and Ramdas Pophale) SiO2 
 PCOD9536676
Probable space group: I M M A
;
_chemical_formula_sum "Si O2"
_cell_formula_units_Z 88
_cell_length_a 12.345468
_cell_length_b 15.148635
_cell_length_c 24.493772
_cell_angle_alpha 90.000000
_cell_angle_beta 90.000000
_cell_angle_gamma 90.000000
_cell_volume 4580.751480
_symmetry_space_group_name_H-M "I M M A"
_symmetry_group_IT_number 74
_symmetry_cell_setting 'orthorhombic'
loop_
_space_group_symop_operation_xyz
x,y,z
-x,1/2-y,z
x,-y,-z
-x,1/2+y,-z
-x,-y,-z
x,1/2+y,-z
-x,y,z
x,1/2-y,z
1/2+x,1/2+y,1/2+z
1/2-x,-y,1/2+z
1/2+x,1/2-y,1/2-z
1/2-x,y,1/2-z
1/2-x,1/2-y,1/2-z
1/2+x,y,1/2-z
1/2-x,1/2+y,1/2+z
1/2+x,-y,1/2+z
loop_
_atom_site_type_symbol
_atom_site_label
_atom_site_fract_x
_atom_site_fract_y
_atom_site_fract_z
Si Si1 0.259718 0.152486 0.890417
Si Si2 0.500000 0.038655 0.160218
Si Si3 0.126625 0.645929 0.885446
Si Si4 0.000000 0.152123 0.445983
Si Si5 0.770459 0.395875 0.491677
Si Si6 0.000000 0.843382 0.361929
Si Si7 0.739984 0.981271 0.813182
O O1 0.226664 0.250000 0.869605
O O2 0.390496 0.154088 0.895912
O O3 0.242782 0.069295 0.850489
O O4 0.219233 0.139063 0.951913
O O5 0.500000 0.072525 0.097814
O O6 0.620136 0.062449 0.180155
O O7 0.500000 0.933257 0.171136
O O8 0.138340 0.750000 0.874785
O O9 0.195711 0.622946 0.939486
O O10 0.174359 0.588873 0.835931
O O11 0.000000 0.626237 0.893993
O O12 0.889037 0.143521 0.479430
O O13 0.000000 0.250000 0.419340
O O14 0.784355 0.500000 0.500000
O O15 0.000000 0.750000 0.330667
O O16 0.750000 0.004446 0.750000
#
# Coordination Sequence:
#
# PCOD9536676 Si02
#       7
#    16   8  16   8  16   8  16
#     4  10  19  35  59  92 128 165 205 248 307 369
#     4  10  20  38  60  93 120 158 205 255 305 367
#     4  11  25  45  66  91 124 163 206 254 311 374
#     4  12  22  34  61  98 138 162 189 249 314 372
#     4  12  21  38  63  96 130 164 202 250 311 374
#     4   8  15  30  52  83 124 159 193 242 299 356
#     4  11  24  42  64  91 123 164 212 263 306 358
#
# _framework density 19.210820999999999
#
# number of rings (size 3 to 8) (size 9 to 14) (size 15 to 20)
#    0.000    1.273    3.636    3.545    1.273    1.818 
#    0.000    0.000    0.000    0.545    0.000    0.000 
#    0.000    0.000    0.000    0.000    0.000    0.000 
#
# Total GULP energy -245207.863072 kJ/mol
# GULP energy per Si atom -5572.905979 kJ/mol
# Density = 1.916710 g / cm^3
# Si number density = 19.210821 Si / 1000 Ang^3
#
#
#
# Elastic Constant Matrix: (Units=GPa)
#
#
# Indices 1 2 3 4 5 6 
#
# 1 79.4124 37.8838 25.6029 0.0000 0.0000 0.0000
# 2 37.8838 104.5406 30.7785 0.0000 0.0000 0.0000
# 3 25.6029 30.7785 112.6414 0.0000 0.0000 0.0000
# 4 0.0000 0.0000 0.0000 3.9116 0.0000 0.0000
# 5 0.0000 0.0000 0.0000 0.0000 6.9387 0.0000
# 6 0.0000 0.0000 0.0000 0.0000 0.0000 1.6549
#
#
#
# Elastic Compliance Matrix: (Units=1/GPa)
#
#
# Indices 1 2 3 4 5 6 
#
# 1 0.015706 -0.005047 -0.002191 0.000000 0.000000 0.000000
# 2 -0.005047 0.012024 -0.002138 0.000000 0.000000 0.000000
# 3 -0.002191 -0.002138 0.009960 0.000000 0.000000 0.000000
# 4 0.000000 0.000000 0.000000 0.255649 0.000000 0.000000
# 5 0.000000 0.000000 0.000000 0.000000 0.144120 0.000000
# 6 0.000000 0.000000 0.000000 0.000000 0.000000 0.604257
#
#
# Mechanical properties :
#
#
# Convention : Reuss Voigt Hill
#
# Bulk Modulus (GPa) = 52.80301 53.90275 53.35288
# Shear Modulus (GPa) = 4.68700 15.98966 10.33833
#
# Velocity S-wave (km/s) = 1.56367 2.88814 2.32233
# Velocity P-wave (km/s) = 5.55030 6.26428 5.91807
#
# Compressibility (1/GPa) = 0.01893831
#
# Stress axis : x y z
#
# Youngs Moduli (GPa) = 63.66829 83.16656 100.40112
#
# Poissons Ratio (x) = 0.41971 0.21998
# Poissons Ratio (y) = 0.32131 0.21470
# Poissons Ratio (z) = 0.13950 0.17784
#
# Static dielectric constant tensor:
#      x y z
#    x 1.679550 0.000000 0.000000 
#    y 0.000000 1.718830 0.000000 
#    z 0.000000 0.000000 1.659550 
# 
# From -- ./inp_files/58663.got.cif
#   From: 2010.05.17/outbox.cif.g08.bks.cpg/sg74_30_cif.got.tgz:58663.got - 2010.06.03 17:57:02.
