data_PCOD9536384
_publ_section_title
;
Structure prediction by ZEFSAII (Michael W. Deem and Ramdas Pophale) SiO2 
 PCOD9536384
Probable space group: I M M A
;
_chemical_formula_sum "Si O2"
_cell_formula_units_Z 112
_cell_length_a 14.827720
_cell_length_b 28.055499
_cell_length_c 13.989124
_cell_angle_alpha 90.000000
_cell_angle_beta 90.000000
_cell_angle_gamma 90.000000
_cell_volume 5819.462765
_symmetry_space_group_name_H-M "I M M A"
_symmetry_group_IT_number 74
_symmetry_cell_setting 'orthorhombic'
loop_
_space_group_symop_operation_xyz
x,y,z
-x,1/2-y,z
x,-y,-z
-x,1/2+y,-z
-x,-y,-z
x,1/2+y,-z
-x,y,z
x,1/2-y,z
1/2+x,1/2+y,1/2+z
1/2-x,-y,1/2+z
1/2+x,1/2-y,1/2-z
1/2-x,y,1/2-z
1/2-x,1/2-y,1/2-z
1/2+x,y,1/2-z
1/2-x,1/2+y,1/2+z
1/2+x,-y,1/2+z
loop_
_atom_site_type_symbol
_atom_site_label
_atom_site_fract_x
_atom_site_fract_y
_atom_site_fract_z
Si Si1 0.897032 0.047927 0.832943
Si Si2 0.598494 0.535157 0.107843
Si Si3 0.769873 0.806039 0.638157
Si Si4 0.289430 0.856895 0.354163
Si Si5 0.675893 0.114332 0.021091
Si Si6 0.735974 0.464715 0.361792
Si Si7 0.900189 0.693335 0.997566
O O1 0.897384 0.053215 0.717398
O O2 0.830653 0.090082 0.862597
O O3 0.000000 0.052604 0.866458
O O4 0.853135 0.997559 0.863782
O O5 0.500000 0.512024 0.099507
O O6 0.681740 0.499041 0.106484
O O7 0.608904 0.576403 0.028597
O O8 0.792717 0.750000 0.620209
O O9 0.750000 0.811359 0.750000
O O10 0.842434 0.844839 0.599991
O O11 0.677268 0.817617 0.580194
O O12 0.250000 0.847296 0.250000
O O13 0.209132 0.856035 0.429868
O O14 0.365867 0.823362 0.398501
O O15 0.752439 0.080943 0.071228
O O16 0.750000 0.451731 0.250000
O O17 0.906066 0.750000 0.997761
O O18 0.000000 0.673475 0.976458
#
# Coordination Sequence:
#
# PCOD9536384 Si02
#       7
#    16  16  16  16  16  16  16
#     4  10  19  34  53  76 110 151 185 221 274 341
#     4  10  20  34  54  76 106 147 188 227 273 331
#     4   9  19  37  60  84 110 146 187 231 294 358
#     4  11  19  33  53  79 108 148 188 228 284 344
#     4  11  20  33  56  79 110 141 188 237 282 335
#     4  10  20  35  51  76 109 145 188 231 278 332
#     4   9  19  35  56  83 111 142 189 244 292 348
#
# _framework density 19.245764000000001
#
# number of rings (size 3 to 8) (size 9 to 14) (size 15 to 20)
#    0.000    2.000    2.857    1.714    0.000    1.429 
#    0.000    5.000    0.000    4.714    0.000    0.000 
#    0.000    0.000    0.000    0.000    0.000    0.000 
#
# Total GULP energy -311739.257895 kJ/mol
# GULP energy per Si atom -5566.772462 kJ/mol
# Density = 1.920196 g / cm^3
# Si number density = 19.245764 Si / 1000 Ang^3
#
#
#
# Elastic Constant Matrix: (Units=GPa)
#
#
# Indices 1 2 3 4 5 6 
#
# 1 50.0645 13.2319 21.3301 0.0000 0.0000 0.0000
# 2 13.2319 61.3825 28.2191 -0.0001 0.0000 0.0000
# 3 21.3301 28.2191 104.9710 -0.0001 0.0000 0.0000
# 4 0.0000 -0.0001 -0.0001 31.7877 0.0000 0.0000
# 5 0.0000 0.0000 0.0000 0.0000 9.8032 0.0000
# 6 0.0000 0.0000 0.0000 0.0000 0.0000 3.5147
#
#
#
# Elastic Compliance Matrix: (Units=1/GPa)
#
#
# Indices 1 2 3 4 5 6 
#
# 1 0.022379 -0.003119 -0.003709 0.000000 0.000000 0.000000
# 2 -0.003119 0.019023 -0.004480 0.000000 0.000000 0.000000
# 3 -0.003709 -0.004480 0.011484 0.000000 0.000000 0.000000
# 4 0.000000 0.000000 0.000000 0.031459 0.000000 0.000000
# 5 0.000000 0.000000 0.000000 0.000000 0.102007 0.000000
# 6 0.000000 0.000000 0.000000 0.000000 0.000000 0.284523
#
#
# Mechanical properties :
#
#
# Convention : Reuss Voigt Hill
#
# Bulk Modulus (GPa) = 33.03562 37.99782 35.51672
# Shear Modulus (GPa) = 9.92888 19.26357 14.59622
#
# Velocity S-wave (km/s) = 2.27381 3.16717 2.75692
# Velocity P-wave (km/s) = 4.90877 5.75856 5.35056
#
# Compressibility (1/GPa) = 0.03027036
#
# Stress axis : x y z
#
# Youngs Moduli (GPa) = 44.68517 52.56714 87.07393
#
# Poissons Ratio (x) = 0.16396 0.32295
# Poissons Ratio (y) = 0.13937 0.39011
# Poissons Ratio (z) = 0.16573 0.23551
#
# Static dielectric constant tensor:
#      x y z
#    x 1.709650 0.000000 0.000000 
#    y 0.000000 1.700480 0.000000 
#    z 0.000000 0.000000 1.707490 
# 
# From -- ./inp_files/32948.got.cif
#   From: 2010.05.17/outbox.cif.g08.bks.cpg/sg74_17_cif.got.tgz:32948.got - 2010.06.03 17:57:02.
