data_PCOD9536813
_publ_section_title
;
Structure prediction by ZEFSAII (Michael W. Deem and Ramdas Pophale) SiO2 
 PCOD9536813
Probable space group: I M M A
;
_chemical_formula_sum "Si O2"
_cell_formula_units_Z 96
_cell_length_a 17.627444
_cell_length_b 22.906376
_cell_length_c 11.828665
_cell_angle_alpha 90.000000
_cell_angle_beta 90.000000
_cell_angle_gamma 90.000000
_cell_volume 4776.188529
_symmetry_space_group_name_H-M "I M M A"
_symmetry_group_IT_number 74
_symmetry_cell_setting 'orthorhombic'
loop_
_space_group_symop_operation_xyz
x,y,z
-x,1/2-y,z
x,-y,-z
-x,1/2+y,-z
-x,-y,-z
x,1/2+y,-z
-x,y,z
x,1/2-y,z
1/2+x,1/2+y,1/2+z
1/2-x,-y,1/2+z
1/2+x,1/2-y,1/2-z
1/2-x,y,1/2-z
1/2-x,1/2-y,1/2-z
1/2+x,y,1/2-z
1/2-x,1/2+y,1/2+z
1/2+x,-y,1/2+z
loop_
_atom_site_type_symbol
_atom_site_label
_atom_site_fract_x
_atom_site_fract_y
_atom_site_fract_z
Si Si1 0.804851 0.457338 0.859068
Si Si2 0.189442 0.896994 0.523983
Si Si3 0.089844 0.185779 0.623095
Si Si4 0.159160 0.423925 0.240100
Si Si5 0.675339 0.815785 0.599902
Si Si6 0.089391 0.346884 0.878381
O O1 0.750000 0.450305 0.750000
O O2 0.747797 0.441521 0.962908
O O3 0.848674 0.518890 0.838072
O O4 0.869399 0.408915 0.866841
O O5 0.135375 0.866408 0.433861
O O6 0.140875 0.925531 0.626440
O O7 0.242677 0.844436 0.572269
O O8 0.114279 0.250000 0.581335
O O9 0.101017 0.183614 0.757812
O O10 0.000000 0.179584 0.602002
O O11 0.250000 0.421308 0.250000
O O12 0.135343 0.363677 0.181301
O O13 0.680455 0.750000 0.644894
O O14 0.629737 0.815686 0.482672
O O15 0.000000 0.351824 0.898565
#
# Coordination Sequence:
#
# PCOD9536813 Si02
#       6
#    16  16  16  16  16  16
#     4  10  19  37  58  86 114 151 195 241 288 348
#     4  10  20  36  58  86 115 151 191 239 284 344
#     4  10  20  35  55  83 118 154 192 237 294 347
#     4   9  21  36  57  86 116 150 190 239 294 343
#     4  10  21  36  57  83 111 148 193 236 285 351
#     4  10  21  37  57  83 116 154 194 245 300 346
#
# _framework density 20.099709000000001
#
# number of rings (size 3 to 8) (size 9 to 14) (size 15 to 20)
#    0.000    2.167    1.667    1.000    0.000   15.333 
#    0.000    5.833    0.000    2.000    0.000    0.000 
#    0.000    0.000    0.000    0.000    0.000    0.000 
#
# Total GULP energy -267394.824170 kJ/mol
# GULP energy per Si atom -5570.725504 kJ/mol
# Density = 2.005396 g / cm^3
# Si number density = 20.099709 Si / 1000 Ang^3
#
#
#
# Elastic Constant Matrix: (Units=GPa)
#
#
# Indices 1 2 3 4 5 6 
#
# 1 25.8788 23.8934 12.3225 0.0000 0.0000 0.0000
# 2 23.8934 171.9351 45.3381 0.0000 0.0000 0.0000
# 3 12.3225 45.3381 76.8174 0.0000 0.0000 0.0000
# 4 0.0000 0.0000 0.0000 -1.7563 0.0000 0.0000
# 5 0.0000 0.0000 0.0000 0.0000 12.1325 0.0000
# 6 0.0000 0.0000 0.0000 0.0000 0.0000 1.5050
#
#
#
# Elastic Compliance Matrix: (Units=1/GPa)
#
#
# Indices 1 2 3 4 5 6 
#
# 1 0.045456 -0.005204 -0.004220 0.000000 0.000000 0.000000
# 2 -0.005204 0.007484 -0.003582 0.000000 0.000000 0.000000
# 3 -0.004220 -0.003582 0.015809 0.000000 0.000000 0.000000
# 4 0.000000 0.000000 0.000000 -0.569391 0.000000 0.000000
# 5 0.000000 0.000000 0.000000 0.000000 0.082424 0.000000
# 6 0.000000 0.000000 0.000000 0.000000 0.000000 0.664440
#
#
# Mechanical properties :
#
#
# Convention : Reuss Voigt Hill
#
# Bulk Modulus (GPa) = 23.39955 48.63770 36.01863
# Shear Modulus (GPa) = 17.45318 15.24807 16.35062
#
# Velocity S-wave (km/s) = 2.94994 2.75730 2.85524
# Velocity P-wave (km/s) = 4.82389 5.86410 5.36924
#
# Compressibility (1/GPa) = 0.04273586
#
# Stress axis : x y z
#
# Youngs Moduli (GPa) = 21.99932 133.61909 63.25444
#
# Poissons Ratio (x) = 0.69536 0.26695
# Poissons Ratio (y) = 0.11449 0.22660
# Poissons Ratio (z) = 0.09284 0.47866
#
# Static dielectric constant tensor:
#      x y z
#    x 1.656140 0.000000 0.000000 
#    y 0.000000 1.778960 0.000000 
#    z 0.000000 0.000000 1.860790 
# 
# From -- ./inp_files/22487.got.cif
#   From: 2010.05.17/outbox.cif.g08.bks.cpg/sg74_12_cif.got.tgz:22487.got - 2010.06.03 17:57:02.
