data_PCOD9536378
_publ_section_title
;
Structure prediction by ZEFSAII (Michael W. Deem and Ramdas Pophale) SiO2 
 PCOD9536378
Probable space group: I M M A
;
_chemical_formula_sum "Si O2"
_cell_formula_units_Z 88
_cell_length_a 28.783652
_cell_length_b 8.562005
_cell_length_c 19.636295
_cell_angle_alpha 90.000000
_cell_angle_beta 90.000000
_cell_angle_gamma 90.000000
_cell_volume 4839.281887
_symmetry_space_group_name_H-M "I M M A"
_symmetry_group_IT_number 74
_symmetry_cell_setting 'orthorhombic'
loop_
_space_group_symop_operation_xyz
x,y,z
-x,1/2-y,z
x,-y,-z
-x,1/2+y,-z
-x,-y,-z
x,1/2+y,-z
-x,y,z
x,1/2-y,z
1/2+x,1/2+y,1/2+z
1/2-x,-y,1/2+z
1/2+x,1/2-y,1/2-z
1/2-x,y,1/2-z
1/2-x,1/2-y,1/2-z
1/2+x,y,1/2-z
1/2-x,1/2+y,1/2+z
1/2+x,-y,1/2+z
loop_
_atom_site_type_symbol
_atom_site_label
_atom_site_fract_x
_atom_site_fract_y
_atom_site_fract_z
Si Si1 0.500000 0.438153 0.923949
Si Si2 0.276465 0.562911 0.422717
Si Si3 0.591648 0.439056 0.841201
Si Si4 0.879166 0.938453 0.076745
Si Si5 0.053655 0.940720 0.195522
Si Si6 0.679383 0.564542 0.922556
O O1 0.500000 0.250000 0.924666
O O2 0.546409 0.487500 0.884555
O O3 0.500000 0.500000 0.000000
O O4 0.277328 0.500000 0.500000
O O5 0.272619 0.750000 0.422788
O O6 0.327534 0.519112 0.395531
O O7 0.229057 0.493262 0.393502
O O8 0.594658 0.250000 0.843067
O O9 0.581321 0.486729 0.763562
O O10 0.637429 0.506799 0.875733
O O11 0.880464 0.750000 0.073530
O O12 0.918970 0.992422 0.128264
O O13 0.884667 0.000000 0.000000
O O14 0.052908 0.750000 0.195217
O O15 0.000000 0.992015 0.197931
O O16 0.679678 0.750000 0.927020
O O17 0.673895 0.500000 0.000000
#
# Coordination Sequence:
#
# PCOD9536378 Si02
#       6
#     8  16  16  16  16  16
#     4  10  20  32  50  74  97 128 170 212 253 296
#     4   9  16  29  49  74 103 134 169 211 257 304
#     4  10  19  34  53  74 101 136 176 214 256 304
#     4   9  18  32  54  82 107 134 171 213 258 308
#     4   9  17  33  56  78 103 138 176 214 257 307
#     4  11  21  33  51  76 104 136 173 214 259 307
#
# _framework density 18.184517
#
# number of rings (size 3 to 8) (size 9 to 14) (size 15 to 20)
#    0.000    2.364    0.909    3.818    0.000    3.273 
#    0.000    1.818    0.000    6.545    0.000    0.000 
#    0.000    0.000    0.000    0.000    0.000    0.000 
#
# Total GULP energy -245331.761100 kJ/mol
# GULP energy per Si atom -5575.721843 kJ/mol
# Density = 1.814313 g / cm^3
# Si number density = 18.184517 Si / 1000 Ang^3
#
#
#
# Elastic Constant Matrix: (Units=GPa)
#
#
# Indices 1 2 3 4 5 6 
#
# 1 145.0997 35.1311 75.7073 0.0000 0.0000 0.0000
# 2 35.1311 40.6930 22.7858 0.0000 0.0000 0.0000
# 3 75.7073 22.7858 106.8432 0.0000 0.0000 0.0000
# 4 0.0000 0.0000 0.0000 18.2805 0.0000 0.0000
# 5 0.0000 0.0000 0.0000 0.0000 -33.8460 0.0000
# 6 0.0000 0.0000 0.0000 0.0000 0.0000 18.5571
#
#
#
# Elastic Compliance Matrix: (Units=1/GPa)
#
#
# Indices 1 2 3 4 5 6 
#
# 1 0.012286 -0.006509 -0.007317 0.000000 0.000000 0.000000
# 2 -0.006509 0.031356 -0.002075 0.000000 0.000000 0.000000
# 3 -0.007317 -0.002075 0.014987 0.000000 0.000000 0.000000
# 4 0.000000 0.000000 0.000000 0.054703 0.000000 0.000000
# 5 0.000000 0.000000 0.000000 0.000000 -0.029546 0.000000
# 6 0.000000 0.000000 0.000000 0.000000 0.000000 0.053888
#
#
# Mechanical properties :
#
#
# Convention : Reuss Voigt Hill
#
# Bulk Modulus (GPa) = 37.27761 62.20935 49.74348
# Shear Modulus (GPa) = 28.02415 11.19909 19.61162
#
# Velocity S-wave (km/s) = 3.92994 2.48434 3.28758
# Velocity P-wave (km/s) = 6.41379 6.52025 6.46724
#
# Compressibility (1/GPa) = 0.02682576
#
# Stress axis : x y z
#
# Youngs Moduli (GPa) = 81.39588 31.89232 66.72535
#
# Poissons Ratio (x) = 0.20759 0.48824
# Poissons Ratio (y) = 0.52982 0.13843
# Poissons Ratio (z) = 0.59559 0.06617
#
# Static dielectric constant tensor:
#      x y z
#    x 1.649680 0.000000 0.000000 
#    y 0.000000 1.614230 0.000000 
#    z 0.000000 0.000000 1.596510 
# 
# From -- ./inp_files/54513.got.cif
#   From: 2010.05.17/outbox.cif.g08.bks.cpg/sg74_28_cif.got.tgz:54513.got - 2010.06.03 17:57:02.
