data_PCOD9536960
_publ_section_title
;
Structure prediction by ZEFSAII (Michael W. Deem and Ramdas Pophale) SiO2 
 PCOD9536960
Probable space group: I M M A
;
_chemical_formula_sum "Si O2"
_cell_formula_units_Z 96
_cell_length_a 20.821634
_cell_length_b 15.374003
_cell_length_c 14.728404
_cell_angle_alpha 90.000000
_cell_angle_beta 90.000000
_cell_angle_gamma 90.000000
_cell_volume 4714.736852
_symmetry_space_group_name_H-M "I M M A"
_symmetry_group_IT_number 74
_symmetry_cell_setting 'orthorhombic'
loop_
_space_group_symop_operation_xyz
x,y,z
-x,1/2-y,z
x,-y,-z
-x,1/2+y,-z
-x,-y,-z
x,1/2+y,-z
-x,y,z
x,1/2-y,z
1/2+x,1/2+y,1/2+z
1/2-x,-y,1/2+z
1/2+x,1/2-y,1/2-z
1/2-x,y,1/2-z
1/2-x,1/2-y,1/2-z
1/2+x,y,1/2-z
1/2-x,1/2+y,1/2+z
1/2+x,-y,1/2+z
loop_
_atom_site_type_symbol
_atom_site_label
_atom_site_fract_x
_atom_site_fract_y
_atom_site_fract_z
Si Si1 0.068123 0.402307 0.965283
Si Si2 0.307949 0.147630 0.047717
Si Si3 0.170168 0.651785 0.342581
Si Si4 0.302200 0.850581 0.426326
Si Si5 0.673876 0.535002 0.776693
Si Si6 0.574532 0.348883 0.332168
O O1 0.077945 0.349566 0.058430
O O2 0.000000 0.377340 0.922516
O O3 0.064060 0.500000 0.000000
O O4 0.131603 0.395393 0.906904
O O5 0.304863 0.250000 0.074029
O O6 0.331040 0.086629 0.127413
O O7 0.345945 0.144968 0.951383
O O8 0.236359 0.117506 0.015469
O O9 0.152733 0.750000 0.311212
O O10 0.251909 0.646436 0.150139
O O11 0.150727 0.563973 0.293156
O O12 0.316344 0.750000 0.441574
O O13 0.750000 0.538075 0.750000
O O14 0.627335 0.586512 0.708336
O O15 0.500000 0.373217 0.310060
O O16 0.585765 0.250000 0.299879
#
# Coordination Sequence:
#
# PCOD9536960 Si02
#       6
#    16  16  16  16  16  16
#     4  10  20  31  50  74 103 147 193 226 259 323
#     4   8  17  32  50  76 105 132 171 225 277 326
#     4   8  19  36  52  75 108 143 178 232 288 323
#     4   8  16  29  49  71  99 134 172 225 278 314
#     4  12  22  30  56  86 107 145 186 232 276 339
#     4  10  23  40  54  78 121 157 180 223 286 338
#
# _framework density 20.361685999999999
#
# number of rings (size 3 to 8) (size 9 to 14) (size 15 to 20)
#    1.000    1.667    0.000    2.500    4.667    4.000 
#    0.000    0.000    0.000    2.500    0.000    2.333 
#    0.000    0.000    0.000    0.000    0.000    0.000 
#
# Total GULP energy -267329.091137 kJ/mol
# GULP energy per Si atom -5569.356065 kJ/mol
# Density = 2.031534 g / cm^3
# Si number density = 20.361686 Si / 1000 Ang^3
#
#
#
# Elastic Constant Matrix: (Units=GPa)
#
#
# Indices 1 2 3 4 5 6 
#
# 1 29.8813 25.3917 8.6227 0.0000 0.0000 0.0000
# 2 25.3917 122.4738 36.6568 0.0000 0.0000 0.0000
# 3 8.6227 36.6568 66.0574 0.0000 0.0000 0.0000
# 4 0.0000 0.0000 0.0000 30.5405 0.0000 0.0000
# 5 0.0000 0.0000 0.0000 0.0000 0.8736 0.0000
# 6 0.0000 0.0000 0.0000 0.0000 0.0000 23.7595
#
#
#
# Elastic Compliance Matrix: (Units=1/GPa)
#
#
# Indices 1 2 3 4 5 6 
#
# 1 0.040654 -0.008202 -0.000755 0.000000 0.000000 0.000000
# 2 -0.008202 0.011446 -0.005281 0.000000 0.000000 0.000000
# 3 -0.000755 -0.005281 0.018167 0.000000 0.000000 0.000000
# 4 0.000000 0.000000 0.000000 0.032743 0.000000 0.000000
# 5 0.000000 0.000000 0.000000 0.000000 1.144746 0.000000
# 6 0.000000 0.000000 0.000000 0.000000 0.000000 0.042088
#
#
# Mechanical properties :
#
#
# Convention : Reuss Voigt Hill
#
# Bulk Modulus (GPa) = 23.92895 39.97275 31.95085
# Shear Modulus (GPa) = 3.75304 20.88414 12.31859
#
# Velocity S-wave (km/s) = 1.35911 3.20607 2.46232
# Velocity P-wave (km/s) = 3.77364 5.77747 4.87952
#
# Compressibility (1/GPa) = 0.04179038
#
# Stress axis : x y z
#
# Youngs Moduli (GPa) = 24.59807 87.36508 55.04343
#
# Poissons Ratio (x) = 0.71661 0.04155
# Poissons Ratio (y) = 0.20177 0.29069
# Poissons Ratio (z) = 0.01857 0.46138
#
# Static dielectric constant tensor:
#      x y z
#    x 1.770200 0.000000 0.000000 
#    y 0.000000 1.762890 0.000000 
#    z 0.000000 0.000000 1.776600 
# 
# From -- ./inp_files/35262.got.cif
#   From: 2010.05.17/outbox.cif.g08.bks.cpg/sg74_18_cif.got.tgz:35262.got - 2010.06.03 17:57:02.
