data_PCOD9536896
_publ_section_title
;
Structure prediction by ZEFSAII (Michael W. Deem and Ramdas Pophale) SiO2 
 PCOD9536896
Probable space group: I M M A
;
_chemical_formula_sum "Si O2"
_cell_formula_units_Z 88
_cell_length_a 9.820546
_cell_length_b 21.132383
_cell_length_c 22.752917
_cell_angle_alpha 90.000000
_cell_angle_beta 90.000000
_cell_angle_gamma 90.000000
_cell_volume 4721.947890
_symmetry_space_group_name_H-M "I M M A"
_symmetry_group_IT_number 74
_symmetry_cell_setting 'orthorhombic'
loop_
_space_group_symop_operation_xyz
x,y,z
-x,1/2-y,z
x,-y,-z
-x,1/2+y,-z
-x,-y,-z
x,1/2+y,-z
-x,y,z
x,1/2-y,z
1/2+x,1/2+y,1/2+z
1/2-x,-y,1/2+z
1/2+x,1/2-y,1/2-z
1/2-x,y,1/2-z
1/2-x,1/2-y,1/2-z
1/2+x,y,1/2-z
1/2-x,1/2+y,1/2+z
1/2+x,-y,1/2+z
loop_
_atom_site_type_symbol
_atom_site_label
_atom_site_fract_x
_atom_site_fract_y
_atom_site_fract_z
Si Si1 0.840631 0.004553 0.306503
Si Si2 0.000000 0.325198 0.693798
Si Si3 0.338814 0.637061 0.868240
Si Si4 0.234193 0.389623 0.619028
Si Si5 0.663936 0.572594 0.992669
Si Si6 0.831190 0.250000 0.187279
Si Si7 0.500000 0.673698 0.331674
O O1 0.750000 0.990380 0.250000
O O2 0.832634 0.077939 0.323610
O O3 0.000000 0.989076 0.297396
O O4 0.784998 0.961910 0.359663
O O5 0.873347 0.352070 0.658495
O O6 0.000000 0.250000 0.691722
O O7 0.000000 0.342896 0.762348
O O8 0.500000 0.658350 0.869529
O O9 0.302026 0.607782 0.931978
O O10 0.231604 0.689585 0.847315
O O11 0.208283 0.388542 0.549870
O O12 0.373409 0.358153 0.637013
O O13 0.500000 0.568899 0.993420
O O14 0.714603 0.500000 0.000000
O O15 0.750000 0.250000 0.250000
O O16 0.000000 0.250000 0.192225
O O17 0.500000 0.750000 0.336427
#
# Coordination Sequence:
#
# PCOD9536896 Si02
#       7
#    16   8  16  16  16   8   8
#     4  11  22  36  62  96 128 158 210 273 328 391
#     4  11  22  40  65  90 124 165 222 265 315 379
#     4  10  22  42  68  99 130 174 217 266 334 390
#     4  12  22  40  62  94 123 168 218 262 323 379
#     4  10  19  40  67  94 130 166 213 268 319 385
#     4  12  26  48  72 100 138 178 223 274 331 397
#     4  11  26  44  59  86 132 175 204 267 331 385
#
# _framework density 18.636377
#
# number of rings (size 3 to 8) (size 9 to 14) (size 15 to 20)
#    0.000    1.091    3.636    3.545    1.273    3.636 
#    4.909    0.455    0.000    0.000    0.000    0.000 
#    0.000    0.000    0.000    0.000    0.000    0.000 
#
# Total GULP energy -245615.845405 kJ/mol
# GULP energy per Si atom -5582.178305 kJ/mol
# Density = 1.859396 g / cm^3
# Si number density = 18.636377 Si / 1000 Ang^3
#
#
#
# Elastic Constant Matrix: (Units=GPa)
#
#
# Indices 1 2 3 4 5 6 
#
# 1 1176.8918 0.4652 277.3001 0.0000 0.0000 0.0000
# 2 0.4652 96.6819 22.2869 0.0000 0.0000 0.0000
# 3 277.3001 22.2869 180.2261 0.0000 0.0000 0.0000
# 4 0.0000 0.0000 0.0000 44.2808 0.0000 0.0000
# 5 0.0000 0.0000 0.0000 0.0000 -9.1058 0.0000
# 6 0.0000 0.0000 0.0000 0.0000 0.0000 57.2599
#
#
#
# Elastic Compliance Matrix: (Units=1/GPa)
#
#
# Indices 1 2 3 4 5 6 
#
# 1 0.001355 0.000488 -0.002145 0.000000 0.000000 0.000000
# 2 0.000488 0.010822 -0.002089 0.000000 0.000000 0.000000
# 3 -0.002145 -0.002089 0.009107 0.000000 0.000000 0.000000
# 4 0.000000 0.000000 0.000000 0.022583 0.000000 0.000000
# 5 0.000000 0.000000 0.000000 0.000000 -0.109820 0.000000
# 6 0.000000 0.000000 0.000000 0.000000 0.000000 0.017464
#
#
# Mechanical properties :
#
#
# Convention : Reuss Voigt Hill
#
# Bulk Modulus (GPa) = 72.50409 228.21158 150.35783
# Shear Modulus (GPa) = -137.36902 95.40350 -20.98276
#
# Velocity S-wave (km/s) = -8.59478 7.16263 -3.35909
# Velocity P-wave (km/s) = 7.71392 13.82480 8.11235
#
# Compressibility (1/GPa) = 0.01379233
#
# Stress axis : x y z
#
# Youngs Moduli (GPa) = 738.04947 92.40073 109.80129
#
# Poissons Ratio (x) = -0.04509 0.23553
# Poissons Ratio (y) = -0.36013 0.22938
# Poissons Ratio (z) = 1.58316 0.19303
#
# Static dielectric constant tensor:
#      x y z
#    x 1.601160 0.000000 0.000000 
#    y 0.000000 1.681620 0.000000 
#    z 0.000000 0.000000 1.631680 
# 
# From -- ./inp_files/57064.got.cif
#   From: 2010.05.17/outbox.cif.g08.bks.cpg/sg74_29_cif.got.tgz:57064.got - 2010.06.03 17:57:02.
