data_PCOD9536711
_publ_section_title
;
Structure prediction by ZEFSAII (Michael W. Deem and Ramdas Pophale) SiO2 
 PCOD9536711
Probable space group: I M M A
;
_chemical_formula_sum "Si O2"
_cell_formula_units_Z 96
_cell_length_a 26.529785
_cell_length_b 19.833330
_cell_length_c 8.129086
_cell_angle_alpha 90.000000
_cell_angle_beta 90.000000
_cell_angle_gamma 90.000000
_cell_volume 4277.313540
_symmetry_space_group_name_H-M "I M M A"
_symmetry_group_IT_number 74
_symmetry_cell_setting 'orthorhombic'
loop_
_space_group_symop_operation_xyz
x,y,z
-x,1/2-y,z
x,-y,-z
-x,1/2+y,-z
-x,-y,-z
x,1/2+y,-z
-x,y,z
x,1/2-y,z
1/2+x,1/2+y,1/2+z
1/2-x,-y,1/2+z
1/2+x,1/2-y,1/2-z
1/2-x,y,1/2-z
1/2-x,1/2-y,1/2-z
1/2+x,y,1/2-z
1/2-x,1/2+y,1/2+z
1/2+x,-y,1/2+z
loop_
_atom_site_type_symbol
_atom_site_label
_atom_site_fract_x
_atom_site_fract_y
_atom_site_fract_z
Si Si1 0.059862 0.172093 0.169622
Si Si2 0.057012 0.958269 0.329630
Si Si3 0.395144 0.324800 0.957338
Si Si4 0.726780 0.174929 0.932045
Si Si5 0.710498 0.051521 0.134354
Si Si6 0.375140 0.054468 0.381821
O O1 0.064811 0.250000 0.117149
O O2 0.082077 0.168234 0.356984
O O3 0.094065 0.120575 0.064216
O O4 0.000000 0.154823 0.171521
O O5 0.084523 0.887897 0.357392
O O6 0.000000 0.944951 0.281224
O O7 0.057534 0.000000 0.500000
O O8 0.083553 0.006191 0.200404
O O9 0.411290 0.250000 0.900378
O O10 0.334358 0.326499 0.939949
O O11 0.742766 0.250000 0.988258
O O12 0.750000 0.165771 0.750000
O O13 0.740109 0.113074 0.049881
O O14 0.750000 0.013597 0.250000
O O15 0.664886 0.076180 0.245200
O O16 0.690032 0.000000 0.000000
O O17 0.348439 0.000000 0.500000
#
# Coordination Sequence:
#
# PCOD9536711 Si02
#       6
#    16  16  16  16  16  16
#     4  10  20  37  64  96 130 171 219 271 325 384
#     4  11  21  36  60  90 124 165 215 269 329 391
#     4  10  19  35  61  93 129 165 211 265 318 389
#     4  10  21  39  66  97 131 168 210 266 329 391
#     4  12  25  43  66  93 127 168 216 273 331 399
#     4  12  25  41  63  93 129 174 223 276 332 395
#
# _framework density 22.443992999999999
#
# number of rings (size 3 to 8) (size 9 to 14) (size 15 to 20)
#    0.000    1.167    3.333    3.500    0.000    4.000 
#    0.000    0.833    0.000    1.000    0.000    0.000 
#    0.000    0.000    0.000    0.000    0.000    0.000 
#
# Total GULP energy -268151.198584 kJ/mol
# GULP energy per Si atom -5586.483304 kJ/mol
# Density = 2.239291 g / cm^3
# Si number density = 22.443993 Si / 1000 Ang^3
#
#
#
# Elastic Constant Matrix: (Units=GPa)
#
#
# Indices 1 2 3 4 5 6 
#
# 1 77.5777 28.1365 12.8604 0.0000 0.0000 0.0000
# 2 28.1365 132.6751 29.3943 0.0000 0.0000 0.0000
# 3 12.8604 29.3943 45.4985 0.0000 0.0000 0.0000
# 4 0.0000 0.0000 0.0000 32.5670 0.0000 0.0000
# 5 0.0000 0.0000 0.0000 0.0000 21.3800 0.0000
# 6 0.0000 0.0000 0.0000 0.0000 0.0000 22.2519
#
#
#
# Elastic Compliance Matrix: (Units=1/GPa)
#
#
# Indices 1 2 3 4 5 6 
#
# 1 0.014188 -0.002474 -0.002412 0.000000 0.000000 0.000000
# 2 -0.002474 0.009228 -0.005262 0.000000 0.000000 0.000000
# 3 -0.002412 -0.005262 0.026060 0.000000 0.000000 0.000000
# 4 0.000000 0.000000 0.000000 0.030706 0.000000 0.000000
# 5 0.000000 0.000000 0.000000 0.000000 0.046773 0.000000
# 6 0.000000 0.000000 0.000000 0.000000 0.000000 0.044940
#
#
# Mechanical properties :
#
#
# Convention : Reuss Voigt Hill
#
# Bulk Modulus (GPa) = 34.27132 44.05931 39.16532
# Shear Modulus (GPa) = 24.76267 27.59712 26.17989
#
# Velocity S-wave (km/s) = 3.32521 3.51037 3.41904
# Velocity P-wave (km/s) = 5.48139 6.00863 5.75105
#
# Compressibility (1/GPa) = 0.02917892
#
# Stress axis : x y z
#
# Youngs Moduli (GPa) = 70.48435 108.36788 38.37291
#
# Poissons Ratio (x) = 0.26815 0.09254
# Poissons Ratio (y) = 0.17441 0.20193
# Poissons Ratio (z) = 0.16998 0.57026
#
# Static dielectric constant tensor:
#      x y z
#    x 1.816030 0.000000 0.000000 
#    y 0.000000 1.883810 0.000000 
#    z 0.000000 0.000000 1.993460 
# 
# From -- ./inp_files/15141.got.cif
#   From: 2010.05.17/outbox.cif.g08.bks.cpg/sg74_8_cif.got.tgz:15141.got - 2010.06.03 17:57:02.
