data_PCOD9536332
_publ_section_title
;
Structure prediction by ZEFSAII (Michael W. Deem and Ramdas Pophale) SiO2 
 PCOD9536332
Probable space group: I M M A
;
_chemical_formula_sum "Si O2"
_cell_formula_units_Z 96
_cell_length_a 24.883238
_cell_length_b 8.064146
_cell_length_c 23.665224
_cell_angle_alpha 90.000000
_cell_angle_beta 90.000000
_cell_angle_gamma 90.000000
_cell_volume 4748.712697
_symmetry_space_group_name_H-M "I M M A"
_symmetry_group_IT_number 74
_symmetry_cell_setting 'orthorhombic'
loop_
_space_group_symop_operation_xyz
x,y,z
-x,1/2-y,z
x,-y,-z
-x,1/2+y,-z
-x,-y,-z
x,1/2+y,-z
-x,y,z
x,1/2-y,z
1/2+x,1/2+y,1/2+z
1/2-x,-y,1/2+z
1/2+x,1/2-y,1/2-z
1/2-x,y,1/2-z
1/2-x,1/2-y,1/2-z
1/2+x,y,1/2-z
1/2-x,1/2+y,1/2+z
1/2+x,-y,1/2+z
loop_
_atom_site_type_symbol
_atom_site_label
_atom_site_fract_x
_atom_site_fract_y
_atom_site_fract_z
Si Si1 0.834064 0.556307 0.264211
Si Si2 0.887749 0.948641 0.436511
Si Si3 0.440022 0.552365 0.564684
Si Si4 0.220908 0.547644 0.377210
Si Si5 0.662422 0.450227 0.636707
Si Si6 0.060183 0.445796 0.323907
O O1 0.819769 0.750000 0.258664
O O2 0.795373 0.489513 0.313780
O O3 0.834498 0.485796 0.201280
O O4 0.893687 0.539020 0.289626
O O5 0.890392 0.750000 0.431313
O O6 0.827271 0.003703 0.418549
O O7 0.899814 0.000000 0.500000
O O8 0.927062 0.024870 0.389829
O O9 0.429709 0.500000 0.500000
O O10 0.500000 0.488047 0.580393
O O11 0.442156 0.750000 0.566334
O O12 0.391517 0.499103 0.604748
O O13 0.219877 0.750000 0.376221
O O14 0.281298 0.495919 0.391831
O O15 0.662534 0.250000 0.638462
O O16 0.064663 0.250000 0.311887
O O17 0.000000 0.501393 0.310405
#
# Coordination Sequence:
#
# PCOD9536332 Si02
#       6
#    16  16  16  16  16  16
#     4   9  18  33  54  79 108 141 174 211 256 306
#     4  10  20  35  55  77 104 138 175 216 262 312
#     4  10  22  40  58  76 103 137 173 216 263 309
#     4   8  16  32  53  78 108 140 172 210 256 303
#     4  10  19  33  57  85 109 136 173 212 253 309
#     4  10  21  36  53  74 103 139 178 221 265 306
#
# _framework density 20.216006
#
# number of rings (size 3 to 8) (size 9 to 14) (size 15 to 20)
#    0.000    2.500    0.000    3.000    0.000    6.667 
#    0.000    9.167    0.000    5.000    0.000    0.000 
#    0.000    0.000    0.000    0.000    0.000    0.000 
#
# Total GULP energy -267795.675597 kJ/mol
# GULP energy per Si atom -5579.076575 kJ/mol
# Density = 2.016999 g / cm^3
# Si number density = 20.216006 Si / 1000 Ang^3
#
#
#
# Elastic Constant Matrix: (Units=GPa)
#
#
# Indices 1 2 3 4 5 6 
#
# 1 111.9672 3.0448 3.5232 0.0000 0.0000 0.0000
# 2 3.0448 20.9991 -5.6595 0.0000 0.0000 0.0000
# 3 3.5232 -5.6595 14.4903 0.0000 0.0000 0.0000
# 4 0.0000 0.0000 0.0000 18.5834 0.0000 0.0000
# 5 0.0000 0.0000 0.0000 0.0000 9.5294 0.0000
# 6 0.0000 0.0000 0.0000 0.0000 0.0000 -1.1798
#
#
#
# Elastic Compliance Matrix: (Units=1/GPa)
#
#
# Indices 1 2 3 4 5 6 
#
# 1 0.009085 -0.002138 -0.003044 0.000000 0.000000 0.000000
# 2 -0.002138 0.053727 0.021504 0.000000 0.000000 0.000000
# 3 -0.003044 0.021504 0.078151 0.000000 0.000000 0.000000
# 4 0.000000 0.000000 0.000000 0.053811 0.000000 0.000000
# 5 0.000000 0.000000 0.000000 0.000000 0.104939 0.000000
# 6 0.000000 0.000000 0.000000 0.000000 0.000000 -0.847593
#
#
# Mechanical properties :
#
#
# Convention : Reuss Voigt Hill
#
# Bulk Modulus (GPa) = 5.76014 16.58594 11.17304
# Shear Modulus (GPa) = -9.56651 15.15647 2.79498
#
# Velocity S-wave (km/s) = -2.17771 2.74108 1.17710
# Velocity P-wave (km/s) = 1.86219 4.27086 2.71776
#
# Compressibility (1/GPa) = 0.17360702
#
# Stress axis : x y z
#
# Youngs Moduli (GPa) = 110.07034 18.61275 12.79580
#
# Poissons Ratio (x) = 0.03979 0.03895
# Poissons Ratio (y) = 0.23529 -0.27516
# Poissons Ratio (z) = 0.33504 -0.40025
#
# Static dielectric constant tensor:
#      x y z
#    x 1.729240 0.000000 0.000000 
#    y 0.000000 1.728600 0.000000 
#    z 0.000000 0.000000 1.707070 
# 
# From -- ./inp_files/57286.got.cif
#   From: 2010.05.17/outbox.cif.g08.bks.cpg/sg74_29_cif.got.tgz:57286.got - 2010.06.03 17:57:02.
