data_PCOD9536308
_publ_section_title
;
Structure prediction by ZEFSAII (Michael W. Deem and Ramdas Pophale) SiO2 
 PCOD9536308
Probable space group: I M M A
;
_chemical_formula_sum "Si O2"
_cell_formula_units_Z 64
_cell_length_a 19.631151
_cell_length_b 13.682933
_cell_length_c 8.958428
_cell_angle_alpha 90.000000
_cell_angle_beta 90.000000
_cell_angle_gamma 90.000000
_cell_volume 2406.338788
_symmetry_space_group_name_H-M "I M M A"
_symmetry_group_IT_number 74
_symmetry_cell_setting 'orthorhombic'
loop_
_space_group_symop_operation_xyz
x,y,z
-x,1/2-y,z
x,-y,-z
-x,1/2+y,-z
-x,-y,-z
x,1/2+y,-z
-x,y,z
x,1/2-y,z
1/2+x,1/2+y,1/2+z
1/2-x,-y,1/2+z
1/2+x,1/2-y,1/2-z
1/2-x,y,1/2-z
1/2-x,1/2-y,1/2-z
1/2+x,y,1/2-z
1/2-x,1/2+y,1/2+z
1/2+x,-y,1/2+z
loop_
_atom_site_type_symbol
_atom_site_label
_atom_site_fract_x
_atom_site_fract_y
_atom_site_fract_z
Si Si1 0.864717 0.359530 0.254213
Si Si2 0.000000 0.866940 0.937001
Si Si3 0.715970 0.614003 0.472533
Si Si4 0.146953 0.082829 0.671619
Si Si5 0.500000 0.366186 0.779598
O O1 0.875086 0.250000 0.323825
O O2 0.933131 0.386969 0.161154
O O3 0.846131 0.463882 0.331337
O O4 0.807746 0.345030 0.127715
O O5 0.000000 0.750000 0.955983
O O6 0.000000 0.906911 0.107429
O O7 0.713223 0.500000 0.500000
O O8 0.792305 0.634005 0.419339
O O9 0.662694 0.626639 0.337330
O O10 0.068961 0.103813 0.636791
O O11 0.500000 0.250000 0.771522
#
# Coordination Sequence:
#
# PCOD9536308 Si02
#       5
#    16   8  16  16   8
#     4  10  19  33  56  84 113 143 177 224 280 332
#     4   9  17  29  49  82 110 132 170 221 278 331
#     4   9  19  35  52  75 108 144 182 221 267 320
#     4  10  20  34  54  79 109 144 180 225 273 326
#     4  11  21  33  53  80 109 142 179 224 275 329
#
# _framework density 26.596422
#
# number of rings (size 3 to 8) (size 9 to 14) (size 15 to 20)
#    0.000    2.250    2.500    0.750    0.000    2.000 
#    0.000   13.125    0.000    1.500    0.000    1.750 
#    0.000    0.000    0.000    0.000    0.000    0.000 
#
# Total GULP energy -178910.173826 kJ/mol
# GULP energy per Si atom -5590.942932 kJ/mol
# Density = 2.653589 g / cm^3
# Si number density = 26.596422 Si / 1000 Ang^3
#
#
#
# Elastic Constant Matrix: (Units=GPa)
#
#
# Indices 1 2 3 4 5 6 
#
# 1 199.7132 27.7616 36.0755 0.0000 0.0000 0.0000
# 2 27.7616 170.4863 12.9995 0.0000 0.0000 0.0000
# 3 36.0755 12.9995 34.0632 0.0000 0.0000 0.0000
# 4 0.0000 0.0000 0.0000 17.3819 0.0000 0.0000
# 5 0.0000 0.0000 0.0000 0.0000 27.6074 0.0000
# 6 0.0000 0.0000 0.0000 0.0000 0.0000 -28.7371
#
#
#
# Elastic Compliance Matrix: (Units=1/GPa)
#
#
# Indices 1 2 3 4 5 6 
#
# 1 0.006237 -0.000527 -0.006405 0.000000 0.000000 0.000000
# 2 -0.000527 0.006086 -0.001764 0.000000 0.000000 0.000000
# 3 -0.006405 -0.001764 0.036813 0.000000 0.000000 0.000000
# 4 0.000000 0.000000 0.000000 0.057531 0.000000 0.000000
# 5 0.000000 0.000000 0.000000 0.000000 0.036222 0.000000
# 6 0.000000 0.000000 0.000000 0.000000 0.000000 -0.034798
#
#
# Mechanical properties :
#
#
# Convention : Reuss Voigt Hill
#
# Bulk Modulus (GPa) = 31.50136 61.99288 46.74712
# Shear Modulus (GPa) = 36.74698 25.07884 30.91291
#
# Velocity S-wave (km/s) = 3.72109 3.07406 3.41294
# Velocity P-wave (km/s) = 5.50744 5.99660 5.75722
#
# Compressibility (1/GPa) = 0.03174466
#
# Stress axis : x y z
#
# Youngs Moduli (GPa) = 160.32328 164.31272 27.16400
#
# Poissons Ratio (x) = 0.08665 0.17398
# Poissons Ratio (y) = 0.08454 0.04792
# Poissons Ratio (z) = 1.02681 0.28986
#
# Static dielectric constant tensor:
#      x y z
#    x 2.055520 0.000000 0.000000 
#    y 0.000000 2.129320 0.000000 
#    z 0.000000 0.000000 2.218450 
# 
# From -- ./inp_files/21621.got.cif
#   From: 2010.05.17/outbox.cif.g08.bks.cpg/sg74_11_cif.got.tgz:21621.got - 2010.06.03 17:57:02.
