data_PCOD9536195
_publ_section_title
;
Structure prediction by ZEFSAII (Michael W. Deem and Ramdas Pophale) SiO2 
 PCOD9536195
Probable space group: I M M A
;
_chemical_formula_sum "Si O2"
_cell_formula_units_Z 72
_cell_length_a 8.470243
_cell_length_b 29.994718
_cell_length_c 14.241679
_cell_angle_alpha 90.000000
_cell_angle_beta 90.000000
_cell_angle_gamma 90.000000
_cell_volume 3618.277286
_symmetry_space_group_name_H-M "I M M A"
_symmetry_group_IT_number 74
_symmetry_cell_setting 'orthorhombic'
loop_
_space_group_symop_operation_xyz
x,y,z
-x,1/2-y,z
x,-y,-z
-x,1/2+y,-z
-x,-y,-z
x,1/2+y,-z
-x,y,z
x,1/2-y,z
1/2+x,1/2+y,1/2+z
1/2-x,-y,1/2+z
1/2+x,1/2-y,1/2-z
1/2-x,y,1/2-z
1/2-x,1/2-y,1/2-z
1/2+x,y,1/2-z
1/2-x,1/2+y,1/2+z
1/2+x,-y,1/2+z
loop_
_atom_site_type_symbol
_atom_site_label
_atom_site_fract_x
_atom_site_fract_y
_atom_site_fract_z
Si Si1 0.690749 0.977745 0.357608
Si Si2 0.811506 0.338573 0.464891
Si Si3 0.189135 0.620931 0.144173
Si Si4 0.308752 0.750000 0.856469
Si Si5 0.190054 0.574751 0.857266
O O1 0.500000 0.977535 0.360349
O O2 0.750000 0.978874 0.250000
O O3 0.741863 0.928753 0.391054
O O4 0.739639 0.025962 0.397816
O O5 0.751616 0.343109 0.571092
O O6 0.755299 0.294400 0.411023
O O7 0.753675 0.382652 0.411261
O O8 0.000000 0.338066 0.464995
O O9 0.250000 0.626838 0.250000
O O10 0.000000 0.621478 0.144825
O O11 0.500000 0.750000 0.855241
O O12 0.250000 0.750000 0.750000
O O13 0.250000 0.576916 0.750000
O O14 0.000000 0.576198 0.858650
#
# Coordination Sequence:
#
# PCOD9536195 Si02
#       5
#    16  16  16   8  16
#     4   8  16  30  50  76 111 150 187 224 270 323
#     4  11  23  39  58  83 111 145 188 234 282 337
#     4  10  20  37  59  84 114 151 189 230 275 325
#     4  10  24  44  65  86 113 144 179 226 282 336
#     4  10  19  33  53  81 115 151 188 231 278 331
#
# _framework density 19.898973000000002
#
# number of rings (size 3 to 8) (size 9 to 14) (size 15 to 20)
#    0.000    2.222    0.000    2.667    0.000    6.222 
#    0.000    5.000    0.000    0.000    0.000    0.000 
#    0.000    0.000    0.000    0.000    0.000    0.000 
#
# Total GULP energy -200918.585468 kJ/mol
# GULP energy per Si atom -5581.071819 kJ/mol
# Density = 1.985368 g / cm^3
# Si number density = 19.898973 Si / 1000 Ang^3
#
#
#
# Elastic Constant Matrix: (Units=GPa)
#
#
# Indices 1 2 3 4 5 6 
#
# 1 36.6385 33.4912 24.5026 0.0000 0.0000 0.0000
# 2 33.4912 155.9404 93.4108 0.0000 0.0000 0.0003
# 3 24.5026 93.4108 125.5679 0.0001 0.0000 0.0005
# 4 0.0000 0.0000 0.0001 39.8692 0.0000 0.0006
# 5 0.0000 0.0000 0.0000 0.0000 28.0115 0.0001
# 6 0.0000 0.0003 0.0005 0.0006 0.0001 -39.8214
#
#
#
# Elastic Compliance Matrix: (Units=1/GPa)
#
#
# Indices 1 2 3 4 5 6 
#
# 1 0.034291 -0.006054 -0.002187 0.000000 0.000000 0.000000
# 2 -0.006054 0.012636 -0.008219 0.000000 0.000000 0.000000
# 3 -0.002187 -0.008219 0.014505 0.000000 0.000000 0.000000
# 4 0.000000 0.000000 0.000000 0.025082 0.000000 0.000000
# 5 0.000000 0.000000 0.000000 0.000000 0.035700 0.000000
# 6 0.000000 0.000000 0.000000 0.000000 0.000000 -0.025112
#
#
# Mechanical properties :
#
#
# Convention : Reuss Voigt Hill
#
# Bulk Modulus (GPa) = 35.07462 68.99512 52.03487
# Shear Modulus (GPa) = 35.83571 16.72799 26.28185
#
# Velocity S-wave (km/s) = 4.24828 2.90253 3.63817
# Velocity P-wave (km/s) = 6.45976 6.78092 6.62229
#
# Compressibility (1/GPa) = 0.02851064
#
# Stress axis : x y z
#
# Youngs Moduli (GPa) = 29.16230 79.13829 68.94359
#
# Poissons Ratio (x) = 0.47913 0.15081
# Poissons Ratio (y) = 0.17656 0.56663
# Poissons Ratio (z) = 0.06379 0.65041
#
# Static dielectric constant tensor:
#      x y z
#    x 1.685610 0.000000 0.000000 
#    y 0.000000 1.724740 0.000000 
#    z 0.000000 0.000000 1.662040 
# 
# From -- ./inp_files/29148.got.cif
#   From: 2010.05.17/outbox.cif.g08.bks.cpg/sg74_15_cif.got.tgz:29148.got - 2010.06.03 17:57:02.
