data_PCOD9536260
_publ_section_title
;
Structure prediction by ZEFSAII (Michael W. Deem and Ramdas Pophale) SiO2 
 PCOD9536260
Probable space group: I M M A
;
_chemical_formula_sum "Si O2"
_cell_formula_units_Z 96
_cell_length_a 8.678445
_cell_length_b 24.129218
_cell_length_c 26.131521
_cell_angle_alpha 90.000000
_cell_angle_beta 90.000000
_cell_angle_gamma 90.000000
_cell_volume 5472.047409
_symmetry_space_group_name_H-M "I M M A"
_symmetry_group_IT_number 74
_symmetry_cell_setting 'orthorhombic'
loop_
_space_group_symop_operation_xyz
x,y,z
-x,1/2-y,z
x,-y,-z
-x,1/2+y,-z
-x,-y,-z
x,1/2+y,-z
-x,y,z
x,1/2-y,z
1/2+x,1/2+y,1/2+z
1/2-x,-y,1/2+z
1/2+x,1/2-y,1/2-z
1/2-x,y,1/2-z
1/2-x,1/2-y,1/2-z
1/2+x,y,1/2-z
1/2-x,1/2+y,1/2+z
1/2+x,-y,1/2+z
loop_
_atom_site_type_symbol
_atom_site_label
_atom_site_fract_x
_atom_site_fract_y
_atom_site_fract_z
Si Si1 0.186054 0.685919 0.694189
Si Si2 0.186303 0.504180 0.439859
Si Si3 0.312345 0.884172 0.902848
Si Si4 0.184590 0.314065 0.693683
Si Si5 0.814322 0.314856 0.502905
Si Si6 0.183006 0.880306 0.099008
O O1 0.229916 0.750000 0.682993
O O2 0.250000 0.671442 0.750000
O O3 0.239868 0.645220 0.649221
O O4 0.000000 0.684105 0.695846
O O5 0.228961 0.500000 0.500000
O O6 0.234921 0.447514 0.411871
O O7 0.255366 0.558568 0.414177
O O8 0.000000 0.508148 0.438109
O O9 0.500000 0.883730 0.902070
O O10 0.266552 0.848033 0.952140
O O11 0.227805 0.250000 0.681132
O O12 0.250000 0.326208 0.750000
O O13 0.248607 0.355117 0.650989
O O14 0.000000 0.317123 0.694740
O O15 0.779706 0.250000 0.497951
O O16 0.737357 0.341247 0.552454
O O17 0.000000 0.320796 0.508154
O O18 0.000000 0.880980 0.102130
#
# Coordination Sequence:
#
# PCOD9536260 Si02
#       6
#    16  16  16  16  16  16
#     4   9  17  31  52  78 107 138 172 212 262 319
#     4  10  19  36  59  78 103 143 190 234 277 328
#     4   9  17  32  55  80 103 135 180 227 275 323
#     4  10  21  39  63  88 114 146 185 229 279 333
#     4  10  19  33  55  81 107 137 179 229 278 331
#     4  12  24  36  53  80 116 150 185 225 273 333
#
# _framework density 17.543707000000001
#
# number of rings (size 3 to 8) (size 9 to 14) (size 15 to 20)
#    0.000    2.000    1.667    3.000    0.000    5.667 
#    0.000    2.500    0.000    4.000    0.000    0.000 
#    0.000    0.000    0.000    0.000    0.000    0.000 
#
# Total GULP energy -268007.195354 kJ/mol
# GULP energy per Si atom -5583.483237 kJ/mol
# Density = 1.750378 g / cm^3
# Si number density = 17.543707 Si / 1000 Ang^3
#
#
#
# Elastic Constant Matrix: (Units=GPa)
#
#
# Indices 1 2 3 4 5 6 
#
# 1 35.1134 54.2635 46.1013 0.0000 0.0000 0.0000
# 2 54.2635 151.7078 108.0788 0.0000 0.0000 0.0000
# 3 46.1013 108.0788 158.4716 0.0000 0.0000 0.0000
# 4 0.0000 0.0000 0.0000 20.2266 0.0000 0.0000
# 5 0.0000 0.0000 0.0000 0.0000 28.6862 0.0000
# 6 0.0000 0.0000 0.0000 0.0000 0.0000 4.6627
#
#
#
# Elastic Compliance Matrix: (Units=1/GPa)
#
#
# Indices 1 2 3 4 5 6 
#
# 1 0.066559 -0.019475 -0.006081 0.000000 0.000000 0.000000
# 2 -0.019475 0.018519 -0.006965 0.000000 0.000000 0.000000
# 3 -0.006081 -0.006965 0.012829 0.000000 0.000000 0.000000
# 4 0.000000 0.000000 0.000000 0.049440 0.000000 0.000000
# 5 0.000000 0.000000 0.000000 0.000000 0.034860 0.000000
# 6 0.000000 0.000000 0.000000 0.000000 0.000000 0.214470
#
#
# Mechanical properties :
#
#
# Convention : Reuss Voigt Hill
#
# Bulk Modulus (GPa) = 30.42605 84.68666 57.55636
# Shear Modulus (GPa) = 10.57810 19.83837 15.20823
#
# Velocity S-wave (km/s) = 2.45818 3.36638 2.94747
# Velocity P-wave (km/s) = 5.04356 7.96785 6.66799
#
# Compressibility (1/GPa) = 0.03286657
#
# Stress axis : x y z
#
# Youngs Moduli (GPa) = 15.02419 53.99724 77.94691
#
# Poissons Ratio (x) = 1.05161 0.47396
# Poissons Ratio (y) = 0.29260 0.54288
# Poissons Ratio (z) = 0.09136 0.37608
#
# Static dielectric constant tensor:
#      x y z
#    x 1.593560 0.000000 0.000000 
#    y 0.000000 1.586540 0.000000 
#    z 0.000000 0.000000 1.568640 
# 
# From -- ./inp_files/57253.got.cif
#   From: 2010.05.17/outbox.cif.g08.bks.cpg/sg74_29_cif.got.tgz:57253.got - 2010.06.03 17:57:02.
