data_PCOD9536716
_publ_section_title
;
Structure prediction by ZEFSAII (Michael W. Deem and Ramdas Pophale) SiO2 
 PCOD9536716
Probable space group: I M M A
;
_chemical_formula_sum "Si O2"
_cell_formula_units_Z 80
_cell_length_a 20.620386
_cell_length_b 15.205109
_cell_length_c 11.959373
_cell_angle_alpha 90.000000
_cell_angle_beta 90.000000
_cell_angle_gamma 90.000000
_cell_volume 3749.684606
_symmetry_space_group_name_H-M "I M M A"
_symmetry_group_IT_number 74
_symmetry_cell_setting 'orthorhombic'
loop_
_space_group_symop_operation_xyz
x,y,z
-x,1/2-y,z
x,-y,-z
-x,1/2+y,-z
-x,-y,-z
x,1/2+y,-z
-x,y,z
x,1/2-y,z
1/2+x,1/2+y,1/2+z
1/2-x,-y,1/2+z
1/2+x,1/2-y,1/2-z
1/2-x,y,1/2-z
1/2-x,1/2-y,1/2-z
1/2+x,y,1/2-z
1/2-x,1/2+y,1/2+z
1/2+x,-y,1/2+z
loop_
_atom_site_type_symbol
_atom_site_label
_atom_site_fract_x
_atom_site_fract_y
_atom_site_fract_z
Si Si1 0.756505 0.850927 0.125826
Si Si2 0.370079 0.100536 0.998195
Si Si3 0.500000 0.856854 0.389765
Si Si4 0.627189 0.142157 0.473421
Si Si5 0.000000 0.143650 0.633537
Si Si6 0.925163 0.644559 0.738728
O O1 0.778557 0.750000 0.145883
O O2 0.750000 0.891875 0.250000
O O3 0.809696 0.889189 0.040626
O O4 0.687719 0.849693 0.063674
O O5 0.387754 0.127792 0.123805
O O6 0.435961 0.110756 0.928076
O O7 0.349356 0.000000 0.000000
O O8 0.500000 0.750000 0.388824
O O9 0.564203 0.883422 0.455220
O O10 0.500000 0.885348 0.261826
O O11 0.630262 0.250000 0.468319
O O12 0.613994 0.111285 0.346943
O O13 0.000000 0.250000 0.628080
O O14 0.930207 0.750000 0.750584
O O15 0.000000 0.611385 0.734818
#
# Coordination Sequence:
#
# PCOD9536716 Si02
#       6
#    16  16   8  16   8  16
#     4  10  21  40  64  89 119 157 204 253 299 353
#     4  12  25  40  57  85 122 160 196 247 302 361
#     4   9  16  30  59  95 118 139 187 250 299 341
#     4   9  17  32  59  93 120 146 188 245 299 346
#     4  11  21  36  63  89 113 152 203 248 292 351
#     4  10  19  35  62  91 120 152 193 244 296 354
#
# _framework density 21.335128000000001
#
# number of rings (size 3 to 8) (size 9 to 14) (size 15 to 20)
#    0.000    1.800    2.000    3.300    0.000    4.000 
#    3.600    3.000    0.000    1.200    0.000    0.000 
#    0.000    0.000    0.000    0.000    0.000    0.000 
#
# Total GULP energy -223445.861222 kJ/mol
# GULP energy per Si atom -5586.146531 kJ/mol
# Density = 2.128657 g / cm^3
# Si number density = 21.335128 Si / 1000 Ang^3
#
#
#
# Elastic Constant Matrix: (Units=GPa)
#
#
# Indices 1 2 3 4 5 6 
#
# 1 148.8808 -20.8568 95.1016 0.0000 0.0000 0.0000
# 2 -20.8568 28.3146 -11.6880 0.0000 0.0000 0.0000
# 3 95.1016 -11.6880 236.0154 0.0000 0.0000 0.0000
# 4 0.0000 0.0000 0.0000 -4.4141 0.0000 0.0000
# 5 0.0000 0.0000 0.0000 0.0000 28.4890 0.0000
# 6 0.0000 0.0000 0.0000 0.0000 0.0000 -109.5873
#
#
#
# Elastic Compliance Matrix: (Units=1/GPa)
#
#
# Indices 1 2 3 4 5 6 
#
# 1 0.009885 0.005755 -0.003698 0.000000 0.000000 0.000000
# 2 0.005755 0.039405 -0.000368 0.000000 0.000000 0.000000
# 3 -0.003698 -0.000368 0.005709 0.000000 0.000000 0.000000
# 4 0.000000 0.000000 0.000000 -0.226545 0.000000 0.000000
# 5 0.000000 0.000000 0.000000 0.000000 0.035101 0.000000
# 6 0.000000 0.000000 0.000000 0.000000 0.000000 -0.009125
#
#
# Mechanical properties :
#
#
# Convention : Reuss Voigt Hill
#
# Bulk Modulus (GPa) = 17.12978 59.81382 38.47180
# Shear Modulus (GPa) = -38.61356 6.27443 -16.16957
#
# Velocity S-wave (km/s) = -4.25886 1.71676 -2.75596
# Velocity P-wave (km/s) = 4.01715 5.65915 2.81855
#
# Compressibility (1/GPa) = 0.05837787
#
# Stress axis : x y z
#
# Youngs Moduli (GPa) = 101.15941 25.37747 175.16154
#
# Poissons Ratio (x) = -0.14605 0.64780
# Poissons Ratio (y) = -0.58218 0.06438
# Poissons Ratio (z) = 0.37412 0.00933
#
# Static dielectric constant tensor:
#      x y z
#    x 1.676820 0.000000 0.000000 
#    y 0.000000 1.800230 0.000000 
#    z 0.000000 0.000000 1.776550 
# 
# From -- ./inp_files/22091.got.cif
#   From: 2010.05.17/outbox.cif.g08.bks.cpg/sg74_12_cif.got.tgz:22091.got - 2010.06.03 17:57:02.
