data_PCOD9536571
_publ_section_title
;
Structure prediction by ZEFSAII (Michael W. Deem and Ramdas Pophale) SiO2 
 PCOD9536571
Probable space group: I M M A
;
_chemical_formula_sum "Si O2"
_cell_formula_units_Z 104
_cell_length_a 27.708803
_cell_length_b 9.405289
_cell_length_c 21.111636
_cell_angle_alpha 90.000000
_cell_angle_beta 90.000000
_cell_angle_gamma 90.000000
_cell_volume 5501.888681
_symmetry_space_group_name_H-M "I M M A"
_symmetry_group_IT_number 74
_symmetry_cell_setting 'orthorhombic'
loop_
_space_group_symop_operation_xyz
x,y,z
-x,1/2-y,z
x,-y,-z
-x,1/2+y,-z
-x,-y,-z
x,1/2+y,-z
-x,y,z
x,1/2-y,z
1/2+x,1/2+y,1/2+z
1/2-x,-y,1/2+z
1/2+x,1/2-y,1/2-z
1/2-x,y,1/2-z
1/2-x,1/2-y,1/2-z
1/2+x,y,1/2-z
1/2-x,1/2+y,1/2+z
1/2+x,-y,1/2+z
loop_
_atom_site_type_symbol
_atom_site_label
_atom_site_fract_x
_atom_site_fract_y
_atom_site_fract_z
Si Si1 0.877748 0.918436 0.661333
Si Si2 0.876196 0.418230 0.792925
Si Si3 0.441965 0.084812 0.935998
Si Si4 0.301049 0.907716 0.402228
Si Si5 0.120996 0.500000 0.000000
Si Si6 0.708475 0.583816 0.937468
Si Si7 0.056380 0.911696 0.884914
O O1 0.888211 0.750000 0.667127
O O2 0.829447 0.933966 0.619207
O O3 0.872162 0.992734 0.728966
O O4 0.918763 0.001322 0.622303
O O5 0.882508 0.250000 0.780987
O O6 0.828650 0.436135 0.836588
O O7 0.919812 0.480406 0.835262
O O8 0.500000 0.083958 0.930929
O O9 0.426098 0.250000 0.938909
O O10 0.429024 0.000000 0.000000
O O11 0.279278 0.750000 0.400547
O O12 0.342625 0.911204 0.455811
O O13 0.260225 0.020902 0.417863
O O14 0.086406 0.421582 0.049838
O O15 0.712683 0.750000 0.952257
O O16 0.692230 0.500000 0.000000
O O17 0.060835 0.750000 0.860573
O O18 0.000000 0.942125 0.895687
#
# Coordination Sequence:
#
# PCOD9536571 Si02
#       7
#    16  16  16  16   8  16  16
#     4  11  24  41  61  87 118 157 198 242 296 353
#     4  10  23  41  60  84 115 155 199 247 298 354
#     4  10  21  38  62  91 120 152 191 238 292 350
#     4  10  21  37  59  86 116 153 198 242 295 353
#     4  10  19  34  60  90 120 156 201 246 296 350
#     4  11  24  39  60  89 120 152 193 242 294 351
#     4  10  21  37  59  88 122 160 202 249 299 354
#
# _framework density 18.9026
#
# number of rings (size 3 to 8) (size 9 to 14) (size 15 to 20)
#    0.000    1.692    0.769    3.000    0.000    9.846 
#    0.000    3.077    0.000    0.000    0.000    0.000 
#    0.000    0.000    0.000    0.000    0.000    0.000 
#
# Total GULP energy -290442.190440 kJ/mol
# GULP energy per Si atom -5585.426739 kJ/mol
# Density = 1.885958 g / cm^3
# Si number density = 18.902600 Si / 1000 Ang^3
#
#
#
# Elastic Constant Matrix: (Units=GPa)
#
#
# Indices 1 2 3 4 5 6 
#
# 1 72.2930 57.4213 35.5593 0.0000 0.0000 0.0000
# 2 57.4213 156.1569 84.8002 0.0000 0.0000 0.0000
# 3 35.5593 84.8002 147.0139 0.0000 0.0000 0.0000
# 4 0.0000 0.0000 0.0000 29.4285 0.0000 0.0000
# 5 0.0000 0.0000 0.0000 0.0000 14.6688 0.0000
# 6 0.0000 0.0000 0.0000 0.0000 0.0000 16.6489
#
#
#
# Elastic Compliance Matrix: (Units=1/GPa)
#
#
# Indices 1 2 3 4 5 6 
#
# 1 0.019612 -0.006750 -0.000850 0.000000 0.000000 0.000000
# 2 -0.006750 0.011648 -0.005086 0.000000 0.000000 0.000000
# 3 -0.000850 -0.005086 0.009941 0.000000 0.000000 0.000000
# 4 0.000000 0.000000 0.000000 0.033981 0.000000 0.000000
# 5 0.000000 0.000000 0.000000 0.000000 0.068172 0.000000
# 6 0.000000 0.000000 0.000000 0.000000 0.000000 0.060064
#
#
# Mechanical properties :
#
#
# Convention : Reuss Voigt Hill
#
# Bulk Modulus (GPa) = 63.17513 81.22507 72.20010
# Shear Modulus (GPa) = 21.36141 25.32810 23.34476
#
# Velocity S-wave (km/s) = 3.36531 3.66447 3.51807
# Velocity P-wave (km/s) = 6.97097 7.80821 7.40143
#
# Compressibility (1/GPa) = 0.01582901
#
# Stress axis : x y z
#
# Youngs Moduli (GPa) = 50.98853 85.85292 100.58918
#
# Poissons Ratio (x) = 0.57951 0.08552
# Poissons Ratio (y) = 0.34417 0.51160
# Poissons Ratio (z) = 0.04335 0.43665
#
# Static dielectric constant tensor:
#      x y z
#    x 1.639460 0.000000 0.000000 
#    y 0.000000 1.648640 0.000000 
#    z 0.000000 0.000000 1.636690 
# 
# From -- ./inp_files/55262.got.cif
#   From: 2010.05.17/outbox.cif.g08.bks.cpg/sg74_28_cif.got.tgz:55262.got - 2010.06.03 17:57:02.
