data_PCOD9536324
_publ_section_title
;
Structure prediction by ZEFSAII (Michael W. Deem and Ramdas Pophale) SiO2 
 PCOD9536324
Probable space group: I M M A
;
_chemical_formula_sum "Si O2"
_cell_formula_units_Z 80
_cell_length_a 22.128914
_cell_length_b 8.134958
_cell_length_c 21.739366
_cell_angle_alpha 90.000000
_cell_angle_beta 90.000000
_cell_angle_gamma 90.000000
_cell_volume 3913.472536
_symmetry_space_group_name_H-M "I M M A"
_symmetry_group_IT_number 74
_symmetry_cell_setting 'orthorhombic'
loop_
_space_group_symop_operation_xyz
x,y,z
-x,1/2-y,z
x,-y,-z
-x,1/2+y,-z
-x,-y,-z
x,1/2+y,-z
-x,y,z
x,1/2-y,z
1/2+x,1/2+y,1/2+z
1/2-x,-y,1/2+z
1/2+x,1/2-y,1/2-z
1/2-x,y,1/2-z
1/2-x,1/2-y,1/2-z
1/2+x,y,1/2-z
1/2-x,1/2+y,1/2+z
1/2+x,-y,1/2+z
loop_
_atom_site_type_symbol
_atom_site_label
_atom_site_fract_x
_atom_site_fract_y
_atom_site_fract_z
Si Si1 0.192202 0.067432 0.103384
Si Si2 0.260834 0.250000 0.676809
Si Si3 0.071627 0.250000 0.690849
Si Si4 0.789384 0.500000 0.500000
Si Si5 0.648851 0.750000 0.086063
Si Si6 0.433088 0.448084 0.598913
Si Si7 0.570674 0.932862 0.740429
O O1 0.190385 0.250000 0.132119
O O2 0.206077 0.915235 0.150090
O O3 0.127180 0.028885 0.072486
O O4 0.243102 0.071200 0.050701
O O5 0.250000 0.250000 0.750000
O O6 0.196723 0.250000 0.642017
O O7 0.085017 0.250000 0.618860
O O8 0.097458 0.416843 0.720844
O O9 0.000000 0.250000 0.704377
O O10 0.834022 0.397828 0.542343
O O11 0.500000 0.496278 0.575446
O O12 0.429266 0.250000 0.597063
O O13 0.429878 0.510318 0.669645
O O14 0.500000 0.920256 0.758334
O O15 0.597124 0.750000 0.748033
#
# Coordination Sequence:
#
# PCOD9536324 Si02
#       7
#    16   8   8   8   8  16  16
#     4  11  22  39  66  87 118 166 215 264 310 373
#     4  10  24  40  59  93 128 157 209 265 322 371
#     4  10  20  36  60  94 125 159 194 246 319 378
#     4  10  22  46  64  84 108 164 226 258 318 356
#     4  10  22  42  68  83 120 160 205 271 302 380
#     4  10  19  33  56  89 129 172 206 243 309 374
#     4   9  17  31  52  81 126 169 197 228 289 380
#
# _framework density 20.442202000000002
#
# number of rings (size 3 to 8) (size 9 to 14) (size 15 to 20)
#    0.000    2.000    3.000    0.600    2.800    1.600 
#    1.800    1.000    0.000    0.000    0.000    0.000 
#    0.000    0.000    0.000    0.000    0.000    0.000 
#
# Total GULP energy -222833.917929 kJ/mol
# GULP energy per Si atom -5570.847948 kJ/mol
# Density = 2.039567 g / cm^3
# Si number density = 20.442202 Si / 1000 Ang^3
#
#
#
# Elastic Constant Matrix: (Units=GPa)
#
#
# Indices 1 2 3 4 5 6 
#
# 1 19.4721 24.7786 6.4961 0.0000 0.0000 0.0000
# 2 24.7786 152.3366 45.4633 0.0000 0.0000 0.0000
# 3 6.4961 45.4633 103.3362 0.0000 0.0000 0.0000
# 4 0.0000 0.0000 0.0000 12.9235 0.0000 0.0000
# 5 0.0000 0.0000 0.0000 0.0000 29.4187 0.0000
# 6 0.0000 0.0000 0.0000 0.0000 0.0000 8.4192
#
#
#
# Elastic Compliance Matrix: (Units=1/GPa)
#
#
# Indices 1 2 3 4 5 6 
#
# 1 0.064798 -0.010733 0.000649 0.000000 0.000000 0.000000
# 2 -0.010733 0.009335 -0.003432 0.000000 0.000000 0.000000
# 3 0.000649 -0.003432 0.011146 0.000000 0.000000 0.000000
# 4 0.000000 0.000000 0.000000 0.077378 0.000000 0.000000
# 5 0.000000 0.000000 0.000000 0.000000 0.033992 0.000000
# 6 0.000000 0.000000 0.000000 0.000000 0.000000 0.118776
#
#
# Mechanical properties :
#
#
# Convention : Reuss Voigt Hill
#
# Bulk Modulus (GPa) = 17.16880 47.62453 32.39667
# Shear Modulus (GPa) = 13.81701 23.37942 18.59822
#
# Velocity S-wave (km/s) = 2.60264 3.38551 3.01955
# Velocity P-wave (km/s) = 4.17715 6.21530 5.29521
#
# Compressibility (1/GPa) = 0.05824520
#
# Stress axis : x y z
#
# Youngs Moduli (GPa) = 15.43265 107.12920 89.71582
#
# Poissons Ratio (x) = 1.14986 -0.05821
# Poissons Ratio (y) = 0.16564 0.30791
# Poissons Ratio (z) = -0.01001 0.36767
#
# Static dielectric constant tensor:
#      x y z
#    x 1.789890 0.000000 0.000000 
#    y 0.000000 1.761830 0.000000 
#    z 0.000000 0.000000 1.706860 
# 
# From -- ./inp_files/54463.got.cif
#   From: 2010.05.17/outbox.cif.g08.bks.cpg/sg74_28_cif.got.tgz:54463.got - 2010.06.03 17:57:02.
