data_PCOD9536174
_publ_section_title
;
Structure prediction by ZEFSAII (Michael W. Deem and Ramdas Pophale) SiO2 
 PCOD9536174
Probable space group: I M M A
;
_chemical_formula_sum "Si O2"
_cell_formula_units_Z 96
_cell_length_a 8.652792
_cell_length_b 32.751159
_cell_length_c 19.044769
_cell_angle_alpha 90.000000
_cell_angle_beta 90.000000
_cell_angle_gamma 90.000000
_cell_volume 5397.077406
_symmetry_space_group_name_H-M "I M M A"
_symmetry_group_IT_number 74
_symmetry_cell_setting 'orthorhombic'
loop_
_space_group_symop_operation_xyz
x,y,z
-x,1/2-y,z
x,-y,-z
-x,1/2+y,-z
-x,-y,-z
x,1/2+y,-z
-x,y,z
x,1/2-y,z
1/2+x,1/2+y,1/2+z
1/2-x,-y,1/2+z
1/2+x,1/2-y,1/2-z
1/2-x,y,1/2-z
1/2-x,1/2-y,1/2-z
1/2+x,y,1/2-z
1/2-x,1/2+y,1/2+z
1/2+x,-y,1/2+z
loop_
_atom_site_type_symbol
_atom_site_label
_atom_site_fract_x
_atom_site_fract_y
_atom_site_fract_z
Si Si1 0.685073 0.410930 0.670996
Si Si2 0.184098 0.250000 0.087812
Si Si3 0.815221 0.160415 0.574668
Si Si4 0.684183 0.585342 0.829165
Si Si5 0.814787 0.501183 0.829425
Si Si6 0.184783 0.250000 0.568420
Si Si7 0.813503 0.660835 0.916378
O O1 0.500000 0.408543 0.674178
O O2 0.750000 0.407756 0.750000
O O3 0.749907 0.374901 0.623511
O O4 0.725073 0.456296 0.641480
O O5 0.239289 0.205473 0.113103
O O6 0.000000 0.250000 0.096618
O O7 0.225771 0.250000 0.005330
O O8 0.780018 0.206357 0.603117
O O9 0.743719 0.157752 0.496741
O O10 0.000000 0.156465 0.569492
O O11 0.500000 0.585048 0.826403
O O12 0.750000 0.588100 0.750000
O O13 0.743216 0.542235 0.861138
O O14 0.745234 0.623657 0.872646
O O15 0.750000 0.500133 0.750000
O O16 0.000000 0.505261 0.827917
O O17 0.000000 0.250000 0.553588
O O18 0.000000 0.659349 0.915054
#
# Coordination Sequence:
#
# PCOD9536174 Si02
#       7
#    16   8  16  16  16   8  16
#     4  10  20  34  53  77 103 133 169 209 253 300
#     4   8  16  30  51  74  97 130 168 204 244 296
#     4  10  19  33  53  77 104 134 169 208 251 299
#     4  11  21  34  53  77 103 133 169 207 250 298
#     4   9  17  31  51  73  98 130 167 205 247 298
#     4   8  16  30  49  72  99 132 168 204 244 296
#     4  10  19  34  54  77 104 133 168 208 251 298
#
# _framework density 17.787405
#
# number of rings (size 3 to 8) (size 9 to 14) (size 15 to 20)
#    0.000    2.333    0.000    4.500    0.000    3.333 
#    0.000    1.667    0.000    5.000    0.000    0.000 
#    0.000    0.000    0.000    0.000    0.000    0.000 
#
# Total GULP energy -267428.973844 kJ/mol
# GULP energy per Si atom -5571.436955 kJ/mol
# Density = 1.774692 g / cm^3
# Si number density = 17.787405 Si / 1000 Ang^3
#
#
#
# Elastic Constant Matrix: (Units=GPa)
#
#
# Indices 1 2 3 4 5 6 
#
# 1 85.3235 70.3169 25.3949 0.0000 0.0000 0.0000
# 2 70.3169 227.9935 65.2152 0.0000 0.0000 0.0000
# 3 25.3949 65.2152 39.8033 0.0000 0.0000 0.0000
# 4 0.0000 0.0000 0.0000 33.9058 0.0000 0.0000
# 5 0.0000 0.0000 0.0000 0.0000 25.8140 0.0000
# 6 0.0000 0.0000 0.0000 0.0000 0.0000 25.9544
#
#
#
# Elastic Compliance Matrix: (Units=1/GPa)
#
#
# Indices 1 2 3 4 5 6 
#
# 1 0.016047 -0.003803 -0.004007 0.000000 0.000000 0.000000
# 2 -0.003803 0.009156 -0.012575 0.000000 0.000000 0.000000
# 3 -0.004007 -0.012575 0.048284 0.000000 0.000000 0.000000
# 4 0.000000 0.000000 0.000000 0.029493 0.000000 0.000000
# 5 0.000000 0.000000 0.000000 0.000000 0.038739 0.000000
# 6 0.000000 0.000000 0.000000 0.000000 0.000000 0.038529
#
#
# Mechanical properties :
#
#
# Convention : Reuss Voigt Hill
#
# Bulk Modulus (GPa) = 30.56605 74.99714 52.78160
# Shear Modulus (GPa) = 21.55878 29.94773 25.75325
#
# Velocity S-wave (km/s) = 3.48519 4.10768 3.80917
# Velocity P-wave (km/s) = 5.78073 8.04686 7.00603
#
# Compressibility (1/GPa) = 0.03271604
#
# Stress axis : x y z
#
# Youngs Moduli (GPa) = 62.31772 109.21831 20.71079
#
# Poissons Ratio (x) = 0.41534 0.08299
# Poissons Ratio (y) = 0.23699 0.26044
# Poissons Ratio (z) = 0.24972 1.37345
#
# Static dielectric constant tensor:
#      x y z
#    x 1.600340 0.000000 0.000000 
#    y 0.000000 1.675550 0.000000 
#    z 0.000000 0.000000 1.557050 
# 
# From -- ./inp_files/57547.got.cif
#   From: 2010.05.17/outbox.cif.g08.bks.cpg/sg74_29_cif.got.tgz:57547.got - 2010.06.03 17:57:02.
