data_PCOD9536575
_publ_section_title
;
Structure prediction by ZEFSAII (Michael W. Deem and Ramdas Pophale) SiO2 
 PCOD9536575
Probable space group: I M M A
;
_chemical_formula_sum "Si O2"
_cell_formula_units_Z 104
_cell_length_a 20.862056
_cell_length_b 25.257815
_cell_length_c 9.919473
_cell_angle_alpha 90.000000
_cell_angle_beta 90.000000
_cell_angle_gamma 90.000000
_cell_volume 5226.867422
_symmetry_space_group_name_H-M "I M M A"
_symmetry_group_IT_number 74
_symmetry_cell_setting 'orthorhombic'
loop_
_space_group_symop_operation_xyz
x,y,z
-x,1/2-y,z
x,-y,-z
-x,1/2+y,-z
-x,-y,-z
x,1/2+y,-z
-x,y,z
x,1/2-y,z
1/2+x,1/2+y,1/2+z
1/2-x,-y,1/2+z
1/2+x,1/2-y,1/2-z
1/2-x,y,1/2-z
1/2-x,1/2-y,1/2-z
1/2+x,y,1/2-z
1/2-x,1/2+y,1/2+z
1/2+x,-y,1/2+z
loop_
_atom_site_type_symbol
_atom_site_label
_atom_site_fract_x
_atom_site_fract_y
_atom_site_fract_z
Si Si1 0.365238 0.596139 0.048865
Si Si2 0.681664 0.453315 0.692332
Si Si3 0.000000 0.912028 0.339833
Si Si4 0.143382 0.936593 0.742580
Si Si5 0.735178 0.309411 0.909008
Si Si6 0.500000 0.883399 0.468137
Si Si7 0.355805 0.366016 0.474356
Si Si8 0.500000 0.969095 0.698127
O O1 0.360063 0.558056 0.177235
O O2 0.440751 0.604655 0.063949
O O3 0.320526 0.647673 0.064102
O O4 0.341485 0.567446 0.914025
O O5 0.750000 0.436871 0.750000
O O6 0.677668 0.515928 0.676640
O O7 0.657663 0.417094 0.571682
O O8 0.000000 0.882690 0.194659
O O9 0.000000 0.972564 0.273926
O O10 0.158580 0.883282 0.822166
O O11 0.067360 0.945883 0.753825
O O12 0.715396 0.250000 0.947024
O O13 0.750000 0.310594 0.750000
O O14 0.802821 0.324425 0.978648
O O15 0.567702 0.856783 0.511240
O O16 0.500000 0.943170 0.540273
#
# Coordination Sequence:
#
# PCOD9536575 Si02
#       8
#    16  16   8  16  16   8  16   8
#     4  12  23  39  57  91 120 160 202 246 297 351
#     4  12  22  36  56  86 124 164 200 237 290 349
#     4  12  20  34  62  84 126 161 208 237 283 358
#     4  11  25  34  57  87 133 159 196 239 288 363
#     4  11  23  45  68  86 113 153 203 262 316 353
#     4  10  19  34  61  86 123 154 206 245 286 348
#     4  11  21  41  59  89 118 162 200 242 300 357
#     4  10  20  36  51  90 124 174 191 231 291 354
#
# _framework density 19.897193999999999
#
# number of rings (size 3 to 8) (size 9 to 14) (size 15 to 20)
#    0.000    0.769    6.154    1.615    2.154    4.308 
#    0.000    2.308    0.000    2.769    0.000    3.231 
#    0.000    0.000    0.000    0.000    0.000    0.000 
#
# Total GULP energy -289519.455356 kJ/mol
# GULP energy per Si atom -5567.681834 kJ/mol
# Density = 1.985191 g / cm^3
# Si number density = 19.897194 Si / 1000 Ang^3
#
#
#
# Elastic Constant Matrix: (Units=GPa)
#
#
# Indices 1 2 3 4 5 6 
#
# 1 107.4920 22.2215 -12.9856 0.0000 0.0000 0.0000
# 2 22.2215 62.5380 11.0518 0.0000 0.0000 0.0000
# 3 -12.9856 11.0518 50.5157 0.0000 0.0000 0.0000
# 4 0.0000 0.0000 0.0000 5.9394 0.0000 0.0000
# 5 0.0000 0.0000 0.0000 0.0000 28.9059 0.0000
# 6 0.0000 0.0000 0.0000 0.0000 0.0000 22.7646
#
#
#
# Elastic Compliance Matrix: (Units=1/GPa)
#
#
# Indices 1 2 3 4 5 6 
#
# 1 0.010672 -0.004449 0.003717 0.000000 0.000000 0.000000
# 2 -0.004449 0.018488 -0.005188 0.000000 0.000000 0.000000
# 3 0.003717 -0.005188 0.021886 0.000000 0.000000 0.000000
# 4 0.000000 0.000000 0.000000 0.168367 0.000000 0.000000
# 5 0.000000 0.000000 0.000000 0.000000 0.034595 0.000000
# 6 0.000000 0.000000 0.000000 0.000000 0.000000 0.043928
#
#
# Mechanical properties :
#
#
# Convention : Reuss Voigt Hill
#
# Bulk Modulus (GPa) = 25.50708 29.01347 27.26027
# Shear Modulus (GPa) = 15.48728 24.87251 20.17989
#
# Velocity S-wave (km/s) = 2.79295 3.53944 3.18812
# Velocity P-wave (km/s) = 4.82162 5.59615 5.22326
#
# Compressibility (1/GPa) = 0.03920480
#
# Stress axis : x y z
#
# Youngs Moduli (GPa) = 93.70606 54.08935 45.69061
#
# Poissons Ratio (x) = 0.24063 -0.16981
# Poissons Ratio (y) = 0.41687 0.23706
# Poissons Ratio (z) = -0.34826 0.28064
#
# Static dielectric constant tensor:
#      x y z
#    x 1.776360 0.000000 0.000000 
#    y 0.000000 1.700100 0.000000 
#    z 0.000000 0.000000 1.769590 
# 
# From -- ./inp_files/12829.got.cif
#   From: 2010.05.17/outbox.cif.g08.bks.cpg/sg74_7_cif.got.tgz:12829.got - 2010.06.03 17:57:02.
