data_PCOD9536816
_publ_section_title
;
Structure prediction by ZEFSAII (Michael W. Deem and Ramdas Pophale) SiO2 
 PCOD9536816
Probable space group: I M M A
;
_chemical_formula_sum "Si O2"
_cell_formula_units_Z 88
_cell_length_a 22.905403
_cell_length_b 7.706998
_cell_length_c 23.632025
_cell_angle_alpha 90.000000
_cell_angle_beta 90.000000
_cell_angle_gamma 90.000000
_cell_volume 4171.806159
_symmetry_space_group_name_H-M "I M M A"
_symmetry_group_IT_number 74
_symmetry_cell_setting 'orthorhombic'
loop_
_space_group_symop_operation_xyz
x,y,z
-x,1/2-y,z
x,-y,-z
-x,1/2+y,-z
-x,-y,-z
x,1/2+y,-z
-x,y,z
x,1/2-y,z
1/2+x,1/2+y,1/2+z
1/2-x,-y,1/2+z
1/2+x,1/2-y,1/2-z
1/2-x,y,1/2-z
1/2-x,1/2-y,1/2-z
1/2+x,y,1/2-z
1/2-x,1/2+y,1/2+z
1/2+x,-y,1/2+z
loop_
_atom_site_type_symbol
_atom_site_label
_atom_site_fract_x
_atom_site_fract_y
_atom_site_fract_z
Si Si1 0.623674 0.961840 0.617492
Si Si2 0.500000 0.540860 0.567020
Si Si3 0.688387 0.448732 0.269731
Si Si4 0.342365 0.545984 0.150637
Si Si5 0.742288 0.043960 0.436246
Si Si6 0.934164 0.041769 0.561676
O O1 0.620479 0.750000 0.618673
O O2 0.559887 0.022514 0.597217
O O3 0.649168 0.018970 0.678927
O O4 0.675451 0.012966 0.574393
O O5 0.500000 0.750000 0.571722
O O6 0.500000 0.500000 0.500000
O O7 0.702757 0.250000 0.287101
O O8 0.750000 0.533852 0.250000
O O9 0.655668 0.451938 0.210317
O O10 0.350999 0.750000 0.161619
O O11 0.283281 0.527724 0.113694
O O12 0.392729 0.475433 0.110183
O O13 0.744473 0.250000 0.430279
O O14 0.760993 0.000000 0.500000
O O15 0.936227 0.250000 0.566474
O O16 0.000000 0.973286 0.564657
O O17 0.909893 0.000000 0.500000
#
# Coordination Sequence:
#
# PCOD9536816 Si02
#       6
#    16   8  16  16  16  16
#     4   9  19  36  58  81 110 149 186 228 280 334
#     4  10  20  38  62  86 114 148 193 238 283 338
#     4  10  19  37  59  78 107 147 184 222 275 333
#     4  11  22  35  54  82 110 142 182 227 275 327
#     4  11  21  35  54  81 113 145 180 225 280 333
#     4   9  19  36  55  75 105 141 176 217 267 320
#
# _framework density 21.093979999999998
#
# number of rings (size 3 to 8) (size 9 to 14) (size 15 to 20)
#    0.000    2.000    1.818    2.182    0.000    3.273 
#    1.636    1.818    0.000    0.000    0.000    0.000 
#    0.000    0.000    0.000    0.000    0.000    0.000 
#
# Total GULP energy -245522.297862 kJ/mol
# GULP energy per Si atom -5580.052224 kJ/mol
# Density = 2.104597 g / cm^3
# Si number density = 21.093980 Si / 1000 Ang^3
#
#
#
# Elastic Constant Matrix: (Units=GPa)
#
#
# Indices 1 2 3 4 5 6 
#
# 1 121.4026 -0.4614 65.7918 0.0000 0.0000 0.0000
# 2 -0.4614 42.3222 -2.7669 0.0000 0.0000 0.0000
# 3 65.7918 -2.7669 151.7974 0.0000 0.0000 0.0000
# 4 0.0000 0.0000 0.0000 20.8038 0.0000 0.0000
# 5 0.0000 0.0000 0.0000 0.0000 8.2308 0.0000
# 6 0.0000 0.0000 0.0000 0.0000 0.0000 15.2604
#
#
#
# Elastic Compliance Matrix: (Units=1/GPa)
#
#
# Indices 1 2 3 4 5 6 
#
# 1 0.010767 -0.000188 -0.004670 0.000000 0.000000 0.000000
# 2 -0.000188 0.023660 0.000513 0.000000 0.000000 0.000000
# 3 -0.004670 0.000513 0.008621 0.000000 0.000000 0.000000
# 4 0.000000 0.000000 0.000000 0.048068 0.000000 0.000000
# 5 0.000000 0.000000 0.000000 0.000000 0.121495 0.000000
# 6 0.000000 0.000000 0.000000 0.000000 0.000000 0.065529
#
#
# Mechanical properties :
#
#
# Convention : Reuss Voigt Hill
#
# Bulk Modulus (GPa) = 29.10575 48.96102 39.03339
# Shear Modulus (GPa) = 16.76259 25.72292 21.24276
#
# Velocity S-wave (km/s) = 2.82203 3.49584 3.17685
# Velocity P-wave (km/s) = 4.94435 6.28934 5.65696
#
# Compressibility (1/GPa) = 0.03435747
#
# Stress axis : x y z
#
# Youngs Moduli (GPa) = 92.87429 42.26587 115.99311
#
# Poissons Ratio (x) = 0.00794 0.54171
# Poissons Ratio (y) = 0.01745 -0.05947
# Poissons Ratio (z) = 0.43374 -0.02167
#
# Static dielectric constant tensor:
#      x y z
#    x 1.800550 0.000000 0.000000 
#    y 0.000000 1.805830 0.000000 
#    z 0.000000 0.000000 1.772270 
# 
# From -- ./inp_files/48697.got.cif
#   From: 2010.05.17/outbox.cif.g08.bks.cpg/sg74_25_cif.got.tgz:48697.got - 2010.06.03 17:57:02.
