data_PCOD9536612
_publ_section_title
;
Structure prediction by ZEFSAII (Michael W. Deem and Ramdas Pophale) SiO2 
 PCOD9536612
Probable space group: I M M A
;
_chemical_formula_sum "Si O2"
_cell_formula_units_Z 120
_cell_length_a 27.572952
_cell_length_b 9.097006
_cell_length_c 28.234870
_cell_angle_alpha 90.000000
_cell_angle_beta 90.000000
_cell_angle_gamma 90.000000
_cell_volume 7082.189424
_symmetry_space_group_name_H-M "I M M A"
_symmetry_group_IT_number 74
_symmetry_cell_setting 'orthorhombic'
loop_
_space_group_symop_operation_xyz
x,y,z
-x,1/2-y,z
x,-y,-z
-x,1/2+y,-z
-x,-y,-z
x,1/2+y,-z
-x,y,z
x,1/2-y,z
1/2+x,1/2+y,1/2+z
1/2-x,-y,1/2+z
1/2+x,1/2-y,1/2-z
1/2-x,y,1/2-z
1/2-x,1/2-y,1/2-z
1/2+x,y,1/2-z
1/2-x,1/2+y,1/2+z
1/2+x,-y,1/2+z
loop_
_atom_site_type_symbol
_atom_site_label
_atom_site_fract_x
_atom_site_fract_y
_atom_site_fract_z
Si Si1 0.392986 0.572502 0.448064
Si Si2 0.500000 0.073598 0.551534
Si Si3 0.197640 0.573983 0.117311
Si Si4 0.703042 0.075110 0.280715
Si Si5 0.361558 0.076704 0.192556
Si Si6 0.296131 0.575926 0.897853
Si Si7 0.895369 0.425178 0.450213
Si Si8 0.444075 0.576051 0.138681
O O1 0.387964 0.500000 0.500000
O O2 0.390956 0.750000 0.453448
O O3 0.446942 0.534205 0.427929
O O4 0.349274 0.528549 0.413402
O O5 0.500000 0.250000 0.546915
O O6 0.500000 0.000000 0.500000
O O7 0.198606 0.750000 0.119577
O O8 0.196812 0.507855 0.170153
O O9 0.247469 0.514452 0.094563
O O10 0.708770 0.250000 0.290274
O O11 0.750000 0.028993 0.250000
O O12 0.658322 0.053853 0.244982
O O13 0.372469 0.250000 0.185827
O O14 0.319303 0.043274 0.153989
O O15 0.407862 0.982281 0.178752
O O16 0.285364 0.750000 0.899198
O O17 0.339717 0.545017 0.934250
O O18 0.905734 0.500000 0.500000
O O19 0.901573 0.250000 0.452422
O O20 0.928560 0.492236 0.409044
O O21 0.500000 0.547329 0.149952
O O22 0.437446 0.750000 0.131751
#
# Coordination Sequence:
#
# PCOD9536612 Si02
#       8
#    16   8  16  16  16  16  16  16
#     4   9  19  34  52  76 103 134 172 210 251 300
#     4   8  14  30  54  72  92 126 166 206 246 290
#     4  11  22  32  48  80 112 136 171 215 258 307
#     4  10  19  35  56  77 104 138 175 212 256 309
#     4   9  18  34  56  77  98 132 175 216 259 309
#     4   9  18  34  51  70  99 137 173 207 256 313
#     4  10  21  36  54  75 102 138 179 221 266 315
#     4  10  21  36  55  79 106 136 173 219 269 320
#
# _framework density 16.943913999999999
#
# number of rings (size 3 to 8) (size 9 to 14) (size 15 to 20)
#    0.000    2.400    1.333    2.000    0.000    6.400 
#    0.000    2.667    1.467    0.000    0.000    0.000 
#    0.000    0.000    0.000    0.000    0.000    0.000 
#
# Total GULP energy -334543.765971 kJ/mol
# GULP energy per Si atom -5575.729433 kJ/mol
# Density = 1.690535 g / cm^3
# Si number density = 16.943914 Si / 1000 Ang^3
#
#
#
# Elastic Constant Matrix: (Units=GPa)
#
#
# Indices 1 2 3 4 5 6 
#
# 1 130.2586 56.2091 36.2469 0.0000 0.0000 0.0000
# 2 56.2091 44.5074 26.4115 0.0000 0.0000 0.0000
# 3 36.2469 26.4115 51.6825 0.0000 0.0000 0.0000
# 4 0.0000 0.0000 0.0000 26.7893 0.0000 0.0000
# 5 0.0000 0.0000 0.0000 0.0000 13.4550 0.0000
# 6 0.0000 0.0000 0.0000 0.0000 0.0000 27.3175
#
#
#
# Elastic Compliance Matrix: (Units=1/GPa)
#
#
# Indices 1 2 3 4 5 6 
#
# 1 0.016938 -0.020584 -0.001360 0.000000 0.000000 0.000000
# 2 -0.020584 0.057262 -0.014827 0.000000 0.000000 0.000000
# 3 -0.001360 -0.014827 0.027880 0.000000 0.000000 0.000000
# 4 0.000000 0.000000 0.000000 0.037328 0.000000 0.000000
# 5 0.000000 0.000000 0.000000 0.000000 0.074322 0.000000
# 6 0.000000 0.000000 0.000000 0.000000 0.000000 0.036607
#
#
# Mechanical properties :
#
#
# Convention : Reuss Voigt Hill
#
# Bulk Modulus (GPa) = 35.04034 51.57591 43.30813
# Shear Modulus (GPa) = 14.99740 20.68443 17.84091
#
# Velocity S-wave (km/s) = 2.97832 3.49773 3.24842
# Velocity P-wave (km/s) = 5.70546 6.84232 6.29959
#
# Compressibility (1/GPa) = 0.02853854
#
# Stress axis : x y z
#
# Youngs Moduli (GPa) = 59.03918 17.46344 35.86839
#
# Poissons Ratio (x) = 0.35947 0.04878
# Poissons Ratio (y) = 1.21527 0.53181
# Poissons Ratio (z) = 0.08030 0.25892
#
# Static dielectric constant tensor:
#      x y z
#    x 1.592090 0.000000 0.000000 
#    y 0.000000 1.564790 0.000000 
#    z 0.000000 0.000000 1.564300 
# 
# From -- ./inp_files/69036.got.cif
#   From: 2010.05.17/outbox.cif.g08.bks.cpg/sg74_35_cif.got.tgz:69036.got - 2010.06.03 17:57:02.
