data_PCOD9536002
_publ_section_title
;
Structure prediction by ZEFSAII (Michael W. Deem and Ramdas Pophale) SiO2 
 PCOD9536002
Probable space group: I M M A
;
_chemical_formula_sum "Si O2"
_cell_formula_units_Z 120
_cell_length_a 24.965958
_cell_length_b 8.840320
_cell_length_c 29.029895
_cell_angle_alpha 90.000000
_cell_angle_beta 90.000000
_cell_angle_gamma 90.000000
_cell_volume 6407.102714
_symmetry_space_group_name_H-M "I M M A"
_symmetry_group_IT_number 74
_symmetry_cell_setting 'orthorhombic'
loop_
_space_group_symop_operation_xyz
x,y,z
-x,1/2-y,z
x,-y,-z
-x,1/2+y,-z
-x,-y,-z
x,1/2+y,-z
-x,y,z
x,1/2-y,z
1/2+x,1/2+y,1/2+z
1/2-x,-y,1/2+z
1/2+x,1/2-y,1/2-z
1/2-x,y,1/2-z
1/2-x,1/2-y,1/2-z
1/2+x,y,1/2-z
1/2-x,1/2+y,1/2+z
1/2+x,-y,1/2+z
loop_
_atom_site_type_symbol
_atom_site_label
_atom_site_fract_x
_atom_site_fract_y
_atom_site_fract_z
Si Si1 0.172387 0.930388 0.953249
Si Si2 0.717724 0.422792 0.927932
Si Si3 0.500000 0.568022 0.949208
Si Si4 0.138157 0.432481 0.698371
Si Si5 0.438061 0.432900 0.275943
Si Si6 0.253120 0.078286 0.679685
Si Si7 0.140837 0.068971 0.147371
Si Si8 0.611334 0.068097 0.098680
O O1 0.169321 0.750000 0.955380
O O2 0.145853 0.985810 0.905329
O O3 0.234267 0.981910 0.949442
O O4 0.149478 0.000000 0.000000
O O5 0.717571 0.250000 0.944960
O O6 0.731654 0.417762 0.873259
O O7 0.659941 0.499715 0.931308
O O8 0.500000 0.750000 0.952576
O O9 0.446101 0.524442 0.922044
O O10 0.500000 0.500000 0.000000
O O11 0.137963 0.250000 0.695107
O O12 0.098780 0.490470 0.737577
O O13 0.200606 0.478123 0.706746
O O14 0.118725 0.502963 0.650051
O O15 0.500000 0.476389 0.271885
O O16 0.434701 0.250000 0.270982
O O17 0.412331 0.474401 0.325205
O O18 0.265715 0.250000 0.693940
O O19 0.307540 0.985631 0.676271
O O20 0.143234 0.250000 0.145320
O O21 0.615675 0.250000 0.099998
#
# Coordination Sequence:
#
# PCOD9536002 Si02
#       8
#    16  16   8  16  16  16  16  16
#     4  10  19  32  53  81 109 139 176 218 266 324
#     4   9  17  31  50  76 107 138 171 210 261 318
#     4  10  24  40  54  72  96 132 180 226 271 318
#     4  10  21  36  55  83 111 140 180 225 274 328
#     4  10  22  39  57  78 107 144 184 227 275 328
#     4   8  16  31  51  76 108 140 170 208 261 316
#     4   9  19  35  55  79 108 143 182 222 268 325
#     4  10  20  36  55  76 104 140 180 225 273 321
#
# _framework density 18.729213999999999
#
# number of rings (size 3 to 8) (size 9 to 14) (size 15 to 20)
#    0.000    2.533    0.000    2.400    0.933    7.200 
#    0.000    4.000    0.000    0.400    0.000    0.000 
#    0.000    0.000    0.000    0.000    0.000    0.400 
#
# Total GULP energy -334777.181684 kJ/mol
# GULP energy per Si atom -5579.619695 kJ/mol
# Density = 1.868659 g / cm^3
# Si number density = 18.729214 Si / 1000 Ang^3
#
#
#
# Elastic Constant Matrix: (Units=GPa)
#
#
# Indices 1 2 3 4 5 6 
#
# 1 67.8846 13.5520 27.0711 0.0000 0.0000 0.0000
# 2 13.5520 34.1399 18.6664 0.0000 0.0000 0.0000
# 3 27.0711 18.6664 90.3529 0.0000 0.0000 0.0000
# 4 0.0000 0.0000 0.0000 25.1768 0.0000 0.0000
# 5 0.0000 0.0000 0.0000 0.0000 20.5289 0.0000
# 6 0.0000 0.0000 0.0000 0.0000 0.0000 11.1025
#
#
#
# Elastic Compliance Matrix: (Units=1/GPa)
#
#
# Indices 1 2 3 4 5 6 
#
# 1 0.017336 -0.004556 -0.004253 0.000000 0.000000 0.000000
# 2 -0.004556 0.034219 -0.005704 0.000000 0.000000 0.000000
# 3 -0.004253 -0.005704 0.013520 0.000000 0.000000 0.000000
# 4 0.000000 0.000000 0.000000 0.039719 0.000000 0.000000
# 5 0.000000 0.000000 0.000000 0.000000 0.048712 0.000000
# 6 0.000000 0.000000 0.000000 0.000000 0.000000 0.090070
#
#
# Mechanical properties :
#
#
# Convention : Reuss Voigt Hill
#
# Bulk Modulus (GPa) = 27.74045 34.55071 31.14558
# Shear Modulus (GPa) = 17.56728 20.23417 18.90072
#
# Velocity S-wave (km/s) = 3.06594 3.29044 3.18017
# Velocity P-wave (km/s) = 5.23228 5.73790 5.49092
#
# Compressibility (1/GPa) = 0.03604845
#
# Stress axis : x y z
#
# Youngs Moduli (GPa) = 57.68179 29.22373 73.96224
#
# Poissons Ratio (x) = 0.13316 0.31456
# Poissons Ratio (y) = 0.26283 0.42190
# Poissons Ratio (z) = 0.24532 0.16670
#
# Static dielectric constant tensor:
#      x y z
#    x 1.632300 0.000000 0.000000 
#    y 0.000000 1.634310 0.000000 
#    z 0.000000 0.000000 1.690410 
# 
# From -- ./inp_files/69027.got.cif
#   From: 2010.05.17/outbox.cif.g08.bks.cpg/sg74_35_cif.got.tgz:69027.got - 2010.06.03 17:57:02.
