data_PCOD9536336
_publ_section_title
;
Structure prediction by ZEFSAII (Michael W. Deem and Ramdas Pophale) SiO2 
 PCOD9536336
Probable space group: I M M A
;
_chemical_formula_sum "Si O2"
_cell_formula_units_Z 96
_cell_length_a 11.034932
_cell_length_b 23.565378
_cell_length_c 18.660429
_cell_angle_alpha 90.000000
_cell_angle_beta 90.000000
_cell_angle_gamma 90.000000
_cell_volume 4852.501693
_symmetry_space_group_name_H-M "I M M A"
_symmetry_group_IT_number 74
_symmetry_cell_setting 'orthorhombic'
loop_
_space_group_symop_operation_xyz
x,y,z
-x,1/2-y,z
x,-y,-z
-x,1/2+y,-z
-x,-y,-z
x,1/2+y,-z
-x,y,z
x,1/2-y,z
1/2+x,1/2+y,1/2+z
1/2-x,-y,1/2+z
1/2+x,1/2-y,1/2-z
1/2-x,y,1/2-z
1/2-x,1/2-y,1/2-z
1/2+x,y,1/2-z
1/2-x,1/2+y,1/2+z
1/2+x,-y,1/2+z
loop_
_atom_site_type_symbol
_atom_site_label
_atom_site_fract_x
_atom_site_fract_y
_atom_site_fract_z
Si Si1 0.641579 0.357395 0.444878
Si Si2 0.629417 0.435140 0.200720
Si Si3 0.143090 0.923196 0.192315
Si Si4 0.228146 0.984245 0.918031
Si Si5 0.146537 0.814913 0.100307
Si Si6 0.189693 0.310486 0.327726
O O1 0.500000 0.345797 0.442525
O O2 0.662589 0.422996 0.423236
O O3 0.687151 0.341611 0.524335
O O4 0.709050 0.318893 0.387721
O O5 0.500000 0.449188 0.236213
O O6 0.750000 0.439227 0.250000
O O7 0.654444 0.473157 0.131215
O O8 0.622801 0.370305 0.174349
O O9 0.250000 0.936568 0.250000
O O10 0.174027 0.860635 0.161579
O O11 0.000000 0.923385 0.215972
O O12 0.154945 0.967767 0.125925
O O13 0.252623 0.000000 0.000000
O O14 0.190078 0.750000 0.109775
O O15 0.000000 0.812584 0.097503
O O16 0.128330 0.250000 0.339879
O O17 0.250000 0.307893 0.250000
#
# Coordination Sequence:
#
# PCOD9536336 Si02
#       6
#    16  16  16  16  16  16
#     4  10  19  33  57  88 123 160 203 255 312 367
#     4  10  23  41  60  86 120 160 204 250 304 361
#     4  11  24  41  63  93 127 163 206 254 311 372
#     4  11  22  37  60  89 123 159 200 253 309 369
#     4   9  18  34  59  90 121 155 203 261 312 363
#     4   9  19  33  51  80 119 160 203 246 296 355
#
# _framework density 19.783609999999999
#
# number of rings (size 3 to 8) (size 9 to 14) (size 15 to 20)
#    0.000    2.000    1.667    1.500    0.000   12.000 
#    0.000    3.333    0.000    0.000    0.000    0.000 
#    0.000    0.000    0.000    0.000    0.000    0.000 
#
# Total GULP energy -267432.194904 kJ/mol
# GULP energy per Si atom -5571.504060 kJ/mol
# Density = 1.973858 g / cm^3
# Si number density = 19.783610 Si / 1000 Ang^3
#
#
#
# Elastic Constant Matrix: (Units=GPa)
#
#
# Indices 1 2 3 4 5 6 
#
# 1 112.6552 25.9386 48.6933 0.0000 0.0000 0.0000
# 2 25.9386 136.3003 45.5991 0.0000 0.0000 0.0000
# 3 48.6933 45.5991 108.9026 0.0000 0.0000 0.0000
# 4 0.0000 0.0000 0.0000 57.1642 0.0000 0.0000
# 5 0.0000 0.0000 0.0000 0.0000 18.3272 0.0000
# 6 0.0000 0.0000 0.0000 0.0000 0.0000 -7.5783
#
#
#
# Elastic Compliance Matrix: (Units=1/GPa)
#
#
# Indices 1 2 3 4 5 6 
#
# 1 0.011035 -0.000523 -0.004715 0.000000 0.000000 0.000000
# 2 -0.000523 0.008557 -0.003349 0.000000 0.000000 0.000000
# 3 -0.004715 -0.003349 0.012693 0.000000 0.000000 0.000000
# 4 0.000000 0.000000 0.000000 0.017493 0.000000 0.000000
# 5 0.000000 0.000000 0.000000 0.000000 0.054564 0.000000
# 6 0.000000 0.000000 0.000000 0.000000 0.000000 -0.131956
#
#
# Mechanical properties :
#
#
# Convention : Reuss Voigt Hill
#
# Bulk Modulus (GPa) = 66.17718 66.48002 66.32860
# Shear Modulus (GPa) = -925.30824 29.42445 -447.94189
#
# Velocity S-wave (km/s) = -21.65017 3.86076 -15.06361
# Velocity P-wave (km/s) = 24.31975 7.31782 16.39969
#
# Compressibility (1/GPa) = 0.01511095
#
# Stress axis : x y z
#
# Youngs Moduli (GPa) = 90.62032 116.86839 78.78241
#
# Poissons Ratio (x) = 0.06107 0.37148
# Poissons Ratio (y) = 0.04735 0.26385
# Poissons Ratio (z) = 0.42730 0.39141
#
# Static dielectric constant tensor:
#      x y z
#    x 1.680090 0.000000 0.000000 
#    y 0.000000 1.745500 0.000000 
#    z 0.000000 0.000000 1.695540 
# 
# From -- ./inp_files/41510.got.cif
#   From: 2010.05.17/outbox.cif.g08.bks.cpg/sg74_21_cif.got.tgz:41510.got - 2010.06.03 17:57:02.
