data_PCOD9536345
_publ_section_title
;
Structure prediction by ZEFSAII (Michael W. Deem and Ramdas Pophale) SiO2 
 PCOD9536345
Probable space group: I M M A
;
_chemical_formula_sum "Si O2"
_cell_formula_units_Z 112
_cell_length_a 14.113684
_cell_length_b 22.417643
_cell_length_c 17.064952
_cell_angle_alpha 90.000000
_cell_angle_beta 90.000000
_cell_angle_gamma 90.000000
_cell_volume 5399.274521
_symmetry_space_group_name_H-M "I M M A"
_symmetry_group_IT_number 74
_symmetry_cell_setting 'orthorhombic'
loop_
_space_group_symop_operation_xyz
x,y,z
-x,1/2-y,z
x,-y,-z
-x,1/2+y,-z
-x,-y,-z
x,1/2+y,-z
-x,y,z
x,1/2-y,z
1/2+x,1/2+y,1/2+z
1/2-x,-y,1/2+z
1/2+x,1/2-y,1/2-z
1/2-x,y,1/2-z
1/2-x,1/2-y,1/2-z
1/2+x,y,1/2-z
1/2-x,1/2+y,1/2+z
1/2+x,-y,1/2+z
loop_
_atom_site_type_symbol
_atom_site_label
_atom_site_fract_x
_atom_site_fract_y
_atom_site_fract_z
Si Si1 0.242517 0.678612 0.342604
Si Si2 0.110948 0.634530 0.724374
Si Si3 0.726262 0.494143 0.418259
Si Si4 0.892567 0.578084 0.385307
Si Si5 0.105584 0.997658 0.230002
Si Si6 0.222533 0.145226 0.118490
Si Si7 0.393349 0.679453 0.466242
O O1 0.231698 0.750000 0.352299
O O2 0.250000 0.666556 0.250000
O O3 0.155255 0.642565 0.379707
O O4 0.336125 0.657897 0.389891
O O5 0.126242 0.562258 0.730236
O O6 0.150285 0.654748 0.808953
O O7 0.175785 0.662146 0.655803
O O8 0.000000 0.645868 0.714724
O O9 0.670660 0.500000 0.500000
O O10 0.820857 0.533350 0.428543
O O11 0.676159 0.516836 0.339618
O O12 0.735898 0.424303 0.402209
O O13 0.894632 0.551046 0.297569
O O14 0.000000 0.578357 0.415853
O O15 0.000000 0.003631 0.196325
O O16 0.174591 0.171590 0.041377
O O17 0.500000 0.654057 0.476229
O O18 0.403937 0.750000 0.455320
#
# Coordination Sequence:
#
# PCOD9536345 Si02
#       7
#    16  16  16  16  16  16  16
#     4  10  22  41  64  88 115 152 199 248 301 359
#     4   9  17  32  55  84 118 161 205 241 288 355
#     4  11  21  33  51  80 117 150 188 240 295 348
#     4  11  22  37  57  81 113 154 198 240 287 346
#     4   9  18  34  55  78 109 153 196 232 284 345
#     4  10  19  33  58  88 118 159 200 249 299 359
#     4  10  22  42  66  90 118 153 195 247 307 365
#
# _framework density 20.743527
#
# number of rings (size 3 to 8) (size 9 to 14) (size 15 to 20)
#    0.000    2.000    1.429    2.571    0.000    2.000 
#    0.000    8.571    0.000    2.143    0.000    0.000 
#    0.000    0.000    0.000    0.000    0.000    0.000 
#
# Total GULP energy -312413.455847 kJ/mol
# GULP energy per Si atom -5578.811712 kJ/mol
# Density = 2.069631 g / cm^3
# Si number density = 20.743527 Si / 1000 Ang^3
#
#
#
# Elastic Constant Matrix: (Units=GPa)
#
#
# Indices 1 2 3 4 5 6 
#
# 1 147.3972 19.7659 54.7554 0.0000 0.0000 0.0000
# 2 19.7659 23.8051 -1.1275 -0.0001 0.0000 0.0000
# 3 54.7554 -1.1275 108.2650 -0.0001 0.0000 0.0000
# 4 0.0000 -0.0001 -0.0001 25.5231 0.0000 0.0000
# 5 0.0000 0.0000 0.0000 0.0000 8.2889 0.0000
# 6 0.0000 0.0000 0.0000 0.0000 0.0000 24.6367
#
#
#
# Elastic Compliance Matrix: (Units=1/GPa)
#
#
# Indices 1 2 3 4 5 6 
#
# 1 0.009773 -0.008353 -0.005030 0.000000 0.000000 0.000000
# 2 -0.008353 0.049168 0.004737 0.000000 0.000000 0.000000
# 3 -0.005030 0.004737 0.011830 0.000000 0.000000 0.000000
# 4 0.000000 0.000000 0.000000 0.039180 0.000000 0.000000
# 5 0.000000 0.000000 0.000000 0.000000 0.120644 0.000000
# 6 0.000000 0.000000 0.000000 0.000000 0.000000 0.040590
#
#
# Mechanical properties :
#
#
# Convention : Reuss Voigt Hill
#
# Bulk Modulus (GPa) = 18.69918 47.36167 33.03042
# Shear Modulus (GPa) = 16.32374 25.42797 20.87586
#
# Velocity S-wave (km/s) = 2.80827 3.50498 3.17579
# Velocity P-wave (km/s) = 4.42145 6.26589 5.42267
#
# Compressibility (1/GPa) = 0.05347829
#
# Stress axis : x y z
#
# Youngs Moduli (GPa) = 102.32324 20.33853 84.53299
#
# Poissons Ratio (x) = 0.16989 0.42517
# Poissons Ratio (y) = 0.85470 -0.40039
# Poissons Ratio (z) = 0.51465 -0.09633
#
# Static dielectric constant tensor:
#      x y z
#    x 1.785990 0.000000 0.000000 
#    y 0.000000 1.755620 0.000000 
#    z 0.000000 0.000000 1.748910 
# 
# From -- ./inp_files/32742.got.cif
#   From: 2010.05.17/outbox.cif.g08.bks.cpg/sg74_17_cif.got.tgz:32742.got - 2010.06.03 17:57:02.
