data_PCOD9536686
_publ_section_title
;
Structure prediction by ZEFSAII (Michael W. Deem and Ramdas Pophale) SiO2 
 PCOD9536686
Probable space group: I M M A
;
_chemical_formula_sum "Si O2"
_cell_formula_units_Z 80
_cell_length_a 20.989174
_cell_length_b 17.415846
_cell_length_c 11.701625
_cell_angle_alpha 90.000000
_cell_angle_beta 90.000000
_cell_angle_gamma 90.000000
_cell_volume 4277.461407
_symmetry_space_group_name_H-M "I M M A"
_symmetry_group_IT_number 74
_symmetry_cell_setting 'orthorhombic'
loop_
_space_group_symop_operation_xyz
x,y,z
-x,1/2-y,z
x,-y,-z
-x,1/2+y,-z
-x,-y,-z
x,1/2+y,-z
-x,y,z
x,1/2-y,z
1/2+x,1/2+y,1/2+z
1/2-x,-y,1/2+z
1/2+x,1/2-y,1/2-z
1/2-x,y,1/2-z
1/2-x,1/2-y,1/2-z
1/2+x,y,1/2-z
1/2-x,1/2+y,1/2+z
1/2+x,-y,1/2+z
loop_
_atom_site_type_symbol
_atom_site_label
_atom_site_fract_x
_atom_site_fract_y
_atom_site_fract_z
Si Si1 0.744225 0.839372 0.114332
Si Si2 0.376125 0.090302 0.003374
Si Si3 0.500000 0.844021 0.382576
Si Si4 0.627355 0.156648 0.487265
Si Si5 0.000000 0.158299 0.617102
Si Si6 0.825477 0.657214 0.739391
O O1 0.733765 0.750000 0.079006
O O2 0.750000 0.841273 0.250000
O O3 0.685034 0.887971 0.072320
O O4 0.809873 0.866173 0.057482
O O5 0.437576 0.130761 0.949632
O O6 0.358167 0.119449 0.129910
O O7 0.386897 0.000000 0.000000
O O8 0.500000 0.750000 0.382317
O O9 0.563151 0.869509 0.450462
O O10 0.500000 0.868489 0.249887
O O11 0.625816 0.250000 0.489092
O O12 0.638544 0.134310 0.355986
O O13 0.000000 0.250000 0.620314
O O14 0.828581 0.750000 0.727896
O O15 0.750000 0.637709 0.750000
#
# Coordination Sequence:
#
# PCOD9536686 Si02
#       6
#    16  16   8  16   8  16
#     4  10  19  35  60  87 114 154 210 258 298 355
#     4  12  25  39  58  87 125 161 198 251 313 373
#     4   9  18  34  59  93 122 145 185 252 309 345
#     4   9  17  31  57  89 117 147 191 249 302 346
#     4  11  23  42  65  85 115 158 207 250 298 365
#     4  10  19  36  62  88 118 156 205 255 297 353
#
# _framework density 18.702681999999999
#
# number of rings (size 3 to 8) (size 9 to 14) (size 15 to 20)
#    0.000    1.800    2.000    3.300    0.000    4.800 
#    0.000    2.000    0.000    1.200    0.000    0.000 
#    0.000    0.000    0.000    0.000    0.000    0.000 
#
# Total GULP energy -223402.152300 kJ/mol
# GULP energy per Si atom -5585.053807 kJ/mol
# Density = 1.866011 g / cm^3
# Si number density = 18.702682 Si / 1000 Ang^3
#
#
#
# Elastic Constant Matrix: (Units=GPa)
#
#
# Indices 1 2 3 4 5 6 
#
# 1 169.3980 36.6780 91.6993 0.0000 0.0000 0.0000
# 2 36.6780 44.0991 38.2083 0.0000 0.0000 0.0000
# 3 91.6993 38.2083 162.4664 0.0000 0.0000 0.0000
# 4 0.0000 0.0000 0.0000 2.9906 0.0000 0.0000
# 5 0.0000 0.0000 0.0000 0.0000 34.8289 0.0000
# 6 0.0000 0.0000 0.0000 0.0000 0.0000 -13.6011
#
#
#
# Elastic Compliance Matrix: (Units=1/GPa)
#
#
# Indices 1 2 3 4 5 6 
#
# 1 0.008998 -0.003873 -0.004168 0.000000 0.000000 0.000000
# 2 -0.003873 0.030146 -0.004904 0.000000 0.000000 0.000000
# 3 -0.004168 -0.004904 0.009661 0.000000 0.000000 0.000000
# 4 0.000000 0.000000 0.000000 0.334384 0.000000 0.000000
# 5 0.000000 0.000000 0.000000 0.000000 0.028712 0.000000
# 6 0.000000 0.000000 0.000000 0.000000 0.000000 -0.073523
#
#
# Mechanical properties :
#
#
# Convention : Reuss Voigt Hill
#
# Bulk Modulus (GPa) = 43.63758 78.79276 61.21517
# Shear Modulus (GPa) = 13.44433 18.80219 16.12326
#
# Velocity S-wave (km/s) = 2.68404 3.17412 2.93931
# Velocity P-wave (km/s) = 5.74355 7.46016 6.65741
#
# Compressibility (1/GPa) = 0.02291603
#
# Stress axis : x y z
#
# Youngs Moduli (GPa) = 111.13684 33.17197 103.51101
#
# Poissons Ratio (x) = 0.12846 0.43142
# Poissons Ratio (y) = 0.43039 0.50760
# Poissons Ratio (z) = 0.46320 0.16267
#
# Static dielectric constant tensor:
#      x y z
#    x 1.619900 0.000000 0.000000 
#    y 0.000000 1.642330 0.000000 
#    z 0.000000 0.000000 1.641110 
# 
# From -- ./inp_files/22092.got.cif
#   From: 2010.05.17/outbox.cif.g08.bks.cpg/sg74_12_cif.got.tgz:22092.got - 2010.06.03 17:57:02.
