data_PCOD9536782
_publ_section_title
;
Structure prediction by ZEFSAII (Michael W. Deem and Ramdas Pophale) SiO2 
 PCOD9536782
Probable space group: I M M A
;
_chemical_formula_sum "Si O2"
_cell_formula_units_Z 56
_cell_length_a 21.656737
_cell_length_b 14.535705
_cell_length_c 9.114123
_cell_angle_alpha 90.000000
_cell_angle_beta 90.000000
_cell_angle_gamma 90.000000
_cell_volume 2869.088920
_symmetry_space_group_name_H-M "I M M A"
_symmetry_group_IT_number 74
_symmetry_cell_setting 'orthorhombic'
loop_
_space_group_symop_operation_xyz
x,y,z
-x,1/2-y,z
x,-y,-z
-x,1/2+y,-z
-x,-y,-z
x,1/2+y,-z
-x,y,z
x,1/2-y,z
1/2+x,1/2+y,1/2+z
1/2-x,-y,1/2+z
1/2+x,1/2-y,1/2-z
1/2-x,y,1/2-z
1/2-x,1/2-y,1/2-z
1/2+x,y,1/2-z
1/2-x,1/2+y,1/2+z
1/2+x,-y,1/2+z
loop_
_atom_site_type_symbol
_atom_site_label
_atom_site_fract_x
_atom_site_fract_y
_atom_site_fract_z
Si Si1 0.139460 0.250000 0.412078
Si Si2 0.371598 0.598909 0.430925
Si Si3 0.570106 0.856400 0.138464
Si Si4 0.931362 0.750000 0.881165
Si Si5 0.267808 0.750000 0.421574
O O1 0.106297 0.339085 0.487202
O O2 0.121651 0.250000 0.242959
O O3 0.209238 0.250000 0.470411
O O4 0.363965 0.500000 0.500000
O O5 0.393031 0.590160 0.262233
O O6 0.421821 0.659971 0.518748
O O7 0.310196 0.660418 0.442487
O O8 0.500000 0.888208 0.117924
O O9 0.567974 0.750000 0.196173
O O10 0.000000 0.750000 0.814250
O O11 0.250000 0.750000 0.250000
#
# Coordination Sequence:
#
# PCOD9536782 Si02
#       5
#     8  16  16   8   8
#     4  10  19  36  62  87 116 156 201 239 298 358
#     4  11  23  38  61  91 118 157 205 247 292 355
#     4   9  16  33  60  83 111 153 194 233 290 353
#     4  11  22  40  62  89 123 155 195 255 308 348
#     4  11  19  43  66  82 116 166 202 238 293 357
#
# _framework density 19.518391999999999
#
# number of rings (size 3 to 8) (size 9 to 14) (size 15 to 20)
#    0.857    0.857    5.714    1.714    0.000    4.571 
#    5.143    1.429    0.000    3.429    0.000    0.000 
#    0.000    0.000    0.000    0.000    0.000    0.000 
#
# Total GULP energy -156068.897965 kJ/mol
# GULP energy per Si atom -5573.889213 kJ/mol
# Density = 1.947397 g / cm^3
# Si number density = 19.518392 Si / 1000 Ang^3
#
#
#
# Elastic Constant Matrix: (Units=GPa)
#
#
# Indices 1 2 3 4 5 6 
#
# 1 102.0335 7.5508 -5.5454 0.0000 0.0000 0.0000
# 2 7.5508 92.1331 4.4508 0.0000 0.0000 0.0000
# 3 -5.5454 4.4508 53.0334 0.0000 0.0000 0.0000
# 4 0.0000 0.0000 0.0000 14.7809 0.0000 0.0000
# 5 0.0000 0.0000 0.0000 0.0000 27.8944 0.0000
# 6 0.0000 0.0000 0.0000 0.0000 0.0000 -1.9644
#
#
#
# Elastic Compliance Matrix: (Units=1/GPa)
#
#
# Indices 1 2 3 4 5 6 
#
# 1 0.009925 -0.000867 0.001111 0.000000 0.000000 0.000000
# 2 -0.000867 0.010974 -0.001012 0.000000 0.000000 0.000000
# 3 0.001111 -0.001012 0.019057 0.000000 0.000000 0.000000
# 4 0.000000 0.000000 0.000000 0.067655 0.000000 0.000000
# 5 0.000000 0.000000 0.000000 0.000000 0.035849 0.000000
# 6 0.000000 0.000000 0.000000 0.000000 0.000000 -0.509054
#
#
# Mechanical properties :
#
#
# Convention : Reuss Voigt Hill
#
# Bulk Modulus (GPa) = 26.02818 28.90136 27.46477
# Shear Modulus (GPa) = -14.23485 24.19177 4.97846
#
# Velocity S-wave (km/s) = -2.70349 3.52438 1.59881
# Velocity P-wave (km/s) = 1.90236 5.60367 4.18450
#
# Compressibility (1/GPa) = 0.03841989
#
# Stress axis : x y z
#
# Youngs Moduli (GPa) = 100.75332 91.12621 52.47393
#
# Poissons Ratio (x) = 0.07901 -0.05828
# Poissons Ratio (y) = 0.08736 0.05308
# Poissons Ratio (z) = -0.11190 0.09219
#
# Static dielectric constant tensor:
#      x y z
#    x 1.713030 0.000000 0.000000 
#    y 0.000000 1.658240 0.000000 
#    z 0.000000 0.000000 1.688690 
# 
# From -- ./inp_files/13234.got.cif
#   From: 2010.05.17/outbox.cif.g08.bks.cpg/sg74_7_cif.got.tgz:13234.got - 2010.06.03 17:57:02.
