data_PCOD9536295
_publ_section_title
;
Structure prediction by ZEFSAII (Michael W. Deem and Ramdas Pophale) SiO2 
 PCOD9536295
Probable space group: I M M A
;
_chemical_formula_sum "Si O2"
_cell_formula_units_Z 104
_cell_length_a 22.583739
_cell_length_b 9.603211
_cell_length_c 27.064579
_cell_angle_alpha 90.000000
_cell_angle_beta 90.000000
_cell_angle_gamma 90.000000
_cell_volume 5869.668753
_symmetry_space_group_name_H-M "I M M A"
_symmetry_group_IT_number 74
_symmetry_cell_setting 'orthorhombic'
loop_
_space_group_symop_operation_xyz
x,y,z
-x,1/2-y,z
x,-y,-z
-x,1/2+y,-z
-x,-y,-z
x,1/2+y,-z
-x,y,z
x,1/2-y,z
1/2+x,1/2+y,1/2+z
1/2-x,-y,1/2+z
1/2+x,1/2-y,1/2-z
1/2-x,y,1/2-z
1/2-x,1/2-y,1/2-z
1/2+x,y,1/2-z
1/2-x,1/2+y,1/2+z
1/2+x,-y,1/2+z
loop_
_atom_site_type_symbol
_atom_site_label
_atom_site_fract_x
_atom_site_fract_y
_atom_site_fract_z
Si Si1 0.217351 0.913190 0.950525
Si Si2 0.405643 0.592257 0.604257
Si Si3 0.565782 0.081829 0.176271
Si Si4 0.687814 0.082345 0.127881
Si Si5 0.000000 0.414973 0.949563
Si Si6 0.386870 0.909705 0.715081
Si Si7 0.725694 0.404376 0.695267
O O1 0.218307 0.750000 0.963207
O O2 0.163508 0.929785 0.910801
O O3 0.280118 0.948046 0.924350
O O4 0.206477 0.000000 0.000000
O O5 0.420302 0.750000 0.586053
O O6 0.442947 0.471637 0.579329
O O7 0.420112 0.592590 0.662620
O O8 0.500000 0.028224 0.163911
O O9 0.563507 0.250000 0.173391
O O10 0.620231 0.040130 0.140596
O O11 0.580745 0.051044 0.233962
O O12 0.692291 0.250000 0.135034
O O13 0.728874 0.001159 0.166220
O O14 0.000000 0.250000 0.955915
O O15 0.000000 0.500000 0.000000
O O16 0.364431 0.750000 0.722353
O O17 0.335419 0.016908 0.703096
O O18 0.719555 0.250000 0.672530
O O19 0.750000 0.388833 0.750000
#
# Coordination Sequence:
#
# PCOD9536295 Si02
#       7
#    16  16  16  16   8  16  16
#     4  10  21  36  56  82 106 137 177 228 287 333
#     4  10  21  37  57  82 110 140 184 232 277 327
#     4   9  18  31  54  85 110 140 183 227 267 315
#     4  10  19  35  57  79 108 142 184 228 275 328
#     4  12  26  42  58  76 104 148 196 234 281 324
#     4  10  19  33  56  80 108 143 179 219 264 319
#     4  11  21  31  48  78 114 144 175 213 262 318
#
# _framework density 17.718205000000001
#
# number of rings (size 3 to 8) (size 9 to 14) (size 15 to 20)
#    0.000    1.846    3.077    1.615    1.077    3.692 
#    0.000    0.000    0.000    1.846    0.000    0.000 
#    0.000    0.000    0.000    0.000    0.000    0.000 
#
# Total GULP energy -289617.472204 kJ/mol
# GULP energy per Si atom -5569.566773 kJ/mol
# Density = 1.767788 g / cm^3
# Si number density = 17.718205 Si / 1000 Ang^3
#
#
#
# Elastic Constant Matrix: (Units=GPa)
#
#
# Indices 1 2 3 4 5 6 
#
# 1 102.8239 30.1506 17.5405 0.0000 0.0000 0.0000
# 2 30.1506 57.8714 17.0253 0.0000 0.0000 0.0000
# 3 17.5405 17.0253 57.0625 0.0000 0.0000 0.0000
# 4 0.0000 0.0000 0.0000 22.6586 0.0000 0.0000
# 5 0.0000 0.0000 0.0000 0.0000 17.4897 0.0000
# 6 0.0000 0.0000 0.0000 0.0000 0.0000 16.6449
#
#
#
# Elastic Compliance Matrix: (Units=1/GPa)
#
#
# Indices 1 2 3 4 5 6 
#
# 1 0.011672 -0.005509 -0.001944 0.000000 0.000000 0.000000
# 2 -0.005509 0.021543 -0.004734 0.000000 0.000000 0.000000
# 3 -0.001944 -0.004734 0.019535 0.000000 0.000000 0.000000
# 4 0.000000 0.000000 0.000000 0.044133 0.000000 0.000000
# 5 0.000000 0.000000 0.000000 0.000000 0.057176 0.000000
# 6 0.000000 0.000000 0.000000 0.000000 0.000000 0.060078
#
#
# Mechanical properties :
#
#
# Convention : Reuss Voigt Hill
#
# Bulk Modulus (GPa) = 35.24253 38.57671 36.90962
# Shear Modulus (GPa) = 20.16360 21.56141 20.86250
#
# Velocity S-wave (km/s) = 3.37711 3.49220 3.43514
# Velocity P-wave (km/s) = 5.92792 6.17092 6.05064
#
# Compressibility (1/GPa) = 0.02837481
#
# Stress axis : x y z
#
# Youngs Moduli (GPa) = 85.67150 46.41943 51.19086
#
# Poissons Ratio (x) = 0.25574 0.09953
# Poissons Ratio (y) = 0.47199 0.24234
# Poissons Ratio (z) = 0.16657 0.21975
#
# Static dielectric constant tensor:
#      x y z
#    x 1.643670 0.000000 0.000000 
#    y 0.000000 1.630070 0.000000 
#    z 0.000000 0.000000 1.637080 
# 
# From -- ./inp_files/68639.got.cif
#   From: 2010.05.17/outbox.cif.g08.bks.cpg/sg74_35_cif.got.tgz:68639.got - 2010.06.03 17:57:02.
