data_PCOD9536369
_publ_section_title
;
Structure prediction by ZEFSAII (Michael W. Deem and Ramdas Pophale) SiO2 
 PCOD9536369
Probable space group: I M M A
;
_chemical_formula_sum "Si O2"
_cell_formula_units_Z 68
_cell_length_a 7.282307
_cell_length_b 17.766916
_cell_length_c 22.774506
_cell_angle_alpha 90.000000
_cell_angle_beta 90.000000
_cell_angle_gamma 90.000000
_cell_volume 2946.659799
_symmetry_space_group_name_H-M "I M M A"
_symmetry_group_IT_number 74
_symmetry_cell_setting 'orthorhombic'
loop_
_space_group_symop_operation_xyz
x,y,z
-x,1/2-y,z
x,-y,-z
-x,1/2+y,-z
-x,-y,-z
x,1/2+y,-z
-x,y,z
x,1/2-y,z
1/2+x,1/2+y,1/2+z
1/2-x,-y,1/2+z
1/2+x,1/2-y,1/2-z
1/2-x,y,1/2-z
1/2-x,1/2-y,1/2-z
1/2+x,y,1/2-z
1/2-x,1/2+y,1/2+z
1/2+x,-y,1/2+z
loop_
_atom_site_type_symbol
_atom_site_label
_atom_site_fract_x
_atom_site_fract_y
_atom_site_fract_z
Si Si1 0.722902 0.081912 0.474477
Si Si2 0.282461 0.449115 0.686066
Si Si3 0.223905 0.333728 0.911079
Si Si4 0.723625 0.114766 0.340989
Si Si5 0.250000 0.750000 0.750000
O O1 0.500000 0.077511 0.471767
O O2 0.775567 0.142096 0.523555
O O3 0.779520 0.107939 0.409514
O O4 0.781521 0.000000 0.500000
O O5 0.500000 0.455509 0.676343
O O6 0.250000 0.415552 0.750000
O O7 0.211193 0.396296 0.634680
O O8 0.213215 0.534417 0.684436
O O9 0.283896 0.250000 0.896116
O O10 0.000000 0.334286 0.909393
O O11 0.500000 0.120307 0.339713
O O12 0.783214 0.183808 0.300387
#
# Coordination Sequence:
#
# PCOD9536369 Si02
#       5
#    16  16  16  16   4
#     4   9  15  27  47  71 100 133 165 213 273 319
#     4  10  19  34  52  73 103 138 172 209 258 316
#     4   9  17  28  46  74 104 129 163 212 267 316
#     4  10  20  32  47  71 103 137 173 213 262 317
#     4  12  22  32  44  70 106 144 176 208 256 324
#
# _framework density 23.076976999999999
#
# number of rings (size 3 to 8) (size 9 to 14) (size 15 to 20)
#    0.000    2.353    3.529    0.353    1.647    0.471 
#    0.000    0.000    0.000    0.000    0.000    6.588 
#    0.000    0.000    0.000    0.000    0.000    0.000 
#
# Total GULP energy -189391.220538 kJ/mol
# GULP energy per Si atom -5570.330016 kJ/mol
# Density = 2.302445 g / cm^3
# Si number density = 23.076977 Si / 1000 Ang^3
#
#
#
# Elastic Constant Matrix: (Units=GPa)
#
#
# Indices 1 2 3 4 5 6 
#
# 1 97.6247 7.8830 -2.0786 0.0000 0.0000 0.0000
# 2 7.8830 193.4314 101.7340 0.0000 0.0000 0.0000
# 3 -2.0786 101.7340 228.0391 0.0000 0.0000 0.0000
# 4 0.0000 0.0000 0.0000 23.4118 0.0000 0.0000
# 5 0.0000 0.0000 0.0000 0.0000 -8.9621 0.0000
# 6 0.0000 0.0000 0.0000 0.0000 0.0000 -13.4241
#
#
#
# Elastic Compliance Matrix: (Units=1/GPa)
#
#
# Indices 1 2 3 4 5 6 
#
# 1 0.010301 -0.000613 0.000367 0.000000 0.000000 0.000000
# 2 -0.000613 0.006791 -0.003035 0.000000 0.000000 0.000000
# 3 0.000367 -0.003035 0.005743 0.000000 0.000000 0.000000
# 4 0.000000 0.000000 0.000000 0.042714 0.000000 0.000000
# 5 0.000000 0.000000 0.000000 0.000000 -0.111581 0.000000
# 6 0.000000 0.000000 0.000000 0.000000 0.000000 -0.074493
#
#
# Mechanical properties :
#
#
# Convention : Reuss Voigt Hill
#
# Bulk Modulus (GPa) = 61.45293 81.57466 71.51379
# Shear Modulus (GPa) = -46.06630 27.64222 -9.21204
#
# Velocity S-wave (km/s) = -4.47273 3.46472 -2.00014
# Velocity P-wave (km/s) = 0.11638 7.17157 5.07173
#
# Compressibility (1/GPa) = 0.01627262
#
# Stress axis : x y z
#
# Youngs Moduli (GPa) = 97.08143 147.25006 174.13460
#
# Poissons Ratio (x) = 0.09026 -0.06397
# Poissons Ratio (y) = 0.05951 0.52855
# Poissons Ratio (z) = -0.03566 0.44695
#
# Static dielectric constant tensor:
#      x y z
#    x 1.975160 0.000000 0.000000 
#    y 0.000000 1.810930 0.000000 
#    z 0.000000 0.000000 1.886990 
# 
# From -- ./inp_files/40941.got.cif
#   From: 2010.05.17/outbox.cif.g08.bks.cpg/sg74_21_cif.got.tgz:40941.got - 2010.06.03 17:57:02.
