data_PCOD9536876
_publ_section_title
;
Structure prediction by ZEFSAII (Michael W. Deem and Ramdas Pophale) SiO2 
 PCOD9536876
Probable space group: I M M A
;
_chemical_formula_sum "Si O2"
_cell_formula_units_Z 108
_cell_length_a 14.447761
_cell_length_b 22.894044
_cell_length_c 15.886731
_cell_angle_alpha 90.000000
_cell_angle_beta 90.000000
_cell_angle_gamma 90.000000
_cell_volume 5254.817093
_symmetry_space_group_name_H-M "I M M A"
_symmetry_group_IT_number 74
_symmetry_cell_setting 'orthorhombic'
loop_
_space_group_symop_operation_xyz
x,y,z
-x,1/2-y,z
x,-y,-z
-x,1/2+y,-z
-x,-y,-z
x,1/2+y,-z
-x,y,z
x,1/2-y,z
1/2+x,1/2+y,1/2+z
1/2-x,-y,1/2+z
1/2+x,1/2-y,1/2-z
1/2-x,y,1/2-z
1/2-x,1/2-y,1/2-z
1/2+x,y,1/2-z
1/2-x,1/2+y,1/2+z
1/2+x,-y,1/2+z
loop_
_atom_site_type_symbol
_atom_site_label
_atom_site_fract_x
_atom_site_fract_y
_atom_site_fract_z
Si Si1 0.000000 0.750000 0.807748
Si Si2 0.211478 0.182580 0.483131
Si Si3 0.703927 0.683109 0.341515
Si Si4 0.395728 0.434247 0.622211
Si Si5 0.600231 0.351153 0.390129
Si Si6 0.244332 0.000000 0.000000
Si Si7 0.142043 0.956923 0.771111
Si Si8 0.602054 0.577934 0.912176
O O1 0.920215 0.698237 0.819703
O O2 0.192099 0.250000 0.465864
O O3 0.221265 0.174168 0.583594
O O4 0.313048 0.166996 0.446010
O O5 0.135808 0.141693 0.440236
O O6 0.668618 0.750000 0.351886
O O7 0.750000 0.678383 0.250000
O O8 0.630154 0.631594 0.352996
O O9 0.500000 0.438844 0.589820
O O10 0.321261 0.458480 0.555281
O O11 0.387359 0.478434 0.701410
O O12 0.500000 0.351918 0.436532
O O13 0.619304 0.413192 0.347535
O O14 0.314787 0.963142 0.943326
O O15 0.250000 0.957175 0.750000
O O16 0.097235 0.931268 0.687419
O O17 0.500000 0.565214 0.947936
#
# Coordination Sequence:
#
# PCOD9536876 Si02
#       8
#     4  16  16  16  16   8  16  16
#     4   8  20  36  62  96 134 182 228 264 340 404
#     4  11  21  42  68  95 133 176 223 281 335 398
#     4  10  24  46  70  96 135 179 223 281 346 409
#     4  12  25  43  71 105 135 172 220 281 352 412
#     4  10  19  38  62  95 133 176 220 271 331 402
#     4  12  24  46  66  98 136 170 216 282 338 402
#     4  12  23  42  66  94 144 180 218 277 337 396
#     4  12  26  44  66  98 131 183 231 270 326 405
#
# _framework density 20.552571
#
# number of rings (size 3 to 8) (size 9 to 14) (size 15 to 20)
#    0.444    0.444    5.185    2.222    0.000    1.185 
#    1.333    3.333    0.000    2.667    0.000    0.000 
#    0.000    0.000    0.000    0.000    0.000    0.000 
#
# Total GULP energy -301068.436590 kJ/mol
# GULP energy per Si atom -5575.341418 kJ/mol
# Density = 2.050579 g / cm^3
# Si number density = 20.552571 Si / 1000 Ang^3
#
#
#
# Elastic Constant Matrix: (Units=GPa)
#
#
# Indices 1 2 3 4 5 6 
#
# 1 141.5007 39.2799 24.7469 0.0000 0.0000 0.0000
# 2 39.2799 141.0908 39.3773 0.0000 0.0000 0.0000
# 3 24.7469 39.3773 86.4963 0.0000 0.0000 0.0000
# 4 0.0000 0.0000 0.0000 28.9282 0.0000 0.0000
# 5 0.0000 0.0000 0.0000 0.0000 -21.2079 0.0000
# 6 0.0000 0.0000 0.0000 0.0000 0.0000 17.8035
#
#
#
# Elastic Compliance Matrix: (Units=1/GPa)
#
#
# Indices 1 2 3 4 5 6 
#
# 1 0.007810 -0.001776 -0.001426 0.000000 0.000000 0.000000
# 2 -0.001776 0.008523 -0.003372 0.000000 0.000000 0.000000
# 3 -0.001426 -0.003372 0.013504 0.000000 0.000000 0.000000
# 4 0.000000 0.000000 0.000000 0.034568 0.000000 0.000000
# 5 0.000000 0.000000 0.000000 0.000000 -0.047152 0.000000
# 6 0.000000 0.000000 0.000000 0.000000 0.000000 0.056169
#
#
# Mechanical properties :
#
#
# Convention : Reuss Voigt Hill
#
# Bulk Modulus (GPa) = 59.91961 63.98844 61.95403
# Shear Modulus (GPa) = 54.26955 22.81701 38.54328
#
# Velocity S-wave (km/s) = 5.14418 3.33555 4.33523
# Velocity P-wave (km/s) = 8.03125 6.78499 7.43428
#
# Compressibility (1/GPa) = 0.01668903
#
# Stress axis : x y z
#
# Youngs Moduli (GPa) = 128.04878 117.32605 74.05122
#
# Poissons Ratio (x) = 0.20841 0.10557
# Poissons Ratio (y) = 0.22745 0.24970
# Poissons Ratio (z) = 0.18256 0.39562
#
# Static dielectric constant tensor:
#      x y z
#    x 1.718280 0.000000 0.000000 
#    y 0.000000 1.739930 0.000000 
#    z 0.000000 0.000000 1.762680 
# 
# From -- ./inp_files/32795.got.cif
#   From: 2010.05.17/outbox.cif.g08.bks.cpg/sg74_17_cif.got.tgz:32795.got - 2010.06.03 17:57:02.
