data_PCOD9536546
_publ_section_title
;
Structure prediction by ZEFSAII (Michael W. Deem and Ramdas Pophale) SiO2 
 PCOD9536546
Probable space group: I M M A
;
_chemical_formula_sum "Si O2"
_cell_formula_units_Z 96
_cell_length_a 9.705671
_cell_length_b 29.143265
_cell_length_c 16.483471
_cell_angle_alpha 90.000000
_cell_angle_beta 90.000000
_cell_angle_gamma 90.000000
_cell_volume 4662.431233
_symmetry_space_group_name_H-M "I M M A"
_symmetry_group_IT_number 74
_symmetry_cell_setting 'orthorhombic'
loop_
_space_group_symop_operation_xyz
x,y,z
-x,1/2-y,z
x,-y,-z
-x,1/2+y,-z
-x,-y,-z
x,1/2+y,-z
-x,y,z
x,1/2-y,z
1/2+x,1/2+y,1/2+z
1/2-x,-y,1/2+z
1/2+x,1/2-y,1/2-z
1/2-x,y,1/2-z
1/2-x,1/2-y,1/2-z
1/2+x,y,1/2-z
1/2-x,1/2+y,1/2+z
1/2+x,-y,1/2+z
loop_
_atom_site_type_symbol
_atom_site_label
_atom_site_fract_x
_atom_site_fract_y
_atom_site_fract_z
Si Si1 0.149455 0.302714 0.933066
Si Si2 0.161619 0.490154 0.326551
Si Si3 0.659540 0.802199 0.628694
Si Si4 0.844028 0.138109 0.671714
Si Si5 0.338332 0.889346 0.885379
Si Si6 0.341612 0.941637 0.044317
O O1 0.147243 0.250000 0.906777
O O2 0.275647 0.326694 0.890528
O O3 0.000000 0.324040 0.911955
O O4 0.160507 0.302618 0.030266
O O5 0.250000 0.506275 0.250000
O O6 0.168976 0.435025 0.331285
O O7 0.210483 0.511310 0.413513
O O8 0.000000 0.502168 0.317687
O O9 0.500000 0.808830 0.654733
O O10 0.701888 0.750000 0.653156
O O11 0.755241 0.845717 0.648287
O O12 0.750000 0.135713 0.750000
O O13 0.843959 0.090593 0.623305
O O14 0.000000 0.150636 0.692346
O O15 0.500000 0.876322 0.895740
O O16 0.282039 0.909916 0.971982
O O17 0.500000 0.949766 0.017086
#
# Coordination Sequence:
#
# PCOD9536546 Si02
#       6
#    16  16  16  16  16  16
#     4   9  18  33  50  68  95 132 173 217 267 318
#     4  10  21  37  57  80 112 147 179 221 270 323
#     4   9  18  33  54  81 112 142 172 217 276 326
#     4  11  21  32  48  70  99 136 178 221 265 313
#     4  10  19  34  58  85 109 140 183 226 266 314
#     4   9  18  34  54  78 105 140 182 220 262 311
#
# _framework density 20.590115999999998
#
# number of rings (size 3 to 8) (size 9 to 14) (size 15 to 20)
#    0.000    2.333    1.667    2.500    0.000    3.667 
#    0.000    3.333    0.000    2.500    0.000    0.000 
#    0.000    0.000    0.000    0.000    0.000    0.000 
#
# Total GULP energy -267502.861584 kJ/mol
# GULP energy per Si atom -5572.976283 kJ/mol
# Density = 2.054325 g / cm^3
# Si number density = 20.590116 Si / 1000 Ang^3
#
#
#
# Elastic Constant Matrix: (Units=GPa)
#
#
# Indices 1 2 3 4 5 6 
#
# 1 85.7050 40.7573 28.0961 0.0000 0.0000 0.0000
# 2 40.7573 116.6413 -2.0808 0.0000 0.0000 0.0000
# 3 28.0961 -2.0808 62.7412 0.0002 0.0000 0.0000
# 4 0.0000 0.0000 0.0002 8.4238 0.0000 0.0000
# 5 0.0000 0.0000 0.0000 0.0000 19.5453 0.0000
# 6 0.0000 0.0000 0.0000 0.0000 0.0000 28.6543
#
#
#
# Elastic Compliance Matrix: (Units=1/GPa)
#
#
# Indices 1 2 3 4 5 6 
#
# 1 0.017178 -0.006143 -0.007896 0.000000 0.000000 0.000000
# 2 -0.006143 0.010775 0.003108 0.000000 0.000000 0.000000
# 3 -0.007896 0.003108 0.019578 0.000000 0.000000 0.000000
# 4 0.000000 0.000000 0.000000 0.118711 0.000000 0.000000
# 5 0.000000 0.000000 0.000000 0.000000 0.051163 0.000000
# 6 0.000000 0.000000 0.000000 0.000000 0.000000 0.034899
#
#
# Mechanical properties :
#
#
# Convention : Reuss Voigt Hill
#
# Bulk Modulus (GPa) = 38.95793 44.29254 41.62523
# Shear Modulus (GPa) = 17.68518 24.54565 21.11542
#
# Velocity S-wave (km/s) = 2.93391 3.45644 3.20584
# Velocity P-wave (km/s) = 5.51714 6.12271 5.82779
#
# Compressibility (1/GPa) = 0.02566872
#
# Stress axis : x y z
#
# Youngs Moduli (GPa) = 58.21421 92.80442 51.07882
#
# Poissons Ratio (x) = 0.57012 0.40333
# Poissons Ratio (y) = 0.35762 -0.15877
# Poissons Ratio (z) = 0.45967 -0.28847
#
# Static dielectric constant tensor:
#      x y z
#    x 1.725610 0.000000 0.000000 
#    y 0.000000 1.798750 0.000000 
#    z 0.000000 0.000000 1.774960 
# 
# From -- ./inp_files/49105.got.cif
#   From: 2010.05.17/outbox.cif.g08.bks.cpg/sg74_25_cif.got.tgz:49105.got - 2010.06.03 17:57:02.
