data_PCOD9536126
_publ_section_title
;
Structure prediction by ZEFSAII (Michael W. Deem and Ramdas Pophale) SiO2 
 PCOD9536126
Probable space group: I M M A
;
_chemical_formula_sum "Si O2"
_cell_formula_units_Z 88
_cell_length_a 29.012509
_cell_length_b 7.491174
_cell_length_c 18.001697
_cell_angle_alpha 90.000000
_cell_angle_beta 90.000000
_cell_angle_gamma 90.000000
_cell_volume 3912.448378
_symmetry_space_group_name_H-M "I M M A"
_symmetry_group_IT_number 74
_symmetry_cell_setting 'orthorhombic'
loop_
_space_group_symop_operation_xyz
x,y,z
-x,1/2-y,z
x,-y,-z
-x,1/2+y,-z
-x,-y,-z
x,1/2+y,-z
-x,y,z
x,1/2-y,z
1/2+x,1/2+y,1/2+z
1/2-x,-y,1/2+z
1/2+x,1/2-y,1/2-z
1/2-x,y,1/2-z
1/2-x,1/2-y,1/2-z
1/2+x,y,1/2-z
1/2-x,1/2+y,1/2+z
1/2+x,-y,1/2+z
loop_
_atom_site_type_symbol
_atom_site_label
_atom_site_fract_x
_atom_site_fract_y
_atom_site_fract_z
Si Si1 0.853726 0.531158 0.153330
Si Si2 0.238424 0.963414 0.083088
Si Si3 0.684210 0.545620 0.190321
Si Si4 0.050903 0.963914 0.087685
Si Si5 0.100229 0.463141 0.412103
Si Si6 0.000000 0.536792 0.588376
O O1 0.855823 0.750000 0.154143
O O2 0.814043 0.476482 0.095321
O O3 0.835139 0.468640 0.233206
O O4 0.904578 0.467843 0.131654
O O5 0.238642 0.750000 0.090981
O O6 0.272277 0.035502 0.147060
O O7 0.255179 0.000000 0.000000
O O8 0.696953 0.750000 0.208651
O O9 0.642227 0.544857 0.132377
O O10 0.049888 0.750000 0.097033
O O11 0.000000 0.032639 0.109371
O O12 0.057043 0.000000 0.000000
O O13 0.103866 0.500000 0.500000
O O14 0.102137 0.250000 0.401927
O O15 0.049767 0.529517 0.384854
O O16 0.000000 0.500000 0.500000
O O17 0.000000 0.750000 0.598662
#
# Coordination Sequence:
#
# PCOD9536126 Si02
#       6
#    16  16  16  16  16   8
#     4   9  18  34  53  74 102 137 173 208 253 309
#     4  10  20  34  54  76 100 133 173 215 256 305
#     4  10  20  34  51  74 103 136 171 208 254 305
#     4   9  17  31  53  78 103 131 168 213 256 301
#     4  10  19  33  52  73  99 132 172 215 258 303
#     4   8  16  30  48  68  92 124 163 206 249 294
#
# _framework density 22.49231
#
# number of rings (size 3 to 8) (size 9 to 14) (size 15 to 20)
#    0.000    2.545    0.000    2.182    0.000    5.091 
#    1.636    1.818    0.000    2.182    0.000    0.000 
#    0.000    0.000    0.000    0.000    0.000    0.000 
#
# Total GULP energy -245613.718723 kJ/mol
# GULP energy per Si atom -5582.129971 kJ/mol
# Density = 2.244112 g / cm^3
# Si number density = 22.492310 Si / 1000 Ang^3
#
#
#
# Elastic Constant Matrix: (Units=GPa)
#
#
# Indices 1 2 3 4 5 6 
#
# 1 188.4806 7.7743 66.2589 0.0000 0.0000 0.0000
# 2 7.7743 70.2091 -3.2140 0.0000 0.0000 0.0000
# 3 66.2589 -3.2140 94.3025 0.0000 0.0000 0.0000
# 4 0.0000 0.0000 0.0000 13.1312 0.0000 0.0000
# 5 0.0000 0.0000 0.0000 0.0000 -100.3493 0.0000
# 6 0.0000 0.0000 0.0000 0.0000 0.0000 7.7548
#
#
#
# Elastic Compliance Matrix: (Units=1/GPa)
#
#
# Indices 1 2 3 4 5 6 
#
# 1 0.007118 -0.001019 -0.005036 0.000000 0.000000 0.000000
# 2 -0.001019 0.014411 0.001207 0.000000 0.000000 0.000000
# 3 -0.005036 0.001207 0.014184 0.000000 0.000000 0.000000
# 4 0.000000 0.000000 0.000000 0.076155 0.000000 0.000000
# 5 0.000000 0.000000 0.000000 0.000000 -0.009965 0.000000
# 6 0.000000 0.000000 0.000000 0.000000 0.000000 0.128953
#
#
# Mechanical properties :
#
#
# Convention : Reuss Voigt Hill
#
# Bulk Modulus (GPa) = 38.43581 54.95893 46.69737
# Shear Modulus (GPa) = 20.06234 2.91887 11.49061
#
# Velocity S-wave (km/s) = 2.98982 1.14041 2.26269
# Velocity P-wave (km/s) = 5.38927 5.12071 5.25670
#
# Compressibility (1/GPa) = 0.02601741
#
# Stress axis : x y z
#
# Youngs Moduli (GPa) = 140.48994 69.39039 70.50362
#
# Poissons Ratio (x) = 0.07069 0.35505
# Poissons Ratio (y) = 0.14312 -0.08509
# Poissons Ratio (z) = 0.70750 -0.08375
#
# Static dielectric constant tensor:
#      x y z
#    x 1.862120 0.000000 0.000000 
#    y 0.000000 1.883020 0.000000 
#    z 0.000000 0.000000 1.791890 
# 
# From -- ./inp_files/47072.got.cif
#   From: 2010.05.17/outbox.cif.g08.bks.cpg/sg74_24_cif.got.tgz:47072.got - 2010.06.03 17:57:02.
