data_PCOD9536322
_publ_section_title
;
Structure prediction by ZEFSAII (Michael W. Deem and Ramdas Pophale) SiO2 
 PCOD9536322
Probable space group: I M M A
;
_chemical_formula_sum "Si O2"
_cell_formula_units_Z 112
_cell_length_a 27.493973
_cell_length_b 15.689474
_cell_length_c 12.714745
_cell_angle_alpha 90.000000
_cell_angle_beta 90.000000
_cell_angle_gamma 90.000000
_cell_volume 5484.708368
_symmetry_space_group_name_H-M "I M M A"
_symmetry_group_IT_number 74
_symmetry_cell_setting 'orthorhombic'
loop_
_space_group_symop_operation_xyz
x,y,z
-x,1/2-y,z
x,-y,-z
-x,1/2+y,-z
-x,-y,-z
x,1/2+y,-z
-x,y,z
x,1/2-y,z
1/2+x,1/2+y,1/2+z
1/2-x,-y,1/2+z
1/2+x,1/2-y,1/2-z
1/2-x,y,1/2-z
1/2-x,1/2-y,1/2-z
1/2+x,y,1/2-z
1/2-x,1/2+y,1/2+z
1/2+x,-y,1/2+z
loop_
_atom_site_type_symbol
_atom_site_label
_atom_site_fract_x
_atom_site_fract_y
_atom_site_fract_z
Si Si1 0.786062 0.101328 0.489017
Si Si2 0.427741 0.343227 0.138334
Si Si3 0.054994 0.480344 0.744066
Si Si4 0.319300 0.654348 0.764969
Si Si5 0.647164 0.002536 0.375572
Si Si6 0.288967 0.343321 0.656509
Si Si7 0.109552 0.847839 0.408301
O O1 0.787606 0.126714 0.366157
O O2 0.741933 0.144475 0.550361
O O3 0.836510 0.126687 0.549159
O O4 0.781300 0.000000 0.500000
O O5 0.448193 0.250000 0.166478
O O6 0.449046 0.429733 0.183214
O O7 0.372955 0.342371 0.183283
O O8 0.423651 0.349094 0.012944
O O9 0.090793 0.499987 0.841408
O O10 0.085034 0.413482 0.672115
O O11 0.000000 0.450910 0.768315
O O12 0.307000 0.750000 0.728949
O O13 0.325228 0.583105 0.675888
O O14 0.672918 0.918270 0.331413
O O15 0.652009 0.000000 0.500000
O O16 0.311963 0.250000 0.658193
O O17 0.250000 0.348692 0.750000
O O18 0.111800 0.750000 0.369814
#
# Coordination Sequence:
#
# PCOD9536322 Si02
#       7
#    16  16  16  16  16  16  16
#     4  11  19  34  63  95 130 164 195 233 289 366
#     4   8  16  32  56  88 121 149 181 230 297 370
#     4  11  23  38  57  81 112 154 204 255 304 354
#     4   9  18  36  62  89 118 155 198 244 299 363
#     4  11  25  43  61  83 113 153 204 262 315 362
#     4  11  23  39  62  93 127 161 194 231 287 362
#     4  10  19  33  56  88 126 162 191 226 282 357
#
# _framework density 20.420411000000001
#
# number of rings (size 3 to 8) (size 9 to 14) (size 15 to 20)
#    0.000    1.857    0.000    7.286    0.000    4.286 
#    0.000    1.429    0.000    4.714    0.000    4.000 
#    0.000    0.000    0.000    0.000    0.000    0.000 
#
# Total GULP energy -312888.081991 kJ/mol
# GULP energy per Si atom -5587.287178 kJ/mol
# Density = 2.037393 g / cm^3
# Si number density = 20.420411 Si / 1000 Ang^3
#
#
#
# Elastic Constant Matrix: (Units=GPa)
#
#
# Indices 1 2 3 4 5 6 
#
# 1 94.0216 32.2185 27.9932 0.0000 0.0000 0.0000
# 2 32.2185 174.5695 58.1986 0.0000 0.0000 0.0000
# 3 27.9932 58.1986 111.3323 0.0000 0.0000 0.0000
# 4 0.0000 0.0000 0.0000 7.1581 0.0000 0.0000
# 5 0.0000 0.0000 0.0000 0.0000 3.8060 0.0000
# 6 0.0000 0.0000 0.0000 0.0000 0.0000 35.7734
#
#
#
# Elastic Compliance Matrix: (Units=1/GPa)
#
#
# Indices 1 2 3 4 5 6 
#
# 1 0.011787 -0.001438 -0.002212 0.000000 0.000000 0.000000
# 2 -0.001438 0.007113 -0.003357 0.000000 0.000000 0.000000
# 3 -0.002212 -0.003357 0.011293 0.000000 0.000000 0.000000
# 4 0.000000 0.000000 0.000000 0.139702 0.000000 0.000000
# 5 0.000000 0.000000 0.000000 0.000000 0.262741 0.000000
# 6 0.000000 0.000000 0.000000 0.000000 0.000000 0.027954
#
#
# Mechanical properties :
#
#
# Convention : Reuss Voigt Hill
#
# Bulk Modulus (GPa) = 61.80597 68.52710 65.16654
# Shear Modulus (GPa) = 10.41676 26.78172 18.59924
#
# Velocity S-wave (km/s) = 2.26102 3.62542 3.02125
# Velocity P-wave (km/s) = 6.09498 7.15233 6.64472
#
# Compressibility (1/GPa) = 0.01617967
#
# Stress axis : x y z
#
# Youngs Moduli (GPa) = 84.83772 140.59121 88.55046
#
# Poissons Ratio (x) = 0.20217 0.19588
# Poissons Ratio (y) = 0.12199 0.29723
# Poissons Ratio (z) = 0.18767 0.47191
#
# Static dielectric constant tensor:
#      x y z
#    x 1.755340 0.000000 0.000000 
#    y 0.000000 1.729460 0.000000 
#    z 0.000000 0.000000 1.715940 
# 
# From -- ./inp_files/27220.got.cif
#   From: 2010.05.17/outbox.cif.g08.bks.cpg/sg74_14_cif.got.tgz:27220.got - 2010.06.03 17:57:02.
