data_PCOD9536962
_publ_section_title
;
Structure prediction by ZEFSAII (Michael W. Deem and Ramdas Pophale) SiO2 
 PCOD9536962
Probable space group: I M M A
;
_chemical_formula_sum "Si O2"
_cell_formula_units_Z 88
_cell_length_a 20.079208
_cell_length_b 8.964255
_cell_length_c 27.669474
_cell_angle_alpha 90.000000
_cell_angle_beta 90.000000
_cell_angle_gamma 90.000000
_cell_volume 4980.370866
_symmetry_space_group_name_H-M "I M M A"
_symmetry_group_IT_number 74
_symmetry_cell_setting 'orthorhombic'
loop_
_space_group_symop_operation_xyz
x,y,z
-x,1/2-y,z
x,-y,-z
-x,1/2+y,-z
-x,-y,-z
x,1/2+y,-z
-x,y,z
x,1/2-y,z
1/2+x,1/2+y,1/2+z
1/2-x,-y,1/2+z
1/2+x,1/2-y,1/2-z
1/2-x,y,1/2-z
1/2-x,1/2-y,1/2-z
1/2+x,y,1/2-z
1/2-x,1/2+y,1/2+z
1/2+x,-y,1/2+z
loop_
_atom_site_type_symbol
_atom_site_label
_atom_site_fract_x
_atom_site_fract_y
_atom_site_fract_z
Si Si1 0.779067 0.073317 0.627925
Si Si2 0.128240 0.571657 0.552942
Si Si3 0.500000 0.079958 0.899274
Si Si4 0.650569 0.081448 0.217409
Si Si5 0.645700 0.929729 0.319451
Si Si6 0.000000 0.499738 0.289990
Si Si7 0.500000 0.582508 0.319573
O O1 0.789556 0.250000 0.620440
O O2 0.701968 0.045759 0.640711
O O3 0.807735 0.982110 0.583099
O O4 0.819472 0.020019 0.675253
O O5 0.128411 0.500000 0.500000
O O6 0.124465 0.750000 0.550616
O O7 0.064646 0.506106 0.581531
O O8 0.500000 0.250000 0.917553
O O9 0.500000 0.082698 0.841135
O O10 0.676259 0.250000 0.213602
O O11 0.570355 0.084736 0.211534
O O12 0.665274 0.009742 0.269502
O O13 0.642067 0.750000 0.310553
O O14 0.571440 0.985033 0.332977
O O15 0.000000 0.587488 0.239160
O O16 0.500000 0.750000 0.339327
#
# Coordination Sequence:
#
# PCOD9536962 Si02
#       7
#    16  16   8  16  16   8   8
#     4  11  22  36  54  77 106 140 181 225 276 329
#     4  12  26  43  61  81 108 140 182 232 279 327
#     4  12  23  38  61  83 108 145 188 231 274 319
#     4  11  21  32  49  74 108 145 186 229 270 319
#     4   9  19  34  53  77 107 143 181 223 268 325
#     4  10  20  31  50  74 110 147 189 226 268 305
#     4   8  15  31  52  77 107 142 182 218 260 313
#
# _framework density 17.669367000000001
#
# number of rings (size 3 to 8) (size 9 to 14) (size 15 to 20)
#    0.000    1.455    1.818    4.364    0.000    5.818 
#    0.000    0.000    0.000    0.000    0.000    0.636 
#    0.000    0.000    0.000    0.000    0.000    0.000 
#
# Total GULP energy -245613.628695 kJ/mol
# GULP energy per Si atom -5582.127925 kJ/mol
# Density = 1.762915 g / cm^3
# Si number density = 17.669367 Si / 1000 Ang^3
#
#
#
# Elastic Constant Matrix: (Units=GPa)
#
#
# Indices 1 2 3 4 5 6 
#
# 1 106.4170 38.5107 40.6596 0.0000 0.0000 0.0000
# 2 38.5107 111.7710 34.9959 0.0000 0.0000 0.0000
# 3 40.6596 34.9959 63.4678 0.0000 0.0000 0.0000
# 4 0.0000 0.0000 0.0000 13.5148 0.0000 0.0000
# 5 0.0000 0.0000 0.0000 0.0000 16.4254 0.0000
# 6 0.0000 0.0000 0.0000 0.0000 0.0000 7.2962
#
#
#
# Elastic Compliance Matrix: (Units=1/GPa)
#
#
# Indices 1 2 3 4 5 6 
#
# 1 0.012892 -0.002243 -0.007022 0.000000 0.000000 0.000000
# 2 -0.002243 0.011204 -0.004741 0.000000 0.000000 0.000000
# 3 -0.007022 -0.004741 0.022869 0.000000 0.000000 0.000000
# 4 0.000000 0.000000 0.000000 0.073993 0.000000 0.000000
# 5 0.000000 0.000000 0.000000 0.000000 0.060881 0.000000
# 6 0.000000 0.000000 0.000000 0.000000 0.000000 0.137057
#
#
# Mechanical properties :
#
#
# Convention : Reuss Voigt Hill
#
# Bulk Modulus (GPa) = 52.76372 56.66536 54.71454
# Shear Modulus (GPa) = 14.15525 18.61325 16.38425
#
# Velocity S-wave (km/s) = 2.83347 3.24916 3.04841
# Velocity P-wave (km/s) = 6.37427 6.79820 6.58964
#
# Compressibility (1/GPa) = 0.01895242
#
# Stress axis : x y z
#
# Youngs Moduli (GPa) = 77.56913 89.25269 43.72810
#
# Poissons Ratio (x) = 0.20022 0.30706
# Poissons Ratio (y) = 0.17401 0.20731
# Poissons Ratio (z) = 0.54469 0.42313
#
# Static dielectric constant tensor:
#      x y z
#    x 1.651800 0.000000 0.000000 
#    y 0.000000 1.606370 0.000000 
#    z 0.000000 0.000000 1.566190 
# 
# From -- ./inp_files/61497.got.cif
#   From: 2010.05.17/outbox.cif.g08.bks.cpg/sg74_31_cif.got.tgz:61497.got - 2010.06.03 17:57:02.
