data_PCOD9536950
_publ_section_title
;
Structure prediction by ZEFSAII (Michael W. Deem and Ramdas Pophale) SiO2 
 PCOD9536950
Probable space group: I M M A
;
_chemical_formula_sum "Si O2"
_cell_formula_units_Z 112
_cell_length_a 29.254382
_cell_length_b 14.398686
_cell_length_c 14.707111
_cell_angle_alpha 90.000000
_cell_angle_beta 90.000000
_cell_angle_gamma 90.000000
_cell_volume 6194.997839
_symmetry_space_group_name_H-M "I M M A"
_symmetry_group_IT_number 74
_symmetry_cell_setting 'orthorhombic'
loop_
_space_group_symop_operation_xyz
x,y,z
-x,1/2-y,z
x,-y,-z
-x,1/2+y,-z
-x,-y,-z
x,1/2+y,-z
-x,y,z
x,1/2-y,z
1/2+x,1/2+y,1/2+z
1/2-x,-y,1/2+z
1/2+x,1/2-y,1/2-z
1/2-x,y,1/2-z
1/2-x,1/2-y,1/2-z
1/2+x,y,1/2-z
1/2-x,1/2+y,1/2+z
1/2+x,-y,1/2+z
loop_
_atom_site_type_symbol
_atom_site_label
_atom_site_fract_x
_atom_site_fract_y
_atom_site_fract_z
Si Si1 0.112007 0.643941 0.157758
Si Si2 0.202429 0.360462 0.124736
Si Si3 0.365989 0.468628 0.240042
Si Si4 0.551629 0.638568 0.722180
Si Si5 0.283158 0.489994 0.108457
Si Si6 0.051715 0.637699 0.986120
Si Si7 0.212957 0.853428 0.087441
O O1 0.096638 0.750000 0.179391
O O2 0.107943 0.562244 0.229735
O O3 0.087196 0.613205 0.064386
O O4 0.166295 0.647803 0.142267
O O5 0.197751 0.250000 0.142691
O O6 0.165479 0.420066 0.180992
O O7 0.253850 0.399441 0.138580
O O8 0.197795 0.376584 0.016051
O O9 0.406933 0.398326 0.218143
O O10 0.330338 0.490575 0.160997
O O11 0.500000 0.608139 0.745358
O O12 0.551769 0.750000 0.722561
O O13 0.561167 0.607738 0.617221
O O14 0.248804 0.574988 0.127983
O O15 0.290154 0.500000 0.000000
O O16 0.052383 0.750000 0.982656
O O17 0.000000 0.609358 0.010447
O O18 0.233101 0.750000 0.084529
#
# Coordination Sequence:
#
# PCOD9536950 Si02
#       7
#    16  16  16  16  16  16  16
#     4  10  20  31  47  73 104 142 182 212 245 294
#     4  10  20  33  52  78 105 132 166 213 265 314
#     4  12  22  32  53  78 101 133 179 224 258 306
#     4   9  19  35  54  79 110 138 166 206 261 322
#     4  10  22  38  51  70 101 136 175 216 271 319
#     4   8  15  30  50  74 108 143 168 197 245 304
#     4   9  18  34  52  71 103 142 175 210 255 311
#
# _framework density 18.079103
#
# number of rings (size 3 to 8) (size 9 to 14) (size 15 to 20)
#    0.000    2.286    1.429    2.571    0.000    6.857 
#    0.000    2.857    0.000    0.429    0.000    0.000 
#    0.000    2.286    0.000    0.000    0.000    0.000 
#
# Total GULP energy -312219.802876 kJ/mol
# GULP energy per Si atom -5575.353623 kJ/mol
# Density = 1.803795 g / cm^3
# Si number density = 18.079103 Si / 1000 Ang^3
#
#
#
# Elastic Constant Matrix: (Units=GPa)
#
#
# Indices 1 2 3 4 5 6 
#
# 1 92.9369 18.8057 22.3779 0.0000 0.0000 0.0000
# 2 18.8057 68.6745 19.4449 0.0000 0.0000 0.0000
# 3 22.3779 19.4449 24.3930 0.0000 0.0000 0.0000
# 4 0.0000 0.0000 0.0000 12.5935 0.0000 0.0000
# 5 0.0000 0.0000 0.0000 0.0000 26.4799 0.0000
# 6 0.0000 0.0000 0.0000 0.0000 0.0000 18.3149
#
#
#
# Elastic Compliance Matrix: (Units=1/GPa)
#
#
# Indices 1 2 3 4 5 6 
#
# 1 0.013814 -0.000251 -0.012473 0.000000 0.000000 0.000000
# 2 -0.000251 0.018811 -0.014764 0.000000 0.000000 0.000000
# 3 -0.012473 -0.014764 0.064207 0.000000 0.000000 0.000000
# 4 0.000000 0.000000 0.000000 0.079406 0.000000 0.000000
# 5 0.000000 0.000000 0.000000 0.000000 0.037765 0.000000
# 6 0.000000 0.000000 0.000000 0.000000 0.000000 0.054600
#
#
# Mechanical properties :
#
#
# Convention : Reuss Voigt Hill
#
# Bulk Modulus (GPa) = 23.89190 34.14016 29.01603
# Shear Modulus (GPa) = 14.81346 19.83606 17.32476
#
# Velocity S-wave (km/s) = 2.86557 3.31597 3.09896
# Velocity P-wave (km/s) = 4.91859 5.79531 5.37486
#
# Compressibility (1/GPa) = 0.04185518
#
# Stress axis : x y z
#
# Youngs Moduli (GPa) = 72.39007 53.16115 15.57464
#
# Poissons Ratio (x) = 0.01336 0.19426
# Poissons Ratio (y) = 0.01819 0.22995
# Poissons Ratio (z) = 0.90289 0.78489
#
# Static dielectric constant tensor:
#      x y z
#    x 1.620000 0.000000 0.000000 
#    y 0.000000 1.699110 0.000000 
#    z 0.000000 0.000000 1.634080 
# 
# From -- ./inp_files/37944.got.cif
#   From: 2010.05.17/outbox.cif.g08.bks.cpg/sg74_19_cif.got.tgz:37944.got - 2010.06.03 17:57:02.
