data_PCOD9536725
_publ_section_title
;
Structure prediction by ZEFSAII (Michael W. Deem and Ramdas Pophale) SiO2 
 PCOD9536725
Probable space group: I M M A
;
_chemical_formula_sum "Si O2"
_cell_formula_units_Z 64
_cell_length_a 9.651352
_cell_length_b 17.558344
_cell_length_c 21.868544
_cell_angle_alpha 90.000000
_cell_angle_beta 90.000000
_cell_angle_gamma 90.000000
_cell_volume 3705.881922
_symmetry_space_group_name_H-M "I M M A"
_symmetry_group_IT_number 74
_symmetry_cell_setting 'orthorhombic'
loop_
_space_group_symop_operation_xyz
x,y,z
-x,1/2-y,z
x,-y,-z
-x,1/2+y,-z
-x,-y,-z
x,1/2+y,-z
-x,y,z
x,1/2-y,z
1/2+x,1/2+y,1/2+z
1/2-x,-y,1/2+z
1/2+x,1/2-y,1/2-z
1/2-x,y,1/2-z
1/2-x,1/2-y,1/2-z
1/2+x,y,1/2-z
1/2-x,1/2+y,1/2+z
1/2+x,-y,1/2+z
loop_
_atom_site_type_symbol
_atom_site_label
_atom_site_fract_x
_atom_site_fract_y
_atom_site_fract_z
Si Si1 0.500000 0.157603 0.032062
Si Si2 0.500000 0.010231 0.684806
Si Si3 0.250000 0.423442 0.250000
Si Si4 0.500000 0.562765 0.552914
Si Si5 0.209514 0.159414 0.986985
Si Si6 0.000000 0.839820 0.121687
Si Si7 0.000000 0.157888 0.324309
O O1 0.500000 0.250000 0.033467
O O2 0.500000 0.134761 0.103575
O O3 0.366009 0.133843 0.994007
O O4 0.639514 0.976980 0.714929
O O5 0.500000 0.977472 0.616653
O O6 0.500000 0.101488 0.677274
O O7 0.358019 0.373605 0.208121
O O8 0.500000 0.500000 0.500000
O O9 0.629573 0.616885 0.540796
O O10 0.199098 0.250000 0.996183
O O11 0.131550 0.144517 0.923088
O O12 0.000000 0.750000 0.137361
O O13 0.000000 0.250000 0.320410
#
# Coordination Sequence:
#
# PCOD9536725 Si02
#       7
#     8   8   8   8  16   8   8
#     4   9  17  29  49  74 110 137 164 212 260 314
#     4  11  21  39  55  76 112 137 184 223 274 315
#     4  10  23  36  55  76 104 150 182 228 261 302
#     4  11  18  30  54  78 102 134 173 212 262 315
#     4   9  17  31  50  80 109 138 170 208 269 325
#     4   9  18  35  59  77 101 140 179 221 266 326
#     4  10  19  36  54  77 107 146 187 216 253 304
#
# _framework density 17.269843000000002
#
# number of rings (size 3 to 8) (size 9 to 14) (size 15 to 20)
#    0.000    2.250    2.500    3.000    0.000    0.000 
#    0.000   10.000    0.000    0.000    0.000    0.000 
#    0.000    0.000    0.000    0.000    0.000    0.000 
#
# Total GULP energy -178141.228449 kJ/mol
# GULP energy per Si atom -5566.913389 kJ/mol
# Density = 1.723054 g / cm^3
# Si number density = 17.269843 Si / 1000 Ang^3
#
#
#
# Elastic Constant Matrix: (Units=GPa)
#
#
# Indices 1 2 3 4 5 6 
#
# 1 166.0473 43.6071 45.8072 0.0000 0.0000 0.0000
# 2 43.6071 79.9139 38.2791 0.0000 0.0000 0.0000
# 3 45.8072 38.2791 69.1495 0.0000 0.0000 0.0000
# 4 0.0000 0.0000 0.0000 29.7247 0.0000 0.0000
# 5 0.0000 0.0000 0.0000 0.0000 -36.0625 0.0000
# 6 0.0000 0.0000 0.0000 0.0000 0.0000 69.7249
#
#
#
# Elastic Compliance Matrix: (Units=1/GPa)
#
#
# Indices 1 2 3 4 5 6 
#
# 1 0.007690 -0.002390 -0.003771 0.000000 0.000000 0.000000
# 2 -0.002390 0.017772 -0.008255 0.000000 0.000000 0.000000
# 3 -0.003771 -0.008255 0.021529 0.000000 0.000000 0.000000
# 4 0.000000 0.000000 0.000000 0.033642 0.000000 0.000000
# 5 0.000000 0.000000 0.000000 0.000000 -0.027730 0.000000
# 6 0.000000 0.000000 0.000000 0.000000 0.000000 0.014342
#
#
# Mechanical properties :
#
#
# Convention : Reuss Voigt Hill
#
# Bulk Modulus (GPa) = 55.06821 63.38861 59.22841
# Shear Modulus (GPa) = 48.95675 25.17190 37.06433
#
# Velocity S-wave (km/s) = 5.33007 3.82195 4.63772
# Velocity P-wave (km/s) = 8.35677 7.50072 7.94029
#
# Compressibility (1/GPa) = 0.01815930
#
# Stress axis : x y z
#
# Youngs Moduli (GPa) = 130.03147 56.26951 46.44838
#
# Poissons Ratio (x) = 0.13448 0.17518
# Poissons Ratio (y) = 0.31077 0.38341
# Poissons Ratio (z) = 0.49040 0.46448
#
# Static dielectric constant tensor:
#      x y z
#    x 0.923320 0.000000 0.000000 
#    y 0.000000 1.598920 0.000000 
#    z 0.000000 0.000000 1.571580 
# 
# From -- ./inp_files/48098.got.cif
#   From: 2010.05.17/outbox.cif.g08.bks.cpg/sg74_25_cif.got.tgz:48098.got - 2010.06.03 17:57:02.
