data_PCOD9536879
_publ_section_title
;
Structure prediction by ZEFSAII (Michael W. Deem and Ramdas Pophale) SiO2 
 PCOD9536879
Probable space group: I M M A
;
_chemical_formula_sum "Si O2"
_cell_formula_units_Z 88
_cell_length_a 10.682146
_cell_length_b 17.841168
_cell_length_c 22.344667
_cell_angle_alpha 90.000000
_cell_angle_beta 90.000000
_cell_angle_gamma 90.000000
_cell_volume 4258.490463
_symmetry_space_group_name_H-M "I M M A"
_symmetry_group_IT_number 74
_symmetry_cell_setting 'orthorhombic'
loop_
_space_group_symop_operation_xyz
x,y,z
-x,1/2-y,z
x,-y,-z
-x,1/2+y,-z
-x,-y,-z
x,1/2+y,-z
-x,y,z
x,1/2-y,z
1/2+x,1/2+y,1/2+z
1/2-x,-y,1/2+z
1/2+x,1/2-y,1/2-z
1/2-x,y,1/2-z
1/2-x,1/2-y,1/2-z
1/2+x,y,1/2-z
1/2-x,1/2+y,1/2+z
1/2+x,-y,1/2+z
loop_
_atom_site_type_symbol
_atom_site_label
_atom_site_fract_x
_atom_site_fract_y
_atom_site_fract_z
Si Si1 0.850102 0.474809 0.300935
Si Si2 0.724327 0.410849 0.011122
Si Si3 0.135414 0.750000 0.295496
Si Si4 0.500000 0.910903 0.510312
Si Si5 0.000000 0.840065 0.120981
Si Si6 0.144168 0.666809 0.626527
Si Si7 0.276515 0.884799 0.126828
O O1 0.750000 0.496485 0.250000
O O2 0.806538 0.394595 0.326972
O O3 0.829211 0.535312 0.353484
O O4 0.000000 0.474767 0.285068
O O5 0.864715 0.397230 0.037647
O O6 0.714693 0.376154 0.944786
O O7 0.704673 0.500000 0.000000
O O8 0.643288 0.370618 0.060809
O O9 0.250000 0.750000 0.250000
O O10 0.148882 0.821909 0.337629
O O11 0.000000 0.750000 0.264825
O O12 0.500000 0.865877 0.448269
O O13 0.500000 0.000000 0.500000
O O14 0.869868 0.873731 0.145085
O O15 0.000000 0.750000 0.124729
O O16 0.201950 0.750000 0.625960
O O17 0.000000 0.674619 0.644140
#
# Coordination Sequence:
#
# PCOD9536879 Si02
#       7
#    16  16   8   8   8  16  16
#     4  11  25  46  69  97 127 170 224 275 329 392
#     4  10  19  38  63  97 131 169 204 262 323 389
#     4  12  28  44  64  92 132 174 223 272 316 379
#     4   8  18  32  56  90 130 166 206 250 305 378
#     4  10  20  36  62  92 126 178 216 255 328 386
#     4  10  23  42  66  97 133 169 211 266 334 400
#     4  11  23  40  66  96 132 170 221 271 322 390
#
# _framework density 20.664598000000002
#
# number of rings (size 3 to 8) (size 9 to 14) (size 15 to 20)
#    0.000    1.636    2.727    1.091    3.818    2.909 
#    1.636    0.000    0.000    0.000    0.000    0.000 
#    0.000    0.000    0.000    0.000    0.000    0.000 
#
# Total GULP energy -245320.706596 kJ/mol
# GULP energy per Si atom -5575.470604 kJ/mol
# Density = 2.061756 g / cm^3
# Si number density = 20.664598 Si / 1000 Ang^3
#
#
#
# Elastic Constant Matrix: (Units=GPa)
#
#
# Indices 1 2 3 4 5 6 
#
# 1 97.4927 6.2507 7.5550 0.0000 0.0000 0.0000
# 2 6.2507 84.6957 -8.1786 0.0000 0.0000 0.0000
# 3 7.5550 -8.1786 40.9124 0.0000 0.0000 0.0000
# 4 0.0000 0.0000 0.0000 21.5314 0.0000 0.0000
# 5 0.0000 0.0000 0.0000 0.0000 14.0233 0.0000
# 6 0.0000 0.0000 0.0000 0.0000 0.0000 27.3123
#
#
#
# Elastic Compliance Matrix: (Units=1/GPa)
#
#
# Indices 1 2 3 4 5 6 
#
# 1 0.010485 -0.000980 -0.002132 0.000000 0.000000 0.000000
# 2 -0.000980 0.012131 0.002606 0.000000 0.000000 0.000000
# 3 -0.002132 0.002606 0.025357 0.000000 0.000000 0.000000
# 4 0.000000 0.000000 0.000000 0.046444 0.000000 0.000000
# 5 0.000000 0.000000 0.000000 0.000000 0.071310 0.000000
# 6 0.000000 0.000000 0.000000 0.000000 0.000000 0.036614
#
#
# Mechanical properties :
#
#
# Convention : Reuss Voigt Hill
#
# Bulk Modulus (GPa) = 21.29403 26.03947 23.66675
# Shear Modulus (GPa) = 22.83043 27.07165 24.95104
#
# Velocity S-wave (km/s) = 3.32747 3.62339 3.47858
# Velocity P-wave (km/s) = 5.00896 5.48941 5.25468
#
# Compressibility (1/GPa) = 0.04696151
#
# Stress axis : x y z
#
# Youngs Moduli (GPa) = 95.37236 82.43402 39.43669
#
# Poissons Ratio (x) = 0.08076 0.08408
# Poissons Ratio (y) = 0.09344 -0.10277
# Poissons Ratio (z) = 0.20334 -0.21482
#
# Static dielectric constant tensor:
#      x y z
#    x 1.827600 0.000000 0.000000 
#    y 0.000000 1.776420 0.000000 
#    z 0.000000 0.000000 1.702640 
# 
# From -- ./inp_files/50568.got.cif
#   From: 2010.05.17/outbox.cif.g08.bks.cpg/sg74_26_cif.got.tgz:50568.got - 2010.06.03 17:57:02.
