data_PCOD9536889
_publ_section_title
;
Structure prediction by ZEFSAII (Michael W. Deem and Ramdas Pophale) SiO2 
 PCOD9536889
Probable space group: I M M A
;
_chemical_formula_sum "Si O2"
_cell_formula_units_Z 64
_cell_length_a 23.480418
_cell_length_b 13.372240
_cell_length_c 10.549633
_cell_angle_alpha 90.000000
_cell_angle_beta 90.000000
_cell_angle_gamma 90.000000
_cell_volume 3312.434797
_symmetry_space_group_name_H-M "I M M A"
_symmetry_group_IT_number 74
_symmetry_cell_setting 'orthorhombic'
loop_
_space_group_symop_operation_xyz
x,y,z
-x,1/2-y,z
x,-y,-z
-x,1/2+y,-z
-x,-y,-z
x,1/2+y,-z
-x,y,z
x,1/2-y,z
1/2+x,1/2+y,1/2+z
1/2-x,-y,1/2+z
1/2+x,1/2-y,1/2-z
1/2-x,y,1/2-z
1/2-x,1/2-y,1/2-z
1/2+x,y,1/2-z
1/2-x,1/2+y,1/2+z
1/2+x,-y,1/2+z
loop_
_atom_site_type_symbol
_atom_site_label
_atom_site_fract_x
_atom_site_fract_y
_atom_site_fract_z
Si Si1 0.208309 0.750000 0.370240
Si Si2 0.214492 0.250000 0.120209
Si Si3 0.500000 0.362876 0.323735
Si Si4 0.624123 0.062580 0.868336
Si Si5 0.123844 0.926623 0.882329
Si Si6 0.500000 0.948416 0.135412
O O1 0.250000 0.750000 0.250000
O O2 0.243973 0.750000 0.499968
O O3 0.169415 0.650960 0.366121
O O4 0.250000 0.250000 0.250000
O O5 0.172827 0.155354 0.115512
O O6 0.500000 0.250000 0.268586
O O7 0.560544 0.377643 0.393436
O O8 0.500000 0.456441 0.228707
O O9 0.559970 0.106759 0.853967
O O10 0.629737 0.987330 0.749594
O O11 0.628069 0.000000 0.000000
O O12 0.130851 0.000000 0.000000
O O13 0.500000 0.000000 0.000000
#
# Coordination Sequence:
#
# PCOD9536889 Si02
#       6
#     8   8   8  16  16   8
#     4  12  26  41  60  89 126 168 210 248 306 364
#     4  12  26  41  62  93 120 168 222 246 298 370
#     4  10  19  39  67  94 123 160 203 259 315 379
#     4  10  22  42  64  90 125 159 203 257 311 366
#     4  11  23  41  66  93 125 160 205 261 311 367
#     4   8  18  38  60  95 120 151 200 249 318 364
#
# _framework density 19.321134000000001
#
# number of rings (size 3 to 8) (size 9 to 14) (size 15 to 20)
#    0.000    1.500    1.250    3.375    0.000    6.500 
#   13.500    0.000    0.000    0.000    0.000    0.000 
#    0.000    0.000    0.000    0.000    0.000    0.000 
#
# Total GULP energy -178606.965117 kJ/mol
# GULP energy per Si atom -5581.467660 kJ/mol
# Density = 1.927716 g / cm^3
# Si number density = 19.321134 Si / 1000 Ang^3
#
#
#
# Elastic Constant Matrix: (Units=GPa)
#
#
# Indices 1 2 3 4 5 6 
#
# 1 208.1141 101.2564 77.1446 0.0000 0.0000 0.0000
# 2 101.2564 100.5776 54.2400 0.0000 0.0000 0.0000
# 3 77.1446 54.2400 134.8573 0.0000 0.0000 0.0000
# 4 0.0000 0.0000 0.0000 46.6788 0.0000 0.0000
# 5 0.0000 0.0000 0.0000 0.0000 27.7150 0.0000
# 6 0.0000 0.0000 0.0000 0.0000 0.0000 32.6104
#
#
#
# Elastic Compliance Matrix: (Units=1/GPa)
#
#
# Indices 1 2 3 4 5 6 
#
# 1 0.009865 -0.008797 -0.002105 0.000000 0.000000 0.000000
# 2 -0.008797 0.020540 -0.003229 0.000000 0.000000 0.000000
# 3 -0.002105 -0.003229 0.009918 0.000000 0.000000 0.000000
# 4 0.000000 0.000000 0.000000 0.021423 0.000000 0.000000
# 5 0.000000 0.000000 0.000000 0.000000 0.036082 0.000000
# 6 0.000000 0.000000 0.000000 0.000000 0.000000 0.030665
#
#
# Mechanical properties :
#
#
# Convention : Reuss Voigt Hill
#
# Bulk Modulus (GPa) = 82.90920 100.98120 91.94520
# Shear Modulus (GPa) = 31.09911 35.46138 33.28025
#
# Velocity S-wave (km/s) = 4.01632 4.28877 4.15478
# Velocity P-wave (km/s) = 8.03194 8.76942 8.40877
#
# Compressibility (1/GPa) = 0.01206139
#
# Stress axis : x y z
#
# Youngs Moduli (GPa) = 101.36422 48.68566 100.82205
#
# Poissons Ratio (x) = 0.42827 0.21228
# Poissons Ratio (y) = 0.89165 0.32557
# Poissons Ratio (z) = 0.21342 0.15722
#
# Static dielectric constant tensor:
#      x y z
#    x 1.707870 0.000000 0.000000 
#    y 0.000000 1.633950 0.000000 
#    z 0.000000 0.000000 1.631640 
# 
# From -- ./inp_files/24706.got.cif
#   From: 2010.05.17/outbox.cif.g08.bks.cpg/sg74_13_cif.got.tgz:24706.got - 2010.06.03 17:57:02.
