data_PCOD9536000
_publ_section_title
;
Structure prediction by ZEFSAII (Michael W. Deem and Ramdas Pophale) SiO2 
 PCOD9536000
Probable space group: I M M A
;
_chemical_formula_sum "Si O2"
_cell_formula_units_Z 80
_cell_length_a 17.068896
_cell_length_b 28.641670
_cell_length_c 7.579365
_cell_angle_alpha 90.000000
_cell_angle_beta 90.000000
_cell_angle_gamma 90.000000
_cell_volume 3705.412744
_symmetry_space_group_name_H-M "I M M A"
_symmetry_group_IT_number 74
_symmetry_cell_setting 'orthorhombic'
loop_
_space_group_symop_operation_xyz
x,y,z
-x,1/2-y,z
x,-y,-z
-x,1/2+y,-z
-x,-y,-z
x,1/2+y,-z
-x,y,z
x,1/2-y,z
1/2+x,1/2+y,1/2+z
1/2-x,-y,1/2+z
1/2+x,1/2-y,1/2-z
1/2-x,y,1/2-z
1/2-x,1/2-y,1/2-z
1/2+x,y,1/2-z
1/2-x,1/2+y,1/2+z
1/2+x,-y,1/2+z
loop_
_atom_site_type_symbol
_atom_site_label
_atom_site_fract_x
_atom_site_fract_y
_atom_site_fract_z
Si Si1 0.873584 0.886287 0.589117
Si Si2 0.841555 0.984384 0.703676
Si Si3 0.713094 0.849879 0.435722
Si Si4 0.412847 0.078511 0.699615
Si Si5 0.913636 0.197351 0.166369
O O1 0.873612 0.931955 0.712741
O O2 0.784661 0.870424 0.547772
O O3 0.909639 0.902559 0.402579
O O4 0.911013 0.841982 0.683296
O O5 0.750000 0.985414 0.750000
O O6 0.847102 0.000000 0.500000
O O7 0.888978 0.024292 0.804377
O O8 0.750000 0.832981 0.250000
O O9 0.654607 0.892298 0.393692
O O10 0.658886 0.813153 0.537143
O O11 0.500000 0.085798 0.629716
O O12 0.905983 0.250000 0.237246
O O13 0.000000 0.194305 0.078631
#
# Coordination Sequence:
#
# PCOD9536000 Si02
#       5
#    16  16  16  16  16
#     4  10  21  37  60  85 114 152 193 235 280 335
#     4  10  19  32  53  80 113 151 190 231 278 333
#     4  10  21  39  61  84 111 151 194 233 277 332
#     4  10  20  35  56  84 118 153 190 233 282 336
#     4  11  24  41  61  86 115 145 182 236 294 338
#
# _framework density 21.590038
#
# number of rings (size 3 to 8) (size 9 to 14) (size 15 to 20)
#    0.000    1.800    0.000    6.000    0.000    6.400 
#    0.000    3.000    0.000   17.400    0.000    0.000 
#    0.000    0.000    0.000    0.000    0.000    0.000 
#
# Total GULP energy -223616.054343 kJ/mol
# GULP energy per Si atom -5590.401359 kJ/mol
# Density = 2.154090 g / cm^3
# Si number density = 21.590038 Si / 1000 Ang^3
#
#
#
# Elastic Constant Matrix: (Units=GPa)
#
#
# Indices 1 2 3 4 5 6 
#
# 1 136.7624 42.6893 8.4072 -0.0001 -0.0002 0.0004
# 2 42.6893 165.9742 32.5886 -0.0001 -0.0006 -0.0005
# 3 8.4072 32.5886 47.4458 0.0019 -0.0025 -0.0024
# 4 -0.0001 -0.0001 0.0019 21.1838 0.0014 -0.0011
# 5 -0.0002 -0.0006 -0.0025 0.0014 18.5079 0.0018
# 6 0.0004 -0.0005 -0.0024 -0.0011 0.0018 19.4319
#
#
#
# Elastic Compliance Matrix: (Units=1/GPa)
#
#
# Indices 1 2 3 4 5 6 
#
# 1 0.007950 -0.002044 -0.000005 0.000000 0.000000 0.000000
# 2 -0.002044 0.007490 -0.004782 0.000000 0.000000 0.000000
# 3 -0.000005 -0.004782 0.024362 -0.000002 0.000003 0.000003
# 4 0.000000 0.000000 -0.000002 0.047206 -0.000003 0.000003
# 5 0.000000 0.000000 0.000003 -0.000003 0.054031 -0.000005
# 6 0.000000 0.000000 0.000003 0.000003 -0.000005 0.051462
#
#
# Mechanical properties :
#
#
# Convention : Reuss Voigt Hill
#
# Bulk Modulus (GPa) = 38.25519 57.50583 47.88051
# Shear Modulus (GPa) = 23.26921 29.59121 26.43021
#
# Velocity S-wave (km/s) = 3.28651 3.70617 3.50263
# Velocity P-wave (km/s) = 5.67088 6.70876 6.21154
#
# Compressibility (1/GPa) = 0.02614024
#
# Stress axis : x y z
#
# Youngs Moduli (GPa) = 125.78252 133.51678 41.04708
#
# Poissons Ratio (x) = 0.27289 0.00020
# Poissons Ratio (y) = 0.25708 0.19630
# Poissons Ratio (z) = 0.00062 0.63850
#
# Static dielectric constant tensor:
#      x y z
#    x 1.748880 0.000000 0.000000 
#    y 0.000000 1.762350 0.000000 
#    z 0.000000 0.000000 1.820990 
# 
# From -- ./inp_files/11155.got.cif
#   From: 2010.05.17/outbox.cif.g08.bks.cpg/sg74_6_cif.got.tgz:11155.got - 2010.06.03 17:57:02.
