data_PCOD9536328
_publ_section_title
;
Structure prediction by ZEFSAII (Michael W. Deem and Ramdas Pophale) SiO2 
 PCOD9536328
Probable space group: I M M A
;
_chemical_formula_sum "Si O2"
_cell_formula_units_Z 112
_cell_length_a 27.884766
_cell_length_b 14.723881
_cell_length_c 12.786131
_cell_angle_alpha 90.000000
_cell_angle_beta 90.000000
_cell_angle_gamma 90.000000
_cell_volume 5249.627074
_symmetry_space_group_name_H-M "I M M A"
_symmetry_group_IT_number 74
_symmetry_cell_setting 'orthorhombic'
loop_
_space_group_symop_operation_xyz
x,y,z
-x,1/2-y,z
x,-y,-z
-x,1/2+y,-z
-x,-y,-z
x,1/2+y,-z
-x,y,z
x,1/2-y,z
1/2+x,1/2+y,1/2+z
1/2-x,-y,1/2+z
1/2+x,1/2-y,1/2-z
1/2-x,y,1/2-z
1/2-x,1/2-y,1/2-z
1/2+x,y,1/2-z
1/2-x,1/2+y,1/2+z
1/2+x,-y,1/2+z
loop_
_atom_site_type_symbol
_atom_site_label
_atom_site_fract_x
_atom_site_fract_y
_atom_site_fract_z
Si Si1 0.906049 0.558232 0.763788
Si Si2 0.552516 0.640352 0.938651
Si Si3 0.658055 0.355434 0.999628
Si Si4 0.800460 0.089466 0.291142
Si Si5 0.302512 0.121342 0.766942
Si Si6 0.599756 0.649865 0.305200
Si Si7 0.943574 0.646281 0.964623
O O1 0.941082 0.602237 0.678487
O O2 0.854753 0.610606 0.747643
O O3 0.907245 0.448055 0.748366
O O4 0.921138 0.578329 0.881730
O O5 0.500000 0.612292 0.981309
O O6 0.552645 0.750000 0.937517
O O7 0.602575 0.612044 0.994581
O O8 0.658267 0.250000 0.032020
O O9 0.692296 0.404457 0.083673
O O10 0.677900 0.361089 0.883155
O O11 0.750000 0.132008 0.250000
O O12 0.798682 0.986077 0.254417
O O13 0.250000 0.158042 0.750000
O O14 0.342814 0.154651 0.688295
O O15 0.584114 0.750000 0.259670
O O16 0.577038 0.641549 0.418975
O O17 0.935819 0.750000 0.926611
O O18 0.000000 0.629803 0.970269
#
# Coordination Sequence:
#
# PCOD9536328 Si02
#       7
#    16  16  16  16  16  16  16
#     4  10  19  33  57  82 108 145 187 228 275 331
#     4   9  18  34  57  85 112 139 180 231 278 327
#     4  10  20  34  56  85 114 143 178 224 276 328
#     4   9  20  37  56  81 113 146 179 223 278 330
#     4  10  21  39  61  80 105 147 193 228 264 319
#     4  10  22  37  52  77 112 146 186 231 272 321
#     4  10  21  37  57  81 110 145 184 229 280 330
#
# _framework density 21.334848999999998
#
# number of rings (size 3 to 8) (size 9 to 14) (size 15 to 20)
#    0.000    2.286    0.000    2.143    0.000    6.000 
#    0.000    6.429    0.000   15.429    0.000    0.000 
#    0.000    0.000    0.000    0.000    0.000    0.000 
#
# Total GULP energy -311931.875314 kJ/mol
# GULP energy per Si atom -5570.212059 kJ/mol
# Density = 2.128629 g / cm^3
# Si number density = 21.334849 Si / 1000 Ang^3
#
#
#
# Elastic Constant Matrix: (Units=GPa)
#
#
# Indices 1 2 3 4 5 6 
#
# 1 120.7847 4.1281 28.5842 0.0000 0.0000 0.0000
# 2 4.1281 37.4637 -12.3711 0.0000 0.0000 0.0000
# 3 28.5842 -12.3711 34.9066 0.0000 0.0000 0.0000
# 4 0.0000 0.0000 0.0000 29.6317 0.0000 0.0000
# 5 0.0000 0.0000 0.0000 0.0000 18.4822 0.0000
# 6 0.0000 0.0000 0.0000 0.0000 0.0000 13.2741
#
#
#
# Elastic Compliance Matrix: (Units=1/GPa)
#
#
# Indices 1 2 3 4 5 6 
#
# 1 0.010961 -0.004725 -0.010650 0.000000 0.000000 0.000000
# 2 -0.004725 0.032267 0.015305 0.000000 0.000000 0.000000
# 3 -0.010650 0.015305 0.042793 0.000000 0.000000 0.000000
# 4 0.000000 0.000000 0.000000 0.033748 0.000000 0.000000
# 5 0.000000 0.000000 0.000000 0.000000 0.054106 0.000000
# 6 0.000000 0.000000 0.000000 0.000000 0.000000 0.075334
#
#
# Mechanical properties :
#
#
# Convention : Reuss Voigt Hill
#
# Bulk Modulus (GPa) = 11.64412 25.98196 18.81304
# Shear Modulus (GPa) = 17.98711 23.79854 20.89282
#
# Velocity S-wave (km/s) = 2.90674 3.34350 3.13274
# Velocity P-wave (km/s) = 4.09087 5.20672 4.68215
#
# Compressibility (1/GPa) = 0.08588026
#
# Stress axis : x y z
#
# Youngs Moduli (GPa) = 91.23173 30.99153 23.36824
#
# Poissons Ratio (x) = 0.14643 0.24888
# Poissons Ratio (y) = 0.43104 -0.35764
# Poissons Ratio (z) = 0.97164 -0.47431
#
# Static dielectric constant tensor:
#      x y z
#    x 1.824090 0.000000 0.000000 
#    y 0.000000 1.844340 0.000000 
#    z 0.000000 0.000000 1.728820 
# 
# From -- ./inp_files/27247.got.cif
#   From: 2010.05.17/outbox.cif.g08.bks.cpg/sg74_14_cif.got.tgz:27247.got - 2010.06.03 17:57:02.
