data_PCOD9536949
_publ_section_title
;
Structure prediction by ZEFSAII (Michael W. Deem and Ramdas Pophale) SiO2 
 PCOD9536949
Probable space group: I M M A
;
_chemical_formula_sum "Si O2"
_cell_formula_units_Z 104
_cell_length_a 28.432425
_cell_length_b 7.710168
_cell_length_c 24.607707
_cell_angle_alpha 90.000000
_cell_angle_beta 90.000000
_cell_angle_gamma 90.000000
_cell_volume 5394.471345
_symmetry_space_group_name_H-M "I M M A"
_symmetry_group_IT_number 74
_symmetry_cell_setting 'orthorhombic'
loop_
_space_group_symop_operation_xyz
x,y,z
-x,1/2-y,z
x,-y,-z
-x,1/2+y,-z
-x,-y,-z
x,1/2+y,-z
-x,y,z
x,1/2-y,z
1/2+x,1/2+y,1/2+z
1/2-x,-y,1/2+z
1/2+x,1/2-y,1/2-z
1/2-x,y,1/2-z
1/2-x,1/2-y,1/2-z
1/2+x,y,1/2-z
1/2-x,1/2+y,1/2+z
1/2+x,-y,1/2+z
loop_
_atom_site_type_symbol
_atom_site_label
_atom_site_fract_x
_atom_site_fract_y
_atom_site_fract_z
Si Si1 0.113668 0.956683 0.334715
Si Si2 0.500000 0.542136 0.563828
Si Si3 0.897386 0.040760 0.063052
Si Si4 0.053035 0.044124 0.437235
Si Si5 0.446237 0.539271 0.268343
Si Si6 0.357243 0.949257 0.668107
Si Si7 0.799218 0.052041 0.731280
O O1 0.117845 0.750000 0.328833
O O2 0.074479 0.012527 0.290630
O O3 0.164651 0.025492 0.313756
O O4 0.092718 0.989957 0.394147
O O5 0.500000 0.750000 0.572372
O O6 0.500000 0.500000 0.500000
O O7 0.449133 0.472124 0.580637
O O8 0.898855 0.250000 0.067345
O O9 0.858990 0.981687 0.106734
O O10 0.888941 0.000000 0.000000
O O11 0.050154 0.250000 0.433330
O O12 0.000000 0.972888 0.424935
O O13 0.063699 0.000000 0.500000
O O14 0.500000 0.486520 0.275335
O O15 0.443909 0.750000 0.272515
O O16 0.410924 0.456254 0.311115
O O17 0.340649 0.750000 0.669177
O O18 0.329197 0.053226 0.713251
O O19 0.788260 0.250000 0.713779
O O20 0.750000 0.968359 0.750000
#
# Coordination Sequence:
#
# PCOD9536949 Si02
#       7
#    16   8  16  16  16  16  16
#     4   9  17  31  51  73  98 127 163 206 248 292
#     4   8  14  26  40  56  82 118 158 190 219 258
#     4   9  18  30  45  64  91 126 162 198 236 278
#     4  10  20  32  48  73 106 143 178 206 239 289
#     4   9  18  31  46  67  97 134 170 201 238 290
#     4  10  20  31  47  73 100 125 158 203 252 297
#     4   9  19  37  58  76  96 126 163 203 251 307
#
# _framework density 19.278997
#
# number of rings (size 3 to 8) (size 9 to 14) (size 15 to 20)
#    0.000    2.769    0.000    2.308    1.077    5.846 
#    0.000    0.000    0.000    0.923    0.000    2.154 
#    0.000    0.000    0.000    0.000    0.000    0.000 
#
# Total GULP energy -289542.922417 kJ/mol
# GULP energy per Si atom -5568.133123 kJ/mol
# Density = 1.923512 g / cm^3
# Si number density = 19.278997 Si / 1000 Ang^3
#
#
#
# Elastic Constant Matrix: (Units=GPa)
#
#
# Indices 1 2 3 4 5 6 
#
# 1 108.6221 2.4018 46.2370 0.0000 0.0000 0.0000
# 2 2.4018 35.8106 -6.4933 0.0000 0.0000 0.0000
# 3 46.2370 -6.4933 111.1553 0.0000 0.0000 0.0000
# 4 0.0000 0.0000 0.0000 16.3168 0.0000 0.0000
# 5 0.0000 0.0000 0.0000 0.0000 30.3181 0.0000
# 6 0.0000 0.0000 0.0000 0.0000 0.0000 7.8744
#
#
#
# Elastic Compliance Matrix: (Units=1/GPa)
#
#
# Indices 1 2 3 4 5 6 
#
# 1 0.011280 -0.001625 -0.004787 0.000000 0.000000 0.000000
# 2 -0.001625 0.028458 0.002338 0.000000 0.000000 0.000000
# 3 -0.004787 0.002338 0.011124 0.000000 0.000000 0.000000
# 4 0.000000 0.000000 0.000000 0.061287 0.000000 0.000000
# 5 0.000000 0.000000 0.000000 0.000000 0.032984 0.000000
# 6 0.000000 0.000000 0.000000 0.000000 0.000000 0.126994
#
#
# Mechanical properties :
#
#
# Convention : Reuss Voigt Hill
#
# Bulk Modulus (GPa) = 23.41101 37.76437 30.58769
# Shear Modulus (GPa) = 16.97729 25.13135 21.05432
#
# Velocity S-wave (km/s) = 2.97073 3.61440 3.30826
# Velocity P-wave (km/s) = 4.89250 6.08682 5.52205
#
# Compressibility (1/GPa) = 0.04271494
#
# Stress axis : x y z
#
# Youngs Moduli (GPa) = 88.65410 35.14004 89.89397
#
# Poissons Ratio (x) = 0.05709 0.43032
# Poissons Ratio (y) = 0.14402 -0.21018
# Poissons Ratio (z) = 0.42438 -0.08216
#
# Static dielectric constant tensor:
#      x y z
#    x 1.723640 0.000000 0.000000 
#    y 0.000000 1.712000 0.000000 
#    z 0.000000 0.000000 1.693480 
# 
# From -- ./inp_files/62671.got.cif
#   From: 2010.05.17/outbox.cif.g08.bks.cpg/sg74_32_cif.got.tgz:62671.got - 2010.06.03 17:57:02.
