data_PCOD9536779
_publ_section_title
;
Structure prediction by ZEFSAII (Michael W. Deem and Ramdas Pophale) SiO2 
 PCOD9536779
Probable space group: I M M A
;
_chemical_formula_sum "Si O2"
_cell_formula_units_Z 96
_cell_length_a 21.990027
_cell_length_b 14.293496
_cell_length_c 14.730764
_cell_angle_alpha 90.000000
_cell_angle_beta 90.000000
_cell_angle_gamma 90.000000
_cell_volume 4630.090703
_symmetry_space_group_name_H-M "I M M A"
_symmetry_group_IT_number 74
_symmetry_cell_setting 'orthorhombic'
loop_
_space_group_symop_operation_xyz
x,y,z
-x,1/2-y,z
x,-y,-z
-x,1/2+y,-z
-x,-y,-z
x,1/2+y,-z
-x,y,z
x,1/2-y,z
1/2+x,1/2+y,1/2+z
1/2-x,-y,1/2+z
1/2+x,1/2-y,1/2-z
1/2-x,y,1/2-z
1/2-x,1/2-y,1/2-z
1/2+x,y,1/2-z
1/2-x,1/2+y,1/2+z
1/2+x,-y,1/2+z
loop_
_atom_site_type_symbol
_atom_site_label
_atom_site_fract_x
_atom_site_fract_y
_atom_site_fract_z
Si Si1 0.704749 0.640574 0.324902
Si Si2 0.721819 0.135668 0.471966
Si Si3 0.567036 0.940364 0.832896
Si Si4 0.180551 0.137819 0.218249
Si Si5 0.857618 0.141592 0.483762
Si Si6 0.900205 0.146109 0.684622
O O1 0.723804 0.750000 0.334808
O O2 0.750000 0.597206 0.250000
O O3 0.704829 0.603047 0.426996
O O4 0.640407 0.640473 0.274794
O O5 0.722541 0.250000 0.471952
O O6 0.679731 0.109625 0.387749
O O7 0.791491 0.106438 0.454007
O O8 0.500000 0.899484 0.813485
O O9 0.624264 0.906624 0.772069
O O10 0.588919 0.913411 0.934232
O O11 0.562840 0.051549 0.821281
O O12 0.174155 0.250000 0.226650
O O13 0.250000 0.117283 0.250000
O O14 0.863536 0.250000 0.455506
O O15 0.859573 0.140582 0.592751
O O16 0.928675 0.250000 0.681788
#
# Coordination Sequence:
#
# PCOD9536779 Si02
#       6
#    16  16  16  16  16  16
#     4   9  15  29  57  90 121 153 195 250 306 359
#     4   9  16  31  58  92 127 157 193 246 305 366
#     4  12  26  41  58  88 126 164 212 260 307 369
#     4  10  20  38  64  92 125 162 203 251 305 368
#     4  10  19  36  61  91 125 162 199 245 308 375
#     4  10  22  39  59  84 121 166 209 256 310 366
#
# _framework density 20.733934999999999
#
# number of rings (size 3 to 8) (size 9 to 14) (size 15 to 20)
#    0.000    2.000    3.333    1.000    0.000    3.667 
#    0.000    2.500    0.000    2.000    0.000    4.667 
#    0.000    0.000    0.000    0.000    0.000    0.000 
#
# Total GULP energy -267829.235737 kJ/mol
# GULP energy per Si atom -5579.775745 kJ/mol
# Density = 2.068674 g / cm^3
# Si number density = 20.733935 Si / 1000 Ang^3
#
#
#
# Elastic Constant Matrix: (Units=GPa)
#
#
# Indices 1 2 3 4 5 6 
#
# 1 113.5034 31.6835 58.3984 0.0000 0.0000 0.0000
# 2 31.6835 103.6632 16.8376 0.0000 0.0000 0.0000
# 3 58.3984 16.8376 146.9809 0.0000 0.0000 0.0000
# 4 0.0000 0.0000 0.0000 13.6548 0.0000 0.0000
# 5 0.0000 0.0000 0.0000 0.0000 -11.2545 0.0000
# 6 0.0000 0.0000 0.0000 0.0000 0.0000 12.8446
#
#
#
# Elastic Compliance Matrix: (Units=1/GPa)
#
#
# Indices 1 2 3 4 5 6 
#
# 1 0.011882 -0.002919 -0.004387 0.000000 0.000000 0.000000
# 2 -0.002919 0.010547 -0.000048 0.000000 0.000000 0.000000
# 3 -0.004387 -0.000048 0.008552 0.000000 0.000000 0.000000
# 4 0.000000 0.000000 0.000000 0.073234 0.000000 0.000000
# 5 0.000000 0.000000 0.000000 0.000000 -0.088853 0.000000
# 6 0.000000 0.000000 0.000000 0.000000 0.000000 0.077853
#
#
# Mechanical properties :
#
#
# Convention : Reuss Voigt Hill
#
# Bulk Modulus (GPa) = 61.45285 64.22073 62.83679
# Shear Modulus (GPa) = 44.11212 20.19753 32.15483
#
# Velocity S-wave (km/s) = 4.61752 3.12449 3.94233
# Velocity P-wave (km/s) = 7.62442 6.63759 7.14805
#
# Compressibility (1/GPa) = 0.01627264
#
# Stress axis : x y z
#
# Youngs Moduli (GPa) = 84.16026 94.81657 116.93146
#
# Poissons Ratio (x) = 0.27678 0.51293
# Poissons Ratio (y) = 0.24568 0.00565
# Poissons Ratio (z) = 0.36918 0.00459
#
# Static dielectric constant tensor:
#      x y z
#    x 1.712850 0.000000 0.000000 
#    y 0.000000 1.818040 0.000000 
#    z 0.000000 0.000000 1.757950 
# 
# From -- ./inp_files/35267.got.cif
#   From: 2010.05.17/outbox.cif.g08.bks.cpg/sg74_18_cif.got.tgz:35267.got - 2010.06.03 17:57:02.
