data_PCOD9536449
_publ_section_title
;
Structure prediction by ZEFSAII (Michael W. Deem and Ramdas Pophale) SiO2 
 PCOD9536449
Probable space group: I M M A
;
_chemical_formula_sum "Si O2"
_cell_formula_units_Z 68
_cell_length_a 23.180431
_cell_length_b 7.215778
_cell_length_c 17.744294
_cell_angle_alpha 90.000000
_cell_angle_beta 90.000000
_cell_angle_gamma 90.000000
_cell_volume 2967.996569
_symmetry_space_group_name_H-M "I M M A"
_symmetry_group_IT_number 74
_symmetry_cell_setting 'orthorhombic'
loop_
_space_group_symop_operation_xyz
x,y,z
-x,1/2-y,z
x,-y,-z
-x,1/2+y,-z
-x,-y,-z
x,1/2+y,-z
-x,y,z
x,1/2-y,z
1/2+x,1/2+y,1/2+z
1/2-x,-y,1/2+z
1/2+x,1/2-y,1/2-z
1/2-x,y,1/2-z
1/2-x,1/2-y,1/2-z
1/2+x,y,1/2-z
1/2-x,1/2+y,1/2+z
1/2+x,-y,1/2+z
loop_
_atom_site_type_symbol
_atom_site_label
_atom_site_fract_x
_atom_site_fract_y
_atom_site_fract_z
Si Si1 0.500000 0.250000 0.575032
Si Si2 0.334753 0.469706 0.086417
Si Si3 0.937628 0.974082 0.689793
Si Si4 0.223670 0.525272 0.831574
Si Si5 0.908277 0.973178 0.862100
O O1 0.448881 0.411525 0.583038
O O2 0.332661 0.250000 0.099526
O O3 0.383921 0.543138 0.141780
O O4 0.271291 0.536394 0.108253
O O5 0.349239 0.500000 0.000000
O O6 0.936821 0.750000 0.685088
O O7 0.931552 0.016023 0.777772
O O8 0.000000 0.037037 0.661781
O O9 0.220552 0.750000 0.827653
O O10 0.250000 0.468234 0.750000
O O11 0.159212 0.471669 0.855652
O O12 0.912630 0.750000 0.874879
#
# Coordination Sequence:
#
# PCOD9536449 Si02
#       5
#     4  16  16  16  16
#     4  12  22  32  50  90 124 136 184 232 294 358
#     4  10  20  35  52  77 111 147 190 233 279 336
#     4   9  16  30  53  74 104 149 194 224 266 325
#     4   9  16  32  59  81 102 146 198 234 280 339
#     4  10  19  34  55  81 114 150 184 237 286 335
#
# _framework density 22.911076999999999
#
# number of rings (size 3 to 8) (size 9 to 14) (size 15 to 20)
#    0.000    2.353    3.529    0.353    0.000    0.471 
#    4.235    0.588    0.000    0.000    0.000    0.824 
#    0.000    0.000    0.000    0.000    0.000    0.000 
#
# Total GULP energy -189419.911015 kJ/mol
# GULP energy per Si atom -5571.173853 kJ/mol
# Density = 2.285893 g / cm^3
# Si number density = 22.911077 Si / 1000 Ang^3
#
#
#
# Elastic Constant Matrix: (Units=GPa)
#
#
# Indices 1 2 3 4 5 6 
#
# 1 201.6023 29.8773 18.3582 0.0000 0.0000 0.0000
# 2 29.8773 131.4732 6.4024 0.0000 0.0000 0.0000
# 3 18.3582 6.4024 48.0523 0.0000 0.0000 0.0000
# 4 0.0000 0.0000 0.0000 -6.0872 0.0000 0.0000
# 5 0.0000 0.0000 0.0000 0.0000 -7.4562 0.0000
# 6 0.0000 0.0000 0.0000 0.0000 0.0000 -12.8996
#
#
#
# Elastic Compliance Matrix: (Units=1/GPa)
#
#
# Indices 1 2 3 4 5 6 
#
# 1 0.005296 -0.001112 -0.001875 0.000000 0.000000 0.000000
# 2 -0.001112 0.007889 -0.000626 0.000000 0.000000 0.000000
# 3 -0.001875 -0.000626 0.021610 0.000000 0.000000 0.000000
# 4 0.000000 0.000000 0.000000 -0.164278 0.000000 0.000000
# 5 0.000000 0.000000 0.000000 0.000000 -0.134116 0.000000
# 6 0.000000 0.000000 0.000000 0.000000 0.000000 -0.077522
#
#
# Mechanical properties :
#
#
# Convention : Reuss Voigt Hill
#
# Bulk Modulus (GPa) = 36.27310 54.48929 45.38119
# Shear Modulus (GPa) = -15.39867 16.47737 0.53935
#
# Velocity S-wave (km/s) = -2.59531 2.68468 0.48572
# Velocity P-wave (km/s) = 2.62405 5.78313 4.49056
#
# Compressibility (1/GPa) = 0.02756864
#
# Stress axis : x y z
#
# Youngs Moduli (GPa) = 188.82791 126.75313 46.27389
#
# Poissons Ratio (x) = 0.14097 0.08677
# Poissons Ratio (y) = 0.21001 0.02898
# Poissons Ratio (z) = 0.35406 0.07938
#
# Static dielectric constant tensor:
#      x y z
#    x 1.904230 0.000000 0.000000 
#    y 0.000000 1.898740 0.000000 
#    z 0.000000 0.000000 1.844270 
# 
# From -- ./inp_files/39180.got.cif
#   From: 2010.05.17/outbox.cif.g08.bks.cpg/sg74_20_cif.got.tgz:39180.got - 2010.06.03 17:57:02.
