data_PCOD9536070
_publ_section_title
;
Structure prediction by ZEFSAII (Michael W. Deem and Ramdas Pophale) SiO2 
 PCOD9536070
Probable space group: I M M A
;
_chemical_formula_sum "Si O2"
_cell_formula_units_Z 96
_cell_length_a 24.470569
_cell_length_b 14.855494
_cell_length_c 14.639239
_cell_angle_alpha 90.000000
_cell_angle_beta 90.000000
_cell_angle_gamma 90.000000
_cell_volume 5321.691163
_symmetry_space_group_name_H-M "I M M A"
_symmetry_group_IT_number 74
_symmetry_cell_setting 'orthorhombic'
loop_
_space_group_symop_operation_xyz
x,y,z
-x,1/2-y,z
x,-y,-z
-x,1/2+y,-z
-x,-y,-z
x,1/2+y,-z
-x,y,z
x,1/2-y,z
1/2+x,1/2+y,1/2+z
1/2-x,-y,1/2+z
1/2+x,1/2-y,1/2-z
1/2-x,y,1/2-z
1/2-x,1/2-y,1/2-z
1/2+x,y,1/2-z
1/2-x,1/2+y,1/2+z
1/2+x,-y,1/2+z
loop_
_atom_site_type_symbol
_atom_site_label
_atom_site_fract_x
_atom_site_fract_y
_atom_site_fract_z
Si Si1 0.935545 0.107648 0.506971
Si Si2 0.565864 0.750000 0.159339
Si Si3 0.808026 0.520121 0.779724
Si Si4 0.160391 0.649469 0.619207
Si Si5 0.131036 0.077269 0.929065
Si Si6 0.226373 0.855108 0.948225
Si Si7 0.434115 0.750000 0.371616
O O1 0.919199 0.160967 0.599933
O O2 0.897809 0.146753 0.427940
O O3 0.000000 0.124809 0.493699
O O4 0.927420 0.000000 0.500000
O O5 0.500000 0.750000 0.164156
O O6 0.584118 0.750000 0.264532
O O7 0.750000 0.475948 0.750000
O O8 0.832822 0.573860 0.695092
O O9 0.853309 0.460315 0.829553
O O10 0.790849 0.593130 0.856581
O O11 0.170841 0.750000 0.657376
O O12 0.208437 0.633225 0.544613
O O13 0.090866 0.161308 0.919219
O O14 0.189495 0.107175 0.971001
O O15 0.110917 0.000000 0.000000
O O16 0.214624 0.750000 0.939247
O O17 0.500000 0.750000 0.375920
#
# Coordination Sequence:
#
# PCOD9536070 Si02
#       7
#    16   8  16  16  16  16   8
#     4  10  21  36  55  78 110 150 189 232 279 334
#     4   9  20  40  57  76 109 148 189 229 281 343
#     4   9  19  33  53  83 116 149 186 234 284 348
#     4  10  19  32  56  85 111 150 195 234 286 339
#     4  10  21  39  61  86 116 153 190 242 298 348
#     4   9  17  34  56  80 114 146 187 231 290 347
#     4  11  24  42  64  85 112 153 200 245 295 353
#
# _framework density 18.039377999999999
#
# number of rings (size 3 to 8) (size 9 to 14) (size 15 to 20)
#    0.000    2.333    1.667    0.500    2.333    5.667 
#    0.000    0.417    0.000    1.000    0.000    0.000 
#    0.000    0.000    0.000    0.000    0.000    0.000 
#
# Total GULP energy -267421.692159 kJ/mol
# GULP energy per Si atom -5571.285253 kJ/mol
# Density = 1.799832 g / cm^3
# Si number density = 18.039378 Si / 1000 Ang^3
#
#
#
# Elastic Constant Matrix: (Units=GPa)
#
#
# Indices 1 2 3 4 5 6 
#
# 1 61.4516 48.3800 35.5326 0.0000 0.0000 0.0000
# 2 48.3800 109.2616 34.1139 0.0000 0.0000 0.0000
# 3 35.5326 34.1139 67.5843 0.0000 0.0000 0.0000
# 4 0.0000 0.0000 0.0000 22.9654 0.0000 0.0000
# 5 0.0000 0.0000 0.0000 0.0000 13.6373 0.0000
# 6 0.0000 0.0000 0.0000 0.0000 0.0000 9.8347
#
#
#
# Elastic Compliance Matrix: (Units=1/GPa)
#
#
# Indices 1 2 3 4 5 6 
#
# 1 0.030581 -0.010115 -0.010972 0.000000 0.000000 0.000000
# 2 -0.010115 0.014210 -0.001855 0.000000 0.000000 0.000000
# 3 -0.010972 -0.001855 0.021501 0.000000 0.000000 0.000000
# 4 0.000000 0.000000 0.000000 0.043544 0.000000 0.000000
# 5 0.000000 0.000000 0.000000 0.000000 0.073328 0.000000
# 6 0.000000 0.000000 0.000000 0.000000 0.000000 0.101680
#
#
# Mechanical properties :
#
#
# Convention : Reuss Voigt Hill
#
# Bulk Modulus (GPa) = 49.00003 52.70562 50.85282
# Shear Modulus (GPa) = 14.81343 17.30556 16.05949
#
# Velocity S-wave (km/s) = 2.86872 3.10065 2.98694
# Velocity P-wave (km/s) = 6.18017 6.48838 6.33615
#
# Compressibility (1/GPa) = 0.02040815
#
# Stress axis : x y z
#
# Youngs Moduli (GPa) = 32.70028 70.37133 46.50905
#
# Poissons Ratio (x) = 0.71181 0.51031
# Poissons Ratio (y) = 0.33077 0.08626
# Poissons Ratio (z) = 0.35879 0.13052
#
# Static dielectric constant tensor:
#      x y z
#    x 1.614120 0.000000 0.000000 
#    y 0.000000 1.663450 0.000000 
#    z 0.000000 0.000000 1.610920 
# 
# From -- ./inp_files/32850.got.cif
#   From: 2010.05.17/outbox.cif.g08.bks.cpg/sg74_17_cif.got.tgz:32850.got - 2010.06.03 17:57:02.
