data_PCOD9536992
_publ_section_title
;
Structure prediction by ZEFSAII (Michael W. Deem and Ramdas Pophale) SiO2 
 PCOD9536992
Probable space group: I M M A
;
_chemical_formula_sum "Si O2"
_cell_formula_units_Z 104
_cell_length_a 8.581473
_cell_length_b 32.483890
_cell_length_c 21.256677
_cell_angle_alpha 90.000000
_cell_angle_beta 90.000000
_cell_angle_gamma 90.000000
_cell_volume 5925.503309
_symmetry_space_group_name_H-M "I M M A"
_symmetry_group_IT_number 74
_symmetry_cell_setting 'orthorhombic'
loop_
_space_group_symop_operation_xyz
x,y,z
-x,1/2-y,z
x,-y,-z
-x,1/2+y,-z
-x,-y,-z
x,1/2+y,-z
-x,y,z
x,1/2-y,z
1/2+x,1/2+y,1/2+z
1/2-x,-y,1/2+z
1/2+x,1/2-y,1/2-z
1/2-x,y,1/2-z
1/2-x,1/2-y,1/2-z
1/2+x,y,1/2-z
1/2-x,1/2+y,1/2+z
1/2+x,-y,1/2+z
loop_
_atom_site_type_symbol
_atom_site_label
_atom_site_fract_x
_atom_site_fract_y
_atom_site_fract_z
Si Si1 0.186217 0.750000 0.318526
Si Si2 0.186304 0.963667 0.181757
Si Si3 0.814614 0.795220 0.946727
Si Si4 0.683414 0.590316 0.067232
Si Si5 0.183967 0.685997 0.419236
Si Si6 0.813617 0.556515 0.682550
Si Si7 0.812182 0.111648 0.069469
O O1 0.250000 0.750000 0.250000
O O2 0.235309 0.710410 0.358208
O O3 0.000000 0.750000 0.315796
O O4 0.250000 0.948358 0.250000
O O5 0.240551 0.938075 0.120672
O O6 0.000000 0.964235 0.184850
O O7 0.249892 0.010124 0.174485
O O8 0.753944 0.750000 0.924650
O O9 0.757139 0.840354 0.923718
O O10 0.000000 0.794862 0.936041
O O11 0.778563 0.798492 0.020801
O O12 0.500000 0.580253 0.062153
O O13 0.700405 0.637534 0.089129
O O14 0.755795 0.592044 0.996956
O O15 0.000000 0.694553 0.431329
O O16 0.750000 0.571418 0.750000
O O17 0.752687 0.584901 0.626478
O O18 0.000000 0.555559 0.683477
O O19 0.000000 0.111614 0.069464
#
# Coordination Sequence:
#
# PCOD9536992 Si02
#       7
#     8  16  16  16  16  16  16
#     4  10  20  32  44  64  92 130 175 220 265 312
#     4  11  22  38  58  80 107 144 185 226 274 329
#     4   9  17  30  52  79 106 137 173 213 260 313
#     4  10  20  35  54  80 110 142 182 231 277 322
#     4   9  18  32  49  68  97 133 173 219 268 314
#     4  11  22  39  61  84 110 142 179 220 268 327
#     4  10  20  35  55  84 116 145 181 224 272 324
#
# _framework density 17.551251000000001
#
# number of rings (size 3 to 8) (size 9 to 14) (size 15 to 20)
#    0.000    2.000    0.769    4.615    0.000    3.077 
#    0.000    4.615    0.000    0.462    0.000    0.000 
#    0.000    0.000    0.000    0.000    0.000    0.000 
#
# Total GULP energy -289914.589799 kJ/mol
# GULP energy per Si atom -5575.280573 kJ/mol
# Density = 1.751130 g / cm^3
# Si number density = 17.551251 Si / 1000 Ang^3
#
#
#
# Elastic Constant Matrix: (Units=GPa)
#
#
# Indices 1 2 3 4 5 6 
#
# 1 94.5707 44.1827 53.2210 0.0000 0.0000 0.0000
# 2 44.1827 90.7153 75.7980 0.0000 0.0000 0.0000
# 3 53.2210 75.7980 131.0053 -0.0001 0.0000 0.0000
# 4 0.0000 0.0000 -0.0001 70.0425 0.0000 0.0000
# 5 0.0000 0.0000 0.0000 0.0000 30.2249 0.0000
# 6 0.0000 0.0000 0.0000 0.0000 0.0000 17.4707
#
#
#
# Elastic Compliance Matrix: (Units=1/GPa)
#
#
# Indices 1 2 3 4 5 6 
#
# 1 0.014467 -0.004134 -0.003485 0.000000 0.000000 0.000000
# 2 -0.004134 0.022522 -0.011351 0.000000 0.000000 0.000000
# 3 -0.003485 -0.011351 0.015617 0.000000 0.000000 0.000000
# 4 0.000000 0.000000 0.000000 0.014277 0.000000 0.000000
# 5 0.000000 0.000000 0.000000 0.000000 0.033085 0.000000
# 6 0.000000 0.000000 0.000000 0.000000 0.000000 0.057239
#
#
# Mechanical properties :
#
#
# Convention : Reuss Voigt Hill
#
# Bulk Modulus (GPa) = 68.19274 73.63273 70.91273
# Shear Modulus (GPa) = 24.99558 33.08695 29.04126
#
# Velocity S-wave (km/s) = 3.77788 4.34656 4.07216
# Velocity P-wave (km/s) = 7.61365 8.19964 7.91207
#
# Compressibility (1/GPa) = 0.01466432
#
# Stress axis : x y z
#
# Youngs Moduli (GPa) = 69.12363 44.40190 64.03293
#
# Poissons Ratio (x) = 0.18355 0.22318
# Poissons Ratio (y) = 0.28574 0.72686
# Poissons Ratio (z) = 0.24092 0.50402
#
# Static dielectric constant tensor:
#      x y z
#    x 1.604830 0.000000 0.000000 
#    y 0.000000 1.628510 0.000000 
#    z 0.000000 0.000000 1.565040 
# 
# From -- ./inp_files/49611.got.cif
#   From: 2010.05.17/outbox.cif.g08.bks.cpg/sg74_25_cif.got.tgz:49611.got - 2010.06.03 17:57:02.
