data_PCOD9536041
_publ_section_title
;
Structure prediction by ZEFSAII (Michael W. Deem and Ramdas Pophale) SiO2 
 PCOD9536041
Probable space group: I M M A
;
_chemical_formula_sum "Si O2"
_cell_formula_units_Z 80
_cell_length_a 8.077560
_cell_length_b 20.515283
_cell_length_c 28.064199
_cell_angle_alpha 90.000000
_cell_angle_beta 90.000000
_cell_angle_gamma 90.000000
_cell_volume 4650.614658
_symmetry_space_group_name_H-M "I M M A"
_symmetry_group_IT_number 74
_symmetry_cell_setting 'orthorhombic'
loop_
_space_group_symop_operation_xyz
x,y,z
-x,1/2-y,z
x,-y,-z
-x,1/2+y,-z
-x,-y,-z
x,1/2+y,-z
-x,y,z
x,1/2-y,z
1/2+x,1/2+y,1/2+z
1/2-x,-y,1/2+z
1/2+x,1/2-y,1/2-z
1/2-x,y,1/2-z
1/2-x,1/2-y,1/2-z
1/2+x,y,1/2-z
1/2-x,1/2+y,1/2+z
1/2+x,-y,1/2+z
loop_
_atom_site_type_symbol
_atom_site_label
_atom_site_fract_x
_atom_site_fract_y
_atom_site_fract_z
Si Si1 0.500000 0.322270 0.031325
Si Si2 0.309631 0.990432 0.198561
Si Si3 0.809881 0.351242 0.301871
Si Si4 0.816489 0.514771 0.097532
Si Si5 0.314241 0.643377 0.595652
Si Si6 0.500000 0.057358 0.961271
O O1 0.500000 0.250000 0.011104
O O2 0.336997 0.331229 0.064148
O O3 0.500000 0.375928 0.990259
O O4 0.500000 0.972324 0.190312
O O5 0.250000 0.967065 0.250000
O O6 0.202465 0.969465 0.153504
O O7 0.303379 0.069572 0.199906
O O8 0.750000 0.328235 0.250000
O O9 0.709677 0.334202 0.349421
O O10 0.000000 0.331977 0.308851
O O11 0.800773 0.435864 0.094068
O O12 0.665418 0.547198 0.069716
O O13 0.000000 0.532642 0.080053
O O14 0.500000 0.660945 0.579706
O O15 0.500000 0.000000 0.000000
#
# Coordination Sequence:
#
# PCOD9536041 Si02
#       6
#     8  16  16  16  16   8
#     4  12  26  42  58  78 106 142 184 232 283 328
#     4   9  15  24  41  71 115 151 172 208 264 322
#     4   9  15  24  43  73 105 137 178 221 268 317
#     4  10  19  32  54  83 113 142 182 225 271 324
#     4  10  19  34  55  79 106 140 183 226 273 326
#     4  12  22  38  60  80 108 142 186 236 274 323
#
# _framework density 17.202027999999999
#
# number of rings (size 3 to 8) (size 9 to 14) (size 15 to 20)
#    0.000    2.000    4.000    1.200    0.000    6.400 
#    0.000    0.000    0.000    0.600    0.000    0.000 
#    0.000    0.800    0.000    0.000    0.000    0.000 
#
# Total GULP energy -223186.250426 kJ/mol
# GULP energy per Si atom -5579.656261 kJ/mol
# Density = 1.716288 g / cm^3
# Si number density = 17.202028 Si / 1000 Ang^3
#
#
#
# Elastic Constant Matrix: (Units=GPa)
#
#
# Indices 1 2 3 4 5 6 
#
# 1 144.5519 34.0069 54.3788 0.0000 0.0000 0.0000
# 2 34.0069 56.2574 39.0200 0.0000 0.0000 0.0000
# 3 54.3788 39.0200 91.4077 0.0000 0.0000 0.0000
# 4 0.0000 0.0000 0.0000 -3.1918 0.0000 0.0000
# 5 0.0000 0.0000 0.0000 0.0000 27.3710 0.0000
# 6 0.0000 0.0000 0.0000 0.0000 0.0000 2.0858
#
#
#
# Elastic Compliance Matrix: (Units=1/GPa)
#
#
# Indices 1 2 3 4 5 6 
#
# 1 0.009153 -0.002495 -0.004380 0.000000 0.000000 0.000000
# 2 -0.002495 0.025932 -0.009586 0.000000 0.000000 0.000000
# 3 -0.004380 -0.009586 0.017638 0.000000 0.000000 0.000000
# 4 0.000000 0.000000 0.000000 -0.313302 0.000000 0.000000
# 5 0.000000 0.000000 0.000000 0.000000 0.036535 0.000000
# 6 0.000000 0.000000 0.000000 0.000000 0.000000 0.479440
#
#
# Mechanical properties :
#
#
# Convention : Reuss Voigt Hill
#
# Bulk Modulus (GPa) = 50.50133 60.78092 55.64113
# Shear Modulus (GPa) = 16.95394 16.24041 16.59717
#
# Velocity S-wave (km/s) = 3.14280 3.07595 3.10955
# Velocity P-wave (km/s) = 6.52618 6.93005 6.73115
#
# Compressibility (1/GPa) = 0.01980146
#
# Stress axis : x y z
#
# Youngs Moduli (GPa) = 109.25966 38.56224 56.69699
#
# Poissons Ratio (x) = 0.09620 0.24833
# Poissons Ratio (y) = 0.27257 0.54348
# Poissons Ratio (z) = 0.47855 0.36965
#
# Static dielectric constant tensor:
#      x y z
#    x 1.615920 0.000000 0.000000 
#    y 0.000000 1.567650 0.000000 
#    z 0.000000 0.000000 1.597800 
# 
# From -- ./inp_files/56865.got.cif
#   From: 2010.05.17/outbox.cif.g08.bks.cpg/sg74_29_cif.got.tgz:56865.got - 2010.06.03 17:57:02.
