data_PCOD9536736
_publ_section_title
;
Structure prediction by ZEFSAII (Michael W. Deem and Ramdas Pophale) SiO2 
 PCOD9536736
Probable space group: I M M A
;
_chemical_formula_sum "Si O2"
_cell_formula_units_Z 104
_cell_length_a 16.458289
_cell_length_b 25.435508
_cell_length_c 11.566791
_cell_angle_alpha 90.000000
_cell_angle_beta 90.000000
_cell_angle_gamma 90.000000
_cell_volume 4842.147206
_symmetry_space_group_name_H-M "I M M A"
_symmetry_group_IT_number 74
_symmetry_cell_setting 'orthorhombic'
loop_
_space_group_symop_operation_xyz
x,y,z
-x,1/2-y,z
x,-y,-z
-x,1/2+y,-z
-x,-y,-z
x,1/2+y,-z
-x,y,z
x,1/2-y,z
1/2+x,1/2+y,1/2+z
1/2-x,-y,1/2+z
1/2+x,1/2-y,1/2-z
1/2-x,y,1/2-z
1/2-x,1/2-y,1/2-z
1/2+x,y,1/2-z
1/2-x,1/2+y,1/2+z
1/2+x,-y,1/2+z
loop_
_atom_site_type_symbol
_atom_site_label
_atom_site_fract_x
_atom_site_fract_y
_atom_site_fract_z
Si Si1 0.158541 0.986660 0.773386
Si Si2 0.088113 0.902055 0.178210
Si Si3 0.848253 0.808782 0.731550
Si Si4 0.750000 0.660908 0.250000
Si Si5 0.689842 0.845336 0.013687
Si Si6 0.860875 0.889459 0.924711
Si Si7 0.406805 0.440565 0.044986
O O1 0.250000 0.005429 0.750000
O O2 0.153818 0.948726 0.882744
O O3 0.135415 0.947655 0.668624
O O4 0.101462 0.036820 0.789083
O O5 0.170231 0.872250 0.214780
O O6 0.000000 0.884724 0.226199
O O7 0.086654 0.893111 0.039951
O O8 0.875940 0.750000 0.761174
O O9 0.750000 0.810474 0.750000
O O10 0.856945 0.818572 0.593739
O O11 0.886853 0.851678 0.818189
O O12 0.784440 0.685654 0.370118
O O13 0.774733 0.865711 0.962962
O O14 0.638987 0.898919 0.035373
O O15 0.500000 0.424729 0.058041
O O16 0.403906 0.500000 0.000000
#
# Coordination Sequence:
#
# PCOD9536736 Si02
#       7
#    16  16  16   8  16  16  16
#     4  12  20  34  55  82 119 160 203 252 304 368
#     4  11  24  38  56  85 121 165 209 252 308 373
#     4   9  17  35  62  89 116 148 195 253 308 367
#     4  10  22  38  61  82 126 164 207 258 310 372
#     4  10  19  36  56  85 113 155 198 247 305 365
#     4  10  20  35  57  85 115 155 195 245 310 364
#     4  11  23  34  51  78 113 158 207 247 291 360
#
# _framework density 21.478072999999998
#
# number of rings (size 3 to 8) (size 9 to 14) (size 15 to 20)
#    0.000    1.538    3.846    2.308    2.154    3.692 
#    0.000    0.385    0.000    2.769    0.000    0.000 
#    0.000    0.000    0.000    0.000    0.000    0.000 
#
# Total GULP energy -289834.902874 kJ/mol
# GULP energy per Si atom -5573.748132 kJ/mol
# Density = 2.142919 g / cm^3
# Si number density = 21.478073 Si / 1000 Ang^3
#
#
#
# Elastic Constant Matrix: (Units=GPa)
#
#
# Indices 1 2 3 4 5 6 
#
# 1 96.5427 14.3405 23.9922 0.0000 0.0000 0.0000
# 2 14.3405 58.8514 14.1877 0.0000 0.0000 0.0000
# 3 23.9922 14.1877 100.4394 0.0001 0.0000 0.0000
# 4 0.0000 0.0000 0.0001 8.1575 0.0000 0.0000
# 5 0.0000 0.0000 0.0000 0.0000 13.3321 0.0000
# 6 0.0000 0.0000 0.0000 0.0000 0.0000 3.8566
#
#
#
# Elastic Compliance Matrix: (Units=1/GPa)
#
#
# Indices 1 2 3 4 5 6 
#
# 1 0.011274 -0.002172 -0.002386 0.000000 0.000000 0.000000
# 2 -0.002172 0.018009 -0.002025 0.000000 0.000000 0.000000
# 3 -0.002386 -0.002025 0.010812 0.000000 0.000000 0.000000
# 4 0.000000 0.000000 0.000000 0.122587 0.000000 0.000000
# 5 0.000000 0.000000 0.000000 0.000000 0.075007 0.000000
# 6 0.000000 0.000000 0.000000 0.000000 0.000000 0.259296
#
#
# Mechanical properties :
#
#
# Convention : Reuss Voigt Hill
#
# Bulk Modulus (GPa) = 37.13465 40.09717 38.61591
# Shear Modulus (GPa) = 9.63155 18.62345 14.12750
#
# Velocity S-wave (km/s) = 2.11993 2.94784 2.56747
# Velocity P-wave (km/s) = 4.82900 5.50416 5.17759
#
# Compressibility (1/GPa) = 0.02692903
#
# Stress axis : x y z
#
# Youngs Moduli (GPa) = 88.70183 55.52662 92.48717
#
# Poissons Ratio (x) = 0.12060 0.22069
# Poissons Ratio (y) = 0.19265 0.18730
# Poissons Ratio (z) = 0.21166 0.11245
#
# Static dielectric constant tensor:
#      x y z
#    x 1.796030 0.000000 0.000000 
#    y 0.000000 1.756190 0.000000 
#    z 0.000000 0.000000 1.909860 
# 
# From -- ./inp_files/22764.got.cif
#   From: 2010.05.17/outbox.cif.g08.bks.cpg/sg74_12_cif.got.tgz:22764.got - 2010.06.03 17:57:02.
