data_PCOD9536620
_publ_section_title
;
Structure prediction by ZEFSAII (Michael W. Deem and Ramdas Pophale) SiO2 
 PCOD9536620
Probable space group: I M M A
;
_chemical_formula_sum "Si O2"
_cell_formula_units_Z 80
_cell_length_a 15.758922
_cell_length_b 27.024864
_cell_length_c 10.237978
_cell_angle_alpha 90.000000
_cell_angle_beta 90.000000
_cell_angle_gamma 90.000000
_cell_volume 4360.177957
_symmetry_space_group_name_H-M "I M M A"
_symmetry_group_IT_number 74
_symmetry_cell_setting 'orthorhombic'
loop_
_space_group_symop_operation_xyz
x,y,z
-x,1/2-y,z
x,-y,-z
-x,1/2+y,-z
-x,-y,-z
x,1/2+y,-z
-x,y,z
x,1/2-y,z
1/2+x,1/2+y,1/2+z
1/2-x,-y,1/2+z
1/2+x,1/2-y,1/2-z
1/2-x,y,1/2-z
1/2-x,1/2-y,1/2-z
1/2+x,y,1/2-z
1/2-x,1/2+y,1/2+z
1/2+x,-y,1/2+z
loop_
_atom_site_type_symbol
_atom_site_label
_atom_site_fract_x
_atom_site_fract_y
_atom_site_fract_z
Si Si1 0.000000 0.062823 0.651992
Si Si2 0.147271 0.375408 0.270233
Si Si3 0.908270 0.847372 0.253666
Si Si4 0.329807 0.304767 0.995376
Si Si5 0.629154 0.806412 0.529329
Si Si6 0.000000 0.053092 0.337424
O O1 0.921225 0.094642 0.711537
O O2 0.000000 0.063634 0.494236
O O3 0.000000 0.005525 0.687556
O O4 0.250000 0.384577 0.250000
O O5 0.134938 0.344932 0.404392
O O6 0.113050 0.340107 0.154806
O O7 0.085716 0.422468 0.279894
O O8 0.840950 0.822507 0.347477
O O9 0.000000 0.825750 0.295476
O O10 0.896932 0.834146 0.103280
O O11 0.366625 0.250000 0.014354
O O12 0.230646 0.302116 0.025290
O O13 0.596112 0.750000 0.535104
#
# Coordination Sequence:
#
# PCOD9536620 Si02
#       6
#     8  16  16  16  16   8
#     4   9  22  39  64  79 111 147 195 251 298 325
#     4  10  21  38  60  88 117 150 196 236 284 345
#     4  10  20  36  52  83 110 150 190 231 284 340
#     4  10  19  35  56  81 115 155 196 229 272 340
#     4  10  21  35  54  82 124 158 178 228 289 341
#     4  11  20  43  66  83 111 151 195 251 298 333
#
# _framework density 18.347874999999998
#
# number of rings (size 3 to 8) (size 9 to 14) (size 15 to 20)
#    0.600    1.400    2.000    1.800    1.400    5.600 
#    0.000    5.000    0.000    0.000    0.000    0.000 
#    0.000    0.000    0.000    0.000    0.000    0.000 
#
# Total GULP energy -222758.210576 kJ/mol
# GULP energy per Si atom -5568.955264 kJ/mol
# Density = 1.830611 g / cm^3
# Si number density = 18.347875 Si / 1000 Ang^3
#
#
#
# Elastic Constant Matrix: (Units=GPa)
#
#
# Indices 1 2 3 4 5 6 
#
# 1 35.0947 29.7350 7.4083 0.0005 0.0005 0.0000
# 2 29.7350 117.5107 27.2217 0.0006 0.0006 0.0001
# 3 7.4083 27.2217 81.4690 0.0007 -0.0002 0.0001
# 4 0.0005 0.0006 0.0007 13.0098 -0.0009 0.0000
# 5 0.0005 0.0006 -0.0002 -0.0009 75.0119 0.0000
# 6 0.0000 0.0001 0.0001 0.0000 0.0000 17.2300
#
#
#
# Elastic Compliance Matrix: (Units=1/GPa)
#
#
# Indices 1 2 3 4 5 6 
#
# 1 0.036275 -0.009121 -0.000251 -0.000001 0.000000 0.000000
# 2 -0.009121 0.011517 -0.003019 0.000000 0.000000 0.000000
# 3 -0.000251 -0.003019 0.013306 -0.000001 0.000000 0.000000
# 4 -0.000001 0.000000 -0.000001 0.076865 0.000001 0.000000
# 5 0.000000 0.000000 0.000000 0.000001 0.013331 0.000000
# 6 0.000000 0.000000 0.000000 0.000000 0.000000 0.058038
#
#
# Mechanical properties :
#
#
# Convention : Reuss Voigt Hill
#
# Bulk Modulus (GPa) = 27.53540 40.31159 33.92350
# Shear Modulus (GPa) = 20.30698 32.36429 26.33563
#
# Velocity S-wave (km/s) = 3.33043 4.20447 3.79271
# Velocity P-wave (km/s) = 5.46160 6.75192 6.14075
#
# Compressibility (1/GPa) = 0.03631689
#
# Stress axis : x y z
#
# Youngs Moduli (GPa) = 27.56698 86.82688 75.15314
#
# Poissons Ratio (x) = 0.79194 0.01886
# Poissons Ratio (y) = 0.25144 0.22688
# Poissons Ratio (z) = 0.00692 0.26212
#
# Static dielectric constant tensor:
#      x y z
#    x 1.716570 0.000000 0.000000 
#    y 0.000000 1.631170 0.000000 
#    z 0.000000 0.000000 1.618490 
# 
# From -- ./inp_files/10992.got.cif
#   From: 2010.05.17/outbox.cif.g08.bks.cpg/sg74_6_cif.got.tgz:10992.got - 2010.06.03 17:57:02.
