data_PCOD9536472
_publ_section_title
;
Structure prediction by ZEFSAII (Michael W. Deem and Ramdas Pophale) SiO2 
 PCOD9536472
Probable space group: I M M A
;
_chemical_formula_sum "Si O2"
_cell_formula_units_Z 96
_cell_length_a 19.973045
_cell_length_b 19.219216
_cell_length_c 13.027175
_cell_angle_alpha 90.000000
_cell_angle_beta 90.000000
_cell_angle_gamma 90.000000
_cell_volume 5000.693024
_symmetry_space_group_name_H-M "I M M A"
_symmetry_group_IT_number 74
_symmetry_cell_setting 'orthorhombic'
loop_
_space_group_symop_operation_xyz
x,y,z
-x,1/2-y,z
x,-y,-z
-x,1/2+y,-z
-x,-y,-z
x,1/2+y,-z
-x,y,z
x,1/2-y,z
1/2+x,1/2+y,1/2+z
1/2-x,-y,1/2+z
1/2+x,1/2-y,1/2-z
1/2-x,y,1/2-z
1/2-x,1/2-y,1/2-z
1/2+x,y,1/2-z
1/2-x,1/2+y,1/2+z
1/2+x,-y,1/2+z
loop_
_atom_site_type_symbol
_atom_site_label
_atom_site_fract_x
_atom_site_fract_y
_atom_site_fract_z
Si Si1 0.181472 0.530856 0.888867
Si Si2 0.662511 0.328446 0.049549
Si Si3 0.924638 0.833219 0.160406
Si Si4 0.922614 0.897328 0.385467
Si Si5 0.837290 0.973863 0.658642
Si Si6 0.183625 0.170177 0.012598
O O1 0.149805 0.512837 0.779665
O O2 0.259855 0.513015 0.871949
O O3 0.160878 0.500000 0.000000
O O4 0.171690 0.613639 0.900172
O O5 0.658943 0.250000 0.093116
O O6 0.608315 0.340872 0.961778
O O7 0.736231 0.334861 0.996614
O O8 0.652914 0.393017 0.127564
O O9 0.923429 0.750000 0.175338
O O10 0.916009 0.869335 0.269632
O O11 0.863701 0.849022 0.083253
O O12 0.000000 0.851109 0.120641
O O13 0.000000 0.908843 0.407826
O O14 0.882093 0.968832 0.396487
O O15 0.168522 0.250000 0.040204
#
# Coordination Sequence:
#
# PCOD9536472 Si02
#       6
#    16  16  16  16  16  16
#     4  10  19  34  56  81 109 141 179 220 267 321
#     4  10  21  36  54  79 109 142 182 224 269 321
#     4   9  18  33  54  82 113 143 177 219 269 323
#     4  11  22  36  54  77 108 145 184 227 275 324
#     4  10  21  35  54  79 108 142 179 224 270 316
#     4   9  18  33  54  80 109 140 177 221 267 320
#
# _framework density 19.197338999999999
#
# number of rings (size 3 to 8) (size 9 to 14) (size 15 to 20)
#    0.000    2.167    0.000    4.000    0.000    5.000 
#    0.000    6.667    0.000    3.000    0.000    2.333 
#    0.000    0.000    0.000    0.000    0.000    0.000 
#
# Total GULP energy -267493.306544 kJ/mol
# GULP energy per Si atom -5572.777220 kJ/mol
# Density = 1.915364 g / cm^3
# Si number density = 19.197339 Si / 1000 Ang^3
#
#
#
# Elastic Constant Matrix: (Units=GPa)
#
#
# Indices 1 2 3 4 5 6 
#
# 1 42.4963 21.0650 16.6029 0.0000 0.0000 0.0000
# 2 21.0650 73.2574 17.0962 0.0000 0.0000 0.0000
# 3 16.6029 17.0962 66.6997 0.0000 0.0000 0.0000
# 4 0.0000 0.0000 0.0000 27.8030 0.0000 0.0000
# 5 0.0000 0.0000 0.0000 0.0000 16.2099 0.0000
# 6 0.0000 0.0000 0.0000 0.0000 0.0000 17.1527
#
#
#
# Elastic Compliance Matrix: (Units=1/GPa)
#
#
# Indices 1 2 3 4 5 6 
#
# 1 0.029188 -0.007123 -0.005440 0.000000 0.000000 0.000000
# 2 -0.007123 0.016257 -0.002394 0.000000 0.000000 0.000000
# 3 -0.005440 -0.002394 0.016960 0.000000 0.000000 0.000000
# 4 0.000000 0.000000 0.000000 0.035967 0.000000 0.000000
# 5 0.000000 0.000000 0.000000 0.000000 0.061691 0.000000
# 6 0.000000 0.000000 0.000000 0.000000 0.000000 0.058300
#
#
# Mechanical properties :
#
#
# Convention : Reuss Voigt Hill
#
# Bulk Modulus (GPa) = 30.77718 32.44240 31.60979
# Shear Modulus (GPa) = 19.29701 20.74574 20.02137
#
# Velocity S-wave (km/s) = 3.17392 3.29090 3.23294
# Velocity P-wave (km/s) = 5.43125 5.60144 5.51700
#
# Compressibility (1/GPa) = 0.03249160
#
# Stress axis : x y z
#
# Youngs Moduli (GPa) = 34.26109 61.51013 58.96167
#
# Poissons Ratio (x) = 0.43816 0.32072
# Poissons Ratio (y) = 0.24406 0.14115
# Poissons Ratio (z) = 0.18636 0.14725
#
# Static dielectric constant tensor:
#      x y z
#    x 1.674100 0.000000 0.000000 
#    y 0.000000 1.697440 0.000000 
#    z 0.000000 0.000000 1.663040 
# 
# From -- ./inp_files/23943.got.cif
#   From: 2010.05.17/outbox.cif.g08.bks.cpg/sg74_12_cif.got.tgz:23943.got - 2010.06.03 17:57:02.
