data_PCOD9536935
_publ_section_title
;
Structure prediction by ZEFSAII (Michael W. Deem and Ramdas Pophale) SiO2 
 PCOD9536935
Probable space group: I M M A
;
_chemical_formula_sum "Si O2"
_cell_formula_units_Z 96
_cell_length_a 21.336906
_cell_length_b 8.906952
_cell_length_c 31.425424
_cell_angle_alpha 90.000000
_cell_angle_beta 90.000000
_cell_angle_gamma 90.000000
_cell_volume 5972.301193
_symmetry_space_group_name_H-M "I M M A"
_symmetry_group_IT_number 74
_symmetry_cell_setting 'orthorhombic'
loop_
_space_group_symop_operation_xyz
x,y,z
-x,1/2-y,z
x,-y,-z
-x,1/2+y,-z
-x,-y,-z
x,1/2+y,-z
-x,y,z
x,1/2-y,z
1/2+x,1/2+y,1/2+z
1/2-x,-y,1/2+z
1/2+x,1/2-y,1/2-z
1/2-x,y,1/2-z
1/2-x,1/2-y,1/2-z
1/2+x,y,1/2-z
1/2-x,1/2+y,1/2+z
1/2+x,-y,1/2+z
loop_
_atom_site_type_symbol
_atom_site_label
_atom_site_fract_x
_atom_site_fract_y
_atom_site_fract_z
Si Si1 0.430906 0.572115 0.933094
Si Si2 0.241748 0.575335 0.364122
Si Si3 0.299435 0.929840 0.043421
Si Si4 0.905332 0.923893 0.346106
Si Si5 0.696975 0.570715 0.715629
Si Si6 0.069180 0.069603 0.751469
O O1 0.500000 0.528545 0.949337
O O2 0.422454 0.750000 0.939436
O O3 0.371381 0.484813 0.951610
O O4 0.429474 0.531337 0.883023
O O5 0.261374 0.750000 0.363279
O O6 0.236893 0.524673 0.413349
O O7 0.170034 0.569059 0.347655
O O8 0.282495 0.481949 0.331198
O O9 0.299209 0.750000 0.041622
O O10 0.274020 0.000000 0.000000
O O11 0.922826 0.750000 0.355650
O O12 0.927432 0.962338 0.299059
O O13 0.694970 0.750000 0.717761
O O14 0.750000 0.518666 0.750000
O O15 0.629220 0.505368 0.727318
O O16 0.074416 0.250000 0.755881
O O17 0.000000 0.023641 0.767248
#
# Coordination Sequence:
#
# PCOD9536935 Si02
#       6
#    16  16  16  16  16  16
#     4  10  20  31  44  64  91 125 163 204 251 299
#     4   9  18  33  53  73  94 126 166 206 247 295
#     4  10  21  36  53  72  92 120 157 203 256 302
#     4   9  17  30  48  68  92 125 167 212 252 292
#     4  11  22  33  49  75 104 136 172 210 254 299
#     4  10  20  33  50  71  98 135 175 213 254 299
#
# _framework density 16.074204999999999
#
# number of rings (size 3 to 8) (size 9 to 14) (size 15 to 20)
#    0.000    2.167    1.667    3.000    0.000    7.333 
#    0.000    0.000    0.000    0.000    0.000    0.000 
#    0.000    0.667    0.000    2.167    0.000    2.667 
#
# Total GULP energy -267783.872890 kJ/mol
# GULP energy per Si atom -5578.830685 kJ/mol
# Density = 1.603762 g / cm^3
# Si number density = 16.074205 Si / 1000 Ang^3
#
#
#
# Elastic Constant Matrix: (Units=GPa)
#
#
# Indices 1 2 3 4 5 6 
#
# 1 87.5175 31.2992 54.5318 0.0000 0.0000 0.0000
# 2 31.2992 34.8137 37.6781 0.0000 0.0000 0.0000
# 3 54.5318 37.6781 109.4224 0.0000 0.0000 0.0000
# 4 0.0000 0.0000 0.0000 25.7586 0.0000 0.0000
# 5 0.0000 0.0000 0.0000 0.0000 -0.0662 0.0000
# 6 0.0000 0.0000 0.0000 0.0000 0.0000 18.8108
#
#
#
# Elastic Compliance Matrix: (Units=1/GPa)
#
#
# Indices 1 2 3 4 5 6 
#
# 1 0.018811 -0.010785 -0.005661 0.000000 0.000000 0.000000
# 2 -0.010785 0.051972 -0.012521 0.000000 0.000000 0.000000
# 3 -0.005661 -0.012521 0.016271 0.000000 0.000000 0.000000
# 4 0.000000 0.000000 0.000000 0.038822 0.000000 0.000000
# 5 0.000000 0.000000 0.000000 0.000000-15.111806 0.000000
# 6 0.000000 0.000000 0.000000 0.000000 0.000000 0.053161
#
#
# Mechanical properties :
#
#
# Convention : Reuss Voigt Hill
#
# Bulk Modulus (GPa) = 34.34044 53.19688 43.76866
# Shear Modulus (GPa) = -0.33636 16.11695 7.89030
#
# Velocity S-wave (km/s) = -0.45794 3.16991 2.21796
# Velocity P-wave (km/s) = 4.59679 6.82380 5.81785
#
# Compressibility (1/GPa) = 0.02912019
#
# Stress axis : x y z
#
# Youngs Moduli (GPa) = 53.16154 19.24127 61.45761
#
# Poissons Ratio (x) = 0.20752 0.34790
# Poissons Ratio (y) = 0.57335 0.76950
# Poissons Ratio (z) = 0.30093 0.24092
#
# Static dielectric constant tensor:
#      x y z
#    x 1.533290 0.000000 0.000000 
#    y 0.000000 1.539020 0.000000 
#    z 0.000000 0.000000 1.553240 
# 
# From -- ./inp_files/68126.got.cif
#   From: 2010.05.17/outbox.cif.g08.bks.cpg/sg74_35_cif.got.tgz:68126.got - 2010.06.03 17:57:02.
