data_PCOD9536154
_publ_section_title
;
Structure prediction by ZEFSAII (Michael W. Deem and Ramdas Pophale) SiO2 
 PCOD9536154
Probable space group: I M M A
;
_chemical_formula_sum "Si O2"
_cell_formula_units_Z 88
_cell_length_a 8.073991
_cell_length_b 31.996056
_cell_length_c 18.116807
_cell_angle_alpha 90.000000
_cell_angle_beta 90.000000
_cell_angle_gamma 90.000000
_cell_volume 4680.221065
_symmetry_space_group_name_H-M "I M M A"
_symmetry_group_IT_number 74
_symmetry_cell_setting 'orthorhombic'
loop_
_space_group_symop_operation_xyz
x,y,z
-x,1/2-y,z
x,-y,-z
-x,1/2+y,-z
-x,-y,-z
x,1/2+y,-z
-x,y,z
x,1/2-y,z
1/2+x,1/2+y,1/2+z
1/2-x,-y,1/2+z
1/2+x,1/2-y,1/2-z
1/2-x,y,1/2-z
1/2-x,1/2-y,1/2-z
1/2+x,y,1/2-z
1/2-x,1/2+y,1/2+z
1/2+x,-y,1/2+z
loop_
_atom_site_type_symbol
_atom_site_label
_atom_site_fract_x
_atom_site_fract_y
_atom_site_fract_z
Si Si1 0.197505 0.914982 0.671272
Si Si2 0.200524 0.297194 0.664627
Si Si3 0.809654 0.164313 0.094964
Si Si4 0.302718 0.250000 0.164996
Si Si5 0.808036 0.130578 0.556398
Si Si6 0.797430 0.952999 0.515250
O O1 0.250000 0.932765 0.750000
O O2 0.275999 0.869489 0.658705
O O3 0.249289 0.940612 0.598741
O O4 0.000000 0.910930 0.669658
O O5 0.256368 0.250000 0.642035
O O6 0.250000 0.302881 0.750000
O O7 0.263492 0.335704 0.614288
O O8 0.000000 0.297022 0.659555
O O9 0.766915 0.209360 0.125050
O O10 0.000000 0.161683 0.071843
O O11 0.701571 0.151870 0.024189
O O12 0.500000 0.250000 0.160397
O O13 0.250000 0.250000 0.250000
O O14 0.738397 0.083899 0.540265
O O15 0.000000 0.124654 0.577627
O O16 0.000000 0.952408 0.511893
O O17 0.741915 0.000000 0.500000
#
# Coordination Sequence:
#
# PCOD9536154 Si02
#       6
#    16  16  16   8  16  16
#     4  10  19  33  53  75 100 134 173 212 260 311
#     4   9  18  32  50  73 101 135 172 212 259 310
#     4  11  22  35  51  75 103 133 171 212 255 300
#     4  12  24  38  52  70 101 136 171 208 248 294
#     4   9  18  33  53  76 100 135 176 213 259 312
#     4   8  15  30  52  75  99 130 171 215 259 311
#
# _framework density 18.802530000000001
#
# number of rings (size 3 to 8) (size 9 to 14) (size 15 to 20)
#    0.000    2.364    0.000    4.636    1.273    0.727 
#    0.000    0.909    0.000   13.636    0.000    0.000 
#    0.000    0.000    0.000    0.000    0.000    0.000 
#
# Total GULP energy -245304.974881 kJ/mol
# GULP energy per Si atom -5575.113065 kJ/mol
# Density = 1.875973 g / cm^3
# Si number density = 18.802530 Si / 1000 Ang^3
#
#
#
# Elastic Constant Matrix: (Units=GPa)
#
#
# Indices 1 2 3 4 5 6 
#
# 1 30.8148 5.5628 -4.7024 0.0000 0.0000 0.0000
# 2 5.5628 182.1532 71.7911 0.0000 0.0000 0.0000
# 3 -4.7024 71.7911 80.0639 0.0001 0.0000 0.0000
# 4 0.0000 0.0000 0.0001 18.3610 0.0000 0.0000
# 5 0.0000 0.0000 0.0000 0.0000 25.1756 0.0000
# 6 0.0000 0.0000 0.0000 0.0000 0.0000 -2.0657
#
#
#
# Elastic Compliance Matrix: (Units=1/GPa)
#
#
# Indices 1 2 3 4 5 6 
#
# 1 0.033640 -0.002793 0.004480 0.000000 0.000000 0.000000
# 2 -0.002793 0.008722 -0.007985 0.000000 0.000000 0.000000
# 3 0.004480 -0.007985 0.019913 0.000000 0.000000 0.000000
# 4 0.000000 0.000000 0.000000 0.054463 0.000000 0.000000
# 5 0.000000 0.000000 0.000000 0.000000 0.039721 0.000000
# 6 0.000000 0.000000 0.000000 0.000000 0.000000 -0.484103
#
#
# Mechanical properties :
#
#
# Convention : Reuss Voigt Hill
#
# Bulk Modulus (GPa) = 20.12902 48.70389 34.41645
# Shear Modulus (GPa) = -16.75112 22.98620 3.11754
#
# Velocity S-wave (km/s) = -2.98803 3.50023 1.28905
# Velocity P-wave (km/s) = 1.08429 6.50342 4.53425
#
# Compressibility (1/GPa) = 0.04967953
#
# Stress axis : x y z
#
# Youngs Moduli (GPa) = 29.72661 114.64837 50.21795
#
# Poissons Ratio (x) = 0.32023 -0.22499
# Poissons Ratio (y) = 0.08303 0.40100
# Poissons Ratio (z) = -0.13318 0.91548
#
# Static dielectric constant tensor:
#      x y z
#    x 1.661770 0.000000 0.000000 
#    y 0.000000 1.662800 0.000000 
#    z 0.000000 0.000000 1.632610 
# 
# From -- ./inp_files/40064.got.cif
#   From: 2010.05.17/outbox.cif.g08.bks.cpg/sg74_21_cif.got.tgz:40064.got - 2010.06.03 17:57:02.
