data_PCOD9536588
_publ_section_title
;
Structure prediction by ZEFSAII (Michael W. Deem and Ramdas Pophale) SiO2 
 PCOD9536588
Probable space group: I M M A
;
_chemical_formula_sum "Si O2"
_cell_formula_units_Z 96
_cell_length_a 31.594085
_cell_length_b 7.836787
_cell_length_c 21.029530
_cell_angle_alpha 90.000000
_cell_angle_beta 90.000000
_cell_angle_gamma 90.000000
_cell_volume 5206.829920
_symmetry_space_group_name_H-M "I M M A"
_symmetry_group_IT_number 74
_symmetry_cell_setting 'orthorhombic'
loop_
_space_group_symop_operation_xyz
x,y,z
-x,1/2-y,z
x,-y,-z
-x,1/2+y,-z
-x,-y,-z
x,1/2+y,-z
-x,y,z
x,1/2-y,z
1/2+x,1/2+y,1/2+z
1/2-x,-y,1/2+z
1/2+x,1/2-y,1/2-z
1/2-x,y,1/2-z
1/2-x,1/2-y,1/2-z
1/2+x,y,1/2-z
1/2-x,1/2+y,1/2+z
1/2+x,-y,1/2+z
loop_
_atom_site_type_symbol
_atom_site_label
_atom_site_fract_x
_atom_site_fract_y
_atom_site_fract_z
Si Si1 0.045422 0.953792 0.747813
Si Si2 0.954378 0.044052 0.404645
Si Si3 0.362741 0.051978 0.098053
Si Si4 0.270101 0.455579 0.069332
Si Si5 0.635820 0.444334 0.758596
Si Si6 0.719912 0.456055 0.307716
O O1 0.046999 0.750000 0.756702
O O2 0.045077 0.983631 0.671581
O O3 0.000000 0.016826 0.772730
O O4 0.089386 0.029662 0.770909
O O5 0.954354 0.250000 0.414313
O O6 0.908031 0.975887 0.424130
O O7 0.000000 0.977176 0.428756
O O8 0.363483 0.250000 0.078234
O O9 0.318307 0.975541 0.075460
O O10 0.361173 0.048922 0.175412
O O11 0.272721 0.250000 0.075640
O O12 0.240442 0.517362 0.126569
O O13 0.253442 0.500000 0.000000
O O14 0.640450 0.250000 0.779114
O O15 0.672775 0.489131 0.709956
O O16 0.720321 0.250000 0.308371
O O17 0.750000 0.513242 0.250000
#
# Coordination Sequence:
#
# PCOD9536588 Si02
#       6
#    16  16  16  16  16  16
#     4   8  14  26  43  62  90 130 166 192 227 286
#     4   7  10  18  37  62  82 106 149 198 231 264
#     4   9  16  30  47  63  88 125 165 197 237 295
#     4  10  21  35  52  70  91 124 160 206 252 293
#     4  11  20  27  43  73 102 125 154 204 254 284
#     4  10  19  35  54  69  91 128 170 203 239 295
#
# _framework density 18.437322999999999
#
# number of rings (size 3 to 8) (size 9 to 14) (size 15 to 20)
#    0.000    2.833    1.667    3.500    0.000    2.000 
#    0.000    0.000    0.000    0.500    0.000    0.000 
#    0.000    0.667    0.000    2.167    0.000    2.833 
#
# Total GULP energy -267461.408271 kJ/mol
# GULP energy per Si atom -5572.112672 kJ/mol
# Density = 1.839536 g / cm^3
# Si number density = 18.437323 Si / 1000 Ang^3
#
#
#
# Elastic Constant Matrix: (Units=GPa)
#
#
# Indices 1 2 3 4 5 6 
#
# 1 162.6009 12.9977 66.4548 0.0000 0.0000 0.0000
# 2 12.9977 24.0876 1.4105 0.0000 0.0000 0.0000
# 3 66.4548 1.4105 76.2251 0.0000 0.0000 0.0000
# 4 0.0000 0.0000 0.0000 8.0195 0.0000 0.0000
# 5 0.0000 0.0000 0.0000 0.0000 2.7824 0.0000
# 6 0.0000 0.0000 0.0000 0.0000 0.0000 -248.0673
#
#
#
# Elastic Compliance Matrix: (Units=1/GPa)
#
#
# Indices 1 2 3 4 5 6 
#
# 1 0.010110 -0.004945 -0.008723 0.000000 0.000000 0.000000
# 2 -0.004945 0.043978 0.003497 0.000000 0.000000 0.000000
# 3 -0.008723 0.003497 0.020659 0.000000 0.000000 0.000000
# 4 0.000000 0.000000 0.000000 0.124696 0.000000 0.000000
# 5 0.000000 0.000000 0.000000 0.000000 0.359397 0.000000
# 6 0.000000 0.000000 0.000000 0.000000 0.000000 -0.004031
#
#
# Mechanical properties :
#
#
# Convention : Reuss Voigt Hill
#
# Bulk Modulus (GPa) = 18.38002 47.18218 32.78110
# Shear Modulus (GPa) = 8.42762 -35.31638 -13.44438
#
# Velocity S-wave (km/s) = 2.14030 -4.38137 -2.70329
# Velocity P-wave (km/s) = 4.01228 0.22565 2.84159
#
# Compressibility (1/GPa) = 0.05440690
#
# Stress axis : x y z
#
# Youngs Moduli (GPa) = 98.90862 22.73840 48.40462
#
# Poissons Ratio (x) = 0.11244 0.42223
# Poissons Ratio (y) = 0.48908 -0.16928
# Poissons Ratio (z) = 0.86277 -0.07952
#
# Static dielectric constant tensor:
#      x y z
#    x 1.628410 0.000000 0.000000 
#    y 0.000000 1.660430 0.000000 
#    z 0.000000 0.000000 1.608010 
# 
# From -- ./inp_files/62252.got.cif
#   From: 2010.05.17/outbox.cif.g08.bks.cpg/sg74_32_cif.got.tgz:62252.got - 2010.06.03 17:57:02.
