data_PCOD9536410
_publ_section_title
;
Structure prediction by ZEFSAII (Michael W. Deem and Ramdas Pophale) SiO2 
 PCOD9536410
Probable space group: I M M A
;
_chemical_formula_sum "Si O2"
_cell_formula_units_Z 96
_cell_length_a 24.248655
_cell_length_b 8.476031
_cell_length_c 26.161077
_cell_angle_alpha 90.000000
_cell_angle_beta 90.000000
_cell_angle_gamma 90.000000
_cell_volume 5376.947673
_symmetry_space_group_name_H-M "I M M A"
_symmetry_group_IT_number 74
_symmetry_cell_setting 'orthorhombic'
loop_
_space_group_symop_operation_xyz
x,y,z
-x,1/2-y,z
x,-y,-z
-x,1/2+y,-z
-x,-y,-z
x,1/2+y,-z
-x,y,z
x,1/2-y,z
1/2+x,1/2+y,1/2+z
1/2-x,-y,1/2+z
1/2+x,1/2-y,1/2-z
1/2-x,y,1/2-z
1/2-x,1/2-y,1/2-z
1/2+x,y,1/2-z
1/2-x,1/2+y,1/2+z
1/2+x,-y,1/2+z
loop_
_atom_site_type_symbol
_atom_site_label
_atom_site_fract_x
_atom_site_fract_y
_atom_site_fract_z
Si Si1 0.811017 0.940466 0.056520
Si Si2 0.184331 0.938992 0.443315
Si Si3 0.686420 0.440757 0.250575
Si Si4 0.118415 0.440599 0.847456
Si Si5 0.000000 0.442520 0.809239
Si Si6 0.116193 0.061041 0.348194
Si Si7 0.000000 0.439042 0.690161
O O1 0.811607 0.750000 0.055961
O O2 0.747737 0.990329 0.067961
O O3 0.852747 0.996147 0.100354
O O4 0.825155 0.000000 0.000000
O O5 0.183124 0.750000 0.443369
O O6 0.170731 0.000000 0.500000
O O7 0.143241 0.001754 0.400440
O O8 0.685158 0.250000 0.252740
O O9 0.750000 0.491630 0.250000
O O10 0.655115 0.506853 0.299624
O O11 0.654731 0.491224 0.199264
O O12 0.117587 0.250000 0.848800
O O13 0.055935 0.495005 0.837035
O O14 0.000000 0.250000 0.809009
O O15 0.000000 0.492898 0.749726
O O16 0.115028 0.250000 0.348641
O O17 0.055060 0.998653 0.337313
O O18 0.000000 0.250000 0.690394
#
# Coordination Sequence:
#
# PCOD9536410 Si02
#       7
#    16  16  16  16   8  16   8
#     4   9  19  34  55  80 109 143 182 226 274 325
#     4  10  20  36  57  82 109 143 182 223 272 326
#     4  10  21  34  50  77 111 142 172 216 274 327
#     4  10  19  34  54  78 105 140 185 227 267 317
#     4   9  18  33  54  77 105 142 183 226 269 311
#     4  11  22  36  55  81 112 144 180 224 271 323
#     4  11  21  37  58  79 106 148 189 223 269 322
#
# _framework density 17.853995000000001
#
# number of rings (size 3 to 8) (size 9 to 14) (size 15 to 20)
#    0.000    2.000    1.667    2.250    0.000    2.333 
#    0.000    1.250    0.000    0.000    0.000    0.000 
#    0.000    0.000    0.000    0.000    0.000    0.000 
#
# Total GULP energy -268017.041892 kJ/mol
# GULP energy per Si atom -5583.688373 kJ/mol
# Density = 1.781336 g / cm^3
# Si number density = 17.853995 Si / 1000 Ang^3
#
#
#
# Elastic Constant Matrix: (Units=GPa)
#
#
# Indices 1 2 3 4 5 6 
#
# 1 191.3742 31.9266 124.8854 0.0000 0.0000 0.0000
# 2 31.9266 22.4274 30.8083 0.0000 0.0000 0.0000
# 3 124.8854 30.8083 172.1728 0.0000 0.0000 0.0000
# 4 0.0000 0.0000 0.0000 26.0735 0.0000 0.0000
# 5 0.0000 0.0000 0.0000 0.0000 30.0634 0.0000
# 6 0.0000 0.0000 0.0000 0.0000 0.0000 5.0742
#
#
#
# Elastic Compliance Matrix: (Units=1/GPa)
#
#
# Indices 1 2 3 4 5 6 
#
# 1 0.010486 -0.005939 -0.006543 0.000000 0.000000 0.000000
# 2 -0.005939 0.062484 -0.006873 0.000000 0.000000 0.000000
# 3 -0.006543 -0.006873 0.011784 0.000000 0.000000 0.000000
# 4 0.000000 0.000000 0.000000 0.038353 0.000000 0.000000
# 5 0.000000 0.000000 0.000000 0.000000 0.033263 0.000000
# 6 0.000000 0.000000 0.000000 0.000000 0.000000 0.197074
#
#
# Mechanical properties :
#
#
# Convention : Reuss Voigt Hill
#
# Bulk Modulus (GPa) = 21.71843 84.57943 53.14893
# Shear Modulus (GPa) = 12.26983 25.46584 18.86784
#
# Velocity S-wave (km/s) = 2.62435 3.78079 3.25435
# Velocity P-wave (km/s) = 4.62319 8.15689 6.62981
#
# Compressibility (1/GPa) = 0.04604385
#
# Stress axis : x y z
#
# Youngs Moduli (GPa) = 95.36295 16.00403 84.85911
#
# Poissons Ratio (x) = 0.09505 0.55527
# Poissons Ratio (y) = 0.56637 0.58323
# Poissons Ratio (z) = 0.62400 0.10999
#
# Static dielectric constant tensor:
#      x y z
#    x 1.600030 0.000000 0.000000 
#    y 0.000000 1.604100 0.000000 
#    z 0.000000 0.000000 1.578900 
# 
# From -- ./inp_files/57348.got.cif
#   From: 2010.05.17/outbox.cif.g08.bks.cpg/sg74_29_cif.got.tgz:57348.got - 2010.06.03 17:57:02.
