data_PCOD9536320
_publ_section_title
;
Structure prediction by ZEFSAII (Michael W. Deem and Ramdas Pophale) SiO2 
 PCOD9536320
Probable space group: I M M A
;
_chemical_formula_sum "Si O2"
_cell_formula_units_Z 88
_cell_length_a 14.684429
_cell_length_b 19.409679
_cell_length_c 17.996435
_cell_angle_alpha 90.000000
_cell_angle_beta 90.000000
_cell_angle_gamma 90.000000
_cell_volume 5129.344861
_symmetry_space_group_name_H-M "I M M A"
_symmetry_group_IT_number 74
_symmetry_cell_setting 'orthorhombic'
loop_
_space_group_symop_operation_xyz
x,y,z
-x,1/2-y,z
x,-y,-z
-x,1/2+y,-z
-x,-y,-z
x,1/2+y,-z
-x,y,z
x,1/2-y,z
1/2+x,1/2+y,1/2+z
1/2-x,-y,1/2+z
1/2+x,1/2-y,1/2-z
1/2-x,y,1/2-z
1/2-x,1/2-y,1/2-z
1/2+x,y,1/2-z
1/2-x,1/2+y,1/2+z
1/2+x,-y,1/2+z
loop_
_atom_site_type_symbol
_atom_site_label
_atom_site_fract_x
_atom_site_fract_y
_atom_site_fract_z
Si Si1 0.000000 0.535690 0.581865
Si Si2 0.343566 0.327384 0.432559
Si Si3 0.685441 0.544504 0.316700
Si Si4 0.500000 0.018967 0.247972
Si Si5 0.500000 0.331303 0.310590
Si Si6 0.795621 0.449295 0.428917
Si Si7 0.395787 0.826877 0.399383
O O1 0.000000 0.500000 0.500000
O O2 0.000000 0.495580 0.661316
O O3 0.900764 0.570398 0.584667
O O4 0.307865 0.250000 0.423921
O O5 0.412660 0.339997 0.364766
O O6 0.263826 0.381773 0.438387
O O7 0.395149 0.330970 0.511254
O O8 0.750000 0.567697 0.250000
O O9 0.591411 0.509762 0.287657
O O10 0.746841 0.490816 0.362717
O O11 0.659882 0.610170 0.366336
O O12 0.500000 0.103148 0.254972
O O13 0.500000 0.250000 0.284593
O O14 0.791571 0.500000 0.500000
O O15 0.500000 0.832520 0.373305
O O16 0.361554 0.750000 0.379712
#
# Coordination Sequence:
#
# PCOD9536320 Si02
#       7
#     8  16  16   8   8  16  16
#     4  10  24  42  59  76 110 153 198 247 281 326
#     4  10  19  33  56  88 122 152 181 223 287 354
#     4  12  23  35  58  87 115 146 192 246 289 338
#     4  12  22  37  59  89 118 145 195 241 288 346
#     4  10  20  33  55  91 129 150 170 227 297 352
#     4  11  21  37  59  84 110 152 199 237 285 342
#     4  10  20  35  56  85 121 155 184 225 290 355
#
# _framework density 17.156186999999999
#
# number of rings (size 3 to 8) (size 9 to 14) (size 15 to 20)
#    0.000    1.273    7.273    0.000    0.000    0.364 
#    0.000    4.091    0.000    3.273    0.000    1.273 
#    0.000    0.000    0.000    0.000    0.000    0.000 
#
# Total GULP energy -245071.866204 kJ/mol
# GULP energy per Si atom -5569.815141 kJ/mol
# Density = 1.711714 g / cm^3
# Si number density = 17.156187 Si / 1000 Ang^3
#
#
#
# Elastic Constant Matrix: (Units=GPa)
#
#
# Indices 1 2 3 4 5 6 
#
# 1 119.1811 44.6505 9.4563 0.0000 0.0000 0.0000
# 2 44.6505 95.9257 15.5931 0.0000 0.0000 0.0000
# 3 9.4563 15.5931 59.8443 0.0000 0.0000 0.0000
# 4 0.0000 0.0000 0.0000 20.1562 0.0000 0.0000
# 5 0.0000 0.0000 0.0000 0.0000 29.6491 0.0000
# 6 0.0000 0.0000 0.0000 0.0000 0.0000 -5.9174
#
#
#
# Elastic Compliance Matrix: (Units=1/GPa)
#
#
# Indices 1 2 3 4 5 6 
#
# 1 0.010172 -0.004671 -0.000390 0.000000 0.000000 0.000000
# 2 -0.004671 0.013031 -0.002657 0.000000 0.000000 0.000000
# 3 -0.000390 -0.002657 0.017464 0.000000 0.000000 0.000000
# 4 0.000000 0.000000 0.000000 0.049613 0.000000 0.000000
# 5 0.000000 0.000000 0.000000 0.000000 0.033728 0.000000
# 6 0.000000 0.000000 0.000000 0.000000 0.000000 -0.168993
#
#
# Mechanical properties :
#
#
# Convention : Reuss Voigt Hill
#
# Bulk Modulus (GPa) = 39.63613 46.03900 42.83756
# Shear Modulus (GPa) = -236.52370 22.46099 -107.03135
#
# Velocity S-wave (km/s) = -11.75433 3.62222 -7.90708
# Velocity P-wave (km/s) = 12.69117 6.66239 7.63801
#
# Compressibility (1/GPa) = 0.02522951
#
# Stress axis : x y z
#
# Youngs Moduli (GPa) = 98.31335 76.74039 57.26046
#
# Poissons Ratio (x) = 0.35846 0.02234
# Poissons Ratio (y) = 0.45923 0.15216
# Poissons Ratio (z) = 0.03836 0.20392
#
# Static dielectric constant tensor:
#      x y z
#    x 1.575840 0.000000 0.000000 
#    y 0.000000 1.565290 0.000000 
#    z 0.000000 0.000000 1.608580 
# 
# From -- ./inp_files/41322.got.cif
#   From: 2010.05.17/outbox.cif.g08.bks.cpg/sg74_21_cif.got.tgz:41322.got - 2010.06.03 17:57:02.
