data_PCOD9536179
_publ_section_title
;
Structure prediction by ZEFSAII (Michael W. Deem and Ramdas Pophale) SiO2 
 PCOD9536179
Probable space group: I M M A
;
_chemical_formula_sum "Si O2"
_cell_formula_units_Z 72
_cell_length_a 17.307984
_cell_length_b 10.692046
_cell_length_c 23.465061
_cell_angle_alpha 90.000000
_cell_angle_beta 90.000000
_cell_angle_gamma 90.000000
_cell_volume 4342.391653
_symmetry_space_group_name_H-M "I M M A"
_symmetry_group_IT_number 74
_symmetry_cell_setting 'orthorhombic'
loop_
_space_group_symop_operation_xyz
x,y,z
-x,1/2-y,z
x,-y,-z
-x,1/2+y,-z
-x,-y,-z
x,1/2+y,-z
-x,y,z
x,1/2-y,z
1/2+x,1/2+y,1/2+z
1/2-x,-y,1/2+z
1/2+x,1/2-y,1/2-z
1/2-x,y,1/2-z
1/2-x,1/2-y,1/2-z
1/2+x,y,1/2-z
1/2-x,1/2+y,1/2+z
1/2+x,-y,1/2+z
loop_
_atom_site_type_symbol
_atom_site_label
_atom_site_fract_x
_atom_site_fract_y
_atom_site_fract_z
Si Si1 0.589545 0.250000 0.026126
Si Si2 0.263933 0.601917 0.389833
Si Si3 0.815540 0.500000 0.500000
Si Si4 0.674459 0.010698 0.213696
Si Si5 0.089477 0.750000 0.663041
Si Si6 0.912809 0.599619 0.180082
O O1 0.500000 0.250000 0.007665
O O2 0.632268 0.375806 0.005944
O O3 0.591830 0.250000 0.094704
O O4 0.264846 0.750000 0.403274
O O5 0.235985 0.522949 0.443869
O O6 0.205730 0.577402 0.336985
O O7 0.348428 0.562633 0.366532
O O8 0.750000 0.049302 0.250000
O O9 0.617865 0.944375 0.258506
O O10 0.632321 0.128390 0.186461
O O11 0.000000 0.750000 0.681018
O O12 0.913423 0.750000 0.180130
O O13 0.000000 0.554662 0.169252
#
# Coordination Sequence:
#
# PCOD9536179 Si02
#       6
#     8  16   8  16   8  16
#     4  11  24  39  57  79 108 143 183 226 265 314
#     4  10  20  34  56  80 103 141 181 221 264 318
#     4  12  21  40  59  78 110 144 186 224 267 318
#     4  10  19  33  53  77 105 138 176 214 260 322
#     4  11  21  33  49  75 108 137 169 212 267 322
#     4   9  18  34  55  80 108 136 174 221 268 314
#
# _framework density 16.580722999999999
#
# number of rings (size 3 to 8) (size 9 to 14) (size 15 to 20)
#    0.000    1.778    3.333    2.000    0.000    2.667 
#    0.000    0.556    0.000    0.000    0.000    0.000 
#    0.000    0.000    0.000    0.000    0.000    0.000 
#
# Total GULP energy -200801.412947 kJ/mol
# GULP energy per Si atom -5577.817026 kJ/mol
# Density = 1.654299 g / cm^3
# Si number density = 16.580723 Si / 1000 Ang^3
#
#
#
# Elastic Constant Matrix: (Units=GPa)
#
#
# Indices 1 2 3 4 5 6 
#
# 1 134.3291 46.8555 60.6232 0.0000 0.0000 0.0000
# 2 46.8555 64.0014 25.4147 0.0000 0.0000 0.0000
# 3 60.6232 25.4147 90.0799 0.0000 0.0000 0.0000
# 4 0.0000 0.0000 0.0000 24.6884 0.0000 0.0000
# 5 0.0000 0.0000 0.0000 0.0000 16.4985 0.0000
# 6 0.0000 0.0000 0.0000 0.0000 0.0000 21.6565
#
#
#
# Elastic Compliance Matrix: (Units=1/GPa)
#
#
# Indices 1 2 3 4 5 6 
#
# 1 0.012828 -0.006716 -0.006738 0.000000 0.000000 0.000000
# 2 -0.006716 0.021112 -0.001437 0.000000 0.000000 0.000000
# 3 -0.006738 -0.001437 0.016042 0.000000 0.000000 0.000000
# 4 0.000000 0.000000 0.000000 0.040505 0.000000 0.000000
# 5 0.000000 0.000000 0.000000 0.000000 0.060611 0.000000
# 6 0.000000 0.000000 0.000000 0.000000 0.000000 0.046176
#
#
# Mechanical properties :
#
#
# Convention : Reuss Voigt Hill
#
# Bulk Modulus (GPa) = 49.50597 61.57745 55.54171
# Shear Modulus (GPa) = 21.38692 22.93648 22.16170
#
# Velocity S-wave (km/s) = 3.59537 3.72334 3.65991
# Velocity P-wave (km/s) = 6.86716 7.46344 7.17150
#
# Compressibility (1/GPa) = 0.02019958
#
# Stress axis : x y z
#
# Youngs Moduli (GPa) = 77.95482 47.36712 62.33810
#
# Poissons Ratio (x) = 0.31810 0.42006
# Poissons Ratio (y) = 0.52351 0.08957
# Poissons Ratio (z) = 0.52529 0.06806
#
# Static dielectric constant tensor:
#      x y z
#    x 1.567180 0.000000 0.000000 
#    y 0.000000 1.533110 0.000000 
#    z 0.000000 0.000000 1.536450 
# 
# From -- ./inp_files/50376.got.cif
#   From: 2010.05.17/outbox.cif.g08.bks.cpg/sg74_26_cif.got.tgz:50376.got - 2010.06.03 17:57:02.
