data_PCOD9536823
_publ_section_title
;
Structure prediction by ZEFSAII (Michael W. Deem and Ramdas Pophale) SiO2 
 PCOD9536823
Probable space group: I M M A
;
_chemical_formula_sum "Si O2"
_cell_formula_units_Z 116
_cell_length_a 22.707912
_cell_length_b 7.791533
_cell_length_c 28.353606
_cell_angle_alpha 90.000000
_cell_angle_beta 90.000000
_cell_angle_gamma 90.000000
_cell_volume 5016.587793
_symmetry_space_group_name_H-M "I M M A"
_symmetry_group_IT_number 74
_symmetry_cell_setting 'orthorhombic'
loop_
_space_group_symop_operation_xyz
x,y,z
-x,1/2-y,z
x,-y,-z
-x,1/2+y,-z
-x,-y,-z
x,1/2+y,-z
-x,y,z
x,1/2-y,z
1/2+x,1/2+y,1/2+z
1/2-x,-y,1/2+z
1/2+x,1/2-y,1/2-z
1/2-x,y,1/2-z
1/2-x,1/2-y,1/2-z
1/2+x,y,1/2-z
1/2-x,1/2+y,1/2+z
1/2+x,-y,1/2+z
loop_
_atom_site_type_symbol
_atom_site_label
_atom_site_fract_x
_atom_site_fract_y
_atom_site_fract_z
Si Si1 0.152766 0.958919 0.724961
Si Si2 0.622099 0.943096 0.671355
Si Si3 0.247296 0.448381 0.848639
Si Si4 0.226767 0.454190 0.052313
Si Si5 0.091293 0.556185 0.071258
Si Si6 0.434722 0.452823 0.147677
Si Si7 0.500000 0.250000 0.453152
Si Si8 0.432233 0.547031 0.049205
O O1 0.155269 0.750000 0.728119
O O2 0.132182 0.019228 0.776499
O O3 0.103072 0.023935 0.689471
O O4 0.211225 0.011062 0.696066
O O5 0.596987 0.750000 0.674969
O O6 0.689773 0.935634 0.655133
O O7 0.589394 0.038266 0.628750
O O8 0.230031 0.250000 0.844733
O O9 0.265394 0.478366 0.903234
O O10 0.222785 0.250000 0.055761
O O11 0.160129 0.530915 0.057260
O O12 0.248804 0.500000 0.000000
O O13 0.072800 0.750000 0.057677
O O14 0.051490 0.403602 0.050883
O O15 0.500000 0.528165 0.146187
O O16 0.439034 0.250000 0.155797
O O17 0.405637 0.477511 0.097007
O O18 0.500000 0.475031 0.047798
O O19 0.435458 0.750000 0.052665
O O20 0.403459 0.500000 0.000000
#
# Coordination Sequence:
#
# PCOD9536823 Si02
#       8
#    16  16  16  16  16  16   4  16
#     4  10  21  36  56  84 117 154 195 248 307 362
#     4  10  19  37  59  88 118 157 203 252 310 372
#     4  11  22  36  58  89 118 152 197 252 308 367
#     4  11  21  40  67  94 127 165 209 255 317 394
#     4  11  22  40  65  93 129 172 221 266 322 378
#     4   9  18  34  52  74 105 144 185 226 278 348
#     4  12  22  44  62  94 132 176 216 284 314 368
#     4   9  16  27  46  69  91 123 166 213 258 308
#
# _framework density 23.123287000000001
#
# number of rings (size 3 to 8) (size 9 to 14) (size 15 to 20)
#    0.000    1.793    1.379    5.586    0.000    4.966 
#    1.241    1.034    0.000    3.310    0.000    0.000 
#    0.000    0.000    0.000    0.000    0.000    0.000 
#
# Total GULP energy -323137.084269 kJ/mol
# GULP energy per Si atom -5571.329039 kJ/mol
# Density = 2.307066 g / cm^3
# Si number density = 23.123287 Si / 1000 Ang^3
#
#
#
# Elastic Constant Matrix: (Units=GPa)
#
#
# Indices 1 2 3 4 5 6 
#
# 1 46.6294 6.0888 -4.9641 0.0000 0.0000 0.0000
# 2 6.0888 132.0055 3.7245 0.0000 0.0000 0.0000
# 3 -4.9641 3.7245 152.3783 0.0000 0.0000 0.0000
# 4 0.0000 0.0000 0.0000 25.4670 0.0000 0.0000
# 5 0.0000 0.0000 0.0000 0.0000 18.8101 0.0000
# 6 0.0000 0.0000 0.0000 0.0000 0.0000 3.0863
#
#
#
# Elastic Compliance Matrix: (Units=1/GPa)
#
#
# Indices 1 2 3 4 5 6 
#
# 1 0.021657 -0.001020 0.000730 0.000000 0.000000 0.000000
# 2 -0.001020 0.007629 -0.000220 0.000000 0.000000 0.000000
# 3 0.000730 -0.000220 0.006592 0.000000 0.000000 0.000000
# 4 0.000000 0.000000 0.000000 0.039266 0.000000 0.000000
# 5 0.000000 0.000000 0.000000 0.000000 0.053163 0.000000
# 6 0.000000 0.000000 0.000000 0.000000 0.000000 0.324010
#
#
# Mechanical properties :
#
#
# Convention : Reuss Voigt Hill
#
# Bulk Modulus (GPa) = 28.68659 37.85685 33.27172
# Shear Modulus (GPa) = 10.75375 31.21697 20.98536
#
# Velocity S-wave (km/s) = 2.15887 3.67825 3.01581
# Velocity P-wave (km/s) = 4.31823 5.86913 5.15237
#
# Compressibility (1/GPa) = 0.03485950
#
# Stress axis : x y z
#
# Youngs Moduli (GPa) = 46.17534 131.08457 151.70414
#
# Poissons Ratio (x) = 0.13364 -0.11081
# Poissons Ratio (y) = 0.04708 0.03333
# Poissons Ratio (z) = -0.03373 0.02880
#
# Static dielectric constant tensor:
#      x y z
#    x 1.914240 0.000000 0.000000 
#    y 0.000000 1.830130 0.000000 
#    z 0.000000 0.000000 1.964180 
# 
# From -- ./inp_files/68759.got.cif
#   From: 2010.05.17/outbox.cif.g08.bks.cpg/sg74_35_cif.got.tgz:68759.got - 2010.06.03 17:57:02.
