data_PCOD9536200
_publ_section_title
;
Structure prediction by ZEFSAII (Michael W. Deem and Ramdas Pophale) SiO2 
 PCOD9536200
Probable space group: I M M A
;
_chemical_formula_sum "Si O2"
_cell_formula_units_Z 96
_cell_length_a 8.631955
_cell_length_b 21.412249
_cell_length_c 31.534359
_cell_angle_alpha 90.000000
_cell_angle_beta 90.000000
_cell_angle_gamma 90.000000
_cell_volume 5828.482008
_symmetry_space_group_name_H-M "I M M A"
_symmetry_group_IT_number 74
_symmetry_cell_setting 'orthorhombic'
loop_
_space_group_symop_operation_xyz
x,y,z
-x,1/2-y,z
x,-y,-z
-x,1/2+y,-z
-x,-y,-z
x,1/2+y,-z
-x,y,z
x,1/2-y,z
1/2+x,1/2+y,1/2+z
1/2-x,-y,1/2+z
1/2+x,1/2-y,1/2-z
1/2-x,y,1/2-z
1/2-x,1/2-y,1/2-z
1/2+x,y,1/2-z
1/2-x,1/2+y,1/2+z
1/2+x,-y,1/2+z
loop_
_atom_site_type_symbol
_atom_site_label
_atom_site_fract_x
_atom_site_fract_y
_atom_site_fract_z
Si Si1 0.680826 0.008673 0.117005
Si Si2 0.681108 0.654495 0.903062
Si Si3 0.315922 0.683384 0.685325
Si Si4 0.813047 0.181103 0.499383
Si Si5 0.314759 0.947792 0.465524
Si Si6 0.814055 0.455092 0.205843
O O1 0.500000 0.993519 0.121252
O O2 0.693521 0.079616 0.099562
O O3 0.757708 0.010176 0.163442
O O4 0.757444 0.966200 0.081203
O O5 0.500000 0.671038 0.895973
O O6 0.782239 0.680429 0.864826
O O7 0.727512 0.676487 0.949514
O O8 0.500000 0.683306 0.692816
O O9 0.251089 0.750000 0.701014
O O10 0.253911 0.617210 0.702263
O O11 0.766001 0.250000 0.515258
O O12 0.743304 0.120794 0.521867
O O13 0.000000 0.177006 0.501830
O O14 0.500000 0.948900 0.466463
O O15 0.258845 0.000000 0.500000
O O16 0.750000 0.481065 0.250000
O O17 0.000000 0.454230 0.206292
#
# Coordination Sequence:
#
# PCOD9536200 Si02
#       6
#    16  16  16  16  16  16
#     4  10  19  33  54  74  95 127 168 211 257 302
#     4   9  17  29  46  67  92 124 165 211 252 294
#     4   9  18  30  43  61  88 123 162 205 252 300
#     4  10  20  33  49  71 101 136 174 215 256 300
#     4  11  22  34  51  75 104 137 174 213 256 306
#     4  10  20  34  50  69  95 123 160 207 258 308
#
# _framework density 16.470841
#
# number of rings (size 3 to 8) (size 9 to 14) (size 15 to 20)
#    0.000    2.167    1.667    2.000    0.000    4.333 
#    0.000    0.000    0.000    0.000    0.000    0.000 
#    0.000    0.667    0.000    2.500    0.000    3.833 
#
# Total GULP energy -267741.633462 kJ/mol
# GULP energy per Si atom -5577.950697 kJ/mol
# Density = 1.643335 g / cm^3
# Si number density = 16.470841 Si / 1000 Ang^3
#
#
#
# Elastic Constant Matrix: (Units=GPa)
#
#
# Indices 1 2 3 4 5 6 
#
# 1 35.8071 29.4218 32.1835 0.0000 0.0000 0.0000
# 2 29.4218 83.6203 57.4570 0.0000 0.0000 0.0000
# 3 32.1835 57.4570 123.3447 0.0000 0.0000 0.0000
# 4 0.0000 0.0000 0.0000 -2.2327 0.0000 0.0000
# 5 0.0000 0.0000 0.0000 0.0000 24.9309 0.0000
# 6 0.0000 0.0000 0.0000 0.0000 0.0000 -156.6328
#
#
#
# Elastic Compliance Matrix: (Units=1/GPa)
#
#
# Indices 1 2 3 4 5 6 
#
# 1 0.042110 -0.010687 -0.006009 0.000000 0.000000 0.000000
# 2 -0.010687 0.020301 -0.006668 0.000000 0.000000 0.000000
# 3 -0.006009 -0.006668 0.012781 0.000000 0.000000 0.000000
# 4 0.000000 0.000000 0.000000 -0.447896 0.000000 0.000000
# 5 0.000000 0.000000 0.000000 0.000000 0.040111 0.000000
# 6 0.000000 0.000000 0.000000 0.000000 0.000000 -0.006384
#
#
# Mechanical properties :
#
#
# Convention : Reuss Voigt Hill
#
# Bulk Modulus (GPa) = 35.13307 53.43295 44.28301
# Shear Modulus (GPa) = -17.68281 -18.53958 -18.11120
#
# Velocity S-wave (km/s) = -3.28011 -3.35864 -3.31961
# Velocity P-wave (km/s) = 2.65165 4.17981 3.50015
#
# Compressibility (1/GPa) = 0.02846321
#
# Stress axis : x y z
#
# Youngs Moduli (GPa) = 23.74740 49.25875 78.23875
#
# Poissons Ratio (x) = 0.52645 0.47013
# Poissons Ratio (y) = 0.25380 0.52170
# Poissons Ratio (z) = 0.14270 0.32846
#
# Static dielectric constant tensor:
#      x y z
#    x 1.561460 0.000000 0.000000 
#    y 0.000000 1.567820 0.000000 
#    z 0.000000 0.000000 1.546710 
# 
# From -- ./inp_files/64343.got.cif
#   From: 2010.05.17/outbox.cif.g08.bks.cpg/sg74_33_cif.got.tgz:64343.got - 2010.06.03 17:57:02.
