data_PCOD9536864
_publ_section_title
;
Structure prediction by ZEFSAII (Michael W. Deem and Ramdas Pophale) SiO2 
 PCOD9536864
Probable space group: I M M A
;
_chemical_formula_sum "Si O2"
_cell_formula_units_Z 44
_cell_length_a 15.832697
_cell_length_b 14.280049
_cell_length_c 7.467636
_cell_angle_alpha 90.000000
_cell_angle_beta 90.000000
_cell_angle_gamma 90.000000
_cell_volume 1688.370436
_symmetry_space_group_name_H-M "I M M A"
_symmetry_group_IT_number 74
_symmetry_cell_setting 'orthorhombic'
loop_
_space_group_symop_operation_xyz
x,y,z
-x,1/2-y,z
x,-y,-z
-x,1/2+y,-z
-x,-y,-z
x,1/2+y,-z
-x,y,z
x,1/2-y,z
1/2+x,1/2+y,1/2+z
1/2-x,-y,1/2+z
1/2+x,1/2-y,1/2-z
1/2-x,y,1/2-z
1/2-x,1/2-y,1/2-z
1/2+x,y,1/2-z
1/2-x,1/2+y,1/2+z
1/2+x,-y,1/2+z
loop_
_atom_site_type_symbol
_atom_site_label
_atom_site_fract_x
_atom_site_fract_y
_atom_site_fract_z
Si Si1 0.500000 0.750000 0.231414
Si Si2 0.354654 0.849109 0.413468
Si Si3 0.595310 0.140476 0.176114
Si Si4 0.272416 0.000000 0.000000
O O1 0.425479 0.830555 0.265198
O O2 0.305629 0.750000 0.426026
O O3 0.398979 0.859380 0.607545
O O4 0.294146 0.935135 0.394417
O O5 0.500000 0.113342 0.123948
O O6 0.604753 0.250000 0.120555
O O7 0.667331 0.073802 0.100459
#
# Coordination Sequence:
#
# PCOD9536864 Si02
#       4
#     4  16  16   8
#     4   8  16  38  58  74 102 146 170 216 272 302
#     4   9  18  37  55  78 104 138 178 214 262 310
#     4  10  19  38  56  76 108 143 175 215 263 314
#     4  12  21  25  56  92 108 124 174 231 265 304
#
# _framework density 26.060631999999998
#
# number of rings (size 3 to 8) (size 9 to 14) (size 15 to 20)
#    1.091    1.091    1.818    2.727    0.000    3.636 
#    0.000    0.000    0.000   17.455    0.000    0.000 
#    0.000    0.000    0.000    0.000    0.000    0.000 
#
# Total GULP energy -122551.480494 kJ/mol
# GULP energy per Si atom -5570.521841 kJ/mol
# Density = 2.600132 g / cm^3
# Si number density = 26.060632 Si / 1000 Ang^3
#
#
#
# Elastic Constant Matrix: (Units=GPa)
#
#
# Indices 1 2 3 4 5 6 
#
# 1 196.9381 108.9391 33.7211 0.0000 0.0000 0.0000
# 2 108.9391 162.3540 13.2923 0.0000 0.0000 0.0000
# 3 33.7211 13.2923 60.0918 0.0000 0.0000 0.0000
# 4 0.0000 0.0000 0.0000 22.3652 0.0000 0.0000
# 5 0.0000 0.0000 0.0000 0.0000 0.3869 0.0000
# 6 0.0000 0.0000 0.0000 0.0000 0.0000 123.9374
#
#
#
# Elastic Compliance Matrix: (Units=1/GPa)
#
#
# Indices 1 2 3 4 5 6 
#
# 1 0.008817 -0.005613 -0.003706 0.000000 0.000000 0.000000
# 2 -0.005613 0.009846 0.000972 0.000000 0.000000 0.000000
# 3 -0.003706 0.000972 0.018506 0.000000 0.000000 0.000000
# 4 0.000000 0.000000 0.000000 0.044712 0.000000 0.000000
# 5 0.000000 0.000000 0.000000 0.000000 2.584736 0.000000
# 6 0.000000 0.000000 0.000000 0.000000 0.000000 0.008069
#
#
# Mechanical properties :
#
#
# Convention : Reuss Voigt Hill
#
# Bulk Modulus (GPa) = 48.84114 81.25432 65.04773
# Shear Modulus (GPa) = 1.85308 46.90001 24.37654
#
# Velocity S-wave (km/s) = 0.84416 4.24683 3.06171
# Velocity P-wave (km/s) = 4.44209 7.43600 6.12480
#
# Compressibility (1/GPa) = 0.02047454
#
# Stress axis : x y z
#
# Youngs Moduli (GPa) = 113.41477 101.56369 54.03632
#
# Poissons Ratio (x) = 0.57006 0.20027
# Poissons Ratio (y) = 0.63658 -0.05251
# Poissons Ratio (z) = 0.42035 -0.09870
#
# Static dielectric constant tensor:
#      x y z
#    x 1.934040 0.000000 0.000000 
#    y 0.000000 2.007470 0.000000 
#    z 0.000000 0.000000 2.308090 
# 
# From -- ./inp_files/19431.got.cif
#   From: 2010.05.17/outbox.cif.g08.bks.cpg/sg74_10_cif.got.tgz:19431.got - 2010.06.03 17:57:02.
