data_PCOD9536861
_publ_section_title
;
Structure prediction by ZEFSAII (Michael W. Deem and Ramdas Pophale) SiO2 
 PCOD9536861
Probable space group: I M M A
;
_chemical_formula_sum "Si O2"
_cell_formula_units_Z 96
_cell_length_a 14.663153
_cell_length_b 23.459346
_cell_length_c 13.892660
_cell_angle_alpha 90.000000
_cell_angle_beta 90.000000
_cell_angle_gamma 90.000000
_cell_volume 4778.908046
_symmetry_space_group_name_H-M "I M M A"
_symmetry_group_IT_number 74
_symmetry_cell_setting 'orthorhombic'
loop_
_space_group_symop_operation_xyz
x,y,z
-x,1/2-y,z
x,-y,-z
-x,1/2+y,-z
-x,-y,-z
x,1/2+y,-z
-x,y,z
x,1/2-y,z
1/2+x,1/2+y,1/2+z
1/2-x,-y,1/2+z
1/2+x,1/2-y,1/2-z
1/2-x,y,1/2-z
1/2-x,1/2-y,1/2-z
1/2+x,y,1/2-z
1/2-x,1/2+y,1/2+z
1/2+x,-y,1/2+z
loop_
_atom_site_type_symbol
_atom_site_label
_atom_site_fract_x
_atom_site_fract_y
_atom_site_fract_z
Si Si1 0.000000 0.868012 0.172755
Si Si2 0.192527 0.683589 0.157077
Si Si3 0.500000 0.000785 0.614286
Si Si4 0.348494 0.185449 0.993877
Si Si5 0.000000 0.619340 0.386536
Si Si6 0.500000 0.011515 0.113922
Si Si7 0.390043 0.686746 0.785516
Si Si8 0.355723 0.438343 0.256347
O O1 0.903839 0.844772 0.136609
O O2 0.000000 0.849113 0.284966
O O3 0.000000 0.934615 0.150050
O O4 0.175646 0.750000 0.179063
O O5 0.250000 0.660432 0.250000
O O6 0.254669 0.679581 0.062686
O O7 0.588131 0.969349 0.659567
O O8 0.500000 0.000000 0.500000
O O9 0.383680 0.250000 0.972492
O O10 0.414579 0.138194 0.949768
O O11 0.346226 0.181377 0.108520
O O12 0.000000 0.554096 0.354036
O O13 0.587250 0.043940 0.159683
O O14 0.500000 0.000000 0.000000
O O15 0.500000 0.685077 0.797823
O O16 0.367147 0.750000 0.746113
O O17 0.362204 0.629964 0.729713
O O18 0.250000 0.455043 0.250000
#
# Coordination Sequence:
#
# PCOD9536861 Si02
#       8
#     8  16   8  16   8   8  16  16
#     4  12  23  37  59  79 115 168 220 261 313 378
#     4  10  21  34  53  84 124 166 212 258 310 382
#     4  11  27  49  65  87 126 172 225 271 319 383
#     4  10  20  33  56  95 131 163 202 257 329 391
#     4  12  19  31  56  85 117 158 205 264 312 376
#     4  11  23  41  62  93 130 164 218 275 318 376
#     4  10  19  37  68  99 129 159 201 260 322 388
#     4  11  24  44  68  97 131 168 215 268 330 388
#
# _framework density 20.088270999999999
#
# number of rings (size 3 to 8) (size 9 to 14) (size 15 to 20)
#    0.000    1.333    5.833    1.500    0.000    5.000 
#    0.000    0.000    0.000    2.000    0.000    0.000 
#    0.000    0.000    0.000    0.000    0.000    0.000 
#
# Total GULP energy -267880.091556 kJ/mol
# GULP energy per Si atom -5580.835241 kJ/mol
# Density = 2.004255 g / cm^3
# Si number density = 20.088271 Si / 1000 Ang^3
#
#
#
# Elastic Constant Matrix: (Units=GPa)
#
#
# Indices 1 2 3 4 5 6 
#
# 1 152.5364 61.8474 38.2026 0.0000 0.0000 0.0000
# 2 61.8474 123.3773 18.1992 0.0002 0.0000 0.0000
# 3 38.2026 18.1992 75.8332 0.0003 0.0000 0.0000
# 4 0.0000 0.0002 0.0003 20.7353 0.0000 0.0000
# 5 0.0000 0.0000 0.0000 0.0000 12.9794 0.0000
# 6 0.0000 0.0000 0.0000 0.0000 0.0000 20.3818
#
#
#
# Elastic Compliance Matrix: (Units=1/GPa)
#
#
# Indices 1 2 3 4 5 6 
#
# 1 0.009093 -0.004025 -0.003615 0.000000 0.000000 0.000000
# 2 -0.004025 0.010184 -0.000416 0.000000 0.000000 0.000000
# 3 -0.003615 -0.000416 0.015108 0.000000 0.000000 0.000000
# 4 0.000000 0.000000 0.000000 0.048227 0.000000 0.000000
# 5 0.000000 0.000000 0.000000 0.000000 0.077045 0.000000
# 6 0.000000 0.000000 0.000000 0.000000 0.000000 0.049063
#
#
# Mechanical properties :
#
#
# Convention : Reuss Voigt Hill
#
# Bulk Modulus (GPa) = 54.72678 65.36059 60.04369
# Shear Modulus (GPa) = 21.65213 26.38583 24.01898
#
# Velocity S-wave (km/s) = 3.28662 3.62815 3.46160
# Velocity P-wave (km/s) = 6.45793 7.08227 6.77729
#
# Compressibility (1/GPa) = 0.01827259
#
# Stress axis : x y z
#
# Youngs Moduli (GPa) = 109.97289 98.18993 66.19072
#
# Poissons Ratio (x) = 0.39522 0.23927
# Poissons Ratio (y) = 0.44265 0.02756
# Poissons Ratio (z) = 0.39754 0.04089
#
# Static dielectric constant tensor:
#      x y z
#    x 1.733010 0.000000 0.000000 
#    y 0.000000 1.748600 0.000000 
#    z 0.000000 0.000000 1.752580 
# 
# From -- ./inp_files/32495.got.cif
#   From: 2010.05.17/outbox.cif.g08.bks.cpg/sg74_17_cif.got.tgz:32495.got - 2010.06.03 17:57:02.
