data_PCOD9536060
_publ_section_title
;
Structure prediction by ZEFSAII (Michael W. Deem and Ramdas Pophale) SiO2 
 PCOD9536060
Probable space group: I M M A
;
_chemical_formula_sum "Si O2"
_cell_formula_units_Z 104
_cell_length_a 18.703813
_cell_length_b 18.227708
_cell_length_c 11.969538
_cell_angle_alpha 90.000000
_cell_angle_beta 90.000000
_cell_angle_gamma 90.000000
_cell_volume 4080.746364
_symmetry_space_group_name_H-M "I M M A"
_symmetry_group_IT_number 74
_symmetry_cell_setting 'orthorhombic'
loop_
_space_group_symop_operation_xyz
x,y,z
-x,1/2-y,z
x,-y,-z
-x,1/2+y,-z
-x,-y,-z
x,1/2+y,-z
-x,y,z
x,1/2-y,z
1/2+x,1/2+y,1/2+z
1/2-x,-y,1/2+z
1/2+x,1/2-y,1/2-z
1/2-x,y,1/2-z
1/2-x,1/2-y,1/2-z
1/2+x,y,1/2-z
1/2-x,1/2+y,1/2+z
1/2+x,-y,1/2+z
loop_
_atom_site_type_symbol
_atom_site_label
_atom_site_fract_x
_atom_site_fract_y
_atom_site_fract_z
Si Si1 0.341413 0.668182 0.341736
Si Si2 0.919076 0.561619 0.326259
Si Si3 0.734441 0.334742 0.011110
Si Si4 0.293591 0.000000 0.500000
Si Si5 0.666711 0.053930 0.276889
Si Si6 0.076036 0.333489 0.464826
Si Si7 0.080560 0.836055 0.917581
O O1 0.361164 0.750000 0.307355
O O2 0.373259 0.615950 0.249777
O O3 0.257861 0.668440 0.379253
O O4 0.380957 0.654535 0.462323
O O5 0.877369 0.485068 0.320947
O O6 0.924296 0.602312 0.443986
O O7 0.000000 0.551487 0.284060
O O8 0.761836 0.250000 0.044750
O O9 0.753924 0.422454 0.018749
O O10 0.658005 0.334779 0.072944
O O11 0.337532 0.999065 0.385013
O O12 0.750000 0.062635 0.250000
O O13 0.628529 0.125714 0.324011
O O14 0.072979 0.250000 0.514391
O O15 0.000000 0.340263 0.399396
O O16 0.076089 0.750000 0.895388
O O17 0.000000 0.866413 0.920400
#
# Coordination Sequence:
#
# PCOD9536060 Si02
#       7
#    16  16  16   8  16  16  16
#     4  10  19  32  55  86 116 153 192 233 291 361
#     4  11  21  33  51  82 120 154 191 235 292 362
#     4  10  20  36  58  82 115 156 202 248 296 357
#     4  12  22  40  60  88 124 156 200 250 304 356
#     4  12  24  38  59  87 117 156 202 247 296 355
#     4   9  19  35  55  81 116 157 197 245 304 362
#     4  10  21  39  60  83 115 152 192 245 308 365
#
# _framework density 25.485534999999999
#
# number of rings (size 3 to 8) (size 9 to 14) (size 15 to 20)
#    0.000    1.538    3.077    2.308    0.000    1.846 
#    0.000    5.000    0.000    1.846    0.000    2.154 
#    0.000    0.000    0.000    0.000    0.000    0.000 
#
# Total GULP energy -289530.258964 kJ/mol
# GULP energy per Si atom -5567.889595 kJ/mol
# Density = 2.542753 g / cm^3
# Si number density = 25.485535 Si / 1000 Ang^3
#
#
#
# Elastic Constant Matrix: (Units=GPa)
#
#
# Indices 1 2 3 4 5 6 
#
# 1 135.9641 36.8897 8.9289 0.0000 0.0000 0.0000
# 2 36.8897 143.4854 21.9509 0.0000 0.0000 0.0000
# 3 8.9289 21.9509 47.1265 0.0000 0.0000 0.0000
# 4 0.0000 0.0000 0.0000 17.9191 0.0000 0.0000
# 5 0.0000 0.0000 0.0000 0.0000 15.1884 0.0000
# 6 0.0000 0.0000 0.0000 0.0000 0.0000 36.0145
#
#
#
# Elastic Compliance Matrix: (Units=1/GPa)
#
#
# Indices 1 2 3 4 5 6 
#
# 1 0.007922 -0.001946 -0.000595 0.000000 0.000000 0.000000
# 2 -0.001946 0.007982 -0.003349 0.000000 0.000000 0.000000
# 3 -0.000595 -0.003349 0.022892 0.000000 0.000000 0.000000
# 4 0.000000 0.000000 0.000000 0.055806 0.000000 0.000000
# 5 0.000000 0.000000 0.000000 0.000000 0.065840 0.000000
# 6 0.000000 0.000000 0.000000 0.000000 0.000000 0.027767
#
#
# Mechanical properties :
#
#
# Convention : Reuss Voigt Hill
#
# Bulk Modulus (GPa) = 37.01400 51.34611 44.18006
# Shear Modulus (GPa) = 23.92417 31.07815 27.50116
#
# Velocity S-wave (km/s) = 3.06720 3.49584 3.28851
# Velocity P-wave (km/s) = 5.20564 6.04032 5.63845
#
# Compressibility (1/GPa) = 0.02701680
#
# Stress axis : x y z
#
# Youngs Moduli (GPa) = 126.23322 125.28242 43.68303
#
# Poissons Ratio (x) = 0.24376 0.02598
# Poissons Ratio (y) = 0.24561 0.14631
# Poissons Ratio (z) = 0.07506 0.41960
#
# Static dielectric constant tensor:
#      x y z
#    x 2.146550 0.000000 0.000000 
#    y 0.000000 2.081730 0.000000 
#    z 0.000000 0.000000 2.114270 
# 
# From -- ./inp_files/44192.got.cif
#   From: 2010.05.17/outbox.cif.g08.bks.cpg/sg74_23_cif.got.tgz:44192.got - 2010.06.03 17:57:02.
