data_PCOD9536543
_publ_section_title
;
Structure prediction by ZEFSAII (Michael W. Deem and Ramdas Pophale) SiO2 
 PCOD9536543
Probable space group: I M M A
;
_chemical_formula_sum "Si O2"
_cell_formula_units_Z 64
_cell_length_a 17.169762
_cell_length_b 24.261642
_cell_length_c 8.553302
_cell_angle_alpha 90.000000
_cell_angle_beta 90.000000
_cell_angle_gamma 90.000000
_cell_volume 3563.020094
_symmetry_space_group_name_H-M "I M M A"
_symmetry_group_IT_number 74
_symmetry_cell_setting 'orthorhombic'
loop_
_space_group_symop_operation_xyz
x,y,z
-x,1/2-y,z
x,-y,-z
-x,1/2+y,-z
-x,-y,-z
x,1/2+y,-z
-x,y,z
x,1/2-y,z
1/2+x,1/2+y,1/2+z
1/2-x,-y,1/2+z
1/2+x,1/2-y,1/2-z
1/2-x,y,1/2-z
1/2-x,1/2-y,1/2-z
1/2+x,y,1/2-z
1/2-x,1/2+y,1/2+z
1/2+x,-y,1/2+z
loop_
_atom_site_type_symbol
_atom_site_label
_atom_site_fract_x
_atom_site_fract_y
_atom_site_fract_z
Si Si1 0.230769 0.438683 0.432346
Si Si2 0.325616 0.144358 0.644734
Si Si3 0.832985 0.750000 0.946344
Si Si4 0.910302 0.632823 0.454587
Si Si5 0.144706 0.250000 0.414378
O O1 0.227318 0.500000 0.500000
O O2 0.250000 0.439136 0.250000
O O3 0.293883 0.403496 0.531565
O O4 0.149118 0.407461 0.457523
O O5 0.250000 0.161264 0.750000
O O6 0.353601 0.195486 0.542197
O O7 0.389367 0.127055 0.771244
O O8 0.867542 0.750000 0.772488
O O9 0.738419 0.750000 0.934600
O O10 0.889888 0.695149 0.507937
O O11 0.000000 0.621094 0.485474
#
# Coordination Sequence:
#
# PCOD9536543 Si02
#       5
#    16  16   8  16   8
#     4  11  22  40  64  87 109 146 195 240 279 333
#     4  10  19  34  58  84 111 149 191 233 276 335
#     4  11  18  32  58  87 112 149 199 236 276 327
#     4  11  23  38  57  85 121 154 185 232 292 340
#     4  11  20  33  57  86 119 151 189 236 281 337
#
# _framework density 17.962291
#
# number of rings (size 3 to 8) (size 9 to 14) (size 15 to 20)
#    0.000    1.250    5.000    5.250    0.000    0.500 
#    0.000    6.250    0.000    3.000    0.000    0.000 
#    0.000    0.000    0.000    0.000    0.000    0.000 
#
# Total GULP energy -178762.285001 kJ/mol
# GULP energy per Si atom -5586.321406 kJ/mol
# Density = 1.792141 g / cm^3
# Si number density = 17.962291 Si / 1000 Ang^3
#
#
#
# Elastic Constant Matrix: (Units=GPa)
#
#
# Indices 1 2 3 4 5 6 
#
# 1 84.6978 58.3088 53.8558 0.0000 0.0000 0.0000
# 2 58.3088 154.5703 74.8206 0.0000 0.0000 0.0000
# 3 53.8558 74.8206 158.2695 0.0000 0.0000 0.0000
# 4 0.0000 0.0000 0.0000 32.3979 0.0000 0.0000
# 5 0.0000 0.0000 0.0000 0.0000 10.5807 0.0000
# 6 0.0000 0.0000 0.0000 0.0000 0.0000 3.1390
#
#
#
# Elastic Compliance Matrix: (Units=1/GPa)
#
#
# Indices 1 2 3 4 5 6 
#
# 1 0.017446 -0.004808 -0.003664 0.000000 0.000000 0.000000
# 2 -0.004808 0.009714 -0.002956 0.000000 0.000000 0.000000
# 3 -0.003664 -0.002956 0.008963 0.000000 0.000000 0.000000
# 4 0.000000 0.000000 0.000000 0.030866 0.000000 0.000000
# 5 0.000000 0.000000 0.000000 0.000000 0.094511 0.000000
# 6 0.000000 0.000000 0.000000 0.000000 0.000000 0.318575
#
#
# Mechanical properties :
#
#
# Convention : Reuss Voigt Hill
#
# Bulk Modulus (GPa) = 75.37330 85.72310 80.54820
# Shear Modulus (GPa) = 9.85506 23.26034 16.55770
#
# Velocity S-wave (km/s) = 2.34487 3.60245 3.03942
# Velocity P-wave (km/s) = 7.02740 8.07038 7.56688
#
# Compressibility (1/GPa) = 0.01326730
#
# Stress axis : x y z
#
# Youngs Moduli (GPa) = 57.31929 102.94184 111.57469
#
# Poissons Ratio (x) = 0.49492 0.40878
# Poissons Ratio (y) = 0.27558 0.32985
# Poissons Ratio (z) = 0.21000 0.30433
#
# Static dielectric constant tensor:
#      x y z
#    x 1.601360 0.000000 0.000000 
#    y 0.000000 1.595950 0.000000 
#    z 0.000000 0.000000 1.618800 
# 
# From -- ./inp_files/10263.got.cif
#   From: 2010.05.17/outbox.cif.g08.bks.cpg/sg74_6_cif.got.tgz:10263.got - 2010.06.03 17:57:02.
