data_PCOD9536880
_publ_section_title
;
Structure prediction by ZEFSAII (Michael W. Deem and Ramdas Pophale) SiO2 
 PCOD9536880
Probable space group: I M M A
;
_chemical_formula_sum "Si O2"
_cell_formula_units_Z 52
_cell_length_a 13.811284
_cell_length_b 14.166870
_cell_length_c 14.375385
_cell_angle_alpha 90.000000
_cell_angle_beta 90.000000
_cell_angle_gamma 90.000000
_cell_volume 2812.726139
_symmetry_space_group_name_H-M "I M M A"
_symmetry_group_IT_number 74
_symmetry_cell_setting 'orthorhombic'
loop_
_space_group_symop_operation_xyz
x,y,z
-x,1/2-y,z
x,-y,-z
-x,1/2+y,-z
-x,-y,-z
x,1/2+y,-z
-x,y,z
x,1/2-y,z
1/2+x,1/2+y,1/2+z
1/2-x,-y,1/2+z
1/2+x,1/2-y,1/2-z
1/2-x,y,1/2-z
1/2-x,1/2-y,1/2-z
1/2+x,y,1/2-z
1/2-x,1/2+y,1/2+z
1/2+x,-y,1/2+z
loop_
_atom_site_type_symbol
_atom_site_label
_atom_site_fract_x
_atom_site_fract_y
_atom_site_fract_z
Si Si1 0.638442 0.250000 0.375013
Si Si2 0.663277 0.750000 0.976322
Si Si3 0.000000 0.598193 0.556254
Si Si4 0.000000 0.250000 0.952535
Si Si5 0.500000 0.602810 0.721186
Si Si6 0.655413 0.250000 0.809985
Si Si7 0.500000 0.382848 0.720794
O O1 0.752015 0.250000 0.398976
O O2 0.589636 0.250000 0.477163
O O3 0.592529 0.339617 0.319919
O O4 0.691032 0.750000 0.084401
O O5 0.594749 0.841122 0.967695
O O6 0.000000 0.500000 0.500000
O O7 0.000000 0.598259 0.667719
O O8 0.000000 0.335556 0.880644
O O9 0.500000 0.492726 0.699281
O O10 0.750000 0.250000 0.750000
O O11 0.590157 0.340584 0.780094
#
# Coordination Sequence:
#
# PCOD9536880 Si02
#       7
#     8   8   8   4   8   8   8
#     4  10  22  39  61  90 125 165 197 249 304 373
#     4  11  21  40  62  85 125 160 203 251 306 360
#     4  11  23  41  63  87 119 159 207 251 301 366
#     4   8  18  38  58  88 122 154 198 242 310 358
#     4  10  22  41  60  89 121 158 206 247 309 363
#     4  10  20  37  62  91 121 156 203 255 310 359
#     4  10  19  38  64  85 123 163 201 263 306 350
#
# _framework density 18.487401999999999
#
# number of rings (size 3 to 8) (size 9 to 14) (size 15 to 20)
#    0.000    2.154    0.000    7.385    0.000    4.923 
#   16.615    0.000    0.000    0.000    0.000    0.000 
#    0.000    0.000    0.000    0.000    0.000    0.000 
#
# Total GULP energy -144872.125908 kJ/mol
# GULP energy per Si atom -5572.004843 kJ/mol
# Density = 1.844532 g / cm^3
# Si number density = 18.487402 Si / 1000 Ang^3
#
#
#
# Elastic Constant Matrix: (Units=GPa)
#
#
# Indices 1 2 3 4 5 6 
#
# 1 134.7829 59.6107 37.4083 0.0000 0.0000 0.0000
# 2 59.6107 185.1440 62.8164 0.0000 0.0000 0.0000
# 3 37.4083 62.8164 156.7385 0.0000 0.0000 0.0000
# 4 0.0000 0.0000 0.0000 25.1511 0.0000 0.0000
# 5 0.0000 0.0000 0.0000 0.0000 30.6649 0.0000
# 6 0.0000 0.0000 0.0000 0.0000 0.0000 -9.8452
#
#
#
# Elastic Compliance Matrix: (Units=1/GPa)
#
#
# Indices 1 2 3 4 5 6 
#
# 1 0.008818 -0.002459 -0.001119 0.000000 0.000000 0.000000
# 2 -0.002459 0.006937 -0.002193 0.000000 0.000000 0.000000
# 3 -0.001119 -0.002193 0.007526 0.000000 0.000000 0.000000
# 4 0.000000 0.000000 0.000000 0.039760 0.000000 0.000000
# 5 0.000000 0.000000 0.000000 0.000000 0.032611 0.000000
# 6 0.000000 0.000000 0.000000 0.000000 0.000000 -0.101573
#
#
# Mechanical properties :
#
#
# Convention : Reuss Voigt Hill
#
# Bulk Modulus (GPa) = 85.19395 88.48179 86.83787
# Shear Modulus (GPa) = 524.44948 30.31617 277.38282
#
# Velocity S-wave (km/s) = 16.86106 4.05387 12.26232
# Velocity P-wave (km/s) = 20.62141 8.35921 15.73402
#
# Compressibility (1/GPa) = 0.01173792
#
# Stress axis : x y z
#
# Youngs Moduli (GPa) = 113.40978 144.15058 132.87142
#
# Poissons Ratio (x) = 0.35452 0.14866
# Poissons Ratio (y) = 0.27892 0.29142
# Poissons Ratio (z) = 0.12688 0.31616
#
# Static dielectric constant tensor:
#      x y z
#    x 1.658890 0.000000 0.000000 
#    y 0.000000 1.791740 0.000000 
#    z 0.000000 0.000000 1.666250 
# 
# From -- ./inp_files/31679.got.cif
#   From: 2010.05.17/outbox.cif.g08.bks.cpg/sg74_16_cif.got.tgz:31679.got - 2010.06.03 17:57:02.
