data_PCOD9536292
_publ_section_title
;
Structure prediction by ZEFSAII (Michael W. Deem and Ramdas Pophale) SiO2 
 PCOD9536292
Probable space group: I M M A
;
_chemical_formula_sum "Si O2"
_cell_formula_units_Z 88
_cell_length_a 21.167969
_cell_length_b 25.495227
_cell_length_c 8.945478
_cell_angle_alpha 90.000000
_cell_angle_beta 90.000000
_cell_angle_gamma 90.000000
_cell_volume 4827.715022
_symmetry_space_group_name_H-M "I M M A"
_symmetry_group_IT_number 74
_symmetry_cell_setting 'orthorhombic'
loop_
_space_group_symop_operation_xyz
x,y,z
-x,1/2-y,z
x,-y,-z
-x,1/2+y,-z
-x,-y,-z
x,1/2+y,-z
-x,y,z
x,1/2-y,z
1/2+x,1/2+y,1/2+z
1/2-x,-y,1/2+z
1/2+x,1/2-y,1/2-z
1/2-x,y,1/2-z
1/2-x,1/2-y,1/2-z
1/2+x,y,1/2-z
1/2-x,1/2+y,1/2+z
1/2+x,-y,1/2+z
loop_
_atom_site_type_symbol
_atom_site_label
_atom_site_fract_x
_atom_site_fract_y
_atom_site_fract_z
Si Si1 0.573902 0.840697 0.912285
Si Si2 0.932756 0.750000 0.149037
Si Si3 0.923609 0.942940 0.072783
Si Si4 0.387676 0.164017 0.431425
Si Si5 0.719962 0.250000 0.414952
Si Si6 0.923720 0.447916 0.579974
Si Si7 0.349029 0.750000 0.071800
O O1 0.500000 0.830165 0.944344
O O2 0.584611 0.837048 0.735316
O O3 0.590132 0.897483 0.979444
O O4 0.618872 0.799641 0.992741
O O5 0.873266 0.750000 0.258833
O O6 0.000000 0.750000 0.232210
O O7 0.929036 0.699041 0.044601
O O8 0.904768 0.943009 0.247285
O O9 0.000000 0.933667 0.061170
O O10 0.888203 0.895296 0.990863
O O11 0.911834 0.000000 0.000000
O O12 0.323154 0.197860 0.427564
O O13 0.750000 0.250000 0.250000
O O14 0.775147 0.250000 0.537438
O O15 0.898770 0.500000 0.500000
O O16 0.000000 0.452144 0.584912
#
# Coordination Sequence:
#
# PCOD9536292 Si02
#       7
#    16   8  16  16   8  16   8
#     4  11  20  32  55  84 114 149 191 241 303 362
#     4  11  22  36  56  89 125 149 187 249 312 368
#     4  10  19  33  55  88 126 156 190 241 310 377
#     4  11  22  36  59  83 118 160 196 247 295 362
#     4  11  23  45  60  82 112 162 218 252 291 345
#     4   9  18  32  51  80 119 156 186 223 283 366
#     4  12  23  38  58  81 112 152 197 243 300 346
#
# _framework density 18.228086000000001
#
# number of rings (size 3 to 8) (size 9 to 14) (size 15 to 20)
#    0.000    1.455    1.818    5.182    0.000    5.818 
#    0.000    0.000    0.000    1.091    4.727    0.000 
#    0.000    0.000    0.000    0.000    0.000    0.000 
#
# Total GULP energy -245641.164461 kJ/mol
# GULP energy per Si atom -5582.753738 kJ/mol
# Density = 1.818660 g / cm^3
# Si number density = 18.228086 Si / 1000 Ang^3
#
#
#
# Elastic Constant Matrix: (Units=GPa)
#
#
# Indices 1 2 3 4 5 6 
#
# 1 88.0358 46.8151 26.8616 0.0000 0.0000 0.0000
# 2 46.8151 137.9503 45.2206 0.0000 0.0000 0.0000
# 3 26.8616 45.2206 111.0216 0.0000 0.0000 0.0000
# 4 0.0000 0.0000 0.0000 36.0164 0.0000 0.0000
# 5 0.0000 0.0000 0.0000 0.0000 26.1057 0.0000
# 6 0.0000 0.0000 0.0000 0.0000 0.0000 13.2228
#
#
#
# Elastic Compliance Matrix: (Units=1/GPa)
#
#
# Indices 1 2 3 4 5 6 
#
# 1 0.014130 -0.004241 -0.001691 0.000000 0.000000 0.000000
# 2 -0.004241 0.009639 -0.002900 0.000000 0.000000 0.000000
# 3 -0.001691 -0.002900 0.010598 0.000000 0.000000 0.000000
# 4 0.000000 0.000000 0.000000 0.027765 0.000000 0.000000
# 5 0.000000 0.000000 0.000000 0.000000 0.038306 0.000000
# 6 0.000000 0.000000 0.000000 0.000000 0.000000 0.075627
#
#
# Mechanical properties :
#
#
# Convention : Reuss Voigt Hill
#
# Bulk Modulus (GPa) = 59.87204 63.86693 61.86949
# Shear Modulus (GPa) = 25.08823 29.60965 27.34894
#
# Velocity S-wave (km/s) = 3.71394 4.03475 3.87767
# Velocity P-wave (km/s) = 7.16300 7.53786 7.35282
#
# Compressibility (1/GPa) = 0.01670229
#
# Stress axis : x y z
#
# Youngs Moduli (GPa) = 70.77004 103.74770 94.36017
#
# Poissons Ratio (x) = 0.43997 0.15961
# Poissons Ratio (y) = 0.30012 0.27364
# Poissons Ratio (z) = 0.11971 0.30086
#
# Static dielectric constant tensor:
#      x y z
#    x 1.623610 0.000000 0.000000 
#    y 0.000000 1.607850 0.000000 
#    z 0.000000 0.000000 1.639230 
# 
# From -- ./inp_files/12498.got.cif
#   From: 2010.05.17/outbox.cif.g08.bks.cpg/sg74_7_cif.got.tgz:12498.got - 2010.06.03 17:57:02.
