data_PCOD9536594
_publ_section_title
;
Structure prediction by ZEFSAII (Michael W. Deem and Ramdas Pophale) SiO2 
 PCOD9536594
Probable space group: I M M A
;
_chemical_formula_sum "Si O2"
_cell_formula_units_Z 68
_cell_length_a 7.662983
_cell_length_b 16.960261
_cell_length_c 24.970619
_cell_angle_alpha 90.000000
_cell_angle_beta 90.000000
_cell_angle_gamma 90.000000
_cell_volume 3245.336256
_symmetry_space_group_name_H-M "I M M A"
_symmetry_group_IT_number 74
_symmetry_cell_setting 'orthorhombic'
loop_
_space_group_symop_operation_xyz
x,y,z
-x,1/2-y,z
x,-y,-z
-x,1/2+y,-z
-x,-y,-z
x,1/2+y,-z
-x,y,z
x,1/2-y,z
1/2+x,1/2+y,1/2+z
1/2-x,-y,1/2+z
1/2+x,1/2-y,1/2-z
1/2-x,y,1/2-z
1/2-x,1/2-y,1/2-z
1/2+x,y,1/2-z
1/2-x,1/2+y,1/2+z
1/2+x,-y,1/2+z
loop_
_atom_site_type_symbol
_atom_site_label
_atom_site_fract_x
_atom_site_fract_y
_atom_site_fract_z
Si Si1 0.287772 0.163167 0.012364
Si Si2 0.305965 0.363891 0.610787
Si Si3 0.500000 0.250000 0.853617
Si Si4 0.699789 0.039596 0.098395
Si Si5 0.791655 0.160114 0.188209
O O1 0.500000 0.160782 0.010825
O O2 0.238229 0.250000 0.034026
O O3 0.227070 0.090788 0.048854
O O4 0.221930 0.156893 0.951948
O O5 0.500000 0.340923 0.627868
O O6 0.290482 0.458317 0.612772
O O7 0.153981 0.318603 0.641801
O O8 0.500000 0.018872 0.084612
O O9 0.705771 0.098891 0.148202
O O10 0.732604 0.250000 0.177730
O O11 0.750000 0.142561 0.250000
O O12 0.000000 0.156720 0.180662
#
# Coordination Sequence:
#
# PCOD9536594 Si02
#       5
#    16  16   4  16  16
#     4  10  19  35  54  79 119 161 198 238 287 345
#     4  12  23  38  60  83 116 156 201 247 294 349
#     4  12  22  44  58  82 116 156 202 248 294 362
#     4  11  22  36  57  86 120 154 195 244 296 346
#     4  10  21  38  59  85 120 156 197 240 289 353
#
# _framework density 20.953144999999999
#
# number of rings (size 3 to 8) (size 9 to 14) (size 15 to 20)
#    0.000    1.176    3.529    3.176    0.000    7.059 
#    0.000    0.000    0.000    0.000    0.000    0.824 
#    0.000    0.000    0.000    0.000    0.000    0.000 
#
# Total GULP energy -189580.620283 kJ/mol
# GULP energy per Si atom -5575.900597 kJ/mol
# Density = 2.090546 g / cm^3
# Si number density = 20.953145 Si / 1000 Ang^3
#
#
#
# Elastic Constant Matrix: (Units=GPa)
#
#
# Indices 1 2 3 4 5 6 
#
# 1 120.5964 19.8961 -16.7488 0.0000 0.0000 0.0000
# 2 19.8961 105.4955 1.6727 0.0000 0.0000 0.0000
# 3 -16.7488 1.6727 15.9157 0.0000 0.0000 0.0000
# 4 0.0000 0.0000 0.0000 52.6264 0.0000 0.0000
# 5 0.0000 0.0000 0.0000 0.0000 10.6305 0.0000
# 6 0.0000 0.0000 0.0000 0.0000 0.0000 14.0069
#
#
#
# Elastic Compliance Matrix: (Units=1/GPa)
#
#
# Indices 1 2 3 4 5 6 
#
# 1 0.010150 -0.002087 0.010901 0.000000 0.000000 0.000000
# 2 -0.002087 0.009924 -0.003239 0.000000 0.000000 0.000000
# 3 0.010901 -0.003239 0.074643 0.000000 0.000000 0.000000
# 4 0.000000 0.000000 0.000000 0.019002 0.000000 0.000000
# 5 0.000000 0.000000 0.000000 0.000000 0.094069 0.000000
# 6 0.000000 0.000000 0.000000 0.000000 0.000000 0.071394
#
#
# Mechanical properties :
#
#
# Convention : Reuss Voigt Hill
#
# Bulk Modulus (GPa) = 9.44585 27.96083 18.70334
# Shear Modulus (GPa) = 16.48415 31.26527 23.87471
#
# Velocity S-wave (km/s) = 2.80789 3.86703 3.37921
# Velocity P-wave (km/s) = 3.87688 5.77165 4.91641
#
# Compressibility (1/GPa) = 0.10586659
#
# Stress axis : x y z
#
# Youngs Moduli (GPa) = 98.51781 100.76502 13.39710
#
# Poissons Ratio (x) = 0.21031 -0.14604
# Poissons Ratio (y) = 0.20562 0.04340
# Poissons Ratio (z) = -1.07395 0.32642
#
# Static dielectric constant tensor:
#      x y z
#    x 1.807160 0.000000 0.000000 
#    y 0.000000 1.761080 0.000000 
#    z 0.000000 0.000000 1.718640 
# 
# From -- ./inp_files/63525.got.cif
#   From: 2010.05.17/outbox.cif.g08.bks.cpg/sg74_32_cif.got.tgz:63525.got - 2010.06.03 17:57:02.
