data_PCOD9536406
_publ_section_title
;
Structure prediction by ZEFSAII (Michael W. Deem and Ramdas Pophale) SiO2 
 PCOD9536406
Probable space group: I M M A
;
_chemical_formula_sum "Si O2"
_cell_formula_units_Z 116
_cell_length_a 9.497861
_cell_length_b 22.698503
_cell_length_c 27.689921
_cell_angle_alpha 90.000000
_cell_angle_beta 90.000000
_cell_angle_gamma 90.000000
_cell_volume 5969.593268
_symmetry_space_group_name_H-M "I M M A"
_symmetry_group_IT_number 74
_symmetry_cell_setting 'orthorhombic'
loop_
_space_group_symop_operation_xyz
x,y,z
-x,1/2-y,z
x,-y,-z
-x,1/2+y,-z
-x,-y,-z
x,1/2+y,-z
-x,y,z
x,1/2-y,z
1/2+x,1/2+y,1/2+z
1/2-x,-y,1/2+z
1/2+x,1/2-y,1/2-z
1/2-x,y,1/2-z
1/2-x,1/2-y,1/2-z
1/2+x,y,1/2-z
1/2-x,1/2+y,1/2+z
1/2+x,-y,1/2+z
loop_
_atom_site_type_symbol
_atom_site_label
_atom_site_fract_x
_atom_site_fract_y
_atom_site_fract_z
Si Si1 0.750000 0.250000 0.250000
Si Si2 0.338701 0.512106 0.388952
Si Si3 0.164753 0.356581 0.904911
Si Si4 0.664029 0.821135 0.296849
Si Si5 0.163390 0.818027 0.494022
Si Si6 0.333262 0.381867 0.422942
Si Si7 0.161848 0.013600 0.296597
Si Si8 0.336587 0.149323 0.172207
O O1 0.712007 0.301448 0.209725
O O2 0.500000 0.508814 0.370107
O O3 0.326224 0.573764 0.416171
O O4 0.315569 0.452636 0.419054
O O5 0.232451 0.511710 0.344504
O O6 0.205639 0.346541 0.849014
O O7 0.264694 0.323399 0.941758
O O8 0.000000 0.338414 0.909721
O O9 0.500000 0.835519 0.289699
O O10 0.677406 0.750000 0.300082
O O11 0.750000 0.841174 0.250000
O O12 0.168895 0.750000 0.509755
O O13 0.253055 0.856394 0.531234
O O14 0.000000 0.836319 0.492507
O O15 0.500000 0.369090 0.424531
O O16 0.262763 0.354636 0.374710
O O17 0.250000 0.996493 0.250000
O O18 0.168720 0.084668 0.303313
O O19 0.000000 0.996350 0.291951
O O20 0.500000 0.159938 0.158215
#
# Coordination Sequence:
#
# PCOD9536406 Si02
#       8
#     4  16  16  16  16  16  16  16
#     4  12  22  36  56  86 118 156 200 250 306 356
#     4   9  20  38  59  86 116 149 190 242 297 350
#     4  10  21  39  63  90 121 153 194 242 290 348
#     4   9  18  33  55  84 118 156 192 230 278 335
#     4  11  25  43  63  88 119 154 194 241 294 348
#     4  10  22  41  64  87 116 154 197 244 298 359
#     4  10  19  34  54  77 109 152 196 240 290 347
#     4  10  22  37  55  82 116 153 196 247 300 353
#
# _framework density 19.431809000000001
#
# number of rings (size 3 to 8) (size 9 to 14) (size 15 to 20)
#    0.000    2.069    0.690    1.862    0.966    6.069 
#    0.000    5.517    0.000    0.000    0.000    0.000 
#    0.000    0.000    0.000    0.000    0.000    0.000 
#
# Total GULP energy -323378.157329 kJ/mol
# GULP energy per Si atom -5575.485471 kJ/mol
# Density = 1.938758 g / cm^3
# Si number density = 19.431809 Si / 1000 Ang^3
#
#
#
# Elastic Constant Matrix: (Units=GPa)
#
#
# Indices 1 2 3 4 5 6 
#
# 1 113.2734 35.3021 73.1463 0.0000 0.0000 0.0000
# 2 35.3021 46.5171 25.2759 0.0000 0.0000 0.0000
# 3 73.1463 25.2759 97.1653 0.0000 0.0000 0.0000
# 4 0.0000 0.0000 0.0000 -4.7653 0.0000 0.0000
# 5 0.0000 0.0000 0.0000 0.0000 32.5125 0.0000
# 6 0.0000 0.0000 0.0000 0.0000 0.0000 16.0884
#
#
#
# Elastic Compliance Matrix: (Units=1/GPa)
#
#
# Indices 1 2 3 4 5 6 
#
# 1 0.019388 -0.007900 -0.012541 0.000000 0.000000 0.000000
# 2 -0.007900 0.028255 -0.001403 0.000000 0.000000 0.000000
# 3 -0.012541 -0.001403 0.020097 0.000000 0.000000 0.000000
# 4 0.000000 0.000000 0.000000 -0.209850 0.000000 0.000000
# 5 0.000000 0.000000 0.000000 0.000000 0.030757 0.000000
# 6 0.000000 0.000000 0.000000 0.000000 0.000000 0.062156
#
#
# Mechanical properties :
#
#
# Convention : Reuss Voigt Hill
#
# Bulk Modulus (GPa) = 41.57354 58.26714 49.92034
# Shear Modulus (GPa) = 1992.72307 16.98258 1004.85283
#
# Velocity S-wave (km/s) = 32.05810 2.95948 22.76489
# Velocity P-wave (km/s) = 37.30599 6.45977 26.77186
#
# Compressibility (1/GPa) = 0.02405376
#
# Stress axis : x y z
#
# Youngs Moduli (GPa) = 51.57780 35.39199 49.75801
#
# Poissons Ratio (x) = 0.27959 0.62399
# Poissons Ratio (y) = 0.40745 0.06982
# Poissons Ratio (z) = 0.64681 0.04966
#
# Static dielectric constant tensor:
#      x y z
#    x 1.664350 0.000000 0.000000 
#    y 0.000000 1.691780 0.000000 
#    z 0.000000 0.000000 1.647070 
# 
# From -- ./inp_files/64859.got.cif
#   From: 2010.05.17/outbox.cif.g08.bks.cpg/sg74_33_cif.got.tgz:64859.got - 2010.06.03 17:57:02.
