data_PCOD9536090
_publ_section_title
;
Structure prediction by ZEFSAII (Michael W. Deem and Ramdas Pophale) SiO2 
 PCOD9536090
Probable space group: I M M A
;
_chemical_formula_sum "Si O2"
_cell_formula_units_Z 80
_cell_length_a 16.040265
_cell_length_b 9.661516
_cell_length_c 29.000688
_cell_angle_alpha 90.000000
_cell_angle_beta 90.000000
_cell_angle_gamma 90.000000
_cell_volume 4494.331653
_symmetry_space_group_name_H-M "I M M A"
_symmetry_group_IT_number 74
_symmetry_cell_setting 'orthorhombic'
loop_
_space_group_symop_operation_xyz
x,y,z
-x,1/2-y,z
x,-y,-z
-x,1/2+y,-z
-x,-y,-z
x,1/2+y,-z
-x,y,z
x,1/2-y,z
1/2+x,1/2+y,1/2+z
1/2-x,-y,1/2+z
1/2+x,1/2-y,1/2-z
1/2-x,y,1/2-z
1/2-x,1/2-y,1/2-z
1/2+x,y,1/2-z
1/2-x,1/2+y,1/2+z
1/2+x,-y,1/2+z
loop_
_atom_site_type_symbol
_atom_site_label
_atom_site_fract_x
_atom_site_fract_y
_atom_site_fract_z
Si Si1 0.096162 0.085492 0.365567
Si Si2 0.272240 0.410074 0.395107
Si Si3 0.901553 0.401200 0.724190
Si Si4 0.322846 0.399788 0.288388
Si Si5 0.595762 0.915186 0.452139
O O1 0.100190 0.250000 0.355352
O O2 0.173358 0.056968 0.399871
O O3 0.000000 0.055336 0.380129
O O4 0.114915 0.999850 0.319313
O O5 0.286163 0.250000 0.410391
O O6 0.290783 0.412834 0.340233
O O7 0.334746 0.514860 0.419820
O O8 0.861814 0.250000 0.718564
O O9 0.876907 0.472725 0.771721
O O10 0.000000 0.386972 0.724161
O O11 0.366619 0.250000 0.284583
O O12 0.250000 0.398129 0.250000
O O13 0.500000 0.932167 0.434532
O O14 0.609504 0.750000 0.458409
O O15 0.599976 0.000000 0.500000
#
# Coordination Sequence:
#
# PCOD9536090 Si02
#       5
#    16  16  16  16  16
#     4   9  17  32  53  75 104 145 188 225 263 316
#     4  10  20  34  56  84 111 143 186 232 279 333
#     4  10  20  31  44  66  98 138 183 229 275 320
#     4  10  19  33  49  70 103 143 187 228 270 323
#     4  10  22  41  64  88 114 144 179 225 284 346
#
# _framework density 17.800201000000001
#
# number of rings (size 3 to 8) (size 9 to 14) (size 15 to 20)
#    0.000    2.200    2.000    1.200    0.000    5.200 
#    0.000    4.000    0.000    0.600    0.000    0.000 
#    0.000    0.000    0.000    0.000    0.000    0.000 
#
# Total GULP energy -222696.800078 kJ/mol
# GULP energy per Si atom -5567.420002 kJ/mol
# Density = 1.775969 g / cm^3
# Si number density = 17.800201 Si / 1000 Ang^3
#
#
#
# Elastic Constant Matrix: (Units=GPa)
#
#
# Indices 1 2 3 4 5 6 
#
# 1 107.1107 73.4611 41.0904 0.0000 0.0000 0.0000
# 2 73.4611 100.8777 35.0152 0.0000 0.0000 0.0000
# 3 41.0904 35.0152 45.8405 0.0000 0.0000 0.0000
# 4 0.0000 0.0000 0.0000 257.1483 0.0000 0.0000
# 5 0.0000 0.0000 0.0000 0.0000 28.4126 0.0000
# 6 0.0000 0.0000 0.0000 0.0000 0.0000 18.1790
#
#
#
# Elastic Compliance Matrix: (Units=1/GPa)
#
#
# Indices 1 2 3 4 5 6 
#
# 1 0.021552 -0.012232 -0.009975 0.000000 0.000000 0.000000
# 2 -0.012232 0.020432 -0.004642 0.000000 0.000000 0.000000
# 3 -0.009975 -0.004642 0.034303 0.000000 0.000000 0.000000
# 4 0.000000 0.000000 0.000000 0.003889 0.000000 0.000000
# 5 0.000000 0.000000 0.000000 0.000000 0.035196 0.000000
# 6 0.000000 0.000000 0.000000 0.000000 0.000000 0.055008
#
#
# Mechanical properties :
#
#
# Convention : Reuss Voigt Hill
#
# Bulk Modulus (GPa) = 44.27330 61.44025 52.85678
# Shear Modulus (GPa) = 21.58808 67.69880 44.64344
#
# Velocity S-wave (km/s) = 3.48631 6.17375 5.01346
# Velocity P-wave (km/s) = 6.41343 9.24185 7.95437
#
# Compressibility (1/GPa) = 0.02258698
#
# Stress axis : x y z
#
# Youngs Moduli (GPa) = 46.39843 48.94235 29.15235
#
# Poissons Ratio (x) = 0.59868 0.29081
# Poissons Ratio (y) = 0.56756 0.13533
# Poissons Ratio (z) = 0.46285 0.22721
#
# Static dielectric constant tensor:
#      x y z
#    x 1.668270 0.000000 0.000000 
#    y 0.000000 1.673190 0.000000 
#    z 0.000000 0.000000 1.576780 
# 
# From -- ./inp_files/63900.got.cif
#   From: 2010.05.17/outbox.cif.g08.bks.cpg/sg74_32_cif.got.tgz:63900.got - 2010.06.03 17:57:02.
