data_PCOD9536841
_publ_section_title
;
Structure prediction by ZEFSAII (Michael W. Deem and Ramdas Pophale) SiO2 
 PCOD9536841
Probable space group: I M M A
;
_chemical_formula_sum "Si O2"
_cell_formula_units_Z 88
_cell_length_a 18.478087
_cell_length_b 14.613778
_cell_length_c 16.920725
_cell_angle_alpha 90.000000
_cell_angle_beta 90.000000
_cell_angle_gamma 90.000000
_cell_volume 4569.182244
_symmetry_space_group_name_H-M "I M M A"
_symmetry_group_IT_number 74
_symmetry_cell_setting 'orthorhombic'
loop_
_space_group_symop_operation_xyz
x,y,z
-x,1/2-y,z
x,-y,-z
-x,1/2+y,-z
-x,-y,-z
x,1/2+y,-z
-x,y,z
x,1/2-y,z
1/2+x,1/2+y,1/2+z
1/2-x,-y,1/2+z
1/2+x,1/2-y,1/2-z
1/2-x,y,1/2-z
1/2-x,1/2-y,1/2-z
1/2+x,y,1/2-z
1/2-x,1/2+y,1/2+z
1/2+x,-y,1/2+z
loop_
_atom_site_type_symbol
_atom_site_label
_atom_site_fract_x
_atom_site_fract_y
_atom_site_fract_z
Si Si1 0.730607 0.000000 0.500000
Si Si2 0.585215 0.650850 0.879659
Si Si3 0.615996 0.008486 0.634642
Si Si4 0.088155 0.038491 0.695808
Si Si5 0.000000 0.355710 0.940294
Si Si6 0.650098 0.644864 0.048860
Si Si7 0.000000 0.854804 0.869907
O O1 0.681059 0.982791 0.576910
O O2 0.781657 0.915909 0.476204
O O3 0.500000 0.653801 0.863731
O O4 0.617133 0.750000 0.857450
O O5 0.612003 0.561493 0.835409
O O6 0.597108 0.638595 0.973240
O O7 0.568754 0.917118 0.652158
O O8 0.627535 0.052408 0.720635
O O9 0.567737 0.083591 0.588136
O O10 0.112012 0.107131 0.627164
O O11 0.000000 0.042419 0.706405
O O12 0.000000 0.250000 0.911338
O O13 0.000000 0.352079 0.034871
O O14 0.670728 0.750000 0.059548
O O15 0.000000 0.750000 0.840092
#
# Coordination Sequence:
#
# PCOD9536841 Si02
#       7
#     8  16  16  16   8  16   8
#     4  12  24  43  63  80 130 176 214 244 300 386
#     4   9  18  36  63  91 120 154 201 261 312 360
#     4  11  22  39  62  93 127 163 205 259 320 375
#     4  11  21  38  65  96 123 155 204 271 324 363
#     4  10  19  37  62  91 121 156 212 266 313 368
#     4  11  24  42  62  89 124 169 215 252 306 379
#     4  10  19  37  64  93 121 156 210 265 314 368
#
# _framework density 19.259464000000001
#
# number of rings (size 3 to 8) (size 9 to 14) (size 15 to 20)
#    0.000    1.455    5.455    1.091    0.000    6.182 
#    0.000    0.909    0.000    2.182    0.000    0.000 
#    0.000    0.000    0.000    0.000    0.000    0.000 
#
# Total GULP energy -245483.169651 kJ/mol
# GULP energy per Si atom -5579.162947 kJ/mol
# Density = 1.921563 g / cm^3
# Si number density = 19.259464 Si / 1000 Ang^3
#
#
#
# Elastic Constant Matrix: (Units=GPa)
#
#
# Indices 1 2 3 4 5 6 
#
# 1 42.9849 28.3449 17.8235 0.0000 0.0000 0.0000
# 2 28.3449 111.9877 22.5087 0.0000 0.0000 0.0000
# 3 17.8235 22.5087 100.4814 0.0000 0.0000 0.0000
# 4 0.0000 0.0000 0.0000 14.3595 0.0000 0.0000
# 5 0.0000 0.0000 0.0000 0.0000 71.5526 0.0000
# 6 0.0000 0.0000 0.0000 0.0000 0.0000 6.3437
#
#
#
# Elastic Compliance Matrix: (Units=1/GPa)
#
#
# Indices 1 2 3 4 5 6 
#
# 1 0.029173 -0.006643 -0.003687 0.000000 0.000000 0.000000
# 2 -0.006643 0.010863 -0.001255 0.000000 0.000000 0.000000
# 3 -0.003687 -0.001255 0.010887 0.000000 0.000000 0.000000
# 4 0.000000 0.000000 0.000000 0.069640 0.000000 0.000000
# 5 0.000000 0.000000 0.000000 0.000000 0.013976 0.000000
# 6 0.000000 0.000000 0.000000 0.000000 0.000000 0.157637
#
#
# Mechanical properties :
#
#
# Convention : Reuss Voigt Hill
#
# Bulk Modulus (GPa) = 36.03080 43.64534 39.83807
# Shear Modulus (GPa) = 15.40369 30.90294 23.15332
#
# Velocity S-wave (km/s) = 2.83114 4.01004 3.47101
# Velocity P-wave (km/s) = 5.42548 6.64466 6.06578
#
# Compressibility (1/GPa) = 0.02775403
#
# Stress axis : x y z
#
# Youngs Moduli (GPa) = 34.27812 92.05388 91.85098
#
# Poissons Ratio (x) = 0.61151 0.33863
# Poissons Ratio (y) = 0.22771 0.11528
# Poissons Ratio (z) = 0.12637 0.11554
#
# Static dielectric constant tensor:
#      x y z
#    x 1.665760 0.000000 0.000000 
#    y 0.000000 1.695540 0.000000 
#    z 0.000000 0.000000 1.686170 
# 
# From -- ./inp_files/43998.got.cif
#   From: 2010.05.17/outbox.cif.g08.bks.cpg/sg74_22_cif.got.tgz:43998.got - 2010.06.03 17:57:02.
