data_PCOD9536921
_publ_section_title
;
Structure prediction by ZEFSAII (Michael W. Deem and Ramdas Pophale) SiO2 
 PCOD9536921
Probable space group: I M M A
;
_chemical_formula_sum "Si O2"
_cell_formula_units_Z 120
_cell_length_a 21.368645
_cell_length_b 28.852484
_cell_length_c 12.177866
_cell_angle_alpha 90.000000
_cell_angle_beta 90.000000
_cell_angle_gamma 90.000000
_cell_volume 7508.123090
_symmetry_space_group_name_H-M "I M M A"
_symmetry_group_IT_number 74
_symmetry_cell_setting 'orthorhombic'
loop_
_space_group_symop_operation_xyz
x,y,z
-x,1/2-y,z
x,-y,-z
-x,1/2+y,-z
-x,-y,-z
x,1/2+y,-z
-x,y,z
x,1/2-y,z
1/2+x,1/2+y,1/2+z
1/2-x,-y,1/2+z
1/2+x,1/2-y,1/2-z
1/2-x,y,1/2-z
1/2-x,1/2-y,1/2-z
1/2+x,y,1/2-z
1/2-x,1/2+y,1/2+z
1/2+x,-y,1/2+z
loop_
_atom_site_type_symbol
_atom_site_label
_atom_site_fract_x
_atom_site_fract_y
_atom_site_fract_z
Si Si1 0.572827 0.632979 0.754368
Si Si2 0.232487 0.374790 0.504639
Si Si3 0.357875 0.531405 0.345737
Si Si4 0.810906 0.304807 0.327029
Si Si5 0.250000 0.096566 0.750000
Si Si6 0.352134 0.428439 0.417435
Si Si7 0.611582 0.069426 0.049876
Si Si8 0.432032 0.981005 0.147722
O O1 0.500000 0.646975 0.736478
O O2 0.626573 0.672115 0.774077
O O3 0.598243 0.599191 0.657262
O O4 0.577524 0.603557 0.866748
O O5 0.207175 0.329198 0.442663
O O6 0.240032 0.374286 0.637158
O O7 0.294341 0.394213 0.443947
O O8 0.179409 0.412455 0.479549
O O9 0.307453 0.562564 0.280998
O O10 0.335347 0.478070 0.361439
O O11 0.372808 0.554601 0.462098
O O12 0.419154 0.531101 0.271403
O O13 0.819980 0.250000 0.339217
O O14 0.750000 0.312791 0.250000
O O15 0.616224 0.020178 0.110568
O O16 0.575719 0.060834 0.936352
O O17 0.500000 0.002363 0.132622
#
# Coordination Sequence:
#
# PCOD9536921 Si02
#       8
#    16  16  16  16   8  16  16  16
#     4  11  21  35  55  78 108 139 173 213 259 319
#     4  10  20  35  55  76 104 133 173 221 269 318
#     4  10  21  31  47  70 106 145 183 224 251 296
#     4  10  21  38  60  84 107 131 162 212 276 330
#     4  10  20  34  51  76 102 136 181 220 264 302
#     4  10  21  33  48  76 106 145 183 216 258 300
#     4  10  20  30  48  71  99 139 176 219 257 302
#     4  11  20  31  44  66 100 142 186 222 256 301
#
# _framework density 15.982689000000001
#
# number of rings (size 3 to 8) (size 9 to 14) (size 15 to 20)
#    0.000    1.733    4.000    1.600    1.867    1.867 
#    0.000    1.667    0.000    0.000    0.000    0.000 
#    0.000    0.000    0.000    0.000    0.000    0.000 
#
# Total GULP energy -334016.519881 kJ/mol
# GULP energy per Si atom -5566.941998 kJ/mol
# Density = 1.594631 g / cm^3
# Si number density = 15.982689 Si / 1000 Ang^3
#
#
#
# Elastic Constant Matrix: (Units=GPa)
#
#
# Indices 1 2 3 4 5 6 
#
# 1 84.5736 39.6272 38.8532 0.0000 0.0000 0.0000
# 2 39.6272 86.6276 45.9698 0.0000 0.0000 0.0000
# 3 38.8532 45.9698 94.3866 0.0000 0.0000 0.0000
# 4 0.0000 0.0000 0.0000 15.6335 0.0000 0.0000
# 5 0.0000 0.0000 0.0000 0.0000 2.1142 0.0000
# 6 0.0000 0.0000 0.0000 0.0000 0.0000 14.5484
#
#
#
# Elastic Compliance Matrix: (Units=1/GPa)
#
#
# Indices 1 2 3 4 5 6 
#
# 1 0.016153 -0.005206 -0.004114 0.000000 0.000000 0.000000
# 2 -0.005206 0.017245 -0.006256 0.000000 0.000000 0.000000
# 3 -0.004114 -0.006256 0.015335 0.000000 0.000000 0.000000
# 4 0.000000 0.000000 0.000000 0.063965 0.000000 0.000000
# 5 0.000000 0.000000 0.000000 0.000000 0.472997 0.000000
# 6 0.000000 0.000000 0.000000 0.000000 0.000000 0.068736
#
#
# Mechanical properties :
#
#
# Convention : Reuss Voigt Hill
#
# Bulk Modulus (GPa) = 56.87767 57.16535 57.02151
# Shear Modulus (GPa) = 7.23125 15.86839 11.54982
#
# Velocity S-wave (km/s) = 2.12938 3.15437 2.69112
# Velocity P-wave (km/s) = 6.45833 7.00795 6.73875
#
# Compressibility (1/GPa) = 0.01758159
#
# Stress axis : x y z
#
# Youngs Moduli (GPa) = 61.90705 57.98805 65.21071
#
# Poissons Ratio (x) = 0.30190 0.26826
# Poissons Ratio (y) = 0.32230 0.40795
# Poissons Ratio (z) = 0.25467 0.36276
#
# Static dielectric constant tensor:
#      x y z
#    x 1.560660 0.000000 0.000000 
#    y 0.000000 1.518220 0.000000 
#    z 0.000000 0.000000 1.564240 
# 
# From -- ./inp_files/24399.got.cif
#   From: 2010.05.17/outbox.cif.g08.bks.cpg/sg74_13_cif.got.tgz:24399.got - 2010.06.03 17:57:02.
