data_PCOD9536307
_publ_section_title
;
Structure prediction by ZEFSAII (Michael W. Deem and Ramdas Pophale) SiO2 
 PCOD9536307
Probable space group: I M M A
;
_chemical_formula_sum "Si O2"
_cell_formula_units_Z 112
_cell_length_a 14.747948
_cell_length_b 14.963435
_cell_length_c 25.380498
_cell_angle_alpha 90.000000
_cell_angle_beta 90.000000
_cell_angle_gamma 90.000000
_cell_volume 5600.967316
_symmetry_space_group_name_H-M "I M M A"
_symmetry_group_IT_number 74
_symmetry_cell_setting 'orthorhombic'
loop_
_space_group_symop_operation_xyz
x,y,z
-x,1/2-y,z
x,-y,-z
-x,1/2+y,-z
-x,-y,-z
x,1/2+y,-z
-x,y,z
x,1/2-y,z
1/2+x,1/2+y,1/2+z
1/2-x,-y,1/2+z
1/2+x,1/2-y,1/2-z
1/2-x,y,1/2-z
1/2-x,1/2-y,1/2-z
1/2+x,y,1/2-z
1/2-x,1/2+y,1/2+z
1/2+x,-y,1/2+z
loop_
_atom_site_type_symbol
_atom_site_label
_atom_site_fract_x
_atom_site_fract_y
_atom_site_fract_z
Si Si1 0.182361 0.651303 0.903314
Si Si2 0.312261 0.347781 0.198165
Si Si3 0.263387 0.098614 0.987960
Si Si4 0.605519 0.544078 0.409833
Si Si5 0.892406 0.960445 0.300080
Si Si6 0.389558 0.352574 0.697734
Si Si7 0.394028 0.150269 0.897956
O O1 0.137930 0.750000 0.901069
O O2 0.248568 0.644555 0.853144
O O3 0.120960 0.562468 0.903715
O O4 0.239815 0.645158 0.957289
O O5 0.358228 0.250000 0.195980
O O6 0.250000 0.348773 0.250000
O O7 0.373689 0.434819 0.201717
O O8 0.170536 0.081038 0.955526
O O9 0.333840 0.146216 0.949921
O O10 0.301323 0.000000 0.000000
O O11 0.500000 0.561645 0.421197
O O12 0.631389 0.594239 0.355719
O O13 0.857923 0.908028 0.248674
O O14 0.857332 0.918409 0.354496
O O15 0.000000 0.944964 0.301368
O O16 0.500000 0.349423 0.699990
O O17 0.357011 0.250000 0.697095
O O18 0.500000 0.131555 0.909870
O O19 0.389998 0.250000 0.874674
#
# Coordination Sequence:
#
# PCOD9536307 Si02
#       7
#    16  16  16  16  16  16  16
#     4  10  21  37  57  80 109 147 187 229 279 331
#     4  10  21  38  58  79 107 144 185 230 280 333
#     4  10  21  37  57  80 113 151 188 233 281 331
#     4  10  21  37  57  83 115 150 188 231 279 331
#     4  10  19  33  56  84 112 143 182 230 282 333
#     4   9  18  33  53  79 112 147 182 224 276 333
#     4  10  21  37  58  85 116 150 188 230 278 332
#
# _framework density 19.996545999999999
#
# number of rings (size 3 to 8) (size 9 to 14) (size 15 to 20)
#    0.000    2.143    0.000    3.429    0.000    6.286 
#    0.000    0.714    0.000    9.429    0.000    0.000 
#    0.000    0.000    0.000    0.000    0.000    0.000 
#
# Total GULP energy -312660.471598 kJ/mol
# GULP energy per Si atom -5583.222707 kJ/mol
# Density = 1.995103 g / cm^3
# Si number density = 19.996546 Si / 1000 Ang^3
#
#
#
# Elastic Constant Matrix: (Units=GPa)
#
#
# Indices 1 2 3 4 5 6 
#
# 1 42.0071 22.8345 28.6277 0.0000 0.0000 0.0000
# 2 22.8345 123.9399 47.0921 0.0000 0.0000 0.0000
# 3 28.6277 47.0921 139.7556 0.0000 0.0000 0.0000
# 4 0.0000 0.0000 0.0000 43.0667 0.0000 0.0000
# 5 0.0000 0.0000 0.0000 0.0000 13.5662 0.0000
# 6 0.0000 0.0000 0.0000 0.0000 0.0000 68.8443
#
#
#
# Elastic Compliance Matrix: (Units=1/GPa)
#
#
# Indices 1 2 3 4 5 6 
#
# 1 0.028957 -0.003534 -0.004741 0.000000 0.000000 0.000000
# 2 -0.003534 0.009684 -0.002539 0.000000 0.000000 0.000000
# 3 -0.004741 -0.002539 0.008982 0.000000 0.000000 0.000000
# 4 0.000000 0.000000 0.000000 0.023220 0.000000 0.000000
# 5 0.000000 0.000000 0.000000 0.000000 0.073713 0.000000
# 6 0.000000 0.000000 0.000000 0.000000 0.000000 0.014526
#
#
# Mechanical properties :
#
#
# Convention : Reuss Voigt Hill
#
# Bulk Modulus (GPa) = 38.46779 55.86791 47.16785
# Shear Modulus (GPa) = 26.40260 38.90530 32.65395
#
# Velocity S-wave (km/s) = 3.63761 4.41568 4.04540
# Velocity P-wave (km/s) = 6.07635 7.34827 6.74237
#
# Compressibility (1/GPa) = 0.02599577
#
# Stress axis : x y z
#
# Youngs Moduli (GPa) = 34.53360 103.25950 111.33175
#
# Poissons Ratio (x) = 0.36489 0.52782
# Poissons Ratio (y) = 0.12203 0.28272
# Poissons Ratio (z) = 0.16372 0.26222
#
# Static dielectric constant tensor:
#      x y z
#    x 1.698290 0.000000 0.000000 
#    y 0.000000 1.738760 0.000000 
#    z 0.000000 0.000000 1.698680 
# 
# From -- ./inp_files/60130.got.cif
#   From: 2010.05.17/outbox.cif.g08.bks.cpg/sg74_31_cif.got.tgz:60130.got - 2010.06.03 17:57:02.
