data_PCOD9536296
_publ_section_title
;
Structure prediction by ZEFSAII (Michael W. Deem and Ramdas Pophale) SiO2 
 PCOD9536296
Probable space group: I M M A
;
_chemical_formula_sum "Si O2"
_cell_formula_units_Z 64
_cell_length_a 15.367138
_cell_length_b 22.130936
_cell_length_c 8.904295
_cell_angle_alpha 90.000000
_cell_angle_beta 90.000000
_cell_angle_gamma 90.000000
_cell_volume 3028.254096
_symmetry_space_group_name_H-M "I M M A"
_symmetry_group_IT_number 74
_symmetry_cell_setting 'orthorhombic'
loop_
_space_group_symop_operation_xyz
x,y,z
-x,1/2-y,z
x,-y,-z
-x,1/2+y,-z
-x,-y,-z
x,1/2+y,-z
-x,y,z
x,1/2-y,z
1/2+x,1/2+y,1/2+z
1/2-x,-y,1/2+z
1/2+x,1/2-y,1/2-z
1/2-x,y,1/2-z
1/2-x,1/2-y,1/2-z
1/2+x,y,1/2-z
1/2-x,1/2+y,1/2+z
1/2+x,-y,1/2+z
loop_
_atom_site_type_symbol
_atom_site_label
_atom_site_fract_x
_atom_site_fract_y
_atom_site_fract_z
Si Si1 0.599777 0.316731 0.148786
Si Si2 0.847932 0.936740 0.183124
Si Si3 0.153478 0.316675 0.679382
Si Si4 0.345430 0.431451 0.324356
O O1 0.500000 0.316210 0.094943
O O2 0.618627 0.250000 0.214457
O O3 0.609943 0.371741 0.261509
O O4 0.657725 0.324738 0.000219
O O5 0.750000 0.939108 0.250000
O O6 0.889966 0.876604 0.252414
O O7 0.886547 0.003115 0.216646
O O8 0.841644 0.929779 0.004155
O O9 0.113804 0.250000 0.706746
O O10 0.250000 0.314628 0.750000
O O11 0.250000 0.430674 0.250000
#
# Coordination Sequence:
#
# PCOD9536296 Si02
#       4
#    16  16  16  16
#     4  10  22  39  56  79 113 146 179 227 282 328
#     4   9  18  32  52  82 113 139 178 232 276 311
#     4   9  17  32  55  79 104 139 183 224 264 319
#     4  10  19  33  56  81 108 145 186 225 268 325
#
# _framework density 21.134288999999999
#
# number of rings (size 3 to 8) (size 9 to 14) (size 15 to 20)
#    0.000    2.500    0.000    3.000    0.000    4.500 
#    0.000    6.250    0.000    3.000    0.000    0.000 
#    0.000    0.000    0.000    0.000    0.000    0.000 
#
# Total GULP energy -178354.542453 kJ/mol
# GULP energy per Si atom -5573.579452 kJ/mol
# Density = 2.108619 g / cm^3
# Si number density = 21.134289 Si / 1000 Ang^3
#
#
#
# Elastic Constant Matrix: (Units=GPa)
#
#
# Indices 1 2 3 4 5 6 
#
# 1 40.5006 14.4972 11.2510 0.0000 0.0000 0.0000
# 2 14.4972 253.3406 83.8445 0.0000 0.0000 0.0000
# 3 11.2510 83.8445 87.3009 0.0000 0.0000 0.0000
# 4 0.0000 0.0000 0.0000 39.3357 0.0000 0.0000
# 5 0.0000 0.0000 0.0000 0.0000 2.8058 0.0000
# 6 0.0000 0.0000 0.0000 0.0000 0.0000 14.8646
#
#
#
# Elastic Compliance Matrix: (Units=1/GPa)
#
#
# Indices 1 2 3 4 5 6 
#
# 1 0.025660 -0.000548 -0.002781 0.000000 0.000000 0.000000
# 2 -0.000548 0.005798 -0.005498 0.000000 0.000000 0.000000
# 3 -0.002781 -0.005498 0.017093 0.000000 0.000000 0.000000
# 4 0.000000 0.000000 0.000000 0.025422 0.000000 0.000000
# 5 0.000000 0.000000 0.000000 0.000000 0.356410 0.000000
# 6 0.000000 0.000000 0.000000 0.000000 0.000000 0.067274
#
#
# Mechanical properties :
#
#
# Convention : Reuss Voigt Hill
#
# Bulk Modulus (GPa) = 32.36468 66.70306 49.53387
# Shear Modulus (GPa) = 9.51275 29.50449 19.50862
#
# Velocity S-wave (km/s) = 2.12388 3.74043 3.04152
# Velocity P-wave (km/s) = 4.62186 7.09115 5.98523
#
# Compressibility (1/GPa) = 0.03089788
#
# Stress axis : x y z
#
# Youngs Moduli (GPa) = 38.97173 172.46672 58.50240
#
# Poissons Ratio (x) = 0.09453 0.16267
# Poissons Ratio (y) = 0.02136 0.32165
# Poissons Ratio (z) = 0.10836 0.94822
#
# Static dielectric constant tensor:
#      x y z
#    x 1.845190 0.000000 0.000000 
#    y 0.000000 1.860780 0.000000 
#    z 0.000000 0.000000 1.710050 
# 
# From -- ./inp_files/8777.got.cif
#   From: 2010.05.17/outbox.cif.g08.bks.cpg/sg74_5_cif.got.tgz:8777.got - 2010.06.03 17:57:02.
