data_PCOD9536152
_publ_section_title
;
Structure prediction by ZEFSAII (Michael W. Deem and Ramdas Pophale) SiO2 
 PCOD9536152
Probable space group: I M M A
;
_chemical_formula_sum "Si O2"
_cell_formula_units_Z 96
_cell_length_a 9.765338
_cell_length_b 21.020649
_cell_length_c 28.792242
_cell_angle_alpha 90.000000
_cell_angle_beta 90.000000
_cell_angle_gamma 90.000000
_cell_volume 5910.291269
_symmetry_space_group_name_H-M "I M M A"
_symmetry_group_IT_number 74
_symmetry_cell_setting 'orthorhombic'
loop_
_space_group_symop_operation_xyz
x,y,z
-x,1/2-y,z
x,-y,-z
-x,1/2+y,-z
-x,-y,-z
x,1/2+y,-z
-x,y,z
x,1/2-y,z
1/2+x,1/2+y,1/2+z
1/2-x,-y,1/2+z
1/2+x,1/2-y,1/2-z
1/2-x,y,1/2-z
1/2-x,1/2-y,1/2-z
1/2+x,y,1/2-z
1/2-x,1/2+y,1/2+z
1/2+x,-y,1/2+z
loop_
_atom_site_type_symbol
_atom_site_label
_atom_site_fract_x
_atom_site_fract_y
_atom_site_fract_z
Si Si1 0.655966 0.463897 0.204140
Si Si2 0.661462 0.056160 0.961893
Si Si3 0.148671 0.649742 0.895121
Si Si4 0.711331 0.180284 0.195668
Si Si5 0.159492 0.498710 0.879927
Si Si6 0.337607 0.679856 0.979228
O O1 0.500000 0.486994 0.210909
O O2 0.750000 0.465771 0.250000
O O3 0.643781 0.389012 0.189824
O O4 0.742622 0.500779 0.165146
O O5 0.500000 0.058774 0.947478
O O6 0.763220 0.039899 0.920062
O O7 0.700132 0.122052 0.987012
O O8 0.671628 0.000000 0.000000
O O9 0.169395 0.674442 0.842698
O O10 0.155007 0.573214 0.894244
O O11 0.263890 0.673391 0.929869
O O12 0.000000 0.669499 0.912559
O O13 0.647092 0.250000 0.186719
O O14 0.750000 0.181441 0.250000
O O15 0.000000 0.479805 0.872056
O O16 0.500000 0.674513 0.971600
O O17 0.308017 0.750000 0.998701
#
# Coordination Sequence:
#
# PCOD9536152 Si02
#       6
#    16  16  16  16  16  16
#     4  10  20  34  51  70  96 127 161 203 251 297
#     4  10  19  33  53  74  97 129 168 206 247 297
#     4  10  20  33  49  68  91 121 162 210 254 296
#     4   9  19  32  44  61  87 122 163 208 255 300
#     4  10  20  33  51  74  98 126 165 208 249 292
#     4  10  21  35  50  71 100 130 161 201 250 300
#
# _framework density 16.242854999999999
#
# number of rings (size 3 to 8) (size 9 to 14) (size 15 to 20)
#    0.000    2.167    1.667    1.500    0.000    9.333 
#    0.000    3.333    0.000    0.000    0.000    0.000 
#    0.000    0.667    0.000    1.833    0.000    2.667 
#
# Total GULP energy -267238.284979 kJ/mol
# GULP energy per Si atom -5567.464270 kJ/mol
# Density = 1.620589 g / cm^3
# Si number density = 16.242855 Si / 1000 Ang^3
#
#
#
# Elastic Constant Matrix: (Units=GPa)
#
#
# Indices 1 2 3 4 5 6 
#
# 1 103.7564 32.6394 57.2707 0.0000 0.0000 0.0000
# 2 32.6394 74.1997 44.1316 0.0000 0.0000 0.0000
# 3 57.2707 44.1316 87.7951 0.0000 0.0000 0.0000
# 4 0.0000 0.0000 0.0000 3.5029 0.0000 0.0000
# 5 0.0000 0.0000 0.0000 0.0000 15.0167 0.0000
# 6 0.0000 0.0000 0.0000 0.0000 0.0000 28.2004
#
#
#
# Elastic Compliance Matrix: (Units=1/GPa)
#
#
# Indices 1 2 3 4 5 6 
#
# 1 0.015126 -0.001120 -0.009304 0.000000 0.000000 0.000000
# 2 -0.001120 0.019308 -0.008975 0.000000 0.000000 0.000000
# 3 -0.009304 -0.008975 0.021971 0.000000 0.000000 0.000000
# 4 0.000000 0.000000 0.000000 0.285475 0.000000 0.000000
# 5 0.000000 0.000000 0.000000 0.000000 0.066592 0.000000
# 6 0.000000 0.000000 0.000000 0.000000 0.000000 0.035460
#
#
# Mechanical properties :
#
#
# Convention : Reuss Voigt Hill
#
# Bulk Modulus (GPa) = 56.79610 59.31495 58.05552
# Shear Modulus (GPa) = 10.23336 18.12465 14.17901
#
# Velocity S-wave (km/s) = 2.51275 3.34406 2.95776
# Velocity P-wave (km/s) = 6.59252 7.17685 6.89088
#
# Compressibility (1/GPa) = 0.01760684
#
# Stress axis : x y z
#
# Youngs Moduli (GPa) = 66.11232 51.79292 45.51542
#
# Poissons Ratio (x) = 0.05801 0.42347
# Poissons Ratio (y) = 0.07404 0.40849
# Poissons Ratio (z) = 0.61510 0.46483
#
# Static dielectric constant tensor:
#      x y z
#    x 1.516920 0.000000 0.000000 
#    y 0.000000 1.548180 0.000000 
#    z 0.000000 0.000000 1.532830 
# 
# From -- ./inp_files/64692.got.cif
#   From: 2010.05.17/outbox.cif.g08.bks.cpg/sg74_33_cif.got.tgz:64692.got - 2010.06.03 17:57:02.
