data_PCOD9536623
_publ_section_title
;
Structure prediction by ZEFSAII (Michael W. Deem and Ramdas Pophale) SiO2 
 PCOD9536623
Probable space group: I M M A
;
_chemical_formula_sum "Si O2"
_cell_formula_units_Z 116
_cell_length_a 32.044446
_cell_length_b 8.924950
_cell_length_c 22.704319
_cell_angle_alpha 90.000000
_cell_angle_beta 90.000000
_cell_angle_gamma 90.000000
_cell_volume 6493.323491
_symmetry_space_group_name_H-M "I M M A"
_symmetry_group_IT_number 74
_symmetry_cell_setting 'orthorhombic'
loop_
_space_group_symop_operation_xyz
x,y,z
-x,1/2-y,z
x,-y,-z
-x,1/2+y,-z
-x,-y,-z
x,1/2+y,-z
-x,y,z
x,1/2-y,z
1/2+x,1/2+y,1/2+z
1/2-x,-y,1/2+z
1/2+x,1/2-y,1/2-z
1/2-x,y,1/2-z
1/2-x,1/2-y,1/2-z
1/2+x,y,1/2-z
1/2-x,1/2+y,1/2+z
1/2+x,-y,1/2+z
loop_
_atom_site_type_symbol
_atom_site_label
_atom_site_fract_x
_atom_site_fract_y
_atom_site_fract_z
Si Si1 0.688946 0.571938 0.601153
Si Si2 0.154888 0.577572 0.342851
Si Si3 0.295094 0.576653 0.277200
Si Si4 0.048335 0.430146 0.822986
Si Si5 0.000000 0.750000 0.672846
Si Si6 0.776163 0.569322 0.438750
Si Si7 0.581322 0.413034 0.207597
Si Si8 0.398270 0.069485 0.561684
O O1 0.688126 0.750000 0.591769
O O2 0.691536 0.529553 0.670116
O O3 0.730890 0.500498 0.574242
O O4 0.647634 0.496216 0.574772
O O5 0.145547 0.750000 0.357388
O O6 0.173352 0.572183 0.276943
O O7 0.191159 0.527984 0.387344
O O8 0.112866 0.484483 0.338617
O O9 0.292566 0.750000 0.299305
O O10 0.250000 0.539046 0.250000
O O11 0.048044 0.250000 0.820002
O O12 0.072672 0.491874 0.766265
O O13 0.071815 0.471535 0.883438
O O14 0.000000 0.483340 0.822178
O O15 0.036937 0.877553 0.678310
O O16 0.791177 0.500000 0.500000
O O17 0.772988 0.750000 0.441080
O O18 0.598475 0.250000 0.226638
O O19 0.396325 0.250000 0.557823
O O20 0.413128 0.000000 0.500000
#
# Coordination Sequence:
#
# PCOD9536623 Si02
#       8
#    16  16  16  16   4  16  16  16
#     4  12  24  38  57  82 113 153 194 239 281 331
#     4  10  21  36  58  85 115 152 188 228 280 333
#     4  10  19  36  56  79 114 152 187 229 283 335
#     4  10  20  37  60  83 110 143 185 234 289 351
#     4   8  20  36  54  88 122 148 174 216 292 336
#     4  11  23  41  60  82 115 152 194 234 278 328
#     4  10  19  35  56  84 119 143 180 221 278 338
#     4  11  24  40  56  77 106 147 197 243 291 339
#
# _framework density 17.864504
#
# number of rings (size 3 to 8) (size 9 to 14) (size 15 to 20)
#    0.414    1.103    2.069    3.724    0.000    6.621 
#    0.000    0.000    0.000    0.000    0.000    0.483 
#    0.000    0.000    0.000    0.000    0.000    0.000 
#
# Total GULP energy -323213.218654 kJ/mol
# GULP energy per Si atom -5572.641701 kJ/mol
# Density = 1.782384 g / cm^3
# Si number density = 17.864504 Si / 1000 Ang^3
#
#
#
# Elastic Constant Matrix: (Units=GPa)
#
#
# Indices 1 2 3 4 5 6 
#
# 1 85.1760 31.5335 25.0275 0.0000 0.0000 0.0000
# 2 31.5335 57.3412 25.0869 0.0000 0.0000 0.0000
# 3 25.0275 25.0869 58.9321 0.0000 0.0000 0.0000
# 4 0.0000 0.0000 0.0000 25.7521 0.0000 0.0000
# 5 0.0000 0.0000 0.0000 0.0000 10.0843 0.0000
# 6 0.0000 0.0000 0.0000 0.0000 0.0000 30.1106
#
#
#
# Elastic Compliance Matrix: (Units=1/GPa)
#
#
# Indices 1 2 3 4 5 6 
#
# 1 0.015336 -0.006862 -0.003592 0.000000 0.000000 0.000000
# 2 -0.006862 0.024501 -0.007516 0.000000 0.000000 0.000000
# 3 -0.003592 -0.007516 0.021693 0.000000 0.000000 0.000000
# 4 0.000000 0.000000 0.000000 0.038832 0.000000 0.000000
# 5 0.000000 0.000000 0.000000 0.000000 0.099164 0.000000
# 6 0.000000 0.000000 0.000000 0.000000 0.000000 0.033211
#
#
# Mechanical properties :
#
#
# Convention : Reuss Voigt Hill
#
# Bulk Modulus (GPa) = 39.07576 40.52726 39.80151
# Shear Modulus (GPa) = 18.03698 21.17615 19.60657
#
# Velocity S-wave (km/s) = 3.18095 3.44666 3.31647
# Velocity P-wave (km/s) = 5.95081 6.21084 6.08221
#
# Compressibility (1/GPa) = 0.02559131
#
# Stress axis : x y z
#
# Youngs Moduli (GPa) = 65.20442 40.81385 46.09687
#
# Poissons Ratio (x) = 0.28008 0.16557
# Poissons Ratio (y) = 0.44746 0.34645
# Poissons Ratio (z) = 0.23420 0.30675
#
# Static dielectric constant tensor:
#      x y z
#    x 1.617140 0.000000 0.000000 
#    y 0.000000 1.619530 0.000000 
#    z 0.000000 0.000000 1.611010 
# 
# From -- ./inp_files/62730.got.cif
#   From: 2010.05.17/outbox.cif.g08.bks.cpg/sg74_32_cif.got.tgz:62730.got - 2010.06.03 17:57:02.
