data_PCOD9536368
_publ_section_title
;
Structure prediction by ZEFSAII (Michael W. Deem and Ramdas Pophale) SiO2 
 PCOD9536368
Probable space group: I M M A
;
_chemical_formula_sum "Si O2"
_cell_formula_units_Z 120
_cell_length_a 30.236697
_cell_length_b 14.842710
_cell_length_c 15.544239
_cell_angle_alpha 90.000000
_cell_angle_beta 90.000000
_cell_angle_gamma 90.000000
_cell_volume 6976.169357
_symmetry_space_group_name_H-M "I M M A"
_symmetry_group_IT_number 74
_symmetry_cell_setting 'orthorhombic'
loop_
_space_group_symop_operation_xyz
x,y,z
-x,1/2-y,z
x,-y,-z
-x,1/2+y,-z
-x,-y,-z
x,1/2+y,-z
-x,y,z
x,1/2-y,z
1/2+x,1/2+y,1/2+z
1/2-x,-y,1/2+z
1/2+x,1/2-y,1/2-z
1/2-x,y,1/2-z
1/2-x,1/2-y,1/2-z
1/2+x,y,1/2-z
1/2-x,1/2+y,1/2+z
1/2+x,-y,1/2+z
loop_
_atom_site_type_symbol
_atom_site_label
_atom_site_fract_x
_atom_site_fract_y
_atom_site_fract_z
Si Si1 0.736194 0.347040 0.651275
Si Si2 0.645326 0.641853 0.675932
Si Si3 0.551129 0.352342 0.089965
Si Si4 0.388323 0.500000 0.000000
Si Si5 0.701222 0.353853 0.152678
Si Si6 0.827441 0.148872 0.545384
Si Si7 0.717074 0.028766 0.403124
Si Si8 0.548091 0.143355 0.296709
O O1 0.716733 0.250000 0.626203
O O2 0.750000 0.343384 0.750000
O O3 0.780545 0.359600 0.593873
O O4 0.706196 0.433864 0.640645
O O5 0.645360 0.750000 0.667405
O O6 0.667782 0.623607 0.769839
O O7 0.676515 0.596363 0.605610
O O8 0.594961 0.607677 0.670326
O O9 0.500000 0.360576 0.061346
O O10 0.566473 0.250000 0.069985
O O11 0.551026 0.361160 0.193058
O O12 0.581307 0.428328 0.049168
O O13 0.358035 0.562493 0.061972
O O14 0.716708 0.250000 0.166644
O O15 0.742012 0.422294 0.144175
O O16 0.679528 0.354383 0.057942
O O17 0.844333 0.250000 0.566988
O O18 0.728300 0.000000 0.500000
O O19 0.500000 0.105081 0.322894
O O20 0.547212 0.250000 0.317812
#
# Coordination Sequence:
#
# PCOD9536368 Si02
#       8
#    16  16  16   8  16  16  16  16
#     4  10  21  36  49  61  87 132 178 207 232 279
#     4  10  20  32  53  83 104 126 166 212 259 310
#     4   9  18  31  45  64  93 127 158 191 244 312
#     4  12  19  26  44  68  94 122 158 204 249 286
#     4  10  19  34  52  72 103 135 166 210 258 304
#     4  10  20  32  47  68  94 127 167 205 246 291
#     4  12  22  33  49  70 103 138 169 205 251 297
#     4   8  15  31  52  73 100 127 152 197 263 323
#
# _framework density 17.201418
#
# number of rings (size 3 to 8) (size 9 to 14) (size 15 to 20)
#    0.000    2.000    1.333    4.600    0.000    4.800 
#    0.000    0.000    0.000    0.400    0.000    0.000 
#    0.000    1.600    0.000    0.000    0.000    0.000 
#
# Total GULP energy -334433.326259 kJ/mol
# GULP energy per Si atom -5573.888771 kJ/mol
# Density = 1.716227 g / cm^3
# Si number density = 17.201418 Si / 1000 Ang^3
#
#
#
# Elastic Constant Matrix: (Units=GPa)
#
#
# Indices 1 2 3 4 5 6 
#
# 1 85.9313 43.0344 0.4425 0.0000 0.0000 0.0000
# 2 43.0344 92.0622 10.4357 0.0000 0.0000 0.0000
# 3 0.4425 10.4357 27.5872 0.0000 0.0000 0.0000
# 4 0.0000 0.0000 0.0000 25.3617 0.0000 0.0000
# 5 0.0000 0.0000 0.0000 0.0000 12.3372 0.0000
# 6 0.0000 0.0000 0.0000 0.0000 0.0000 18.6422
#
#
#
# Elastic Compliance Matrix: (Units=1/GPa)
#
#
# Indices 1 2 3 4 5 6 
#
# 1 0.015368 -0.007476 0.002582 0.000000 0.000000 0.000000
# 2 -0.007476 0.014986 -0.005549 0.000000 0.000000 0.000000
# 3 0.002582 -0.005549 0.038306 0.000000 0.000000 0.000000
# 4 0.000000 0.000000 0.000000 0.039430 0.000000 0.000000
# 5 0.000000 0.000000 0.000000 0.000000 0.081056 0.000000
# 6 0.000000 0.000000 0.000000 0.000000 0.000000 0.053642
#
#
# Mechanical properties :
#
#
# Convention : Reuss Voigt Hill
#
# Bulk Modulus (GPa) = 20.93233 34.82286 27.87759
# Shear Modulus (GPa) = 17.88271 21.37942 19.63107
#
# Velocity S-wave (km/s) = 3.22779 3.52928 3.38190
# Velocity P-wave (km/s) = 5.10753 6.07420 5.61172
#
# Compressibility (1/GPa) = 0.04777300
#
# Stress axis : x y z
#
# Youngs Moduli (GPa) = 65.06973 66.72849 26.10534
#
# Poissons Ratio (x) = 0.49889 -0.06740
# Poissons Ratio (y) = 0.48649 0.14486
# Poissons Ratio (z) = -0.16799 0.37028
#
# Static dielectric constant tensor:
#      x y z
#    x 1.626150 0.000000 0.000000 
#    y 0.000000 1.631630 0.000000 
#    z 0.000000 0.000000 1.587050 
# 
# From -- ./inp_files/38010.got.cif
#   From: 2010.05.17/outbox.cif.g08.bks.cpg/sg74_20_cif.got.tgz:38010.got - 2010.06.03 17:57:02.
