data_PCOD9536870
_publ_section_title
;
Structure prediction by ZEFSAII (Michael W. Deem and Ramdas Pophale) SiO2 
 PCOD9536870
Probable space group: I M M A
;
_chemical_formula_sum "Si O2"
_cell_formula_units_Z 88
_cell_length_a 8.379629
_cell_length_b 22.460046
_cell_length_c 23.631181
_cell_angle_alpha 90.000000
_cell_angle_beta 90.000000
_cell_angle_gamma 90.000000
_cell_volume 4447.550204
_symmetry_space_group_name_H-M "I M M A"
_symmetry_group_IT_number 74
_symmetry_cell_setting 'orthorhombic'
loop_
_space_group_symop_operation_xyz
x,y,z
-x,1/2-y,z
x,-y,-z
-x,1/2+y,-z
-x,-y,-z
x,1/2+y,-z
-x,y,z
x,1/2-y,z
1/2+x,1/2+y,1/2+z
1/2-x,-y,1/2+z
1/2+x,1/2-y,1/2-z
1/2-x,y,1/2-z
1/2-x,1/2-y,1/2-z
1/2+x,y,1/2-z
1/2-x,1/2+y,1/2+z
1/2+x,-y,1/2+z
loop_
_atom_site_type_symbol
_atom_site_label
_atom_site_fract_x
_atom_site_fract_y
_atom_site_fract_z
Si Si1 0.809272 0.004373 0.687953
Si Si2 0.184015 0.906588 0.899251
Si Si3 0.694393 0.374802 0.869013
Si Si4 0.316808 0.678766 0.811147
Si Si5 0.188528 0.065960 0.514639
Si Si6 0.306191 0.250000 0.815123
O O1 0.750000 0.986761 0.750000
O O2 0.761874 0.072410 0.674312
O O3 0.000000 0.000433 0.686122
O O4 0.742078 0.962316 0.638587
O O5 0.211524 0.850275 0.859317
O O6 0.283909 0.899710 0.956390
O O7 0.000000 0.914236 0.913986
O O8 0.500000 0.371999 0.871086
O O9 0.748318 0.310193 0.847447
O O10 0.750776 0.398650 0.930586
O O11 0.500000 0.658284 0.816971
O O12 0.313893 0.750000 0.814312
O O13 0.250000 0.661261 0.750000
O O14 0.000000 0.057616 0.525529
O O15 0.255969 0.000000 0.500000
O O16 0.500000 0.250000 0.814945
O O17 0.250000 0.250000 0.750000
#
# Coordination Sequence:
#
# PCOD9536870 Si02
#       6
#    16  16  16  16  16   8
#     4  11  21  36  56  84 116 151 192 240 295 351
#     4  12  24  37  56  85 118 153 191 240 293 351
#     4   9  19  36  60  85 115 154 195 242 295 354
#     4  10  21  39  62  86 114 151 192 235 286 346
#     4  10  19  38  62  82 111 153 197 242 292 352
#     4  10  20  38  62  90 120 154 199 244 299 358
#
# _framework density 19.786173999999999
#
# number of rings (size 3 to 8) (size 9 to 14) (size 15 to 20)
#    0.000    1.636    1.818    3.818    0.000    1.455 
#    1.636    1.818    0.000    0.000    0.000    0.000 
#    0.000    0.000    0.000    0.000    0.000    0.000 
#
# Total GULP energy -245703.551822 kJ/mol
# GULP energy per Si atom -5584.171632 kJ/mol
# Density = 1.974114 g / cm^3
# Si number density = 19.786174 Si / 1000 Ang^3
#
#
#
# Elastic Constant Matrix: (Units=GPa)
#
#
# Indices 1 2 3 4 5 6 
#
# 1 20.4483 13.9145 -10.1829 0.0000 0.0000 0.0000
# 2 13.9145 100.1482 53.1973 0.0000 0.0000 0.0000
# 3 -10.1829 53.1973 124.7963 0.0000 0.0000 0.0000
# 4 0.0000 0.0000 0.0000 25.3045 0.0000 0.0000
# 5 0.0000 0.0000 0.0000 0.0000 26.8463 0.0000
# 6 0.0000 0.0000 0.0000 0.0000 0.0000 4.6741
#
#
#
# Elastic Compliance Matrix: (Units=1/GPa)
#
#
# Indices 1 2 3 4 5 6 
#
# 1 0.065292 -0.015385 0.011886 0.000000 0.000000 0.000000
# 2 -0.015385 0.016533 -0.008303 0.000000 0.000000 0.000000
# 3 0.011886 -0.008303 0.012522 0.000000 0.000000 0.000000
# 4 0.000000 0.000000 0.000000 0.039519 0.000000 0.000000
# 5 0.000000 0.000000 0.000000 0.000000 0.037249 0.000000
# 6 0.000000 0.000000 0.000000 0.000000 0.000000 0.213944
#
#
# Mechanical properties :
#
#
# Convention : Reuss Voigt Hill
#
# Bulk Modulus (GPa) = 14.13573 39.91675 27.02624
# Shear Modulus (GPa) = 11.56752 23.92925 17.74839
#
# Velocity S-wave (km/s) = 2.42053 3.48140 2.99826
# Velocity P-wave (km/s) = 3.86933 6.03143 5.06704
#
# Compressibility (1/GPa) = 0.07074272
#
# Stress axis : x y z
#
# Youngs Moduli (GPa) = 15.31581 60.48398 79.85766
#
# Poissons Ratio (x) = 0.93056 -0.94918
# Poissons Ratio (y) = 0.23564 0.66306
# Poissons Ratio (z) = -0.18204 0.50220
#
# Static dielectric constant tensor:
#      x y z
#    x 1.701220 0.000000 0.000000 
#    y 0.000000 1.720420 0.000000 
#    z 0.000000 0.000000 1.702370 
# 
# From -- ./inp_files/48719.got.cif
#   From: 2010.05.17/outbox.cif.g08.bks.cpg/sg74_25_cif.got.tgz:48719.got - 2010.06.03 17:57:02.
