data_PCOD9536858
_publ_section_title
;
Structure prediction by ZEFSAII (Michael W. Deem and Ramdas Pophale) SiO2 
 PCOD9536858
Probable space group: I M M A
;
_chemical_formula_sum "Si O2"
_cell_formula_units_Z 88
_cell_length_a 11.115245
_cell_length_b 23.043168
_cell_length_c 17.110969
_cell_angle_alpha 90.000000
_cell_angle_beta 90.000000
_cell_angle_gamma 90.000000
_cell_volume 4382.640325
_symmetry_space_group_name_H-M "I M M A"
_symmetry_group_IT_number 74
_symmetry_cell_setting 'orthorhombic'
loop_
_space_group_symop_operation_xyz
x,y,z
-x,1/2-y,z
x,-y,-z
-x,1/2+y,-z
-x,-y,-z
x,1/2+y,-z
-x,y,z
x,1/2-y,z
1/2+x,1/2+y,1/2+z
1/2-x,-y,1/2+z
1/2+x,1/2-y,1/2-z
1/2-x,y,1/2-z
1/2-x,1/2-y,1/2-z
1/2+x,y,1/2-z
1/2-x,1/2+y,1/2+z
1/2+x,-y,1/2+z
loop_
_atom_site_type_symbol
_atom_site_label
_atom_site_fract_x
_atom_site_fract_y
_atom_site_fract_z
Si Si1 0.762766 0.850498 0.401885
Si Si2 0.000000 0.180478 0.903339
Si Si3 0.865401 0.412921 0.305490
Si Si4 0.140604 0.523755 0.417213
Si Si5 0.234238 0.318942 0.413545
Si Si6 0.367144 0.750000 0.195854
Si Si7 0.500000 0.179952 0.417211
O O1 0.627373 0.839487 0.370290
O O2 0.794644 0.917445 0.393044
O O3 0.768339 0.833017 0.493859
O O4 0.851240 0.807132 0.357224
O O5 0.000000 0.250000 0.907523
O O6 0.000000 0.158476 0.993296
O O7 0.750000 0.409506 0.250000
O O8 0.852973 0.472204 0.355033
O O9 0.855377 0.359185 0.365797
O O10 0.000000 0.412537 0.269464
O O11 0.188612 0.500000 0.500000
O O12 0.000000 0.538654 0.429389
O O13 0.215064 0.250000 0.403171
O O14 0.369732 0.334943 0.383805
O O15 0.500000 0.750000 0.232928
O O16 0.250000 0.750000 0.250000
O O17 0.500000 0.250000 0.420089
#
# Coordination Sequence:
#
# PCOD9536858 Si02
#       7
#    16   8  16  16  16   8   8
#     4  11  20  40  68  99 129 169 224 271 327 384
#     4   9  16  32  60  94 134 168 195 261 330 380
#     4  11  26  45  65  93 134 175 212 270 335 391
#     4  10  21  41  67  94 125 167 223 279 327 376
#     4  10  19  37  66 101 128 168 219 275 324 387
#     4  12  28  42  64 100 137 174 218 271 336 405
#     4   7  14  28  53  91 127 159 197 245 320 374
#
# _framework density 20.079221
#
# number of rings (size 3 to 8) (size 9 to 14) (size 15 to 20)
#    0.000    1.818    3.636    1.636    2.545    2.182 
#    1.636    0.455    0.000    0.000    0.000    0.000 
#    0.000    0.000    0.000    0.000    0.000    0.000 
#
# Total GULP energy -245556.425301 kJ/mol
# GULP energy per Si atom -5580.827848 kJ/mol
# Density = 2.003352 g / cm^3
# Si number density = 20.079221 Si / 1000 Ang^3
#
#
#
# Elastic Constant Matrix: (Units=GPa)
#
#
# Indices 1 2 3 4 5 6 
#
# 1 136.2765 49.8774 40.4547 0.0000 0.0000 0.0000
# 2 49.8774 137.6954 25.6375 0.0000 0.0000 0.0000
# 3 40.4547 25.6375 50.2083 -0.0001 0.0000 0.0000
# 4 0.0000 0.0000 -0.0001 17.2320 0.0000 0.0000
# 5 0.0000 0.0000 0.0000 0.0000 28.8354 0.0000
# 6 0.0000 0.0000 0.0000 0.0000 0.0000 33.0739
#
#
#
# Elastic Compliance Matrix: (Units=1/GPa)
#
#
# Indices 1 2 3 4 5 6 
#
# 1 0.010328 -0.002422 -0.007085 0.000000 0.000000 0.000000
# 2 -0.002422 0.008593 -0.002437 0.000000 0.000000 0.000000
# 3 -0.007085 -0.002437 0.026870 0.000000 0.000000 0.000000
# 4 0.000000 0.000000 0.000000 0.058032 0.000000 0.000000
# 5 0.000000 0.000000 0.000000 0.000000 0.034680 0.000000
# 6 0.000000 0.000000 0.000000 0.000000 0.000000 0.030235
#
#
# Mechanical properties :
#
#
# Convention : Reuss Voigt Hill
#
# Bulk Modulus (GPa) = 45.65314 61.79105 53.72210
# Shear Modulus (GPa) = 25.00946 29.70898 27.35922
#
# Velocity S-wave (km/s) = 3.53305 3.85071 3.69530
# Velocity P-wave (km/s) = 6.27926 7.11415 6.70970
#
# Compressibility (1/GPa) = 0.02190430
#
# Stress axis : x y z
#
# Youngs Moduli (GPa) = 96.82843 116.36910 37.21692
#
# Poissons Ratio (x) = 0.28183 0.26367
# Poissons Ratio (y) = 0.23451 0.09068
# Poissons Ratio (z) = 0.68599 0.28354
#
# Static dielectric constant tensor:
#      x y z
#    x 1.743340 0.000000 0.000000 
#    y 0.000000 1.620320 0.000000 
#    z 0.000000 0.000000 1.740620 
# 
# From -- ./inp_files/41321.got.cif
#   From: 2010.05.17/outbox.cif.g08.bks.cpg/sg74_21_cif.got.tgz:41321.got - 2010.06.03 17:57:02.
