data_PCOD9536520
_publ_section_title
;
Structure prediction by ZEFSAII (Michael W. Deem and Ramdas Pophale) SiO2 
 PCOD9536520
Probable space group: I M M A
;
_chemical_formula_sum "Si O2"
_cell_formula_units_Z 80
_cell_length_a 21.036576
_cell_length_b 14.468615
_cell_length_c 11.663530
_cell_angle_alpha 90.000000
_cell_angle_beta 90.000000
_cell_angle_gamma 90.000000
_cell_volume 3550.030015
_symmetry_space_group_name_H-M "I M M A"
_symmetry_group_IT_number 74
_symmetry_cell_setting 'orthorhombic'
loop_
_space_group_symop_operation_xyz
x,y,z
-x,1/2-y,z
x,-y,-z
-x,1/2+y,-z
-x,-y,-z
x,1/2+y,-z
-x,y,z
x,1/2-y,z
1/2+x,1/2+y,1/2+z
1/2-x,-y,1/2+z
1/2+x,1/2-y,1/2-z
1/2-x,y,1/2-z
1/2-x,1/2-y,1/2-z
1/2+x,y,1/2-z
1/2-x,1/2+y,1/2+z
1/2+x,-y,1/2+z
loop_
_atom_site_type_symbol
_atom_site_label
_atom_site_fract_x
_atom_site_fract_y
_atom_site_fract_z
Si Si1 0.259024 0.644264 0.127197
Si Si2 0.000000 0.905720 0.079250
Si Si3 0.367019 0.610396 0.510258
Si Si4 0.177256 0.358096 0.263469
Si Si5 0.118753 0.137222 0.494044
Si Si6 0.500000 0.363503 0.845825
O O1 0.279649 0.750000 0.148250
O O2 0.250000 0.598983 0.250000
O O3 0.193447 0.645390 0.059751
O O4 0.316134 0.605419 0.053950
O O5 0.000000 0.909611 0.218687
O O6 0.934017 0.858805 0.042000
O O7 0.000000 0.000000 0.000000
O O8 0.364158 0.500000 0.500000
O O9 0.357213 0.635050 0.642071
O O10 0.186651 0.250000 0.293410
O O11 0.250000 0.394448 0.250000
O O12 0.130621 0.394859 0.363212
O O13 0.113406 0.250000 0.490582
O O14 0.060484 0.109642 0.575400
O O15 0.500000 0.250000 0.829050
#
# Coordination Sequence:
#
# PCOD9536520 Si02
#       6
#    16   8  16  16  16   8
#     4  10  19  34  57  84 114 151 197 248 304 359
#     4  10  24  43  58  78 124 170 196 245 304 357
#     4  11  23  38  58  82 116 161 205 250 294 357
#     4  10  19  36  62  89 122 155 193 251 317 367
#     4   9  18  33  58  91 121 151 187 244 311 361
#     4  10  20  37  64  97 127 156 202 254 300 358
#
# _framework density 22.535022000000001
#
# number of rings (size 3 to 8) (size 9 to 14) (size 15 to 20)
#    0.000    2.000    2.000    1.800    0.000    4.800 
#    0.000    1.000    0.000    4.800    0.000    0.000 
#    0.000    0.000    0.000    0.000    0.000    0.000 
#
# Total GULP energy -223201.905893 kJ/mol
# GULP energy per Si atom -5580.047647 kJ/mol
# Density = 2.248373 g / cm^3
# Si number density = 22.535022 Si / 1000 Ang^3
#
#
#
# Elastic Constant Matrix: (Units=GPa)
#
#
# Indices 1 2 3 4 5 6 
#
# 1 188.5137 -12.5115 109.6038 0.0000 0.0000 0.0000
# 2 -12.5115 73.9857 -9.8233 0.0000 0.0000 0.0000
# 3 109.6038 -9.8233 240.8400 0.0000 0.0000 0.0000
# 4 0.0000 0.0000 0.0000 53.9224 0.0000 0.0000
# 5 0.0000 0.0000 0.0000 0.0000 95.6337 0.0000
# 6 0.0000 0.0000 0.0000 0.0000 0.0000 -69.8380
#
#
#
# Elastic Compliance Matrix: (Units=1/GPa)
#
#
# Indices 1 2 3 4 5 6 
#
# 1 0.007259 0.000793 -0.003271 0.000000 0.000000 0.000000
# 2 0.000793 0.013676 0.000197 0.000000 0.000000 0.000000
# 3 -0.003271 0.000197 0.005649 0.000000 0.000000 0.000000
# 4 0.000000 0.000000 0.000000 0.018545 0.000000 0.000000
# 5 0.000000 0.000000 0.000000 0.000000 0.010457 0.000000
# 6 0.000000 0.000000 0.000000 0.000000 0.000000 -0.014319
#
#
# Mechanical properties :
#
#
# Convention : Reuss Voigt Hill
#
# Bulk Modulus (GPa) = 45.40874 75.31970 60.36422
# Shear Modulus (GPa) = 94.03716 43.68166 68.85941
#
# Velocity S-wave (km/s) = 6.46683 4.40749 5.53380
# Velocity P-wave (km/s) = 8.71516 7.70696 8.22652
#
# Compressibility (1/GPa) = 0.02202219
#
# Stress axis : x y z
#
# Youngs Moduli (GPa) = 137.75539 73.11860 177.02631
#
# Poissons Ratio (x) = -0.05800 0.57910
# Poissons Ratio (y) = -0.10927 -0.03484
# Poissons Ratio (z) = 0.45063 -0.01439
#
# Static dielectric constant tensor:
#      x y z
#    x 1.819550 0.000000 0.000000 
#    y 0.000000 1.905220 0.000000 
#    z 0.000000 0.000000 1.933370 
# 
# From -- ./inp_files/23639.got.cif
#   From: 2010.05.17/outbox.cif.g08.bks.cpg/sg74_12_cif.got.tgz:23639.got - 2010.06.03 17:57:02.
