data_PCOD9536285
_publ_section_title
;
Structure prediction by ZEFSAII (Michael W. Deem and Ramdas Pophale) SiO2 
 PCOD9536285
Probable space group: I M M A
;
_chemical_formula_sum "Si O2"
_cell_formula_units_Z 88
_cell_length_a 20.537872
_cell_length_b 8.740055
_cell_length_c 24.359668
_cell_angle_alpha 90.000000
_cell_angle_beta 90.000000
_cell_angle_gamma 90.000000
_cell_volume 4372.612313
_symmetry_space_group_name_H-M "I M M A"
_symmetry_group_IT_number 74
_symmetry_cell_setting 'orthorhombic'
loop_
_space_group_symop_operation_xyz
x,y,z
-x,1/2-y,z
x,-y,-z
-x,1/2+y,-z
-x,-y,-z
x,1/2+y,-z
-x,y,z
x,1/2-y,z
1/2+x,1/2+y,1/2+z
1/2-x,-y,1/2+z
1/2+x,1/2-y,1/2-z
1/2-x,y,1/2-z
1/2-x,1/2-y,1/2-z
1/2+x,y,1/2-z
1/2-x,1/2+y,1/2+z
1/2+x,-y,1/2+z
loop_
_atom_site_type_symbol
_atom_site_label
_atom_site_fract_x
_atom_site_fract_y
_atom_site_fract_z
Si Si1 0.861494 0.568617 0.277179
Si Si2 0.762978 0.433195 0.943442
Si Si3 0.500000 0.565335 0.938293
Si Si4 0.638363 0.565737 0.348019
Si Si5 0.500000 0.420189 0.358270
Si Si6 0.000000 0.923724 0.727167
Si Si7 0.140689 0.567212 0.609300
O O1 0.850359 0.750000 0.280235
O O2 0.845449 0.515701 0.214923
O O3 0.833313 0.490270 0.331323
O O4 0.936735 0.521828 0.284756
O O5 0.760758 0.250000 0.945578
O O6 0.807773 0.479759 0.892019
O O7 0.691089 0.499060 0.934010
O O8 0.789898 0.500000 0.000000
O O9 0.500000 0.750000 0.941568
O O10 0.433286 0.519574 0.906796
O O11 0.500000 0.500000 0.000000
O O12 0.634967 0.750000 0.345466
O O13 0.567963 0.506000 0.368120
O O14 0.500000 0.250000 0.382837
O O15 0.500000 0.404491 0.292406
O O16 0.000000 0.750000 0.702656
O O17 0.142083 0.750000 0.608948
#
# Coordination Sequence:
#
# PCOD9536285 Si02
#       7
#    16  16   8  16   8   8  16
#     4  10  19  33  55  84 115 152 194 235 285 349
#     4  11  24  43  63  84 112 151 196 243 294 353
#     4  10  23  40  59  83 114 152 196 240 284 331
#     4   9  20  38  60  85 119 157 192 234 290 352
#     4   9  17  30  55  88 117 145 185 232 278 332
#     4   9  16  28  47  77 117 153 182 224 279 335
#     4  11  23  39  59  86 119 154 192 243 298 348
#
# _framework density 20.125271000000001
#
# number of rings (size 3 to 8) (size 9 to 14) (size 15 to 20)
#    0.000    2.000    0.000    3.273    0.000    8.727 
#    0.000    4.091    0.000    0.000    0.000    0.000 
#    0.000    0.000    0.000    0.000    0.000    0.000 
#
# Total GULP energy -245445.650701 kJ/mol
# GULP energy per Si atom -5578.310243 kJ/mol
# Density = 2.007946 g / cm^3
# Si number density = 20.125271 Si / 1000 Ang^3
#
#
#
# Elastic Constant Matrix: (Units=GPa)
#
#
# Indices 1 2 3 4 5 6 
#
# 1 84.6228 21.7964 56.7209 0.0000 0.0000 0.0000
# 2 21.7964 38.5835 38.1489 0.0000 0.0000 0.0000
# 3 56.7209 38.1489 151.1251 0.0000 0.0000 0.0000
# 4 0.0000 0.0000 0.0000 30.7826 0.0000 0.0000
# 5 0.0000 0.0000 0.0000 0.0000 29.6615 0.0000
# 6 0.0000 0.0000 0.0000 0.0000 0.0000 17.7539
#
#
#
# Elastic Compliance Matrix: (Units=1/GPa)
#
#
# Indices 1 2 3 4 5 6 
#
# 1 0.016286 -0.004206 -0.005051 0.000000 0.000000 0.000000
# 2 -0.004206 0.035625 -0.007414 0.000000 0.000000 0.000000
# 3 -0.005051 -0.007414 0.010384 0.000000 0.000000 0.000000
# 4 0.000000 0.000000 0.000000 0.032486 0.000000 0.000000
# 5 0.000000 0.000000 0.000000 0.000000 0.033714 0.000000
# 6 0.000000 0.000000 0.000000 0.000000 0.000000 0.056326
#
#
# Mechanical properties :
#
#
# Convention : Reuss Voigt Hill
#
# Bulk Modulus (GPa) = 34.53928 56.40710 45.47319
# Shear Modulus (GPa) = 21.94782 26.15063 24.04923
#
# Velocity S-wave (km/s) = 3.30595 3.60862 3.46059
# Velocity P-wave (km/s) = 5.63665 6.74179 6.21383
#
# Compressibility (1/GPa) = 0.02895254
#
# Stress axis : x y z
#
# Youngs Moduli (GPa) = 61.40262 28.07046 96.29993
#
# Poissons Ratio (x) = 0.11808 0.48638
# Poissons Ratio (y) = 0.25828 0.71397
# Poissons Ratio (z) = 0.31012 0.20812
#
# Static dielectric constant tensor:
#      x y z
#    x 1.644250 0.000000 0.000000 
#    y 0.000000 1.692090 0.000000 
#    z 0.000000 0.000000 1.789780 
# 
# From -- ./inp_files/61507.got.cif
#   From: 2010.05.17/outbox.cif.g08.bks.cpg/sg74_31_cif.got.tgz:61507.got - 2010.06.03 17:57:02.
