data_PCOD9536613
_publ_section_title
;
Structure prediction by ZEFSAII (Michael W. Deem and Ramdas Pophale) SiO2 
 PCOD9536613
Probable space group: I M M A
;
_chemical_formula_sum "Si O2"
_cell_formula_units_Z 96
_cell_length_a 25.975284
_cell_length_b 8.484925
_cell_length_c 24.344911
_cell_angle_alpha 90.000000
_cell_angle_beta 90.000000
_cell_angle_gamma 90.000000
_cell_volume 5365.577889
_symmetry_space_group_name_H-M "I M M A"
_symmetry_group_IT_number 74
_symmetry_cell_setting 'orthorhombic'
loop_
_space_group_symop_operation_xyz
x,y,z
-x,1/2-y,z
x,-y,-z
-x,1/2+y,-z
-x,-y,-z
x,1/2+y,-z
-x,y,z
x,1/2-y,z
1/2+x,1/2+y,1/2+z
1/2-x,-y,1/2+z
1/2+x,1/2-y,1/2-z
1/2-x,y,1/2-z
1/2-x,1/2-y,1/2-z
1/2+x,y,1/2-z
1/2-x,1/2+y,1/2+z
1/2+x,-y,1/2+z
loop_
_atom_site_type_symbol
_atom_site_label
_atom_site_fract_x
_atom_site_fract_y
_atom_site_fract_z
Si Si1 0.653751 0.439142 0.372066
Si Si2 0.940658 0.938854 0.060891
Si Si3 0.058800 0.940457 0.560756
Si Si4 0.251898 0.437747 0.938078
Si Si5 0.309795 0.557923 0.747531
Si Si6 0.653130 0.440850 0.134461
O O1 0.656734 0.250000 0.373538
O O2 0.599182 0.493503 0.395451
O O3 0.698787 0.506061 0.410626
O O4 0.664771 0.492391 0.309629
O O5 0.937833 0.750000 0.060821
O O6 0.000000 0.986045 0.071521
O O7 0.926884 0.000000 0.000000
O O8 0.059181 0.750000 0.559789
O O9 0.100451 0.993778 0.605387
O O10 0.000000 0.991986 0.572012
O O11 0.073124 0.000000 0.500000
O O12 0.253791 0.250000 0.938531
O O13 0.298748 0.503400 0.901716
O O14 0.255804 0.500000 0.000000
O O15 0.309756 0.750000 0.747595
O O16 0.250000 0.508260 0.750000
O O17 0.338561 0.505999 0.802844
O O18 0.653340 0.250000 0.134556
#
# Coordination Sequence:
#
# PCOD9536613 Si02
#       6
#    16  16  16  16  16  16
#     4  11  21  36  58  82 110 144 183 224 270 327
#     4  10  21  38  59  83 113 147 183 227 278 330
#     4   9  18  32  52  77 105 137 173 215 264 315
#     4  12  24  36  52  78 110 141 177 222 275 328
#     4   9  17  33  56  79 107 144 181 218 269 320
#     4  10  19  35  56  78 106 140 180 223 269 321
#
# _framework density 17.891829000000001
#
# number of rings (size 3 to 8) (size 9 to 14) (size 15 to 20)
#    0.000    1.833    1.667    3.500    0.000    3.000 
#    0.000    3.333    0.000    3.000    0.000    2.333 
#    0.000    0.000    0.000    0.000    0.000    0.000 
#
# Total GULP energy -268062.602789 kJ/mol
# GULP energy per Si atom -5584.637558 kJ/mol
# Density = 1.785111 g / cm^3
# Si number density = 17.891829 Si / 1000 Ang^3
#
#
#
# Elastic Constant Matrix: (Units=GPa)
#
#
# Indices 1 2 3 4 5 6 
#
# 1 99.3730 9.4896 72.1092 0.0000 0.0000 0.0000
# 2 9.4896 21.7922 13.1134 0.0000 0.0000 0.0000
# 3 72.1092 13.1134 147.5394 0.0000 0.0000 0.0000
# 4 0.0000 0.0000 0.0000 22.7359 0.0000 0.0000
# 5 0.0000 0.0000 0.0000 0.0000 21.2796 0.0000
# 6 0.0000 0.0000 0.0000 0.0000 0.0000 58.9515
#
#
#
# Elastic Compliance Matrix: (Units=1/GPa)
#
#
# Indices 1 2 3 4 5 6 
#
# 1 0.015706 -0.002346 -0.007468 0.000000 0.000000 0.000000
# 2 -0.002346 0.048831 -0.003194 0.000000 0.000000 0.000000
# 3 -0.007468 -0.003194 0.010712 0.000000 0.000000 0.000000
# 4 0.000000 0.000000 0.000000 0.043983 0.000000 0.000000
# 5 0.000000 0.000000 0.000000 0.000000 0.046993 0.000000
# 6 0.000000 0.000000 0.000000 0.000000 0.000000 0.016963
#
#
# Mechanical properties :
#
#
# Convention : Reuss Voigt Hill
#
# Bulk Modulus (GPa) = 20.31095 50.90323 35.60709
# Shear Modulus (GPa) = 22.16170 32.19288 27.17729
#
# Velocity S-wave (km/s) = 3.52326 4.24643 3.90164
# Velocity P-wave (km/s) = 5.28469 7.24949 6.34362
#
# Compressibility (1/GPa) = 0.04923453
#
# Stress axis : x y z
#
# Youngs Moduli (GPa) = 63.66992 20.47870 93.35725
#
# Poissons Ratio (x) = 0.04804 0.69717
# Poissons Ratio (y) = 0.14935 0.29816
# Poissons Ratio (z) = 0.47547 0.06540
#
# Static dielectric constant tensor:
#      x y z
#    x 1.600480 0.000000 0.000000 
#    y 0.000000 1.615890 0.000000 
#    z 0.000000 0.000000 1.592990 
# 
# From -- ./inp_files/49162.got.cif
#   From: 2010.05.17/outbox.cif.g08.bks.cpg/sg74_25_cif.got.tgz:49162.got - 2010.06.03 17:57:02.
