data_PCOD9536659
_publ_section_title
;
Structure prediction by ZEFSAII (Michael W. Deem and Ramdas Pophale) SiO2 
 PCOD9536659
Probable space group: I M M A
;
_chemical_formula_sum "Si O2"
_cell_formula_units_Z 116
_cell_length_a 8.875475
_cell_length_b 26.425871
_cell_length_c 25.489595
_cell_angle_alpha 90.000000
_cell_angle_beta 90.000000
_cell_angle_gamma 90.000000
_cell_volume 5978.384603
_symmetry_space_group_name_H-M "I M M A"
_symmetry_group_IT_number 74
_symmetry_cell_setting 'orthorhombic'
loop_
_space_group_symop_operation_xyz
x,y,z
-x,1/2-y,z
x,-y,-z
-x,1/2+y,-z
-x,-y,-z
x,1/2+y,-z
-x,y,z
x,1/2-y,z
1/2+x,1/2+y,1/2+z
1/2-x,-y,1/2+z
1/2+x,1/2-y,1/2-z
1/2-x,y,1/2-z
1/2-x,1/2-y,1/2-z
1/2+x,y,1/2-z
1/2-x,1/2+y,1/2+z
1/2+x,-y,1/2+z
loop_
_atom_site_type_symbol
_atom_site_label
_atom_site_fract_x
_atom_site_fract_y
_atom_site_fract_z
Si Si1 0.679309 0.610066 0.985987
Si Si2 0.674659 0.323603 0.196014
Si Si3 0.320580 0.404005 0.592427
Si Si4 0.000000 0.250000 0.685168
Si Si5 0.833766 0.855589 0.305436
Si Si6 0.183014 0.015079 0.415336
Si Si7 0.176701 0.193070 0.086164
Si Si8 0.172646 0.054367 0.303000
O O1 0.500000 0.608813 0.994996
O O2 0.723360 0.555742 0.960342
O O3 0.722572 0.652450 0.943816
O O4 0.764042 0.623440 0.039627
O O5 0.500000 0.308400 0.191831
O O6 0.750000 0.306750 0.250000
O O7 0.770370 0.306931 0.146283
O O8 0.677305 0.384813 0.196569
O O9 0.500000 0.404877 0.595467
O O10 0.253528 0.379150 0.645132
O O11 0.254713 0.460082 0.582548
O O12 0.870844 0.204142 0.686317
O O13 0.750000 0.862238 0.250000
O O14 0.000000 0.880518 0.302816
O O15 0.233651 0.036668 0.358838
O O16 0.000000 0.011188 0.416738
O O17 0.196721 0.250000 0.065053
O O18 0.000000 0.179711 0.082615
O O19 0.250000 0.035851 0.250000
O O20 0.000000 0.038060 0.300856
#
# Coordination Sequence:
#
# PCOD9536659 Si02
#       8
#    16  16  16   4  16  16  16  16
#     4  11  23  44  68  89 120 166 218 268 322 384
#     4  10  19  35  58  86 117 156 204 256 312 368
#     4  12  26  42  62  98 135 169 210 258 313 374
#     4   8  22  40  78 104 132 172 220 248 318 382
#     4  10  21  42  70 103 135 168 211 259 313 377
#     4  10  21  40  64  89 123 169 216 265 322 381
#     4  11  24  41  61  88 123 161 206 263 324 379
#     4   9  18  33  54  85 119 155 204 252 305 365
#
# _framework density 19.403234999999999
#
# number of rings (size 3 to 8) (size 9 to 14) (size 15 to 20)
#    0.414    1.241    1.379    3.517    0.000    5.793 
#    1.241    1.379    0.000    0.000    0.000    0.000 
#    0.000    0.000    0.000    0.000    0.000    0.000 
#
# Total GULP energy -323204.475185 kJ/mol
# GULP energy per Si atom -5572.490951 kJ/mol
# Density = 1.935907 g / cm^3
# Si number density = 19.403235 Si / 1000 Ang^3
#
#
#
# Elastic Constant Matrix: (Units=GPa)
#
#
# Indices 1 2 3 4 5 6 
#
# 1 65.7627 19.7202 38.2600 0.0000 0.0000 0.0000
# 2 19.7202 54.6356 38.7510 0.0000 0.0000 0.0000
# 3 38.2600 38.7510 142.1440 0.0000 0.0000 0.0000
# 4 0.0000 0.0000 0.0000 5.6552 0.0000 0.0000
# 5 0.0000 0.0000 0.0000 0.0000 32.3947 0.0000
# 6 0.0000 0.0000 0.0000 0.0000 0.0000 9.7957
#
#
#
# Elastic Compliance Matrix: (Units=1/GPa)
#
#
# Indices 1 2 3 4 5 6 
#
# 1 0.018689 -0.003940 -0.003957 0.000000 0.000000 0.000000
# 2 -0.003940 0.023521 -0.005352 0.000000 0.000000 0.000000
# 3 -0.003957 -0.005352 0.009559 0.000000 0.000000 0.000000
# 4 0.000000 0.000000 0.000000 0.176829 0.000000 0.000000
# 5 0.000000 0.000000 0.000000 0.000000 0.030869 0.000000
# 6 0.000000 0.000000 0.000000 0.000000 0.000000 0.102086
#
#
# Mechanical properties :
#
#
# Convention : Reuss Voigt Hill
#
# Bulk Modulus (GPa) = 39.56702 50.66720 45.11711
# Shear Modulus (GPa) = 12.61119 20.62318 16.61718
#
# Velocity S-wave (km/s) = 2.55218 3.26371 2.92963
# Velocity P-wave (km/s) = 5.39640 6.35388 5.89461
#
# Compressibility (1/GPa) = 0.02527357
#
# Stress axis : x y z
#
# Youngs Moduli (GPa) = 53.50629 42.51536 104.61252
#
# Poissons Ratio (x) = 0.16749 0.41390
# Poissons Ratio (y) = 0.21079 0.55987
# Poissons Ratio (z) = 0.21170 0.22754
#
# Static dielectric constant tensor:
#      x y z
#    x 1.662220 0.000000 0.000000 
#    y 0.000000 1.689460 0.000000 
#    z 0.000000 0.000000 1.683260 
# 
# From -- ./inp_files/57900.got.cif
#   From: 2010.05.17/outbox.cif.g08.bks.cpg/sg74_29_cif.got.tgz:57900.got - 2010.06.03 17:57:02.
