data_PCOD9536216
_publ_section_title
;
Structure prediction by ZEFSAII (Michael W. Deem and Ramdas Pophale) SiO2 
 PCOD9536216
Probable space group: I M M A
;
_chemical_formula_sum "Si O2"
_cell_formula_units_Z 96
_cell_length_a 28.507749
_cell_length_b 8.214141
_cell_length_c 21.224869
_cell_angle_alpha 90.000000
_cell_angle_beta 90.000000
_cell_angle_gamma 90.000000
_cell_volume 4970.156892
_symmetry_space_group_name_H-M "I M M A"
_symmetry_group_IT_number 74
_symmetry_cell_setting 'orthorhombic'
loop_
_space_group_symop_operation_xyz
x,y,z
-x,1/2-y,z
x,-y,-z
-x,1/2+y,-z
-x,-y,-z
x,1/2+y,-z
-x,y,z
x,1/2-y,z
1/2+x,1/2+y,1/2+z
1/2-x,-y,1/2+z
1/2+x,1/2-y,1/2-z
1/2-x,y,1/2-z
1/2-x,1/2-y,1/2-z
1/2+x,y,1/2-z
1/2-x,1/2+y,1/2+z
1/2+x,-y,1/2+z
loop_
_atom_site_type_symbol
_atom_site_label
_atom_site_fract_x
_atom_site_fract_y
_atom_site_fract_z
Si Si1 0.611266 0.552969 0.690947
Si Si2 0.946000 0.446339 0.069310
Si Si3 0.222946 0.944495 0.569907
Si Si4 0.883996 0.444630 0.569998
Si Si5 0.218874 0.449187 0.190384
Si Si6 0.946256 0.553133 0.313173
O O1 0.611701 0.750000 0.689920
O O2 0.586426 0.496371 0.626502
O O3 0.665079 0.497032 0.695420
O O4 0.581316 0.499023 0.750885
O O5 0.946438 0.250000 0.070581
O O6 0.000000 0.502753 0.077820
O O7 0.930086 0.500000 0.000000
O O8 0.223366 0.750000 0.570625
O O9 0.256666 0.003575 0.625611
O O10 0.236932 0.000000 0.500000
O O11 0.169411 0.999171 0.581268
O O12 0.897956 0.500000 0.500000
O O13 0.884177 0.250000 0.570716
O O14 0.918215 0.504985 0.624993
O O15 0.218728 0.250000 0.190222
O O16 0.250000 0.500720 0.250000
O O17 0.946987 0.750000 0.315107
O O18 0.000000 0.495344 0.312150
#
# Coordination Sequence:
#
# PCOD9536216 Si02
#       6
#    16  16  16  16  16  16
#     4  10  20  35  55  78 103 134 176 218 254 303
#     4   9  18  32  50  73 100 130 165 205 248 295
#     4  10  19  33  54  78 106 139 173 212 258 307
#     4  10  20  35  55  78 105 137 173 213 257 309
#     4   9  18  32  51  75 102 133 169 209 252 297
#     4  10  22  38  54  76 107 138 169 212 266 317
#
# _framework density 19.315284999999999
#
# number of rings (size 3 to 8) (size 9 to 14) (size 15 to 20)
#    0.000    2.333    0.000    3.500    0.000    5.333 
#    0.000    3.333    0.000    4.500    0.000    0.000 
#    0.000    0.000    0.000    0.000    0.000    0.000 
#
# Total GULP energy -268005.068953 kJ/mol
# GULP energy per Si atom -5583.438937 kJ/mol
# Density = 1.927132 g / cm^3
# Si number density = 19.315285 Si / 1000 Ang^3
#
#
#
# Elastic Constant Matrix: (Units=GPa)
#
#
# Indices 1 2 3 4 5 6 
#
# 1 122.3827 9.9156 96.0493 0.0000 0.0000 0.0000
# 2 9.9156 15.8425 9.8456 0.0000 0.0000 0.0000
# 3 96.0493 9.8456 149.3425 0.0000 0.0000 0.0000
# 4 0.0000 0.0000 0.0000 27.8579 0.0000 0.0000
# 5 0.0000 0.0000 0.0000 0.0000 44.1350 0.0000
# 6 0.0000 0.0000 0.0000 0.0000 0.0000 83.7273
#
#
#
# Elastic Compliance Matrix: (Units=1/GPa)
#
#
# Indices 1 2 3 4 5 6 
#
# 1 0.016733 -0.003946 -0.010501 0.000000 0.000000 0.000000
# 2 -0.003946 0.066749 -0.001862 0.000000 0.000000 0.000000
# 3 -0.010501 -0.001862 0.013573 0.000000 0.000000 0.000000
# 4 0.000000 0.000000 0.000000 0.035897 0.000000 0.000000
# 5 0.000000 0.000000 0.000000 0.000000 0.022658 0.000000
# 6 0.000000 0.000000 0.000000 0.000000 0.000000 0.011944
#
#
# Mechanical properties :
#
#
# Convention : Reuss Voigt Hill
#
# Bulk Modulus (GPa) = 15.51982 57.68765 36.60373
# Shear Modulus (GPa) = 22.55808 42.59450 32.57629
#
# Velocity S-wave (km/s) = 3.42114 4.70107 4.11122
# Velocity P-wave (km/s) = 4.86396 7.70701 6.44422
#
# Compressibility (1/GPa) = 0.06443373
#
# Stress axis : x y z
#
# Youngs Moduli (GPa) = 59.76365 14.98155 73.67722
#
# Poissons Ratio (x) = 0.05912 0.77371
# Poissons Ratio (y) = 0.23586 0.13721
# Poissons Ratio (z) = 0.62760 0.02790
#
# Static dielectric constant tensor:
#      x y z
#    x 1.657340 0.000000 0.000000 
#    y 0.000000 1.683260 0.000000 
#    z 0.000000 0.000000 1.655440 
# 
# From -- ./inp_files/49149.got.cif
#   From: 2010.05.17/outbox.cif.g08.bks.cpg/sg74_25_cif.got.tgz:49149.got - 2010.06.03 17:57:02.
