data_PCOD9536854
_publ_section_title
;
Structure prediction by ZEFSAII (Michael W. Deem and Ramdas Pophale) SiO2 
 PCOD9536854
Probable space group: I M M A
;
_chemical_formula_sum "Si O2"
_cell_formula_units_Z 88
_cell_length_a 15.186804
_cell_length_b 12.273325
_cell_length_c 24.564353
_cell_angle_alpha 90.000000
_cell_angle_beta 90.000000
_cell_angle_gamma 90.000000
_cell_volume 4578.613161
_symmetry_space_group_name_H-M "I M M A"
_symmetry_group_IT_number 74
_symmetry_cell_setting 'orthorhombic'
loop_
_space_group_symop_operation_xyz
x,y,z
-x,1/2-y,z
x,-y,-z
-x,1/2+y,-z
-x,-y,-z
x,1/2+y,-z
-x,y,z
x,1/2-y,z
1/2+x,1/2+y,1/2+z
1/2-x,-y,1/2+z
1/2+x,1/2-y,1/2-z
1/2-x,y,1/2-z
1/2-x,1/2-y,1/2-z
1/2+x,y,1/2-z
1/2-x,1/2+y,1/2+z
1/2+x,-y,1/2+z
loop_
_atom_site_type_symbol
_atom_site_label
_atom_site_fract_x
_atom_site_fract_y
_atom_site_fract_z
Si Si1 0.394735 0.750000 0.644685
Si Si2 0.000000 0.122812 0.847050
Si Si3 0.394177 0.250000 0.225404
Si Si4 0.850870 0.026613 0.333792
Si Si5 0.756635 0.500000 0.500000
Si Si6 0.598337 0.874261 0.947354
Si Si7 0.330999 0.988592 0.615553
Si Si8 0.500000 0.623208 0.216458
O O1 0.500000 0.750000 0.635560
O O2 0.380266 0.750000 0.709822
O O3 0.353995 0.860300 0.620591
O O4 0.000000 0.115973 0.781672
O O5 0.000000 0.250000 0.862717
O O6 0.085545 0.060063 0.868610
O O7 0.500000 0.250000 0.215161
O O8 0.355685 0.359882 0.199292
O O9 0.887885 0.052197 0.394224
O O10 0.750752 0.990561 0.343748
O O11 0.914245 0.939699 0.305684
O O12 0.824797 0.598606 0.510644
O O13 0.699868 0.487338 0.554163
O O14 0.500000 0.888782 0.969729
O O15 0.606269 0.750000 0.928656
O O16 0.500000 0.750000 0.200455
#
# Coordination Sequence:
#
# PCOD9536854 Si02
#       8
#     8   8   8  16   8  16  16   8
#     4  11  23  41  67  98 139 159 216 274 340 387
#     4  11  26  48  66  88 127 176 232 274 317 378
#     4  11  19  33  65 108 137 177 192 257 335 407
#     4  11  21  37  67 101 140 167 213 252 330 404
#     4  10  25  39  64  90 130 168 218 262 336 370
#     4  10  19  37  64  96 132 168 207 262 317 392
#     4  11  25  45  65  96 127 171 219 281 324 389
#     4  11  24  41  64  95 137 181 212 259 317 394
#
# _framework density 19.219792999999999
#
# number of rings (size 3 to 8) (size 9 to 14) (size 15 to 20)
#    0.000    1.273    3.636    1.909    3.818    5.455 
#    0.000    4.545    0.000    0.000    0.000    0.000 
#    0.000    0.000    0.000    0.000    0.000    0.000 
#
# Total GULP energy -245948.939254 kJ/mol
# GULP energy per Si atom -5589.748619 kJ/mol
# Density = 1.917605 g / cm^3
# Si number density = 19.219793 Si / 1000 Ang^3
#
#
#
# Elastic Constant Matrix: (Units=GPa)
#
#
# Indices 1 2 3 4 5 6 
#
# 1 167.4964 77.3564 60.8189 0.0000 0.0000 0.0000
# 2 77.3564 134.3998 49.1363 0.0000 0.0000 0.0000
# 3 60.8189 49.1363 91.3253 0.0000 0.0000 0.0000
# 4 0.0000 0.0000 0.0000 26.3684 0.0000 0.0000
# 5 0.0000 0.0000 0.0000 0.0000 27.2825 0.0000
# 6 0.0000 0.0000 0.0000 0.0000 0.0000 26.2962
#
#
#
# Elastic Compliance Matrix: (Units=1/GPa)
#
#
# Indices 1 2 3 4 5 6 
#
# 1 0.009213 -0.003809 -0.004086 0.000000 0.000000 0.000000
# 2 -0.003809 0.010837 -0.003294 0.000000 0.000000 0.000000
# 3 -0.004086 -0.003294 0.015444 0.000000 0.000000 0.000000
# 4 0.000000 0.000000 0.000000 0.037924 0.000000 0.000000
# 5 0.000000 0.000000 0.000000 0.000000 0.036654 0.000000
# 6 0.000000 0.000000 0.000000 0.000000 0.000000 0.038028
#
#
# Mechanical properties :
#
#
# Convention : Reuss Voigt Hill
#
# Bulk Modulus (GPa) = 76.24786 85.31609 80.78197
# Shear Modulus (GPa) = 28.59591 29.71674 29.15632
#
# Velocity S-wave (km/s) = 3.86143 3.93638 3.89909
# Velocity P-wave (km/s) = 7.72260 8.07132 7.89888
#
# Compressibility (1/GPa) = 0.01311512
#
# Stress axis : x y z
#
# Youngs Moduli (GPa) = 108.54121 92.27559 64.75199
#
# Poissons Ratio (x) = 0.35146 0.26459
# Poissons Ratio (y) = 0.41342 0.21331
# Poissons Ratio (z) = 0.44353 0.30398
#
# Static dielectric constant tensor:
#      x y z
#    x 1.682460 0.000000 0.000000 
#    y 0.000000 1.654640 0.000000 
#    z 0.000000 0.000000 1.661540 
# 
# From -- ./inp_files/59881.got.cif
#   From: 2010.05.17/outbox.cif.g08.bks.cpg/sg74_30_cif.got.tgz:59881.got - 2010.06.03 17:57:02.
