data_PCOD9536646
_publ_section_title
;
Structure prediction by ZEFSAII (Michael W. Deem and Ramdas Pophale) SiO2 
 PCOD9536646
Probable space group: I M M A
;
_chemical_formula_sum "Si O2"
_cell_formula_units_Z 116
_cell_length_a 7.833532
_cell_length_b 23.695576
_cell_length_c 29.385061
_cell_angle_alpha 90.000000
_cell_angle_beta 90.000000
_cell_angle_gamma 90.000000
_cell_volume 5454.456576
_symmetry_space_group_name_H-M "I M M A"
_symmetry_group_IT_number 74
_symmetry_cell_setting 'orthorhombic'
loop_
_space_group_symop_operation_xyz
x,y,z
-x,1/2-y,z
x,-y,-z
-x,1/2+y,-z
-x,-y,-z
x,1/2+y,-z
-x,y,z
x,1/2-y,z
1/2+x,1/2+y,1/2+z
1/2-x,-y,1/2+z
1/2+x,1/2-y,1/2-z
1/2-x,y,1/2-z
1/2-x,1/2-y,1/2-z
1/2+x,y,1/2-z
1/2-x,1/2+y,1/2+z
1/2+x,-y,1/2+z
loop_
_atom_site_type_symbol
_atom_site_label
_atom_site_fract_x
_atom_site_fract_y
_atom_site_fract_z
Si Si1 0.296326 0.560207 0.699432
Si Si2 0.000000 0.750000 0.816263
Si Si3 0.206015 0.023341 0.449147
Si Si4 0.803600 0.652754 0.938592
Si Si5 0.205927 0.812096 0.460493
Si Si6 0.702935 0.431402 0.700114
Si Si7 0.202927 0.086597 0.601832
Si Si8 0.812216 0.170196 0.342357
O O1 0.500000 0.560005 0.693282
O O2 0.250000 0.580821 0.750000
O O3 0.230552 0.496046 0.696871
O O4 0.211996 0.603368 0.665116
O O5 0.153230 0.701451 0.819246
O O6 0.282375 0.084982 0.441362
O O7 0.000000 0.029733 0.445869
O O8 0.242543 0.000000 0.500000
O O9 0.267794 0.974979 0.414143
O O10 0.700700 0.678400 0.896522
O O11 0.000000 0.666760 0.929338
O O12 0.750338 0.676689 0.987199
O O13 0.267954 0.750000 0.446754
O O14 0.272468 0.863483 0.429820
O O15 0.000000 0.812199 0.456712
O O16 0.500000 0.433545 0.697944
O O17 0.750000 0.408896 0.750000
O O18 0.766736 0.401565 0.654746
O O19 0.000000 0.083931 0.593883
O O20 0.000000 0.186426 0.325270
#
# Coordination Sequence:
#
# PCOD9536646 Si02
#       8
#    16   4  16  16  16  16  16  16
#     4  10  20  39  64  93 125 156 199 249 306 380
#     4  12  26  48  62  90 120 152 224 264 316 378
#     4  10  19  35  57  84 120 160 203 246 308 376
#     4  12  24  38  57  87 124 160 210 262 308 373
#     4  10  22  40  61  84 112 160 212 252 303 365
#     4  10  21  36  61  93 125 158 195 242 304 370
#     4  10  20  36  59  87 124 156 197 255 305 369
#     4  12  25  43  66  88 120 163 205 267 324 367
#
# _framework density 21.267014
#
# number of rings (size 3 to 8) (size 9 to 14) (size 15 to 20)
#    0.000    1.379    2.759    3.103    0.966    5.517 
#    0.000    0.345    0.000    0.414    0.000    0.000 
#    0.000    0.000    0.000    0.000    0.000    0.000 
#
# Total GULP energy -323772.355640 kJ/mol
# GULP energy per Si atom -5582.281994 kJ/mol
# Density = 2.121861 g / cm^3
# Si number density = 21.267014 Si / 1000 Ang^3
#
#
#
# Elastic Constant Matrix: (Units=GPa)
#
#
# Indices 1 2 3 4 5 6 
#
# 1 82.4694 8.5067 -13.0559 0.0000 0.0000 0.0000
# 2 8.5067 59.1999 -2.5694 0.0000 0.0000 0.0000
# 3 -13.0559 -2.5694 67.9608 0.0000 0.0000 0.0000
# 4 0.0000 0.0000 0.0000 -29.9658 0.0000 0.0000
# 5 0.0000 0.0000 0.0000 0.0000 19.8854 0.0000
# 6 0.0000 0.0000 0.0000 0.0000 0.0000 -7.3134
#
#
#
# Elastic Compliance Matrix: (Units=1/GPa)
#
#
# Indices 1 2 3 4 5 6 
#
# 1 0.012678 -0.001719 0.002371 0.000000 0.000000 0.000000
# 2 -0.001719 0.017153 0.000318 0.000000 0.000000 0.000000
# 3 0.002371 0.000318 0.015182 0.000000 0.000000 0.000000
# 4 0.000000 0.000000 0.000000 -0.033371 0.000000 0.000000
# 5 0.000000 0.000000 0.000000 0.000000 0.050288 0.000000
# 6 0.000000 0.000000 0.000000 0.000000 0.000000 -0.136736
#
#
# Mechanical properties :
#
#
# Convention : Reuss Voigt Hill
#
# Bulk Modulus (GPa) = 21.29796 21.71032 21.50414
# Shear Modulus (GPa) = -81.83954 10.97117 -35.43418
#
# Velocity S-wave (km/s) = -6.21011 2.27376 -4.08629
# Velocity P-wave (km/s) = 6.43306 4.13810 3.48284
#
# Compressibility (1/GPa) = 0.04695286
#
# Stress axis : x y z
#
# Youngs Moduli (GPa) = 78.87477 58.29977 65.86827
#
# Poissons Ratio (x) = 0.10021 -0.15615
# Poissons Ratio (y) = 0.13558 -0.02096
# Poissons Ratio (z) = -0.18698 -0.01856
#
# Static dielectric constant tensor:
#      x y z
#    x 1.766590 0.000000 0.000000 
#    y 0.000000 1.786710 0.000000 
#    z 0.000000 0.000000 1.892510 
# 
# From -- ./inp_files/64897.got.cif
#   From: 2010.05.17/outbox.cif.g08.bks.cpg/sg74_33_cif.got.tgz:64897.got - 2010.06.03 17:57:02.
