data_PCOD9536487
_publ_section_title
;
Structure prediction by ZEFSAII (Michael W. Deem and Ramdas Pophale) SiO2 
 PCOD9536487
Probable space group: I M M A
;
_chemical_formula_sum "Si O2"
_cell_formula_units_Z 80
_cell_length_a 25.490962
_cell_length_b 18.988022
_cell_length_c 9.011742
_cell_angle_alpha 90.000000
_cell_angle_beta 90.000000
_cell_angle_gamma 90.000000
_cell_volume 4361.889923
_symmetry_space_group_name_H-M "I M M A"
_symmetry_group_IT_number 74
_symmetry_cell_setting 'orthorhombic'
loop_
_space_group_symop_operation_xyz
x,y,z
-x,1/2-y,z
x,-y,-z
-x,1/2+y,-z
-x,-y,-z
x,1/2+y,-z
-x,y,z
x,1/2-y,z
1/2+x,1/2+y,1/2+z
1/2-x,-y,1/2+z
1/2+x,1/2-y,1/2-z
1/2-x,y,1/2-z
1/2-x,1/2-y,1/2-z
1/2+x,y,1/2-z
1/2-x,1/2+y,1/2+z
1/2+x,-y,1/2+z
loop_
_atom_site_type_symbol
_atom_site_label
_atom_site_fract_x
_atom_site_fract_y
_atom_site_fract_z
Si Si1 0.561866 0.671301 0.208914
Si Si2 0.867767 0.669299 0.993403
Si Si3 0.558846 0.057486 0.366881
Si Si4 0.113052 0.032361 0.648438
Si Si5 0.705796 0.941467 0.374860
O O1 0.500000 0.657252 0.228917
O O2 0.567586 0.750000 0.146049
O O3 0.592055 0.670377 0.366426
O O4 0.590116 0.609705 0.119626
O O5 0.859406 0.750000 0.946770
O O6 0.814776 0.629735 0.045465
O O7 0.897847 0.618169 0.880093
O O8 0.500000 0.086136 0.380075
O O9 0.565459 0.000000 0.500000
O O10 0.566763 0.015349 0.214891
O O11 0.155649 0.033438 0.779165
O O12 0.135724 0.000000 0.500000
O O13 0.750000 0.930070 0.250000
O O14 0.718814 0.000000 0.500000
#
# Coordination Sequence:
#
# PCOD9536487 Si02
#       5
#    16  16  16  16  16
#     4   9  17  30  50  77 109 146 187 228 275 333
#     4  10  19  34  56  83 117 149 187 235 287 346
#     4  11  19  33  56  83 116 150 190 236 284 342
#     4  11  21  35  54  82 114 152 191 237 286 341
#     4  11  21  39  62  87 108 143 193 249 298 346
#
# _framework density 18.340675000000001
#
# number of rings (size 3 to 8) (size 9 to 14) (size 15 to 20)
#    0.000    1.600    6.000    1.800    0.000    3.200 
#    0.000    1.000    0.000    0.600    0.000    0.000 
#    0.000    0.000    0.000    0.000    0.000    0.000 
#
# Total GULP energy -222972.624009 kJ/mol
# GULP energy per Si atom -5574.315600 kJ/mol
# Density = 1.829893 g / cm^3
# Si number density = 18.340675 Si / 1000 Ang^3
#
#
#
# Elastic Constant Matrix: (Units=GPa)
#
#
# Indices 1 2 3 4 5 6 
#
# 1 84.9556 37.4787 5.9209 0.0000 0.0000 0.0000
# 2 37.4787 129.9416 23.0231 0.0000 0.0000 0.0000
# 3 5.9209 23.0231 34.6800 0.0000 0.0000 0.0000
# 4 0.0000 0.0000 0.0000 15.2085 0.0000 0.0000
# 5 0.0000 0.0000 0.0000 0.0000 17.1339 0.0000
# 6 0.0000 0.0000 0.0000 0.0000 0.0000 12.2946
#
#
#
# Elastic Compliance Matrix: (Units=1/GPa)
#
#
# Indices 1 2 3 4 5 6 
#
# 1 0.013490 -0.003947 0.000317 0.000000 0.000000 0.000000
# 2 -0.003947 0.009877 -0.005883 0.000000 0.000000 0.000000
# 3 0.000317 -0.005883 0.032686 0.000000 0.000000 0.000000
# 4 0.000000 0.000000 0.000000 0.065753 0.000000 0.000000
# 5 0.000000 0.000000 0.000000 0.000000 0.058364 0.000000
# 6 0.000000 0.000000 0.000000 0.000000 0.000000 0.081337
#
#
# Mechanical properties :
#
#
# Convention : Reuss Voigt Hill
#
# Bulk Modulus (GPa) = 27.00695 42.49138 34.74916
# Shear Modulus (GPa) = 17.07217 21.13769 19.10493
#
# Velocity S-wave (km/s) = 3.05427 3.39854 3.23099
# Velocity P-wave (km/s) = 5.21490 6.21435 5.73644
#
# Compressibility (1/GPa) = 0.03702751
#
# Stress axis : x y z
#
# Youngs Moduli (GPa) = 74.12879 101.24990 30.59373
#
# Poissons Ratio (x) = 0.39964 -0.00971
# Poissons Ratio (y) = 0.29259 0.17998
# Poissons Ratio (z) = -0.02352 0.59564
#
# Static dielectric constant tensor:
#      x y z
#    x 1.655200 0.000000 0.000000 
#    y 0.000000 1.656550 0.000000 
#    z 0.000000 0.000000 1.639140 
# 
# From -- ./inp_files/10951.got.cif
#   From: 2010.05.17/outbox.cif.g08.bks.cpg/sg74_6_cif.got.tgz:10951.got - 2010.06.03 17:57:02.
