data_PCOD9536089
_publ_section_title
;
Structure prediction by ZEFSAII (Michael W. Deem and Ramdas Pophale) SiO2 
 PCOD9536089
Probable space group: I M M A
;
_chemical_formula_sum "Si O2"
_cell_formula_units_Z 72
_cell_length_a 23.386115
_cell_length_b 9.426549
_cell_length_c 18.457311
_cell_angle_alpha 90.000000
_cell_angle_beta 90.000000
_cell_angle_gamma 90.000000
_cell_volume 4068.920836
_symmetry_space_group_name_H-M "I M M A"
_symmetry_group_IT_number 74
_symmetry_cell_setting 'orthorhombic'
loop_
_space_group_symop_operation_xyz
x,y,z
-x,1/2-y,z
x,-y,-z
-x,1/2+y,-z
-x,-y,-z
x,1/2+y,-z
-x,y,z
x,1/2-y,z
1/2+x,1/2+y,1/2+z
1/2-x,-y,1/2+z
1/2+x,1/2-y,1/2-z
1/2-x,y,1/2-z
1/2-x,1/2-y,1/2-z
1/2+x,y,1/2-z
1/2-x,1/2+y,1/2+z
1/2+x,-y,1/2+z
loop_
_atom_site_type_symbol
_atom_site_label
_atom_site_fract_x
_atom_site_fract_y
_atom_site_fract_z
Si Si1 0.175686 0.407426 0.374222
Si Si2 0.000000 0.591916 0.394942
Si Si3 0.599000 0.500000 0.000000
Si Si4 0.277107 0.087514 0.668954
Si Si5 0.884079 0.419308 0.219539
Si Si6 0.500000 0.923592 0.265374
O O1 0.199798 0.250000 0.361268
O O2 0.138722 0.410019 0.447033
O O3 0.226602 0.520111 0.378517
O O4 0.135854 0.439165 0.304061
O O5 0.055401 0.573182 0.444377
O O6 0.000000 0.514411 0.318387
O O7 0.000000 0.750000 0.368647
O O8 0.290601 0.250000 0.649689
O O9 0.250000 0.088285 0.750000
O O10 0.332369 0.987516 0.673521
O O11 0.890676 0.250000 0.208156
O O12 0.941659 0.507687 0.204781
O O13 0.500000 0.750000 0.274287
#
# Coordination Sequence:
#
# PCOD9536089 Si02
#       6
#    16   8   8  16  16   8
#     4  10  20  32  48  68  93 127 166 208 249 292
#     4  10  21  32  44  63  96 138 175 210 238 276
#     4  11  20  34  46  68  96 137 176 208 242 287
#     4   9  18  32  50  69  89 118 157 204 254 300
#     4  10  19  33  49  69  94 124 162 205 251 297
#     4  11  20  32  48  70  98 131 169 205 244 289
#
# _framework density 17.695108999999999
#
# number of rings (size 3 to 8) (size 9 to 14) (size 15 to 20)
#    0.000    2.000    2.222    2.333    0.000    5.333 
#    0.000    0.000    0.000    0.000    0.000    0.000 
#    0.000    0.889    0.000    2.778    0.000    3.444 
#
# Total GULP energy -200409.307280 kJ/mol
# GULP energy per Si atom -5566.925202 kJ/mol
# Density = 1.765483 g / cm^3
# Si number density = 17.695109 Si / 1000 Ang^3
#
#
#
# Elastic Constant Matrix: (Units=GPa)
#
#
# Indices 1 2 3 4 5 6 
#
# 1 128.8224 72.6821 16.9423 0.0000 0.0000 0.0000
# 2 72.6821 118.0382 7.4442 0.0000 0.0000 0.0000
# 3 16.9423 7.4442 15.6026 0.0000 0.0000 0.0000
# 4 0.0000 0.0000 0.0000 11.6872 0.0000 0.0000
# 5 0.0000 0.0000 0.0000 0.0000 20.8669 0.0000
# 6 0.0000 0.0000 0.0000 0.0000 0.0000 -20.3716
#
#
#
# Elastic Compliance Matrix: (Units=1/GPa)
#
#
# Indices 1 2 3 4 5 6 
#
# 1 0.013518 -0.007627 -0.011040 0.000000 0.000000 0.000000
# 2 -0.007627 0.013038 0.002062 0.000000 0.000000 0.000000
# 3 -0.011040 0.002062 0.075096 0.000000 0.000000 0.000000
# 4 0.000000 0.000000 0.000000 0.085564 0.000000 0.000000
# 5 0.000000 0.000000 0.000000 0.000000 0.047923 0.000000
# 6 0.000000 0.000000 0.000000 0.000000 0.000000 -0.049088
#
#
# Mechanical properties :
#
#
# Convention : Reuss Voigt Hill
#
# Bulk Modulus (GPa) = 14.61108 50.73336 32.67222
# Shear Modulus (GPa) = 20.65476 13.46281 17.05878
#
# Velocity S-wave (km/s) = 3.42022 2.76129 3.10827
# Velocity P-wave (km/s) = 4.88593 6.23694 5.60231
#
# Compressibility (1/GPa) = 0.06844123
#
# Stress axis : x y z
#
# Youngs Moduli (GPa) = 73.97565 76.69630 13.31637
#
# Poissons Ratio (x) = 0.58500 0.14701
# Poissons Ratio (y) = 0.56425 -0.02745
# Poissons Ratio (z) = 0.81665 -0.15812
#
# Static dielectric constant tensor:
#      x y z
#    x 1.606180 0.000000 0.000000 
#    y 0.000000 1.628460 0.000000 
#    z 0.000000 0.000000 1.598490 
# 
# From -- ./inp_files/61302.got.cif
#   From: 2010.05.17/outbox.cif.g08.bks.cpg/sg74_31_cif.got.tgz:61302.got - 2010.06.03 17:57:02.
