data_PCOD9536064
_publ_section_title
;
Structure prediction by ZEFSAII (Michael W. Deem and Ramdas Pophale) SiO2 
 PCOD9536064
Probable space group: I M M A
;
_chemical_formula_sum "Si O2"
_cell_formula_units_Z 96
_cell_length_a 15.156128
_cell_length_b 14.741166
_cell_length_c 20.601238
_cell_angle_alpha 90.000000
_cell_angle_beta 90.000000
_cell_angle_gamma 90.000000
_cell_volume 4602.707967
_symmetry_space_group_name_H-M "I M M A"
_symmetry_group_IT_number 74
_symmetry_cell_setting 'orthorhombic'
loop_
_space_group_symop_operation_xyz
x,y,z
-x,1/2-y,z
x,-y,-z
-x,1/2+y,-z
-x,-y,-z
x,1/2+y,-z
-x,y,z
x,1/2-y,z
1/2+x,1/2+y,1/2+z
1/2-x,-y,1/2+z
1/2+x,1/2-y,1/2-z
1/2-x,y,1/2-z
1/2-x,1/2-y,1/2-z
1/2+x,y,1/2-z
1/2-x,1/2+y,1/2+z
1/2+x,-y,1/2+z
loop_
_atom_site_type_symbol
_atom_site_label
_atom_site_fract_x
_atom_site_fract_y
_atom_site_fract_z
Si Si1 0.398951 0.034715 0.845564
Si Si2 0.656709 0.147934 0.220327
Si Si3 0.740458 0.353330 0.601909
Si Si4 0.403784 0.599701 0.644489
Si Si5 0.901887 0.396578 0.800635
Si Si6 0.398677 0.141099 0.492385
O O1 0.500000 0.042153 0.869387
O O2 0.323077 0.079915 0.888766
O O3 0.394608 0.087230 0.776179
O O4 0.379064 0.929386 0.827010
O O5 0.664255 0.250000 0.192993
O O6 0.750000 0.116076 0.250000
O O7 0.605911 0.152256 0.288414
O O8 0.769131 0.250000 0.586683
O O9 0.681774 0.349771 0.667655
O O10 0.669813 0.386049 0.548249
O O11 0.500000 0.625315 0.620054
O O12 0.399930 0.496507 0.667183
O O13 0.354113 0.616225 0.577420
O O14 0.000000 0.357888 0.814567
O O15 0.500000 0.106867 0.506460
O O16 0.403966 0.250000 0.494390
#
# Coordination Sequence:
#
# PCOD9536064 Si02
#       6
#    16  16  16  16  16  16
#     4  10  21  36  53  75 106 144 189 236 275 320
#     4  10  19  32  55  87 119 148 177 215 274 346
#     4  11  22  35  51  73 108 151 192 238 283 319
#     4   9  17  31  53  82 117 149 174 211 271 346
#     4   9  18  32  51  77 107 140 179 223 277 340
#     4   9  18  32  52  82 116 148 185 227 276 340
#
# _framework density 20.857285999999998
#
# number of rings (size 3 to 8) (size 9 to 14) (size 15 to 20)
#    0.000    2.333    0.000    5.000    0.000    5.333 
#    0.000    4.167    0.000    0.000    0.000   10.500 
#    0.000   18.667    0.000    0.000    0.000    0.000 
#
# Total GULP energy -267383.349282 kJ/mol
# GULP energy per Si atom -5570.486443 kJ/mol
# Density = 2.080981 g / cm^3
# Si number density = 20.857286 Si / 1000 Ang^3
#
#
#
# Elastic Constant Matrix: (Units=GPa)
#
#
# Indices 1 2 3 4 5 6 
#
# 1 121.0587 40.6803 27.8352 0.0000 0.0000 0.0000
# 2 40.6803 80.1376 12.1488 0.0000 0.0000 0.0000
# 3 27.8352 12.1488 45.4550 0.0000 0.0000 0.0000
# 4 0.0000 0.0000 0.0000 13.9369 0.0000 0.0000
# 5 0.0000 0.0000 0.0000 0.0000 376.3666 0.0000
# 6 0.0000 0.0000 0.0000 0.0000 0.0000 13.8024
#
#
#
# Elastic Compliance Matrix: (Units=1/GPa)
#
#
# Indices 1 2 3 4 5 6 
#
# 1 0.011155 -0.004823 -0.005542 0.000000 0.000000 0.000000
# 2 -0.004823 0.015090 -0.001080 0.000000 0.000000 0.000000
# 3 -0.005542 -0.001080 0.025682 0.000000 0.000000 0.000000
# 4 0.000000 0.000000 0.000000 0.071752 0.000000 0.000000
# 5 0.000000 0.000000 0.000000 0.000000 0.002657 0.000000
# 6 0.000000 0.000000 0.000000 0.000000 0.000000 0.072451
#
#
# Mechanical properties :
#
#
# Convention : Reuss Voigt Hill
#
# Bulk Modulus (GPa) = 34.43724 45.33110 39.88417
# Shear Modulus (GPa) = 21.61161 91.88700 56.74930
#
# Velocity S-wave (km/s) = 3.22245 6.64460 5.22182
# Velocity P-wave (km/s) = 5.51292 8.98047 7.45121
#
# Compressibility (1/GPa) = 0.02903833
#
# Stress axis : x y z
#
# Youngs Moduli (GPa) = 89.64288 66.26743 38.93731
#
# Poissons Ratio (x) = 0.31958 0.21580
# Poissons Ratio (y) = 0.43231 0.04205
# Poissons Ratio (z) = 0.49682 0.07157
#
# Static dielectric constant tensor:
#      x y z
#    x 1.670190 0.000000 0.000000 
#    y 0.000000 1.802920 0.000000 
#    z 0.000000 0.000000 2.071220 
# 
# From -- ./inp_files/51862.got.cif
#   From: 2010.05.17/outbox.cif.g08.bks.cpg/sg74_26_cif.got.tgz:51862.got - 2010.06.03 17:57:02.
