data_PCOD9536868
_publ_section_title
;
Structure prediction by ZEFSAII (Michael W. Deem and Ramdas Pophale) SiO2 
 PCOD9536868
Probable space group: I M M A
;
_chemical_formula_sum "Si O2"
_cell_formula_units_Z 64
_cell_length_a 16.908324
_cell_length_b 26.440731
_cell_length_c 7.513111
_cell_angle_alpha 90.000000
_cell_angle_beta 90.000000
_cell_angle_gamma 90.000000
_cell_volume 3358.874863
_symmetry_space_group_name_H-M "I M M A"
_symmetry_group_IT_number 74
_symmetry_cell_setting 'orthorhombic'
loop_
_space_group_symop_operation_xyz
x,y,z
-x,1/2-y,z
x,-y,-z
-x,1/2+y,-z
-x,-y,-z
x,1/2+y,-z
-x,y,z
x,1/2-y,z
1/2+x,1/2+y,1/2+z
1/2-x,-y,1/2+z
1/2+x,1/2-y,1/2-z
1/2-x,y,1/2-z
1/2-x,1/2-y,1/2-z
1/2+x,y,1/2-z
1/2-x,1/2+y,1/2+z
1/2+x,-y,1/2+z
loop_
_atom_site_type_symbol
_atom_site_label
_atom_site_fract_x
_atom_site_fract_y
_atom_site_fract_z
Si Si1 0.171519 0.651387 0.350147
Si Si2 0.590025 0.614204 0.486878
Si Si3 0.744646 0.557496 0.540157
Si Si4 0.654942 0.307030 0.226638
O O1 0.250000 0.672920 0.250000
O O2 0.106936 0.642439 0.199210
O O3 0.202191 0.598107 0.434783
O O4 0.141821 0.682949 0.517843
O O5 0.500000 0.597999 0.503153
O O6 0.654116 0.569320 0.488770
O O7 0.613409 0.652266 0.646782
O O8 0.766787 0.500000 0.500000
O O9 0.750000 0.566594 0.750000
O O10 0.631853 0.250000 0.275716
O O11 0.750000 0.311768 0.250000
#
# Coordination Sequence:
#
# PCOD9536868 Si02
#       4
#    16  16  16  16
#     4  10  19  38  59  90 115 153 201 245 294 344
#     4  11  23  39  58  87 127 157 192 246 303 352
#     4  11  20  39  65  88 114 154 202 246 292 353
#     4  11  21  38  64  88 115 157 206 247 292 353
#
# _framework density 19.053999999999998
#
# number of rings (size 3 to 8) (size 9 to 14) (size 15 to 20)
#    0.000    1.250    7.500    2.250    0.000    3.500 
#    0.000    0.000    0.000    3.000    0.000    0.000 
#    0.000    0.000    0.000    0.000    0.000    0.000 
#
# Total GULP energy -178675.637087 kJ/mol
# GULP energy per Si atom -5583.613659 kJ/mol
# Density = 1.901063 g / cm^3
# Si number density = 19.054000 Si / 1000 Ang^3
#
#
#
# Elastic Constant Matrix: (Units=GPa)
#
#
# Indices 1 2 3 4 5 6 
#
# 1 51.4720 -4.8538 -2.8653 0.0000 0.0000 0.0000
# 2 -4.8538 51.1162 -7.9056 0.0000 0.0000 0.0000
# 3 -2.8653 -7.9056 119.8409 0.0003 0.0000 -0.0002
# 4 0.0000 0.0000 0.0003 21.8816 0.0000 0.0000
# 5 0.0000 0.0000 0.0000 0.0000 13.7952 0.0000
# 6 0.0000 0.0000 -0.0002 0.0000 0.0000 8.6132
#
#
#
# Elastic Compliance Matrix: (Units=1/GPa)
#
#
# Indices 1 2 3 4 5 6 
#
# 1 0.019646 0.001958 0.000599 0.000000 0.000000 0.000000
# 2 0.001958 0.019960 0.001364 0.000000 0.000000 0.000000
# 3 0.000599 0.001364 0.008449 0.000000 0.000000 0.000000
# 4 0.000000 0.000000 0.000000 0.045700 0.000000 0.000000
# 5 0.000000 0.000000 0.000000 0.000000 0.072489 0.000000
# 6 0.000000 0.000000 0.000000 0.000000 0.000000 0.116101
#
#
# Mechanical properties :
#
#
# Convention : Reuss Voigt Hill
#
# Bulk Modulus (GPa) = 17.89038 21.24218 19.56628
# Shear Modulus (GPa) = 17.05690 24.72825 20.89257
#
# Velocity S-wave (km/s) = 2.99521 3.60640 3.31493
# Velocity P-wave (km/s) = 4.62292 5.33986 4.99428
#
# Compressibility (1/GPa) = 0.05589597
#
# Stress axis : x y z
#
# Youngs Moduli (GPa) = 50.90082 50.09996 118.36191
#
# Poissons Ratio (x) = -0.09810 -0.07089
# Poissons Ratio (y) = -0.09967 -0.16139
# Poissons Ratio (z) = -0.03048 -0.06831
#
# Static dielectric constant tensor:
#      x y z
#    x 1.645820 0.000000 0.000000 
#    y 0.000000 1.668530 0.000000 
#    z 0.000000 0.000000 1.683730 
# 
# From -- ./inp_files/10772.got.cif
#   From: 2010.05.17/outbox.cif.g08.bks.cpg/sg74_6_cif.got.tgz:10772.got - 2010.06.03 17:57:02.
