data_PCOD9536887
_publ_section_title
;
Structure prediction by ZEFSAII (Michael W. Deem and Ramdas Pophale) SiO2 
 PCOD9536887
Probable space group: I M M A
;
_chemical_formula_sum "Si O2"
_cell_formula_units_Z 72
_cell_length_a 14.687203
_cell_length_b 24.305331
_cell_length_c 11.159498
_cell_angle_alpha 90.000000
_cell_angle_beta 90.000000
_cell_angle_gamma 90.000000
_cell_volume 3983.687804
_symmetry_space_group_name_H-M "I M M A"
_symmetry_group_IT_number 74
_symmetry_cell_setting 'orthorhombic'
loop_
_space_group_symop_operation_xyz
x,y,z
-x,1/2-y,z
x,-y,-z
-x,1/2+y,-z
-x,-y,-z
x,1/2+y,-z
-x,y,z
x,1/2-y,z
1/2+x,1/2+y,1/2+z
1/2-x,-y,1/2+z
1/2+x,1/2-y,1/2-z
1/2-x,y,1/2-z
1/2-x,1/2-y,1/2-z
1/2+x,y,1/2-z
1/2-x,1/2+y,1/2+z
1/2+x,-y,1/2+z
loop_
_atom_site_type_symbol
_atom_site_label
_atom_site_fract_x
_atom_site_fract_y
_atom_site_fract_z
Si Si1 0.500000 0.435191 0.963261
Si Si2 0.500000 0.110443 0.225779
Si Si3 0.143047 0.584520 0.256585
Si Si4 0.892242 0.313722 0.910188
Si Si5 0.657745 0.313806 0.325609
Si Si6 0.000000 0.505771 0.139993
O O1 0.410655 0.420777 0.883044
O O2 0.500000 0.500000 0.000000
O O3 0.500000 0.400944 0.084831
O O4 0.413513 0.145296 0.266941
O O5 0.500000 0.052031 0.292639
O O6 0.250000 0.572518 0.250000
O O7 0.129028 0.644255 0.196081
O O8 0.087840 0.540700 0.177741
O O9 0.875676 0.250000 0.877305
O O10 0.000000 0.319261 0.940048
O O11 0.836965 0.326608 0.032102
O O12 0.626167 0.250000 0.320090
O O13 0.750000 0.317586 0.250000
O O14 0.000000 0.500000 0.000000
#
# Coordination Sequence:
#
# PCOD9536887 Si02
#       6
#     8   8  16  16  16   8
#     4  11  24  47  57  86 132 163 198 258 312 362
#     4  12  22  39  65  85 126 167 198 250 318 363
#     4  11  24  42  64  90 122 161 206 252 305 362
#     4  10  19  39  66  88 122 164 205 253 302 362
#     4  10  22  39  62  96 127 157 203 254 308 365
#     4  11  23  43  63  92 119 155 215 255 298 372
#
# _framework density 18.073706000000001
#
# number of rings (size 3 to 8) (size 9 to 14) (size 15 to 20)
#    0.000    1.333    5.556    1.667    3.111    2.222 
#    0.000    2.222    0.000    0.000    0.000    0.000 
#    0.000    0.000    0.000    0.000    0.000    0.000 
#
# Total GULP energy -200939.311419 kJ/mol
# GULP energy per Si atom -5581.647539 kJ/mol
# Density = 1.803257 g / cm^3
# Si number density = 18.073706 Si / 1000 Ang^3
#
#
#
# Elastic Constant Matrix: (Units=GPa)
#
#
# Indices 1 2 3 4 5 6 
#
# 1 123.7269 60.6679 49.1777 -0.0001 0.0000 0.0000
# 2 60.6679 120.8726 75.3798 0.0000 0.0001 0.0000
# 3 49.1777 75.3798 146.9466 -0.0020 0.0002 0.0001
# 4 -0.0001 0.0000 -0.0020 43.0860 0.0001 0.0001
# 5 0.0000 0.0001 0.0002 0.0001 -1.5579 0.0001
# 6 0.0000 0.0000 0.0001 0.0001 0.0001 -6.4986
#
#
#
# Elastic Compliance Matrix: (Units=1/GPa)
#
#
# Indices 1 2 3 4 5 6 
#
# 1 0.010871 -0.004687 -0.001234 0.000000 -0.000001 0.000000
# 2 -0.004687 0.014185 -0.005708 0.000000 0.000000 0.000000
# 3 -0.001234 -0.005708 0.010146 0.000000 0.000001 0.000000
# 4 0.000000 0.000000 0.000000 0.023209 0.000001 0.000000
# 5 -0.000001 0.000000 0.000001 0.000001 -0.641876 -0.000005
# 6 0.000000 0.000000 0.000000 0.000000 -0.000005 -0.153880
#
#
# Mechanical properties :
#
#
# Convention : Reuss Voigt Hill
#
# Bulk Modulus (GPa) = 83.71883 84.66632 84.19258
# Shear Modulus (GPa) = -7.04122 20.76062 6.85970
#
# Velocity S-wave (km/s) = -1.97593 3.39287 1.95029
# Velocity P-wave (km/s) = 6.41994 7.89275 7.19413
#
# Compressibility (1/GPa) = 0.01194474
#
# Stress axis : x y z
#
# Youngs Moduli (GPa) = 91.98922 70.49523 98.55804
#
# Poissons Ratio (x) = 0.33039 0.12161
# Poissons Ratio (y) = 0.43113 0.56259
# Poissons Ratio (z) = 0.11350 0.40240
#
# Static dielectric constant tensor:
#      x y z
#    x 1.591380 0.000000 0.000000 
#    y 0.000000 1.611240 0.000000 
#    z 0.000000 0.000000 1.637440 
# 
# From -- ./inp_files/20423.got.cif
#   From: 2010.05.17/outbox.cif.g08.bks.cpg/sg74_11_cif.got.tgz:20423.got - 2010.06.03 17:57:02.
