data_PCOD9536009
_publ_section_title
;
Structure prediction by ZEFSAII (Michael W. Deem and Ramdas Pophale) SiO2 
 PCOD9536009
Probable space group: I M M A
;
_chemical_formula_sum "Si O2"
_cell_formula_units_Z 116
_cell_length_a 7.609921
_cell_length_b 24.079042
_cell_length_c 30.015454
_cell_angle_alpha 90.000000
_cell_angle_beta 90.000000
_cell_angle_gamma 90.000000
_cell_volume 5500.020006
_symmetry_space_group_name_H-M "I M M A"
_symmetry_group_IT_number 74
_symmetry_cell_setting 'orthorhombic'
loop_
_space_group_symop_operation_xyz
x,y,z
-x,1/2-y,z
x,-y,-z
-x,1/2+y,-z
-x,-y,-z
x,1/2+y,-z
-x,y,z
x,1/2-y,z
1/2+x,1/2+y,1/2+z
1/2-x,-y,1/2+z
1/2+x,1/2-y,1/2-z
1/2-x,y,1/2-z
1/2-x,1/2-y,1/2-z
1/2+x,y,1/2-z
1/2-x,1/2+y,1/2+z
1/2+x,-y,1/2+z
loop_
_atom_site_type_symbol
_atom_site_label
_atom_site_fract_x
_atom_site_fract_y
_atom_site_fract_z
Si Si1 0.000000 0.250000 0.686228
Si Si2 0.789380 0.930757 0.699984
Si Si3 0.710362 0.312862 0.469997
Si Si4 0.290919 0.995038 0.050325
Si Si5 0.297509 0.168307 0.654687
Si Si6 0.788299 0.899451 0.605868
Si Si7 0.290693 0.942322 0.199242
Si Si8 0.711414 0.131578 0.560877
O O1 0.843560 0.297980 0.683070
O O2 0.750000 0.911146 0.750000
O O3 0.725682 0.897045 0.656968
O O4 0.000000 0.933376 0.697837
O O5 0.725296 0.994465 0.694485
O O6 0.500000 0.309835 0.475291
O O7 0.778134 0.250000 0.467599
O O8 0.744166 0.348417 0.425950
O O9 0.778532 0.345046 0.513790
O O10 0.500000 0.004172 0.047575
O O11 0.264294 0.932430 0.066569
O O12 0.222656 0.043750 0.082250
O O13 0.218507 0.000000 0.000000
O O14 0.500000 0.187192 0.659020
O O15 0.292518 0.103761 0.668156
O O16 0.238010 0.169424 0.602938
O O17 0.000000 0.902472 0.607356
O O18 0.500000 0.942257 0.191564
O O19 0.250000 0.926002 0.250000
O O20 0.500000 0.132344 0.560218
#
# Coordination Sequence:
#
# PCOD9536009 Si02
#       8
#     4  16  16  16  16  16  16  16
#     4  12  26  44  62  86 112 160 208 256 320 358
#     4   9  19  34  58  89 122 152 187 234 291 357
#     4  10  22  39  56  78 111 156 198 241 290 342
#     4  10  19  32  53  82 118 153 187 231 290 355
#     4  11  24  42  62  87 117 154 204 261 307 362
#     4  10  20  36  55  84 120 152 188 240 289 344
#     4  10  19  37  63  90 120 155 191 238 302 367
#     4  10  22  37  57  83 115 153 198 247 295 350
#
# _framework density 21.090831999999999
#
# number of rings (size 3 to 8) (size 9 to 14) (size 15 to 20)
#    0.000    1.931    2.069    1.448    1.931    3.310 
#    0.000    0.345    0.000    0.414    0.000    0.000 
#    0.000    0.000    0.000    0.000    0.000    0.000 
#
# Total GULP energy -323430.050196 kJ/mol
# GULP energy per Si atom -5576.380176 kJ/mol
# Density = 2.104283 g / cm^3
# Si number density = 21.090832 Si / 1000 Ang^3
#
#
#
# Elastic Constant Matrix: (Units=GPa)
#
#
# Indices 1 2 3 4 5 6 
#
# 1 68.3370 -1.3005 -1.5889 0.0000 0.0000 0.0000
# 2 -1.3005 79.3313 24.5764 0.0000 0.0000 0.0000
# 3 -1.5889 24.5764 87.6541 0.0000 0.0000 0.0000
# 4 0.0000 0.0000 0.0000 -29.1933 0.0000 0.0000
# 5 0.0000 0.0000 0.0000 0.0000 9.7706 0.0000
# 6 0.0000 0.0000 0.0000 0.0000 0.0000 -103.0721
#
#
#
# Elastic Compliance Matrix: (Units=1/GPa)
#
#
# Indices 1 2 3 4 5 6 
#
# 1 0.014642 0.000173 0.000217 0.000000 0.000000 0.000000
# 2 0.000173 0.013806 -0.003868 0.000000 0.000000 0.000000
# 3 0.000217 -0.003868 0.012497 0.000000 0.000000 0.000000
# 4 0.000000 0.000000 0.000000 -0.034254 0.000000 0.000000
# 5 0.000000 0.000000 0.000000 0.000000 0.102348 0.000000
# 6 0.000000 0.000000 0.000000 0.000000 0.000000 -0.009702
#
#
# Mechanical properties :
#
#
# Convention : Reuss Voigt Hill
#
# Bulk Modulus (GPa) = 29.42149 30.96626 30.19388
# Shear Modulus (GPa) = 42.50885 -10.25659 16.12613
#
# Velocity S-wave (km/s) = 4.49432 -2.20763 2.76815
# Velocity P-wave (km/s) = 6.39625 2.86637 4.95621
#
# Compressibility (1/GPa) = 0.03398876
#
# Stress axis : x y z
#
# Youngs Moduli (GPa) = 68.29808 72.42992 80.01989
#
# Poissons Ratio (x) = -0.01252 -0.01736
# Poissons Ratio (y) = -0.01180 0.30951
# Poissons Ratio (z) = -0.01482 0.28015
#
# Static dielectric constant tensor:
#      x y z
#    x 1.784470 0.000000 0.000000 
#    y 0.000000 1.735660 0.000000 
#    z 0.000000 0.000000 1.918340 
# 
# From -- ./inp_files/70903.got.cif
#   From: 2010.05.17/outbox.cif.g08.bks.cpg/sg74_36_cif.got.tgz:70903.got - 2010.06.03 17:57:02.
