data_PCOD9536696
_publ_section_title
;
Structure prediction by ZEFSAII (Michael W. Deem and Ramdas Pophale) SiO2 
 PCOD9536696
Probable space group: I M M A
;
_chemical_formula_sum "Si O2"
_cell_formula_units_Z 96
_cell_length_a 14.502903
_cell_length_b 15.350973
_cell_length_c 22.372996
_cell_angle_alpha 90.000000
_cell_angle_beta 90.000000
_cell_angle_gamma 90.000000
_cell_volume 4980.982262
_symmetry_space_group_name_H-M "I M M A"
_symmetry_group_IT_number 74
_symmetry_cell_setting 'orthorhombic'
loop_
_space_group_symop_operation_xyz
x,y,z
-x,1/2-y,z
x,-y,-z
-x,1/2+y,-z
-x,-y,-z
x,1/2+y,-z
-x,y,z
x,1/2-y,z
1/2+x,1/2+y,1/2+z
1/2-x,-y,1/2+z
1/2+x,1/2-y,1/2-z
1/2-x,y,1/2-z
1/2-x,1/2-y,1/2-z
1/2+x,y,1/2-z
1/2-x,1/2+y,1/2+z
1/2+x,-y,1/2+z
loop_
_atom_site_type_symbol
_atom_site_label
_atom_site_fract_x
_atom_site_fract_y
_atom_site_fract_z
Si Si1 0.782149 0.653996 0.818248
Si Si2 0.749639 0.651229 0.385170
Si Si3 0.396360 0.417389 0.802737
Si Si4 0.897016 0.645963 0.487690
Si Si5 0.602814 0.905340 0.879987
Si Si6 0.891988 0.019960 0.833982
O O1 0.824207 0.750000 0.823405
O O2 0.750000 0.640528 0.750000
O O3 0.688611 0.648927 0.856314
O O4 0.849390 0.576389 0.836400
O O5 0.715997 0.750000 0.391550
O O6 0.817208 0.643990 0.327851
O O7 0.816042 0.629664 0.441014
O O8 0.668002 0.583396 0.375281
O O9 0.500000 0.380680 0.807410
O O10 0.391768 0.503220 0.844952
O O11 0.381393 0.446793 0.734603
O O12 0.893758 0.750000 0.502744
O O13 0.889103 0.591415 0.548481
O O14 0.000000 0.629617 0.461935
O O15 0.500000 0.869082 0.867341
O O16 0.000000 0.020530 0.848168
#
# Coordination Sequence:
#
# PCOD9536696 Si02
#       6
#    16  16  16  16  16  16
#     4  11  21  35  58  87 120 158 196 235 291 355
#     4  11  22  38  60  84 117 158 200 248 299 348
#     4  10  20  35  57  86 121 155 188 235 297 359
#     4   9  19  35  57  90 126 155 189 237 294 362
#     4  10  19  35  60  89 122 155 184 226 292 362
#     4  11  23  41  58  80 118 156 201 256 294 337
#
# _framework density 19.273306000000002
#
# number of rings (size 3 to 8) (size 9 to 14) (size 15 to 20)
#    0.000    1.667    3.333    1.500    0.000    4.667 
#    0.000    5.833    0.000    2.000    0.000    2.333 
#    0.000    0.000    0.000    0.000    0.000    0.000 
#
# Total GULP energy -268130.581600 kJ/mol
# GULP energy per Si atom -5586.053783 kJ/mol
# Density = 1.922944 g / cm^3
# Si number density = 19.273306 Si / 1000 Ang^3
#
#
#
# Elastic Constant Matrix: (Units=GPa)
#
#
# Indices 1 2 3 4 5 6 
#
# 1 128.0952 61.1659 56.3047 0.0000 0.0000 0.0000
# 2 61.1659 91.5117 36.1905 0.0000 0.0000 0.0000
# 3 56.3047 36.1905 77.4659 0.0000 0.0000 0.0000
# 4 0.0000 0.0000 0.0000 -76.7219 0.0000 0.0000
# 5 0.0000 0.0000 0.0000 0.0000 29.5672 0.0000
# 6 0.0000 0.0000 0.0000 0.0000 0.0000 -11.0751
#
#
#
# Elastic Compliance Matrix: (Units=1/GPa)
#
#
# Indices 1 2 3 4 5 6 
#
# 1 0.014108 -0.006593 -0.007174 0.000000 0.000000 0.000000
# 2 -0.006593 0.016485 -0.002910 0.000000 0.000000 0.000000
# 3 -0.007174 -0.002910 0.019483 0.000000 0.000000 0.000000
# 4 0.000000 0.000000 0.000000 -0.013034 0.000000 0.000000
# 5 0.000000 0.000000 0.000000 0.000000 0.033821 0.000000
# 6 0.000000 0.000000 0.000000 0.000000 0.000000 -0.090293
#
#
# Mechanical properties :
#
#
# Convention : Reuss Voigt Hill
#
# Bulk Modulus (GPa) = 59.79952 67.15499 63.47726
# Shear Modulus (GPa) = 256.44345 -2.08517 127.17914
#
# Velocity S-wave (km/s) = 11.54752 -1.04127 8.13206
# Velocity P-wave (km/s) = 14.45296 5.78563 11.00821
#
# Compressibility (1/GPa) = 0.01672254
#
# Stress axis : x y z
#
# Youngs Moduli (GPa) = 70.88082 60.66249 51.32734
#
# Poissons Ratio (x) = 0.39992 0.36824
# Poissons Ratio (y) = 0.46729 0.14934
# Poissons Ratio (z) = 0.50853 0.17650
#
# Static dielectric constant tensor:
#      x y z
#    x 1.657710 0.000000 0.000000 
#    y 0.000000 1.719700 0.000000 
#    z 0.000000 0.000000 1.668280 
# 
# From -- ./inp_files/51872.got.cif
#   From: 2010.05.17/outbox.cif.g08.bks.cpg/sg74_26_cif.got.tgz:51872.got - 2010.06.03 17:57:02.
