data_PCOD9536033
_publ_section_title
;
Structure prediction by ZEFSAII (Michael W. Deem and Ramdas Pophale) SiO2 
 PCOD9536033
Probable space group: I M M A
;
_chemical_formula_sum "Si O2"
_cell_formula_units_Z 96
_cell_length_a 14.393737
_cell_length_b 26.411290
_cell_length_c 13.311083
_cell_angle_alpha 90.000000
_cell_angle_beta 90.000000
_cell_angle_gamma 90.000000
_cell_volume 5060.303538
_symmetry_space_group_name_H-M "I M M A"
_symmetry_group_IT_number 74
_symmetry_cell_setting 'orthorhombic'
loop_
_space_group_symop_operation_xyz
x,y,z
-x,1/2-y,z
x,-y,-z
-x,1/2+y,-z
-x,-y,-z
x,1/2+y,-z
-x,y,z
x,1/2-y,z
1/2+x,1/2+y,1/2+z
1/2-x,-y,1/2+z
1/2+x,1/2-y,1/2-z
1/2-x,y,1/2-z
1/2-x,1/2-y,1/2-z
1/2+x,y,1/2-z
1/2-x,1/2+y,1/2+z
1/2+x,-y,1/2+z
loop_
_atom_site_type_symbol
_atom_site_label
_atom_site_fract_x
_atom_site_fract_y
_atom_site_fract_z
Si Si1 0.101399 0.336060 0.380459
Si Si2 0.860191 0.250000 0.230198
Si Si3 0.282701 0.652134 0.519603
Si Si4 0.610446 0.983039 0.253866
Si Si5 0.758328 0.955299 0.083034
Si Si6 0.892215 0.250000 0.992533
Si Si7 0.890322 0.598667 0.797770
O O1 0.099239 0.297455 0.288202
O O2 0.186015 0.321584 0.449889
O O3 0.124968 0.386603 0.318878
O O4 0.000000 0.338987 0.428284
O O5 0.750000 0.250000 0.250000
O O6 0.883837 0.250000 0.114212
O O7 0.252845 0.600556 0.464225
O O8 0.343297 0.696067 0.466158
O O9 0.334473 0.631673 0.621013
O O10 0.500000 0.978629 0.236910
O O11 0.671560 0.969649 0.155794
O O12 0.650813 0.950899 0.345942
O O13 0.631552 0.039463 0.295867
O O14 0.766868 0.000000 0.000000
O O15 0.000000 0.250000 0.963137
O O16 0.000000 0.605113 0.819053
#
# Coordination Sequence:
#
# PCOD9536033 Si02
#       7
#    16   8  16  16  16   8  16
#     4  11  21  31  49  78 114 159 201 235 283 355
#     4  12  18  33  51  74 115 157 195 239 299 357
#     4  12  22  36  57  84 121 160 203 248 301 362
#     4  10  23  41  61  88 121 159 205 256 314 374
#     4  11  23  39  63  91 124 162 204 256 313 370
#     4  12  24  37  54  84 122 161 205 255 306 365
#     4  10  19  32  54  81 113 153 194 239 294 359
#
# _framework density 18.971193
#
# number of rings (size 3 to 8) (size 9 to 14) (size 15 to 20)
#    0.000    1.000    5.000    2.750    2.333    2.667 
#    0.000    0.000    0.000    2.000    0.000    1.167 
#    0.000    0.000    0.000    0.000    0.000    0.000 
#
# Total GULP energy -267591.889229 kJ/mol
# GULP energy per Si atom -5574.831026 kJ/mol
# Density = 1.892801 g / cm^3
# Si number density = 18.971193 Si / 1000 Ang^3
#
#
#
# Elastic Constant Matrix: (Units=GPa)
#
#
# Indices 1 2 3 4 5 6 
#
# 1 109.9782 10.8041 26.0069 0.0001 0.0000 0.0000
# 2 10.8041 70.4785 16.9505 0.0001 0.0000 0.0000
# 3 26.0069 16.9505 50.7147 0.0002 0.0000 0.0000
# 4 0.0001 0.0001 0.0002 21.0547 0.0000 0.0000
# 5 0.0000 0.0000 0.0000 0.0000 5.7047 0.0000
# 6 0.0000 0.0000 0.0000 0.0000 0.0000 32.4243
#
#
#
# Elastic Compliance Matrix: (Units=1/GPa)
#
#
# Indices 1 2 3 4 5 6 
#
# 1 0.010355 -0.000337 -0.005197 0.000000 0.000000 0.000000
# 2 -0.000337 0.015440 -0.004988 0.000000 0.000000 0.000000
# 3 -0.005197 -0.004988 0.024050 0.000000 0.000000 0.000000
# 4 0.000000 0.000000 0.000000 0.047495 0.000000 0.000000
# 5 0.000000 0.000000 0.000000 0.000000 0.175295 0.000000
# 6 0.000000 0.000000 0.000000 0.000000 0.000000 0.030841
#
#
# Mechanical properties :
#
#
# Convention : Reuss Voigt Hill
#
# Bulk Modulus (GPa) = 34.72127 37.63271 36.17699
# Shear Modulus (GPa) = 14.96462 23.66405 19.31434
#
# Velocity S-wave (km/s) = 2.81162 3.53564 3.19421
# Velocity P-wave (km/s) = 5.37421 6.04545 5.71969
#
# Compressibility (1/GPa) = 0.02880079
#
# Stress axis : x y z
#
# Youngs Moduli (GPa) = 96.57284 64.76697 41.57942
#
# Poissons Ratio (x) = 0.02185 0.21610
# Poissons Ratio (y) = 0.03258 0.20738
# Poissons Ratio (z) = 0.50192 0.32303
#
# Static dielectric constant tensor:
#      x y z
#    x 1.690690 0.000000 0.000000 
#    y 0.000000 1.821060 0.000000 
#    z 0.000000 0.000000 1.652230 
# 
# From -- ./inp_files/32855.got.cif
#   From: 2010.05.17/outbox.cif.g08.bks.cpg/sg74_17_cif.got.tgz:32855.got - 2010.06.03 17:57:02.
