data_PCOD9536315
_publ_section_title
;
Structure prediction by ZEFSAII (Michael W. Deem and Ramdas Pophale) SiO2 
 PCOD9536315
Probable space group: I M M A
;
_chemical_formula_sum "Si O2"
_cell_formula_units_Z 64
_cell_length_a 10.783354
_cell_length_b 28.105847
_cell_length_c 9.240486
_cell_angle_alpha 90.000000
_cell_angle_beta 90.000000
_cell_angle_gamma 90.000000
_cell_volume 2800.563045
_symmetry_space_group_name_H-M "I M M A"
_symmetry_group_IT_number 74
_symmetry_cell_setting 'orthorhombic'
loop_
_space_group_symop_operation_xyz
x,y,z
-x,1/2-y,z
x,-y,-z
-x,1/2+y,-z
-x,-y,-z
x,1/2+y,-z
-x,y,z
x,1/2-y,z
1/2+x,1/2+y,1/2+z
1/2-x,-y,1/2+z
1/2+x,1/2-y,1/2-z
1/2-x,y,1/2-z
1/2-x,1/2-y,1/2-z
1/2+x,y,1/2-z
1/2-x,1/2+y,1/2+z
1/2+x,-y,1/2+z
loop_
_atom_site_type_symbol
_atom_site_label
_atom_site_fract_x
_atom_site_fract_y
_atom_site_fract_z
Si Si1 0.000000 0.305849 0.933464
Si Si2 0.639473 0.406069 0.167047
Si Si3 0.000000 0.697159 0.417620
Si Si4 0.753677 0.860308 0.422446
Si Si5 0.133860 0.991762 0.171727
O O1 0.876434 0.336416 0.970186
O O2 0.000000 0.250000 0.983788
O O3 0.000000 0.302671 0.758137
O O4 0.500000 0.386689 0.168257
O O5 0.750000 0.378830 0.250000
O O6 0.627427 0.457139 0.245600
O O7 0.700803 0.407259 0.008145
O O8 0.129816 0.673455 0.458554
O O9 0.000000 0.750000 0.474602
O O10 0.750000 0.865129 0.250000
O O11 0.250000 0.968335 0.250000
O O12 0.000000 0.967059 0.193313
O O13 0.147089 0.000000 0.000000
#
# Coordination Sequence:
#
# PCOD9536315 Si02
#       5
#     8  16   8  16  16
#     4   9  18  30  51  85 120 155 199 253 305 357
#     4  10  21  38  59  85 117 158 199 246 302 355
#     4   9  16  30  53  83 116 153 201 253 303 353
#     4  10  19  33  56  85 118 156 202 253 303 359
#     4   9  19  38  64  91 120 154 195 239 294 361
#
# _framework density 22.852549
#
# number of rings (size 3 to 8) (size 9 to 14) (size 15 to 20)
#    0.000    2.500    1.250    0.750    1.750    3.500 
#    0.000    5.000    0.000   19.500    0.000    0.000 
#    0.000    0.000    0.000    0.000    0.000    0.000 
#
# Total GULP energy -178196.365804 kJ/mol
# GULP energy per Si atom -5568.636431 kJ/mol
# Density = 2.280054 g / cm^3
# Si number density = 22.852549 Si / 1000 Ang^3
#
#
#
# Elastic Constant Matrix: (Units=GPa)
#
#
# Indices 1 2 3 4 5 6 
#
# 1 271.2068 47.4298 63.5495 -0.0001 -0.0004 -0.0001
# 2 47.4298 82.9617 35.8843 -0.0001 0.0002 -0.0001
# 3 63.5495 35.8843 98.5340 -0.0005 -0.0012 0.0005
# 4 -0.0001 -0.0001 -0.0005 18.3957 0.0003 0.0000
# 5 -0.0004 0.0002 -0.0012 0.0003 6.7832 -0.0008
# 6 -0.0001 -0.0001 0.0005 0.0000 -0.0008 -22.0211
#
#
#
# Elastic Compliance Matrix: (Units=1/GPa)
#
#
# Indices 1 2 3 4 5 6 
#
# 1 0.004509 -0.001567 -0.002337 0.000000 0.000000 0.000000
# 2 -0.001567 0.014852 -0.004398 0.000000 -0.000001 0.000000
# 3 -0.002337 -0.004398 0.013258 0.000000 0.000002 0.000000
# 4 0.000000 0.000000 0.000000 0.054361 -0.000003 0.000000
# 5 0.000000 -0.000001 0.000002 -0.000003 0.147424 -0.000005
# 6 0.000000 0.000000 0.000000 0.000000 -0.000005 -0.045411
#
#
# Mechanical properties :
#
#
# Convention : Reuss Voigt Hill
#
# Bulk Modulus (GPa) = 62.44569 82.93662 72.69116
# Shear Modulus (GPa) = 23.70391 21.02080 22.36236
#
# Velocity S-wave (km/s) = 3.22414 3.03618 3.13157
# Velocity P-wave (km/s) = 6.42222 6.97582 6.70474
#
# Compressibility (1/GPa) = 0.01601392
#
# Stress axis : x y z
#
# Youngs Moduli (GPa) = 221.78167 67.33130 75.42549
#
# Poissons Ratio (x) = 0.10549 0.17630
# Poissons Ratio (y) = 0.34748 0.33175
# Poissons Ratio (z) = 0.51841 0.29615
#
# Static dielectric constant tensor:
#      x y z
#    x 1.927600 0.000000 0.000000 
#    y 0.000000 1.946260 0.000000 
#    z 0.000000 0.000000 1.936890 
# 
# From -- ./inp_files/7345.got.cif
#   From: 2010.05.17/outbox.cif.g08.bks.cpg/sg74_4_cif.got.tgz:7345.got - 2010.06.03 17:57:02.
