data_PCOD9536372
_publ_section_title
;
Structure prediction by ZEFSAII (Michael W. Deem and Ramdas Pophale) SiO2 
 PCOD9536372
Probable space group: I M M A
;
_chemical_formula_sum "Si O2"
_cell_formula_units_Z 56
_cell_length_a 20.610364
_cell_length_b 12.862018
_cell_length_c 12.329179
_cell_angle_alpha 90.000000
_cell_angle_beta 90.000000
_cell_angle_gamma 90.000000
_cell_volume 3268.352821
_symmetry_space_group_name_H-M "I M M A"
_symmetry_group_IT_number 74
_symmetry_cell_setting 'orthorhombic'
loop_
_space_group_symop_operation_xyz
x,y,z
-x,1/2-y,z
x,-y,-z
-x,1/2+y,-z
-x,-y,-z
x,1/2+y,-z
-x,y,z
x,1/2-y,z
1/2+x,1/2+y,1/2+z
1/2-x,-y,1/2+z
1/2+x,1/2-y,1/2-z
1/2-x,y,1/2-z
1/2-x,1/2-y,1/2-z
1/2+x,y,1/2-z
1/2-x,1/2+y,1/2+z
1/2+x,-y,1/2+z
loop_
_atom_site_type_symbol
_atom_site_label
_atom_site_fract_x
_atom_site_fract_y
_atom_site_fract_z
Si Si1 0.925206 0.371986 0.808831
Si Si2 0.740767 0.631441 0.927504
Si Si3 0.861251 0.000000 0.000000
Si Si4 0.305888 0.573642 0.164816
O O1 0.918927 0.250000 0.836286
O O2 0.874944 0.396437 0.712771
O O3 0.000000 0.392602 0.780503
O O4 0.903039 0.440568 0.910915
O O5 0.741607 0.750000 0.891457
O O6 0.701718 0.550475 0.853028
O O7 0.812329 0.581577 0.941976
O O8 0.709918 0.623141 0.048287
O O9 0.250000 0.606114 0.250000
#
# Coordination Sequence:
#
# PCOD9536372 Si02
#       4
#    16  16   8  16
#     4  11  22  36  55  78 108 145 177 213 265 317
#     4  10  20  33  56  83 109 136 173 225 270 303
#     4  10  19  34  52  84 111 132 174 222 265 316
#     4  10  19  36  54  82 105 137 182 221 254 310
#
# _framework density 17.134012999999999
#
# number of rings (size 3 to 8) (size 9 to 14) (size 15 to 20)
#    0.000    2.000    5.714    2.143    0.000    1.714 
#    0.000    2.857    0.000    6.000    0.000    0.000 
#    0.000    0.000    0.000    0.000    0.000    0.000 
#
# Total GULP energy -156271.968285 kJ/mol
# GULP energy per Si atom -5581.141724 kJ/mol
# Density = 1.709502 g / cm^3
# Si number density = 17.134013 Si / 1000 Ang^3
#
#
#
# Elastic Constant Matrix: (Units=GPa)
#
#
# Indices 1 2 3 4 5 6 
#
# 1 147.8451 46.3029 49.9445 0.0000 0.0000 0.0000
# 2 46.3029 107.2291 7.8337 0.0000 0.0000 0.0000
# 3 49.9445 7.8337 69.4487 0.0000 0.0000 0.0000
# 4 0.0000 0.0000 0.0000 10.3010 0.0000 0.0000
# 5 0.0000 0.0000 0.0000 0.0000 21.9196 0.0000
# 6 0.0000 0.0000 0.0000 0.0000 0.0000 15.4682
#
#
#
# Elastic Compliance Matrix: (Units=1/GPa)
#
#
# Indices 1 2 3 4 5 6 
#
# 1 0.010376 -0.003968 -0.007015 0.000000 0.000000 0.000000
# 2 -0.003968 0.010921 0.001622 0.000000 0.000000 0.000000
# 3 -0.007015 0.001622 0.019261 0.000000 0.000000 0.000000
# 4 0.000000 0.000000 0.000000 0.097078 0.000000 0.000000
# 5 0.000000 0.000000 0.000000 0.000000 0.045621 0.000000
# 6 0.000000 0.000000 0.000000 0.000000 0.000000 0.064649
#
#
# Mechanical properties :
#
#
# Convention : Reuss Voigt Hill
#
# Bulk Modulus (GPa) = 45.79558 59.18723 52.49140
# Shear Modulus (GPa) = 18.25446 24.23389 21.24418
#
# Velocity S-wave (km/s) = 3.26758 3.76490 3.52502
# Velocity P-wave (km/s) = 6.40484 7.31560 6.87532
#
# Compressibility (1/GPa) = 0.02183617
#
# Stress axis : x y z
#
# Youngs Moduli (GPa) = 96.37428 91.56813 51.91915
#
# Poissons Ratio (x) = 0.36335 0.36419
# Poissons Ratio (y) = 0.38243 -0.08421
# Poissons Ratio (z) = 0.67602 -0.14851
#
# Static dielectric constant tensor:
#      x y z
#    x 1.554210 0.000000 0.000000 
#    y 0.000000 1.600340 0.000000 
#    z 0.000000 0.000000 1.593950 
# 
# From -- ./inp_files/19783.got.cif
#   From: 2010.05.17/outbox.cif.g08.bks.cpg/sg74_10_cif.got.tgz:19783.got - 2010.06.03 17:57:02.
