data_PCOD9536162
_publ_section_title
;
Structure prediction by ZEFSAII (Michael W. Deem and Ramdas Pophale) SiO2 
 PCOD9536162
Probable space group: I M M A
;
_chemical_formula_sum "Si O2"
_cell_formula_units_Z 104
_cell_length_a 28.233097
_cell_length_b 7.361555
_cell_length_c 23.026681
_cell_angle_alpha 90.000000
_cell_angle_beta 90.000000
_cell_angle_gamma 90.000000
_cell_volume 4785.853782
_symmetry_space_group_name_H-M "I M M A"
_symmetry_group_IT_number 74
_symmetry_cell_setting 'orthorhombic'
loop_
_space_group_symop_operation_xyz
x,y,z
-x,1/2-y,z
x,-y,-z
-x,1/2+y,-z
-x,-y,-z
x,1/2+y,-z
-x,y,z
x,1/2-y,z
1/2+x,1/2+y,1/2+z
1/2-x,-y,1/2+z
1/2+x,1/2-y,1/2-z
1/2-x,y,1/2-z
1/2-x,1/2-y,1/2-z
1/2+x,y,1/2-z
1/2-x,1/2+y,1/2+z
1/2+x,-y,1/2+z
loop_
_atom_site_type_symbol
_atom_site_label
_atom_site_fract_x
_atom_site_fract_y
_atom_site_fract_z
Si Si1 0.202847 0.032701 0.067260
Si Si2 0.000000 0.034444 0.432605
Si Si3 0.629856 0.543820 0.662021
Si Si4 0.195852 0.462928 0.731498
Si Si5 0.904922 0.472583 0.373091
Si Si6 0.944871 0.471862 0.249027
Si Si7 0.806489 0.953400 0.599031
O O1 0.205274 0.250000 0.078283
O O2 0.161858 0.961617 0.110426
O O3 0.256286 0.962306 0.080409
O O4 0.191875 0.000000 0.000000
O O5 0.047834 0.964757 0.404548
O O6 0.000000 0.250000 0.420799
O O7 0.000000 0.000000 0.500000
O O8 0.618408 0.750000 0.643906
O O9 0.664527 0.545709 0.717703
O O10 0.581834 0.465616 0.690368
O O11 0.183912 0.250000 0.725521
O O12 0.250000 0.476037 0.750000
O O13 0.193078 0.553825 0.669043
O O14 0.902175 0.250000 0.373751
O O15 0.913933 0.524904 0.305720
O O16 0.858479 0.538132 0.407943
O O17 0.944624 0.250000 0.248565
O O18 0.000000 0.526706 0.253978
O O19 0.807114 0.750000 0.573460
#
# Coordination Sequence:
#
# PCOD9536162 Si02
#       7
#    16   8  16  16  16  16  16
#     4  10  22  36  52  73 100 137 176 214 256 306
#     4  10  20  34  50  70  98 136 181 214 252 297
#     4  10  19  33  55  79 102 134 176 213 255 314
#     4  11  21  30  46  77 110 136 162 204 260 306
#     4   9  16  28  50  75  98 128 168 213 253 295
#     4   9  15  26  51  84 106 123 159 218 269 302
#     4  10  19  33  53  75  99 133 175 215 253 301
#
# _framework density 21.730709999999998
#
# number of rings (size 3 to 8) (size 9 to 14) (size 15 to 20)
#    0.000    2.154    3.846    0.462    0.000    2.462 
#    0.000    0.769    0.000    0.923    0.000    0.000 
#    0.000    0.000    0.000    0.000    0.000    0.000 
#
# Total GULP energy -290070.883238 kJ/mol
# GULP energy per Si atom -5578.286216 kJ/mol
# Density = 2.168125 g / cm^3
# Si number density = 21.730710 Si / 1000 Ang^3
#
#
#
# Elastic Constant Matrix: (Units=GPa)
#
#
# Indices 1 2 3 4 5 6 
#
# 1 120.1981 2.2218 38.3751 0.0000 0.0000 0.0000
# 2 2.2218 77.3506 -18.7996 0.0000 0.0000 0.0000
# 3 38.3751 -18.7996 100.2778 0.0000 0.0000 0.0000
# 4 0.0000 0.0000 0.0000 -83.5822 0.0000 0.0000
# 5 0.0000 0.0000 0.0000 0.0000 19.7132 0.0000
# 6 0.0000 0.0000 0.0000 0.0000 0.0000 -0.1328
#
#
#
# Elastic Compliance Matrix: (Units=1/GPa)
#
#
# Indices 1 2 3 4 5 6 
#
# 1 0.009587 -0.001223 -0.003898 0.000000 0.000000 0.000000
# 2 -0.001223 0.013701 0.003037 0.000000 0.000000 0.000000
# 3 -0.003898 0.003037 0.012033 0.000000 0.000000 0.000000
# 4 0.000000 0.000000 0.000000 -0.011964 0.000000 0.000000
# 5 0.000000 0.000000 0.000000 0.000000 0.050727 0.000000
# 6 0.000000 0.000000 0.000000 0.000000 0.000000 -7.532623
#
#
# Mechanical properties :
#
#
# Convention : Reuss Voigt Hill
#
# Bulk Modulus (GPa) = 32.09959 37.93570 35.01765
# Shear Modulus (GPa) = -0.67168 5.60160 2.46496
#
# Velocity S-wave (km/s) = -0.55657 1.60727 1.06620
# Velocity P-wave (km/s) = 3.79349 4.57597 4.20298
#
# Compressibility (1/GPa) = 0.03115304
#
# Stress axis : x y z
#
# Youngs Moduli (GPa) = 104.31139 72.98578 83.10292
#
# Poissons Ratio (x) = 0.08924 0.32393
# Poissons Ratio (y) = 0.12755 -0.25235
# Poissons Ratio (z) = 0.40660 -0.22163
#
# Static dielectric constant tensor:
#      x y z
#    x 1.885110 0.000000 0.000000 
#    y 0.000000 1.787060 0.000000 
#    z 0.000000 0.000000 1.756630 
# 
# From -- ./inp_files/49633.got.cif
#   From: 2010.05.17/outbox.cif.g08.bks.cpg/sg74_25_cif.got.tgz:49633.got - 2010.06.03 17:57:02.
