data_PCOD9536116
_publ_section_title
;
Structure prediction by ZEFSAII (Michael W. Deem and Ramdas Pophale) SiO2 
 PCOD9536116
Probable space group: I M M A
;
_chemical_formula_sum "Si O2"
_cell_formula_units_Z 64
_cell_length_a 12.520271
_cell_length_b 19.323719
_cell_length_c 12.737684
_cell_angle_alpha 90.000000
_cell_angle_beta 90.000000
_cell_angle_gamma 90.000000
_cell_volume 3081.732321
_symmetry_space_group_name_H-M "I M M A"
_symmetry_group_IT_number 74
_symmetry_cell_setting 'orthorhombic'
loop_
_space_group_symop_operation_xyz
x,y,z
-x,1/2-y,z
x,-y,-z
-x,1/2+y,-z
-x,-y,-z
x,1/2+y,-z
-x,y,z
x,1/2-y,z
1/2+x,1/2+y,1/2+z
1/2-x,-y,1/2+z
1/2+x,1/2-y,1/2-z
1/2-x,y,1/2-z
1/2-x,1/2-y,1/2-z
1/2+x,y,1/2-z
1/2-x,1/2+y,1/2+z
1/2+x,-y,1/2+z
loop_
_atom_site_type_symbol
_atom_site_label
_atom_site_fract_x
_atom_site_fract_y
_atom_site_fract_z
Si Si1 0.881626 0.029951 0.162532
Si Si2 0.623165 0.672511 0.546667
Si Si3 0.801522 0.174631 0.634655
Si Si4 0.157516 0.025433 0.612927
O O1 0.860074 0.108556 0.125760
O O2 0.000000 0.010033 0.125682
O O3 0.879130 0.019708 0.288094
O O4 0.786973 0.982384 0.118821
O O5 0.500000 0.666957 0.508525
O O6 0.633778 0.750000 0.594230
O O7 0.708088 0.669082 0.452686
O O8 0.853847 0.250000 0.620627
O O9 0.750000 0.173340 0.750000
O O10 0.870388 0.105542 0.626478
O O11 0.122402 0.000000 0.500000
#
# Coordination Sequence:
#
# PCOD9536116 Si02
#       4
#    16  16  16  16
#     4  10  21  36  57  83 110 146 187 233 283 330
#     4   9  18  34  57  84 110 140 186 240 289 337
#     4  10  19  33  51  76 112 146 175 224 283 332
#     4  11  21  37  56  82 115 144 189 232 276 344
#
# _framework density 20.767541999999999
#
# number of rings (size 3 to 8) (size 9 to 14) (size 15 to 20)
#    0.000    2.000    5.000    0.000    0.000    2.000 
#    0.000    3.750    0.000    0.750    0.000    0.000 
#    0.000    0.000    0.000    0.000    0.000    0.000 
#
# Total GULP energy -178553.523934 kJ/mol
# GULP energy per Si atom -5579.797623 kJ/mol
# Density = 2.072027 g / cm^3
# Si number density = 20.767542 Si / 1000 Ang^3
#
#
#
# Elastic Constant Matrix: (Units=GPa)
#
#
# Indices 1 2 3 4 5 6 
#
# 1 83.0872 23.5851 7.1726 0.0000 0.0000 0.0001
# 2 23.5851 167.7032 63.6640 -0.0002 -0.0001 0.0006
# 3 7.1726 63.6640 134.9949 -0.0001 0.0000 0.0003
# 4 0.0000 -0.0002 -0.0001 36.1892 0.0000 0.0005
# 5 0.0000 -0.0001 0.0000 0.0000 -6.6431 0.0000
# 6 0.0001 0.0006 0.0003 0.0005 0.0000 -58.0481
#
#
#
# Elastic Compliance Matrix: (Units=1/GPa)
#
#
# Indices 1 2 3 4 5 6 
#
# 1 0.012540 -0.001840 0.000202 0.000000 0.000000 0.000000
# 2 -0.001840 0.007533 -0.003455 0.000000 0.000000 0.000000
# 3 0.000202 -0.003455 0.009026 0.000000 0.000000 0.000000
# 4 0.000000 0.000000 0.000000 0.027633 0.000000 0.000000
# 5 0.000000 0.000000 0.000000 0.000000 -0.150533 0.000000
# 6 0.000000 0.000000 0.000000 0.000000 0.000000 -0.017227
#
#
# Mechanical properties :
#
#
# Convention : Reuss Voigt Hill
#
# Bulk Modulus (GPa) = 52.87380 63.84764 58.36072
# Shear Modulus (GPa) = -52.88981 13.72387 -19.58297
#
# Velocity S-wave (km/s) = -5.05201 2.57346 -3.07410
# Velocity P-wave (km/s) = 2.91810 6.29610 3.94497
#
# Compressibility (1/GPa) = 0.01891296
#
# Stress axis : x y z
#
# Youngs Moduli (GPa) = 79.74168 132.74423 110.78686
#
# Poissons Ratio (x) = 0.24427 -0.02232
# Poissons Ratio (y) = 0.14674 0.38276
# Poissons Ratio (z) = -0.01607 0.45862
#
# Static dielectric constant tensor:
#      x y z
#    x 1.820910 0.000000 0.000000 
#    y 0.000000 1.771270 0.000000 
#    z 0.000000 0.000000 1.716220 
# 
# From -- ./inp_files/20119.got.cif
#   From: 2010.05.17/outbox.cif.g08.bks.cpg/sg74_11_cif.got.tgz:20119.got - 2010.06.03 17:57:02.
