data_PCOD9536019
_publ_section_title
;
Structure prediction by ZEFSAII (Michael W. Deem and Ramdas Pophale) SiO2 
 PCOD9536019
Probable space group: I M M A
;
_chemical_formula_sum "Si O2"
_cell_formula_units_Z 112
_cell_length_a 19.991781
_cell_length_b 14.109119
_cell_length_c 23.355535
_cell_angle_alpha 90.000000
_cell_angle_beta 90.000000
_cell_angle_gamma 90.000000
_cell_volume 6587.812078
_symmetry_space_group_name_H-M "I M M A"
_symmetry_group_IT_number 74
_symmetry_cell_setting 'orthorhombic'
loop_
_space_group_symop_operation_xyz
x,y,z
-x,1/2-y,z
x,-y,-z
-x,1/2+y,-z
-x,-y,-z
x,1/2+y,-z
-x,y,z
x,1/2-y,z
1/2+x,1/2+y,1/2+z
1/2-x,-y,1/2+z
1/2+x,1/2-y,1/2-z
1/2-x,y,1/2-z
1/2-x,1/2-y,1/2-z
1/2+x,y,1/2-z
1/2-x,1/2+y,1/2+z
1/2+x,-y,1/2+z
loop_
_atom_site_type_symbol
_atom_site_label
_atom_site_fract_x
_atom_site_fract_y
_atom_site_fract_z
Si Si1 0.671956 0.022872 0.935475
Si Si2 0.579182 0.527907 0.264654
Si Si3 0.179207 0.860574 0.781742
Si Si4 0.195715 0.363204 0.967344
Si Si5 0.735466 0.138743 0.406042
Si Si6 0.579890 0.860233 0.148707
Si Si7 0.922733 0.363757 0.883367
O O1 0.738614 0.086927 0.942291
O O2 0.618545 0.077785 0.897883
O O3 0.698844 0.926396 0.906773
O O4 0.648395 0.000000 0.000000
O O5 0.500000 0.505493 0.263047
O O6 0.623943 0.434226 0.261120
O O7 0.594020 0.596811 0.211394
O O8 0.592391 0.582326 0.324294
O O9 0.160709 0.750000 0.773254
O O10 0.250000 0.876004 0.750000
O O11 0.192808 0.876968 0.849154
O O12 0.202786 0.250000 0.961644
O O13 0.129734 0.391078 0.932531
O O14 0.195890 0.384288 0.035250
O O15 0.753222 0.250000 0.407575
O O16 0.500000 0.865467 0.139828
O O17 0.599821 0.750000 0.145681
O O18 0.917486 0.250000 0.874100
O O19 0.000000 0.383585 0.899159
#
# Coordination Sequence:
#
# PCOD9536019 Si02
#       7
#    16  16  16  16  16  16  16
#     4  10  19  32  54  77 102 133 165 204 249 299
#     4  10  20  34  52  74 102 136 171 209 255 303
#     4  10  20  34  53  74  97 130 172 216 259 303
#     4   9  17  30  49  74 103 135 172 212 255 302
#     4   9  18  32  50  73 101 134 172 212 255 301
#     4  10  21  37  56  78 104 132 163 203 253 307
#     4   9  17  30  49  74 105 140 175 210 251 301
#
# _framework density 17.001093000000001
#
# number of rings (size 3 to 8) (size 9 to 14) (size 15 to 20)
#    0.000    2.429    0.000    2.571    0.000    2.857 
#    0.000    0.714    0.000   13.714    0.000    0.000 
#    0.000    0.000    0.000    0.000    0.000    0.000 
#
# Total GULP energy -312369.571359 kJ/mol
# GULP energy per Si atom -5578.028060 kJ/mol
# Density = 1.696240 g / cm^3
# Si number density = 17.001093 Si / 1000 Ang^3
#
#
#
# Elastic Constant Matrix: (Units=GPa)
#
#
# Indices 1 2 3 4 5 6 
#
# 1 62.8280 56.8091 61.8495 0.0000 0.0000 0.0000
# 2 56.8091 98.0126 55.4624 0.0000 0.0000 0.0000
# 3 61.8495 55.4624 96.0907 0.0000 0.0000 0.0000
# 4 0.0000 0.0000 0.0000 28.8459 0.0000 0.0000
# 5 0.0000 0.0000 0.0000 0.0000 24.8585 0.0000
# 6 0.0000 0.0000 0.0000 0.0000 0.0000 33.7476
#
#
#
# Elastic Compliance Matrix: (Units=1/GPa)
#
#
# Indices 1 2 3 4 5 6 
#
# 1 0.061478 -0.019664 -0.028221 0.000000 0.000000 0.000000
# 2 -0.019664 0.021441 0.000281 0.000000 0.000000 0.000000
# 3 -0.028221 0.000281 0.028409 0.000000 0.000000 0.000000
# 4 0.000000 0.000000 0.000000 0.034667 0.000000 0.000000
# 5 0.000000 0.000000 0.000000 0.000000 0.040228 0.000000
# 6 0.000000 0.000000 0.000000 0.000000 0.000000 0.029632
#
#
# Mechanical properties :
#
#
# Convention : Reuss Voigt Hill
#
# Bulk Modulus (GPa) = 62.03095 67.24146 64.63621
# Shear Modulus (GPa) = 15.80101 23.01109 19.40605
#
# Velocity S-wave (km/s) = 3.05193 3.68299 3.38221
# Velocity P-wave (km/s) = 6.99891 7.59757 7.30437
#
# Compressibility (1/GPa) = 0.01612098
#
# Stress axis : x y z
#
# Youngs Moduli (GPa) = 16.26595 46.63974 35.19991
#
# Poissons Ratio (x) = 0.91712 0.99338
# Poissons Ratio (y) = 0.31985 -0.00990
# Poissons Ratio (z) = 0.45904 -0.01312
#
# Static dielectric constant tensor:
#      x y z
#    x 1.541810 0.000000 0.000000 
#    y 0.000000 1.583470 0.000000 
#    z 0.000000 0.000000 1.575400 
# 
# From -- ./inp_files/60128.got.cif
#   From: 2010.05.17/outbox.cif.g08.bks.cpg/sg74_31_cif.got.tgz:60128.got - 2010.06.03 17:57:02.
