data_PCOD9536499
_publ_section_title
;
Structure prediction by ZEFSAII (Michael W. Deem and Ramdas Pophale) SiO2 
 PCOD9536499
Probable space group: I M M A
;
_chemical_formula_sum "Si O2"
_cell_formula_units_Z 104
_cell_length_a 28.256165
_cell_length_b 7.511501
_cell_length_c 23.005590
_cell_angle_alpha 90.000000
_cell_angle_beta 90.000000
_cell_angle_gamma 90.000000
_cell_volume 4882.849324
_symmetry_space_group_name_H-M "I M M A"
_symmetry_group_IT_number 74
_symmetry_cell_setting 'orthorhombic'
loop_
_space_group_symop_operation_xyz
x,y,z
-x,1/2-y,z
x,-y,-z
-x,1/2+y,-z
-x,-y,-z
x,1/2+y,-z
-x,y,z
x,1/2-y,z
1/2+x,1/2+y,1/2+z
1/2-x,-y,1/2+z
1/2+x,1/2-y,1/2-z
1/2-x,y,1/2-z
1/2-x,1/2-y,1/2-z
1/2+x,y,1/2-z
1/2-x,1/2+y,1/2+z
1/2+x,-y,1/2+z
loop_
_atom_site_type_symbol
_atom_site_label
_atom_site_fract_x
_atom_site_fract_y
_atom_site_fract_z
Si Si1 0.204913 0.036219 0.066400
Si Si2 0.000000 0.959265 0.432578
Si Si3 0.632561 0.546744 0.662730
Si Si4 0.196265 0.456761 0.729897
Si Si5 0.904606 0.457656 0.368963
Si Si6 0.944879 0.468582 0.246242
Si Si7 0.808280 0.950601 0.598045
O O1 0.207656 0.250000 0.076384
O O2 0.165431 0.966628 0.111796
O O3 0.258710 0.966654 0.076771
O O4 0.191614 0.000000 0.000000
O O5 0.000000 0.750000 0.422384
O O6 0.000000 0.000000 0.500000
O O7 0.046980 0.033449 0.403616
O O8 0.622332 0.750000 0.644959
O O9 0.665306 0.544372 0.720076
O O10 0.583489 0.471259 0.688612
O O11 0.182080 0.250000 0.723172
O O12 0.250000 0.460159 0.750000
O O13 0.195070 0.549861 0.667975
O O14 0.892556 0.250000 0.360810
O O15 0.916986 0.529264 0.304525
O O16 0.860710 0.534939 0.406377
O O17 0.943997 0.250000 0.246967
O O18 0.000000 0.521201 0.248445
O O19 0.809574 0.750000 0.573078
#
# Coordination Sequence:
#
# PCOD9536499 Si02
#       7
#    16   8  16  16  16  16  16
#     4  10  22  37  55  77 106 145 188 227 271 326
#     4  12  26  42  58  76 106 150 195 236 271 322
#     4  10  19  34  57  81 106 144 186 222 270 336
#     4  11  21  30  47  80 115 143 172 218 271 318
#     4  10  19  35  59  84 109 140 181 230 281 328
#     4   9  16  29  55  87 112 135 170 222 278 328
#     4  10  20  35  56  80 108 144 182 224 270 328
#
# _framework density 21.299040000000002
#
# number of rings (size 3 to 8) (size 9 to 14) (size 15 to 20)
#    0.000    1.846    3.846    1.154    0.000    3.077 
#    0.000    1.538    0.000    0.462    0.000    0.000 
#    0.000    0.000    0.000    0.000    0.000    0.000 
#
# Total GULP energy -290063.849970 kJ/mol
# GULP energy per Si atom -5578.150961 kJ/mol
# Density = 2.125056 g / cm^3
# Si number density = 21.299040 Si / 1000 Ang^3
#
#
#
# Elastic Constant Matrix: (Units=GPa)
#
#
# Indices 1 2 3 4 5 6 
#
# 1 130.6527 7.3251 42.1895 0.0000 0.0000 0.0000
# 2 7.3251 66.9074 -14.0406 0.0000 0.0000 0.0000
# 3 42.1895 -14.0406 98.6094 0.0000 0.0000 0.0000
# 4 0.0000 0.0000 0.0000 -29.2475 0.0000 0.0000
# 5 0.0000 0.0000 0.0000 0.0000 14.6010 0.0000
# 6 0.0000 0.0000 0.0000 0.0000 0.0000 18.7900
#
#
#
# Elastic Compliance Matrix: (Units=1/GPa)
#
#
# Indices 1 2 3 4 5 6 
#
# 1 0.009102 -0.001870 -0.004161 0.000000 0.000000 0.000000
# 2 -0.001870 0.015790 0.003048 0.000000 0.000000 0.000000
# 3 -0.004161 0.003048 0.012355 0.000000 0.000000 0.000000
# 4 0.000000 0.000000 0.000000 -0.034191 0.000000 0.000000
# 5 0.000000 0.000000 0.000000 0.000000 0.068488 0.000000
# 6 0.000000 0.000000 0.000000 0.000000 0.000000 0.053220
#
#
# Mechanical properties :
#
#
# Convention : Reuss Voigt Hill
#
# Bulk Modulus (GPa) = 31.96534 40.79082 36.37808
# Shear Modulus (GPa) = 35.42168 18.20842 26.81505
#
# Velocity S-wave (km/s) = 4.08249 2.92703 3.55206
# Velocity P-wave (km/s) = 6.10433 5.53321 5.82577
#
# Compressibility (1/GPa) = 0.03128389
#
# Stress axis : x y z
#
# Youngs Moduli (GPa) = 109.86375 63.32965 80.93821
#
# Poissons Ratio (x) = 0.11840 0.33675
# Poissons Ratio (y) = 0.20540 -0.24672
# Poissons Ratio (z) = 0.45709 -0.19304
#
# Static dielectric constant tensor:
#      x y z
#    x 1.651690 0.000000 0.000000 
#    y 0.000000 1.823860 0.000000 
#    z 0.000000 0.000000 1.732000 
# 
# From -- ./inp_files/49573.got.cif
#   From: 2010.05.17/outbox.cif.g08.bks.cpg/sg74_25_cif.got.tgz:49573.got - 2010.06.03 17:57:02.
