data_PCOD9536803
_publ_section_title
;
Structure prediction by ZEFSAII (Michael W. Deem and Ramdas Pophale) SiO2 
 PCOD9536803
Probable space group: I M M A
;
_chemical_formula_sum "Si O2"
_cell_formula_units_Z 112
_cell_length_a 14.587581
_cell_length_b 24.061565
_cell_length_c 14.899366
_cell_angle_alpha 90.000000
_cell_angle_beta 90.000000
_cell_angle_gamma 90.000000
_cell_volume 5229.677890
_symmetry_space_group_name_H-M "I M M A"
_symmetry_group_IT_number 74
_symmetry_cell_setting 'orthorhombic'
loop_
_space_group_symop_operation_xyz
x,y,z
-x,1/2-y,z
x,-y,-z
-x,1/2+y,-z
-x,-y,-z
x,1/2+y,-z
-x,y,z
x,1/2-y,z
1/2+x,1/2+y,1/2+z
1/2-x,-y,1/2+z
1/2+x,1/2-y,1/2-z
1/2-x,y,1/2-z
1/2-x,1/2-y,1/2-z
1/2+x,y,1/2-z
1/2-x,1/2+y,1/2+z
1/2+x,-y,1/2+z
loop_
_atom_site_type_symbol
_atom_site_label
_atom_site_fract_x
_atom_site_fract_y
_atom_site_fract_z
Si Si1 0.390451 0.142698 0.655341
Si Si2 0.391531 0.116711 0.857363
Si Si3 0.677021 0.188531 0.330183
Si Si4 0.742298 0.187343 0.972197
Si Si5 0.389553 0.008264 0.100293
Si Si6 0.888510 0.517712 0.099001
Si Si7 0.608281 0.926375 0.737687
O O1 0.500000 0.150160 0.642549
O O2 0.371214 0.145220 0.761615
O O3 0.329667 0.182099 0.593886
O O4 0.364030 0.080322 0.624190
O O5 0.500000 0.122775 0.875501
O O6 0.332048 0.144186 0.935214
O O7 0.374226 0.050645 0.850295
O O8 0.631596 0.250000 0.336137
O O9 0.750000 0.192162 0.250000
O O10 0.724250 0.177865 0.426261
O O11 0.620368 0.134733 0.301528
O O12 0.704766 0.250000 0.967407
O O13 0.500000 0.015284 0.090650
O O14 0.355938 0.058838 0.162622
O O15 0.352784 0.000000 0.000000
O O16 0.854027 0.472515 0.169562
O O17 0.000000 0.516616 0.100647
O O18 0.860015 0.500000 0.000000
O O19 0.500000 0.936391 0.742453
#
# Coordination Sequence:
#
# PCOD9536803 Si02
#       7
#    16  16  16  16  16  16  16
#     4  10  20  38  62  91 129 166 202 255 324 389
#     4  10  21  40  65  92 128 168 207 262 325 383
#     4  10  24  45  61  82 124 167 211 269 315 360
#     4  11  25  43  63  90 125 168 219 270 317 374
#     4   9  18  34  59  92 127 159 197 255 318 377
#     4   9  16  29  52  84 122 157 191 239 301 368
#     4  10  19  36  64  93 119 158 207 255 317 383
#
# _framework density 21.416232999999998
#
# number of rings (size 3 to 8) (size 9 to 14) (size 15 to 20)
#    0.000    2.143    1.429    1.286    2.000    3.714 
#    2.571    3.571    0.000    2.571    0.000    0.000 
#    0.000    0.000    0.000    0.000    0.000    0.000 
#
# Total GULP energy -312724.933352 kJ/mol
# GULP energy per Si atom -5584.373810 kJ/mol
# Density = 2.136749 g / cm^3
# Si number density = 21.416233 Si / 1000 Ang^3
#
#
#
# Elastic Constant Matrix: (Units=GPa)
#
#
# Indices 1 2 3 4 5 6 
#
# 1 54.6962 11.7838 18.7540 0.0010 0.0000 0.0000
# 2 11.7838 90.5931 47.2444 0.0005 0.0000 0.0001
# 3 18.7540 47.2444 149.2640 0.0015 0.0000 0.0000
# 4 0.0010 0.0005 0.0015 1172.2955 0.0002 0.0015
# 5 0.0000 0.0000 0.0000 0.0002 14.9621 0.0000
# 6 0.0000 0.0001 0.0000 0.0015 0.0000 21.8808
#
#
#
# Elastic Compliance Matrix: (Units=1/GPa)
#
#
# Indices 1 2 3 4 5 6 
#
# 1 0.019272 -0.001490 -0.001950 0.000000 0.000000 0.000000
# 2 -0.001490 0.013336 -0.004034 0.000000 0.000000 0.000000
# 3 -0.001950 -0.004034 0.008221 0.000000 0.000000 0.000000
# 4 0.000000 0.000000 0.000000 0.000853 0.000000 0.000000
# 5 0.000000 0.000000 0.000000 0.000000 0.066836 0.000000
# 6 0.000000 0.000000 0.000000 0.000000 0.000000 0.045702
#
#
# Mechanical properties :
#
#
# Convention : Reuss Voigt Hill
#
# Bulk Modulus (GPa) = 38.63654 50.01307 44.32481
# Shear Modulus (GPa) = 28.12228 256.27908 142.20068
#
# Velocity S-wave (km/s) = 3.62764 10.95105 8.15737
# Velocity P-wave (km/s) = 5.96878 13.53899 10.46257
#
# Compressibility (1/GPa) = 0.02588224
#
# Stress axis : x y z
#
# Youngs Moduli (GPa) = 51.88776 74.98611 121.63553
#
# Poissons Ratio (x) = 0.11173 0.23717
# Poissons Ratio (y) = 0.07731 0.49065
# Poissons Ratio (z) = 0.10117 0.30248
#
# Static dielectric constant tensor:
#      x y z
#    x 1.793510 0.000000 0.000000 
#    y 0.000000 1.800070 0.000000 
#    z 0.000000 0.000000 1.776830 
# 
# From -- ./inp_files/32750.got.cif
#   From: 2010.05.17/outbox.cif.g08.bks.cpg/sg74_17_cif.got.tgz:32750.got - 2010.06.03 17:57:02.
