data_PCOD9536812
_publ_section_title
;
Structure prediction by ZEFSAII (Michael W. Deem and Ramdas Pophale) SiO2 
 PCOD9536812
Probable space group: I M M A
;
_chemical_formula_sum "Si O2"
_cell_formula_units_Z 104
_cell_length_a 11.858213
_cell_length_b 26.928707
_cell_length_c 16.548379
_cell_angle_alpha 90.000000
_cell_angle_beta 90.000000
_cell_angle_gamma 90.000000
_cell_volume 5284.333356
_symmetry_space_group_name_H-M "I M M A"
_symmetry_group_IT_number 74
_symmetry_cell_setting 'orthorhombic'
loop_
_space_group_symop_operation_xyz
x,y,z
-x,1/2-y,z
x,-y,-z
-x,1/2+y,-z
-x,-y,-z
x,1/2+y,-z
-x,y,z
x,1/2-y,z
1/2+x,1/2+y,1/2+z
1/2-x,-y,1/2+z
1/2+x,1/2-y,1/2-z
1/2-x,y,1/2-z
1/2-x,1/2-y,1/2-z
1/2+x,y,1/2-z
1/2-x,1/2+y,1/2+z
1/2+x,-y,1/2+z
loop_
_atom_site_type_symbol
_atom_site_label
_atom_site_fract_x
_atom_site_fract_y
_atom_site_fract_z
Si Si1 0.873641 0.650429 0.774509
Si Si2 0.375826 0.091945 0.613723
Si Si3 0.750000 0.467296 0.750000
Si Si4 0.713785 0.892308 0.563292
Si Si5 0.876682 0.449015 0.334922
Si Si6 0.208276 0.304841 0.841405
Si Si7 0.633608 0.306326 0.992876
O O1 0.750000 0.674464 0.750000
O O2 0.863058 0.632174 0.867219
O O3 0.875009 0.600479 0.720238
O O4 0.000000 0.674102 0.762719
O O5 0.500000 0.070924 0.626218
O O6 0.289749 0.065136 0.674070
O O7 0.344460 0.091536 0.519445
O O8 0.371711 0.149907 0.637654
O O9 0.848139 0.503909 0.719587
O O10 0.778739 0.939096 0.601060
O O11 0.805010 0.849366 0.542395
O O12 0.000000 0.453566 0.372420
O O13 0.158085 0.250000 0.853489
O O14 0.250000 0.308733 0.750000
O O15 0.313761 0.308869 0.903033
O O16 0.500000 0.313539 0.992268
O O17 0.656903 0.250000 0.023274
#
# Coordination Sequence:
#
# PCOD9536812 Si02
#       7
#    16  16   8  16  16  16  16
#     4   9  17  33  58  85 111 144 192 244 290 346
#     4  11  24  38  56  83 117 151 184 235 294 341
#     4  12  22  42  53  82 115 150 188 246 286 340
#     4  10  19  37  57  86 113 148 195 237 281 352
#     4  10  20  38  61  82 108 150 195 238 290 345
#     4   9  18  36  57  80 110 146 193 232 271 339
#     4   9  18  32  54  85 119 151 185 235 293 345
#
# _framework density 19.680817000000001
#
# number of rings (size 3 to 8) (size 9 to 14) (size 15 to 20)
#    0.000    2.154    3.077    1.385    0.000    2.154 
#    0.000    5.385    0.000    5.538    0.000    4.308 
#    0.000    0.000    0.000    0.000    0.000    0.000 
#
# Total GULP energy -289815.813174 kJ/mol
# GULP energy per Si atom -5573.381023 kJ/mol
# Density = 1.963602 g / cm^3
# Si number density = 19.680817 Si / 1000 Ang^3
#
#
#
# Elastic Constant Matrix: (Units=GPa)
#
#
# Indices 1 2 3 4 5 6 
#
# 1 94.3782 0.8225 6.9938 0.0001 0.0000 0.0000
# 2 0.8225 33.1971 7.3169 0.0001 0.0000 0.0000
# 3 6.9938 7.3169 88.4627 0.0003 0.0001 0.0000
# 4 0.0001 0.0001 0.0003 110.9056 -0.0003 -0.0001
# 5 0.0000 0.0000 0.0001 -0.0003 -0.0555 0.0000
# 6 0.0000 0.0000 0.0000 -0.0001 0.0000 8.9432
#
#
#
# Elastic Compliance Matrix: (Units=1/GPa)
#
#
# Indices 1 2 3 4 5 6 
#
# 1 0.010658 -0.000080 -0.000836 0.000000 0.000000 0.000000
# 2 -0.000080 0.030683 -0.002532 0.000000 0.000002 0.000000
# 3 -0.000836 -0.002532 0.011580 0.000000 0.000015 0.000000
# 4 0.000000 0.000000 0.000000 0.009017 -0.000047 0.000000
# 5 0.000000 0.000002 0.000015 -0.000047-18.002184 -0.000029
# 6 0.000000 0.000000 0.000000 0.000000 -0.000029 0.111816
#
#
# Mechanical properties :
#
#
# Convention : Reuss Voigt Hill
#
# Bulk Modulus (GPa) = 21.72668 27.36714 24.54691
# Shear Modulus (GPa) = -0.28080 37.35231 18.53575
#
# Velocity S-wave (km/s) = -0.37814 4.36122 3.07224
# Velocity P-wave (km/s) = 3.29740 6.26865 5.00843
#
# Compressibility (1/GPa) = 0.04602635
#
# Stress axis : x y z
#
# Youngs Moduli (GPa) = 93.82347 32.59126 86.35812
#
# Poissons Ratio (x) = 0.00260 0.07220
# Poissons Ratio (y) = 0.00749 0.21862
# Poissons Ratio (z) = 0.07844 0.08251
#
# Static dielectric constant tensor:
#      x y z
#    x 1.717000 0.000000 0.000000 
#    y 0.000000 1.678190 0.000000 
#    z 0.000000 0.000000 1.683700 
# 
# From -- ./inp_files/41716.got.cif
#   From: 2010.05.17/outbox.cif.g08.bks.cpg/sg74_21_cif.got.tgz:41716.got - 2010.06.03 17:57:02.
