data_PCOD9536219
_publ_section_title
;
Structure prediction by ZEFSAII (Michael W. Deem and Ramdas Pophale) SiO2 
 PCOD9536219
Probable space group: I M M A
;
_chemical_formula_sum "Si O2"
_cell_formula_units_Z 104
_cell_length_a 7.574920
_cell_length_b 32.287931
_cell_length_c 19.701318
_cell_angle_alpha 90.000000
_cell_angle_beta 90.000000
_cell_angle_gamma 90.000000
_cell_volume 4818.518692
_symmetry_space_group_name_H-M "I M M A"
_symmetry_group_IT_number 74
_symmetry_cell_setting 'orthorhombic'
loop_
_space_group_symop_operation_xyz
x,y,z
-x,1/2-y,z
x,-y,-z
-x,1/2+y,-z
-x,-y,-z
x,1/2+y,-z
-x,y,z
x,1/2-y,z
1/2+x,1/2+y,1/2+z
1/2-x,-y,1/2+z
1/2+x,1/2-y,1/2-z
1/2-x,y,1/2-z
1/2-x,1/2-y,1/2-z
1/2+x,y,1/2-z
1/2-x,1/2+y,1/2+z
1/2+x,-y,1/2+z
loop_
_atom_site_type_symbol
_atom_site_label
_atom_site_fract_x
_atom_site_fract_y
_atom_site_fract_z
Si Si1 0.288847 0.250000 0.330556
Si Si2 0.289589 0.824268 0.173667
Si Si3 0.204760 0.962035 0.457978
Si Si4 0.711398 0.659517 0.670906
Si Si5 0.711615 0.580445 0.174164
Si Si6 0.285248 0.379913 0.462109
Si Si7 0.795065 0.705230 0.029530
O O1 0.500000 0.250000 0.341737
O O2 0.250000 0.250000 0.250000
O O3 0.220648 0.205045 0.352475
O O4 0.500000 0.824135 0.165316
O O5 0.250000 0.809557 0.250000
O O6 0.222804 0.872002 0.168460
O O7 0.213220 0.799046 0.110943
O O8 0.282762 0.948604 0.385415
O O9 0.212248 0.920560 0.502744
O O10 0.000000 0.973334 0.444899
O O11 0.285205 0.000000 0.500000
O O12 0.500000 0.661682 0.666038
O O13 0.750000 0.652393 0.750000
O O14 0.768409 0.625704 0.616374
O O15 0.500000 0.582970 0.166282
O O16 0.750000 0.565698 0.250000
O O17 0.500000 0.382224 0.467019
O O18 0.223881 0.337810 0.499790
O O19 0.717774 0.750000 0.009485
O O20 0.000000 0.706070 0.007969
#
# Coordination Sequence:
#
# PCOD9536219 Si02
#       7
#     8  16  16  16  16  16  16
#     4   8  14  26  46  70 100 134 175 218 255 302
#     4  10  19  33  54  78 107 143 185 229 271 317
#     4  10  21  39  61  84 111 143 179 220 275 333
#     4   9  18  32  51  76 105 141 181 221 266 316
#     4   9  18  33  55  82 108 139 178 220 266 319
#     4  10  21  36  56  81 110 142 180 226 273 322
#     4  10  21  35  52  77 110 148 186 223 270 324
#
# _framework density 21.583397999999999
#
# number of rings (size 3 to 8) (size 9 to 14) (size 15 to 20)
#    0.000    2.462    1.538    0.462    1.077    2.769 
#    0.000    0.769    0.000    3.692    0.000    0.000 
#    0.000    0.000    0.000    0.000    0.000    0.000 
#
# Total GULP energy -290200.146054 kJ/mol
# GULP energy per Si atom -5580.772039 kJ/mol
# Density = 2.153427 g / cm^3
# Si number density = 21.583398 Si / 1000 Ang^3
#
#
#
# Elastic Constant Matrix: (Units=GPa)
#
#
# Indices 1 2 3 4 5 6 
#
# 1 53.5096 -5.7071 -10.7310 0.0000 0.0000 0.0000
# 2 -5.7071 112.6375 58.5892 0.0000 0.0000 0.0000
# 3 -10.7310 58.5892 128.1374 -0.0001 0.0000 0.0000
# 4 0.0000 0.0000 -0.0001 26.5787 0.0000 0.0000
# 5 0.0000 0.0000 0.0000 0.0000 11.7882 0.0000
# 6 0.0000 0.0000 0.0000 0.0000 0.0000 31.3171
#
#
#
# Elastic Compliance Matrix: (Units=1/GPa)
#
#
# Indices 1 2 3 4 5 6 
#
# 1 0.019010 0.000177 0.001511 0.000000 0.000000 0.000000
# 2 0.000177 0.011650 -0.005312 0.000000 0.000000 0.000000
# 3 0.001511 -0.005312 0.010360 0.000000 0.000000 0.000000
# 4 0.000000 0.000000 0.000000 0.037624 0.000000 0.000000
# 5 0.000000 0.000000 0.000000 0.000000 0.084830 0.000000
# 6 0.000000 0.000000 0.000000 0.000000 0.000000 0.031931
#
#
# Mechanical properties :
#
#
# Convention : Reuss Voigt Hill
#
# Bulk Modulus (GPa) = 29.61012 42.06518 35.83765
# Shear Modulus (GPa) = 23.37425 30.74569 27.05997
#
# Velocity S-wave (km/s) = 3.29443 3.77836 3.54466
# Velocity P-wave (km/s) = 5.31222 6.21020 5.77868
#
# Compressibility (1/GPa) = 0.03377223
#
# Stress axis : x y z
#
# Youngs Moduli (GPa) = 52.60341 85.83618 96.52963
#
# Poissons Ratio (x) = -0.01522 -0.14585
# Poissons Ratio (y) = -0.00932 0.51277
# Poissons Ratio (z) = -0.07948 0.45596
#
# Static dielectric constant tensor:
#      x y z
#    x 1.809440 0.000000 0.000000 
#    y 0.000000 1.781550 0.000000 
#    z 0.000000 0.000000 1.801160 
# 
# From -- ./inp_files/49590.got.cif
#   From: 2010.05.17/outbox.cif.g08.bks.cpg/sg74_25_cif.got.tgz:49590.got - 2010.06.03 17:57:02.
