data_PCOD9536524
_publ_section_title
;
Structure prediction by ZEFSAII (Michael W. Deem and Ramdas Pophale) SiO2 
 PCOD9536524
Probable space group: I M M A
;
_chemical_formula_sum "Si O2"
_cell_formula_units_Z 96
_cell_length_a 17.600119
_cell_length_b 29.492542
_cell_length_c 10.259239
_cell_angle_alpha 90.000000
_cell_angle_beta 90.000000
_cell_angle_gamma 90.000000
_cell_volume 5325.286259
_symmetry_space_group_name_H-M "I M M A"
_symmetry_group_IT_number 74
_symmetry_cell_setting 'orthorhombic'
loop_
_space_group_symop_operation_xyz
x,y,z
-x,1/2-y,z
x,-y,-z
-x,1/2+y,-z
-x,-y,-z
x,1/2+y,-z
-x,y,z
x,1/2-y,z
1/2+x,1/2+y,1/2+z
1/2-x,-y,1/2+z
1/2+x,1/2-y,1/2-z
1/2-x,y,1/2-z
1/2-x,1/2-y,1/2-z
1/2+x,y,1/2-z
1/2-x,1/2+y,1/2+z
1/2+x,-y,1/2+z
loop_
_atom_site_type_symbol
_atom_site_label
_atom_site_fract_x
_atom_site_fract_y
_atom_site_fract_z
Si Si1 0.338431 0.802058 0.292474
Si Si2 0.698354 0.629122 0.872947
Si Si3 0.087595 0.068701 0.214905
Si Si4 0.682733 0.016193 0.645820
Si Si5 0.656665 0.610708 0.461330
Si Si6 0.913168 0.696800 0.487897
O O1 0.346915 0.750000 0.340593
O O2 0.250000 0.807571 0.250000
O O3 0.358821 0.841251 0.394325
O O4 0.388735 0.807509 0.162943
O O5 0.750000 0.643694 0.750000
O O6 0.643886 0.589280 0.822534
O O7 0.757776 0.613033 0.981388
O O8 0.645543 0.668554 0.926981
O O9 0.000000 0.070929 0.251396
O O10 0.115402 0.018035 0.183739
O O11 0.103431 0.098014 0.083558
O O12 0.750000 0.011577 0.750000
O O13 0.655458 0.068053 0.635844
O O14 0.707129 0.000000 0.500000
O O15 0.908307 0.750000 0.520269
O O16 0.000000 0.681689 0.506710
#
# Coordination Sequence:
#
# PCOD9536524 Si02
#       6
#    16  16  16  16  16  16
#     4  10  19  34  57  85 112 142 184 231 277 332
#     4  10  20  36  58  82 109 146 194 232 277 330
#     4  10  21  37  55  79 113 149 183 230 286 337
#     4  10  20  35  57  82 110 146 188 234 281 343
#     4  10  20  34  59  85 108 145 190 231 278 334
#     4  10  21  36  56  83 116 151 184 228 286 337
#
# _framework density 18.027199
#
# number of rings (size 3 to 8) (size 9 to 14) (size 15 to 20)
#    0.000    2.000    1.667    3.500    0.000    4.000 
#    0.000    2.500    0.000    2.500    0.000    0.000 
#    0.000    0.000    0.000    0.000    0.000    0.000 
#
# Total GULP energy -267863.218940 kJ/mol
# GULP energy per Si atom -5580.483728 kJ/mol
# Density = 1.798617 g / cm^3
# Si number density = 18.027199 Si / 1000 Ang^3
#
#
#
# Elastic Constant Matrix: (Units=GPa)
#
#
# Indices 1 2 3 4 5 6 
#
# 1 93.1484 31.3225 24.6100 -0.0002 -0.0001 -0.0001
# 2 31.3225 123.1556 44.0573 0.0000 -0.0001 0.0000
# 3 24.6100 44.0573 41.9619 0.0008 0.0008 0.0007
# 4 -0.0002 0.0000 0.0008 24.4303 0.0002 0.0003
# 5 -0.0001 -0.0001 0.0008 0.0002 11.1141 0.0001
# 6 -0.0001 0.0000 0.0007 0.0003 0.0001 13.6768
#
#
#
# Elastic Compliance Matrix: (Units=1/GPa)
#
#
# Indices 1 2 3 4 5 6 
#
# 1 0.012767 -0.000910 -0.006532 0.000000 0.000001 0.000000
# 2 -0.000910 0.013069 -0.013188 0.000000 0.000001 0.000001
# 3 -0.006532 -0.013188 0.041508 -0.000001 -0.000003 -0.000002
# 4 0.000000 0.000000 -0.000001 0.040933 -0.000001 -0.000001
# 5 0.000001 0.000001 -0.000003 -0.000001 0.089975 -0.000001
# 6 0.000000 0.000001 -0.000002 -0.000001 -0.000001 0.073116
#
#
# Mechanical properties :
#
#
# Convention : Reuss Voigt Hill
#
# Bulk Modulus (GPa) = 38.33697 50.91618 44.62658
# Shear Modulus (GPa) = 15.56057 20.39598 17.97828
#
# Velocity S-wave (km/s) = 2.94117 3.36728 3.16141
# Velocity P-wave (km/s) = 5.73117 6.58965 6.17535
#
# Compressibility (1/GPa) = 0.02608448
#
# Stress axis : x y z
#
# Youngs Moduli (GPa) = 78.32399 76.51633 24.09156
#
# Poissons Ratio (x) = 0.06966 0.15737
# Poissons Ratio (y) = 0.07131 0.31771
# Poissons Ratio (z) = 0.51161 1.00908
#
# Static dielectric constant tensor:
#      x y z
#    x 1.592120 0.000000 0.000000 
#    y 0.000000 1.623080 0.000000 
#    z 0.000000 0.000000 1.619990 
# 
# From -- ./inp_files/22670.got.cif
#   From: 2010.05.17/outbox.cif.g08.bks.cpg/sg74_12_cif.got.tgz:22670.got - 2010.06.03 17:57:02.
