data_PCOD9536112
_publ_section_title
;
Structure prediction by ZEFSAII (Michael W. Deem and Ramdas Pophale) SiO2 
 PCOD9536112
Probable space group: I M M A
;
_chemical_formula_sum "Si O2"
_cell_formula_units_Z 72
_cell_length_a 33.638215
_cell_length_b 8.760290
_cell_length_c 14.947316
_cell_angle_alpha 90.000000
_cell_angle_beta 90.000000
_cell_angle_gamma 90.000000
_cell_volume 4404.682829
_symmetry_space_group_name_H-M "I M M A"
_symmetry_group_IT_number 74
_symmetry_cell_setting 'orthorhombic'
loop_
_space_group_symop_operation_xyz
x,y,z
-x,1/2-y,z
x,-y,-z
-x,1/2+y,-z
-x,-y,-z
x,1/2+y,-z
-x,y,z
x,1/2-y,z
1/2+x,1/2+y,1/2+z
1/2-x,-y,1/2+z
1/2+x,1/2-y,1/2-z
1/2-x,y,1/2-z
1/2-x,1/2-y,1/2-z
1/2+x,y,1/2-z
1/2-x,1/2+y,1/2+z
1/2+x,-y,1/2+z
loop_
_atom_site_type_symbol
_atom_site_label
_atom_site_fract_x
_atom_site_fract_y
_atom_site_fract_z
Si Si1 0.157969 0.931898 0.779727
Si Si2 0.087548 0.565996 0.100788
Si Si3 0.724733 0.567751 0.403348
Si Si4 0.000000 0.933025 0.099541
Si Si5 0.181130 0.067996 0.596312
O O1 0.157223 0.750000 0.781369
O O2 0.121511 0.998666 0.836646
O O3 0.197910 0.992358 0.827778
O O4 0.158310 0.993038 0.678679
O O5 0.090909 0.750000 0.096769
O O6 0.043266 0.523806 0.137150
O O7 0.091377 0.500000 0.000000
O O8 0.713102 0.500000 0.500000
O O9 0.718825 0.750000 0.402862
O O10 0.771585 0.536668 0.390835
O O11 0.000000 0.750000 0.094206
O O12 0.000000 0.000000 0.000000
O O13 0.175932 0.250000 0.596646
O O14 0.169983 0.000000 0.500000
#
# Coordination Sequence:
#
# PCOD9536112 Si02
#       5
#    16  16  16   8  16
#     4  12  23  33  48  72 100 131 166 203 243 286
#     4  10  19  33  51  74 103 132 163 198 239 288
#     4  10  20  34  51  71  97 129 164 203 247 292
#     4   8  16  30  50  72  97 130 161 192 234 286
#     4  10  21  37  54  71  93 125 165 208 251 292
#
# _framework density 16.346239000000001
#
# number of rings (size 3 to 8) (size 9 to 14) (size 15 to 20)
#    0.000    1.778    0.000    5.333    0.000    6.222 
#    0.000    0.000    0.000    0.000    0.000    0.778 
#    0.000    0.000    0.000    0.000    0.000    0.000 
#
# Total GULP energy -200988.844653 kJ/mol
# GULP energy per Si atom -5583.023463 kJ/mol
# Density = 1.630903 g / cm^3
# Si number density = 16.346239 Si / 1000 Ang^3
#
#
#
# Elastic Constant Matrix: (Units=GPa)
#
#
# Indices 1 2 3 4 5 6 
#
# 1 67.7091 46.3700 59.5805 0.0000 0.0000 0.0000
# 2 46.3700 75.9418 51.8213 0.0000 0.0000 0.0000
# 3 59.5805 51.8213 122.1247 0.0000 0.0000 0.0000
# 4 0.0000 0.0000 0.0000 28.7724 0.0000 0.0000
# 5 0.0000 0.0000 0.0000 0.0000 11.3157 0.0000
# 6 0.0000 0.0000 0.0000 0.0000 0.0000 -35.6755
#
#
#
# Elastic Compliance Matrix: (Units=1/GPa)
#
#
# Indices 1 2 3 4 5 6 
#
# 1 0.032896 -0.012858 -0.010593 0.000000 0.000000 0.000000
# 2 -0.012858 0.023560 -0.003725 0.000000 0.000000 0.000000
# 3 -0.010593 -0.003725 0.014937 0.000000 0.000000 0.000000
# 4 0.000000 0.000000 0.000000 0.034756 0.000000 0.000000
# 5 0.000000 0.000000 0.000000 0.000000 0.088373 0.000000
# 6 0.000000 0.000000 0.000000 0.000000 0.000000 -0.028030
#
#
# Mechanical properties :
#
#
# Convention : Reuss Voigt Hill
#
# Bulk Modulus (GPa) = 58.67632 64.59101 61.63367
# Shear Modulus (GPa) = 22.07292 8.08277 15.07785
#
# Velocity S-wave (km/s) = 3.67868 2.22609 3.04041
# Velocity P-wave (km/s) = 7.34965 6.79760 7.07901
#
# Compressibility (1/GPa) = 0.01704265
#
# Stress axis : x y z
#
# Youngs Moduli (GPa) = 30.39914 42.44394 66.94946
#
# Poissons Ratio (x) = 0.54573 0.70918
# Poissons Ratio (y) = 0.39086 0.24936
# Poissons Ratio (z) = 0.32201 0.15809
#
# Static dielectric constant tensor:
#      x y z
#    x 1.567420 0.000000 0.000000 
#    y 0.000000 1.540220 0.000000 
#    z 0.000000 0.000000 1.525590 
# 
# From -- ./inp_files/29193.got.cif
#   From: 2010.05.17/outbox.cif.g08.bks.cpg/sg74_15_cif.got.tgz:29193.got - 2010.06.03 17:57:02.
