data_PCOD9536159
_publ_section_title
;
Structure prediction by ZEFSAII (Michael W. Deem and Ramdas Pophale) SiO2 
 PCOD9536159
Probable space group: I M M A
;
_chemical_formula_sum "Si O2"
_cell_formula_units_Z 96
_cell_length_a 30.384909
_cell_length_b 9.171377
_cell_length_c 20.171019
_cell_angle_alpha 90.000000
_cell_angle_beta 90.000000
_cell_angle_gamma 90.000000
_cell_volume 5621.087225
_symmetry_space_group_name_H-M "I M M A"
_symmetry_group_IT_number 74
_symmetry_cell_setting 'orthorhombic'
loop_
_space_group_symop_operation_xyz
x,y,z
-x,1/2-y,z
x,-y,-z
-x,1/2+y,-z
-x,-y,-z
x,1/2+y,-z
-x,y,z
x,1/2-y,z
1/2+x,1/2+y,1/2+z
1/2-x,-y,1/2+z
1/2+x,1/2-y,1/2-z
1/2-x,y,1/2-z
1/2-x,1/2-y,1/2-z
1/2+x,y,1/2-z
1/2-x,1/2+y,1/2+z
1/2+x,-y,1/2+z
loop_
_atom_site_type_symbol
_atom_site_label
_atom_site_fract_x
_atom_site_fract_y
_atom_site_fract_z
Si Si1 0.631104 0.425480 0.209979
Si Si2 0.793379 0.923887 0.204639
Si Si3 0.732416 0.923671 0.569029
Si Si4 0.550714 0.423759 0.299784
Si Si5 0.446289 0.082758 0.565923
Si Si6 0.162055 0.077916 0.432942
O O1 0.638964 0.250000 0.213332
O O2 0.666078 0.506853 0.255959
O O3 0.582912 0.454847 0.239087
O O4 0.638416 0.471705 0.134163
O O5 0.798246 0.750000 0.196333
O O6 0.750000 0.949798 0.250000
O O7 0.788178 0.001302 0.133592
O O8 0.723810 0.750000 0.567454
O O9 0.785381 0.944891 0.575185
O O10 0.718832 0.000000 0.500000
O O11 0.500000 0.465578 0.287135
O O12 0.551634 0.250000 0.312226
O O13 0.566664 0.503584 0.366332
O O14 0.500000 0.080310 0.564768
O O15 0.432089 0.250000 0.565261
O O16 0.431112 0.000000 0.500000
O O17 0.154954 0.250000 0.440321
O O18 0.147731 0.000000 0.500000
#
# Coordination Sequence:
#
# PCOD9536159 Si02
#       6
#    16  16  16  16  16  16
#     4  10  20  35  54  77 104 137 175 213 260 311
#     4  11  22  34  51  77 107 137 171 211 256 307
#     4  10  19  33  53  75 105 141 177 214 256 306
#     4   9  18  33  53  76 102 133 172 217 261 306
#     4   9  16  27  46  71  98 128 164 206 252 302
#     4   9  18  31  50  75 101 132 170 210 252 303
#
# _framework density 17.078548000000001
#
# number of rings (size 3 to 8) (size 9 to 14) (size 15 to 20)
#    0.000    2.333    1.667    1.500    0.000    4.667 
#    0.000    0.833    0.000    4.500    0.000    0.000 
#    0.000    0.000    0.000    0.000    0.000    0.000 
#
# Total GULP energy -267790.690170 kJ/mol
# GULP energy per Si atom -5578.972712 kJ/mol
# Density = 1.703968 g / cm^3
# Si number density = 17.078548 Si / 1000 Ang^3
#
#
#
# Elastic Constant Matrix: (Units=GPa)
#
#
# Indices 1 2 3 4 5 6 
#
# 1 50.8143 39.8407 58.6126 0.0000 0.0000 0.0000
# 2 39.8407 56.5374 75.6206 0.0000 0.0000 0.0000
# 3 58.6126 75.6206 197.4960 0.0000 0.0000 0.0000
# 4 0.0000 0.0000 0.0000 34.0852 0.0000 0.0000
# 5 0.0000 0.0000 0.0000 0.0000 23.2071 0.0000
# 6 0.0000 0.0000 0.0000 0.0000 0.0000 12.2977
#
#
#
# Elastic Compliance Matrix: (Units=1/GPa)
#
#
# Indices 1 2 3 4 5 6 
#
# 1 0.044553 -0.028103 -0.002462 0.000000 0.000000 0.000000
# 2 -0.028103 0.053981 -0.012329 0.000000 0.000000 0.000000
# 3 -0.002462 -0.012329 0.010515 0.000000 0.000000 0.000000
# 4 0.000000 0.000000 0.000000 0.029338 0.000000 0.000000
# 5 0.000000 0.000000 0.000000 0.000000 0.043090 0.000000
# 6 0.000000 0.000000 0.000000 0.000000 0.000000 0.081316
#
#
# Mechanical properties :
#
#
# Convention : Reuss Voigt Hill
#
# Bulk Modulus (GPa) = 42.98887 72.55505 57.77196
# Shear Modulus (GPa) = 14.03177 22.63626 18.33402
#
# Velocity S-wave (km/s) = 2.86947 3.64458 3.28000
# Velocity P-wave (km/s) = 6.01701 7.76441 6.94588
#
# Compressibility (1/GPa) = 0.02326184
#
# Stress axis : x y z
#
# Youngs Moduli (GPa) = 22.44515 18.52504 95.10443
#
# Poissons Ratio (x) = 0.52060 0.23415
# Poissons Ratio (y) = 0.63077 1.17253
# Poissons Ratio (z) = 0.05526 0.22839
#
# Static dielectric constant tensor:
#      x y z
#    x 1.580510 0.000000 0.000000 
#    y 0.000000 1.571670 0.000000 
#    z 0.000000 0.000000 1.560570 
# 
# From -- ./inp_files/49086.got.cif
#   From: 2010.05.17/outbox.cif.g08.bks.cpg/sg74_25_cif.got.tgz:49086.got - 2010.06.03 17:57:02.
