data_PCOD9536848
_publ_section_title
;
Structure prediction by ZEFSAII (Michael W. Deem and Ramdas Pophale) SiO2 
 PCOD9536848
Probable space group: I M M A
;
_chemical_formula_sum "Si O2"
_cell_formula_units_Z 84
_cell_length_a 24.070942
_cell_length_b 14.433962
_cell_length_c 10.970316
_cell_angle_alpha 90.000000
_cell_angle_beta 90.000000
_cell_angle_gamma 90.000000
_cell_volume 3811.516302
_symmetry_space_group_name_H-M "I M M A"
_symmetry_group_IT_number 74
_symmetry_cell_setting 'orthorhombic'
loop_
_space_group_symop_operation_xyz
x,y,z
-x,1/2-y,z
x,-y,-z
-x,1/2+y,-z
-x,-y,-z
x,1/2+y,-z
-x,y,z
x,1/2-y,z
1/2+x,1/2+y,1/2+z
1/2-x,-y,1/2+z
1/2+x,1/2-y,1/2-z
1/2-x,y,1/2-z
1/2-x,1/2-y,1/2-z
1/2+x,y,1/2-z
1/2-x,1/2+y,1/2+z
1/2+x,-y,1/2+z
loop_
_atom_site_type_symbol
_atom_site_label
_atom_site_fract_x
_atom_site_fract_y
_atom_site_fract_z
Si Si1 0.576784 0.433356 0.387756
Si Si2 0.290495 0.858651 0.866269
Si Si3 0.687252 0.643013 0.235998
Si Si4 0.893208 0.004005 0.366090
Si Si5 0.000000 0.750000 0.898222
Si Si6 0.815938 0.856926 0.986016
O O1 0.560245 0.500000 0.500000
O O2 0.569491 0.476624 0.253198
O O3 0.547663 0.333548 0.397306
O O4 0.642795 0.417046 0.406324
O O5 0.303960 0.750000 0.871216
O O6 0.250000 0.873875 0.750000
O O7 0.346267 0.916165 0.868052
O O8 0.248422 0.884193 0.975586
O O9 0.692340 0.750000 0.195795
O O10 0.750000 0.604912 0.250000
O O11 0.643462 0.587661 0.156909
O O12 0.664964 0.641046 0.374789
O O13 0.920255 0.000000 0.500000
O O14 0.817908 0.750000 0.943764
#
# Coordination Sequence:
#
# PCOD9536848 Si02
#       6
#    16  16  16  16   4  16
#     4  12  25  47  75 103 129 167 221 289 352 406
#     4  10  20  32  56  96 142 187 229 267 308 377
#     4  10  21  37  56  89 143 194 227 261 309 375
#     4  12  25  38  63 101 142 182 224 263 322 408
#     4  12  30  52  82 106 120 156 226 306 368 416
#     4  10  19  37  63  94 133 177 227 274 315 379
#
# _framework density 22.038473
#
# number of rings (size 3 to 8) (size 9 to 14) (size 15 to 20)
#    0.000    1.143    4.762    2.000    1.333    3.048 
#    0.000    0.476    0.000    1.143    0.000    0.000 
#    0.000    0.000    0.000    0.000    0.000    0.000 
#
# Total GULP energy -234281.523786 kJ/mol
# GULP energy per Si atom -5578.131519 kJ/mol
# Density = 2.198831 g / cm^3
# Si number density = 22.038473 Si / 1000 Ang^3
#
#
#
# Elastic Constant Matrix: (Units=GPa)
#
#
# Indices 1 2 3 4 5 6 
#
# 1 61.4388 25.9807 12.3601 0.0000 0.0000 0.0000
# 2 25.9807 127.4558 38.9521 0.0000 0.0000 0.0000
# 3 12.3601 38.9521 165.3366 0.0000 0.0000 0.0000
# 4 0.0000 0.0000 0.0000 17.0984 0.0000 0.0000
# 5 0.0000 0.0000 0.0000 0.0000 -24.0656 0.0000
# 6 0.0000 0.0000 0.0000 0.0000 0.0000 143.4184
#
#
#
# Elastic Compliance Matrix: (Units=1/GPa)
#
#
# Indices 1 2 3 4 5 6 
#
# 1 0.017852 -0.003482 -0.000514 0.000000 0.000000 0.000000
# 2 -0.003482 0.009134 -0.001892 0.000000 0.000000 0.000000
# 3 -0.000514 -0.001892 0.006532 0.000000 0.000000 0.000000
# 4 0.000000 0.000000 0.000000 0.058485 0.000000 0.000000
# 5 0.000000 0.000000 0.000000 0.000000 -0.041553 0.000000
# 6 0.000000 0.000000 0.000000 0.000000 0.000000 0.006973
#
#
# Mechanical properties :
#
#
# Convention : Reuss Voigt Hill
#
# Bulk Modulus (GPa) = 45.99201 56.53522 51.26362
# Shear Modulus (GPa) = 65.40588 45.75279 55.57934
#
# Velocity S-wave (km/s) = 5.45367 4.56130 5.02732
# Velocity P-wave (km/s) = 7.78273 7.31090 7.55050
#
# Compressibility (1/GPa) = 0.02174291
#
# Stress axis : x y z
#
# Youngs Moduli (GPa) = 56.01552 109.48490 153.08431
#
# Poissons Ratio (x) = 0.38121 0.07873
# Poissons Ratio (y) = 0.19504 0.28956
# Poissons Ratio (z) = 0.02881 0.20709
#
# Static dielectric constant tensor:
#      x y z
#    x 1.776760 0.000000 0.000000 
#    y 0.000000 1.810320 0.000000 
#    z 0.000000 0.000000 1.947940 
# 
# From -- ./inp_files/24978.got.cif
#   From: 2010.05.17/outbox.cif.g08.bks.cpg/sg74_13_cif.got.tgz:24978.got - 2010.06.03 17:57:02.
