data_PCOD9536039
_publ_section_title
;
Structure prediction by ZEFSAII (Michael W. Deem and Ramdas Pophale) SiO2 
 PCOD9536039
Probable space group: I M M A
;
_chemical_formula_sum "Si O2"
_cell_formula_units_Z 112
_cell_length_a 29.023327
_cell_length_b 18.048907
_cell_length_c 10.490082
_cell_angle_alpha 90.000000
_cell_angle_beta 90.000000
_cell_angle_gamma 90.000000
_cell_volume 5495.117525
_symmetry_space_group_name_H-M "I M M A"
_symmetry_group_IT_number 74
_symmetry_cell_setting 'orthorhombic'
loop_
_space_group_symop_operation_xyz
x,y,z
-x,1/2-y,z
x,-y,-z
-x,1/2+y,-z
-x,-y,-z
x,1/2+y,-z
-x,y,z
x,1/2-y,z
1/2+x,1/2+y,1/2+z
1/2-x,-y,1/2+z
1/2+x,1/2-y,1/2-z
1/2-x,y,1/2-z
1/2-x,1/2-y,1/2-z
1/2+x,y,1/2-z
1/2-x,1/2+y,1/2+z
1/2+x,-y,1/2+z
loop_
_atom_site_type_symbol
_atom_site_label
_atom_site_fract_x
_atom_site_fract_y
_atom_site_fract_z
Si Si1 0.851990 0.664882 0.759295
Si Si2 0.306065 0.835259 0.999176
Si Si3 0.053417 0.665791 0.392997
Si Si4 0.302303 0.561435 0.248388
Si Si5 0.199395 0.163921 0.996340
Si Si6 0.393428 0.018633 0.851889
Si Si7 0.448342 0.374923 0.191268
O O1 0.835370 0.750000 0.757717
O O2 0.836372 0.637526 0.619640
O O3 0.906889 0.662336 0.766597
O O4 0.829778 0.633252 0.886222
O O5 0.319094 0.750000 0.030502
O O6 0.307414 0.886611 0.123018
O O7 0.252596 0.835684 0.960386
O O8 0.067234 0.750000 0.361940
O O9 0.086425 0.601651 0.341509
O O10 0.053630 0.656012 0.546645
O O11 0.000000 0.654831 0.353353
O O12 0.250000 0.528593 0.250000
O O13 0.305276 0.613131 0.372405
O O14 0.347480 0.511010 0.232897
O O15 0.187241 0.250000 0.966234
O O16 0.433379 0.960928 0.814486
O O17 0.383293 0.000000 0.000000
O O18 0.500000 0.364441 0.238976
#
# Coordination Sequence:
#
# PCOD9536039 Si02
#       7
#    16  16  16  16  16  16  16
#     4  10  19  32  54  83 111 143 183 225 269 316
#     4   9  16  29  52  81 112 144 178 217 263 318
#     4   9  17  30  52  83 112 137 173 224 275 320
#     4  10  20  34  52  77 107 142 183 222 266 320
#     4   9  18  32  51  79 115 148 179 219 267 319
#     4  10  20  35  54  77 108 145 180 219 272 328
#     4  10  20  34  52  75 104 139 181 227 273 322
#
# _framework density 20.381730000000001
#
# number of rings (size 3 to 8) (size 9 to 14) (size 15 to 20)
#    0.000    2.429    0.000    3.429    0.000    8.286 
#    0.000    5.000    0.000    2.571    0.000    0.000 
#    0.000    0.571    0.000    0.000    0.000    0.000 
#
# Total GULP energy -312555.456748 kJ/mol
# GULP energy per Si atom -5581.347442 kJ/mol
# Density = 2.033534 g / cm^3
# Si number density = 20.381730 Si / 1000 Ang^3
#
#
#
# Elastic Constant Matrix: (Units=GPa)
#
#
# Indices 1 2 3 4 5 6 
#
# 1 112.3744 13.2321 47.6653 0.0000 0.0000 0.0000
# 2 13.2321 81.0300 9.8841 0.0000 0.0000 0.0000
# 3 47.6653 9.8841 67.0195 0.0000 0.0000 0.0000
# 4 0.0000 0.0000 0.0000 16.2056 0.0000 0.0000
# 5 0.0000 0.0000 0.0000 0.0000 26.6320 0.0000
# 6 0.0000 0.0000 0.0000 0.0000 0.0000 21.1617
#
#
#
# Elastic Compliance Matrix: (Units=1/GPa)
#
#
# Indices 1 2 3 4 5 6 
#
# 1 0.012822 -0.000999 -0.008972 0.000000 0.000000 0.000000
# 2 -0.000999 0.012645 -0.001154 0.000000 0.000000 0.000000
# 3 -0.008972 -0.001154 0.021472 0.000000 0.000000 0.000000
# 4 0.000000 0.000000 0.000000 0.061707 0.000000 0.000000
# 5 0.000000 0.000000 0.000000 0.000000 0.037549 0.000000
# 6 0.000000 0.000000 0.000000 0.000000 0.000000 0.047255
#
#
# Mechanical properties :
#
#
# Convention : Reuss Voigt Hill
#
# Bulk Modulus (GPa) = 40.50461 44.66521 42.58491
# Shear Modulus (GPa) = 22.32837 25.44270 23.88554
#
# Velocity S-wave (km/s) = 3.31344 3.53698 3.42703
# Velocity P-wave (km/s) = 5.87832 6.21628 6.04966
#
# Compressibility (1/GPa) = 0.02468855
#
# Stress axis : x y z
#
# Youngs Moduli (GPa) = 77.99070 79.08207 46.57201
#
# Poissons Ratio (x) = 0.07904 0.41784
# Poissons Ratio (y) = 0.07795 0.05375
# Poissons Ratio (z) = 0.69972 0.09127
#
# Static dielectric constant tensor:
#      x y z
#    x 1.754010 0.000000 0.000000 
#    y 0.000000 1.794020 0.000000 
#    z 0.000000 0.000000 1.683620 
# 
# From -- ./inp_files/26485.got.cif
#   From: 2010.05.17/outbox.cif.g08.bks.cpg/sg74_14_cif.got.tgz:26485.got - 2010.06.03 17:57:02.
