data_PCOD9536548
_publ_section_title
;
Structure prediction by ZEFSAII (Michael W. Deem and Ramdas Pophale) SiO2 
 PCOD9536548
Probable space group: I M M A
;
_chemical_formula_sum "Si O2"
_cell_formula_units_Z 88
_cell_length_a 12.837431
_cell_length_b 23.183538
_cell_length_c 15.357143
_cell_angle_alpha 90.000000
_cell_angle_beta 90.000000
_cell_angle_gamma 90.000000
_cell_volume 4570.547894
_symmetry_space_group_name_H-M "I M M A"
_symmetry_group_IT_number 74
_symmetry_cell_setting 'orthorhombic'
loop_
_space_group_symop_operation_xyz
x,y,z
-x,1/2-y,z
x,-y,-z
-x,1/2+y,-z
-x,-y,-z
x,1/2+y,-z
-x,y,z
x,1/2-y,z
1/2+x,1/2+y,1/2+z
1/2-x,-y,1/2+z
1/2+x,1/2-y,1/2-z
1/2-x,y,1/2-z
1/2-x,1/2-y,1/2-z
1/2+x,y,1/2-z
1/2-x,1/2+y,1/2+z
1/2+x,-y,1/2+z
loop_
_atom_site_type_symbol
_atom_site_label
_atom_site_fract_x
_atom_site_fract_y
_atom_site_fract_z
Si Si1 0.626920 0.750000 0.593542
Si Si2 0.627474 0.250000 0.609386
Si Si3 0.123500 0.632103 0.198748
Si Si4 0.375638 0.056776 0.859239
Si Si5 0.814012 0.937421 0.036371
Si Si6 0.750000 0.537500 0.750000
Si Si7 0.122650 0.374757 0.131714
O O1 0.500000 0.750000 0.591725
O O2 0.660346 0.750000 0.491975
O O3 0.659125 0.808835 0.640597
O O4 0.500000 0.250000 0.608315
O O5 0.663915 0.192174 0.659105
O O6 0.151626 0.610662 0.295420
O O7 0.142362 0.579808 0.130765
O O8 0.000000 0.639993 0.202957
O O9 0.500000 0.052298 0.868962
O O10 0.310523 0.063671 0.948025
O O11 0.325927 0.002004 0.808946
O O12 0.856967 0.891411 0.968678
O O13 0.844475 0.000000 0.000000
O O14 0.816768 0.578706 0.811932
O O15 0.000000 0.378268 0.149846
#
# Coordination Sequence:
#
# PCOD9536548 Si02
#       7
#     8   8  16  16  16   8  16
#     4   9  18  35  58  88 119 145 187 239 292 337
#     4   9  16  30  55  87 116 151 187 231 288 337
#     4  10  19  34  58  85 119 150 188 238 285 341
#     4  11  23  39  55  82 124 156 189 241 290 347
#     4  12  21  36  56  85 115 150 200 232 288 347
#     4  12  22  41  58  87 114 150 196 236 298 354
#     4  11  23  39  62  89 117 150 192 245 288 342
#
# _framework density 19.253710000000002
#
# number of rings (size 3 to 8) (size 9 to 14) (size 15 to 20)
#    0.000    1.273    5.455    1.091    0.000    3.636 
#    0.000    2.727    0.000    0.000    0.000    2.545 
#    0.000    0.000    0.000    0.000    0.000    0.000 
#
# Total GULP energy -245581.541690 kJ/mol
# GULP energy per Si atom -5581.398675 kJ/mol
# Density = 1.920989 g / cm^3
# Si number density = 19.253710 Si / 1000 Ang^3
#
#
#
# Elastic Constant Matrix: (Units=GPa)
#
#
# Indices 1 2 3 4 5 6 
#
# 1 40.2825 15.1078 -1.6223 0.0000 0.0000 0.0000
# 2 15.1078 113.5213 10.0835 0.0001 0.0000 0.0000
# 3 -1.6223 10.0835 31.2179 0.0001 0.0000 0.0000
# 4 0.0000 0.0001 0.0001 24.8954 0.0000 0.0000
# 5 0.0000 0.0000 0.0000 0.0000 29.4988 0.0000
# 6 0.0000 0.0000 0.0000 0.0000 0.0000 -4.3678
#
#
#
# Elastic Compliance Matrix: (Units=1/GPa)
#
#
# Indices 1 2 3 4 5 6 
#
# 1 0.026328 -0.003732 0.002574 0.000000 0.000000 0.000000
# 2 -0.003732 0.009598 -0.003294 0.000000 0.000000 0.000000
# 3 0.002574 -0.003294 0.033231 0.000000 0.000000 0.000000
# 4 0.000000 0.000000 0.000000 0.040168 0.000000 0.000000
# 5 0.000000 0.000000 0.000000 0.000000 0.033900 0.000000
# 6 0.000000 0.000000 0.000000 0.000000 0.000000 -0.228950
#
#
# Mechanical properties :
#
#
# Convention : Reuss Voigt Hill
#
# Bulk Modulus (GPa) = 16.59714 25.79550 21.19632
# Shear Modulus (GPa) = -88.12795 20.76880 -33.67958
#
# Velocity S-wave (km/s) = -6.77284 3.28791 -4.18694
# Velocity P-wave (km/s) = 7.24726 5.27641 3.51299
#
# Compressibility (1/GPa) = 0.06025136
#
# Stress axis : x y z
#
# Youngs Moduli (GPa) = 37.98208 104.18559 30.09269
#
# Poissons Ratio (x) = 0.38887 -0.07745
# Poissons Ratio (y) = 0.14177 0.09913
# Poissons Ratio (z) = -0.09776 0.34321
#
# Static dielectric constant tensor:
#      x y z
#    x 1.689710 0.000000 0.000000 
#    y 0.000000 1.698320 0.000000 
#    z 0.000000 0.000000 1.682330 
# 
# From -- ./inp_files/32237.got.cif
#   From: 2010.05.17/outbox.cif.g08.bks.cpg/sg74_17_cif.got.tgz:32237.got - 2010.06.03 17:57:02.
