data_PCOD9536957
_publ_section_title
;
Structure prediction by ZEFSAII (Michael W. Deem and Ramdas Pophale) SiO2 
 PCOD9536957
Probable space group: I M M A
;
_chemical_formula_sum "Si O2"
_cell_formula_units_Z 128
_cell_length_a 14.958588
_cell_length_b 22.734273
_cell_length_c 22.614800
_cell_angle_alpha 90.000000
_cell_angle_beta 90.000000
_cell_angle_gamma 90.000000
_cell_volume 7690.674361
_symmetry_space_group_name_H-M "I M M A"
_symmetry_group_IT_number 74
_symmetry_cell_setting 'orthorhombic'
loop_
_space_group_symop_operation_xyz
x,y,z
-x,1/2-y,z
x,-y,-z
-x,1/2+y,-z
-x,-y,-z
x,1/2+y,-z
-x,y,z
x,1/2-y,z
1/2+x,1/2+y,1/2+z
1/2-x,-y,1/2+z
1/2+x,1/2-y,1/2-z
1/2-x,y,1/2-z
1/2-x,1/2-y,1/2-z
1/2+x,y,1/2-z
1/2-x,1/2+y,1/2+z
1/2+x,-y,1/2+z
loop_
_atom_site_type_symbol
_atom_site_label
_atom_site_fract_x
_atom_site_fract_y
_atom_site_fract_z
Si Si1 0.154389 0.025157 0.283343
Si Si2 0.892305 0.150258 0.165240
Si Si3 0.894711 0.683012 0.577579
Si Si4 0.400879 0.989286 0.661809
Si Si5 0.604115 0.840554 0.792357
Si Si6 0.607196 0.682904 0.534162
Si Si7 0.235399 0.402698 0.489722
Si Si8 0.768087 0.484147 0.596565
O O1 0.250000 0.033087 0.250000
O O2 0.100379 0.993768 0.231030
O O3 0.169100 0.994664 0.346404
O O4 0.111242 0.088680 0.294267
O O5 0.856577 0.174493 0.227715
O O6 0.868013 0.180323 0.104106
O O7 0.000000 0.154568 0.169834
O O8 0.873609 0.080278 0.160306
O O9 0.888775 0.750000 0.557318
O O10 0.858319 0.680313 0.645224
O O11 0.838255 0.641201 0.535989
O O12 0.000000 0.666006 0.579232
O O13 0.500000 0.993589 0.637363
O O14 0.329579 0.024821 0.624731
O O15 0.500000 0.821966 0.792182
O O16 0.500000 0.670599 0.529213
O O17 0.622588 0.750000 0.513206
O O18 0.671329 0.633399 0.506466
O O19 0.239245 0.456602 0.442891
O O20 0.209466 0.431815 0.552091
#
# Coordination Sequence:
#
# PCOD9536957 Si02
#       8
#    16  16  16  16  16  16  16  16
#     4   9  16  28  45  68  96 124 153 197 240 290
#     4   8  14  25  42  65  94 126 162 202 239 275
#     4  10  21  36  51  66  90 127 173 218 251 283
#     4   9  16  29  49  72  98 130 159 195 244 291
#     4   9  16  27  45  65  88 120 161 206 245 276
#     4  10  20  33  49  69  97 132 171 211 246 285
#     4  11  21  35  48  68  97 134 168 210 243 283
#     4  10  20  31  49  70  98 127 167 203 242 291
#
# _framework density 16.643535
#
# number of rings (size 3 to 8) (size 9 to 14) (size 15 to 20)
#    0.000    2.500    2.500    1.500    0.000    1.000 
#    0.000    6.250    0.000    1.875    0.000    0.000 
#    0.000   18.000    0.000   25.750    0.000    0.000 
#
# Total GULP energy -356485.458191 kJ/mol
# GULP energy per Si atom -5570.085284 kJ/mol
# Density = 1.660565 g / cm^3
# Si number density = 16.643535 Si / 1000 Ang^3
#
#
#
# Elastic Constant Matrix: (Units=GPa)
#
#
# Indices 1 2 3 4 5 6 
#
# 1 31.5142 10.2195 4.9487 0.0000 0.0000 0.0000
# 2 10.2195 46.6005 28.6649 0.0000 0.0000 0.0000
# 3 4.9487 28.6649 74.9290 0.0000 0.0000 0.0000
# 4 0.0000 0.0000 0.0000 14.3092 0.0000 0.0000
# 5 0.0000 0.0000 0.0000 0.0000 13.1883 0.0000
# 6 0.0000 0.0000 0.0000 0.0000 0.0000 8.4296
#
#
#
# Elastic Compliance Matrix: (Units=1/GPa)
#
#
# Indices 1 2 3 4 5 6 
#
# 1 0.034198 -0.007991 0.000798 0.000000 0.000000 0.000000
# 2 -0.007991 0.029930 -0.010922 0.000000 0.000000 0.000000
# 3 0.000798 -0.010922 0.017472 0.000000 0.000000 0.000000
# 4 0.000000 0.000000 0.000000 0.069885 0.000000 0.000000
# 5 0.000000 0.000000 0.000000 0.000000 0.075825 0.000000
# 6 0.000000 0.000000 0.000000 0.000000 0.000000 0.118630
#
#
# Mechanical properties :
#
#
# Convention : Reuss Voigt Hill
#
# Bulk Modulus (GPa) = 22.04098 26.74554 24.39326
# Shear Modulus (GPa) = 12.58521 14.46611 13.52566
#
# Velocity S-wave (km/s) = 2.75282 2.95137 2.85382
# Velocity P-wave (km/s) = 4.83485 5.26485 5.05442
#
# Compressibility (1/GPa) = 0.04537003
#
# Stress axis : x y z
#
# Youngs Moduli (GPa) = 29.24179 33.41145 57.23548
#
# Poissons Ratio (x) = 0.26698 -0.04569
# Poissons Ratio (y) = 0.23366 0.62514
# Poissons Ratio (z) = -0.02335 0.36493
#
# Static dielectric constant tensor:
#      x y z
#    x 1.650480 0.000000 0.000000 
#    y 0.000000 1.557960 0.000000 
#    z 0.000000 0.000000 1.581100 
# 
# From -- ./inp_files/53437.got.cif
#   From: 2010.05.17/outbox.cif.g08.bks.cpg/sg74_27_cif.got.tgz:53437.got - 2010.06.03 17:57:02.
