data_PCOD9536038
_publ_section_title
;
Structure prediction by ZEFSAII (Michael W. Deem and Ramdas Pophale) SiO2 
 PCOD9536038
Probable space group: I M M A
;
_chemical_formula_sum "Si O2"
_cell_formula_units_Z 104
_cell_length_a 7.892493
_cell_length_b 21.704008
_cell_length_c 29.159927
_cell_angle_alpha 90.000000
_cell_angle_beta 90.000000
_cell_angle_gamma 90.000000
_cell_volume 4995.058497
_symmetry_space_group_name_H-M "I M M A"
_symmetry_group_IT_number 74
_symmetry_cell_setting 'orthorhombic'
loop_
_space_group_symop_operation_xyz
x,y,z
-x,1/2-y,z
x,-y,-z
-x,1/2+y,-z
-x,-y,-z
x,1/2+y,-z
-x,y,z
x,1/2-y,z
1/2+x,1/2+y,1/2+z
1/2-x,-y,1/2+z
1/2+x,1/2-y,1/2-z
1/2-x,y,1/2-z
1/2-x,1/2-y,1/2-z
1/2+x,y,1/2-z
1/2-x,1/2+y,1/2+z
1/2+x,-y,1/2+z
loop_
_atom_site_type_symbol
_atom_site_label
_atom_site_fract_x
_atom_site_fract_y
_atom_site_fract_z
Si Si1 0.297154 0.076697 0.802029
Si Si2 0.800585 0.155131 0.121862
Si Si3 0.802814 0.087300 0.948060
Si Si4 0.792038 0.182504 0.020683
Si Si5 0.794003 0.179627 0.632366
Si Si6 0.699874 0.015043 0.119218
Si Si7 0.795882 0.250000 0.196651
O O1 0.500000 0.074582 0.805063
O O2 0.250000 0.065235 0.750000
O O3 0.245271 0.143600 0.821212
O O4 0.232399 0.026673 0.838684
O O5 0.732428 0.178637 0.073110
O O6 0.779745 0.082000 0.121346
O O7 0.734775 0.190947 0.166687
O O8 0.000000 0.169330 0.120559
O O9 0.780462 0.139064 0.908664
O O10 0.000000 0.074273 0.955994
O O11 0.726515 0.024962 0.926987
O O12 0.731971 0.122834 0.992470
O O13 0.743356 0.250000 0.001364
O O14 0.000000 0.180488 0.019666
O O15 0.738840 0.250000 0.631288
O O16 0.000000 0.177890 0.628190
O O17 0.500000 0.023372 0.125109
O O18 0.750000 0.250000 0.250000
O O19 0.000000 0.250000 0.196788
#
# Coordination Sequence:
#
# PCOD9536038 Si02
#       7
#    16  16  16  16  16  16   8
#     4   9  19  34  51  71  98 135 177 222 271 320
#     4  10  20  38  62  85 109 143 184 224 273 330
#     4  10  19  32  54  83 110 143 188 232 270 316
#     4   9  17  32  56  84 114 144 181 230 276 319
#     4   9  18  33  50  71 107 148 180 218 273 330
#     4  10  22  39  55  76 112 149 180 224 280 337
#     4  10  22  40  64  90 118 150 186 232 287 346
#
# _framework density 20.820577
#
# number of rings (size 3 to 8) (size 9 to 14) (size 15 to 20)
#    0.000    2.462    0.769    2.308    0.000    6.154 
#    0.000    7.692    0.000    1.846    0.000    0.000 
#    0.000    0.000    0.000    0.000    0.000    0.000 
#
# Total GULP energy -290042.034923 kJ/mol
# GULP energy per Si atom -5577.731441 kJ/mol
# Density = 2.077319 g / cm^3
# Si number density = 20.820577 Si / 1000 Ang^3
#
#
#
# Elastic Constant Matrix: (Units=GPa)
#
#
# Indices 1 2 3 4 5 6 
#
# 1 15.9146 -3.8417 0.9038 0.0000 0.0000 0.0000
# 2 -3.8417 132.7066 51.8289 0.0000 0.0000 0.0000
# 3 0.9038 51.8289 129.3241 0.0000 0.0000 0.0000
# 4 0.0000 0.0000 0.0000 12.0502 0.0000 0.0000
# 5 0.0000 0.0000 0.0000 0.0000 17.4338 0.0000
# 6 0.0000 0.0000 0.0000 0.0000 0.0000 13.1619
#
#
#
# Elastic Compliance Matrix: (Units=1/GPa)
#
#
# Indices 1 2 3 4 5 6 
#
# 1 0.063490 0.002384 -0.001399 0.000000 0.000000 0.000000
# 2 0.002384 0.009023 -0.003633 0.000000 0.000000 0.000000
# 3 -0.001399 -0.003633 0.009198 0.000000 0.000000 0.000000
# 4 0.000000 0.000000 0.000000 0.082986 0.000000 0.000000
# 5 0.000000 0.000000 0.000000 0.000000 0.057360 0.000000
# 6 0.000000 0.000000 0.000000 0.000000 0.000000 0.075977
#
#
# Mechanical properties :
#
#
# Convention : Reuss Voigt Hill
#
# Bulk Modulus (GPa) = 13.08619 41.74749 27.41684
# Shear Modulus (GPa) = 15.20671 23.79948 19.50310
#
# Velocity S-wave (km/s) = 2.70547 3.38461 3.06391
# Velocity P-wave (km/s) = 4.00728 5.94716 5.07085
#
# Compressibility (1/GPa) = 0.07641642
#
# Stress axis : x y z
#
# Youngs Moduli (GPa) = 15.75041 110.82437 108.71649
#
# Poissons Ratio (x) = -0.26426 0.15213
# Poissons Ratio (y) = -0.03756 0.39496
# Poissons Ratio (z) = 0.02204 0.40261
#
# Static dielectric constant tensor:
#      x y z
#    x 1.754010 0.000000 0.000000 
#    y 0.000000 1.753230 0.000000 
#    z 0.000000 0.000000 1.759720 
# 
# From -- ./inp_files/64447.got.cif
#   From: 2010.05.17/outbox.cif.g08.bks.cpg/sg74_33_cif.got.tgz:64447.got - 2010.06.03 17:57:02.
