data_PCOD9536568
_publ_section_title
;
Structure prediction by ZEFSAII (Michael W. Deem and Ramdas Pophale) SiO2 
 PCOD9536568
Probable space group: I M M A
;
_chemical_formula_sum "Si O2"
_cell_formula_units_Z 96
_cell_length_a 18.350956
_cell_length_b 15.748860
_cell_length_c 16.265043
_cell_angle_alpha 90.000000
_cell_angle_beta 90.000000
_cell_angle_gamma 90.000000
_cell_volume 4700.705377
_symmetry_space_group_name_H-M "I M M A"
_symmetry_group_IT_number 74
_symmetry_cell_setting 'orthorhombic'
loop_
_space_group_symop_operation_xyz
x,y,z
-x,1/2-y,z
x,-y,-z
-x,1/2+y,-z
-x,-y,-z
x,1/2+y,-z
-x,y,z
x,1/2-y,z
1/2+x,1/2+y,1/2+z
1/2-x,-y,1/2+z
1/2+x,1/2-y,1/2-z
1/2-x,y,1/2-z
1/2-x,1/2-y,1/2-z
1/2+x,y,1/2-z
1/2-x,1/2+y,1/2+z
1/2+x,-y,1/2+z
loop_
_atom_site_type_symbol
_atom_site_label
_atom_site_fract_x
_atom_site_fract_y
_atom_site_fract_z
Si Si1 0.183510 0.018859 0.904935
Si Si2 0.310468 0.154896 0.867384
Si Si3 0.415715 0.423354 0.738237
Si Si4 0.917026 0.887234 0.693995
Si Si5 0.806500 0.660472 0.824254
Si Si6 0.587085 0.601615 0.988006
O O1 0.248809 0.084689 0.886221
O O2 0.115044 0.052911 0.851757
O O3 0.204769 0.925979 0.871748
O O4 0.168365 0.000000 0.000000
O O5 0.279952 0.250000 0.863342
O O6 0.356954 0.134680 0.785122
O O7 0.368396 0.147544 0.941447
O O8 0.500000 0.393404 0.737348
O O9 0.414448 0.511529 0.789868
O O10 0.881030 0.846055 0.773057
O O11 0.885694 0.872143 0.603009
O O12 0.000000 0.860300 0.689489
O O13 0.801937 0.750000 0.870801
O O14 0.750000 0.661205 0.750000
O O15 0.500000 0.617405 0.994236
O O16 0.597053 0.500000 0.000000
#
# Coordination Sequence:
#
# PCOD9536568 Si02
#       6
#    16  16  16  16  16  16
#     4  11  25  43  65  91 127 169 213 271 327 383
#     4  12  25  39  61  94 133 174 218 263 317 380
#     4  10  21  41  66  90 121 167 219 267 317 377
#     4   9  18  35  61  90 123 162 199 242 308 380
#     4  10  22  39  61  88 120 158 205 254 312 378
#     4  10  19  34  59  92 131 171 206 246 304 377
#
# _framework density 20.422467000000001
#
# number of rings (size 3 to 8) (size 9 to 14) (size 15 to 20)
#    0.000    1.667    1.667    3.500    2.333    4.667 
#    0.000    1.667    0.000    0.000    0.000    2.333 
#    0.000    0.000    0.000    0.000    0.000    0.000 
#
# Total GULP energy -268018.641695 kJ/mol
# GULP energy per Si atom -5583.721702 kJ/mol
# Density = 2.037598 g / cm^3
# Si number density = 20.422467 Si / 1000 Ang^3
#
#
#
# Elastic Constant Matrix: (Units=GPa)
#
#
# Indices 1 2 3 4 5 6 
#
# 1 52.1531 11.3091 32.2364 0.0000 0.0000 0.0000
# 2 11.3091 115.1873 35.1865 0.0000 0.0000 0.0000
# 3 32.2364 35.1865 121.8662 0.0000 0.0000 0.0000
# 4 0.0000 0.0000 0.0000 9.4506 0.0000 0.0000
# 5 0.0000 0.0000 0.0000 0.0000 20.3580 0.0000
# 6 0.0000 0.0000 0.0000 0.0000 0.0000 6.9823
#
#
#
# Elastic Compliance Matrix: (Units=1/GPa)
#
#
# Indices 1 2 3 4 5 6 
#
# 1 0.022942 -0.000437 -0.005943 0.000000 0.000000 0.000000
# 2 -0.000437 0.009530 -0.002636 0.000000 0.000000 0.000000
# 3 -0.005943 -0.002636 0.010539 0.000000 0.000000 0.000000
# 4 0.000000 0.000000 0.000000 0.105813 0.000000 0.000000
# 5 0.000000 0.000000 0.000000 0.000000 0.049121 0.000000
# 6 0.000000 0.000000 0.000000 0.000000 0.000000 0.143220
#
#
# Mechanical properties :
#
#
# Convention : Reuss Voigt Hill
#
# Bulk Modulus (GPa) = 40.03292 49.63006 44.83149
# Shear Modulus (GPa) = 13.60462 21.38981 17.49721
#
# Velocity S-wave (km/s) = 2.58381 3.23982 2.93023
# Velocity P-wave (km/s) = 5.34288 6.19271 5.78343
#
# Compressibility (1/GPa) = 0.02497944
#
# Stress axis : x y z
#
# Youngs Moduli (GPa) = 43.58774 104.93610 94.88835
#
# Poissons Ratio (x) = 0.04588 0.56388
# Poissons Ratio (y) = 0.01906 0.25011
# Poissons Ratio (z) = 0.25902 0.27659
#
# Static dielectric constant tensor:
#      x y z
#    x 1.896710 0.000000 0.000000 
#    y 0.000000 1.772400 0.000000 
#    z 0.000000 0.000000 1.636040 
# 
# From -- ./inp_files/35289.got.cif
#   From: 2010.05.17/outbox.cif.g08.bks.cpg/sg74_18_cif.got.tgz:35289.got - 2010.06.03 17:57:02.
