data_PCOD9536420
_publ_section_title
;
Structure prediction by ZEFSAII (Michael W. Deem and Ramdas Pophale) SiO2 
 PCOD9536420
Probable space group: I M M A
;
_chemical_formula_sum "Si O2"
_cell_formula_units_Z 80
_cell_length_a 15.482875
_cell_length_b 8.947342
_cell_length_c 31.577285
_cell_angle_alpha 90.000000
_cell_angle_beta 90.000000
_cell_angle_gamma 90.000000
_cell_volume 4374.419535
_symmetry_space_group_name_H-M "I M M A"
_symmetry_group_IT_number 74
_symmetry_cell_setting 'orthorhombic'
loop_
_space_group_symop_operation_xyz
x,y,z
-x,1/2-y,z
x,-y,-z
-x,1/2+y,-z
-x,-y,-z
x,1/2+y,-z
-x,y,z
x,1/2-y,z
1/2+x,1/2+y,1/2+z
1/2-x,-y,1/2+z
1/2+x,1/2-y,1/2-z
1/2-x,y,1/2-z
1/2-x,1/2-y,1/2-z
1/2+x,y,1/2-z
1/2-x,1/2+y,1/2+z
1/2+x,-y,1/2+z
loop_
_atom_site_type_symbol
_atom_site_label
_atom_site_fract_x
_atom_site_fract_y
_atom_site_fract_z
Si Si1 0.323478 0.069103 0.136670
Si Si2 0.000000 0.068326 0.318411
Si Si3 0.500000 0.929592 0.720247
Si Si4 0.096602 0.074411 0.934271
Si Si5 0.853320 0.574711 0.163801
Si Si6 0.226233 0.427305 0.457480
O O1 0.316638 0.250000 0.138950
O O2 0.412938 0.020742 0.157794
O O3 0.317637 0.027035 0.086955
O O4 0.241025 0.998369 0.159991
O O5 0.000000 0.250000 0.319321
O O6 0.000000 0.023895 0.269351
O O7 0.500000 0.750000 0.717900
O O8 0.415979 0.992900 0.696460
O O9 0.108335 0.250000 0.945043
O O10 0.105703 0.062444 0.883316
O O11 0.000000 0.027871 0.946651
O O12 0.174183 0.978940 0.953068
O O13 0.847157 0.750000 0.173995
O O14 0.189561 0.500000 0.500000
O O15 0.221834 0.250000 0.460996
#
# Coordination Sequence:
#
# PCOD9536420 Si02
#       6
#    16   8   8  16  16  16
#     4   9  19  38  60  80 104 142 186 226 270 322
#     4   9  20  39  60  80 106 139 183 236 278 312
#     4  11  21  33  55  84 111 145 186 224 260 320
#     4   9  17  31  50  72 103 143 178 211 257 310
#     4  10  19  34  54  80 114 149 179 219 272 320
#     4  10  20  33  52  77 103 134 174 220 268 321
#
# _framework density 18.288141
#
# number of rings (size 3 to 8) (size 9 to 14) (size 15 to 20)
#    0.000    2.400    1.000    1.500    0.000    3.200 
#    0.000    7.000    0.000    0.000    0.000    0.000 
#    0.000    0.000    0.000    0.000    0.000    0.000 
#
# Total GULP energy -223245.708304 kJ/mol
# GULP energy per Si atom -5581.142708 kJ/mol
# Density = 1.824652 g / cm^3
# Si number density = 18.288141 Si / 1000 Ang^3
#
#
#
# Elastic Constant Matrix: (Units=GPa)
#
#
# Indices 1 2 3 4 5 6 
#
# 1 131.3107 40.2128 83.6876 0.0000 0.0000 0.0000
# 2 40.2128 48.7564 52.7436 0.0000 0.0000 0.0000
# 3 83.6876 52.7436 144.4137 0.0000 0.0000 0.0000
# 4 0.0000 0.0000 0.0000 25.7329 0.0000 0.0000
# 5 0.0000 0.0000 0.0000 0.0000 -43.4580 0.0000
# 6 0.0000 0.0000 0.0000 0.0000 0.0000 12.4940
#
#
#
# Elastic Compliance Matrix: (Units=1/GPa)
#
#
# Indices 1 2 3 4 5 6 
#
# 1 0.012554 -0.004107 -0.005775 0.000000 0.000000 0.000000
# 2 -0.004107 0.035250 -0.010494 0.000000 0.000000 0.000000
# 3 -0.005775 -0.010494 0.014104 0.000000 0.000000 0.000000
# 4 0.000000 0.000000 0.000000 0.038861 0.000000 0.000000
# 5 0.000000 0.000000 0.000000 0.000000 -0.023011 0.000000
# 6 0.000000 0.000000 0.000000 0.000000 0.000000 0.080039
#
#
# Mechanical properties :
#
#
# Convention : Reuss Voigt Hill
#
# Bulk Modulus (GPa) = 47.26918 75.30766 61.28842
# Shear Modulus (GPa) = 24.31909 8.80955 16.56432
#
# Velocity S-wave (km/s) = 3.65056 2.19717 3.01282
# Velocity P-wave (km/s) = 6.60847 6.90685 6.75930
#
# Compressibility (1/GPa) = 0.02115543
#
# Stress axis : x y z
#
# Youngs Moduli (GPa) = 79.65767 28.36904 70.90207
#
# Poissons Ratio (x) = 0.11650 0.40946
# Poissons Ratio (y) = 0.32713 0.74407
# Poissons Ratio (z) = 0.46002 0.29771
#
# Static dielectric constant tensor:
#      x y z
#    x 1.601490 0.000000 0.000000 
#    y 0.000000 1.610570 0.000000 
#    z 0.000000 0.000000 1.640900 
# 
# From -- ./inp_files/67558.got.cif
#   From: 2010.05.17/outbox.cif.g08.bks.cpg/sg74_34_cif.got.tgz:67558.got - 2010.06.03 17:57:02.
