data_PCOD9536531
_publ_section_title
;
Structure prediction by ZEFSAII (Michael W. Deem and Ramdas Pophale) SiO2 
 PCOD9536531
Probable space group: I M M A
;
_chemical_formula_sum "Si O2"
_cell_formula_units_Z 64
_cell_length_a 9.451608
_cell_length_b 24.627818
_cell_length_c 14.673545
_cell_angle_alpha 90.000000
_cell_angle_beta 90.000000
_cell_angle_gamma 90.000000
_cell_volume 3415.597484
_symmetry_space_group_name_H-M "I M M A"
_symmetry_group_IT_number 74
_symmetry_cell_setting 'orthorhombic'
loop_
_space_group_symop_operation_xyz
x,y,z
-x,1/2-y,z
x,-y,-z
-x,1/2+y,-z
-x,-y,-z
x,1/2+y,-z
-x,y,z
x,1/2-y,z
1/2+x,1/2+y,1/2+z
1/2-x,-y,1/2+z
1/2+x,1/2-y,1/2-z
1/2-x,y,1/2-z
1/2-x,1/2-y,1/2-z
1/2+x,y,1/2-z
1/2-x,1/2+y,1/2+z
1/2+x,-y,1/2+z
loop_
_atom_site_type_symbol
_atom_site_label
_atom_site_fract_x
_atom_site_fract_y
_atom_site_fract_z
Si Si1 0.343276 0.127774 0.160085
Si Si2 0.672865 0.140107 0.652658
Si Si3 0.336718 0.250000 0.551108
Si Si4 0.169101 0.563686 0.481544
Si Si5 0.284780 0.250000 0.142399
O O1 0.500000 0.107126 0.181078
O O2 0.250000 0.123187 0.250000
O O3 0.353330 0.191049 0.132364
O O4 0.288058 0.095053 0.073774
O O5 0.500000 0.137644 0.659314
O O6 0.750000 0.143277 0.750000
O O7 0.718394 0.194200 0.595467
O O8 0.736563 0.088572 0.598766
O O9 0.500000 0.250000 0.575883
O O10 0.324588 0.250000 0.441568
O O11 0.187260 0.500000 0.500000
O O12 0.000000 0.573737 0.465273
O O13 0.250000 0.250000 0.250000
#
# Coordination Sequence:
#
# PCOD9536531 Si02
#       5
#    16  16   8  16   8
#     4  10  21  36  57  86 117 152 191 237 294 355
#     4  11  23  41  64  91 122 160 204 252 308 363
#     4  10  21  38  62  91 124 159 198 250 301 367
#     4  10  22  41  62  87 120 158 203 253 300 351
#     4  10  19  34  57  89 119 152 190 235 295 364
#
# _framework density 18.737570999999999
#
# number of rings (size 3 to 8) (size 9 to 14) (size 15 to 20)
#    0.000    1.750    2.500    1.500    0.000    6.500 
#    0.000    4.375    0.000    0.000    0.000    0.000 
#    0.000    0.000    0.000    0.000    0.000    0.000 
#
# Total GULP energy -178201.087307 kJ/mol
# GULP energy per Si atom -5568.783978 kJ/mol
# Density = 1.869492 g / cm^3
# Si number density = 18.737571 Si / 1000 Ang^3
#
#
#
# Elastic Constant Matrix: (Units=GPa)
#
#
# Indices 1 2 3 4 5 6 
#
# 1 57.5854 23.7291 43.0497 0.0000 0.0000 0.0000
# 2 23.7291 108.2055 58.6122 0.0000 0.0000 0.0000
# 3 43.0497 58.6122 121.9353 0.0001 0.0000 0.0000
# 4 0.0000 0.0000 0.0001 17.2888 0.0000 0.0000
# 5 0.0000 0.0000 0.0000 0.0000 28.7667 0.0000
# 6 0.0000 0.0000 0.0000 0.0000 0.0000 28.2564
#
#
#
# Elastic Compliance Matrix: (Units=1/GPa)
#
#
# Indices 1 2 3 4 5 6 
#
# 1 0.023657 -0.000897 -0.007921 0.000000 0.000000 0.000000
# 2 -0.000897 0.012529 -0.005706 0.000000 0.000000 0.000000
# 3 -0.007921 -0.005706 0.013740 0.000000 0.000000 0.000000
# 4 0.000000 0.000000 0.000000 0.057841 0.000000 0.000000
# 5 0.000000 0.000000 0.000000 0.000000 0.034762 0.000000
# 6 0.000000 0.000000 0.000000 0.000000 0.000000 0.035390
#
#
# Mechanical properties :
#
#
# Convention : Reuss Voigt Hill
#
# Bulk Modulus (GPa) = 47.89659 59.83423 53.86541
# Shear Modulus (GPa) = 23.37254 25.68474 24.52864
#
# Velocity S-wave (km/s) = 3.53563 3.70640 3.62202
# Velocity P-wave (km/s) = 6.50268 7.09356 6.80454
#
# Compressibility (1/GPa) = 0.02087831
#
# Stress axis : x y z
#
# Youngs Moduli (GPa) = 42.27144 79.81422 72.77950
#
# Poissons Ratio (x) = 0.07162 0.57646
# Poissons Ratio (y) = 0.03793 0.41526
# Poissons Ratio (z) = 0.33482 0.45540
#
# Static dielectric constant tensor:
#      x y z
#    x 1.685560 0.000000 0.000000 
#    y 0.000000 1.658830 0.000000 
#    z 0.000000 0.000000 1.649880 
# 
# From -- ./inp_files/28835.got.cif
#   From: 2010.05.17/outbox.cif.g08.bks.cpg/sg74_15_cif.got.tgz:28835.got - 2010.06.03 17:57:02.
