data_PCOD9536428
_publ_section_title
;
Structure prediction by ZEFSAII (Michael W. Deem and Ramdas Pophale) SiO2 
 PCOD9536428
Probable space group: I M M A
;
_chemical_formula_sum "Si O2"
_cell_formula_units_Z 96
_cell_length_a 7.429811
_cell_length_b 30.521480
_cell_length_c 16.954693
_cell_angle_alpha 90.000000
_cell_angle_beta 90.000000
_cell_angle_gamma 90.000000
_cell_volume 3844.795858
_symmetry_space_group_name_H-M "I M M A"
_symmetry_group_IT_number 74
_symmetry_cell_setting 'orthorhombic'
loop_
_space_group_symop_operation_xyz
x,y,z
-x,1/2-y,z
x,-y,-z
-x,1/2+y,-z
-x,-y,-z
x,1/2+y,-z
-x,y,z
x,1/2-y,z
1/2+x,1/2+y,1/2+z
1/2-x,-y,1/2+z
1/2+x,1/2-y,1/2-z
1/2-x,y,1/2-z
1/2-x,1/2-y,1/2-z
1/2+x,y,1/2-z
1/2-x,1/2+y,1/2+z
1/2+x,-y,1/2+z
loop_
_atom_site_type_symbol
_atom_site_label
_atom_site_fract_x
_atom_site_fract_y
_atom_site_fract_z
Si Si1 0.216104 0.797660 0.952505
Si Si2 0.204625 0.701070 0.365569
Si Si3 0.213406 0.125476 0.159251
Si Si4 0.785622 0.011805 0.663342
Si Si5 0.795982 0.444860 0.457541
Si Si6 0.280350 0.605159 0.113881
O O1 0.253894 0.750000 0.918540
O O2 0.278066 0.834290 0.893297
O O3 0.000000 0.801464 0.963744
O O4 0.298793 0.799868 0.039048
O O5 0.282074 0.750000 0.345257
O O6 0.285629 0.652208 0.352607
O O7 0.000000 0.701223 0.334360
O O8 0.250000 0.132141 0.250000
O O9 0.302330 0.083171 0.122487
O O10 0.000000 0.120391 0.148075
O O11 0.750000 0.992403 0.750000
O O12 0.725351 0.062441 0.663008
O O13 0.000000 0.011485 0.654705
O O14 0.714337 0.988874 0.582638
O O15 0.723109 0.411430 0.525090
O O16 0.000000 0.453743 0.484124
O O17 0.500000 0.609289 0.112729
#
# Coordination Sequence:
#
# PCOD9536428 Si02
#       6
#    16  16  16  16  16  16
#     4   9  18  32  47  65  94 130 166 207 255 302
#     4   9  16  28  51  80 103 125 161 209 256 301
#     4  11  22  33  47  68  98 135 173 212 256 300
#     4  10  21  36  54  76 104 138 172 209 255 305
#     4  10  19  34  55  76  99 131 172 213 252 297
#     4   9  17  32  55  80 104 132 169 209 253 305
#
# _framework density 24.968814999999999
#
# number of rings (size 3 to 8) (size 9 to 14) (size 15 to 20)
#    0.000    2.333    1.667    1.500    0.000    5.000 
#    0.000    1.667    0.000    2.500    0.000    0.000 
#    0.000    0.000    0.000    0.000    0.000    0.000 
#
# Total GULP energy -267699.316468 kJ/mol
# GULP energy per Si atom -5577.069093 kJ/mol
# Density = 2.491199 g / cm^3
# Si number density = 24.968815 Si / 1000 Ang^3
#
#
#
# Elastic Constant Matrix: (Units=GPa)
#
#
# Indices 1 2 3 4 5 6 
#
# 1 83.6863 9.7996 -4.7324 0.0000 0.0000 0.0000
# 2 9.7996 155.8313 14.0032 0.0001 0.0000 0.0000
# 3 -4.7324 14.0032 118.4095 0.0002 0.0000 0.0000
# 4 0.0000 0.0001 0.0002 26.2664 0.0000 0.0000
# 5 0.0000 0.0000 0.0000 0.0000 -8.9466 0.0000
# 6 0.0000 0.0000 0.0000 0.0000 0.0000 0.3782
#
#
#
# Elastic Compliance Matrix: (Units=1/GPa)
#
#
# Indices 1 2 3 4 5 6 
#
# 1 0.012077 -0.000811 0.000579 0.000000 0.000000 0.000000
# 2 -0.000811 0.006541 -0.000806 0.000000 0.000000 0.000000
# 3 0.000579 -0.000806 0.008564 0.000000 0.000000 0.000000
# 4 0.000000 0.000000 0.000000 0.038071 0.000000 -0.000001
# 5 0.000000 0.000000 0.000000 0.000000 -0.111774 0.000002
# 6 0.000000 0.000000 0.000000 -0.000001 0.000002 2.644347
#
#
# Mechanical properties :
#
#
# Convention : Reuss Voigt Hill
#
# Bulk Modulus (GPa) = 39.83436 44.00753 41.92094
# Shear Modulus (GPa) = 1.91698 26.13005 14.02351
#
# Velocity S-wave (km/s) = 0.87716 3.23849 2.37247
# Velocity P-wave (km/s) = 4.12482 5.62557 4.93260
#
# Compressibility (1/GPa) = 0.02510396
#
# Stress axis : x y z
#
# Youngs Moduli (GPa) = 82.80108 152.89003 116.77192
#
# Poissons Ratio (x) = 0.12407 -0.06757
# Poissons Ratio (y) = 0.06719 0.09411
# Poissons Ratio (z) = -0.04791 0.12322
#
# Static dielectric constant tensor:
#      x y z
#    x 1.922400 0.000000 0.000000 
#    y 0.000000 2.094090 0.000000 
#    z 0.000000 0.000000 1.930500 
# 
# From -- ./inp_files/49151.got.cif
#   From: 2010.05.17/outbox.cif.g08.bks.cpg/sg74_25_cif.got.tgz:49151.got - 2010.06.03 17:57:02.
