data_PCOD9536866
_publ_section_title
;
Structure prediction by ZEFSAII (Michael W. Deem and Ramdas Pophale) SiO2 
 PCOD9536866
Probable space group: I M M A
;
_chemical_formula_sum "Si O2"
_cell_formula_units_Z 64
_cell_length_a 9.681974
_cell_length_b 11.554553
_cell_length_c 31.721864
_cell_angle_alpha 90.000000
_cell_angle_beta 90.000000
_cell_angle_gamma 90.000000
_cell_volume 3548.752896
_symmetry_space_group_name_H-M "I M M A"
_symmetry_group_IT_number 74
_symmetry_cell_setting 'orthorhombic'
loop_
_space_group_symop_operation_xyz
x,y,z
-x,1/2-y,z
x,-y,-z
-x,1/2+y,-z
-x,-y,-z
x,1/2+y,-z
-x,y,z
x,1/2-y,z
1/2+x,1/2+y,1/2+z
1/2-x,-y,1/2+z
1/2+x,1/2-y,1/2-z
1/2-x,y,1/2-z
1/2-x,1/2-y,1/2-z
1/2+x,y,1/2-z
1/2-x,1/2+y,1/2+z
1/2+x,-y,1/2+z
loop_
_atom_site_type_symbol
_atom_site_label
_atom_site_fract_x
_atom_site_fract_y
_atom_site_fract_z
Si Si1 0.000000 0.874975 0.884615
Si Si2 0.271446 0.115430 0.312808
Si Si3 0.000000 0.750000 0.158771
Si Si4 0.500000 0.436110 0.544404
Si Si5 0.000000 0.460666 0.774601
Si Si6 0.000000 0.750000 0.385061
Si Si7 0.699336 0.750000 0.420898
Si Si8 0.000000 0.537926 0.319592
O O1 0.867577 0.883324 0.854382
O O2 0.000000 0.750000 0.905677
O O3 0.000000 0.972095 0.918598
O O4 0.247379 0.250000 0.300947
O O5 0.368114 0.044439 0.280463
O O6 0.133688 0.044341 0.321912
O O7 0.000000 0.637481 0.189078
O O8 0.128610 0.750000 0.126098
O O9 0.500000 0.500000 0.500000
O O10 0.634643 0.357523 0.553581
O O11 0.000000 0.409392 0.727786
O O12 0.138444 0.750000 0.413121
O O13 0.000000 0.637174 0.354707
#
# Coordination Sequence:
#
# PCOD9536866 Si02
#       8
#     8  16   4   8   8   4   8   8
#     4   9  18  34  57  78 105 142 172 228 277 332
#     4  10  21  36  52  76 109 149 198 236 293 338
#     4  10  19  38  58  78 114 148 206 236 280 332
#     4  10  20  37  63  91 113 130 183 227 275 335
#     4  11  21  34  53  77 110 151 200 256 290 313
#     4  12  23  40  58  80 122 156 194 220 288 362
#     4  10  22  38  61  86 114 154 176 226 280 343
#     4  12  23  33  53  79 110 152 201 246 280 330
#
# _framework density 18.034503999999998
#
# number of rings (size 3 to 8) (size 9 to 14) (size 15 to 20)
#    0.000    1.750    0.000    8.625    1.750    3.000 
#    0.000    4.375    0.000    0.000    0.000    0.000 
#    0.000    0.000    0.000    0.000    0.000    0.000 
#
# Total GULP energy -178669.286641 kJ/mol
# GULP energy per Si atom -5583.415208 kJ/mol
# Density = 1.799346 g / cm^3
# Si number density = 18.034504 Si / 1000 Ang^3
#
#
#
# Elastic Constant Matrix: (Units=GPa)
#
#
# Indices 1 2 3 4 5 6 
#
# 1 174.1233 64.1097 39.3785 0.0000 0.0000 0.0000
# 2 64.1097 131.3810 55.1613 0.0000 0.0000 0.0000
# 3 39.3785 55.1613 95.1262 0.0000 0.0000 0.0000
# 4 0.0000 0.0000 0.0000 -1.9480 0.0000 0.0000
# 5 0.0000 0.0000 0.0000 0.0000 8.5324 0.0000
# 6 0.0000 0.0000 0.0000 0.0000 0.0000 5.2563
#
#
#
# Elastic Compliance Matrix: (Units=1/GPa)
#
#
# Indices 1 2 3 4 5 6 
#
# 1 0.007108 -0.002952 -0.001231 0.000000 0.000000 0.000000
# 2 -0.002952 0.011287 -0.005323 0.000000 0.000000 0.000000
# 3 -0.001231 -0.005323 0.014109 0.000000 0.000000 0.000000
# 4 0.000000 0.000000 0.000000 -0.513335 0.000000 0.000000
# 5 0.000000 0.000000 0.000000 0.000000 0.117200 0.000000
# 6 0.000000 0.000000 0.000000 0.000000 0.000000 0.190249
#
#
# Mechanical properties :
#
#
# Convention : Reuss Voigt Hill
#
# Bulk Modulus (GPa) = 74.11659 79.76994 76.94327
# Shear Modulus (GPa) = -33.36135 18.50019 -7.43058
#
# Velocity S-wave (km/s) = -4.30567 3.20632 -2.03203
# Velocity P-wave (km/s) = 4.05807 7.61808 6.10341
#
# Compressibility (1/GPa) = 0.01349226
#
# Stress axis : x y z
#
# Youngs Moduli (GPa) = 140.68200 88.59967 70.87910
#
# Poissons Ratio (x) = 0.26153 0.08724
# Poissons Ratio (y) = 0.41527 0.37729
# Poissons Ratio (z) = 0.17316 0.47161
#
# Static dielectric constant tensor:
#      x y z
#    x 1.614430 0.000000 0.000000 
#    y 0.000000 1.659390 0.000000 
#    z 0.000000 0.000000 1.604540 
# 
# From -- ./inp_files/69863.got.cif
#   From: 2010.05.17/outbox.cif.g08.bks.cpg/sg74_35_cif.got.tgz:69863.got - 2010.06.03 17:57:02.
