data_PCOD9536435
_publ_section_title
;
Structure prediction by ZEFSAII (Michael W. Deem and Ramdas Pophale) SiO2 
 PCOD9536435
Probable space group: I M M A
;
_chemical_formula_sum "Si O2"
_cell_formula_units_Z 88
_cell_length_a 24.894559
_cell_length_b 8.394205
_cell_length_c 20.616623
_cell_angle_alpha 90.000000
_cell_angle_beta 90.000000
_cell_angle_gamma 90.000000
_cell_volume 4308.256360
_symmetry_space_group_name_H-M "I M M A"
_symmetry_group_IT_number 74
_symmetry_cell_setting 'orthorhombic'
loop_
_space_group_symop_operation_xyz
x,y,z
-x,1/2-y,z
x,-y,-z
-x,1/2+y,-z
-x,-y,-z
x,1/2+y,-z
-x,y,z
x,1/2-y,z
1/2+x,1/2+y,1/2+z
1/2-x,-y,1/2+z
1/2+x,1/2-y,1/2-z
1/2-x,y,1/2-z
1/2-x,1/2-y,1/2-z
1/2+x,y,1/2-z
1/2-x,1/2+y,1/2+z
1/2+x,-y,1/2+z
loop_
_atom_site_type_symbol
_atom_site_label
_atom_site_fract_x
_atom_site_fract_y
_atom_site_fract_z
Si Si1 0.937997 0.932900 0.789242
Si Si2 0.897626 0.936221 0.341540
Si Si3 0.500000 0.939406 0.924982
Si Si4 0.701205 0.937375 0.435549
Si Si5 0.778881 0.440729 0.684606
Si Si6 0.917374 0.934696 0.931418
O O1 0.915783 0.750000 0.788877
O O2 0.935155 0.001465 0.861970
O O3 0.000000 0.920740 0.771439
O O4 0.911703 0.038523 0.734181
O O5 0.896127 0.750000 0.358558
O O6 0.836435 0.003086 0.341607
O O7 0.945735 0.008149 0.385641
O O8 0.500000 0.750000 0.926649
O O9 0.500000 0.000000 0.000000
O O10 0.687906 0.750000 0.441982
O O11 0.736393 0.959568 0.372522
O O12 0.730274 0.000000 0.500000
O O13 0.646453 0.036488 0.431361
O O14 0.787664 0.250000 0.695869
O O15 0.750000 0.504240 0.750000
O O16 0.931483 0.750000 0.929946
O O17 0.937555 0.000000 0.000000
#
# Coordination Sequence:
#
# PCOD9536435 Si02
#       6
#    16  16   8  16  16  16
#     4  10  21  37  56  79 113 153 190 237 292 341
#     4  11  22  39  64  93 121 155 202 248 301 367
#     4  12  26  46  68  92 125 162 207 262 320 374
#     4  10  19  34  55  78 109 147 183 229 286 344
#     4   9  19  35  57  87 121 154 193 245 298 354
#     4  10  20  34  53  79 112 152 196 241 287 338
#
# _framework density 20.425896000000002
#
# number of rings (size 3 to 8) (size 9 to 14) (size 15 to 20)
#    0.000    1.818    0.909    4.636    0.000    4.000 
#    0.000    5.455    0.000    6.545    0.000    0.000 
#    0.000    0.000    0.000    0.000    0.000    0.000 
#
# Total GULP energy -245267.221117 kJ/mol
# GULP energy per Si atom -5574.255025 kJ/mol
# Density = 2.037941 g / cm^3
# Si number density = 20.425896 Si / 1000 Ang^3
#
#
#
# Elastic Constant Matrix: (Units=GPa)
#
#
# Indices 1 2 3 4 5 6 
#
# 1 106.3547 16.0324 35.4885 0.0000 0.0000 0.0000
# 2 16.0324 31.2428 24.7253 0.0000 0.0000 0.0000
# 3 35.4885 24.7253 109.6285 0.0000 0.0000 0.0000
# 4 0.0000 0.0000 0.0000 33.5608 0.0000 0.0000
# 5 0.0000 0.0000 0.0000 0.0000 -17.5549 0.0000
# 6 0.0000 0.0000 0.0000 0.0000 0.0000 9.1016
#
#
#
# Elastic Compliance Matrix: (Units=1/GPa)
#
#
# Indices 1 2 3 4 5 6 
#
# 1 0.010828 -0.003387 -0.002741 0.000000 0.000000 0.000000
# 2 -0.003387 0.040021 -0.007930 0.000000 0.000000 0.000000
# 3 -0.002741 -0.007930 0.011798 0.000000 0.000000 0.000000
# 4 0.000000 0.000000 0.000000 0.029797 0.000000 0.000000
# 5 0.000000 0.000000 0.000000 0.000000 -0.056964 0.000000
# 6 0.000000 0.000000 0.000000 0.000000 0.000000 0.109870
#
#
# Mechanical properties :
#
#
# Convention : Reuss Voigt Hill
#
# Bulk Modulus (GPa) = 28.96005 44.41315 36.68660
# Shear Modulus (GPa) = 27.03067 16.42016 21.72541
#
# Velocity S-wave (km/s) = 3.64174 2.83837 3.26486
# Velocity P-wave (km/s) = 5.64729 5.70373 5.67558
#
# Compressibility (1/GPa) = 0.03453033
#
# Stress axis : x y z
#
# Youngs Moduli (GPa) = 92.35519 24.98692 84.76317
#
# Poissons Ratio (x) = 0.08463 0.23236
# Poissons Ratio (y) = 0.31280 0.67216
# Poissons Ratio (z) = 0.25317 0.19814
#
# Static dielectric constant tensor:
#      x y z
#    x 1.772640 0.000000 0.000000 
#    y 0.000000 1.729700 0.000000 
#    z 0.000000 0.000000 1.756280 
# 
# From -- ./inp_files/54502.got.cif
#   From: 2010.05.17/outbox.cif.g08.bks.cpg/sg74_28_cif.got.tgz:54502.got - 2010.06.03 17:57:02.
