data_PCOD9536927
_publ_section_title
;
Structure prediction by ZEFSAII (Michael W. Deem and Ramdas Pophale) SiO2 
 PCOD9536927
Probable space group: I M M A
;
_chemical_formula_sum "Si O2"
_cell_formula_units_Z 120
_cell_length_a 15.095204
_cell_length_b 14.784586
_cell_length_c 30.243084
_cell_angle_alpha 90.000000
_cell_angle_beta 90.000000
_cell_angle_gamma 90.000000
_cell_volume 6749.540850
_symmetry_space_group_name_H-M "I M M A"
_symmetry_group_IT_number 74
_symmetry_cell_setting 'orthorhombic'
loop_
_space_group_symop_operation_xyz
x,y,z
-x,1/2-y,z
x,-y,-z
-x,1/2+y,-z
-x,-y,-z
x,1/2+y,-z
-x,y,z
x,1/2-y,z
1/2+x,1/2+y,1/2+z
1/2-x,-y,1/2+z
1/2+x,1/2-y,1/2-z
1/2-x,y,1/2-z
1/2-x,1/2-y,1/2-z
1/2+x,y,1/2-z
1/2-x,1/2+y,1/2+z
1/2+x,-y,1/2+z
loop_
_atom_site_type_symbol
_atom_site_label
_atom_site_fract_x
_atom_site_fract_y
_atom_site_fract_z
Si Si1 0.799859 0.354759 0.972429
Si Si2 0.108406 0.463434 0.152639
Si Si3 0.606011 0.353211 0.068960
Si Si4 0.106140 0.650796 0.119323
Si Si5 0.391264 0.645436 0.738525
Si Si6 0.603510 0.643719 0.565611
Si Si7 0.828908 0.500000 0.500000
Si Si8 0.602432 0.859837 0.834685
O O1 0.767853 0.250000 0.971604
O O2 0.867114 0.363427 0.931747
O O3 0.844691 0.370849 0.020146
O O4 0.727864 0.433027 0.968968
O O5 0.137886 0.566849 0.148207
O O6 0.137514 0.413481 0.196949
O O7 0.135138 0.412203 0.107751
O O8 0.000000 0.460919 0.152943
O O9 0.500000 0.345827 0.073641
O O10 0.638657 0.250000 0.058932
O O11 0.623445 0.427808 0.031840
O O12 0.642129 0.382362 0.117383
O O13 0.139419 0.750000 0.132806
O O14 0.000000 0.651652 0.121610
O O15 0.500000 0.644633 0.739851
O O16 0.365147 0.750000 0.731870
O O17 0.359521 0.613318 0.786984
O O18 0.500000 0.621999 0.557800
O O19 0.609268 0.750000 0.576543
O O20 0.500000 0.891527 0.834986
O O21 0.600597 0.750000 0.833738
#
# Coordination Sequence:
#
# PCOD9536927 Si02
#       8
#    16  16  16  16  16  16   8  16
#     4  10  20  31  42  59  84 115 150 185 219 254
#     4   9  15  21  33  57  85 110 139 178 219 251
#     4   9  18  33  51  70  91 114 139 165 199 252
#     4   9  17  29  42  55  77 115 160 195 217 241
#     4   8  12  19  34  59  89 112 128 156 204 257
#     4   9  16  26  40  58  83 116 150 182 217 256
#     4  12  21  30  45  68  92 112 138 174 217 254
#     4   7  11  22  41  63  86 110 132 156 194 250
#
# _framework density 17.778987000000001
#
# number of rings (size 3 to 8) (size 9 to 14) (size 15 to 20)
#    0.000    3.067    0.000    3.800    0.000    3.200 
#    0.000    2.667    0.000    0.000    0.000    5.600 
#    0.000   25.600    0.000    0.000    0.000    0.000 
#
# Total GULP energy -334180.167795 kJ/mol
# GULP energy per Si atom -5569.669463 kJ/mol
# Density = 1.773852 g / cm^3
# Si number density = 17.778987 Si / 1000 Ang^3
#
#
#
# Elastic Constant Matrix: (Units=GPa)
#
#
# Indices 1 2 3 4 5 6 
#
# 1 18.7436 19.1849 5.0942 0.0000 0.0000 0.0000
# 2 19.1849 97.5346 82.0250 0.0000 0.0000 0.0000
# 3 5.0942 82.0250 119.5991 0.0000 0.0000 0.0000
# 4 0.0000 0.0000 0.0000 21.4292 0.0000 0.0000
# 5 0.0000 0.0000 0.0000 0.0000 -12.6097 0.0000
# 6 0.0000 0.0000 0.0000 0.0000 0.0000 13.1153
#
#
#
# Elastic Compliance Matrix: (Units=1/GPa)
#
#
# Indices 1 2 3 4 5 6 
#
# 1 0.079605 -0.030260 0.017362 0.000000 0.000000 0.000000
# 2 -0.030260 0.035728 -0.023214 0.000000 0.000000 0.000000
# 3 0.017362 -0.023214 0.023543 0.000000 0.000000 0.000000
# 4 0.000000 0.000000 0.000000 0.046665 0.000000 0.000000
# 5 0.000000 0.000000 0.000000 0.000000 -0.079304 0.000000
# 6 0.000000 0.000000 0.000000 0.000000 0.000000 0.076247
#
#
# Mechanical properties :
#
#
# Convention : Reuss Voigt Hill
#
# Bulk Modulus (GPa) = 15.00323 49.83170 32.41747
# Shear Modulus (GPa) = 18.05551 13.02518 15.54034
#
# Velocity S-wave (km/s) = 3.19023 2.70963 2.95970
# Velocity P-wave (km/s) = 4.69331 6.15457 5.47293
#
# Compressibility (1/GPa) = 0.06665231
#
# Stress axis : x y z
#
# Youngs Moduli (GPa) = 12.56203 27.98955 42.47574
#
# Poissons Ratio (x) = 0.84695 -0.73748
# Poissons Ratio (y) = 0.38012 0.98604
# Poissons Ratio (z) = -0.21811 0.64976
#
# Static dielectric constant tensor:
#      x y z
#    x 1.651750 0.000000 0.000000 
#    y 0.000000 1.614550 0.000000 
#    z 0.000000 0.000000 1.622370 
# 
# From -- ./inp_files/72735.got.cif
#   From: 2010.05.17/outbox.cif.g08.bks.cpg/sg74_37_cif.got.tgz:72735.got - 2010.06.03 17:57:02.
