data_PCOD9536377
_publ_section_title
;
Structure prediction by ZEFSAII (Michael W. Deem and Ramdas Pophale) SiO2 
 PCOD9536377
Probable space group: I M M A
;
_chemical_formula_sum "Si O2"
_cell_formula_units_Z 112
_cell_length_a 15.159520
_cell_length_b 15.031121
_cell_length_c 25.329702
_cell_angle_alpha 90.000000
_cell_angle_beta 90.000000
_cell_angle_gamma 90.000000
_cell_volume 5771.741893
_symmetry_space_group_name_H-M "I M M A"
_symmetry_group_IT_number 74
_symmetry_cell_setting 'orthorhombic'
loop_
_space_group_symop_operation_xyz
x,y,z
-x,1/2-y,z
x,-y,-z
-x,1/2+y,-z
-x,-y,-z
x,1/2+y,-z
-x,y,z
x,1/2-y,z
1/2+x,1/2+y,1/2+z
1/2-x,-y,1/2+z
1/2+x,1/2-y,1/2-z
1/2-x,y,1/2-z
1/2-x,1/2-y,1/2-z
1/2+x,y,1/2-z
1/2-x,1/2+y,1/2+z
1/2+x,-y,1/2+z
loop_
_atom_site_type_symbol
_atom_site_label
_atom_site_fract_x
_atom_site_fract_y
_atom_site_fract_z
Si Si1 0.791070 0.488615 0.824575
Si Si2 0.606012 0.649108 0.628490
Si Si3 0.231804 0.653991 0.083059
Si Si4 0.403042 0.988055 0.166857
Si Si5 0.397540 0.893903 0.508396
Si Si6 0.102258 0.852379 0.248243
Si Si7 0.099184 0.566188 0.452367
O O1 0.851745 0.572958 0.835944
O O2 0.783518 0.426741 0.876741
O O3 0.691446 0.524509 0.814121
O O4 0.836341 0.420910 0.783378
O O5 0.500000 0.641666 0.630654
O O6 0.630743 0.750000 0.642823
O O7 0.631987 0.631144 0.567377
O O8 0.227488 0.750000 0.110204
O O9 0.159821 0.649144 0.037174
O O10 0.326274 0.639191 0.055763
O O11 0.500000 0.023889 0.184212
O O12 0.398971 0.888164 0.191512
O O13 0.402957 0.985500 0.103685
O O14 0.500000 0.867989 0.503414
O O15 0.391421 0.000000 0.500000
O O16 0.130185 0.750000 0.244646
O O17 0.000000 0.858439 0.229260
O O18 0.122761 0.500000 0.500000
O O19 0.000000 0.600127 0.461938
#
# Coordination Sequence:
#
# PCOD9536377 Si02
#       7
#    16  16  16  16  16  16  16
#     4  11  21  35  58  84 116 152 197 242 289 340
#     4  10  21  37  57  81 109 146 195 246 294 347
#     4  11  22  32  50  82 117 151 189 233 287 349
#     4   9  20  36  55  80 110 151 194 231 282 342
#     4  10  19  34  53  73 108 153 190 230 285 348
#     4  10  21  37  58  87 125 163 196 235 286 347
#     4   9  19  36  57  77 105 147 194 244 287 328
#
# _framework density 19.404886999999999
#
# number of rings (size 3 to 8) (size 9 to 14) (size 15 to 20)
#    0.000    2.000    1.429    2.143    2.000    5.143 
#    0.000    2.857    0.000    2.143    0.000    2.000 
#    0.000    0.000    0.000    0.000    0.000    0.000 
#
# Total GULP energy -312203.787725 kJ/mol
# GULP energy per Si atom -5575.067638 kJ/mol
# Density = 1.936072 g / cm^3
# Si number density = 19.404887 Si / 1000 Ang^3
#
#
#
# Elastic Constant Matrix: (Units=GPa)
#
#
# Indices 1 2 3 4 5 6 
#
# 1 63.8752 29.2139 21.2659 0.0000 0.0000 0.0000
# 2 29.2139 103.8133 29.9213 0.0000 0.0000 0.0000
# 3 21.2659 29.9213 71.5927 0.0000 0.0000 0.0000
# 4 0.0000 0.0000 0.0000 16.9831 0.0000 0.0000
# 5 0.0000 0.0000 0.0000 0.0000 22.8438 0.0000
# 6 0.0000 0.0000 0.0000 0.0000 0.0000 -80.9775
#
#
#
# Elastic Compliance Matrix: (Units=1/GPa)
#
#
# Indices 1 2 3 4 5 6 
#
# 1 0.018856 -0.004198 -0.003847 0.000000 0.000000 0.000000
# 2 -0.004198 0.011886 -0.003721 0.000000 0.000000 0.000000
# 3 -0.003847 -0.003721 0.016666 0.000000 0.000000 0.000000
# 4 0.000000 0.000000 0.000000 0.058882 0.000000 0.000000
# 5 0.000000 0.000000 0.000000 0.000000 0.043775 0.000000
# 6 0.000000 0.000000 0.000000 0.000000 0.000000 -0.012349
#
#
# Mechanical properties :
#
#
# Convention : Reuss Voigt Hill
#
# Bulk Modulus (GPa) = 41.88004 44.45370 43.16687
# Shear Modulus (GPa) = 29.54983 2.36191 15.95587
#
# Velocity S-wave (km/s) = 3.90654 1.10445 2.87062
# Velocity P-wave (km/s) = 6.47898 4.95829 5.76896
#
# Compressibility (1/GPa) = 0.02387772
#
# Stress axis : x y z
#
# Youngs Moduli (GPa) = 53.03360 84.13017 60.00374
#
# Poissons Ratio (x) = 0.35314 0.23081
# Poissons Ratio (y) = 0.22261 0.22327
# Poissons Ratio (z) = 0.20400 0.31304
#
# Static dielectric constant tensor:
#      x y z
#    x 1.734050 0.000000 0.000000 
#    y 0.000000 1.653810 0.000000 
#    z 0.000000 0.000000 1.693130 
# 
# From -- ./inp_files/60129.got.cif
#   From: 2010.05.17/outbox.cif.g08.bks.cpg/sg74_31_cif.got.tgz:60129.got - 2010.06.03 17:57:02.
