data_PCOD9536099
_publ_section_title
;
Structure prediction by ZEFSAII (Michael W. Deem and Ramdas Pophale) SiO2 
 PCOD9536099
Probable space group: I M M A
;
_chemical_formula_sum "Si O2"
_cell_formula_units_Z 116
_cell_length_a 7.758979
_cell_length_b 26.811314
_cell_length_c 27.904060
_cell_angle_alpha 90.000000
_cell_angle_beta 90.000000
_cell_angle_gamma 90.000000
_cell_volume 5804.837577
_symmetry_space_group_name_H-M "I M M A"
_symmetry_group_IT_number 74
_symmetry_cell_setting 'orthorhombic'
loop_
_space_group_symop_operation_xyz
x,y,z
-x,1/2-y,z
x,-y,-z
-x,1/2+y,-z
-x,-y,-z
x,1/2+y,-z
-x,y,z
x,1/2-y,z
1/2+x,1/2+y,1/2+z
1/2-x,-y,1/2+z
1/2+x,1/2-y,1/2-z
1/2-x,y,1/2-z
1/2-x,1/2-y,1/2-z
1/2+x,y,1/2-z
1/2-x,1/2+y,1/2+z
1/2+x,-y,1/2+z
loop_
_atom_site_type_symbol
_atom_site_label
_atom_site_fract_x
_atom_site_fract_y
_atom_site_fract_z
Si Si1 0.297009 0.932906 0.823227
Si Si2 0.300147 0.971560 0.576418
Si Si3 0.793564 0.805996 0.928961
Si Si4 0.197683 0.324471 0.183759
Si Si5 0.303197 0.080572 0.901147
Si Si6 0.207366 0.455817 0.697900
Si Si7 0.796892 0.105917 0.499882
Si Si8 0.000000 0.250000 0.286491
O O1 0.500000 0.928889 0.813098
O O2 0.269304 0.937075 0.880546
O O3 0.206702 0.883166 0.805090
O O4 0.229892 0.986567 0.804961
O O5 0.500000 0.982582 0.585438
O O6 0.283942 0.940922 0.527766
O O7 0.199795 0.023337 0.579866
O O8 0.727776 0.750000 0.937605
O O9 0.762029 0.818908 0.873291
O O10 0.000000 0.805990 0.934027
O O11 0.726188 0.846135 0.966451
O O12 0.347529 0.293198 0.208286
O O13 0.000000 0.306275 0.191533
O O14 0.500000 0.097959 0.894613
O O15 0.226234 0.110645 0.945937
O O16 0.225446 0.074984 0.847954
O O17 0.250000 0.435266 0.750000
O O18 0.000000 0.458705 0.692519
O O19 0.000000 0.095740 0.503763
#
# Coordination Sequence:
#
# PCOD9536099 Si02
#       8
#    16  16  16  16  16  16  16   4
#     4  10  19  33  50  72 101 134 166 208 259 308
#     4  11  20  29  45  69  98 132 168 207 245 293
#     4  10  21  34  46  66  99 133 173 218 252 288
#     4  11  21  33  49  73 102 133 176 220 259 311
#     4   9  20  36  48  68  98 132 165 203 246 305
#     4   9  19  35  55  75 101 126 161 205 255 311
#     4  11  21  31  48  67  95 135 174 204 244 297
#     4  12  22  32  52  70 102 138 176 220 276 294
#
# _framework density 19.983332999999998
#
# number of rings (size 3 to 8) (size 9 to 14) (size 15 to 20)
#    0.000    1.793    2.759    3.517    0.966    5.793 
#    0.000    0.000    0.000    0.000    0.000    0.483 
#    0.000    0.552    0.000    1.241    0.000    2.207 
#
# Total GULP energy -323523.763082 kJ/mol
# GULP energy per Si atom -5577.995915 kJ/mol
# Density = 1.993785 g / cm^3
# Si number density = 19.983333 Si / 1000 Ang^3
#
#
#
# Elastic Constant Matrix: (Units=GPa)
#
#
# Indices 1 2 3 4 5 6 
#
# 1 80.7264 13.8230 14.3705 0.0000 0.0000 0.0000
# 2 13.8230 37.3337 29.3504 0.0000 0.0000 0.0000
# 3 14.3705 29.3504 154.4458 0.0000 0.0000 0.0000
# 4 0.0000 0.0000 0.0000 -7.4738 0.0000 0.0000
# 5 0.0000 0.0000 0.0000 0.0000 20.4703 0.0000
# 6 0.0000 0.0000 0.0000 0.0000 0.0000 -8.5383
#
#
#
# Elastic Compliance Matrix: (Units=1/GPa)
#
#
# Indices 1 2 3 4 5 6 
#
# 1 0.013242 -0.004625 -0.000353 0.000000 0.000000 0.000000
# 2 -0.004625 0.033106 -0.005861 0.000000 0.000000 0.000000
# 3 -0.000353 -0.005861 0.007621 0.000000 0.000000 0.000000
# 4 0.000000 0.000000 0.000000 -0.133800 0.000000 0.000000
# 5 0.000000 0.000000 0.000000 0.000000 0.048851 0.000000
# 6 0.000000 0.000000 0.000000 0.000000 0.000000 -0.117119
#
#
# Mechanical properties :
#
#
# Convention : Reuss Voigt Hill
#
# Bulk Modulus (GPa) = 30.96889 43.06597 37.01743
# Shear Modulus (GPa) = -43.23175 15.22243 -14.00466
#
# Velocity S-wave (km/s) = -4.65627 2.76299 -2.65017
# Velocity P-wave (km/s) = 3.65743 5.63707 3.03313
#
# Compressibility (1/GPa) = 0.03229047
#
# Stress axis : x y z
#
# Youngs Moduli (GPa) = 75.51488 30.20630 131.20923
#
# Poissons Ratio (x) = 0.13972 0.04634
# Poissons Ratio (y) = 0.34929 0.76901
# Poissons Ratio (z) = 0.02667 0.17704
#
# Static dielectric constant tensor:
#      x y z
#    x 1.730860 0.000000 0.000000 
#    y 0.000000 1.683310 0.000000 
#    z 0.000000 0.000000 1.798070 
# 
# From -- ./inp_files/65308.got.cif
#   From: 2010.05.17/outbox.cif.g08.bks.cpg/sg74_33_cif.got.tgz:65308.got - 2010.06.03 17:57:02.
