data_PCOD9536235
_publ_section_title
;
Structure prediction by ZEFSAII (Michael W. Deem and Ramdas Pophale) SiO2 
 PCOD9536235
Probable space group: I M M A
;
_chemical_formula_sum "Si O2"
_cell_formula_units_Z 88
_cell_length_a 20.613794
_cell_length_b 7.727326
_cell_length_c 25.006852
_cell_angle_alpha 90.000000
_cell_angle_beta 90.000000
_cell_angle_gamma 90.000000
_cell_volume 3983.329110
_symmetry_space_group_name_H-M "I M M A"
_symmetry_group_IT_number 74
_symmetry_cell_setting 'orthorhombic'
loop_
_space_group_symop_operation_xyz
x,y,z
-x,1/2-y,z
x,-y,-z
-x,1/2+y,-z
-x,-y,-z
x,1/2+y,-z
-x,y,z
x,1/2-y,z
1/2+x,1/2+y,1/2+z
1/2-x,-y,1/2+z
1/2+x,1/2-y,1/2-z
1/2-x,y,1/2-z
1/2-x,1/2-y,1/2-z
1/2+x,y,1/2-z
1/2-x,1/2+y,1/2+z
1/2+x,-y,1/2+z
loop_
_atom_site_type_symbol
_atom_site_label
_atom_site_fract_x
_atom_site_fract_y
_atom_site_fract_z
Si Si1 0.115956 0.457190 0.558559
Si Si2 0.676963 0.546777 0.251280
Si Si3 0.735095 0.456863 0.559579
Si Si4 0.878609 0.948907 0.864287
Si Si5 0.069892 0.462337 0.671542
Si Si6 0.500000 0.458695 0.436178
O O1 0.089973 0.500000 0.500000
O O2 0.118708 0.250000 0.561383
O O3 0.190599 0.519793 0.562806
O O4 0.077472 0.517669 0.610146
O O5 0.684314 0.750000 0.238429
O O6 0.750000 0.472871 0.250000
O O7 0.639853 0.533716 0.307818
O O8 0.629803 0.472728 0.206156
O O9 0.711672 0.500000 0.500000
O O10 0.734345 0.250000 0.567789
O O11 0.687082 0.540055 0.601517
O O12 0.895019 0.750000 0.852500
O O13 0.936552 0.019360 0.902381
O O14 0.071076 0.250000 0.672463
O O15 0.000000 0.515740 0.693296
O O16 0.500000 0.250000 0.434785
O O17 0.500000 0.500000 0.500000
#
# Coordination Sequence:
#
# PCOD9536235 Si02
#       6
#    16  16  16  16  16   8
#     4   9  18  33  54  80 111 143 178 224 274 325
#     4  10  21  38  60  85 112 146 193 244 291 345
#     4  10  19  33  54  81 111 145 184 232 283 333
#     4  11  23  38  57  82 114 151 191 238 292 350
#     4   9  18  33  54  79 108 143 184 227 272 328
#     4  10  24  42  58  82 118 156 195 242 295 356
#
# _framework density 22.092074
#
# number of rings (size 3 to 8) (size 9 to 14) (size 15 to 20)
#    0.000    2.182    0.000    2.727    1.273    7.273 
#    0.000    0.909    0.000    1.091    0.000    0.000 
#    0.000    0.000    0.000    0.000    0.000    0.000 
#
# Total GULP energy -245645.368450 kJ/mol
# GULP energy per Si atom -5582.849283 kJ/mol
# Density = 2.204179 g / cm^3
# Si number density = 22.092074 Si / 1000 Ang^3
#
#
#
# Elastic Constant Matrix: (Units=GPa)
#
#
# Indices 1 2 3 4 5 6 
#
# 1 135.0392 8.5565 79.3552 0.0000 0.0000 0.0000
# 2 8.5565 33.6966 -10.4708 0.0000 0.0000 0.0000
# 3 79.3552 -10.4708 127.1641 0.0000 0.0000 0.0000
# 4 0.0000 0.0000 0.0000 27.9542 0.0000 0.0000
# 5 0.0000 0.0000 0.0000 0.0000 35.9526 0.0000
# 6 0.0000 0.0000 0.0000 0.0000 0.0000 19.6675
#
#
#
# Elastic Compliance Matrix: (Units=1/GPa)
#
#
# Indices 1 2 3 4 5 6 
#
# 1 0.012725 -0.005849 -0.008423 0.000000 0.000000 0.000000
# 2 -0.005849 0.033144 0.006379 0.000000 0.000000 0.000000
# 3 -0.008423 0.006379 0.013645 0.000000 0.000000 0.000000
# 4 0.000000 0.000000 0.000000 0.035773 0.000000 0.000000
# 5 0.000000 0.000000 0.000000 0.000000 0.027814 0.000000
# 6 0.000000 0.000000 0.000000 0.000000 0.000000 0.050845
#
#
# Mechanical properties :
#
#
# Convention : Reuss Voigt Hill
#
# Bulk Modulus (GPa) = 22.86782 50.08686 36.47734
# Shear Modulus (GPa) = 24.47280 31.27881 27.87580
#
# Velocity S-wave (km/s) = 3.33192 3.76684 3.55604
# Velocity P-wave (km/s) = 5.01756 6.45290 5.77996
#
# Compressibility (1/GPa) = 0.04372957
#
# Stress axis : x y z
#
# Youngs Moduli (GPa) = 78.58287 30.17145 73.28588
#
# Poissons Ratio (x) = 0.17646 0.61727
# Poissons Ratio (y) = 0.45960 -0.46748
# Poissons Ratio (z) = 0.66188 -0.19246
#
# Static dielectric constant tensor:
#      x y z
#    x 1.813030 0.000000 0.000000 
#    y 0.000000 1.846750 0.000000 
#    z 0.000000 0.000000 1.799620 
# 
# From -- ./inp_files/56947.got.cif
#   From: 2010.05.17/outbox.cif.g08.bks.cpg/sg74_29_cif.got.tgz:56947.got - 2010.06.03 17:57:02.
