data_PCOD9536436
_publ_section_title
;
Structure prediction by ZEFSAII (Michael W. Deem and Ramdas Pophale) SiO2 
 PCOD9536436
Probable space group: I M M A
;
_chemical_formula_sum "Si O2"
_cell_formula_units_Z 80
_cell_length_a 8.779508
_cell_length_b 26.658435
_cell_length_c 19.344380
_cell_angle_alpha 90.000000
_cell_angle_beta 90.000000
_cell_angle_gamma 90.000000
_cell_volume 4527.512354
_symmetry_space_group_name_H-M "I M M A"
_symmetry_group_IT_number 74
_symmetry_cell_setting 'orthorhombic'
loop_
_space_group_symop_operation_xyz
x,y,z
-x,1/2-y,z
x,-y,-z
-x,1/2+y,-z
-x,-y,-z
x,1/2+y,-z
-x,y,z
x,1/2-y,z
1/2+x,1/2+y,1/2+z
1/2-x,-y,1/2+z
1/2+x,1/2-y,1/2-z
1/2-x,y,1/2-z
1/2-x,1/2-y,1/2-z
1/2+x,y,1/2-z
1/2-x,1/2+y,1/2+z
1/2+x,-y,1/2+z
loop_
_atom_site_type_symbol
_atom_site_label
_atom_site_fract_x
_atom_site_fract_y
_atom_site_fract_z
Si Si1 0.677295 0.250000 0.916772
Si Si2 0.317194 0.644123 0.418075
Si Si3 0.817500 0.354634 0.079916
Si Si4 0.682418 0.555298 0.173055
Si Si5 0.316117 0.449001 0.326777
Si Si6 0.175190 0.250000 0.415271
O O1 0.500000 0.250000 0.896700
O O2 0.759455 0.198904 0.894370
O O3 0.684505 0.250000 0.000746
O O4 0.500000 0.641257 0.412174
O O5 0.274944 0.638869 0.499279
O O6 0.239401 0.600367 0.374653
O O7 0.771402 0.402572 0.124759
O O8 0.751886 0.301973 0.106790
O O9 0.000000 0.351098 0.082081
O O10 0.500000 0.553375 0.176168
O O11 0.750000 0.562338 0.250000
O O12 0.748525 0.501897 0.147733
O O13 0.500000 0.452364 0.323994
O O14 0.250000 0.441237 0.250000
O O15 0.000000 0.250000 0.394777
#
# Coordination Sequence:
#
# PCOD9536436 Si02
#       6
#     8  16  16  16  16   8
#     4   9  17  31  50  77 108 137 168 208 256 305
#     4  10  19  34  55  79 105 137 173 211 253 304
#     4   9  19  34  54  77 105 138 173 210 255 308
#     4  11  22  37  55  76 103 137 172 212 258 308
#     4  10  20  36  55  76 102 137 175 214 258 308
#     4   9  17  29  50  77 106 135 169 212 257 301
#
# _framework density 17.669747999999998
#
# number of rings (size 3 to 8) (size 9 to 14) (size 15 to 20)
#    0.000    2.200    0.000    4.800    0.000    5.600 
#    0.000    5.000    0.000    0.000    0.000    0.000 
#    0.000    0.000    0.000    0.000    0.000    0.000 
#
# Total GULP energy -223206.396052 kJ/mol
# GULP energy per Si atom -5580.159901 kJ/mol
# Density = 1.762953 g / cm^3
# Si number density = 17.669748 Si / 1000 Ang^3
#
#
#
# Elastic Constant Matrix: (Units=GPa)
#
#
# Indices 1 2 3 4 5 6 
#
# 1 89.7001 75.1744 35.1329 0.0001 0.0000 0.0000
# 2 75.1744 216.2229 78.8430 0.0000 0.0000 0.0000
# 3 35.1329 78.8430 44.5683 -0.0012 0.0000 0.0000
# 4 0.0001 0.0000 -0.0012 -135.2648 0.0000 0.0000
# 5 0.0000 0.0000 0.0000 0.0000 22.9599 0.0000
# 6 0.0000 0.0000 0.0000 0.0000 0.0000 36.1456
#
#
#
# Elastic Compliance Matrix: (Units=1/GPa)
#
#
# Indices 1 2 3 4 5 6 
#
# 1 0.016724 -0.002838 -0.008163 0.000000 0.000000 0.000000
# 2 -0.002838 0.013511 -0.021665 0.000000 0.000000 0.000000
# 3 -0.008163 -0.021665 0.067199 -0.000001 0.000000 0.000000
# 4 0.000000 0.000000 -0.000001 -0.007393 0.000000 0.000000
# 5 0.000000 0.000000 0.000000 0.000000 0.043554 0.000000
# 6 0.000000 0.000000 0.000000 0.000000 0.000000 0.027666
#
#
# Mechanical properties :
#
#
# Convention : Reuss Voigt Hill
#
# Bulk Modulus (GPa) = 31.15070 80.97687 56.06379
# Shear Modulus (GPa) = 21.07089 -4.47581 8.29754
#
# Velocity S-wave (km/s) = 3.45698 -1.59328 2.16935
# Velocity P-wave (km/s) = 5.79672 6.52248 6.17028
#
# Compressibility (1/GPa) = 0.03210200
#
# Stress axis : x y z
#
# Youngs Moduli (GPa) = 59.79519 74.01151 14.88119
#
# Poissons Ratio (x) = 0.21003 0.12148
# Poissons Ratio (y) = 0.16969 0.32240
# Poissons Ratio (z) = 0.48811 1.60347
#
# Static dielectric constant tensor:
#      x y z
#    x 1.592400 0.000000 0.000000 
#    y 0.000000 1.595990 0.000000 
#    z 0.000000 0.000000 1.589670 
# 
# From -- ./inp_files/39833.got.cif
#   From: 2010.05.17/outbox.cif.g08.bks.cpg/sg74_20_cif.got.tgz:39833.got - 2010.06.03 17:57:02.
