data_PCOD9536124
_publ_section_title
;
Structure prediction by ZEFSAII (Michael W. Deem and Ramdas Pophale) SiO2 
 PCOD9536124
Probable space group: I M M A
;
_chemical_formula_sum "Si O2"
_cell_formula_units_Z 112
_cell_length_a 26.728428
_cell_length_b 15.132450
_cell_length_c 16.538096
_cell_angle_alpha 90.000000
_cell_angle_beta 90.000000
_cell_angle_gamma 90.000000
_cell_volume 6689.107464
_symmetry_space_group_name_H-M "I M M A"
_symmetry_group_IT_number 74
_symmetry_cell_setting 'orthorhombic'
loop_
_space_group_symop_operation_xyz
x,y,z
-x,1/2-y,z
x,-y,-z
-x,1/2+y,-z
-x,-y,-z
x,1/2+y,-z
-x,y,z
x,1/2-y,z
1/2+x,1/2+y,1/2+z
1/2-x,-y,1/2+z
1/2+x,1/2-y,1/2-z
1/2-x,y,1/2-z
1/2-x,1/2-y,1/2-z
1/2+x,y,1/2-z
1/2-x,1/2+y,1/2+z
1/2+x,-y,1/2+z
loop_
_atom_site_type_symbol
_atom_site_label
_atom_site_fract_x
_atom_site_fract_y
_atom_site_fract_z
Si Si1 0.253007 0.250000 0.889512
Si Si2 0.669580 0.250000 0.736975
Si Si3 0.787571 0.554280 0.815721
Si Si4 0.876449 0.854528 0.901030
Si Si5 0.942245 0.007191 0.192780
Si Si6 0.714270 0.562457 0.076228
Si Si7 0.441741 0.853542 0.441138
Si Si8 0.136631 0.435220 0.710597
O O1 0.289588 0.250000 0.810470
O O2 0.198422 0.250000 0.848417
O O3 0.264955 0.160992 0.937785
O O4 0.638902 0.161580 0.750498
O O5 0.750000 0.599574 0.750000
O O6 0.820627 0.612116 0.877752
O O7 0.753699 0.484999 0.864384
O O8 0.826726 0.496913 0.763850
O O9 0.879013 0.750000 0.887791
O O10 0.912974 0.909254 0.842599
O O11 0.899847 0.871061 0.990275
O O12 0.000000 0.026804 0.200262
O O13 0.935974 0.925746 0.129238
O O14 0.917419 0.976317 0.276451
O O15 0.661567 0.569106 0.123027
O O16 0.709765 0.500000 0.000000
O O17 0.500000 0.863177 0.471769
O O18 0.436838 0.750000 0.416095
#
# Coordination Sequence:
#
# PCOD9536124 Si02
#       8
#     8   8  16  16  16  16  16  16
#     4   9  16  30  52  78  95 130 172 197 246 297
#     4   9  14  28  53  76  98 126 165 205 242 301
#     4   9  18  33  49  69  99 133 163 204 248 287
#     4  10  20  33  48  69  96 134 175 203 238 286
#     4  10  20  33  51  72  98 129 166 206 251 298
#     4  10  19  33  52  73 103 131 165 205 244 298
#     4   9  18  32  49  72 101 128 158 200 249 299
#     4   9  18  31  51  74  99 130 162 205 251 290
#
# _framework density 16.743639000000002
#
# number of rings (size 3 to 8) (size 9 to 14) (size 15 to 20)
#    0.000    2.571    1.429    0.857    1.000    4.571 
#    1.286    0.000    6.286    0.429    0.000    0.000 
#    0.000    0.000    0.000    0.000    0.000    0.000 
#
# Total GULP energy -311984.453539 kJ/mol
# GULP energy per Si atom -5571.150956 kJ/mol
# Density = 1.670553 g / cm^3
# Si number density = 16.743639 Si / 1000 Ang^3
#
#
#
# Elastic Constant Matrix: (Units=GPa)
#
#
# Indices 1 2 3 4 5 6 
#
# 1 75.9261 26.6102 15.7587 0.0000 0.0000 0.0000
# 2 26.6102 77.2851 23.1141 0.0000 0.0000 0.0000
# 3 15.7587 23.1141 38.4299 0.0000 0.0000 0.0000
# 4 0.0000 0.0000 0.0000 16.6496 0.0000 0.0000
# 5 0.0000 0.0000 0.0000 0.0000 23.3395 0.0000
# 6 0.0000 0.0000 0.0000 0.0000 0.0000 16.4700
#
#
#
# Elastic Compliance Matrix: (Units=1/GPa)
#
#
# Indices 1 2 3 4 5 6 
#
# 1 0.015424 -0.004169 -0.003817 0.000000 0.000000 0.000000
# 2 -0.004169 0.016904 -0.008458 0.000000 0.000000 0.000000
# 3 -0.003817 -0.008458 0.032674 0.000000 0.000000 0.000000
# 4 0.000000 0.000000 0.000000 0.060062 0.000000 0.000000
# 5 0.000000 0.000000 0.000000 0.000000 0.042846 0.000000
# 6 0.000000 0.000000 0.000000 0.000000 0.000000 0.060716
#
#
# Mechanical properties :
#
#
# Convention : Reuss Voigt Hill
#
# Bulk Modulus (GPa) = 31.13915 35.84524 33.49219
# Shear Modulus (GPa) = 18.36763 19.70236 19.03499
#
# Velocity S-wave (km/s) = 3.31568 3.43404 3.37538
# Velocity P-wave (km/s) = 5.77029 6.09740 5.93610
#
# Compressibility (1/GPa) = 0.03211391
#
# Stress axis : x y z
#
# Youngs Moduli (GPa) = 64.83338 59.15761 30.60569
#
# Poissons Ratio (x) = 0.24663 0.11683
# Poissons Ratio (y) = 0.27029 0.25885
# Poissons Ratio (z) = 0.24749 0.50033
#
# Static dielectric constant tensor:
#      x y z
#    x 1.589020 0.000000 0.000000 
#    y 0.000000 1.560920 0.000000 
#    z 0.000000 0.000000 1.574320 
# 
# From -- ./inp_files/37435.got.cif
#   From: 2010.05.17/outbox.cif.g08.bks.cpg/sg74_19_cif.got.tgz:37435.got - 2010.06.03 17:57:02.
