data_PCOD9536329
_publ_section_title
;
Structure prediction by ZEFSAII (Michael W. Deem and Ramdas Pophale) SiO2 
 PCOD9536329
Probable space group: I M M A
;
_chemical_formula_sum "Si O2"
_cell_formula_units_Z 88
_cell_length_a 14.062605
_cell_length_b 14.946797
_cell_length_c 20.488954
_cell_angle_alpha 90.000000
_cell_angle_beta 90.000000
_cell_angle_gamma 90.000000
_cell_volume 4306.591727
_symmetry_space_group_name_H-M "I M M A"
_symmetry_group_IT_number 74
_symmetry_cell_setting 'orthorhombic'
loop_
_space_group_symop_operation_xyz
x,y,z
-x,1/2-y,z
x,-y,-z
-x,1/2+y,-z
-x,-y,-z
x,1/2+y,-z
-x,y,z
x,1/2-y,z
1/2+x,1/2+y,1/2+z
1/2-x,-y,1/2+z
1/2+x,1/2-y,1/2-z
1/2-x,y,1/2-z
1/2-x,1/2-y,1/2-z
1/2+x,y,1/2-z
1/2-x,1/2+y,1/2+z
1/2+x,-y,1/2+z
loop_
_atom_site_type_symbol
_atom_site_label
_atom_site_fract_x
_atom_site_fract_y
_atom_site_fract_z
Si Si1 0.395971 0.892677 0.986236
Si Si2 0.500000 0.541678 0.641391
Si Si3 0.000000 0.147685 0.256440
Si Si4 0.703626 0.407347 0.542273
Si Si5 0.702882 0.984259 0.319895
Si Si6 0.831119 0.354578 0.342316
Si Si7 0.500000 0.147092 0.491519
O O1 0.500000 0.859684 0.008681
O O2 0.296411 0.857181 0.014528
O O3 0.384987 0.872144 0.909817
O O4 0.396235 0.000000 0.000000
O O5 0.500000 0.634912 0.680336
O O6 0.409720 0.488694 0.668790
O O7 0.500000 0.571607 0.566130
O O8 0.096150 0.110777 0.287272
O O9 0.000000 0.250000 0.277438
O O10 0.698586 0.500000 0.500000
O O11 0.731419 0.425388 0.617375
O O12 0.598894 0.365786 0.531513
O O13 0.750000 0.959267 0.250000
O O14 0.739358 0.084299 0.336867
O O15 0.808863 0.250000 0.334420
O O16 0.500000 0.250000 0.467070
#
# Coordination Sequence:
#
# PCOD9536329 Si02
#       7
#    16   8   8  16  16  16   8
#     4  10  19  33  57  82 113 162 207 247 300 358
#     4  12  22  36  58  86 127 166 205 248 295 376
#     4  10  21  33  48  77 124 164 191 232 284 350
#     4  11  21  41  62  86 127 163 204 268 313 364
#     4  12  24  39  59  88 123 168 207 249 310 376
#     4  11  21  35  54  82 121 163 200 237 291 364
#     4  12  25  42  70  96 120 165 223 270 322 368
#
# _framework density 20.433793000000001
#
# number of rings (size 3 to 8) (size 9 to 14) (size 15 to 20)
#    0.000    0.909    8.182    1.091    0.000    4.000 
#    1.636    0.000    0.000    0.545    0.000    0.000 
#    0.000    0.000    0.000    0.000    0.000    0.000 
#
# Total GULP energy -245194.930606 kJ/mol
# GULP energy per Si atom -5572.612059 kJ/mol
# Density = 2.038728 g / cm^3
# Si number density = 20.433793 Si / 1000 Ang^3
#
#
#
# Elastic Constant Matrix: (Units=GPa)
#
#
# Indices 1 2 3 4 5 6 
#
# 1 170.4441 10.7885 33.8170 0.0000 0.0000 0.0000
# 2 10.7885 29.0104 14.8685 0.0000 0.0000 0.0000
# 3 33.8170 14.8685 133.1627 0.0000 0.0000 0.0000
# 4 0.0000 0.0000 0.0000 14.6544 0.0000 0.0000
# 5 0.0000 0.0000 0.0000 0.0000 26.5129 0.0000
# 6 0.0000 0.0000 0.0000 0.0000 0.0000 -9.5735
#
#
#
# Elastic Compliance Matrix: (Units=1/GPa)
#
#
# Indices 1 2 3 4 5 6 
#
# 1 0.006248 -0.001602 -0.001408 0.000000 0.000000 0.000000
# 2 -0.001602 0.036974 -0.003722 0.000000 0.000000 0.000000
# 3 -0.001408 -0.003722 0.008283 0.000000 0.000000 0.000000
# 4 0.000000 0.000000 0.000000 0.068239 0.000000 0.000000
# 5 0.000000 0.000000 0.000000 0.000000 0.037718 0.000000
# 6 0.000000 0.000000 0.000000 0.000000 0.000000 -0.104455
#
#
# Mechanical properties :
#
#
# Convention : Reuss Voigt Hill
#
# Bulk Modulus (GPa) = 26.28708 50.17391 38.23049
# Shear Modulus (GPa) = 63.17253 24.52830 43.85041
#
# Velocity S-wave (km/s) = 5.56622 3.46841 4.63749
# Velocity P-wave (km/s) = 7.36226 6.37554 6.88659
#
# Compressibility (1/GPa) = 0.03804151
#
# Stress axis : x y z
#
# Youngs Moduli (GPa) = 160.05813 27.04635 120.73433
#
# Poissons Ratio (x) = 0.04333 0.16997
# Poissons Ratio (y) = 0.25640 0.44932
# Poissons Ratio (z) = 0.22532 0.10065
#
# Static dielectric constant tensor:
#      x y z
#    x 1.830220 0.000000 0.000000 
#    y 0.000000 1.722050 0.000000 
#    z 0.000000 0.000000 1.740170 
# 
# From -- ./inp_files/42839.got.cif
#   From: 2010.05.17/outbox.cif.g08.bks.cpg/sg74_22_cif.got.tgz:42839.got - 2010.06.03 17:57:02.
