data_PCOD9536811
_publ_section_title
;
Structure prediction by ZEFSAII (Michael W. Deem and Ramdas Pophale) SiO2 
 PCOD9536811
Probable space group: I M M A
;
_chemical_formula_sum "Si O2"
_cell_formula_units_Z 84
_cell_length_a 27.831010
_cell_length_b 10.283285
_cell_length_c 16.221293
_cell_angle_alpha 90.000000
_cell_angle_beta 90.000000
_cell_angle_gamma 90.000000
_cell_volume 4642.440097
_symmetry_space_group_name_H-M "I M M A"
_symmetry_group_IT_number 74
_symmetry_cell_setting 'orthorhombic'
loop_
_space_group_symop_operation_xyz
x,y,z
-x,1/2-y,z
x,-y,-z
-x,1/2+y,-z
-x,-y,-z
x,1/2+y,-z
-x,y,z
x,1/2-y,z
1/2+x,1/2+y,1/2+z
1/2-x,-y,1/2+z
1/2+x,1/2-y,1/2-z
1/2-x,y,1/2-z
1/2-x,1/2-y,1/2-z
1/2+x,y,1/2-z
1/2-x,1/2+y,1/2+z
1/2+x,-y,1/2+z
loop_
_atom_site_type_symbol
_atom_site_label
_atom_site_fract_x
_atom_site_fract_y
_atom_site_fract_z
Si Si1 0.942116 0.600065 0.928082
Si Si2 0.687773 0.750000 0.932720
Si Si3 0.000000 0.250000 0.529179
Si Si4 0.581564 0.250000 0.827623
Si Si5 0.404118 0.472837 0.248007
Si Si6 0.793986 0.471717 0.306978
Si Si7 0.577423 0.250000 0.119565
Si Si8 0.192940 0.250000 0.623205
O O1 0.930625 0.750000 0.949493
O O2 0.919349 0.566147 0.839689
O O3 0.000000 0.590410 0.919600
O O4 0.927272 0.500000 0.000000
O O5 0.705112 0.622100 0.885460
O O6 0.630251 0.750000 0.920699
O O7 0.702883 0.750000 0.026652
O O8 0.042065 0.250000 0.601063
O O9 0.040900 0.250000 0.455318
O O10 0.579106 0.381510 0.773981
O O11 0.635099 0.250000 0.866158
O O12 0.346350 0.461553 0.236239
O O13 0.426326 0.374859 0.179762
O O14 0.750000 0.431981 0.250000
O O15 0.787922 0.620083 0.334847
#
# Coordination Sequence:
#
# PCOD9536811 Si02
#       8
#    16   8   4   8  16  16   8   8
#     4  10  22  40  63  87 113 150 197 242 290 348
#     4  10  19  37  56  85 114 151 190 233 289 340
#     4  12  24  38  56  94 130 154 214 228 284 334
#     4  10  24  35  54  89 126 158 190 242 272 351
#     4  10  22  40  59  85 118 159 192 238 304 343
#     4  10  21  37  62  82 113 149 194 239 291 353
#     4  10  22  35  60  81 122 162 190 238 276 353
#     4  10  19  39  56  83 116 153 190 233 295 338
#
# _framework density 18.093933
#
# number of rings (size 3 to 8) (size 9 to 14) (size 15 to 20)
#    0.000    1.905    1.905    1.143    4.000    1.524 
#    0.000    1.905    0.000    0.000    0.000    0.000 
#    0.000    0.000    0.000    0.000    0.000    0.000 
#
# Total GULP energy -233955.727444 kJ/mol
# GULP energy per Si atom -5570.374463 kJ/mol
# Density = 1.805275 g / cm^3
# Si number density = 18.093933 Si / 1000 Ang^3
#
#
#
# Elastic Constant Matrix: (Units=GPa)
#
#
# Indices 1 2 3 4 5 6 
#
# 1 48.7740 20.1468 37.7178 0.0000 0.0000 0.0000
# 2 20.1468 116.7055 36.1852 0.0000 0.0000 0.0000
# 3 37.7178 36.1852 113.0229 0.0000 0.0000 0.0000
# 4 0.0000 0.0000 0.0000 17.6780 0.0000 0.0000
# 5 0.0000 0.0000 0.0000 0.0000 23.0870 0.0000
# 6 0.0000 0.0000 0.0000 0.0000 0.0000 14.5844
#
#
#
# Elastic Compliance Matrix: (Units=1/GPa)
#
#
# Indices 1 2 3 4 5 6 
#
# 1 0.028116 -0.002159 -0.008692 0.000000 0.000000 0.000000
# 2 -0.002159 0.009679 -0.002378 0.000000 0.000000 0.000000
# 3 -0.008692 -0.002378 0.012510 0.000000 0.000000 0.000000
# 4 0.000000 0.000000 0.000000 0.056568 0.000000 0.000000
# 5 0.000000 0.000000 0.000000 0.000000 0.043314 0.000000
# 6 0.000000 0.000000 0.000000 0.000000 0.000000 0.068566
#
#
# Mechanical properties :
#
#
# Convention : Reuss Voigt Hill
#
# Bulk Modulus (GPa) = 41.93414 51.84467 46.88941
# Shear Modulus (GPa) = 19.75044 23.36671 21.55858
#
# Velocity S-wave (km/s) = 3.30745 3.59752 3.45553
# Velocity P-wave (km/s) = 6.14912 6.78023 6.47237
#
# Compressibility (1/GPa) = 0.02384692
#
# Stress axis : x y z
#
# Youngs Moduli (GPa) = 35.56715 103.32030 79.93764
#
# Poissons Ratio (x) = 0.22304 0.69479
# Poissons Ratio (y) = 0.07678 0.19011
# Poissons Ratio (z) = 0.30914 0.24573
#
# Static dielectric constant tensor:
#      x y z
#    x 1.604470 0.000000 0.000000 
#    y 0.000000 1.641460 0.000000 
#    z 0.000000 0.000000 1.572680 
# 
# From -- ./inp_files/27042.got.cif
#   From: 2010.05.17/outbox.cif.g08.bks.cpg/sg74_14_cif.got.tgz:27042.got - 2010.06.03 17:57:02.
