data_PCOD9536701
_publ_section_title
;
Structure prediction by ZEFSAII (Michael W. Deem and Ramdas Pophale) SiO2 
 PCOD9536701
Probable space group: I M M A
;
_chemical_formula_sum "Si O2"
_cell_formula_units_Z 116
_cell_length_a 25.391509
_cell_length_b 18.492240
_cell_length_c 12.574054
_cell_angle_alpha 90.000000
_cell_angle_beta 90.000000
_cell_angle_gamma 90.000000
_cell_volume 5904.095230
_symmetry_space_group_name_H-M "I M M A"
_symmetry_group_IT_number 74
_symmetry_cell_setting 'orthorhombic'
loop_
_space_group_symop_operation_xyz
x,y,z
-x,1/2-y,z
x,-y,-z
-x,1/2+y,-z
-x,-y,-z
x,1/2+y,-z
-x,y,z
x,1/2-y,z
1/2+x,1/2+y,1/2+z
1/2-x,-y,1/2+z
1/2+x,1/2-y,1/2-z
1/2-x,y,1/2-z
1/2-x,1/2-y,1/2-z
1/2+x,y,1/2-z
1/2-x,1/2+y,1/2+z
1/2+x,-y,1/2+z
loop_
_atom_site_type_symbol
_atom_site_label
_atom_site_fract_x
_atom_site_fract_y
_atom_site_fract_z
Si Si1 0.558293 0.523060 0.623405
Si Si2 0.667468 0.426840 0.070399
Si Si3 0.556889 0.912610 0.000344
Si Si4 0.328703 0.442326 0.318803
Si Si5 0.419591 0.878077 0.244560
Si Si6 0.697242 0.105666 0.679347
Si Si7 0.500000 0.750000 0.296743
Si Si8 0.233837 0.666272 0.963530
O O1 0.562112 0.500000 0.500000
O O2 0.500000 0.555280 0.640503
O O3 0.609785 0.568374 0.653315
O O4 0.563586 0.451606 0.695779
O O5 0.679341 0.444706 0.192421
O O6 0.708972 0.370055 0.026102
O O7 0.669794 0.500000 0.000000
O O8 0.608640 0.395001 0.065648
O O9 0.500000 0.885574 0.962614
O O10 0.566609 0.886616 0.120466
O O11 0.554636 0.000000 0.000000
O O12 0.311037 0.522122 0.357545
O O13 0.295692 0.380079 0.373983
O O14 0.356501 0.872619 0.260096
O O15 0.453733 0.813139 0.290978
O O16 0.750000 0.110285 0.750000
O O17 0.704387 0.153687 0.574879
O O18 0.237005 0.750000 0.936556
#
# Coordination Sequence:
#
# PCOD9536701 Si02
#       8
#    16  16  16  16  16  16   4  16
#     4  10  19  35  60  92 120 151 205 256 301 351
#     4  11  22  39  65  91 116 160 207 261 312 364
#     4  10  19  36  61  91 122 152 201 258 303 356
#     4  11  22  39  68  89 121 162 207 262 311 373
#     4  11  22  39  61  91 126 166 199 247 313 382
#     4  11  22  41  66  95 122 158 213 267 308 360
#     4  12  24  40  58  84 132 178 194 234 316 412
#     4  12  26  42  59  88 127 164 205 251 318 391
#
# _framework density 19.647379999999998
#
# number of rings (size 3 to 8) (size 9 to 14) (size 15 to 20)
#    0.000    1.103    1.379    9.103    0.966    3.034 
#    3.724    0.000    0.000    0.414    0.000    1.931 
#    0.000    1.103    0.000    0.000    0.000    0.000 
#
# Total GULP energy -323617.175641 kJ/mol
# GULP energy per Si atom -5579.606477 kJ/mol
# Density = 1.960266 g / cm^3
# Si number density = 19.647380 Si / 1000 Ang^3
#
#
#
# Elastic Constant Matrix: (Units=GPa)
#
#
# Indices 1 2 3 4 5 6 
#
# 1 175.7215 52.9942 19.5511 0.0000 0.0000 0.0000
# 2 52.9942 80.8916 9.7728 0.0000 0.0000 0.0000
# 3 19.5511 9.7728 49.8896 0.0000 0.0000 0.0000
# 4 0.0000 0.0000 0.0000 -0.7790 0.0000 0.0000
# 5 0.0000 0.0000 0.0000 0.0000 8.3073 0.0000
# 6 0.0000 0.0000 0.0000 0.0000 0.0000 -4.5597
#
#
#
# Elastic Compliance Matrix: (Units=1/GPa)
#
#
# Indices 1 2 3 4 5 6 
#
# 1 0.007275 -0.004529 -0.001964 0.000000 0.000000 0.000000
# 2 -0.004529 0.015481 -0.001258 0.000000 0.000000 0.000000
# 3 -0.001964 -0.001258 0.021060 0.000000 0.000000 0.000000
# 4 0.000000 0.000000 0.000000 -1.283683 0.000000 0.000000
# 5 0.000000 0.000000 0.000000 0.000000 0.120376 0.000000
# 6 0.000000 0.000000 0.000000 0.000000 0.000000 -0.219311
#
#
# Mechanical properties :
#
#
# Convention : Reuss Voigt Hill
#
# Bulk Modulus (GPa) = 35.31633 52.34876 43.83255
# Shear Modulus (GPa) = -3.80558 15.53935 5.86689
#
# Velocity S-wave (km/s) = -1.39325 2.81537 1.72991
# Velocity P-wave (km/s) = 3.92758 6.10495 5.13304
#
# Compressibility (1/GPa) = 0.02831551
#
# Stress axis : x y z
#
# Youngs Moduli (GPa) = 137.45426 64.59461 47.48277
#
# Poissons Ratio (x) = 0.29254 0.09325
# Poissons Ratio (y) = 0.62251 0.05972
# Poissons Ratio (z) = 0.26994 0.08125
#
# Static dielectric constant tensor:
#      x y z
#    x 1.746060 0.000000 0.000000 
#    y 0.000000 1.656100 0.000000 
#    z 0.000000 0.000000 1.720200 
# 
# From -- ./inp_files/26413.got.cif
#   From: 2010.05.17/outbox.cif.g08.bks.cpg/sg74_14_cif.got.tgz:26413.got - 2010.06.03 17:57:02.
