data_PCOD9536875
_publ_section_title
;
Structure prediction by ZEFSAII (Michael W. Deem and Ramdas Pophale) SiO2 
 PCOD9536875
Probable space group: I M M A
;
_chemical_formula_sum "Si O2"
_cell_formula_units_Z 80
_cell_length_a 25.969127
_cell_length_b 24.592412
_cell_length_c 5.808897
_cell_angle_alpha 90.000000
_cell_angle_beta 90.000000
_cell_angle_gamma 90.000000
_cell_volume 3709.814140
_symmetry_space_group_name_H-M "I M M A"
_symmetry_group_IT_number 74
_symmetry_cell_setting 'orthorhombic'
loop_
_space_group_symop_operation_xyz
x,y,z
-x,1/2-y,z
x,-y,-z
-x,1/2+y,-z
-x,-y,-z
x,1/2+y,-z
-x,y,z
x,1/2-y,z
1/2+x,1/2+y,1/2+z
1/2-x,-y,1/2+z
1/2+x,1/2-y,1/2-z
1/2-x,y,1/2-z
1/2-x,1/2-y,1/2-z
1/2+x,y,1/2-z
1/2-x,1/2+y,1/2+z
1/2+x,-y,1/2+z
loop_
_atom_site_type_symbol
_atom_site_label
_atom_site_fract_x
_atom_site_fract_y
_atom_site_fract_z
Si Si1 0.656837 0.868612 0.271356
Si Si2 0.943159 0.864172 0.556034
Si Si3 0.287312 0.555668 0.930006
Si Si4 0.112282 0.552789 0.853143
Si Si5 0.908756 0.250000 0.277420
Si Si6 0.649967 0.250000 0.718309
O O1 0.638730 0.900119 0.495528
O O2 0.677453 0.807932 0.304065
O O3 0.603911 0.864171 0.123227
O O4 0.696591 0.905527 0.134310
O O5 0.938517 0.807195 0.694159
O O6 0.000000 0.866983 0.450450
O O7 0.932579 0.916752 0.715090
O O8 0.250000 0.584749 0.750000
O O9 0.340680 0.536926 0.812662
O O10 0.259218 0.500000 0.000000
O O11 0.097013 0.500000 0.000000
O O12 0.873648 0.250000 0.516849
O O13 0.885606 0.250000 0.016663
#
# Coordination Sequence:
#
# PCOD9536875 Si02
#       6
#    16  16  16  16   8   8
#     4  10  22  40  61  90 127 167 210 263 324 394
#     4  10  22  37  57  88 123 164 214 267 316 376
#     4  11  23  38  64  96 122 156 210 269 326 385
#     4  11  21  38  60  85 122 162 206 256 323 389
#     4  10  19  38  62  92 121 165 225 273 316 370
#     4  10  20  40  66  91 128 174 210 265 326 380
#
# _framework density 21.564423000000001
#
# number of rings (size 3 to 8) (size 9 to 14) (size 15 to 20)
#    0.000    1.600    4.000    0.900    0.000    1.200 
#    0.000    2.500    0.000    1.200    0.000    0.000 
#    0.000    0.000    0.000    0.000    0.000    0.000 
#
# Total GULP energy -223077.782727 kJ/mol
# GULP energy per Si atom -5576.944568 kJ/mol
# Density = 2.151534 g / cm^3
# Si number density = 21.564423 Si / 1000 Ang^3
#
#
#
# Elastic Constant Matrix: (Units=GPa)
#
#
# Indices 1 2 3 4 5 6 
#
# 1 67.6765 6.4305 11.2793 0.0000 0.0000 0.0000
# 2 6.4305 134.9247 13.5094 0.0000 0.0000 0.0000
# 3 11.2793 13.5094 63.0607 0.0000 0.0000 0.0000
# 4 0.0000 0.0000 0.0000 42.2000 0.0000 0.0000
# 5 0.0000 0.0000 0.0000 0.0000 18.5400 0.0000
# 6 0.0000 0.0000 0.0000 0.0000 0.0000 9.8801
#
#
#
# Elastic Compliance Matrix: (Units=1/GPa)
#
#
# Indices 1 2 3 4 5 6 
#
# 1 0.015259 -0.000464 -0.002630 0.000000 0.000000 0.000000
# 2 -0.000464 0.007588 -0.001543 0.000000 0.000000 0.000000
# 3 -0.002630 -0.001543 0.016659 0.000000 0.000000 0.000000
# 4 0.000000 0.000000 0.000000 0.023697 0.000000 0.000000
# 5 0.000000 0.000000 0.000000 0.000000 0.053938 0.000000
# 6 0.000000 0.000000 0.000000 0.000000 0.000000 0.101213
#
#
# Mechanical properties :
#
#
# Convention : Reuss Voigt Hill
#
# Bulk Modulus (GPa) = 33.07692 36.45559 34.76626
# Shear Modulus (GPa) = 21.03466 29.75352 25.39409
#
# Velocity S-wave (km/s) = 3.12658 3.71853 3.43533
# Velocity P-wave (km/s) = 5.32972 5.94800 5.64733
#
# Compressibility (1/GPa) = 0.03023256
#
# Stress axis : x y z
#
# Youngs Moduli (GPa) = 65.53702 131.78518 60.02908
#
# Poissons Ratio (x) = 0.06114 0.15787
# Poissons Ratio (y) = 0.03040 0.09260
# Poissons Ratio (z) = 0.17235 0.20329
#
# Static dielectric constant tensor:
#      x y z
#    x 1.753120 0.000000 0.000000 
#    y 0.000000 1.796920 0.000000 
#    z 0.000000 0.000000 1.861150 
# 
# From -- ./inp_files/4546.got.cif
#   From: 2010.05.17/outbox.cif.g08.bks.cpg/sg74_3_cif.got.tgz:4546.got - 2010.06.03 17:57:02.
