data_PCOD9536747
_publ_section_title
;
Structure prediction by ZEFSAII (Michael W. Deem and Ramdas Pophale) SiO2 
 PCOD9536747
Probable space group: I M M A
;
_chemical_formula_sum "Si O2"
_cell_formula_units_Z 72
_cell_length_a 27.696744
_cell_length_b 8.782923
_cell_length_c 14.994098
_cell_angle_alpha 90.000000
_cell_angle_beta 90.000000
_cell_angle_gamma 90.000000
_cell_volume 3647.439838
_symmetry_space_group_name_H-M "I M M A"
_symmetry_group_IT_number 74
_symmetry_cell_setting 'orthorhombic'
loop_
_space_group_symop_operation_xyz
x,y,z
-x,1/2-y,z
x,-y,-z
-x,1/2+y,-z
-x,-y,-z
x,1/2+y,-z
-x,y,z
x,1/2-y,z
1/2+x,1/2+y,1/2+z
1/2-x,-y,1/2+z
1/2+x,1/2-y,1/2-z
1/2-x,y,1/2-z
1/2-x,1/2-y,1/2-z
1/2+x,y,1/2-z
1/2-x,1/2+y,1/2+z
1/2+x,-y,1/2+z
loop_
_atom_site_type_symbol
_atom_site_label
_atom_site_fract_x
_atom_site_fract_y
_atom_site_fract_z
Si Si1 0.000000 0.566363 0.399859
Si Si2 0.331785 0.567156 0.088689
Si Si3 0.872847 0.069140 0.097233
Si Si4 0.269974 0.430149 0.649230
Si Si5 0.589047 0.933350 0.228465
O O1 0.000000 0.500000 0.500000
O O2 0.046108 0.523449 0.338963
O O3 0.000000 0.750000 0.408541
O O4 0.331633 0.750000 0.084048
O O5 0.276688 0.513845 0.095315
O O6 0.361912 0.525458 0.175885
O O7 0.355083 0.500000 0.000000
O O8 0.874700 0.250000 0.092752
O O9 0.818785 0.016426 0.125793
O O10 0.908386 0.008571 0.174791
O O11 0.883224 0.000000 0.000000
O O12 0.278737 0.250000 0.632351
O O13 0.250000 0.441812 0.750000
O O14 0.587694 0.750000 0.239543
#
# Coordination Sequence:
#
# PCOD9536747 Si02
#       5
#     8  16  16  16  16
#     4  10  22  40  69  98 127 160 193 242 304 362
#     4  10  20  33  54  81 116 156 195 239 291 347
#     4  12  25  40  61  88 119 161 205 253 301 357
#     4  10  19  36  58  82 118 163 200 245 298 348
#     4  10  21  41  62  87 120 158 199 245 301 359
#
# _framework density 19.739872999999999
#
# number of rings (size 3 to 8) (size 9 to 14) (size 15 to 20)
#    0.000    1.556    2.222    3.333    0.000    4.889 
#    0.000    0.556    0.000    0.000    0.000    0.000 
#    0.000    0.000    0.000    0.000    0.000    0.000 
#
# Total GULP energy -201017.471732 kJ/mol
# GULP energy per Si atom -5583.818659 kJ/mol
# Density = 1.969494 g / cm^3
# Si number density = 19.739873 Si / 1000 Ang^3
#
#
#
# Elastic Constant Matrix: (Units=GPa)
#
#
# Indices 1 2 3 4 5 6 
#
# 1 88.1952 35.9806 64.8702 0.0000 0.0000 0.0000
# 2 35.9806 57.4041 56.8260 0.0000 0.0000 0.0000
# 3 64.8702 56.8260 179.7108 0.0000 0.0000 0.0000
# 4 0.0000 0.0000 0.0000 36.9494 0.0000 0.0000
# 5 0.0000 0.0000 0.0000 0.0000 26.1099 0.0000
# 6 0.0000 0.0000 0.0000 0.0000 0.0000 25.6617
#
#
#
# Elastic Compliance Matrix: (Units=1/GPa)
#
#
# Indices 1 2 3 4 5 6 
#
# 1 0.017032 -0.006681 -0.004036 0.000000 0.000000 0.000000
# 2 -0.006681 0.027979 -0.006435 0.000000 0.000000 0.000000
# 3 -0.004036 -0.006435 0.009056 0.000000 0.000000 0.000000
# 4 0.000000 0.000000 0.000000 0.027064 0.000000 0.000000
# 5 0.000000 0.000000 0.000000 0.000000 0.038300 0.000000
# 6 0.000000 0.000000 0.000000 0.000000 0.000000 0.038969
#
#
# Mechanical properties :
#
#
# Convention : Reuss Voigt Hill
#
# Bulk Modulus (GPa) = 50.59897 71.18485 60.89191
# Shear Modulus (GPa) = 25.08894 28.91974 27.00434
#
# Velocity S-wave (km/s) = 3.56895 3.83174 3.70267
# Velocity P-wave (km/s) = 6.53236 7.46432 7.01383
#
# Compressibility (1/GPa) = 0.01976325
#
# Stress axis : x y z
#
# Youngs Moduli (GPa) = 58.71180 35.74168 110.42166
#
# Poissons Ratio (x) = 0.23878 0.44562
# Poissons Ratio (y) = 0.39224 0.71062
# Poissons Ratio (z) = 0.23694 0.23001
#
# Static dielectric constant tensor:
#      x y z
#    x 1.713960 0.000000 0.000000 
#    y 0.000000 1.662910 0.000000 
#    z 0.000000 0.000000 1.727160 
# 
# From -- ./inp_files/29156.got.cif
#   From: 2010.05.17/outbox.cif.g08.bks.cpg/sg74_15_cif.got.tgz:29156.got - 2010.06.03 17:57:02.
