data_PCOD9536389
_publ_section_title
;
Structure prediction by ZEFSAII (Michael W. Deem and Ramdas Pophale) SiO2 
 PCOD9536389
Probable space group: I M M A
;
_chemical_formula_sum "Si O2"
_cell_formula_units_Z 116
_cell_length_a 25.676581
_cell_length_b 7.557440
_cell_length_c 29.780845
_cell_angle_alpha 90.000000
_cell_angle_beta 90.000000
_cell_angle_gamma 90.000000
_cell_volume 5778.949753
_symmetry_space_group_name_H-M "I M M A"
_symmetry_group_IT_number 74
_symmetry_cell_setting 'orthorhombic'
loop_
_space_group_symop_operation_xyz
x,y,z
-x,1/2-y,z
x,-y,-z
-x,1/2+y,-z
-x,-y,-z
x,1/2+y,-z
-x,y,z
x,1/2-y,z
1/2+x,1/2+y,1/2+z
1/2-x,-y,1/2+z
1/2+x,1/2-y,1/2-z
1/2-x,y,1/2-z
1/2-x,1/2-y,1/2-z
1/2+x,y,1/2-z
1/2-x,1/2+y,1/2+z
1/2+x,-y,1/2+z
loop_
_atom_site_type_symbol
_atom_site_label
_atom_site_fract_x
_atom_site_fract_y
_atom_site_fract_z
Si Si1 0.350887 0.962252 0.448295
Si Si2 0.581282 0.046024 0.190338
Si Si3 0.500000 0.250000 0.837321
Si Si4 0.275625 0.464149 0.297416
Si Si5 0.767046 0.537565 0.448640
Si Si6 0.894388 0.537045 0.791452
Si Si7 0.182905 0.455004 0.638812
Si Si8 0.942684 0.459653 0.885296
O O1 0.348311 0.750000 0.442775
O O2 0.292035 0.030774 0.440965
O O3 0.394692 0.032625 0.414526
O O4 0.364833 0.000000 0.500000
O O5 0.562692 0.250000 0.189771
O O6 0.585766 0.984220 0.242322
O O7 0.545046 0.906881 0.165360
O O8 0.638866 0.045325 0.168655
O O9 0.275393 0.250000 0.299581
O O10 0.250000 0.515613 0.250000
O O11 0.335186 0.525956 0.299490
O O12 0.238423 0.532688 0.336341
O O13 0.781305 0.500000 0.500000
O O14 0.765223 0.750000 0.443451
O O15 0.806715 0.471042 0.410950
O O16 0.892635 0.750000 0.790767
O O17 0.929893 0.481609 0.832863
O O18 0.167657 0.250000 0.635681
O O19 0.944540 0.250000 0.894669
O O20 0.000000 0.533377 0.895616
#
# Coordination Sequence:
#
# PCOD9536389 Si02
#       8
#    16  16   4  16  16  16  16  16
#     4   9  18  35  54  77 108 147 191 243 302 362
#     4  11  24  42  63  89 121 160 204 255 299 354
#     4  12  26  44  64  88 118 160 214 244 310 350
#     4  10  19  34  53  77 115 157 193 240 296 360
#     4   9  19  34  56  85 120 151 187 234 292 363
#     4  10  22  37  54  79 114 153 199 247 303 356
#     4  11  21  36  58  90 124 157 200 244 294 362
#     4  10  22  36  53  74 103 146 199 254 306 355
#
# _framework density 20.072851
#
# number of rings (size 3 to 8) (size 9 to 14) (size 15 to 20)
#    0.000    1.931    2.069    1.448    1.931    4.138 
#    0.000    2.759    0.000    0.000    0.000    0.483 
#    0.000    0.000    0.000    0.000    0.000    0.000 
#
# Total GULP energy -323445.694124 kJ/mol
# GULP energy per Si atom -5576.649899 kJ/mol
# Density = 2.002716 g / cm^3
# Si number density = 20.072851 Si / 1000 Ang^3
#
#
#
# Elastic Constant Matrix: (Units=GPa)
#
#
# Indices 1 2 3 4 5 6 
#
# 1 18.6400 5.7122 3.5541 0.0000 0.0000 0.0000
# 2 5.7122 68.8837 -3.9554 0.0000 0.0000 0.0000
# 3 3.5541 -3.9554 88.4040 0.0000 0.0000 0.0000
# 4 0.0000 0.0000 0.0000 12.2674 0.0000 0.0000
# 5 0.0000 0.0000 0.0000 0.0000 23.4795 0.0000
# 6 0.0000 0.0000 0.0000 0.0000 0.0000 4.2696
#
#
#
# Elastic Compliance Matrix: (Units=1/GPa)
#
#
# Indices 1 2 3 4 5 6 
#
# 1 0.055570 -0.004749 -0.002447 0.000000 0.000000 0.000000
# 2 -0.004749 0.014960 0.000860 0.000000 0.000000 0.000000
# 3 -0.002447 0.000860 0.011449 0.000000 0.000000 0.000000
# 4 0.000000 0.000000 0.000000 0.081517 0.000000 0.000000
# 5 0.000000 0.000000 0.000000 0.000000 0.042590 0.000000
# 6 0.000000 0.000000 0.000000 0.000000 0.000000 0.234213
#
#
# Mechanical properties :
#
#
# Convention : Reuss Voigt Hill
#
# Bulk Modulus (GPa) = 14.42814 20.72772 17.57793
# Shear Modulus (GPa) = 10.50262 19.37776 14.94019
#
# Velocity S-wave (km/s) = 2.28989 3.11041 2.73114
# Velocity P-wave (km/s) = 3.76762 4.82164 4.32685
#
# Compressibility (1/GPa) = 0.06930898
#
# Stress axis : x y z
#
# Youngs Moduli (GPa) = 17.99540 66.84309 87.34732
#
# Poissons Ratio (x) = 0.31741 0.21370
# Poissons Ratio (y) = 0.08545 -0.07514
# Poissons Ratio (z) = 0.04403 -0.05750
#
# Static dielectric constant tensor:
#      x y z
#    x 1.721650 0.000000 0.000000 
#    y 0.000000 1.736720 0.000000 
#    z 0.000000 0.000000 1.703200 
# 
# From -- ./inp_files/70867.got.cif
#   From: 2010.05.17/outbox.cif.g08.bks.cpg/sg74_36_cif.got.tgz:70867.got - 2010.06.03 17:57:02.
