data_PCOD9536731
_publ_section_title
;
Structure prediction by ZEFSAII (Michael W. Deem and Ramdas Pophale) SiO2 
 PCOD9536731
Probable space group: I M M A
;
_chemical_formula_sum "Si O2"
_cell_formula_units_Z 112
_cell_length_a 25.362686
_cell_length_b 14.750862
_cell_length_c 13.629208
_cell_angle_alpha 90.000000
_cell_angle_beta 90.000000
_cell_angle_gamma 90.000000
_cell_volume 5098.979484
_symmetry_space_group_name_H-M "I M M A"
_symmetry_group_IT_number 74
_symmetry_cell_setting 'orthorhombic'
loop_
_space_group_symop_operation_xyz
x,y,z
-x,1/2-y,z
x,-y,-z
-x,1/2+y,-z
-x,-y,-z
x,1/2+y,-z
-x,y,z
x,1/2-y,z
1/2+x,1/2+y,1/2+z
1/2-x,-y,1/2+z
1/2+x,1/2-y,1/2-z
1/2-x,y,1/2-z
1/2-x,1/2-y,1/2-z
1/2+x,y,1/2-z
1/2-x,1/2+y,1/2+z
1/2+x,-y,1/2+z
loop_
_atom_site_type_symbol
_atom_site_label
_atom_site_fract_x
_atom_site_fract_y
_atom_site_fract_z
Si Si1 0.370081 0.356100 0.842300
Si Si2 0.940563 0.639555 0.925458
Si Si3 0.764007 0.447758 0.594573
Si Si4 0.939517 0.854771 0.538262
Si Si5 0.837869 0.151563 0.987653
Si Si6 0.596564 0.041718 0.228831
Si Si7 0.703719 0.389370 0.302407
O O1 0.373686 0.250000 0.813274
O O2 0.309207 0.387140 0.856926
O O3 0.396837 0.432709 0.773407
O O4 0.399686 0.365426 0.947518
O O5 0.934159 0.750000 0.909903
O O6 0.895951 0.609415 0.003635
O O7 0.931498 0.585347 0.823698
O O8 0.000000 0.624859 0.959737
O O9 0.787723 0.500000 0.500000
O O10 0.712247 0.393303 0.561293
O O11 0.736087 0.524856 0.657172
O O12 0.934221 0.750000 0.573700
O O13 0.928594 0.921909 0.628293
O O14 0.000000 0.866733 0.504226
O O15 0.844003 0.250000 0.942951
O O16 0.821772 0.154860 0.102319
O O17 0.655983 0.081595 0.233204
O O18 0.750000 0.336890 0.250000
#
# Coordination Sequence:
#
# PCOD9536731 Si02
#       7
#    16  16  16  16  16  16  16
#     4  11  23  36  52  76 109 152 197 232 265 319
#     4   9  18  34  58  88 115 139 175 225 284 343
#     4  10  19  36  56  75 109 148 186 224 274 329
#     4  10  22  38  57  83 111 142 185 233 279 332
#     4   9  19  33  54  83 112 142 178 226 281 332
#     4  11  20  34  55  79 110 147 185 222 279 329
#     4  10  20  34  53  77 111 147 181 223 272 332
#
# _framework density 21.965178999999999
#
# number of rings (size 3 to 8) (size 9 to 14) (size 15 to 20)
#    0.000    2.000    1.429    2.571    2.000    3.714 
#    0.000    2.143    0.000   11.571    0.000    0.000 
#    0.000    4.571    0.000    0.000    0.000    0.000 
#
# Total GULP energy -312438.815376 kJ/mol
# GULP energy per Si atom -5579.264560 kJ/mol
# Density = 2.191519 g / cm^3
# Si number density = 21.965179 Si / 1000 Ang^3
#
#
#
# Elastic Constant Matrix: (Units=GPa)
#
#
# Indices 1 2 3 4 5 6 
#
# 1 133.7175 33.8096 6.1743 0.0000 0.0000 0.0000
# 2 33.8096 129.1071 13.5994 0.0000 0.0000 0.0000
# 3 6.1743 13.5994 23.0039 0.0000 0.0000 0.0000
# 4 0.0000 0.0000 0.0000 25.2457 0.0000 0.0000
# 5 0.0000 0.0000 0.0000 0.0000 12.8957 0.0000
# 6 0.0000 0.0000 0.0000 0.0000 0.0000 35.2470
#
#
#
# Elastic Compliance Matrix: (Units=1/GPa)
#
#
# Indices 1 2 3 4 5 6 
#
# 1 0.008029 -0.002000 -0.000973 0.000000 0.000000 0.000000
# 2 -0.002000 0.008758 -0.004641 0.000000 0.000000 0.000000
# 3 -0.000973 -0.004641 0.046475 0.000000 0.000000 0.000000
# 4 0.000000 0.000000 0.000000 0.039611 0.000000 0.000000
# 5 0.000000 0.000000 0.000000 0.000000 0.077545 0.000000
# 6 0.000000 0.000000 0.000000 0.000000 0.000000 0.028371
#
#
# Mechanical properties :
#
#
# Convention : Reuss Voigt Hill
#
# Bulk Modulus (GPa) = 20.81790 43.66613 32.24201
# Shear Modulus (GPa) = 20.83084 30.16068 25.49576
#
# Velocity S-wave (km/s) = 3.08288 3.70957 3.41065
# Velocity P-wave (km/s) = 4.70855 6.18634 5.49733
#
# Compressibility (1/GPa) = 0.04803559
#
# Stress axis : x y z
#
# Youngs Moduli (GPa) = 124.54713 114.17971 21.51678
#
# Poissons Ratio (x) = 0.22838 0.02093
# Poissons Ratio (y) = 0.24911 0.09985
# Poissons Ratio (z) = 0.12113 0.52988
#
# Static dielectric constant tensor:
#      x y z
#    x 1.879730 0.000000 0.000000 
#    y 0.000000 1.911440 0.000000 
#    z 0.000000 0.000000 1.815520 
# 
# From -- ./inp_files/32882.got.cif
#   From: 2010.05.17/outbox.cif.g08.bks.cpg/sg74_17_cif.got.tgz:32882.got - 2010.06.03 17:57:02.
