data_PCOD9536694
_publ_section_title
;
Structure prediction by ZEFSAII (Michael W. Deem and Ramdas Pophale) SiO2 
 PCOD9536694
Probable space group: I M M A
;
_chemical_formula_sum "Si O2"
_cell_formula_units_Z 116
_cell_length_a 15.626450
_cell_length_b 16.175982
_cell_length_c 23.521177
_cell_angle_alpha 90.000000
_cell_angle_beta 90.000000
_cell_angle_gamma 90.000000
_cell_volume 5945.522565
_symmetry_space_group_name_H-M "I M M A"
_symmetry_group_IT_number 74
_symmetry_cell_setting 'orthorhombic'
loop_
_space_group_symop_operation_xyz
x,y,z
-x,1/2-y,z
x,-y,-z
-x,1/2+y,-z
-x,-y,-z
x,1/2+y,-z
-x,y,z
x,1/2-y,z
1/2+x,1/2+y,1/2+z
1/2-x,-y,1/2+z
1/2+x,1/2-y,1/2-z
1/2-x,y,1/2-z
1/2-x,1/2-y,1/2-z
1/2+x,y,1/2-z
1/2-x,1/2+y,1/2+z
1/2+x,-y,1/2+z
loop_
_atom_site_type_symbol
_atom_site_label
_atom_site_fract_x
_atom_site_fract_y
_atom_site_fract_z
Si Si1 0.404265 0.034470 0.563793
Si Si2 0.274785 0.404641 0.912579
Si Si3 0.598932 0.519069 0.763884
Si Si4 0.000000 0.250000 0.165840
Si Si5 0.095487 0.151712 0.491131
Si Si6 0.331067 0.341075 0.792240
Si Si7 0.174253 0.909835 0.623387
Si Si8 0.357571 0.393997 0.346345
O O1 0.500000 0.069079 0.571082
O O2 0.326436 0.096958 0.575297
O O3 0.395752 0.000000 0.500000
O O4 0.392854 0.956730 0.605878
O O5 0.299902 0.352322 0.857191
O O6 0.296853 0.499458 0.897896
O O7 0.332271 0.381595 0.966490
O O8 0.500000 0.530864 0.749239
O O9 0.614831 0.422629 0.777445
O O10 0.623026 0.573368 0.818791
O O11 0.653285 0.550403 0.710380
O O12 0.075175 0.322137 0.164432
O O13 0.093946 0.250000 0.497531
O O14 0.119464 0.130012 0.426545
O O15 0.000000 0.119189 0.505010
O O16 0.372047 0.250000 0.786170
O O17 0.250000 0.343490 0.750000
O O18 0.263490 0.863590 0.635337
#
# Coordination Sequence:
#
# PCOD9536694 Si02
#       8
#    16  16  16   4  16  16  16  16
#     4  10  19  35  60  89 118 156 209 251 301 379
#     4  10  20  37  62  86 117 160 205 251 313 385
#     4  11  21  39  63  89 123 163 214 261 312 392
#     4  12  24  40  64  96 124 168 206 268 304 380
#     4  11  24  41  59  87 124 162 206 265 319 371
#     4  10  21  37  60  90 122 160 207 265 323 379
#     4  10  22  39  62  87 117 162 209 251 318 376
#     4  11  22  41  62  92 125 162 208 254 318 378
#
# _framework density 19.510480000000001
#
# number of rings (size 3 to 8) (size 9 to 14) (size 15 to 20)
#    0.000    1.517    1.379    5.793    0.966    3.586 
#    1.241    0.690    0.000    2.483    0.000    0.000 
#    0.000    0.000    0.000    0.000    0.000    0.000 
#
# Total GULP energy -323363.955542 kJ/mol
# GULP energy per Si atom -5575.240613 kJ/mol
# Density = 1.946607 g / cm^3
# Si number density = 19.510480 Si / 1000 Ang^3
#
#
#
# Elastic Constant Matrix: (Units=GPa)
#
#
# Indices 1 2 3 4 5 6 
#
# 1 88.3465 23.8849 11.2062 0.0000 0.0000 0.0000
# 2 23.8849 69.3835 19.3446 0.0000 0.0000 0.0000
# 3 11.2062 19.3446 105.3375 0.0000 0.0000 0.0000
# 4 0.0000 0.0000 0.0000 -242.5419 0.0000 0.0000
# 5 0.0000 0.0000 0.0000 0.0000 7.8052 0.0000
# 6 0.0000 0.0000 0.0000 0.0000 0.0000 21.0803
#
#
#
# Elastic Compliance Matrix: (Units=1/GPa)
#
#
# Indices 1 2 3 4 5 6 
#
# 1 0.012513 -0.004149 -0.000569 0.000000 0.000000 0.000000
# 2 -0.004149 0.016566 -0.002601 0.000000 0.000000 0.000000
# 3 -0.000569 -0.002601 0.010031 0.000000 0.000000 0.000000
# 4 0.000000 0.000000 0.000000 -0.004123 0.000000 0.000000
# 5 0.000000 0.000000 0.000000 0.000000 0.128119 0.000000
# 6 0.000000 0.000000 0.000000 0.000000 0.000000 0.047438
#
#
# Mechanical properties :
#
#
# Convention : Reuss Voigt Hill
#
# Bulk Modulus (GPa) = 40.86213 41.32652 41.09433
# Shear Modulus (GPa) = 21.42799 -28.82248 -3.69725
#
# Velocity S-wave (km/s) = 3.31763 -3.84771 -1.37809
# Velocity P-wave (km/s) = 5.97199 1.21977 4.31002
#
# Compressibility (1/GPa) = 0.02447254
#
# Stress axis : x y z
#
# Youngs Moduli (GPa) = 79.91737 60.36466 99.68612
#
# Poissons Ratio (x) = 0.25044 0.05675
# Poissons Ratio (y) = 0.33156 0.25927
# Poissons Ratio (z) = 0.04549 0.15700
#
# Static dielectric constant tensor:
#      x y z
#    x 1.702020 0.000000 0.000000 
#    y 0.000000 1.664860 0.000000 
#    z 0.000000 0.000000 1.673240 
# 
# From -- ./inp_files/60372.got.cif
#   From: 2010.05.17/outbox.cif.g08.bks.cpg/sg74_31_cif.got.tgz:60372.got - 2010.06.03 17:57:02.
