data_PCOD9536851
_publ_section_title
;
Structure prediction by ZEFSAII (Michael W. Deem and Ramdas Pophale) SiO2 
 PCOD9536851
Probable space group: I M M A
;
_chemical_formula_sum "Si O2"
_cell_formula_units_Z 100
_cell_length_a 7.628068
_cell_length_b 28.670205
_cell_length_c 20.203077
_cell_angle_alpha 90.000000
_cell_angle_beta 90.000000
_cell_angle_gamma 90.000000
_cell_volume 4418.378056
_symmetry_space_group_name_H-M "I M M A"
_symmetry_group_IT_number 74
_symmetry_cell_setting 'orthorhombic'
loop_
_space_group_symop_operation_xyz
x,y,z
-x,1/2-y,z
x,-y,-z
-x,1/2+y,-z
-x,-y,-z
x,1/2+y,-z
-x,y,z
x,1/2-y,z
1/2+x,1/2+y,1/2+z
1/2-x,-y,1/2+z
1/2+x,1/2-y,1/2-z
1/2-x,y,1/2-z
1/2-x,1/2-y,1/2-z
1/2+x,y,1/2-z
1/2-x,1/2+y,1/2+z
1/2+x,-y,1/2+z
loop_
_atom_site_type_symbol
_atom_site_label
_atom_site_fract_x
_atom_site_fract_y
_atom_site_fract_z
Si Si1 0.790374 0.511633 0.322416
Si Si2 0.289433 0.803932 0.324316
Si Si3 0.208981 0.151783 0.960610
Si Si4 0.500000 0.250000 0.146615
Si Si5 0.288764 0.454344 0.959698
Si Si6 0.202379 0.317317 0.099010
Si Si7 0.791041 0.594937 0.675632
O O1 0.750000 0.530399 0.250000
O O2 0.724090 0.540308 0.384382
O O3 0.725264 0.458335 0.328159
O O4 0.000000 0.509422 0.327503
O O5 0.500000 0.802786 0.329047
O O6 0.226044 0.750000 0.328249
O O7 0.250000 0.821758 0.250000
O O8 0.222932 0.832847 0.388154
O O9 0.245552 0.098180 0.979240
O O10 0.000000 0.156921 0.958627
O O11 0.265803 0.183665 0.022512
O O12 0.343781 0.289897 0.141945
O O13 0.500000 0.457059 0.961736
O O14 0.225607 0.500000 0.000000
O O15 0.206460 0.370385 0.124068
O O16 0.000000 0.301477 0.103579
O O17 0.750000 0.611318 0.750000
O O18 0.000000 0.594389 0.665008
#
# Coordination Sequence:
#
# PCOD9536851 Si02
#       7
#    16  16  16   4  16  16  16
#     4   9  19  34  56  86 118 159 203 250 300 360
#     4   9  19  38  59  84 116 153 197 249 302 358
#     4  10  23  39  60  88 120 161 200 254 313 366
#     4  12  26  44  66  94 122 164 202 262 318 374
#     4  10  21  37  57  83 119 156 199 250 305 360
#     4  11  24  43  65  93 126 159 208 257 312 374
#     4  10  19  37  64  91 123 163 209 254 307 370
#
# _framework density 22.632739999999998
#
# number of rings (size 3 to 8) (size 9 to 14) (size 15 to 20)
#    0.000    2.080    0.800    1.680    2.240    4.160 
#    0.000    3.600    0.000    0.000    0.000    0.000 
#    0.000    0.000    0.000    0.000    0.000    0.000 
#
# Total GULP energy -278651.801561 kJ/mol
# GULP energy per Si atom -5573.036031 kJ/mol
# Density = 2.258123 g / cm^3
# Si number density = 22.632740 Si / 1000 Ang^3
#
#
#
# Elastic Constant Matrix: (Units=GPa)
#
#
# Indices 1 2 3 4 5 6 
#
# 1 74.6377 -0.8602 -1.3972 0.0000 0.0000 0.0000
# 2 -0.8602 42.0533 10.4294 0.0000 0.0000 0.0000
# 3 -1.3972 10.4294 63.9274 -0.0001 0.0000 0.0000
# 4 0.0000 0.0000 -0.0001 -32.1513 0.0000 0.0000
# 5 0.0000 0.0000 0.0000 0.0000 17.1359 0.0000
# 6 0.0000 0.0000 0.0000 0.0000 0.0000 -19.7913
#
#
#
# Elastic Compliance Matrix: (Units=1/GPa)
#
#
# Indices 1 2 3 4 5 6 
#
# 1 0.013405 0.000210 0.000259 0.000000 0.000000 0.000000
# 2 0.000210 0.024785 -0.004039 0.000000 0.000000 0.000000
# 3 0.000259 -0.004039 0.016307 0.000000 0.000000 0.000000
# 4 0.000000 0.000000 0.000000 -0.031103 0.000000 0.000000
# 5 0.000000 0.000000 0.000000 0.000000 0.058357 0.000000
# 6 0.000000 0.000000 0.000000 0.000000 0.000000 -0.050527
#
#
# Mechanical properties :
#
#
# Convention : Reuss Voigt Hill
#
# Bulk Modulus (GPa) = 21.11597 21.88471 21.50034
# Shear Modulus (GPa) = 92.33441 4.53510 48.43475
#
# Velocity S-wave (km/s) = 6.39417 1.41708 4.63107
# Velocity P-wave (km/s) = 7.99149 3.51682 6.17381
#
# Compressibility (1/GPa) = 0.04735752
#
# Stress axis : x y z
#
# Youngs Moduli (GPa) = 74.59724 40.34644 61.32211
#
# Poissons Ratio (x) = -0.00847 -0.01587
# Poissons Ratio (y) = -0.01567 0.24768
# Poissons Ratio (z) = -0.01930 0.16296
#
# Static dielectric constant tensor:
#      x y z
#    x 1.788900 0.000000 0.000000 
#    y 0.000000 1.815710 0.000000 
#    z 0.000000 0.000000 1.893400 
# 
# From -- ./inp_files/49300.got.cif
#   From: 2010.05.17/outbox.cif.g08.bks.cpg/sg74_25_cif.got.tgz:49300.got - 2010.06.03 17:57:02.
