data_PCOD9536856
_publ_section_title
;
Structure prediction by ZEFSAII (Michael W. Deem and Ramdas Pophale) SiO2 
 PCOD9536856
Probable space group: I M M A
;
_chemical_formula_sum "Si O2"
_cell_formula_units_Z 48
_cell_length_a 17.034346
_cell_length_b 14.363680
_cell_length_c 7.985337
_cell_angle_alpha 90.000000
_cell_angle_beta 90.000000
_cell_angle_gamma 90.000000
_cell_volume 1953.819477
_symmetry_space_group_name_H-M "I M M A"
_symmetry_group_IT_number 74
_symmetry_cell_setting 'orthorhombic'
loop_
_space_group_symop_operation_xyz
x,y,z
-x,1/2-y,z
x,-y,-z
-x,1/2+y,-z
-x,-y,-z
x,1/2+y,-z
-x,y,z
x,1/2-y,z
1/2+x,1/2+y,1/2+z
1/2-x,-y,1/2+z
1/2+x,1/2-y,1/2-z
1/2-x,y,1/2-z
1/2-x,1/2-y,1/2-z
1/2+x,y,1/2-z
1/2-x,1/2+y,1/2+z
1/2+x,-y,1/2+z
loop_
_atom_site_type_symbol
_atom_site_label
_atom_site_fract_x
_atom_site_fract_y
_atom_site_fract_z
Si Si1 0.094074 0.250000 0.604563
Si Si2 0.412066 0.438505 0.333500
Si Si3 0.690548 0.574954 0.113584
Si Si4 0.904911 0.250000 0.009559
O O1 0.139284 0.158621 0.539017
O O2 0.000000 0.250000 0.573620
O O3 0.105962 0.250000 0.808462
O O4 0.419874 0.500000 0.500000
O O5 0.500000 0.418795 0.268974
O O6 0.368382 0.503558 0.203562
O O7 0.374760 0.341840 0.396644
O O8 0.750000 0.615174 0.250000
O O9 0.736742 0.500000 0.000000
O O10 0.000000 0.250000 0.025569
#
# Coordination Sequence:
#
# PCOD9536856 Si02
#       4
#     8  16  16   8
#     4  11  23  44  74 100 128 175 227 279 336 392
#     4  10  19  37  65  96 129 170 222 275 327 392
#     4  12  27  45  65  98 138 182 221 274 335 402
#     4   9  18  34  66 101 126 164 215 271 328 390
#
# _framework density 24.567264000000002
#
# number of rings (size 3 to 8) (size 9 to 14) (size 15 to 20)
#    0.000    1.333    3.333    2.500    0.000    4.000 
#    0.000    3.333    0.000    0.000    0.000    0.000 
#    0.000    0.000    0.000    0.000    0.000    0.000 
#
# Total GULP energy -134197.650357 kJ/mol
# GULP energy per Si atom -5591.568765 kJ/mol
# Density = 2.451135 g / cm^3
# Si number density = 24.567264 Si / 1000 Ang^3
#
#
#
# Elastic Constant Matrix: (Units=GPa)
#
#
# Indices 1 2 3 4 5 6 
#
# 1 82.7360 33.3262 -2.8662 0.0000 0.0000 0.0000
# 2 33.3262 189.2134 10.4092 0.0000 0.0000 0.0000
# 3 -2.8662 10.4092 19.9443 0.0000 0.0000 0.0000
# 4 0.0000 0.0000 0.0000 39.4032 0.0000 0.0000
# 5 0.0000 0.0000 0.0000 0.0000 23.2181 0.0000
# 6 0.0000 0.0000 0.0000 0.0000 0.0000 40.3574
#
#
#
# Elastic Compliance Matrix: (Units=1/GPa)
#
#
# Indices 1 2 3 4 5 6 
#
# 1 0.013205 -0.002502 0.003204 0.000000 0.000000 0.000000
# 2 -0.002502 0.005915 -0.003447 0.000000 0.000000 0.000000
# 3 0.003204 -0.003447 0.052399 0.000000 0.000000 0.000000
# 4 0.000000 0.000000 0.000000 0.025379 0.000000 0.000000
# 5 0.000000 0.000000 0.000000 0.000000 0.043070 0.000000
# 6 0.000000 0.000000 0.000000 0.000000 0.000000 0.024779
#
#
# Mechanical properties :
#
#
# Convention : Reuss Voigt Hill
#
# Bulk Modulus (GPa) = 15.14485 41.51467 28.32976
# Shear Modulus (GPa) = 26.00817 37.33070 31.66943
#
# Velocity S-wave (km/s) = 3.25722 3.90234 3.59429
# Velocity P-wave (km/s) = 4.50822 6.10241 5.36486
#
# Compressibility (1/GPa) = 0.06602905
#
# Stress axis : x y z
#
# Youngs Moduli (GPa) = 75.72615 169.05143 19.08435
#
# Poissons Ratio (x) = 0.42299 -0.06114
# Poissons Ratio (y) = 0.18948 0.06578
# Poissons Ratio (z) = -0.24260 0.58270
#
# Static dielectric constant tensor:
#      x y z
#    x 1.958550 0.000000 0.000000 
#    y 0.000000 1.905480 0.000000 
#    z 0.000000 0.000000 2.120590 
# 
# From -- ./inp_files/8090.got.cif
#   From: 2010.05.17/outbox.cif.g08.bks.cpg/sg74_5_cif.got.tgz:8090.got - 2010.06.03 17:57:02.
