data_PCOD9536722
_publ_section_title
;
Structure prediction by ZEFSAII (Michael W. Deem and Ramdas Pophale) SiO2 
 PCOD9536722
Probable space group: I M M A
;
_chemical_formula_sum "Si O2"
_cell_formula_units_Z 112
_cell_length_a 14.663767
_cell_length_b 27.671866
_cell_length_c 15.084709
_cell_angle_alpha 90.000000
_cell_angle_beta 90.000000
_cell_angle_gamma 90.000000
_cell_volume 6120.979625
_symmetry_space_group_name_H-M "I M M A"
_symmetry_group_IT_number 74
_symmetry_cell_setting 'orthorhombic'
loop_
_space_group_symop_operation_xyz
x,y,z
-x,1/2-y,z
x,-y,-z
-x,1/2+y,-z
-x,-y,-z
x,1/2+y,-z
-x,y,z
x,1/2-y,z
1/2+x,1/2+y,1/2+z
1/2-x,-y,1/2+z
1/2+x,1/2-y,1/2-z
1/2-x,y,1/2-z
1/2-x,1/2-y,1/2-z
1/2+x,y,1/2-z
1/2-x,1/2+y,1/2+z
1/2+x,-y,1/2+z
loop_
_atom_site_type_symbol
_atom_site_label
_atom_site_fract_x
_atom_site_fract_y
_atom_site_fract_z
Si Si1 0.219842 0.454054 0.458386
Si Si2 0.352065 0.303528 0.212228
Si Si3 0.839505 0.996236 0.812057
Si Si4 0.394805 0.694193 0.996867
Si Si5 0.774995 0.622898 0.389985
Si Si6 0.105214 0.603152 0.218716
Si Si7 0.900667 0.909237 0.695009
O O1 0.165817 0.500000 0.500000
O O2 0.303988 0.478484 0.406905
O O3 0.241258 0.419176 0.538987
O O4 0.169755 0.422588 0.382765
O O5 0.391619 0.250000 0.236372
O O6 0.250000 0.302774 0.250000
O O7 0.389080 0.356394 0.238975
O O8 0.362557 0.306703 0.105623
O O9 0.750000 0.004310 0.750000
O O10 0.890955 0.951744 0.766396
O O11 0.890644 0.047015 0.811126
O O12 0.500000 0.676001 0.001613
O O13 0.396309 0.750000 0.024226
O O14 0.324393 0.665530 0.057299
O O15 0.847309 0.606145 0.315202
O O16 0.677411 0.631854 0.343324
O O17 0.000000 0.619451 0.218732
O O18 0.000000 0.910630 0.653368
#
# Coordination Sequence:
#
# PCOD9536722 Si02
#       7
#    16  16  16  16  16  16  16
#     4  11  20  34  57  78 111 151 190 236 285 339
#     4  10  20  35  56  81 113 154 192 234 287 344
#     4  10  19  36  52  76 118 157 188 231 280 340
#     4  10  21  38  63  93 120 149 195 247 294 347
#     4  11  21  38  61  87 116 151 187 249 300 338
#     4  11  22  39  60  84 116 157 199 237 293 361
#     4  11  22  33  52  82 114 151 190 234 286 339
#
# _framework density 18.297723999999999
#
# number of rings (size 3 to 8) (size 9 to 14) (size 15 to 20)
#    0.000    1.429    4.286    3.429    0.000    1.714 
#    0.000    3.571    0.000    1.286    0.000    0.000 
#    0.000    0.000    0.000    0.000    0.000    0.000 
#
# Total GULP energy -311972.927016 kJ/mol
# GULP energy per Si atom -5570.945125 kJ/mol
# Density = 1.825608 g / cm^3
# Si number density = 18.297724 Si / 1000 Ang^3
#
#
#
# Elastic Constant Matrix: (Units=GPa)
#
#
# Indices 1 2 3 4 5 6 
#
# 1 108.1061 19.3676 35.6461 0.0000 0.0000 0.0000
# 2 19.3676 77.9797 1.4020 0.0001 0.0000 -0.0001
# 3 35.6461 1.4020 65.4986 0.0000 0.0000 -0.0001
# 4 0.0000 0.0001 0.0000 24.0121 0.0000 -0.0001
# 5 0.0000 0.0000 0.0000 0.0000 6.6596 0.0000
# 6 0.0000 -0.0001 -0.0001 -0.0001 0.0000 32.2707
#
#
#
# Elastic Compliance Matrix: (Units=1/GPa)
#
#
# Indices 1 2 3 4 5 6 
#
# 1 0.011867 -0.002832 -0.006398 0.000000 0.000000 0.000000
# 2 -0.002832 0.013505 0.001252 0.000000 0.000000 0.000000
# 3 -0.006398 0.001252 0.018723 0.000000 0.000000 0.000000
# 4 0.000000 0.000000 0.000000 0.041646 0.000000 0.000000
# 5 0.000000 0.000000 0.000000 0.000000 0.150159 0.000000
# 6 0.000000 0.000000 0.000000 0.000000 0.000000 0.030988
#
#
# Mechanical properties :
#
#
# Convention : Reuss Voigt Hill
#
# Bulk Modulus (GPa) = 35.53796 40.49065 38.01431
# Shear Modulus (GPa) = 17.11028 25.59974 21.35501
#
# Velocity S-wave (km/s) = 3.06126 3.74447 3.41997
# Velocity P-wave (km/s) = 5.65326 6.39309 6.03452
#
# Compressibility (1/GPa) = 0.02813892
#
# Stress axis : x y z
#
# Youngs Moduli (GPa) = 84.26615 74.04773 53.41152
#
# Poissons Ratio (x) = 0.20973 0.34172
# Poissons Ratio (y) = 0.23867 -0.06689
# Poissons Ratio (z) = 0.53912 -0.09274
#
# Static dielectric constant tensor:
#      x y z
#    x 1.642180 0.000000 0.000000 
#    y 0.000000 1.682320 0.000000 
#    z 0.000000 0.000000 1.636750 
# 
# From -- ./inp_files/32978.got.cif
#   From: 2010.05.17/outbox.cif.g08.bks.cpg/sg74_17_cif.got.tgz:32978.got - 2010.06.03 17:57:02.
