data_PCOD9536860
_publ_section_title
;
Structure prediction by ZEFSAII (Michael W. Deem and Ramdas Pophale) SiO2 
 PCOD9536860
Probable space group: I M M A
;
_chemical_formula_sum "Si O2"
_cell_formula_units_Z 104
_cell_length_a 9.818035
_cell_length_b 21.082453
_cell_length_c 27.633930
_cell_angle_alpha 90.000000
_cell_angle_beta 90.000000
_cell_angle_gamma 90.000000
_cell_volume 5719.899127
_symmetry_space_group_name_H-M "I M M A"
_symmetry_group_IT_number 74
_symmetry_cell_setting 'orthorhombic'
loop_
_space_group_symop_operation_xyz
x,y,z
-x,1/2-y,z
x,-y,-z
-x,1/2+y,-z
-x,-y,-z
x,1/2+y,-z
-x,y,z
x,1/2-y,z
1/2+x,1/2+y,1/2+z
1/2-x,-y,1/2+z
1/2+x,1/2-y,1/2-z
1/2-x,y,1/2-z
1/2-x,1/2-y,1/2-z
1/2+x,y,1/2-z
1/2-x,1/2+y,1/2+z
1/2+x,-y,1/2+z
loop_
_atom_site_type_symbol
_atom_site_label
_atom_site_fract_x
_atom_site_fract_y
_atom_site_fract_z
Si Si1 0.335911 0.677710 0.508161
Si Si2 0.335593 0.496868 0.380105
Si Si3 0.500000 0.676568 0.187448
Si Si4 0.753713 0.906462 0.192156
Si Si5 0.836396 0.150066 0.118414
Si Si6 0.500000 0.679340 0.305482
Si Si7 0.167120 0.750000 0.800323
Si Si8 0.162100 0.061171 0.535811
O O1 0.500000 0.663398 0.503225
O O2 0.314274 0.750000 0.489910
O O3 0.302178 0.677468 0.565653
O O4 0.241701 0.623051 0.484771
O O5 0.500000 0.502320 0.387080
O O6 0.289459 0.525961 0.329245
O O7 0.295987 0.423341 0.382002
O O8 0.249386 0.537496 0.418343
O O9 0.500000 0.750000 0.170521
O O10 0.375183 0.632177 0.173822
O O11 0.500000 0.681090 0.246569
O O12 0.750000 0.910308 0.250000
O O13 0.873062 0.859594 0.177596
O O14 0.793336 0.190278 0.165188
O O15 0.000000 0.151855 0.120660
O O16 0.500000 0.750000 0.323546
O O17 0.250000 0.750000 0.750000
O O18 0.000000 0.750000 0.793037
O O19 0.000000 0.073557 0.544676
O O20 0.168650 0.000000 0.500000
#
# Coordination Sequence:
#
# PCOD9536860 Si02
#       8
#    16  16   8  16  16   8   8  16
#     4  10  19  37  66  93 113 149 207 256 295 354
#     4  11  22  38  61  87 116 158 206 244 290 353
#     4   9  18  32  54  78 103 147 191 231 290 338
#     4  10  20  34  54  83 115 146 191 240 287 344
#     4   9  18  34  61  88 112 152 202 247 291 348
#     4   9  16  32  54  76 103 141 193 241 270 324
#     4  10  20  38  60  90 130 164 202 256 311 362
#     4  11  24  40  60  90 124 156 191 243 308 368
#
# _framework density 18.182138999999999
#
# number of rings (size 3 to 8) (size 9 to 14) (size 15 to 20)
#    0.000    2.000    3.077    0.923    1.077    3.385 
#    0.000    3.077    0.000    0.000    0.000    0.000 
#    0.000    0.000    0.000    0.000    0.000    0.000 
#
# Total GULP energy -289555.100632 kJ/mol
# GULP energy per Si atom -5568.367320 kJ/mol
# Density = 1.814076 g / cm^3
# Si number density = 18.182139 Si / 1000 Ang^3
#
#
#
# Elastic Constant Matrix: (Units=GPa)
#
#
# Indices 1 2 3 4 5 6 
#
# 1 124.2418 60.6689 36.4347 0.0000 0.0000 0.0000
# 2 60.6689 149.4128 45.5027 0.0000 0.0000 0.0000
# 3 36.4347 45.5027 58.6689 0.0000 0.0000 0.0000
# 4 0.0000 0.0000 0.0000 36.4054 0.0000 0.0000
# 5 0.0000 0.0000 0.0000 0.0000 36.0952 0.0000
# 6 0.0000 0.0000 0.0000 0.0000 0.0000 28.1675
#
#
#
# Elastic Compliance Matrix: (Units=1/GPa)
#
#
# Indices 1 2 3 4 5 6 
#
# 1 0.010821 -0.003073 -0.004337 0.000000 0.000000 0.000000
# 2 -0.003073 0.009635 -0.005564 0.000000 0.000000 0.000000
# 3 -0.004337 -0.005564 0.024054 0.000000 0.000000 0.000000
# 4 0.000000 0.000000 0.000000 0.027468 0.000000 0.000000
# 5 0.000000 0.000000 0.000000 0.000000 0.027705 0.000000
# 6 0.000000 0.000000 0.000000 0.000000 0.000000 0.035502
#
#
# Mechanical properties :
#
#
# Convention : Reuss Voigt Hill
#
# Bulk Modulus (GPa) = 53.87493 68.61513 61.24503
# Shear Modulus (GPa) = 29.88262 32.78145 31.33203
#
# Velocity S-wave (km/s) = 4.05843 4.25072 4.15569
# Velocity P-wave (km/s) = 7.18722 7.86836 7.53549
#
# Compressibility (1/GPa) = 0.01856151
#
# Stress axis : x y z
#
# Youngs Moduli (GPa) = 92.41033 103.78407 41.57358
#
# Poissons Ratio (x) = 0.31896 0.18029
# Poissons Ratio (y) = 0.28400 0.23134
# Poissons Ratio (z) = 0.40076 0.57751
#
# Static dielectric constant tensor:
#      x y z
#    x 1.563260 0.000000 0.000000 
#    y 0.000000 1.638520 0.000000 
#    z 0.000000 0.000000 1.657060 
# 
# From -- ./inp_files/70668.got.cif
#   From: 2010.05.17/outbox.cif.g08.bks.cpg/sg74_36_cif.got.tgz:70668.got - 2010.06.03 17:57:02.
