data_PCOD9536104
_publ_section_title
;
Structure prediction by ZEFSAII (Michael W. Deem and Ramdas Pophale) SiO2 
 PCOD9536104
Probable space group: I M M A
;
_chemical_formula_sum "Si O2"
_cell_formula_units_Z 72
_cell_length_a 8.384679
_cell_length_b 19.767277
_cell_length_c 23.797842
_cell_angle_alpha 90.000000
_cell_angle_beta 90.000000
_cell_angle_gamma 90.000000
_cell_volume 3944.308410
_symmetry_space_group_name_H-M "I M M A"
_symmetry_group_IT_number 74
_symmetry_cell_setting 'orthorhombic'
loop_
_space_group_symop_operation_xyz
x,y,z
-x,1/2-y,z
x,-y,-z
-x,1/2+y,-z
-x,-y,-z
x,1/2+y,-z
-x,y,z
x,1/2-y,z
1/2+x,1/2+y,1/2+z
1/2-x,-y,1/2+z
1/2+x,1/2-y,1/2-z
1/2-x,y,1/2-z
1/2-x,1/2-y,1/2-z
1/2+x,y,1/2-z
1/2-x,1/2+y,1/2+z
1/2+x,-y,1/2+z
loop_
_atom_site_type_symbol
_atom_site_label
_atom_site_fract_x
_atom_site_fract_y
_atom_site_fract_z
Si Si1 0.692267 0.866183 0.188830
Si Si2 0.306796 0.522208 0.812476
Si Si3 0.691369 0.250000 0.312400
Si Si4 0.311346 0.863014 0.893575
Si Si5 0.811406 0.250000 0.022448
Si Si6 0.306848 0.750000 0.104541
O O1 0.500000 0.866083 0.189128
O O2 0.750000 0.842739 0.250000
O O3 0.745593 0.815821 0.139877
O O4 0.744891 0.944022 0.181459
O O5 0.500000 0.525190 0.811411
O O6 0.250000 0.545556 0.750000
O O7 0.253404 0.565587 0.867098
O O8 0.500000 0.250000 0.318215
O O9 0.750000 0.250000 0.250000
O O10 0.767957 0.314011 0.342411
O O11 0.500000 0.868699 0.902730
O O12 0.245508 0.818943 0.945850
O O13 0.753946 0.250000 0.958672
O O14 0.000000 0.250000 0.025802
O O15 0.500000 0.750000 0.103015
#
# Coordination Sequence:
#
# PCOD9536104 Si02
#       6
#    16  16   8  16   8   8
#     4   9  18  33  54  82 109 133 163 201 250 303
#     4   9  18  31  50  77 107 136 166 203 249 302
#     4  11  20  29  43  67  97 129 169 212 252 297
#     4  10  19  33  51  70  97 133 170 209 253 299
#     4  11  23  37  53  73  98 131 175 220 256 295
#     4  10  20  36  57  76 101 136 171 208 250 300
#
# _framework density 18.254149999999999
#
# number of rings (size 3 to 8) (size 9 to 14) (size 15 to 20)
#    0.000    2.222    0.000    5.000    0.000    4.444 
#    0.000    1.111    0.000    6.667    0.000    0.000 
#    0.000    0.000    0.000    0.000    0.000    0.000 
#
# Total GULP energy -200534.005772 kJ/mol
# GULP energy per Si atom -5570.389049 kJ/mol
# Density = 1.821260 g / cm^3
# Si number density = 18.254150 Si / 1000 Ang^3
#
#
#
# Elastic Constant Matrix: (Units=GPa)
#
#
# Indices 1 2 3 4 5 6 
#
# 1 19.3024 19.4125 21.2225 0.0000 0.0000 0.0000
# 2 19.4125 102.9671 80.7860 0.0000 0.0000 0.0000
# 3 21.2225 80.7860 167.9435 0.0000 0.0000 0.0000
# 4 0.0000 0.0000 0.0000 -4.1437 0.0000 0.0000
# 5 0.0000 0.0000 0.0000 0.0000 30.8395 0.0000
# 6 0.0000 0.0000 0.0000 0.0000 0.0000 6.5909
#
#
#
# Elastic Compliance Matrix: (Units=1/GPa)
#
#
# Indices 1 2 3 4 5 6 
#
# 1 0.065363 -0.009384 -0.003746 0.000000 0.000000 0.000000
# 2 -0.009384 0.016946 -0.006966 0.000000 0.000000 0.000000
# 3 -0.003746 -0.006966 0.009779 0.000000 0.000000 0.000000
# 4 0.000000 0.000000 0.000000 -0.241330 0.000000 0.000000
# 5 0.000000 0.000000 0.000000 0.000000 0.032426 0.000000
# 6 0.000000 0.000000 0.000000 0.000000 0.000000 0.151725
#
#
# Mechanical properties :
#
#
# Convention : Reuss Voigt Hill
#
# Bulk Modulus (GPa) = 19.26916 59.22834 39.24875
# Shear Modulus (GPa) = 54.11299 17.91013 36.01156
#
# Velocity S-wave (km/s) = 5.45056 3.13574 4.44643
# Velocity P-wave (km/s) = 7.08452 6.75481 6.92162
#
# Compressibility (1/GPa) = 0.05189639
#
# Stress axis : x y z
#
# Youngs Moduli (GPa) = 15.29919 59.00976 102.26517
#
# Poissons Ratio (x) = 0.55376 0.38305
# Poissons Ratio (y) = 0.14357 0.71237
# Poissons Ratio (z) = 0.05730 0.41105
#
# Static dielectric constant tensor:
#      x y z
#    x 1.627260 0.000000 0.000000 
#    y 0.000000 1.657210 0.000000 
#    z 0.000000 0.000000 1.607250 
# 
# From -- ./inp_files/48427.got.cif
#   From: 2010.05.17/outbox.cif.g08.bks.cpg/sg74_25_cif.got.tgz:48427.got - 2010.06.03 17:57:02.
