data_PCOD9536040
_publ_section_title
;
Structure prediction by ZEFSAII (Michael W. Deem and Ramdas Pophale) SiO2 
 PCOD9536040
Probable space group: I M M A
;
_chemical_formula_sum "Si O2"
_cell_formula_units_Z 112
_cell_length_a 15.123844
_cell_length_b 14.606939
_cell_length_c 25.629420
_cell_angle_alpha 90.000000
_cell_angle_beta 90.000000
_cell_angle_gamma 90.000000
_cell_volume 5661.873771
_symmetry_space_group_name_H-M "I M M A"
_symmetry_group_IT_number 74
_symmetry_cell_setting 'orthorhombic'
loop_
_space_group_symop_operation_xyz
x,y,z
-x,1/2-y,z
x,-y,-z
-x,1/2+y,-z
-x,-y,-z
x,1/2+y,-z
-x,y,z
x,1/2-y,z
1/2+x,1/2+y,1/2+z
1/2-x,-y,1/2+z
1/2+x,1/2-y,1/2-z
1/2-x,y,1/2-z
1/2-x,1/2-y,1/2-z
1/2+x,y,1/2-z
1/2-x,1/2+y,1/2+z
1/2+x,-y,1/2+z
loop_
_atom_site_type_symbol
_atom_site_label
_atom_site_fract_x
_atom_site_fract_y
_atom_site_fract_z
Si Si1 0.185171 0.646427 0.903279
Si Si2 0.309015 0.351457 0.197942
Si Si3 0.242283 0.142592 0.981854
Si Si4 0.602481 0.544117 0.411376
Si Si5 0.894720 0.955662 0.299968
Si Si6 0.392062 0.354986 0.695632
Si Si7 0.397232 0.140286 0.905586
O O1 0.147822 0.750000 0.904656
O O2 0.245704 0.639041 0.852223
O O3 0.115871 0.564174 0.904145
O O4 0.242581 0.633987 0.955912
O O5 0.350959 0.250000 0.195524
O O6 0.250000 0.354747 0.250000
O O7 0.373123 0.437532 0.199500
O O8 0.224947 0.250000 0.970003
O O9 0.164355 0.083177 0.956740
O O10 0.333637 0.117319 0.953680
O O11 0.500000 0.565313 0.421550
O O12 0.631221 0.593152 0.357529
O O13 0.860658 0.907829 0.247241
O O14 0.862687 0.908068 0.353096
O O15 0.000000 0.942000 0.299979
O O16 0.500000 0.353970 0.697055
O O17 0.361714 0.250000 0.695182
O O18 0.500000 0.114831 0.914621
O O19 0.394968 0.250000 0.897652
#
# Coordination Sequence:
#
# PCOD9536040 Si02
#       7
#    16  16  16  16  16  16  16
#     4  10  22  39  57  78 107 145 188 233 280 328
#     4  10  21  38  58  77 102 141 186 232 281 331
#     4  10  21  37  57  82 114 150 187 230 279 331
#     4  11  22  36  57  83 113 151 189 229 279 331
#     4  10  19  32  54  83 112 143 180 227 281 331
#     4   9  18  33  53  80 114 147 179 219 271 332
#     4   9  18  34  57  85 116 150 187 226 273 331
#
# _framework density 19.781438000000001
#
# number of rings (size 3 to 8) (size 9 to 14) (size 15 to 20)
#    0.000    2.143    0.000    3.000    0.000    4.286 
#    0.000    2.143    0.000   15.429    0.000    0.000 
#    0.000    0.000    0.000    0.000    0.000    0.000 
#
# Total GULP energy -312759.050975 kJ/mol
# GULP energy per Si atom -5584.983053 kJ/mol
# Density = 1.973641 g / cm^3
# Si number density = 19.781438 Si / 1000 Ang^3
#
#
#
# Elastic Constant Matrix: (Units=GPa)
#
#
# Indices 1 2 3 4 5 6 
#
# 1 35.1636 23.8338 47.4155 0.0000 0.0000 0.0000
# 2 23.8338 91.3981 50.4756 0.0000 0.0000 0.0000
# 3 47.4155 50.4756 143.6778 0.0000 0.0000 0.0000
# 4 0.0000 0.0000 0.0000 4.2915 0.0000 0.0000
# 5 0.0000 0.0000 0.0000 0.0000 14.3706 0.0000
# 6 0.0000 0.0000 0.0000 0.0000 0.0000 29.3809
#
#
#
# Elastic Compliance Matrix: (Units=1/GPa)
#
#
# Indices 1 2 3 4 5 6 
#
# 1 0.053144 -0.005177 -0.015719 0.000000 0.000000 0.000000
# 2 -0.005177 0.014079 -0.003238 0.000000 0.000000 0.000000
# 3 -0.015719 -0.003238 0.013285 0.000000 0.000000 0.000000
# 4 0.000000 0.000000 0.000000 0.233019 0.000000 0.000000
# 5 0.000000 0.000000 0.000000 0.000000 0.069587 0.000000
# 6 0.000000 0.000000 0.000000 0.000000 0.000000 0.034036
#
#
# Mechanical properties :
#
#
# Convention : Reuss Voigt Hill
#
# Bulk Modulus (GPa) = 31.01750 57.07657 44.04704
# Shear Modulus (GPa) = 10.50058 19.50957 15.00507
#
# Velocity S-wave (km/s) = 2.30647 3.14388 2.75715
# Velocity P-wave (km/s) = 4.77569 6.48806 5.69658
#
# Compressibility (1/GPa) = 0.03223986
#
# Stress axis : x y z
#
# Youngs Moduli (GPa) = 18.81684 71.02670 75.27256
#
# Poissons Ratio (x) = 0.36771 1.18324
# Poissons Ratio (y) = 0.09742 0.24371
# Poissons Ratio (z) = 0.29579 0.22996
#
# Static dielectric constant tensor:
#      x y z
#    x 1.678610 0.000000 0.000000 
#    y 0.000000 1.701510 0.000000 
#    z 0.000000 0.000000 1.690200 
# 
# From -- ./inp_files/60091.got.cif
#   From: 2010.05.17/outbox.cif.g08.bks.cpg/sg74_31_cif.got.tgz:60091.got - 2010.06.03 17:57:02.
