data_PCOD9536932
_publ_section_title
;
Structure prediction by ZEFSAII (Michael W. Deem and Ramdas Pophale) SiO2 
 PCOD9536932
Probable space group: I M M A
;
_chemical_formula_sum "Si O2"
_cell_formula_units_Z 80
_cell_length_a 20.312798
_cell_length_b 8.489959
_cell_length_c 19.102842
_cell_angle_alpha 90.000000
_cell_angle_beta 90.000000
_cell_angle_gamma 90.000000
_cell_volume 3294.377221
_symmetry_space_group_name_H-M "I M M A"
_symmetry_group_IT_number 74
_symmetry_cell_setting 'orthorhombic'
loop_
_space_group_symop_operation_xyz
x,y,z
-x,1/2-y,z
x,-y,-z
-x,1/2+y,-z
-x,-y,-z
x,1/2+y,-z
-x,y,z
x,1/2-y,z
1/2+x,1/2+y,1/2+z
1/2-x,-y,1/2+z
1/2+x,1/2-y,1/2-z
1/2-x,y,1/2-z
1/2-x,1/2-y,1/2-z
1/2+x,y,1/2-z
1/2-x,1/2+y,1/2+z
1/2+x,-y,1/2+z
loop_
_atom_site_type_symbol
_atom_site_label
_atom_site_fract_x
_atom_site_fract_y
_atom_site_fract_z
Si Si1 0.886527 0.074894 0.219146
Si Si2 0.744755 0.439486 0.923958
Si Si3 0.392818 0.568445 0.569920
Si Si4 0.672706 0.750000 0.249223
Si Si5 0.116415 0.426769 0.377772
Si Si6 0.074503 0.250000 0.617331
O O1 0.854264 0.250000 0.213997
O O2 0.926323 0.061382 0.146247
O O3 0.913963 0.073653 0.298617
O O4 0.845295 0.915561 0.216565
O O5 0.739268 0.250000 0.918224
O O6 0.820807 0.489309 0.921496
O O7 0.694856 0.531977 0.872475
O O8 0.721371 0.500000 0.000000
O O9 0.424842 0.500000 0.500000
O O10 0.380514 0.750000 0.553959
O O11 0.750000 0.750000 0.250000
O O12 0.627825 0.750000 0.179758
O O13 0.107778 0.250000 0.406193
O O14 0.087218 0.579483 0.417355
O O15 0.000000 0.250000 0.643247
#
# Coordination Sequence:
#
# PCOD9536932 Si02
#       6
#    16  16  16   8  16   8
#     4   9  21  33  49  75 111 146 184 229 279 339
#     4  11  21  33  49  75 107 145 194 242 290 347
#     4  10  20  31  43  69 107 155 192 229 284 347
#     4  10  22  34  56  86 112 148 185 231 288 337
#     4  10  20  37  57  82 107 143 189 238 289 337
#     4  10  22  40  58  86 118 150 191 235 285 347
#
# _framework density 24.283802000000001
#
# number of rings (size 3 to 8) (size 9 to 14) (size 15 to 20)
#    0.000    2.000    1.000    3.600    8.400    0.800 
#    0.000    0.000    0.000    0.600    0.000    0.000 
#    0.000   12.800    1.600    0.000    0.000    0.000 
#
# Total GULP energy -222700.825875 kJ/mol
# GULP energy per Si atom -5567.520647 kJ/mol
# Density = 2.422853 g / cm^3
# Si number density = 24.283802 Si / 1000 Ang^3
#
#
#
# Elastic Constant Matrix: (Units=GPa)
#
#
# Indices 1 2 3 4 5 6 
#
# 1 110.3500 44.4308 16.2540 0.0000 0.0000 0.0000
# 2 44.4308 270.7323 19.0880 0.0000 0.0000 0.0000
# 3 16.2540 19.0880 87.0253 0.0000 0.0000 0.0000
# 4 0.0000 0.0000 0.0000 15.6740 0.0000 0.0000
# 5 0.0000 0.0000 0.0000 0.0000 -28.2088 0.0000
# 6 0.0000 0.0000 0.0000 0.0000 0.0000 0.1865
#
#
#
# Elastic Compliance Matrix: (Units=1/GPa)
#
#
# Indices 1 2 3 4 5 6 
#
# 1 0.009896 -0.001517 -0.001516 0.000000 0.000000 0.000000
# 2 -0.001517 0.003984 -0.000591 0.000000 0.000000 0.000000
# 3 -0.001516 -0.000591 0.011904 0.000000 0.000000 0.000000
# 4 0.000000 0.000000 0.000000 0.063800 0.000000 0.000000
# 5 0.000000 0.000000 0.000000 0.000000 -0.035450 0.000000
# 6 0.000000 0.000000 0.000000 0.000000 0.000000 5.362220
#
#
# Mechanical properties :
#
#
# Convention : Reuss Voigt Hill
#
# Bulk Modulus (GPa) = 53.94511 69.73923 61.84217
# Shear Modulus (GPa) = 0.92085 23.41932 12.17009
#
# Velocity S-wave (km/s) = 0.61646 3.10885 2.24109
# Velocity P-wave (km/s) = 4.77173 6.45503 5.67612
#
# Compressibility (1/GPa) = 0.01853736
#
# Stress axis : x y z
#
# Youngs Moduli (GPa) = 101.04886 250.98381 84.00890
#
# Poissons Ratio (x) = 0.38080 0.12732
# Poissons Ratio (y) = 0.15332 0.04961
# Poissons Ratio (z) = 0.15314 0.14821
#
# Static dielectric constant tensor:
#      x y z
#    x 1.898060 0.000000 0.000000 
#    y 0.000000 1.901340 0.000000 
#    z 0.000000 0.000000 2.054930 
# 
# From -- ./inp_files/54963.got.cif
#   From: 2010.05.17/outbox.cif.g08.bks.cpg/sg74_28_cif.got.tgz:54963.got - 2010.06.03 17:57:02.
