data_PCOD9536275
_publ_section_title
;
Structure prediction by ZEFSAII (Michael W. Deem and Ramdas Pophale) SiO2 
 PCOD9536275
Probable space group: I M M A
;
_chemical_formula_sum "Si O2"
_cell_formula_units_Z 96
_cell_length_a 15.898289
_cell_length_b 14.165825
_cell_length_c 21.298658
_cell_angle_alpha 90.000000
_cell_angle_beta 90.000000
_cell_angle_gamma 90.000000
_cell_volume 4796.721454
_symmetry_space_group_name_H-M "I M M A"
_symmetry_group_IT_number 74
_symmetry_cell_setting 'orthorhombic'
loop_
_space_group_symop_operation_xyz
x,y,z
-x,1/2-y,z
x,-y,-z
-x,1/2+y,-z
-x,-y,-z
x,1/2+y,-z
-x,y,z
x,1/2-y,z
1/2+x,1/2+y,1/2+z
1/2-x,-y,1/2+z
1/2+x,1/2-y,1/2-z
1/2-x,y,1/2-z
1/2-x,1/2-y,1/2-z
1/2+x,y,1/2-z
1/2-x,1/2+y,1/2+z
1/2+x,-y,1/2+z
loop_
_atom_site_type_symbol
_atom_site_label
_atom_site_fract_x
_atom_site_fract_y
_atom_site_fract_z
Si Si1 0.907548 0.635051 0.028461
Si Si2 0.405871 0.139376 0.031165
Si Si3 0.674430 0.461904 0.141938
Si Si4 0.273659 0.638406 0.080539
Si Si5 0.096922 0.858530 0.753685
Si Si6 0.151886 0.637070 0.892106
O O1 0.908767 0.750000 0.029095
O O2 0.822684 0.609785 0.065555
O O3 0.000000 0.603542 0.050566
O O4 0.893066 0.605780 0.956004
O O5 0.500000 0.126212 0.004540
O O6 0.398131 0.250000 0.049556
O O7 0.394089 0.075053 0.092052
O O8 0.332743 0.120713 0.980457
O O9 0.689628 0.572679 0.134700
O O10 0.651317 0.426658 0.210690
O O11 0.758570 0.410715 0.117667
O O12 0.276629 0.750000 0.093276
O O13 0.126083 0.750000 0.744542
O O14 0.102605 0.879476 0.827545
O O15 0.000000 0.863959 0.733885
O O16 0.164129 0.750000 0.898193
#
# Coordination Sequence:
#
# PCOD9536275 Si02
#       6
#    16  16  16  16  16  16
#     4   9  17  33  57  81 111 150 185 225 279 336
#     4  10  20  34  53  78 110 147 185 227 278 337
#     4  12  21  32  54  79 111 150 188 226 279 337
#     4  10  22  38  53  77 113 150 194 239 278 327
#     4  10  21  36  55  83 116 148 185 229 283 347
#     4  10  19  33  55  83 113 143 177 225 282 343
#
# _framework density 20.013670999999999
#
# number of rings (size 3 to 8) (size 9 to 14) (size 15 to 20)
#    0.000    1.833    1.667    3.500    0.000    6.667 
#    0.000    2.500    0.000    2.000    0.000    0.000 
#    0.000    0.000    0.000    0.000    0.000    0.000 
#
# Total GULP energy -268184.720646 kJ/mol
# GULP energy per Si atom -5587.181680 kJ/mol
# Density = 1.996812 g / cm^3
# Si number density = 20.013671 Si / 1000 Ang^3
#
#
#
# Elastic Constant Matrix: (Units=GPa)
#
#
# Indices 1 2 3 4 5 6 
#
# 1 103.0239 24.8789 8.5961 0.0000 0.0000 0.0000
# 2 24.8789 62.2146 36.1974 0.0000 0.0000 0.0000
# 3 8.5961 36.1974 48.2496 0.0000 0.0000 0.0000
# 4 0.0000 0.0000 0.0000 5.1778 0.0000 0.0000
# 5 0.0000 0.0000 0.0000 0.0000 -55.9344 0.0000
# 6 0.0000 0.0000 0.0000 0.0000 0.0000 8.4984
#
#
#
# Elastic Compliance Matrix: (Units=1/GPa)
#
#
# Indices 1 2 3 4 5 6 
#
# 1 0.010893 -0.005726 0.002355 0.000000 0.000000 0.000000
# 2 -0.005726 0.031534 -0.022637 0.000000 0.000000 0.000000
# 3 0.002355 -0.022637 0.037288 0.000000 0.000000 0.000000
# 4 0.000000 0.000000 0.000000 0.193134 0.000000 0.000000
# 5 0.000000 0.000000 0.000000 0.000000 -0.017878 0.000000
# 6 0.000000 0.000000 0.000000 0.000000 0.000000 0.117670
#
#
# Mechanical properties :
#
#
# Convention : Reuss Voigt Hill
#
# Bulk Modulus (GPa) = 36.10201 39.20365 37.65283
# Shear Modulus (GPa) = 11.52371 1.13606 6.32988
#
# Velocity S-wave (km/s) = 2.40217 0.75424 1.78035
# Velocity P-wave (km/s) = 5.07659 4.51547 4.80423
#
# Compressibility (1/GPa) = 0.02769929
#
# Stress axis : x y z
#
# Youngs Moduli (GPa) = 91.80404 31.71225 26.81813
#
# Poissons Ratio (x) = 0.18159 -0.06316
# Poissons Ratio (y) = 0.52569 0.60707
# Poissons Ratio (z) = -0.21622 0.71786
#
# Static dielectric constant tensor:
#      x y z
#    x 1.742420 0.000000 0.000000 
#    y 0.000000 1.727870 0.000000 
#    z 0.000000 0.000000 1.683180 
# 
# From -- ./inp_files/51858.got.cif
#   From: 2010.05.17/outbox.cif.g08.bks.cpg/sg74_26_cif.got.tgz:51858.got - 2010.06.03 17:57:02.
