data_PCOD9536181
_publ_section_title
;
Structure prediction by ZEFSAII (Michael W. Deem and Ramdas Pophale) SiO2 
 PCOD9536181
Probable space group: I M M A
;
_chemical_formula_sum "Si O2"
_cell_formula_units_Z 88
_cell_length_a 28.311893
_cell_length_b 7.600931
_cell_length_c 19.721628
_cell_angle_alpha 90.000000
_cell_angle_beta 90.000000
_cell_angle_gamma 90.000000
_cell_volume 4244.030155
_symmetry_space_group_name_H-M "I M M A"
_symmetry_group_IT_number 74
_symmetry_cell_setting 'orthorhombic'
loop_
_space_group_symop_operation_xyz
x,y,z
-x,1/2-y,z
x,-y,-z
-x,1/2+y,-z
-x,-y,-z
x,1/2+y,-z
-x,y,z
x,1/2-y,z
1/2+x,1/2+y,1/2+z
1/2-x,-y,1/2+z
1/2+x,1/2-y,1/2-z
1/2-x,y,1/2-z
1/2-x,1/2-y,1/2-z
1/2+x,y,1/2-z
1/2-x,1/2+y,1/2+z
1/2+x,-y,1/2+z
loop_
_atom_site_type_symbol
_atom_site_label
_atom_site_fract_x
_atom_site_fract_y
_atom_site_fract_z
Si Si1 0.377874 0.456682 0.197532
Si Si2 0.904434 0.534155 0.846594
Si Si3 0.227289 0.964224 0.677435
Si Si4 0.553657 0.459105 0.924300
Si Si5 0.500000 0.038754 0.420019
Si Si6 0.191216 0.039186 0.079134
O O1 0.370020 0.250000 0.210476
O O2 0.398671 0.525191 0.268586
O O3 0.326490 0.529942 0.177481
O O4 0.413656 0.473890 0.135602
O O5 0.905617 0.750000 0.847618
O O6 0.857606 0.476599 0.887028
O O7 0.952385 0.473927 0.883091
O O8 0.225999 0.750000 0.672107
O O9 0.250000 0.006302 0.750000
O O10 0.262743 0.028000 0.619150
O O11 0.500000 0.529894 0.919475
O O12 0.551631 0.250000 0.917666
O O13 0.571514 0.500000 0.000000
O O14 0.500000 0.250000 0.413299
O O15 0.500000 0.000000 0.500000
O O16 0.190898 0.250000 0.087462
O O17 0.192783 0.000000 0.000000
#
# Coordination Sequence:
#
# PCOD9536181 Si02
#       6
#    16  16  16  16   8  16
#     4  10  19  33  58  86 108 139 181 228 272 318
#     4   9  18  32  53  78 104 138 182 220 259 316
#     4   9  16  31  54  78 105 140 183 221 260 316
#     4  10  22  40  59  81 111 145 179 220 271 329
#     4  10  20  34  50  74 105 138 177 224 265 312
#     4  10  19  33  53  77 105 140 179 218 261 315
#
# _framework density 20.735008000000001
#
# number of rings (size 3 to 8) (size 9 to 14) (size 15 to 20)
#    0.000    2.364    1.818    1.091    1.273    1.818 
#    0.000    4.545    0.000    1.091    0.000    0.000 
#    0.000    0.000    0.000    0.000    0.000    0.000 
#
# Total GULP energy -245671.850767 kJ/mol
# GULP energy per Si atom -5583.451154 kJ/mol
# Density = 2.068781 g / cm^3
# Si number density = 20.735008 Si / 1000 Ang^3
#
#
#
# Elastic Constant Matrix: (Units=GPa)
#
#
# Indices 1 2 3 4 5 6 
#
# 1 186.2747 4.8624 135.6398 0.0000 0.0000 0.0000
# 2 4.8624 40.4521 -10.4816 0.0000 0.0000 0.0000
# 3 135.6398 -10.4816 208.4439 0.0000 0.0000 0.0000
# 4 0.0000 0.0000 0.0000 24.8586 0.0000 0.0000
# 5 0.0000 0.0000 0.0000 0.0000 39.9836 0.0000
# 6 0.0000 0.0000 0.0000 0.0000 0.0000 -13.6903
#
#
#
# Elastic Compliance Matrix: (Units=1/GPa)
#
#
# Indices 1 2 3 4 5 6 
#
# 1 0.010572 -0.003094 -0.007035 0.000000 0.000000 0.000000
# 2 -0.003094 0.025952 0.003318 0.000000 0.000000 0.000000
# 3 -0.007035 0.003318 0.009542 0.000000 0.000000 0.000000
# 4 0.000000 0.000000 0.000000 0.040228 0.000000 0.000000
# 5 0.000000 0.000000 0.000000 0.000000 0.025010 0.000000
# 6 0.000000 0.000000 0.000000 0.000000 0.000000 -0.073045
#
#
# Mechanical properties :
#
#
# Convention : Reuss Voigt Hill
#
# Bulk Modulus (GPa) = 30.82113 77.24578 54.03346
# Shear Modulus (GPa) = 79.75093 30.57371 55.16232
#
# Velocity S-wave (km/s) = 6.20850 3.84408 5.16345
# Velocity P-wave (km/s) = 8.14190 7.55231 7.85264
#
# Compressibility (1/GPa) = 0.03244527
#
# Stress axis : x y z
#
# Youngs Moduli (GPa) = 94.59162 38.53241 104.79900
#
# Poissons Ratio (x) = 0.11920 0.73725
# Poissons Ratio (y) = 0.29262 -0.34773
# Poissons Ratio (z) = 0.66544 -0.12785
#
# Static dielectric constant tensor:
#      x y z
#    x 1.736790 0.000000 0.000000 
#    y 0.000000 1.794840 0.000000 
#    z 0.000000 0.000000 1.702420 
# 
# From -- ./inp_files/47024.got.cif
#   From: 2010.05.17/outbox.cif.g08.bks.cpg/sg74_24_cif.got.tgz:47024.got - 2010.06.03 17:57:02.
