data_PCOD9536066
_publ_section_title
;
Structure prediction by ZEFSAII (Michael W. Deem and Ramdas Pophale) SiO2 
 PCOD9536066
Probable space group: I M M A
;
_chemical_formula_sum "Si O2"
_cell_formula_units_Z 88
_cell_length_a 8.645402
_cell_length_b 22.528913
_cell_length_c 21.291980
_cell_angle_alpha 90.000000
_cell_angle_beta 90.000000
_cell_angle_gamma 90.000000
_cell_volume 4147.071085
_symmetry_space_group_name_H-M "I M M A"
_symmetry_group_IT_number 74
_symmetry_cell_setting 'orthorhombic'
loop_
_space_group_symop_operation_xyz
x,y,z
-x,1/2-y,z
x,-y,-z
-x,1/2+y,-z
-x,-y,-z
x,1/2+y,-z
-x,y,z
x,1/2-y,z
1/2+x,1/2+y,1/2+z
1/2-x,-y,1/2+z
1/2+x,1/2-y,1/2-z
1/2-x,y,1/2-z
1/2-x,1/2-y,1/2-z
1/2+x,y,1/2-z
1/2-x,1/2+y,1/2+z
1/2+x,-y,1/2+z
loop_
_atom_site_type_symbol
_atom_site_label
_atom_site_fract_x
_atom_site_fract_y
_atom_site_fract_z
Si Si1 0.678676 0.681617 0.836974
Si Si2 0.185322 0.750000 0.179175
Si Si3 0.314024 0.492779 0.927011
Si Si4 0.822415 0.063091 0.185793
Si Si5 0.185391 0.138983 0.599590
Si Si6 0.823825 0.180867 0.028997
O O1 0.500000 0.665486 0.824134
O O2 0.704282 0.750000 0.818408
O O3 0.797622 0.633953 0.810639
O O4 0.713866 0.678454 0.911111
O O5 0.250000 0.750000 0.250000
O O6 0.242757 0.809892 0.143588
O O7 0.000000 0.750000 0.179494
O O8 0.500000 0.494895 0.929997
O O9 0.256419 0.542353 0.878755
O O10 0.271438 0.430330 0.893070
O O11 0.259043 0.500000 0.000000
O O12 0.750000 0.037785 0.250000
O O13 0.000000 0.047292 0.183295
O O14 0.244708 0.150051 0.529269
O O15 0.000000 0.144448 0.603406
O O16 0.837073 0.250000 0.011805
O O17 0.000000 0.159339 0.042047
#
# Coordination Sequence:
#
# PCOD9536066 Si02
#       6
#    16   8  16  16  16  16
#     4  10  21  38  62  92 127 168 211 260 317 380
#     4  12  26  44  64  90 128 172 223 282 341 410
#     4  10  23  44  70 100 134 174 222 276 333 400
#     4  12  26  44  67  93 128 172 218 272 328 394
#     4  11  22  38  64  94 127 168 213 266 330 395
#     4  10  19  32  55  90 129 164 202 253 311 371
#
# _framework density 21.219797
#
# number of rings (size 3 to 8) (size 9 to 14) (size 15 to 20)
#    0.000    1.273    0.909    5.182    0.000    6.182 
#    0.000    0.000    0.000    0.000    0.000    0.000 
#    0.000    0.000    0.000    0.000    0.000    0.000 
#
# Total GULP energy -245740.187713 kJ/mol
# GULP energy per Si atom -5585.004266 kJ/mol
# Density = 2.117150 g / cm^3
# Si number density = 21.219797 Si / 1000 Ang^3
#
#
#
# Elastic Constant Matrix: (Units=GPa)
#
#
# Indices 1 2 3 4 5 6 
#
# 1 50.8550 36.0396 13.8476 0.0000 0.0000 0.0000
# 2 36.0396 89.4460 22.4339 0.0000 0.0000 0.0000
# 3 13.8476 22.4339 98.7469 0.0000 0.0000 0.0000
# 4 0.0000 0.0000 0.0000 -1.4574 0.0000 0.0000
# 5 0.0000 0.0000 0.0000 0.0000 31.5117 0.0000
# 6 0.0000 0.0000 0.0000 0.0000 0.0000 16.5291
#
#
#
# Elastic Compliance Matrix: (Units=1/GPa)
#
#
# Indices 1 2 3 4 5 6 
#
# 1 0.027712 -0.010807 -0.001431 0.000000 0.000000 0.000000
# 2 -0.010807 0.016070 -0.002135 0.000000 0.000000 0.000000
# 3 -0.001431 -0.002135 0.010813 0.000000 0.000000 0.000000
# 4 0.000000 0.000000 0.000000 -0.686145 0.000000 0.000000
# 5 0.000000 0.000000 0.000000 0.000000 0.031734 0.000000
# 6 0.000000 0.000000 0.000000 0.000000 0.000000 0.060499
#
#
# Mechanical properties :
#
#
# Convention : Reuss Voigt Hill
#
# Bulk Modulus (GPa) = 38.68756 42.63224 40.65990
# Shear Modulus (GPa) = -9.96106 20.43180 5.23537
#
# Velocity S-wave (km/s) = -2.16897 3.10637 1.57244
# Velocity P-wave (km/s) = 3.46393 5.74460 4.74338
#
# Compressibility (1/GPa) = 0.02584810
#
# Stress axis : x y z
#
# Youngs Moduli (GPa) = 36.08567 62.22871 92.48391
#
# Poissons Ratio (x) = 0.67249 0.13234
# Poissons Ratio (y) = 0.38997 0.19749
# Poissons Ratio (z) = 0.05164 0.13288
#
# Static dielectric constant tensor:
#      x y z
#    x 1.728940 0.000000 0.000000 
#    y 0.000000 1.831740 0.000000 
#    z 0.000000 0.000000 1.823570 
# 
# From -- ./inp_files/48738.got.cif
#   From: 2010.05.17/outbox.cif.g08.bks.cpg/sg74_25_cif.got.tgz:48738.got - 2010.06.03 17:57:02.
