data_PCOD9536183
_publ_section_title
;
Structure prediction by ZEFSAII (Michael W. Deem and Ramdas Pophale) SiO2 
 PCOD9536183
Probable space group: I M M A
;
_chemical_formula_sum "Si O2"
_cell_formula_units_Z 80
_cell_length_a 24.934816
_cell_length_b 15.074771
_cell_length_c 10.916711
_cell_angle_alpha 90.000000
_cell_angle_beta 90.000000
_cell_angle_gamma 90.000000
_cell_volume 4103.445830
_symmetry_space_group_name_H-M "I M M A"
_symmetry_group_IT_number 74
_symmetry_cell_setting 'orthorhombic'
loop_
_space_group_symop_operation_xyz
x,y,z
-x,1/2-y,z
x,-y,-z
-x,1/2+y,-z
-x,-y,-z
x,1/2+y,-z
-x,y,z
x,1/2-y,z
1/2+x,1/2+y,1/2+z
1/2-x,-y,1/2+z
1/2+x,1/2-y,1/2-z
1/2-x,y,1/2-z
1/2-x,1/2-y,1/2-z
1/2+x,y,1/2-z
1/2-x,1/2+y,1/2+z
1/2+x,-y,1/2+z
loop_
_atom_site_type_symbol
_atom_site_label
_atom_site_fract_x
_atom_site_fract_y
_atom_site_fract_z
Si Si1 0.884019 0.641820 0.742949
Si Si2 0.769095 0.401336 0.877563
Si Si3 0.500000 0.604645 0.481649
Si Si4 0.775165 0.602728 0.628458
Si Si5 0.000000 0.851233 0.735623
Si Si6 0.880814 0.355040 0.969301
O O1 0.883672 0.750000 0.739388
O O2 0.837941 0.605937 0.655561
O O3 0.942817 0.608562 0.702953
O O4 0.876317 0.617419 0.886765
O O5 0.750000 0.360128 0.750000
O O6 0.746954 0.502122 0.874546
O O7 0.833144 0.400576 0.894436
O O8 0.743890 0.358243 0.999694
O O9 0.500000 0.500000 0.500000
O O10 0.500000 0.650387 0.615594
O O11 0.558025 0.628104 0.425906
O O12 0.750000 0.646263 0.750000
O O13 0.000000 0.750000 0.690908
O O14 0.871333 0.250000 0.964214
#
# Coordination Sequence:
#
# PCOD9536183 Si02
#       6
#    16  16   8  16   8  16
#     4   9  17  31  56  83 107 138 179 231 276 322
#     4  10  22  34  52  75 112 152 181 225 276 323
#     4  10  20  28  54  83 110 141 180 226 285 329
#     4  10  19  33  53  77 109 141 185 226 272 330
#     4   8  16  32  52  82 114 134 170 232 287 321
#     4  10  20  36  55  79 112 145 186 229 274 331
#
# _framework density 19.495809000000001
#
# number of rings (size 3 to 8) (size 9 to 14) (size 15 to 20)
#    0.000    2.400    2.000    2.100    2.800    3.200 
#    0.000    0.000    0.000    3.600    0.000    2.800 
#    0.000    0.000    0.000    0.000    0.000    0.000 
#
# Total GULP energy -222932.801739 kJ/mol
# GULP energy per Si atom -5573.320043 kJ/mol
# Density = 1.945144 g / cm^3
# Si number density = 19.495809 Si / 1000 Ang^3
#
#
#
# Elastic Constant Matrix: (Units=GPa)
#
#
# Indices 1 2 3 4 5 6 
#
# 1 227.8685 21.9589 55.8309 0.0000 0.0000 0.0000
# 2 21.9589 61.4734 4.0675 0.0000 0.0000 0.0000
# 3 55.8309 4.0675 116.9091 0.0000 0.0000 0.0000
# 4 0.0000 0.0000 0.0000 0.9662 0.0000 0.0000
# 5 0.0000 0.0000 0.0000 0.0000 28.4472 0.0000
# 6 0.0000 0.0000 0.0000 0.0000 0.0000 14.0637
#
#
#
# Elastic Compliance Matrix: (Units=1/GPa)
#
#
# Indices 1 2 3 4 5 6 
#
# 1 0.005137 -0.001676 -0.002395 0.000000 0.000000 0.000000
# 2 -0.001676 0.016852 0.000214 0.000000 0.000000 0.000000
# 3 -0.002395 0.000214 0.009690 0.000000 0.000000 0.000000
# 4 0.000000 0.000000 0.000000 1.035001 0.000000 0.000000
# 5 0.000000 0.000000 0.000000 0.000000 0.035153 0.000000
# 6 0.000000 0.000000 0.000000 0.000000 0.000000 0.071105
#
#
# Mechanical properties :
#
#
# Convention : Reuss Voigt Hill
#
# Bulk Modulus (GPa) = 41.72820 63.32951 52.52886
# Shear Modulus (GPa) = 4.20649 30.32164 17.26407
#
# Velocity S-wave (km/s) = 1.47048 3.94800 2.97901
# Velocity P-wave (km/s) = 4.93287 7.30318 6.23176
#
# Compressibility (1/GPa) = 0.02396461
#
# Stress axis : x y z
#
# Youngs Moduli (GPa) = 194.67339 59.34057 103.20074
#
# Poissons Ratio (x) = 0.09948 0.24714
# Poissons Ratio (y) = 0.32636 -0.02212
# Poissons Ratio (z) = 0.46620 -0.01272
#
# Static dielectric constant tensor:
#      x y z
#    x 1.745790 0.000000 0.000000 
#    y 0.000000 1.672080 0.000000 
#    z 0.000000 0.000000 1.721740 
# 
# From -- ./inp_files/24923.got.cif
#   From: 2010.05.17/outbox.cif.g08.bks.cpg/sg74_13_cif.got.tgz:24923.got - 2010.06.03 17:57:02.
