data_PCOD9536892
_publ_section_title
;
Structure prediction by ZEFSAII (Michael W. Deem and Ramdas Pophale) SiO2 
 PCOD9536892
Probable space group: I M M A
;
_chemical_formula_sum "Si O2"
_cell_formula_units_Z 96
_cell_length_a 18.816802
_cell_length_b 29.874175
_cell_length_c 6.972512
_cell_angle_alpha 90.000000
_cell_angle_beta 90.000000
_cell_angle_gamma 90.000000
_cell_volume 3919.503045
_symmetry_space_group_name_H-M "I M M A"
_symmetry_group_IT_number 74
_symmetry_cell_setting 'orthorhombic'
loop_
_space_group_symop_operation_xyz
x,y,z
-x,1/2-y,z
x,-y,-z
-x,1/2+y,-z
-x,-y,-z
x,1/2+y,-z
-x,y,z
x,1/2-y,z
1/2+x,1/2+y,1/2+z
1/2-x,-y,1/2+z
1/2+x,1/2-y,1/2-z
1/2-x,y,1/2-z
1/2-x,1/2-y,1/2-z
1/2+x,y,1/2-z
1/2-x,1/2+y,1/2+z
1/2+x,-y,1/2+z
loop_
_atom_site_type_symbol
_atom_site_label
_atom_site_fract_x
_atom_site_fract_y
_atom_site_fract_z
Si Si1 0.000000 0.573278 0.215344
Si Si2 0.238743 0.868980 0.520045
Si Si3 0.865435 0.799689 0.614089
Si Si4 0.500000 0.055627 0.289014
Si Si5 0.371497 0.950719 0.003273
Si Si6 0.156724 0.199237 0.923538
Si Si7 0.000000 0.321246 0.875810
Si Si8 0.500000 0.342050 0.200293
O O1 0.070243 0.559379 0.332304
O O2 0.000000 0.547634 0.014020
O O3 0.000000 0.626470 0.179507
O O4 0.250000 0.874385 0.750000
O O5 0.198185 0.821416 0.500991
O O6 0.188682 0.911917 0.480391
O O7 0.308938 0.851843 0.405942
O O8 0.883063 0.750000 0.559611
O O9 0.930801 0.832151 0.583573
O O10 0.848524 0.799810 0.841695
O O11 0.500000 0.108773 0.271832
O O12 0.425909 0.044976 0.180522
O O13 0.336741 0.000000 0.000000
O O14 0.184668 0.250000 0.877553
O O15 0.078107 0.197283 0.829373
O O16 0.000000 0.312849 0.108049
#
# Coordination Sequence:
#
# PCOD9536892 Si02
#       8
#     8  16  16   8  16  16   8   8
#     4  10  23  41  71 103 127 175 227 285 345 402
#     4  10  20  35  59  88 136 180 217 276 337 404
#     4   9  15  25  47  85 124 163 215 264 312 384
#     4  10  19  39  72  94 132 174 222 280 349 404
#     4  11  24  43  67  99 135 175 228 292 346 401
#     4   9  17  31  58  94 130 173 225 272 329 408
#     4   9  18  33  59  91 126 167 218 272 339 402
#     4   9  14  25  48  86 119 166 205 255 322 383
#
# _framework density 24.492902000000001
#
# number of rings (size 3 to 8) (size 9 to 14) (size 15 to 20)
#    0.000    2.333    1.667    2.000    2.333    5.333 
#    0.000    2.500    0.000    5.000    0.000    0.000 
#    0.000    0.000    0.000    0.000    0.000    0.000 
#
# Total GULP energy -267482.627595 kJ/mol
# GULP energy per Si atom -5572.554742 kJ/mol
# Density = 2.443715 g / cm^3
# Si number density = 24.492902 Si / 1000 Ang^3
#
#
#
# Elastic Constant Matrix: (Units=GPa)
#
#
# Indices 1 2 3 4 5 6 
#
# 1 97.1943 66.4236 17.0304 -0.0001 0.0001 0.0000
# 2 66.4236 177.0337 22.5763 0.0000 0.0000 0.0001
# 3 17.0304 22.5763 114.4885 -0.0004 0.0009 0.0006
# 4 -0.0001 0.0000 -0.0004 0.0571 0.0000 0.0002
# 5 0.0001 0.0000 0.0009 0.0000 15.1636 0.0001
# 6 0.0000 0.0001 0.0006 0.0002 0.0001 4.4569
#
#
#
# Elastic Compliance Matrix: (Units=1/GPa)
#
#
# Indices 1 2 3 4 5 6 
#
# 1 0.013963 -0.005103 -0.001071 0.000002 0.000000 0.000000
# 2 -0.005103 0.007659 -0.000751 -0.000005 0.000000 0.000000
# 3 -0.001071 -0.000751 0.009042 0.000062 -0.000001 -0.000001
# 4 0.000002 -0.000005 0.000062 17.525887 0.000039 -0.000666
# 5 0.000000 0.000000 -0.000001 0.000039 0.065947 -0.000002
# 6 0.000000 0.000000 -0.000001 -0.000666 -0.000002 0.224374
#
#
# Mechanical properties :
#
#
# Convention : Reuss Voigt Hill
#
# Bulk Modulus (GPa) = 59.47116 66.75300 63.11208
# Shear Modulus (GPa) = 0.27986 22.78125 11.53055
#
# Velocity S-wave (km/s) = 0.33839 3.05309 2.17208
# Velocity P-wave (km/s) = 4.94837 6.30410 5.66692
#
# Compressibility (1/GPa) = 0.01681487
#
# Stress axis : x y z
#
# Youngs Moduli (GPa) = 71.61543 130.56618 110.59570
#
# Poissons Ratio (x) = 0.66622 0.11844
# Poissons Ratio (y) = 0.36542 0.08309
# Poissons Ratio (z) = 0.07669 0.09809
#
# Static dielectric constant tensor:
#      x y z
#    x 2.196410 0.000000 0.000000 
#    y 0.000000 1.907090 0.000000 
#    z 0.000000 0.000000 2.079660 
# 
# From -- ./inp_files/24316.got.cif
#   From: 2010.05.17/outbox.cif.g08.bks.cpg/sg74_13_cif.got.tgz:24316.got - 2010.06.03 17:57:02.
