data_PCOD9536912
_publ_section_title
;
Structure prediction by ZEFSAII (Michael W. Deem and Ramdas Pophale) SiO2 
 PCOD9536912
Probable space group: I M M A
;
_chemical_formula_sum "Si O2"
_cell_formula_units_Z 88
_cell_length_a 19.656935
_cell_length_b 8.779340
_cell_length_c 28.015575
_cell_angle_alpha 90.000000
_cell_angle_beta 90.000000
_cell_angle_gamma 90.000000
_cell_volume 4834.785495
_symmetry_space_group_name_H-M "I M M A"
_symmetry_group_IT_number 74
_symmetry_cell_setting 'orthorhombic'
loop_
_space_group_symop_operation_xyz
x,y,z
-x,1/2-y,z
x,-y,-z
-x,1/2+y,-z
-x,-y,-z
x,1/2+y,-z
-x,y,z
x,1/2-y,z
1/2+x,1/2+y,1/2+z
1/2-x,-y,1/2+z
1/2+x,1/2-y,1/2-z
1/2-x,y,1/2-z
1/2-x,1/2-y,1/2-z
1/2+x,y,1/2-z
1/2-x,1/2+y,1/2+z
1/2+x,-y,1/2+z
loop_
_atom_site_type_symbol
_atom_site_label
_atom_site_fract_x
_atom_site_fract_y
_atom_site_fract_z
Si Si1 0.646533 0.427164 0.583720
Si Si2 0.691682 0.072657 0.692693
Si Si3 0.328515 0.567730 0.844275
Si Si4 0.500000 0.065921 0.552366
Si Si5 0.283111 0.431002 0.050109
Si Si6 0.922040 0.934101 0.268689
O O1 0.652170 0.250000 0.568099
O O2 0.660845 0.432072 0.639786
O O3 0.570437 0.483651 0.575727
O O4 0.704312 0.521610 0.556985
O O5 0.706992 0.250000 0.703835
O O6 0.633818 0.016755 0.729129
O O7 0.762628 0.984206 0.686809
O O8 0.332322 0.750000 0.843668
O O9 0.317650 0.517838 0.899620
O O10 0.393705 0.495526 0.818813
O O11 0.500000 0.250000 0.552776
O O12 0.500000 0.000000 0.500000
O O13 0.289003 0.250000 0.047613
O O14 0.308225 0.500000 0.000000
O O15 0.921369 0.750000 0.268777
O O16 0.000000 0.982329 0.259184
#
# Coordination Sequence:
#
# PCOD9536912 Si02
#       6
#    16  16  16   8  16  16
#     4   9  18  31  48  70  98 133 171 212 256 302
#     4   9  18  33  54  77 103 137 177 217 256 301
#     4  10  21  36  54  78 108 139 172 213 260 312
#     4  10  20  30  42  62  92 132 172 210 255 300
#     4  10  20  34  53  76 100 128 167 213 259 307
#     4  10  21  35  54  80 108 139 176 217 258 305
#
# _framework density 18.201429000000001
#
# number of rings (size 3 to 8) (size 9 to 14) (size 15 to 20)
#    0.000    2.364    0.000    2.182    1.273    7.636 
#    0.000    0.000    0.000    0.545    0.000    0.000 
#    0.000    0.000    0.000    0.000    0.000    0.000 
#
# Total GULP energy -245353.204933 kJ/mol
# GULP energy per Si atom -5576.209203 kJ/mol
# Density = 1.816000 g / cm^3
# Si number density = 18.201429 Si / 1000 Ang^3
#
#
#
# Elastic Constant Matrix: (Units=GPa)
#
#
# Indices 1 2 3 4 5 6 
#
# 1 59.6572 11.5449 41.1969 0.0000 0.0000 0.0000
# 2 11.5449 15.6133 19.5565 0.0000 0.0000 0.0000
# 3 41.1969 19.5565 104.8795 0.0000 0.0000 0.0000
# 4 0.0000 0.0000 0.0000 25.7858 0.0000 0.0000
# 5 0.0000 0.0000 0.0000 0.0000 13.5519 0.0000
# 6 0.0000 0.0000 0.0000 0.0000 0.0000 8.7365
#
#
#
# Elastic Compliance Matrix: (Units=1/GPa)
#
#
# Indices 1 2 3 4 5 6 
#
# 1 0.023681 -0.007645 -0.007876 0.000000 0.000000 0.000000
# 2 -0.007645 0.086033 -0.013039 0.000000 0.000000 0.000000
# 3 -0.007876 -0.013039 0.015060 0.000000 0.000000 0.000000
# 4 0.000000 0.000000 0.000000 0.038781 0.000000 0.000000
# 5 0.000000 0.000000 0.000000 0.000000 0.073790 0.000000
# 6 0.000000 0.000000 0.000000 0.000000 0.000000 0.114462
#
#
# Mechanical properties :
#
#
# Convention : Reuss Voigt Hill
#
# Bulk Modulus (GPa) = 14.78129 36.08294 25.43211
# Shear Modulus (GPa) = 11.58803 16.80498 14.19650
#
# Velocity S-wave (km/s) = 2.52594 3.04185 2.79582
# Velocity P-wave (km/s) = 4.07992 5.67489 4.94217
#
# Compressibility (1/GPa) = 0.06765308
#
# Stress axis : x y z
#
# Youngs Moduli (GPa) = 42.22794 11.62343 66.40087
#
# Poissons Ratio (x) = 0.08886 0.52300
# Poissons Ratio (y) = 0.32282 0.86583
# Poissons Ratio (z) = 0.33261 0.15156
#
# Static dielectric constant tensor:
#      x y z
#    x 1.591140 0.000000 0.000000 
#    y 0.000000 1.621680 0.000000 
#    z 0.000000 0.000000 1.644190 
# 
# From -- ./inp_files/72982.got.cif
#   From: 2010.05.17/outbox.cif.g08.bks.cpg/sg74_37_cif.got.tgz:72982.got - 2010.06.03 17:57:02.
