data_PCOD9536536
_publ_section_title
;
Structure prediction by ZEFSAII (Michael W. Deem and Ramdas Pophale) SiO2 
 PCOD9536536
Probable space group: I M M A
;
_chemical_formula_sum "Si O2"
_cell_formula_units_Z 96
_cell_length_a 19.524827
_cell_length_b 15.282848
_cell_length_c 15.635092
_cell_angle_alpha 90.000000
_cell_angle_beta 90.000000
_cell_angle_gamma 90.000000
_cell_volume 4665.432703
_symmetry_space_group_name_H-M "I M M A"
_symmetry_group_IT_number 74
_symmetry_cell_setting 'orthorhombic'
loop_
_space_group_symop_operation_xyz
x,y,z
-x,1/2-y,z
x,-y,-z
-x,1/2+y,-z
-x,-y,-z
x,1/2+y,-z
-x,y,z
x,1/2-y,z
1/2+x,1/2+y,1/2+z
1/2-x,-y,1/2+z
1/2+x,1/2-y,1/2-z
1/2-x,y,1/2-z
1/2-x,1/2-y,1/2-z
1/2+x,y,1/2-z
1/2-x,1/2+y,1/2+z
1/2+x,-y,1/2+z
loop_
_atom_site_type_symbol
_atom_site_label
_atom_site_fract_x
_atom_site_fract_y
_atom_site_fract_z
Si Si1 0.920701 0.644010 0.325283
Si Si2 0.322577 0.357388 0.290975
Si Si3 0.672332 0.900491 0.016518
Si Si4 0.421171 0.143063 0.631399
Si Si5 0.423024 0.354983 0.143685
Si Si6 0.323274 0.149091 0.483892
O O1 0.917845 0.750000 0.328996
O O2 0.868501 0.609277 0.395418
O O3 0.903801 0.616136 0.228402
O O4 0.000000 0.619720 0.343659
O O5 0.322233 0.250000 0.292107
O O6 0.250000 0.383666 0.250000
O O7 0.382870 0.386470 0.227711
O O8 0.328864 0.388896 0.388370
O O9 0.621781 0.872674 0.940120
O O10 0.744066 0.850736 0.011732
O O11 0.691191 0.000000 0.000000
O O12 0.500000 0.119000 0.613876
O O13 0.418467 0.250000 0.632783
O O14 0.370289 0.110000 0.558338
O O15 0.500000 0.390426 0.136525
O O16 0.427470 0.250000 0.151131
O O17 0.345908 0.250000 0.475227
#
# Coordination Sequence:
#
# PCOD9536536 Si02
#       6
#    16  16  16  16  16  16
#     4   9  18  35  57  78 105 140 175 217 272 324
#     4   9  16  30  53  77 102 135 173 214 262 310
#     4  12  24  35  50  76 110 144 181 225 265 313
#     4   8  16  32  56  86 111 133 172 225 271 316
#     4  10  20  35  56  81 106 136 177 218 262 323
#     4  10  19  34  58  81 108 143 177 215 265 323
#
# _framework density 20.576868999999999
#
# number of rings (size 3 to 8) (size 9 to 14) (size 15 to 20)
#    0.000    2.333    1.667    3.000    0.000    4.000 
#    0.000    9.167    0.000    0.500    0.000    0.000 
#    0.000    0.000    0.000    0.000    0.000    0.000 
#
# Total GULP energy -267968.824508 kJ/mol
# GULP energy per Si atom -5582.683844 kJ/mol
# Density = 2.053003 g / cm^3
# Si number density = 20.576869 Si / 1000 Ang^3
#
#
#
# Elastic Constant Matrix: (Units=GPa)
#
#
# Indices 1 2 3 4 5 6 
#
# 1 113.6726 -7.6612 102.2743 0.0000 0.0000 0.0000
# 2 -7.6612 29.8520 1.7217 0.0000 0.0000 0.0000
# 3 102.2743 1.7217 194.6288 0.0000 0.0000 0.0000
# 4 0.0000 0.0000 0.0000 -29.4756 0.0000 0.0000
# 5 0.0000 0.0000 0.0000 0.0000 40.1847 0.0000
# 6 0.0000 0.0000 0.0000 0.0000 0.0000 -19.9868
#
#
#
# Elastic Compliance Matrix: (Units=1/GPa)
#
#
# Indices 1 2 3 4 5 6 
#
# 1 0.017400 0.004996 -0.009188 0.000000 0.000000 0.000000
# 2 0.004996 0.034950 -0.002934 0.000000 0.000000 0.000000
# 3 -0.009188 -0.002934 0.009992 0.000000 0.000000 0.000000
# 4 0.000000 0.000000 0.000000 -0.033926 0.000000 0.000000
# 5 0.000000 0.000000 0.000000 0.000000 0.024885 0.000000
# 6 0.000000 0.000000 0.000000 0.000000 0.000000 -0.050033
#
#
# Mechanical properties :
#
#
# Convention : Reuss Voigt Hill
#
# Bulk Modulus (GPa) = 20.79468 58.98033 39.88750
# Shear Modulus (GPa) = 149.02766 14.26570 81.64668
#
# Velocity S-wave (km/s) = 8.51951 2.63589 6.30595
# Velocity P-wave (km/s) = 10.33943 6.16357 8.51156
#
# Compressibility (1/GPa) = 0.04808923
#
# Stress axis : x y z
#
# Youngs Moduli (GPa) = 57.46984 28.61241 100.08000
#
# Poissons Ratio (x) = -0.14294 0.91952
# Poissons Ratio (y) = -0.28709 0.29366
# Poissons Ratio (z) = 0.52802 0.08396
#
# Static dielectric constant tensor:
#      x y z
#    x 1.713580 0.000000 0.000000 
#    y 0.000000 1.785560 0.000000 
#    z 0.000000 0.000000 1.723340 
# 
# From -- ./inp_files/35236.got.cif
#   From: 2010.05.17/outbox.cif.g08.bks.cpg/sg74_18_cif.got.tgz:35236.got - 2010.06.03 17:57:02.
