data_PCOD9536611
_publ_section_title
;
Structure prediction by ZEFSAII (Michael W. Deem and Ramdas Pophale) SiO2 
 PCOD9536611
Probable space group: I M M A
;
_chemical_formula_sum "Si O2"
_cell_formula_units_Z 104
_cell_length_a 21.770105
_cell_length_b 9.154383
_cell_length_c 29.538155
_cell_angle_alpha 90.000000
_cell_angle_beta 90.000000
_cell_angle_gamma 90.000000
_cell_volume 5886.714416
_symmetry_space_group_name_H-M "I M M A"
_symmetry_group_IT_number 74
_symmetry_cell_setting 'orthorhombic'
loop_
_space_group_symop_operation_xyz
x,y,z
-x,1/2-y,z
x,-y,-z
-x,1/2+y,-z
-x,-y,-z
x,1/2+y,-z
-x,y,z
x,1/2-y,z
1/2+x,1/2+y,1/2+z
1/2-x,-y,1/2+z
1/2+x,1/2-y,1/2-z
1/2-x,y,1/2-z
1/2-x,1/2-y,1/2-z
1/2+x,y,1/2-z
1/2-x,1/2+y,1/2+z
1/2+x,-y,1/2+z
loop_
_atom_site_type_symbol
_atom_site_label
_atom_site_fract_x
_atom_site_fract_y
_atom_site_fract_z
Si Si1 0.358377 0.577088 0.885527
Si Si2 0.321796 0.426070 0.796525
Si Si3 0.243042 0.925582 0.951619
Si Si4 0.072839 0.912613 0.457168
Si Si5 0.628713 0.572753 0.401758
Si Si6 0.500000 0.425469 0.549495
Si Si7 0.823016 0.426100 0.804105
O O1 0.363743 0.750000 0.882630
O O2 0.356003 0.504885 0.836725
O O3 0.297197 0.543505 0.915348
O O4 0.412995 0.505503 0.913382
O O5 0.327301 0.250000 0.799430
O O6 0.249611 0.461616 0.804839
O O7 0.342766 0.473753 0.746290
O O8 0.238121 0.750000 0.956576
O O9 0.180590 0.994361 0.931668
O O10 0.255304 0.000000 0.000000
O O11 0.099479 0.750000 0.454443
O O12 0.000000 0.899949 0.463024
O O13 0.098123 0.000000 0.500000
O O14 0.636394 0.750000 0.404137
O O15 0.561502 0.537854 0.421875
O O16 0.641318 0.526668 0.349325
O O17 0.500000 0.250000 0.542966
O O18 0.500000 0.500000 0.500000
O O19 0.826773 0.250000 0.803804
#
# Coordination Sequence:
#
# PCOD9536611 Si02
#       7
#    16  16  16  16  16   8  16
#     4  11  22  34  51  79 110 141 175 215 264 314
#     4   9  16  30  53  79 105 136 174 215 263 317
#     4  11  23  35  49  75 107 138 174 214 262 315
#     4  10  21  37  57  79 104 138 179 217 256 309
#     4  10  19  35  56  77 103 138 178 221 270 321
#     4  10  22  36  54  78 104 138 182 226 271 324
#     4   8  15  29  53  79 102 134 174 216 264 317
#
# _framework density 17.666899999999998
#
# number of rings (size 3 to 8) (size 9 to 14) (size 15 to 20)
#    0.000    2.154    1.538    3.231    0.000    5.846 
#    0.000    2.308    1.692    0.000    0.000    0.000 
#    0.000    0.000    0.000    0.000    0.000    0.000 
#
# Total GULP energy -289930.408835 kJ/mol
# GULP energy per Si atom -5575.584785 kJ/mol
# Density = 1.762669 g / cm^3
# Si number density = 17.666900 Si / 1000 Ang^3
#
#
#
# Elastic Constant Matrix: (Units=GPa)
#
#
# Indices 1 2 3 4 5 6 
#
# 1 49.4009 23.7464 30.5706 0.0000 0.0000 0.0000
# 2 23.7464 35.4649 37.6955 0.0000 0.0000 0.0000
# 3 30.5706 37.6955 157.1890 0.0000 0.0000 0.0000
# 4 0.0000 0.0000 0.0000 28.9826 0.0000 0.0000
# 5 0.0000 0.0000 0.0000 0.0000 43.6867 0.0000
# 6 0.0000 0.0000 0.0000 0.0000 0.0000 -84.4035
#
#
#
# Elastic Compliance Matrix: (Units=1/GPa)
#
#
# Indices 1 2 3 4 5 6 
#
# 1 0.030068 -0.018678 -0.001368 0.000000 0.000000 0.000000
# 2 -0.018678 0.049446 -0.008225 0.000000 0.000000 0.000000
# 3 -0.001368 -0.008225 0.008600 0.000000 0.000000 0.000000
# 4 0.000000 0.000000 0.000000 0.034503 0.000000 0.000000
# 5 0.000000 0.000000 0.000000 0.000000 0.022890 0.000000
# 6 0.000000 0.000000 0.000000 0.000000 0.000000 -0.011848
#
#
# Mechanical properties :
#
#
# Convention : Reuss Voigt Hill
#
# Bulk Modulus (GPa) = 31.67504 47.34220 39.50862
# Shear Modulus (GPa) = 24.90959 7.65599 16.28279
#
# Velocity S-wave (km/s) = 3.75901 2.08397 3.03917
# Velocity P-wave (km/s) = 6.06698 5.71366 5.89297
#
# Compressibility (1/GPa) = 0.03157060
#
# Stress axis : x y z
#
# Youngs Moduli (GPa) = 33.25824 20.22428 116.27444
#
# Poissons Ratio (x) = 0.37775 0.15912
# Poissons Ratio (y) = 0.62120 0.95635
# Poissons Ratio (z) = 0.04551 0.16634
#
# Static dielectric constant tensor:
#      x y z
#    x 1.622550 0.000000 0.000000 
#    y 0.000000 1.597730 0.000000 
#    z 0.000000 0.000000 1.597880 
# 
# From -- ./inp_files/68649.got.cif
#   From: 2010.05.17/outbox.cif.g08.bks.cpg/sg74_35_cif.got.tgz:68649.got - 2010.06.03 17:57:02.
