data_PCOD9536515
_publ_section_title
;
Structure prediction by ZEFSAII (Michael W. Deem and Ramdas Pophale) SiO2 
 PCOD9536515
Probable space group: I M M A
;
_chemical_formula_sum "Si O2"
_cell_formula_units_Z 116
_cell_length_a 14.597140
_cell_length_b 23.573231
_cell_length_c 20.415646
_cell_angle_alpha 90.000000
_cell_angle_beta 90.000000
_cell_angle_gamma 90.000000
_cell_volume 7025.059580
_symmetry_space_group_name_H-M "I M M A"
_symmetry_group_IT_number 74
_symmetry_cell_setting 'orthorhombic'
loop_
_space_group_symop_operation_xyz
x,y,z
-x,1/2-y,z
x,-y,-z
-x,1/2+y,-z
-x,-y,-z
x,1/2+y,-z
-x,y,z
x,1/2-y,z
1/2+x,1/2+y,1/2+z
1/2-x,-y,1/2+z
1/2+x,1/2-y,1/2-z
1/2-x,y,1/2-z
1/2-x,1/2-y,1/2-z
1/2+x,y,1/2-z
1/2-x,1/2+y,1/2+z
1/2+x,-y,1/2+z
loop_
_atom_site_type_symbol
_atom_site_label
_atom_site_fract_x
_atom_site_fract_y
_atom_site_fract_z
Si Si1 0.394587 0.959665 0.681495
Si Si2 0.747503 0.987837 0.925760
Si Si3 0.107099 0.886714 0.587298
Si Si4 0.607714 0.588997 0.275836
Si Si5 0.893907 0.317553 0.545015
Si Si6 0.000000 0.750000 0.759910
Si Si7 0.852846 0.348277 0.266460
Si Si8 0.282881 0.107352 0.856639
O O1 0.500000 0.954498 0.660607
O O2 0.327313 0.962196 0.619682
O O3 0.371585 0.908005 0.729545
O O4 0.384433 0.020570 0.717199
O O5 0.665902 0.942629 0.925840
O O6 0.715995 0.046718 0.893038
O O7 0.777632 0.000000 0.000000
O O8 0.120012 0.843557 0.527152
O O9 0.134723 0.859054 0.656208
O O10 0.000000 0.901238 0.591137
O O11 0.500000 0.603781 0.283271
O O12 0.649799 0.605412 0.205887
O O13 0.678788 0.614288 0.329492
O O14 0.884731 0.250000 0.543832
O O15 0.821915 0.345971 0.594111
O O16 0.000000 0.331157 0.564151
O O17 0.078692 0.800005 0.756688
O O18 0.750000 0.331661 0.250000
#
# Coordination Sequence:
#
# PCOD9536515 Si02
#       8
#    16  16  16  16  16   4  16  16
#     4  10  20  37  58  81 114 151 184 231 291 346
#     4  11  21  35  57  88 117 144 190 237 288 345
#     4  11  22  36  58  83 115 151 189 237 289 350
#     4   9  19  33  57  87 113 143 178 224 285 345
#     4  10  22  37  56  79 112 153 188 225 278 343
#     4  12  26  40  56  86 112 152 214 250 280 348
#     4  12  23  38  60  83 112 155 198 248 294 334
#     4  10  19  34  57  83 114 144 181 231 277 338
#
# _framework density 16.512314
#
# number of rings (size 3 to 8) (size 9 to 14) (size 15 to 20)
#    0.000    1.517    4.138    1.448    2.897    2.759 
#    0.000    1.379    0.000    1.241    0.000    0.000 
#    0.000    0.000    0.000    0.000    0.000    0.000 
#
# Total GULP energy -323153.738570 kJ/mol
# GULP energy per Si atom -5571.616182 kJ/mol
# Density = 1.647473 g / cm^3
# Si number density = 16.512314 Si / 1000 Ang^3
#
#
#
# Elastic Constant Matrix: (Units=GPa)
#
#
# Indices 1 2 3 4 5 6 
#
# 1 149.2374 55.6738 67.2192 0.0000 0.0000 0.0000
# 2 55.6738 60.1078 40.6818 0.0000 0.0000 0.0000
# 3 67.2192 40.6818 100.5621 0.0000 0.0000 0.0000
# 4 0.0000 0.0000 0.0000 5.9007 0.0000 0.0000
# 5 0.0000 0.0000 0.0000 0.0000 15.2294 0.0000
# 6 0.0000 0.0000 0.0000 0.0000 0.0000 31.0457
#
#
#
# Elastic Compliance Matrix: (Units=1/GPa)
#
#
# Indices 1 2 3 4 5 6 
#
# 1 0.011666 -0.007611 -0.004718 0.000000 0.000000 0.000000
# 2 -0.007611 0.027876 -0.006189 0.000000 0.000000 0.000000
# 3 -0.004718 -0.006189 0.015602 0.000000 0.000000 0.000000
# 4 0.000000 0.000000 0.000000 0.169470 0.000000 0.000000
# 5 0.000000 0.000000 0.000000 0.000000 0.065662 0.000000
# 6 0.000000 0.000000 0.000000 0.000000 0.000000 0.032211
#
#
# Mechanical properties :
#
#
# Convention : Reuss Voigt Hill
#
# Bulk Modulus (GPa) = 55.23377 70.78412 63.00895
# Shear Modulus (GPa) = 13.67766 20.19067 16.93417
#
# Velocity S-wave (km/s) = 2.88120 3.50060 3.20589
# Velocity P-wave (km/s) = 6.67765 7.70061 7.20731
#
# Compressibility (1/GPa) = 0.01810487
#
# Stress axis : x y z
#
# Youngs Moduli (GPa) = 85.72279 35.87359 64.09480
#
# Poissons Ratio (x) = 0.27305 0.30243
# Poissons Ratio (y) = 0.65247 0.39669
# Poissons Ratio (z) = 0.40448 0.22203
#
# Static dielectric constant tensor:
#      x y z
#    x 1.521010 0.000000 0.000000 
#    y 0.000000 1.529130 0.000000 
#    z 0.000000 0.000000 1.549350 
# 
# From -- ./inp_files/43191.got.cif
#   From: 2010.05.17/outbox.cif.g08.bks.cpg/sg74_22_cif.got.tgz:43191.got - 2010.06.03 17:57:02.
