data_PCOD9536267
_publ_section_title
;
Structure prediction by ZEFSAII (Michael W. Deem and Ramdas Pophale) SiO2 
 PCOD9536267
Probable space group: I M M A
;
_chemical_formula_sum "Si O2"
_cell_formula_units_Z 96
_cell_length_a 14.299413
_cell_length_b 22.707590
_cell_length_c 15.296923
_cell_angle_alpha 90.000000
_cell_angle_beta 90.000000
_cell_angle_gamma 90.000000
_cell_volume 4966.990559
_symmetry_space_group_name_H-M "I M M A"
_symmetry_group_IT_number 74
_symmetry_cell_setting 'orthorhombic'
loop_
_space_group_symop_operation_xyz
x,y,z
-x,1/2-y,z
x,-y,-z
-x,1/2+y,-z
-x,-y,-z
x,1/2+y,-z
-x,y,z
x,1/2-y,z
1/2+x,1/2+y,1/2+z
1/2-x,-y,1/2+z
1/2+x,1/2-y,1/2-z
1/2-x,y,1/2-z
1/2-x,1/2-y,1/2-z
1/2+x,y,1/2-z
1/2-x,1/2+y,1/2+z
1/2+x,-y,1/2+z
loop_
_atom_site_type_symbol
_atom_site_label
_atom_site_fract_x
_atom_site_fract_y
_atom_site_fract_z
Si Si1 0.802209 0.681444 0.055832
Si Si2 0.606075 0.514523 0.602018
Si Si3 0.200073 0.132346 0.130395
Si Si4 0.852583 0.099614 0.786474
Si Si5 0.600419 0.682723 0.129406
Si Si6 0.108581 0.319918 0.303111
O O1 0.824873 0.750000 0.056692
O O2 0.845588 0.648302 0.137781
O O3 0.690069 0.674812 0.068716
O O4 0.830508 0.652796 0.965177
O O5 0.628157 0.500000 0.500000
O O6 0.500000 0.538515 0.602691
O O7 0.676794 0.563585 0.637048
O O8 0.608310 0.457776 0.665133
O O9 0.141049 0.166799 0.203759
O O10 0.309712 0.147122 0.143325
O O11 0.750000 0.084225 0.750000
O O12 0.898171 0.133528 0.704756
O O13 0.500000 0.679842 0.083206
O O14 0.609329 0.750000 0.166143
O O15 0.116127 0.250000 0.320374
O O16 0.000000 0.337424 0.316766
#
# Coordination Sequence:
#
# PCOD9536267 Si02
#       6
#    16  16  16  16  16  16
#     4  10  19  33  55  82 111 146 190 238 293 349
#     4  11  23  39  58  81 113 155 202 247 286 338
#     4  11  21  38  60  84 118 154 194 240 297 344
#     4  10  20  35  56  82 112 153 193 234 288 346
#     4   9  18  33  54  82 115 146 184 236 290 349
#     4  10  22  40  63  91 119 149 189 240 299 360
#
# _framework density 19.327598999999999
#
# number of rings (size 3 to 8) (size 9 to 14) (size 15 to 20)
#    0.000    1.833    1.667    3.500    2.333    2.667 
#    0.000    1.667    0.000    4.500    0.000    0.000 
#    0.000    0.000    0.000    0.000    0.000    0.000 
#
# Total GULP energy -267713.050918 kJ/mol
# GULP energy per Si atom -5577.355227 kJ/mol
# Density = 1.928361 g / cm^3
# Si number density = 19.327599 Si / 1000 Ang^3
#
#
#
# Elastic Constant Matrix: (Units=GPa)
#
#
# Indices 1 2 3 4 5 6 
#
# 1 62.2742 12.8977 -24.7922 0.0000 0.0000 0.0000
# 2 12.8977 83.2105 -0.0839 0.0001 0.0000 0.0000
# 3 -24.7922 -0.0839 41.4489 0.0001 0.0000 0.0000
# 4 0.0000 0.0001 0.0001 27.6647 0.0000 0.0000
# 5 0.0000 0.0000 0.0000 0.0000 6.4243 0.0000
# 6 0.0000 0.0000 0.0000 0.0000 0.0000 19.4945
#
#
#
# Elastic Compliance Matrix: (Units=1/GPa)
#
#
# Indices 1 2 3 4 5 6 
#
# 1 0.021997 -0.003396 0.013150 0.000000 0.000000 0.000000
# 2 -0.003396 0.012542 -0.002006 0.000000 0.000000 0.000000
# 3 0.013150 -0.002006 0.031988 0.000000 0.000000 0.000000
# 4 0.000000 0.000000 0.000000 0.036147 0.000000 0.000000
# 5 0.000000 0.000000 0.000000 0.000000 0.155658 0.000000
# 6 0.000000 0.000000 0.000000 0.000000 0.000000 0.051296
#
#
# Mechanical properties :
#
#
# Convention : Reuss Voigt Hill
#
# Bulk Modulus (GPa) = 12.19179 18.10852 15.15016
# Shear Modulus (GPa) = 15.55338 23.97751 19.76545
#
# Velocity S-wave (km/s) = 2.83984 3.52601 3.20137
# Velocity P-wave (km/s) = 4.13214 5.09575 4.63903
#
# Compressibility (1/GPa) = 0.08202244
#
# Stress axis : x y z
#
# Youngs Moduli (GPa) = 45.46133 79.73142 31.26200
#
# Poissons Ratio (x) = 0.27079 -0.41110
# Poissons Ratio (y) = 0.15440 0.06271
# Poissons Ratio (z) = -0.59783 0.15994
#
# Static dielectric constant tensor:
#      x y z
#    x 1.703810 0.000000 0.000000 
#    y 0.000000 1.662340 0.000000 
#    z 0.000000 0.000000 1.652020 
# 
# From -- ./inp_files/32347.got.cif
#   From: 2010.05.17/outbox.cif.g08.bks.cpg/sg74_17_cif.got.tgz:32347.got - 2010.06.03 17:57:02.
