data_PCOD9536087
_publ_section_title
;
Structure prediction by ZEFSAII (Michael W. Deem and Ramdas Pophale) SiO2 
 PCOD9536087
Probable space group: I M M A
;
_chemical_formula_sum "Si O2"
_cell_formula_units_Z 72
_cell_length_a 31.069059
_cell_length_b 29.422663
_cell_length_c 5.074160
_cell_angle_alpha 90.000000
_cell_angle_beta 90.000000
_cell_angle_gamma 90.000000
_cell_volume 4638.464474
_symmetry_space_group_name_H-M "I M M A"
_symmetry_group_IT_number 74
_symmetry_cell_setting 'orthorhombic'
loop_
_space_group_symop_operation_xyz
x,y,z
-x,1/2-y,z
x,-y,-z
-x,1/2+y,-z
-x,-y,-z
x,1/2+y,-z
-x,y,z
x,1/2-y,z
1/2+x,1/2+y,1/2+z
1/2-x,-y,1/2+z
1/2+x,1/2-y,1/2-z
1/2-x,y,1/2-z
1/2-x,1/2-y,1/2-z
1/2+x,y,1/2-z
1/2-x,1/2+y,1/2+z
1/2+x,-y,1/2+z
loop_
_atom_site_type_symbol
_atom_site_label
_atom_site_fract_x
_atom_site_fract_y
_atom_site_fract_z
Si Si1 0.218020 0.750000 0.994242
Si Si2 0.094508 0.966579 0.250722
Si Si3 0.175873 0.904048 0.343828
Si Si4 0.500000 0.032923 0.748900
Si Si5 0.250000 0.972050 0.250000
Si Si6 0.199887 0.652767 0.835079
O O1 0.250000 0.750000 0.750000
O O2 0.191623 0.703605 0.947976
O O3 0.250000 0.750000 0.250000
O O4 0.131329 0.929437 0.287423
O O5 0.046765 0.943904 0.241396
O O6 0.095992 0.000000 0.500000
O O7 0.100615 0.000000 0.000000
O O8 0.212603 0.942124 0.385513
O O9 0.175024 0.868009 0.583727
O O10 0.191364 0.879333 0.080540
O O11 0.500000 0.000000 0.500000
O O12 0.500000 0.000000 0.000000
O O13 0.268523 0.000000 0.500000
O O14 0.250000 0.651395 0.750000
#
# Coordination Sequence:
#
# PCOD9536087 Si02
#       6
#     8  16  16   8   8  16
#     4  10  20  34  54  70  88 121 162 199 250 294
#     4  10  19  33  48  69  94 127 164 198 239 276
#     4  12  21  32  48  67  97 125 164 196 234 275
#     4   8  16  30  50  66  88 119 158 205 242 276
#     4  12  22  32  42  59  92 135 164 186 216 268
#     4  11  20  35  48  69  93 123 157 201 241 283
#
# _framework density 15.522379000000001
#
# number of rings (size 3 to 8) (size 9 to 14) (size 15 to 20)
#    0.000    1.333    2.222    6.667    0.000    0.000 
#    0.000    0.000    0.000    0.000    0.000    0.000 
#    0.000    5.333    0.000    0.000    0.000    0.111 
#
# Total GULP energy -200533.619466 kJ/mol
# GULP energy per Si atom -5570.378319 kJ/mol
# Density = 1.548705 g / cm^3
# Si number density = 15.522379 Si / 1000 Ang^3
#
#
#
# Elastic Constant Matrix: (Units=GPa)
#
#
# Indices 1 2 3 4 5 6 
#
# 1 75.2419 52.3943 5.1565 0.0000 0.0000 0.0000
# 2 52.3943 80.0035 32.8354 0.0000 0.0000 0.0000
# 3 5.1565 32.8354 122.8270 0.0000 0.0000 0.0000
# 4 0.0000 0.0000 0.0000 21.6267 0.0000 0.0000
# 5 0.0000 0.0000 0.0000 0.0000 15.2621 0.0000
# 6 0.0000 0.0000 0.0000 0.0000 0.0000 8.3825
#
#
#
# Elastic Compliance Matrix: (Units=1/GPa)
#
#
# Indices 1 2 3 4 5 6 
#
# 1 0.025984 -0.018611 0.003885 0.000000 0.000000 0.000000
# 2 -0.018611 0.027370 -0.006536 0.000000 0.000000 0.000000
# 3 0.003885 -0.006536 0.009726 0.000000 0.000000 0.000000
# 4 0.000000 0.000000 0.000000 0.046239 0.000000 0.000000
# 5 0.000000 0.000000 0.000000 0.000000 0.065522 0.000000
# 6 0.000000 0.000000 0.000000 0.000000 0.000000 0.119296
#
#
# Mechanical properties :
#
#
# Convention : Reuss Voigt Hill
#
# Bulk Modulus (GPa) = 48.64918 50.98274 49.81596
# Shear Modulus (GPa) = 14.55547 21.56669 18.06108
#
# Velocity S-wave (km/s) = 3.06553 3.73150 3.41479
# Velocity P-wave (km/s) = 6.62867 7.17506 6.90727
#
# Compressibility (1/GPa) = 0.02055533
#
# Stress axis : x y z
#
# Youngs Moduli (GPa) = 38.48506 36.53588 102.82128
#
# Poissons Ratio (x) = 0.67998 -0.39941
# Poissons Ratio (y) = 0.71626 0.67200
# Poissons Ratio (z) = -0.14950 0.23878
#
# Static dielectric constant tensor:
#      x y z
#    x 1.594630 0.000000 0.000000 
#    y 0.000000 1.581310 0.000000 
#    z 0.000000 0.000000 1.548630 
# 
# From -- ./inp_files/5070.got.cif
#   From: 2010.05.17/outbox.cif.g08.bks.cpg/sg74_3_cif.got.tgz:5070.got - 2010.06.03 17:57:02.
