data_PCOD9536819
_publ_section_title
;
Structure prediction by ZEFSAII (Michael W. Deem and Ramdas Pophale) SiO2 
 PCOD9536819
Probable space group: I M M A
;
_chemical_formula_sum "Si O2"
_cell_formula_units_Z 72
_cell_length_a 8.682945
_cell_length_b 27.396133
_cell_length_c 14.962192
_cell_angle_alpha 90.000000
_cell_angle_beta 90.000000
_cell_angle_gamma 90.000000
_cell_volume 3559.193007
_symmetry_space_group_name_H-M "I M M A"
_symmetry_group_IT_number 74
_symmetry_cell_setting 'orthorhombic'
loop_
_space_group_symop_operation_xyz
x,y,z
-x,1/2-y,z
x,-y,-z
-x,1/2+y,-z
-x,-y,-z
x,1/2+y,-z
-x,y,z
x,1/2-y,z
1/2+x,1/2+y,1/2+z
1/2-x,-y,1/2+z
1/2+x,1/2-y,1/2-z
1/2-x,y,1/2-z
1/2-x,1/2-y,1/2-z
1/2+x,y,1/2-z
1/2-x,1/2+y,1/2+z
1/2+x,-y,1/2+z
loop_
_atom_site_type_symbol
_atom_site_label
_atom_site_fract_x
_atom_site_fract_y
_atom_site_fract_z
Si Si1 0.317237 0.750000 0.649673
Si Si2 0.680321 0.914614 0.657202
Si Si3 0.814722 0.876618 0.346875
Si Si4 0.316437 0.162472 0.032184
Si Si5 0.179955 0.011997 0.605332
O O1 0.500000 0.750000 0.657023
O O2 0.250000 0.750000 0.750000
O O3 0.261994 0.796504 0.592400
O O4 0.500000 0.904025 0.650899
O O5 0.750000 0.895689 0.750000
O O6 0.773115 0.888709 0.578129
O O7 0.712908 0.972124 0.651613
O O8 0.750000 0.864014 0.250000
O O9 0.765170 0.841991 0.429019
O O10 0.773620 0.932759 0.371561
O O11 0.000000 0.874976 0.344180
O O12 0.500000 0.169608 0.034343
O O13 0.000000 0.005175 0.632086
O O14 0.188601 0.000000 0.500000
#
# Coordination Sequence:
#
# PCOD9536819 Si02
#       5
#     8  16  16  16  16
#     4  12  26  46  71 102 129 158 195 250 312 378
#     4  12  24  37  57  88 123 164 208 257 308 368
#     4  10  22  39  63  90 124 167 211 258 310 364
#     4  11  23  44  67  91 123 164 205 254 312 372
#     4  10  19  37  59  85 123 167 210 257 309 364
#
# _framework density 20.229305
#
# number of rings (size 3 to 8) (size 9 to 14) (size 15 to 20)
#    0.000    1.111    2.222    5.000    0.000    4.889 
#    0.000    0.556    0.000    0.000    0.000    0.000 
#    0.000    0.000    0.000    0.000    0.000    0.000 
#
# Total GULP energy -201280.864458 kJ/mol
# GULP energy per Si atom -5591.135124 kJ/mol
# Density = 2.018326 g / cm^3
# Si number density = 20.229305 Si / 1000 Ang^3
#
#
#
# Elastic Constant Matrix: (Units=GPa)
#
#
# Indices 1 2 3 4 5 6 
#
# 1 66.8377 28.3478 44.7743 0.0000 0.0000 0.0000
# 2 28.3478 82.7049 51.9857 0.0000 0.0000 0.0000
# 3 44.7743 51.9857 180.6337 -0.0001 0.0000 0.0000
# 4 0.0000 0.0000 -0.0001 35.6839 0.0000 0.0000
# 5 0.0000 0.0000 0.0000 0.0000 32.4755 0.0000
# 6 0.0000 0.0000 0.0000 0.0000 0.0000 29.6241
#
#
#
# Elastic Compliance Matrix: (Units=1/GPa)
#
#
# Indices 1 2 3 4 5 6 
#
# 1 0.019153 -0.004372 -0.003489 0.000000 0.000000 0.000000
# 2 -0.004372 0.015759 -0.003452 0.000000 0.000000 0.000000
# 3 -0.003489 -0.003452 0.007394 0.000000 0.000000 0.000000
# 4 0.000000 0.000000 0.000000 0.028024 0.000000 0.000000
# 5 0.000000 0.000000 0.000000 0.000000 0.030792 0.000000
# 6 0.000000 0.000000 0.000000 0.000000 0.000000 0.033756
#
#
# Mechanical properties :
#
#
# Convention : Reuss Voigt Hill
#
# Bulk Modulus (GPa) = 50.80988 64.48800 57.64894
# Shear Modulus (GPa) = 30.47555 33.22793 31.85174
#
# Velocity S-wave (km/s) = 3.88558 4.05725 3.97235
# Velocity P-wave (km/s) = 6.73066 7.34140 7.04265
#
# Compressibility (1/GPa) = 0.01968121
#
# Stress axis : x y z
#
# Youngs Moduli (GPa) = 52.21028 63.45453 135.23659
#
# Poissons Ratio (x) = 0.27740 0.47190
# Poissons Ratio (y) = 0.22824 0.46682
# Poissons Ratio (z) = 0.18219 0.21904
#
# Static dielectric constant tensor:
#      x y z
#    x 1.680700 0.000000 -0.000010 
#    y 0.000000 1.748230 0.000030 
#    z -0.000010 0.000030 -5.506240 
# 
# From -- ./inp_files/29150.got.cif
#   From: 2010.05.17/outbox.cif.g08.bks.cpg/sg74_15_cif.got.tgz:29150.got - 2010.06.03 17:57:02.
