data_PCOD9536160
_publ_section_title
;
Structure prediction by ZEFSAII (Michael W. Deem and Ramdas Pophale) SiO2 
 PCOD9536160
Probable space group: I M M A
;
_chemical_formula_sum "Si O2"
_cell_formula_units_Z 64
_cell_length_a 15.238404
_cell_length_b 14.312378
_cell_length_c 17.359307
_cell_angle_alpha 90.000000
_cell_angle_beta 90.000000
_cell_angle_gamma 90.000000
_cell_volume 3786.026634
_symmetry_space_group_name_H-M "I M M A"
_symmetry_group_IT_number 74
_symmetry_cell_setting 'orthorhombic'
loop_
_space_group_symop_operation_xyz
x,y,z
-x,1/2-y,z
x,-y,-z
-x,1/2+y,-z
-x,-y,-z
x,1/2+y,-z
-x,y,z
x,1/2-y,z
1/2+x,1/2+y,1/2+z
1/2-x,-y,1/2+z
1/2+x,1/2-y,1/2-z
1/2-x,y,1/2-z
1/2-x,1/2-y,1/2-z
1/2+x,y,1/2-z
1/2-x,1/2+y,1/2+z
1/2+x,-y,1/2+z
loop_
_atom_site_type_symbol
_atom_site_label
_atom_site_fract_x
_atom_site_fract_y
_atom_site_fract_z
Si Si1 0.280161 0.250000 0.589060
Si Si2 0.099926 0.887710 0.182266
Si Si3 0.842916 0.595475 0.791489
Si Si4 0.100563 0.250000 0.676711
Si Si5 0.780333 0.250000 0.093273
Si Si6 0.904871 0.250000 0.324750
O O1 0.330243 0.161349 0.626457
O O2 0.178855 0.250000 0.615819
O O3 0.288866 0.250000 0.497670
O O4 0.111137 0.838561 0.265771
O O5 0.000000 0.866663 0.157497
O O6 0.113287 0.997893 0.188623
O O7 0.750000 0.575972 0.750000
O O8 0.823553 0.659866 0.865689
O O9 0.894995 0.660357 0.731184
O O10 0.000000 0.250000 0.647161
O O11 0.678190 0.250000 0.118904
O O12 0.000000 0.250000 0.362652
#
# Coordination Sequence:
#
# PCOD9536160 Si02
#       6
#     8  16  16   8   8   8
#     4  11  20  34  49  71 107 137 155 197 248 294
#     4  10  19  33  53  75  95 126 170 209 243 285
#     4   9  17  33  53  72  95 127 163 203 245 286
#     4   9  19  33  53  77  96 123 169 208 242 289
#     4   9  21  33  47  72 104 133 162 192 243 304
#     4   9  17  32  53  76  96 121 163 211 246 285
#
# _framework density 16.904264999999999
#
# number of rings (size 3 to 8) (size 9 to 14) (size 15 to 20)
#    0.000    2.500    0.000    6.375    0.000    1.500 
#    0.000    8.750    0.000    0.000    0.000   14.000 
#    0.000    0.000    0.000    0.000    0.000    0.000 
#
# Total GULP energy -178436.252176 kJ/mol
# GULP energy per Si atom -5576.132881 kJ/mol
# Density = 1.686579 g / cm^3
# Si number density = 16.904265 Si / 1000 Ang^3
#
#
#
# Elastic Constant Matrix: (Units=GPa)
#
#
# Indices 1 2 3 4 5 6 
#
# 1 75.1795 22.8200 17.1770 0.0000 0.0000 0.0000
# 2 22.8200 116.3260 16.0900 0.0000 0.0000 0.0000
# 3 17.1770 16.0900 62.6609 0.0000 0.0000 0.0000
# 4 0.0000 0.0000 0.0000 2.6751 0.0000 0.0000
# 5 0.0000 0.0000 0.0000 0.0000 7.8298 0.0000
# 6 0.0000 0.0000 0.0000 0.0000 0.0000 -11.6120
#
#
#
# Elastic Compliance Matrix: (Units=1/GPa)
#
#
# Indices 1 2 3 4 5 6 
#
# 1 0.014826 -0.002433 -0.003439 0.000000 0.000000 0.000000
# 2 -0.002433 0.009312 -0.001724 0.000000 0.000000 0.000000
# 3 -0.003439 -0.001724 0.017345 0.000000 0.000000 0.000000
# 4 0.000000 0.000000 0.000000 0.373823 0.000000 0.000000
# 5 0.000000 0.000000 0.000000 0.000000 0.127718 0.000000
# 6 0.000000 0.000000 0.000000 0.000000 0.000000 -0.086118
#
#
# Mechanical properties :
#
#
# Convention : Reuss Voigt Hill
#
# Bulk Modulus (GPa) = 38.03786 40.70450 39.37118
# Shear Modulus (GPa) = 10.39799 12.98385 11.69092
#
# Velocity S-wave (km/s) = 2.48283 2.77443 2.63267
# Velocity P-wave (km/s) = 5.54708 5.86473 5.70811
#
# Compressibility (1/GPa) = 0.02628960
#
# Stress axis : x y z
#
# Youngs Moduli (GPa) = 67.45020 107.38525 57.65506
#
# Poissons Ratio (x) = 0.26123 0.19830
# Poissons Ratio (y) = 0.16408 0.09942
# Poissons Ratio (z) = 0.23199 0.18517
#
# Static dielectric constant tensor:
#      x y z
#    x 1.591660 0.000000 0.000000 
#    y 0.000000 1.565200 0.000000 
#    z 0.000000 0.000000 1.523830 
# 
# From -- ./inp_files/42453.got.cif
#   From: 2010.05.17/outbox.cif.g08.bks.cpg/sg74_22_cif.got.tgz:42453.got - 2010.06.03 17:57:02.
