data_PCOD9536134
_publ_section_title
;
Structure prediction by ZEFSAII (Michael W. Deem and Ramdas Pophale) SiO2 
 PCOD9536134
Probable space group: I M M A
;
_chemical_formula_sum "Si O2"
_cell_formula_units_Z 96
_cell_length_a 11.366086
_cell_length_b 14.331642
_cell_length_c 36.618704
_cell_angle_alpha 90.000000
_cell_angle_beta 90.000000
_cell_angle_gamma 90.000000
_cell_volume 5964.991905
_symmetry_space_group_name_H-M "I M M A"
_symmetry_group_IT_number 74
_symmetry_cell_setting 'orthorhombic'
loop_
_space_group_symop_operation_xyz
x,y,z
-x,1/2-y,z
x,-y,-z
-x,1/2+y,-z
-x,-y,-z
x,1/2+y,-z
-x,y,z
x,1/2-y,z
1/2+x,1/2+y,1/2+z
1/2-x,-y,1/2+z
1/2+x,1/2-y,1/2-z
1/2-x,y,1/2-z
1/2-x,1/2-y,1/2-z
1/2+x,y,1/2-z
1/2-x,1/2+y,1/2+z
1/2+x,-y,1/2+z
loop_
_atom_site_type_symbol
_atom_site_label
_atom_site_fract_x
_atom_site_fract_y
_atom_site_fract_z
Si Si1 0.365282 0.637578 0.727480
Si Si2 0.218883 0.355955 0.145398
Si Si3 0.500000 0.350846 0.409615
Si Si4 0.500000 0.466111 0.541521
Si Si5 0.641021 0.357885 0.025016
Si Si6 0.742222 0.138804 0.553061
Si Si7 0.859710 0.983086 0.594305
O O1 0.500000 0.604017 0.735776
O O2 0.369406 0.750000 0.732812
O O3 0.250000 0.603461 0.750000
O O4 0.334479 0.621692 0.684965
O O5 0.269367 0.250000 0.146962
O O6 0.112642 0.354216 0.116590
O O7 0.309281 0.431450 0.129768
O O8 0.500000 0.250000 0.429323
O O9 0.500000 0.439489 0.435206
O O10 0.500000 0.500000 0.500000
O O11 0.386676 0.404313 0.550329
O O12 0.500000 0.365277 0.021609
O O13 0.670744 0.250000 0.033245
O O14 0.678332 0.421423 0.058845
O O15 0.695721 0.382147 0.985981
O O16 0.742194 0.250000 0.557745
O O17 0.809747 0.084880 0.585259
O O18 0.000000 0.984455 0.595385
#
# Coordination Sequence:
#
# PCOD9536134 Si02
#       7
#    16  16   8   8  16  16  16
#     4   9  17  30  49  74 106 143 178 209 249 309
#     4  10  19  33  52  75 102 135 172 209 254 310
#     4  10  20  35  56  73  96 136 178 213 256 307
#     4  12  23  37  52  73  99 130 173 227 270 309
#     4   9  18  33  50  67  90 122 162 209 262 315
#     4  11  23  36  49  67  93 129 171 217 265 314
#     4  11  21  33  50  72  96 127 168 216 261 310
#
# _framework density 16.093903000000001
#
# number of rings (size 3 to 8) (size 9 to 14) (size 15 to 20)
#    0.000    1.833    2.500    2.750    0.000    4.667 
#    0.000    1.667    0.000    0.000    0.000    0.000 
#    0.000    0.667    0.000    1.500    0.000    0.333 
#
# Total GULP energy -267836.563064 kJ/mol
# GULP energy per Si atom -5579.928397 kJ/mol
# Density = 1.605727 g / cm^3
# Si number density = 16.093903 Si / 1000 Ang^3
#
#
#
# Elastic Constant Matrix: (Units=GPa)
#
#
# Indices 1 2 3 4 5 6 
#
# 1 93.2451 35.8106 34.5340 0.0000 0.0000 0.0000
# 2 35.8106 69.9563 31.6174 0.0000 0.0000 0.0000
# 3 34.5340 31.6174 58.5974 0.0000 0.0000 0.0000
# 4 0.0000 0.0000 0.0000 15.3568 0.0000 0.0000
# 5 0.0000 0.0000 0.0000 0.0000 17.6086 0.0000
# 6 0.0000 0.0000 0.0000 0.0000 0.0000 14.1136
#
#
#
# Elastic Compliance Matrix: (Units=1/GPa)
#
#
# Indices 1 2 3 4 5 6 
#
# 1 0.014856 -0.004824 -0.006152 0.000000 0.000000 0.000000
# 2 -0.004824 0.020471 -0.008203 0.000000 0.000000 0.000000
# 3 -0.006152 -0.008203 0.025117 0.000000 0.000000 0.000000
# 4 0.000000 0.000000 0.000000 0.065118 0.000000 0.000000
# 5 0.000000 0.000000 0.000000 0.000000 0.056790 0.000000
# 6 0.000000 0.000000 0.000000 0.000000 0.000000 0.070854
#
#
# Mechanical properties :
#
#
# Convention : Reuss Voigt Hill
#
# Bulk Modulus (GPa) = 45.27668 47.30252 46.28960
# Shear Modulus (GPa) = 16.72656 17.40492 17.06574
#
# Velocity S-wave (km/s) = 3.22733 3.29212 3.25989
# Velocity P-wave (km/s) = 6.48702 6.62617 6.55697
#
# Compressibility (1/GPa) = 0.02208643
#
# Stress axis : x y z
#
# Youngs Moduli (GPa) = 67.31474 48.84881 39.81328
#
# Poissons Ratio (x) = 0.23565 0.24494
# Poissons Ratio (y) = 0.32473 0.32658
# Poissons Ratio (z) = 0.41413 0.40069
#
# Static dielectric constant tensor:
#      x y z
#    x 1.568360 0.000000 0.000000 
#    y 0.000000 1.540710 0.000000 
#    z 0.000000 0.000000 1.522130 
# 
# From -- ./inp_files/71831.got.cif
#   From: 2010.05.17/outbox.cif.g08.bks.cpg/sg74_36_cif.got.tgz:71831.got - 2010.06.03 17:57:02.
