data_PCOD9536916
_publ_section_title
;
Structure prediction by ZEFSAII (Michael W. Deem and Ramdas Pophale) SiO2 
 PCOD9536916
Probable space group: I M M A
;
_chemical_formula_sum "Si O2"
_cell_formula_units_Z 96
_cell_length_a 26.653487
_cell_length_b 14.259008
_cell_length_c 15.948120
_cell_angle_alpha 90.000000
_cell_angle_beta 90.000000
_cell_angle_gamma 90.000000
_cell_volume 6061.119437
_symmetry_space_group_name_H-M "I M M A"
_symmetry_group_IT_number 74
_symmetry_cell_setting 'orthorhombic'
loop_
_space_group_symop_operation_xyz
x,y,z
-x,1/2-y,z
x,-y,-z
-x,1/2+y,-z
-x,-y,-z
x,1/2+y,-z
-x,y,z
x,1/2-y,z
1/2+x,1/2+y,1/2+z
1/2-x,-y,1/2+z
1/2+x,1/2-y,1/2-z
1/2-x,y,1/2-z
1/2-x,1/2-y,1/2-z
1/2+x,y,1/2-z
1/2-x,1/2+y,1/2+z
1/2+x,-y,1/2+z
loop_
_atom_site_type_symbol
_atom_site_label
_atom_site_fract_x
_atom_site_fract_y
_atom_site_fract_z
Si Si1 0.100169 0.138647 0.502093
Si Si2 0.848090 0.486798 0.734399
Si Si3 0.299916 0.139264 0.901013
Si Si4 0.793041 0.999719 0.909622
Si Si5 0.441438 0.998461 0.135981
Si Si6 0.779492 0.854094 0.661924
O O1 0.093963 0.250000 0.495487
O O2 0.158522 0.118393 0.526587
O O3 0.080430 0.082949 0.421413
O O4 0.069005 0.093718 0.579194
O O5 0.825239 0.397531 0.685280
O O6 0.828626 0.490638 0.829141
O O7 0.907158 0.490123 0.718181
O O8 0.824155 0.575137 0.683920
O O9 0.291660 0.250000 0.899468
O O10 0.248769 0.081641 0.908999
O O11 0.759898 0.905251 0.898446
O O12 0.818735 0.000000 0.000000
O O13 0.500000 0.010830 0.150779
O O14 0.794706 0.750000 0.634359
O O15 0.750000 0.846464 0.750000
#
# Coordination Sequence:
#
# PCOD9536916 Si02
#       6
#    16  16  16  16  16  16
#     4   9  18  31  49  73  99 122 148 188 235 287
#     4   9  19  33  46  64  93 124 158 196 232 274
#     4   9  18  31  48  70  97 126 150 180 229 289
#     4  10  20  30  45  68  94 123 158 195 229 275
#     4  10  20  32  48  68  94 126 161 198 234 276
#     4   8  15  29  47  65  87 118 151 184 228 281
#
# _framework density 15.838658000000001
#
# number of rings (size 3 to 8) (size 9 to 14) (size 15 to 20)
#    0.000    2.833    0.000    2.500    7.000    4.000 
#    0.000    0.000    0.000    0.500    0.000    0.000 
#    0.000    0.000    0.000   12.333    0.000    0.000 
#
# Total GULP energy -267564.542057 kJ/mol
# GULP energy per Si atom -5574.261293 kJ/mol
# Density = 1.580261 g / cm^3
# Si number density = 15.838658 Si / 1000 Ang^3
#
#
#
# Elastic Constant Matrix: (Units=GPa)
#
#
# Indices 1 2 3 4 5 6 
#
# 1 101.1370 22.4854 52.8160 0.0000 0.0000 0.0000
# 2 22.4854 96.2574 18.0352 0.0000 0.0000 0.0000
# 3 52.8160 18.0352 104.4825 0.0000 0.0000 0.0000
# 4 0.0000 0.0000 0.0000 10.1612 0.0000 0.0000
# 5 0.0000 0.0000 0.0000 0.0000 15.8888 0.0000
# 6 0.0000 0.0000 0.0000 0.0000 0.0000 11.1856
#
#
#
# Elastic Compliance Matrix: (Units=1/GPa)
#
#
# Indices 1 2 3 4 5 6 
#
# 1 0.013789 -0.001979 -0.006629 0.000000 0.000000 0.000000
# 2 -0.001979 0.011020 -0.000902 0.000000 0.000000 0.000000
# 3 -0.006629 -0.000902 0.013078 0.000000 0.000000 0.000000
# 4 0.000000 0.000000 0.000000 0.098414 0.000000 0.000000
# 5 0.000000 0.000000 0.000000 0.000000 0.062937 0.000000
# 6 0.000000 0.000000 0.000000 0.000000 0.000000 0.089400
#
#
# Mechanical properties :
#
#
# Convention : Reuss Voigt Hill
#
# Bulk Modulus (GPa) = 53.00152 54.28334 53.64243
# Shear Modulus (GPa) = 15.92624 21.34981 18.63803
#
# Velocity S-wave (km/s) = 3.17445 3.67544 3.43409
# Velocity P-wave (km/s) = 6.85363 7.23594 7.04738
#
# Compressibility (1/GPa) = 0.01886738
#
# Stress axis : x y z
#
# Youngs Moduli (GPa) = 72.51975 90.74338 76.46689
#
# Poissons Ratio (x) = 0.17959 0.50689
# Poissons Ratio (y) = 0.14353 0.06896
# Poissons Ratio (z) = 0.48073 0.08183
#
# Static dielectric constant tensor:
#      x y z
#    x 1.521950 0.000000 0.000000 
#    y 0.000000 1.549570 0.000000 
#    z 0.000000 0.000000 1.549620 
# 
# From -- ./inp_files/37876.got.cif
#   From: 2010.05.17/outbox.cif.g08.bks.cpg/sg74_19_cif.got.tgz:37876.got - 2010.06.03 17:57:02.
