data_PCOD9536429
_publ_section_title
;
Structure prediction by ZEFSAII (Michael W. Deem and Ramdas Pophale) SiO2 
 PCOD9536429
Probable space group: I M M A
;
_chemical_formula_sum "Si O2"
_cell_formula_units_Z 80
_cell_length_a 26.410078
_cell_length_b 19.680720
_cell_length_c 7.973469
_cell_angle_alpha 90.000000
_cell_angle_beta 90.000000
_cell_angle_gamma 90.000000
_cell_volume 4144.364802
_symmetry_space_group_name_H-M "I M M A"
_symmetry_group_IT_number 74
_symmetry_cell_setting 'orthorhombic'
loop_
_space_group_symop_operation_xyz
x,y,z
-x,1/2-y,z
x,-y,-z
-x,1/2+y,-z
-x,-y,-z
x,1/2+y,-z
-x,y,z
x,1/2-y,z
1/2+x,1/2+y,1/2+z
1/2-x,-y,1/2+z
1/2+x,1/2-y,1/2-z
1/2-x,y,1/2-z
1/2-x,1/2-y,1/2-z
1/2+x,y,1/2-z
1/2-x,1/2+y,1/2+z
1/2+x,-y,1/2+z
loop_
_atom_site_type_symbol
_atom_site_label
_atom_site_fract_x
_atom_site_fract_y
_atom_site_fract_z
Si Si1 0.703460 0.552655 0.355819
Si Si2 0.610482 0.168679 0.208254
Si Si3 0.500000 0.669022 0.796223
Si Si4 0.000000 0.430106 0.606875
Si Si5 0.888612 0.930245 0.393949
Si Si6 0.211397 0.670755 0.904150
O O1 0.688547 0.500000 0.500000
O O2 0.750000 0.522223 0.250000
O O3 0.656358 0.569792 0.238091
O O4 0.723751 0.379514 0.554174
O O5 0.612898 0.250000 0.179528
O O6 0.554609 0.151070 0.280772
O O7 0.655875 0.151941 0.333330
O O8 0.616417 0.129115 0.032905
O O9 0.500000 0.750000 0.816645
O O10 0.500000 0.631581 0.974521
O O11 0.000000 0.500000 0.500000
O O12 0.944690 0.427095 0.690292
O O13 0.885848 0.000000 0.500000
O O14 0.211609 0.750000 0.953751
O O15 0.250000 0.662967 0.750000
#
# Coordination Sequence:
#
# PCOD9536429 Si02
#       6
#    16  16   8   8  16  16
#     4  12  24  37  54  76 103 134 171 212 257 305
#     4   9  17  32  54  78 104 134 169 207 247 295
#     4   8  14  26  49  77 101 131 168 201 239 293
#     4   8  16  30  50  75 100 131 168 205 244 293
#     4  10  19  34  55  77 103 134 171 210 249 296
#     4  10  21  37  55  76 103 134 169 209 254 303
#
# _framework density 19.303321
#
# number of rings (size 3 to 8) (size 9 to 14) (size 15 to 20)
#    0.000    2.200    0.000    3.600    0.000    1.200 
#    0.000    1.500    0.000    0.000    0.000    0.000 
#    0.000    0.000    0.000    0.000    0.000    0.000 
#
# Total GULP energy -223053.398552 kJ/mol
# GULP energy per Si atom -5576.334964 kJ/mol
# Density = 1.925939 g / cm^3
# Si number density = 19.303321 Si / 1000 Ang^3
#
#
#
# Elastic Constant Matrix: (Units=GPa)
#
#
# Indices 1 2 3 4 5 6 
#
# 1 67.9174 -6.8367 -6.5501 0.0000 0.0000 0.0000
# 2 -6.8367 37.9453 11.7271 0.0000 0.0000 0.0000
# 3 -6.5501 11.7271 25.2236 0.0000 0.0000 0.0000
# 4 0.0000 0.0000 0.0000 26.2047 0.0000 0.0000
# 5 0.0000 0.0000 0.0000 0.0000 28.7335 0.0000
# 6 0.0000 0.0000 0.0000 0.0000 0.0000 -84.6248
#
#
#
# Elastic Compliance Matrix: (Units=1/GPa)
#
#
# Indices 1 2 3 4 5 6 
#
# 1 0.015204 0.001774 0.003123 0.000000 0.000000 0.000000
# 2 0.001774 0.030983 -0.013944 0.000000 0.000000 0.000000
# 3 0.003123 -0.013944 0.046939 0.000000 0.000000 0.000000
# 4 0.000000 0.000000 0.000000 0.038161 0.000000 0.000000
# 5 0.000000 0.000000 0.000000 0.000000 0.034803 0.000000
# 6 0.000000 0.000000 0.000000 0.000000 0.000000 -0.011817
#
#
# Mechanical properties :
#
#
# Convention : Reuss Voigt Hill
#
# Bulk Modulus (GPa) = 13.32761 14.19634 13.76197
# Shear Modulus (GPa) = 25.33225 2.91243 14.12234
#
# Velocity S-wave (km/s) = 3.62653 1.22965 2.70775
# Velocity P-wave (km/s) = 4.94520 3.06372 4.11347
#
# Compressibility (1/GPa) = 0.07503223
#
# Stress axis : x y z
#
# Youngs Moduli (GPa) = 65.77414 32.27598 21.30403
#
# Poissons Ratio (x) = -0.05726 -0.06654
# Poissons Ratio (y) = -0.11668 0.29706
# Poissons Ratio (z) = -0.20543 0.45006
#
# Static dielectric constant tensor:
#      x y z
#    x 1.734870 0.000000 0.000000 
#    y 0.000000 1.669480 0.000000 
#    z 0.000000 0.000000 1.620880 
# 
# From -- ./inp_files/10983.got.cif
#   From: 2010.05.17/outbox.cif.g08.bks.cpg/sg74_6_cif.got.tgz:10983.got - 2010.06.03 17:57:02.
