data_PCOD9536965
_publ_section_title
;
Structure prediction by ZEFSAII (Michael W. Deem and Ramdas Pophale) SiO2 
 PCOD9536965
Probable space group: I M M A
;
_chemical_formula_sum "Si O2"
_cell_formula_units_Z 88
_cell_length_a 21.345987
_cell_length_b 14.830508
_cell_length_c 16.471305
_cell_angle_alpha 90.000000
_cell_angle_beta 90.000000
_cell_angle_gamma 90.000000
_cell_volume 5214.351182
_symmetry_space_group_name_H-M "I M M A"
_symmetry_group_IT_number 74
_symmetry_cell_setting 'orthorhombic'
loop_
_space_group_symop_operation_xyz
x,y,z
-x,1/2-y,z
x,-y,-z
-x,1/2+y,-z
-x,-y,-z
x,1/2+y,-z
-x,y,z
x,1/2-y,z
1/2+x,1/2+y,1/2+z
1/2-x,-y,1/2+z
1/2+x,1/2-y,1/2-z
1/2-x,y,1/2-z
1/2-x,1/2-y,1/2-z
1/2+x,y,1/2-z
1/2-x,1/2+y,1/2+z
1/2+x,-y,1/2+z
loop_
_atom_site_type_symbol
_atom_site_label
_atom_site_fract_x
_atom_site_fract_y
_atom_site_fract_z
Si Si1 0.797168 0.642541 0.128072
Si Si2 0.575393 0.354829 0.396007
Si Si3 0.848764 0.500000 0.000000
Si Si4 0.575959 0.150346 0.208529
Si Si5 0.343988 0.354689 0.804025
Si Si6 0.924433 0.510072 0.406121
O O1 0.807978 0.750000 0.107033
O O2 0.725248 0.635820 0.157381
O O3 0.838359 0.620434 0.208667
O O4 0.810833 0.568365 0.059176
O O5 0.500000 0.362474 0.402799
O O6 0.591207 0.250000 0.416999
O O7 0.608813 0.430656 0.448470
O O8 0.593127 0.368905 0.301513
O O9 0.500000 0.151527 0.207302
O O10 0.598425 0.250000 0.187194
O O11 0.596341 0.077797 0.143768
O O12 0.360582 0.250000 0.805971
O O13 0.392430 0.409204 0.858022
O O14 0.906423 0.500000 0.500000
O O15 0.000000 0.517971 0.402821
#
# Coordination Sequence:
#
# PCOD9536965 Si02
#       6
#    16  16   8  16  16  16
#     4   9  20  36  54  75  98 136 176 211 257 308
#     4   9  18  31  47  71 104 137 164 194 245 307
#     4  12  19  28  54  80  99 124 164 224 250 294
#     4   8  15  30  48  65  95 136 163 185 233 301
#     4   9  19  38  55  68 100 140 174 208 256 318
#     4  10  20  31  50  80 106 128 169 220 263 311
#
# _framework density 16.876501000000001
#
# number of rings (size 3 to 8) (size 9 to 14) (size 15 to 20)
#    0.000    2.727    0.000    4.091    1.273    1.091 
#    0.000    2.727    0.000    2.182    0.000    6.364 
#    0.000    0.000    0.000    0.000    0.000    0.000 
#
# Total GULP energy -245027.753034 kJ/mol
# GULP energy per Si atom -5568.812569 kJ/mol
# Density = 1.683809 g / cm^3
# Si number density = 16.876501 Si / 1000 Ang^3
#
#
#
# Elastic Constant Matrix: (Units=GPa)
#
#
# Indices 1 2 3 4 5 6 
#
# 1 16.0043 29.7419 29.6140 0.0000 0.0000 0.0000
# 2 29.7419 122.6998 94.6929 0.0000 0.0000 0.0000
# 3 29.6140 94.6929 118.2723 0.0000 0.0000 0.0000
# 4 0.0000 0.0000 0.0000 23.8088 0.0000 0.0000
# 5 0.0000 0.0000 0.0000 0.0000 30.5663 0.0000
# 6 0.0000 0.0000 0.0000 0.0000 0.0000 26.2083
#
#
#
# Elastic Compliance Matrix: (Units=1/GPa)
#
#
# Indices 1 2 3 4 5 6 
#
# 1 0.127987 -0.016466 -0.018863 0.000000 0.000000 0.000000
# 2 -0.016466 0.023447 -0.014650 0.000000 0.000000 0.000000
# 3 -0.018863 -0.014650 0.024907 0.000000 0.000000 0.000000
# 4 0.000000 0.000000 0.000000 0.042001 0.000000 0.000000
# 5 0.000000 0.000000 0.000000 0.000000 0.032716 0.000000
# 6 0.000000 0.000000 0.000000 0.000000 0.000000 0.038156
#
#
# Mechanical properties :
#
#
# Convention : Reuss Voigt Hill
#
# Bulk Modulus (GPa) = 13.09181 62.78600 37.93891
# Shear Modulus (GPa) = 12.05887 22.97852 17.51869
#
# Velocity S-wave (km/s) = 2.67598 3.69395 3.22538
# Velocity P-wave (km/s) = 4.16198 7.44833 6.03323
#
# Compressibility (1/GPa) = 0.07638361
#
# Stress axis : x y z
#
# Youngs Moduli (GPa) = 7.81330 42.64937 40.14911
#
# Poissons Ratio (x) = 0.70226 0.75734
# Poissons Ratio (y) = 0.12865 0.58817
# Poissons Ratio (z) = 0.14738 0.62480
#
# Static dielectric constant tensor:
#      x y z
#    x 1.545090 0.000000 0.000000 
#    y 0.000000 1.578860 0.000000 
#    z 0.000000 0.000000 1.578380 
# 
# From -- ./inp_files/36368.got.cif
#   From: 2010.05.17/outbox.cif.g08.bks.cpg/sg74_19_cif.got.tgz:36368.got - 2010.06.03 17:57:02.
