data_PCOD9536128
_publ_section_title
;
Structure prediction by ZEFSAII (Michael W. Deem and Ramdas Pophale) SiO2 
 PCOD9536128
Probable space group: I M M A
;
_chemical_formula_sum "Si O2"
_cell_formula_units_Z 96
_cell_length_a 30.685937
_cell_length_b 7.626630
_cell_length_c 19.387110
_cell_angle_alpha 90.000000
_cell_angle_beta 90.000000
_cell_angle_gamma 90.000000
_cell_volume 4537.170931
_symmetry_space_group_name_H-M "I M M A"
_symmetry_group_IT_number 74
_symmetry_cell_setting 'orthorhombic'
loop_
_space_group_symop_operation_xyz
x,y,z
-x,1/2-y,z
x,-y,-z
-x,1/2+y,-z
-x,-y,-z
x,1/2+y,-z
-x,y,z
x,1/2-y,z
1/2+x,1/2+y,1/2+z
1/2-x,-y,1/2+z
1/2+x,1/2-y,1/2-z
1/2-x,y,1/2-z
1/2-x,1/2-y,1/2-z
1/2+x,y,1/2-z
1/2-x,1/2+y,1/2+z
1/2+x,-y,1/2+z
loop_
_atom_site_type_symbol
_atom_site_label
_atom_site_fract_x
_atom_site_fract_y
_atom_site_fract_z
Si Si1 0.828697 0.459910 0.424027
Si Si2 0.298147 0.535047 0.773670
Si Si3 0.950754 0.460862 0.080481
Si Si4 0.621028 0.948372 0.686003
Si Si5 0.546475 0.048183 0.778548
Si Si6 0.928911 0.458550 0.425196
O O1 0.809385 0.500000 0.500000
O O2 0.829869 0.250000 0.419734
O O3 0.807287 0.522693 0.352585
O O4 0.878736 0.523749 0.424651
O O5 0.300619 0.750000 0.773539
O O6 0.250000 0.484893 0.750000
O O7 0.335113 0.473239 0.719186
O O8 0.951670 0.250000 0.090215
O O9 0.910122 0.527808 0.126358
O O10 0.000000 0.526762 0.097377
O O11 0.943679 0.500000 0.000000
O O12 0.632079 0.750000 0.663660
O O13 0.587368 0.945177 0.749755
O O14 0.500000 0.975673 0.754642
O O15 0.550187 0.250000 0.756296
O O16 0.547863 0.042002 0.860587
O O17 0.947361 0.500000 0.500000
O O18 0.929349 0.250000 0.415365
#
# Coordination Sequence:
#
# PCOD9536128 Si02
#       6
#    16  16  16  16  16  16
#     4   9  17  31  52  77 101 134 175 214 258 307
#     4   9  17  32  55  81 106 134 175 222 268 319
#     4   9  18  32  52  77 105 138 174 213 260 317
#     4  10  19  35  56  78 103 137 180 221 263 317
#     4  11  23  35  49  74 106 140 176 216 265 315
#     4  10  19  33  52  74 101 137 179 218 258 305
#
# _framework density 21.158559
#
# number of rings (size 3 to 8) (size 9 to 14) (size 15 to 20)
#    0.000    2.333    1.667    1.500    0.000    3.667 
#    0.000    2.500    0.000    2.000    0.000    0.000 
#    0.000    0.000    0.000    0.000    0.000    0.000 
#
# Total GULP energy -267724.200466 kJ/mol
# GULP energy per Si atom -5577.587510 kJ/mol
# Density = 2.111040 g / cm^3
# Si number density = 21.158559 Si / 1000 Ang^3
#
#
#
# Elastic Constant Matrix: (Units=GPa)
#
#
# Indices 1 2 3 4 5 6 
#
# 1 158.4875 5.0559 80.0170 0.0000 0.0000 0.0000
# 2 5.0559 51.5063 -3.6683 0.0000 0.0000 0.0000
# 3 80.0170 -3.6683 165.8754 0.0000 0.0000 0.0000
# 4 0.0000 0.0000 0.0000 23.9021 0.0000 0.0000
# 5 0.0000 0.0000 0.0000 0.0000 39.9653 0.0000
# 6 0.0000 0.0000 0.0000 0.0000 0.0000 -2.2212
#
#
#
# Elastic Compliance Matrix: (Units=1/GPa)
#
#
# Indices 1 2 3 4 5 6 
#
# 1 0.008405 -0.001116 -0.004079 0.000000 0.000000 0.000000
# 2 -0.001116 0.019594 0.000971 0.000000 0.000000 0.000000
# 3 -0.004079 0.000971 0.008018 0.000000 0.000000 0.000000
# 4 0.000000 0.000000 0.000000 0.041837 0.000000 0.000000
# 5 0.000000 0.000000 0.000000 0.000000 0.025022 0.000000
# 6 0.000000 0.000000 0.000000 0.000000 0.000000 -0.450201
#
#
# Mechanical properties :
#
#
# Convention : Reuss Voigt Hill
#
# Bulk Modulus (GPa) = 36.27126 59.85316 48.06221
# Shear Modulus (GPa) = -15.16580 31.96021 8.39720
#
# Velocity S-wave (km/s) = -2.68016 3.89074 1.99432
# Velocity P-wave (km/s) = 2.75720 6.96658 5.29789
#
# Compressibility (1/GPa) = 0.02757004
#
# Stress axis : x y z
#
# Youngs Moduli (GPa) = 118.98200 51.03656 124.72277
#
# Poissons Ratio (x) = 0.05693 0.50874
# Poissons Ratio (y) = 0.13273 -0.12116
# Poissons Ratio (z) = 0.48533 -0.04958
#
# Static dielectric constant tensor:
#      x y z
#    x 1.747370 0.000000 0.000000 
#    y 0.000000 1.808580 0.000000 
#    z 0.000000 0.000000 1.785600 
# 
# From -- ./inp_files/55108.got.cif
#   From: 2010.05.17/outbox.cif.g08.bks.cpg/sg74_28_cif.got.tgz:55108.got - 2010.06.03 17:57:02.
