data_PCOD9536985
_publ_section_title
;
Structure prediction by ZEFSAII (Michael W. Deem and Ramdas Pophale) SiO2 
 PCOD9536985
Probable space group: I M M A
;
_chemical_formula_sum "Si O2"
_cell_formula_units_Z 104
_cell_length_a 32.975367
_cell_length_b 7.685470
_cell_length_c 21.486504
_cell_angle_alpha 90.000000
_cell_angle_beta 90.000000
_cell_angle_gamma 90.000000
_cell_volume 5445.350360
_symmetry_space_group_name_H-M "I M M A"
_symmetry_group_IT_number 74
_symmetry_cell_setting 'orthorhombic'
loop_
_space_group_symop_operation_xyz
x,y,z
-x,1/2-y,z
x,-y,-z
-x,1/2+y,-z
-x,-y,-z
x,1/2+y,-z
-x,y,z
x,1/2-y,z
1/2+x,1/2+y,1/2+z
1/2-x,-y,1/2+z
1/2+x,1/2-y,1/2-z
1/2-x,y,1/2-z
1/2-x,1/2-y,1/2-z
1/2+x,y,1/2-z
1/2-x,1/2+y,1/2+z
1/2+x,-y,1/2+z
loop_
_atom_site_type_symbol
_atom_site_label
_atom_site_fract_x
_atom_site_fract_y
_atom_site_fract_z
Si Si1 0.284036 0.040220 0.070233
Si Si2 0.135761 0.958770 0.818120
Si Si3 0.500000 0.958134 0.071280
Si Si4 0.340186 0.548407 0.818496
Si Si5 0.070478 0.961064 0.342081
Si Si6 0.691097 0.458974 0.430621
Si Si7 0.544582 0.458833 0.703376
O O1 0.283860 0.250000 0.074334
O O2 0.309895 0.973602 0.129305
O O3 0.237499 0.976388 0.074399
O O4 0.299149 0.000000 0.000000
O O5 0.139838 0.750000 0.815197
O O6 0.152778 0.027154 0.751325
O O7 0.162313 0.024873 0.875675
O O8 0.087690 0.991560 0.826666
O O9 0.500000 0.750000 0.080355
O O10 0.459757 0.022588 0.105014
O O11 0.500000 0.000000 0.000000
O O12 0.328065 0.750000 0.809577
O O13 0.385089 0.538654 0.846950
O O14 0.074261 0.750000 0.343132
O O15 0.050961 0.008750 0.275626
O O16 0.676121 0.500000 0.500000
O O17 0.692726 0.250000 0.425088
O O18 0.500000 0.523449 0.681844
O O19 0.542984 0.250000 0.700714
#
# Coordination Sequence:
#
# PCOD9536985 Si02
#       7
#    16  16   8  16  16  16  16
#     4   9  18  32  49  68  93 128 165 197 233 281
#     4   9  18  31  48  74 101 123 154 196 241 283
#     4  10  20  32  44  60  84 118 159 198 235 278
#     4   9  18  31  47  70  97 122 155 198 240 281
#     4   9  17  31  47  62  86 120 155 192 235 279
#     4   9  18  33  52  72  96 127 159 192 233 283
#     4   9  16  29  50  71  92 121 155 189 229 282
#
# _framework density 19.098863999999999
#
# number of rings (size 3 to 8) (size 9 to 14) (size 15 to 20)
#    0.000    2.923    0.769    0.000    0.000    3.385 
#    0.000    6.154    0.000    0.462    0.000    8.615 
#    0.000    0.000    0.000    0.000    0.000    0.000 
#
# Total GULP energy -289630.672953 kJ/mol
# GULP energy per Si atom -5569.820634 kJ/mol
# Density = 1.905539 g / cm^3
# Si number density = 19.098864 Si / 1000 Ang^3
#
#
#
# Elastic Constant Matrix: (Units=GPa)
#
#
# Indices 1 2 3 4 5 6 
#
# 1 118.1401 3.4263 98.3118 0.0000 0.0000 0.0000
# 2 3.4263 30.9010 2.4352 0.0000 0.0000 0.0000
# 3 98.3118 2.4352 136.4250 0.0000 0.0000 0.0000
# 4 0.0000 0.0000 0.0000 18.2680 0.0000 0.0000
# 5 0.0000 0.0000 0.0000 0.0000 26.7142 0.0000
# 6 0.0000 0.0000 0.0000 0.0000 0.0000 17.8249
#
#
#
# Elastic Compliance Matrix: (Units=1/GPa)
#
#
# Indices 1 2 3 4 5 6 
#
# 1 0.021185 -0.001147 -0.015246 0.000000 0.000000 0.000000
# 2 -0.001147 0.032469 0.000247 0.000000 0.000000 0.000000
# 3 -0.015246 0.000247 0.018312 0.000000 0.000000 0.000000
# 4 0.000000 0.000000 0.000000 0.054741 0.000000 0.000000
# 5 0.000000 0.000000 0.000000 0.000000 0.037433 0.000000
# 6 0.000000 0.000000 0.000000 0.000000 0.000000 0.056101
#
#
# Mechanical properties :
#
#
# Convention : Reuss Voigt Hill
#
# Bulk Modulus (GPa) = 25.20537 54.86808 40.03672
# Shear Modulus (GPa) = 18.81404 24.64758 21.73081
#
# Velocity S-wave (km/s) = 3.14201 3.59629 3.37680
# Velocity P-wave (km/s) = 5.13702 6.78492 6.01765
#
# Compressibility (1/GPa) = 0.03967409
#
# Stress axis : x y z
#
# Youngs Moduli (GPa) = 47.20326 30.79847 54.60800
#
# Poissons Ratio (x) = 0.03534 0.83255
# Poissons Ratio (y) = 0.05417 -0.01351
# Poissons Ratio (z) = 0.71966 -0.00762
#
# Static dielectric constant tensor:
#      x y z
#    x 1.676830 0.000000 0.000000 
#    y 0.000000 1.742320 0.000000 
#    z 0.000000 0.000000 1.652290 
# 
# From -- ./inp_files/46695.got.cif
#   From: 2010.05.17/outbox.cif.g08.bks.cpg/sg74_24_cif.got.tgz:46695.got - 2010.06.03 17:57:02.
