data_PCOD9536982
_publ_section_title
;
Structure prediction by ZEFSAII (Michael W. Deem and Ramdas Pophale) SiO2 
 PCOD9536982
Probable space group: I M M A
;
_chemical_formula_sum "Si O2"
_cell_formula_units_Z 80
_cell_length_a 14.352555
_cell_length_b 8.937180
_cell_length_c 28.499828
_cell_angle_alpha 90.000000
_cell_angle_beta 90.000000
_cell_angle_gamma 90.000000
_cell_volume 3655.711911
_symmetry_space_group_name_H-M "I M M A"
_symmetry_group_IT_number 74
_symmetry_cell_setting 'orthorhombic'
loop_
_space_group_symop_operation_xyz
x,y,z
-x,1/2-y,z
x,-y,-z
-x,1/2+y,-z
-x,-y,-z
x,1/2+y,-z
-x,y,z
x,1/2-y,z
1/2+x,1/2+y,1/2+z
1/2-x,-y,1/2+z
1/2+x,1/2-y,1/2-z
1/2-x,y,1/2-z
1/2-x,1/2-y,1/2-z
1/2+x,y,1/2-z
1/2-x,1/2+y,1/2+z
1/2+x,-y,1/2+z
loop_
_atom_site_type_symbol
_atom_site_label
_atom_site_fract_x
_atom_site_fract_y
_atom_site_fract_z
Si Si1 0.801332 0.070357 0.452143
Si Si2 0.146395 0.579746 0.649627
Si Si3 0.397052 0.426548 0.569981
Si Si4 0.130961 0.917970 0.835804
Si Si5 0.137054 0.580226 0.256698
O O1 0.801550 0.250000 0.453947
O O2 0.856203 0.026170 0.404420
O O3 0.839305 0.000000 0.500000
O O4 0.693693 0.015144 0.447653
O O5 0.110429 0.750000 0.652545
O O6 0.257083 0.587170 0.660188
O O7 0.110597 0.476839 0.691594
O O8 0.500000 0.470536 0.551988
O O9 0.383765 0.250000 0.561645
O O10 0.398955 0.463353 0.625360
O O11 0.099400 0.750000 0.846994
O O12 0.104326 0.969531 0.784058
O O13 0.106524 0.750000 0.249143
O O14 0.250000 0.581157 0.250000
#
# Coordination Sequence:
#
# PCOD9536982 Si02
#       5
#    16  16  16  16  16
#     4  10  20  32  45  58  74  98 129 166 203 238
#     4   8  15  26  38  54  74  95 119 149 187 228
#     4  10  20  32  44  57  74  97 128 167 205 238
#     4   9  16  26  40  56  75  97 120 150 187 229
#     4   9  15  22  36  57  77  96 117 144 180 224
#
# _framework density 21.883561
#
# number of rings (size 3 to 8) (size 9 to 14) (size 15 to 20)
#    0.000    2.800    0.000    3.600    0.000   10.000 
#    0.000    0.000    0.000    0.000    0.000    0.000 
#    0.000    0.000    0.000    0.000    0.000    1.000 
#
# Total GULP energy -223173.195569 kJ/mol
# GULP energy per Si atom -5579.329889 kJ/mol
# Density = 2.183375 g / cm^3
# Si number density = 21.883561 Si / 1000 Ang^3
#
#
#
# Elastic Constant Matrix: (Units=GPa)
#
#
# Indices 1 2 3 4 5 6 
#
# 1 54.6247 -5.7702 -9.1632 0.0000 0.0000 0.0000
# 2 -5.7702 56.1158 35.6443 0.0000 0.0000 0.0000
# 3 -9.1632 35.6443 172.8549 0.0000 0.0000 0.0000
# 4 0.0000 0.0000 0.0000 36.8525 0.0000 0.0000
# 5 0.0000 0.0000 0.0000 0.0000 -21.0553 0.0000
# 6 0.0000 0.0000 0.0000 0.0000 0.0000 -38.0888
#
#
#
# Elastic Compliance Matrix: (Units=1/GPa)
#
#
# Indices 1 2 3 4 5 6 
#
# 1 0.018577 0.001478 0.000680 0.000000 0.000000 0.000000
# 2 0.001478 0.020624 -0.004174 0.000000 0.000000 0.000000
# 3 0.000680 -0.004174 0.006682 0.000000 0.000000 0.000000
# 4 0.000000 0.000000 0.000000 0.027135 0.000000 0.000000
# 5 0.000000 0.000000 0.000000 0.000000 -0.047494 0.000000
# 6 0.000000 0.000000 0.000000 0.000000 0.000000 -0.026254
#
#
# Mechanical properties :
#
#
# Convention : Reuss Voigt Hill
#
# Bulk Modulus (GPa) = 23.89462 36.11303 30.00382
# Shear Modulus (GPa) = 289.81832 13.06732 151.44282
#
# Velocity S-wave (km/s) = 11.52059 2.44627 8.32791
# Velocity P-wave (km/s) = 13.70796 4.95148 10.30595
#
# Compressibility (1/GPa) = 0.04185043
#
# Stress axis : x y z
#
# Youngs Moduli (GPa) = 53.83016 48.48752 149.65454
#
# Poissons Ratio (x) = -0.07168 -0.10176
# Poissons Ratio (y) = -0.07958 0.62473
# Poissons Ratio (z) = -0.03660 0.20241
#
# Static dielectric constant tensor:
#      x y z
#    x 1.895520 0.000000 0.000000 
#    y 0.000000 1.730670 0.000000 
#    z 0.000000 0.000000 1.821270 
# 
# From -- ./inp_files/46479.got.cif
#   From: 2010.05.17/outbox.cif.g08.bks.cpg/sg74_24_cif.got.tgz:46479.got - 2010.06.03 17:57:02.
