data_PCOD9536984
_publ_section_title
;
Structure prediction by ZEFSAII (Michael W. Deem and Ramdas Pophale) SiO2 
 PCOD9536984
Probable space group: I M M A
;
_chemical_formula_sum "Si O2"
_cell_formula_units_Z 104
_cell_length_a 8.502121
_cell_length_b 32.724641
_cell_length_c 21.449703
_cell_angle_alpha 90.000000
_cell_angle_beta 90.000000
_cell_angle_gamma 90.000000
_cell_volume 5967.926359
_symmetry_space_group_name_H-M "I M M A"
_symmetry_group_IT_number 74
_symmetry_cell_setting 'orthorhombic'
loop_
_space_group_symop_operation_xyz
x,y,z
-x,1/2-y,z
x,-y,-z
-x,1/2+y,-z
-x,-y,-z
x,1/2+y,-z
-x,y,z
x,1/2-y,z
1/2+x,1/2+y,1/2+z
1/2-x,-y,1/2+z
1/2+x,1/2-y,1/2-z
1/2-x,y,1/2-z
1/2-x,1/2-y,1/2-z
1/2+x,y,1/2-z
1/2-x,1/2+y,1/2+z
1/2+x,-y,1/2+z
loop_
_atom_site_type_symbol
_atom_site_label
_atom_site_fract_x
_atom_site_fract_y
_atom_site_fract_z
Si Si1 0.188166 0.750000 0.318343
Si Si2 0.188406 0.963374 0.181929
Si Si3 0.812707 0.794889 0.949289
Si Si4 0.686268 0.591202 0.068759
Si Si5 0.187886 0.685404 0.416856
Si Si6 0.689679 0.558028 0.682925
Si Si7 0.809423 0.112921 0.066764
O O1 0.250000 0.750000 0.250000
O O2 0.238754 0.710587 0.357158
O O3 0.000000 0.750000 0.316835
O O4 0.250000 0.948756 0.250000
O O5 0.244213 0.938622 0.121156
O O6 0.000000 0.962194 0.183920
O O7 0.240560 0.010782 0.175313
O O8 0.751648 0.750000 0.927457
O O9 0.753481 0.839641 0.926540
O O10 0.000000 0.794572 0.938503
O O11 0.776881 0.798134 0.022741
O O12 0.500000 0.584031 0.064619
O O13 0.714890 0.637587 0.091201
O O14 0.754293 0.592490 0.998297
O O15 0.000000 0.691551 0.427304
O O16 0.500000 0.558418 0.683570
O O17 0.750000 0.572598 0.750000
O O18 0.742314 0.585974 0.625493
O O19 0.000000 0.113852 0.065044
#
# Coordination Sequence:
#
# PCOD9536984 Si02
#       7
#     8  16  16  16  16  16  16
#     4  10  20  32  44  60  84 118 157 196 235 278
#     4  10  20  35  53  72  96 131 171 209 251 299
#     4   9  16  27  48  74  96 121 156 195 237 287
#     4  10  20  33  50  75 102 129 165 208 251 296
#     4   9  18  32  47  63  89 123 157 195 241 286
#     4   9  19  35  55  75  98 131 168 204 247 300
#     4   9  18  33  51  75 104 132 164 204 251 298
#
# _framework density 17.426489
#
# number of rings (size 3 to 8) (size 9 to 14) (size 15 to 20)
#    0.000    2.615    0.769    0.923    0.000    3.692 
#    0.000    4.615    0.000    0.462    0.000    0.000 
#    0.000    0.000    0.000    0.000    0.000    0.000 
#
# Total GULP energy -289612.428301 kJ/mol
# GULP energy per Si atom -5569.469775 kJ/mol
# Density = 1.738683 g / cm^3
# Si number density = 17.426489 Si / 1000 Ang^3
#
#
#
# Elastic Constant Matrix: (Units=GPa)
#
#
# Indices 1 2 3 4 5 6 
#
# 1 12.0334 27.2817 27.2461 0.0000 0.0000 0.0000
# 2 27.2817 96.1125 79.9370 0.0000 0.0000 0.0000
# 3 27.2461 79.9370 134.6372 0.0000 0.0000 0.0000
# 4 0.0000 0.0000 0.0000 38.4086 0.0000 0.0000
# 5 0.0000 0.0000 0.0000 0.0000 25.4574 0.0000
# 6 0.0000 0.0000 0.0000 0.0000 0.0000 15.3699
#
#
#
# Elastic Compliance Matrix: (Units=1/GPa)
#
#
# Indices 1 2 3 4 5 6 
#
# 1 0.250947 -0.057280 -0.016775 0.000000 0.000000 0.000000
# 2 -0.057280 0.033629 -0.008374 0.000000 0.000000 0.000000
# 3 -0.016775 -0.008374 0.015794 0.000000 0.000000 0.000000
# 4 0.000000 0.000000 0.000000 0.026036 0.000000 0.000000
# 5 0.000000 0.000000 0.000000 0.000000 0.039281 0.000000
# 6 0.000000 0.000000 0.000000 0.000000 0.000000 0.065062
#
#
# Mechanical properties :
#
#
# Convention : Reuss Voigt Hill
#
# Bulk Modulus (GPa) = 7.37949 56.85696 32.11822
# Shear Modulus (GPa) = 7.80302 23.06841 15.43571
#
# Velocity S-wave (km/s) = 2.11835 3.64229 2.97940
# Velocity P-wave (km/s) = 3.19797 7.09831 5.50513
#
# Compressibility (1/GPa) = 0.13551065
#
# Stress axis : x y z
#
# Youngs Moduli (GPa) = 3.98491 29.73657 63.31473
#
# Poissons Ratio (x) = 1.70331 1.06209
# Poissons Ratio (y) = 0.22826 0.53023
# Poissons Ratio (z) = 0.06685 0.24903
#
# Static dielectric constant tensor:
#      x y z
#    x 1.603350 0.000000 0.000000 
#    y 0.000000 1.677700 0.000000 
#    z 0.000000 0.000000 1.558660 
# 
# From -- ./inp_files/49613.got.cif
#   From: 2010.05.17/outbox.cif.g08.bks.cpg/sg74_25_cif.got.tgz:49613.got - 2010.06.03 17:57:02.
