data_PCOD9536012
_publ_section_title
;
Structure prediction by ZEFSAII (Michael W. Deem and Ramdas Pophale) SiO2 
 PCOD9536012
Probable space group: I M M A
;
_chemical_formula_sum "Si O2"
_cell_formula_units_Z 96
_cell_length_a 20.058836
_cell_length_b 9.309336
_cell_length_c 27.020506
_cell_angle_alpha 90.000000
_cell_angle_beta 90.000000
_cell_angle_gamma 90.000000
_cell_volume 5045.659167
_symmetry_space_group_name_H-M "I M M A"
_symmetry_group_IT_number 74
_symmetry_cell_setting 'orthorhombic'
loop_
_space_group_symop_operation_xyz
x,y,z
-x,1/2-y,z
x,-y,-z
-x,1/2+y,-z
-x,-y,-z
x,1/2+y,-z
-x,y,z
x,1/2-y,z
1/2+x,1/2+y,1/2+z
1/2-x,-y,1/2+z
1/2+x,1/2-y,1/2-z
1/2-x,y,1/2-z
1/2-x,1/2-y,1/2-z
1/2+x,y,1/2-z
1/2-x,1/2+y,1/2+z
1/2+x,-y,1/2+z
loop_
_atom_site_type_symbol
_atom_site_label
_atom_site_fract_x
_atom_site_fract_y
_atom_site_fract_z
Si Si1 0.811534 0.077592 0.447919
Si Si2 0.926248 0.511911 0.716891
Si Si3 0.217224 0.902705 0.696557
Si Si4 0.576370 0.410193 0.891140
Si Si5 0.926280 0.578854 0.169353
Si Si6 0.289601 0.578328 0.381200
O O1 0.809298 0.250000 0.451518
O O2 0.824070 0.000000 0.500000
O O3 0.871617 0.025493 0.411887
O O4 0.743192 0.010393 0.425810
O O5 0.860989 0.601657 0.705971
O O6 0.925599 0.410241 0.668677
O O7 0.917092 0.447640 0.771805
O O8 0.000000 0.579980 0.716781
O O9 0.238186 0.750000 0.672766
O O10 0.250000 0.912845 0.750000
O O11 0.241324 0.036135 0.664436
O O12 0.500000 0.439655 0.907273
O O13 0.595911 0.250000 0.908160
O O14 0.927952 0.750000 0.162791
O O15 0.863154 0.529614 0.137034
O O16 0.000000 0.520668 0.155976
O O17 0.288961 0.750000 0.390097
#
# Coordination Sequence:
#
# PCOD9536012 Si02
#       6
#    16  16  16  16  16  16
#     4  12  26  44  65  87 113 147 191 247 303 358
#     4  10  19  32  53  83 122 166 206 238 275 330
#     4  11  22  35  51  79 120 160 200 246 291 340
#     4  10  21  37  59  88 122 159 201 246 289 339
#     4   9  18  33  55  87 124 160 196 234 279 337
#     4  11  22  37  61  88 115 151 194 240 294 352
#
# _framework density 19.026254999999999
#
# number of rings (size 3 to 8) (size 9 to 14) (size 15 to 20)
#    0.000    1.500    3.333    2.500    0.000    4.000 
#    0.000    1.667    0.000    2.500    0.000    0.000 
#    0.000    0.000    0.000    0.000    0.000    0.000 
#
# Total GULP energy -267451.288169 kJ/mol
# GULP energy per Si atom -5571.901837 kJ/mol
# Density = 1.898295 g / cm^3
# Si number density = 19.026255 Si / 1000 Ang^3
#
#
#
# Elastic Constant Matrix: (Units=GPa)
#
#
# Indices 1 2 3 4 5 6 
#
# 1 129.7542 45.5796 31.6638 0.0000 0.0000 0.0000
# 2 45.5796 104.3731 30.8828 0.0000 0.0000 0.0000
# 3 31.6638 30.8828 58.1153 0.0000 0.0000 0.0000
# 4 0.0000 0.0000 0.0000 -332.9839 0.0000 0.0000
# 5 0.0000 0.0000 0.0000 0.0000 21.3742 0.0000
# 6 0.0000 0.0000 0.0000 0.0000 0.0000 19.4012
#
#
#
# Elastic Compliance Matrix: (Units=1/GPa)
#
#
# Indices 1 2 3 4 5 6 
#
# 1 0.009699 -0.003170 -0.003600 0.000000 0.000000 0.000000
# 2 -0.003170 0.012405 -0.004865 0.000000 0.000000 0.000000
# 3 -0.003600 -0.004865 0.021754 0.000000 0.000000 0.000000
# 4 0.000000 0.000000 0.000000 -0.003003 0.000000 0.000000
# 5 0.000000 0.000000 0.000000 0.000000 0.046785 0.000000
# 6 0.000000 0.000000 0.000000 0.000000 0.000000 0.051543
#
#
# Mechanical properties :
#
#
# Convention : Reuss Voigt Hill
#
# Bulk Modulus (GPa) = 48.57210 56.49946 52.53578
# Shear Modulus (GPa) = 29.53074 -46.16729 -8.31827
#
# Velocity S-wave (km/s) = 3.94395 -4.93130 -2.09320
# Velocity P-wave (km/s) = 6.80618 1.63206 4.67228
#
# Compressibility (1/GPa) = 0.02058795
#
# Stress axis : x y z
#
# Youngs Moduli (GPa) = 103.10330 80.61303 45.96958
#
# Poissons Ratio (x) = 0.25558 0.16547
# Poissons Ratio (y) = 0.32688 0.22363
# Poissons Ratio (z) = 0.37114 0.39215
#
# Static dielectric constant tensor:
#      x y z
#    x 1.707270 0.000000 0.000000 
#    y 0.000000 1.662360 0.000000 
#    z 0.000000 0.000000 1.665310 
# 
# From -- ./inp_files/64346.got.cif
#   From: 2010.05.17/outbox.cif.g08.bks.cpg/sg74_33_cif.got.tgz:64346.got - 2010.06.03 17:57:02.
