data_PCOD9536409
_publ_section_title
;
Structure prediction by ZEFSAII (Michael W. Deem and Ramdas Pophale) SiO2 
 PCOD9536409
Probable space group: I M M A
;
_chemical_formula_sum "Si O2"
_cell_formula_units_Z 96
_cell_length_a 8.824819
_cell_length_b 20.311381
_cell_length_c 30.169412
_cell_angle_alpha 90.000000
_cell_angle_beta 90.000000
_cell_angle_gamma 90.000000
_cell_volume 5407.693958
_symmetry_space_group_name_H-M "I M M A"
_symmetry_group_IT_number 74
_symmetry_cell_setting 'orthorhombic'
loop_
_space_group_symop_operation_xyz
x,y,z
-x,1/2-y,z
x,-y,-z
-x,1/2+y,-z
-x,-y,-z
x,1/2+y,-z
-x,y,z
x,1/2-y,z
1/2+x,1/2+y,1/2+z
1/2-x,-y,1/2+z
1/2+x,1/2-y,1/2-z
1/2-x,y,1/2-z
1/2-x,1/2-y,1/2-z
1/2+x,y,1/2-z
1/2-x,1/2+y,1/2+z
1/2+x,-y,1/2+z
loop_
_atom_site_type_symbol
_atom_site_label
_atom_site_fract_x
_atom_site_fract_y
_atom_site_fract_z
Si Si1 0.818726 0.454764 0.370540
Si Si2 0.318594 0.457890 0.957072
Si Si3 0.320245 0.544606 0.299042
Si Si4 0.681729 0.821893 0.200181
Si Si5 0.680970 0.823908 0.482962
Si Si6 0.180501 0.824561 0.580503
O O1 0.786371 0.500443 0.413195
O O2 0.730682 0.484171 0.329190
O O3 0.777000 0.380867 0.384887
O O4 0.000000 0.457427 0.362161
O O5 0.500000 0.450818 0.961025
O O6 0.247982 0.385479 0.956689
O O7 0.266436 0.500000 0.000000
O O8 0.500000 0.550207 0.295747
O O9 0.250000 0.538092 0.250000
O O10 0.252925 0.612337 0.319912
O O11 0.500000 0.828530 0.202479
O O12 0.716712 0.750000 0.179829
O O13 0.750000 0.820021 0.250000
O O14 0.500000 0.825848 0.481038
O O15 0.731358 0.750000 0.469172
O O16 0.735036 0.832802 0.533842
O O17 0.206515 0.750000 0.596259
O O18 0.000000 0.832464 0.571610
#
# Coordination Sequence:
#
# PCOD9536409 Si02
#       6
#    16  16  16  16  16  16
#     4  10  20  35  55  80 109 137 175 222 266 318
#     4  10  19  34  54  78 105 139 177 215 261 313
#     4  11  22  36  55  78 106 140 179 221 270 319
#     4   9  16  28  49  75 101 130 167 211 258 307
#     4  10  20  32  48  74 109 146 181 220 264 309
#     4   9  17  32  55  79 104 138 178 218 261 315
#
# _framework density 17.752483999999999
#
# number of rings (size 3 to 8) (size 9 to 14) (size 15 to 20)
#    0.000    2.167    1.667    3.500    0.000    3.667 
#    0.000    0.833    0.000    1.500    0.000    0.000 
#    0.000    0.000    0.000    0.000    0.000    0.000 
#
# Total GULP energy -267766.249757 kJ/mol
# GULP energy per Si atom -5578.463537 kJ/mol
# Density = 1.771208 g / cm^3
# Si number density = 17.752484 Si / 1000 Ang^3
#
#
#
# Elastic Constant Matrix: (Units=GPa)
#
#
# Indices 1 2 3 4 5 6 
#
# 1 58.3441 48.2380 29.4669 0.0000 0.0000 0.0000
# 2 48.2380 139.9979 33.9386 0.0000 0.0000 0.0000
# 3 29.4669 33.9386 36.8662 0.0000 0.0000 0.0000
# 4 0.0000 0.0000 0.0000 21.1103 0.0000 0.0000
# 5 0.0000 0.0000 0.0000 0.0000 19.4636 0.0000
# 6 0.0000 0.0000 0.0000 0.0000 0.0000 20.7858
#
#
#
# Elastic Compliance Matrix: (Units=1/GPa)
#
#
# Indices 1 2 3 4 5 6 
#
# 1 0.032580 -0.006324 -0.020219 0.000000 0.000000 0.000000
# 2 -0.006324 0.010423 -0.004540 0.000000 0.000000 0.000000
# 3 -0.020219 -0.004540 0.047465 0.000000 0.000000 0.000000
# 4 0.000000 0.000000 0.000000 0.047370 0.000000 0.000000
# 5 0.000000 0.000000 0.000000 0.000000 0.051378 0.000000
# 6 0.000000 0.000000 0.000000 0.000000 0.000000 0.048110
#
#
# Mechanical properties :
#
#
# Convention : Reuss Voigt Hill
#
# Bulk Modulus (GPa) = 35.33363 50.94393 43.13878
# Shear Modulus (GPa) = 16.18504 20.50958 18.34731
#
# Velocity S-wave (km/s) = 3.02272 3.40267 3.21831
# Velocity P-wave (km/s) = 5.66826 6.64805 6.17761
#
# Compressibility (1/GPa) = 0.02830165
#
# Stress axis : x y z
#
# Youngs Moduli (GPa) = 30.69334 95.94442 21.06797
#
# Poissons Ratio (x) = 0.60679 0.42597
# Poissons Ratio (y) = 0.19412 0.09565
# Poissons Ratio (z) = 0.62059 0.43558
#
# Static dielectric constant tensor:
#      x y z
#    x 1.597060 0.000000 0.000000 
#    y 0.000000 1.647090 0.000000 
#    z 0.000000 0.000000 1.588700 
# 
# From -- ./inp_files/64330.got.cif
#   From: 2010.05.17/outbox.cif.g08.bks.cpg/sg74_33_cif.got.tgz:64330.got - 2010.06.03 17:57:02.
