data_PCOD9536581
_publ_section_title
;
Structure prediction by ZEFSAII (Michael W. Deem and Ramdas Pophale) SiO2 
 PCOD9536581
Probable space group: I M M A
;
_chemical_formula_sum "Si O2"
_cell_formula_units_Z 80
_cell_length_a 13.810992
_cell_length_b 14.698611
_cell_length_c 14.918999
_cell_angle_alpha 90.000000
_cell_angle_beta 90.000000
_cell_angle_gamma 90.000000
_cell_volume 3028.592587
_symmetry_space_group_name_H-M "I M M A"
_symmetry_group_IT_number 74
_symmetry_cell_setting 'orthorhombic'
loop_
_space_group_symop_operation_xyz
x,y,z
-x,1/2-y,z
x,-y,-z
-x,1/2+y,-z
-x,-y,-z
x,1/2+y,-z
-x,y,z
x,1/2-y,z
1/2+x,1/2+y,1/2+z
1/2-x,-y,1/2+z
1/2+x,1/2-y,1/2-z
1/2-x,y,1/2-z
1/2-x,1/2-y,1/2-z
1/2+x,y,1/2-z
1/2-x,1/2+y,1/2+z
1/2+x,-y,1/2+z
loop_
_atom_site_type_symbol
_atom_site_label
_atom_site_fract_x
_atom_site_fract_y
_atom_site_fract_z
Si Si1 0.682392 0.118533 0.933021
Si Si2 0.116471 0.917554 0.615438
Si Si3 0.387716 0.644287 0.507338
Si Si4 0.390614 0.055264 0.309410
Si Si5 0.365716 0.152578 0.746011
O O1 0.617392 0.157488 0.852928
O O2 0.665167 0.012963 0.910615
O O3 0.644561 0.144143 0.031490
O O4 0.798306 0.137199 0.937288
O O5 0.148992 0.900370 0.717551
O O6 0.000000 0.927980 0.616333
O O7 0.500000 0.618968 0.480122
O O8 0.391487 0.750000 0.534151
O O9 0.354728 0.583476 0.592538
O O10 0.500000 0.089854 0.314654
O O11 0.394549 0.946410 0.290913
O O12 0.397509 0.250000 0.705485
O O13 0.250000 0.150526 0.750000
#
# Coordination Sequence:
#
# PCOD9536581 Si02
#       5
#    16  16  16  16  16
#     4  10  19  34  62  91 120 162 209 256 315 379
#     4   9  19  36  60  92 128 164 202 255 315 382
#     4  10  22  40  62  92 131 171 213 263 316 375
#     4   9  20  38  61  88 124 166 206 252 313 377
#     4  10  22  38  59  85 120 159 204 257 313 373
#
# _framework density 26.414909000000002
#
# number of rings (size 3 to 8) (size 9 to 14) (size 15 to 20)
#    0.000    2.400    0.000    1.800    8.400    1.200 
#    0.000    6.000    0.000   10.800    0.000    0.000 
#    0.000    0.000    0.000    0.000    0.000    0.000 
#
# Total GULP energy -223174.634919 kJ/mol
# GULP energy per Si atom -5579.365873 kJ/mol
# Density = 2.635479 g / cm^3
# Si number density = 26.414909 Si / 1000 Ang^3
#
#
#
# Elastic Constant Matrix: (Units=GPa)
#
#
# Indices 1 2 3 4 5 6 
#
# 1 165.3682 15.2391 29.9121 0.0000 0.0000 0.0000
# 2 15.2391 96.9495 33.2890 0.0000 0.0000 0.0000
# 3 29.9121 33.2890 142.5284 0.0000 0.0000 0.0000
# 4 0.0000 0.0000 0.0000 28.0123 0.0000 0.0000
# 5 0.0000 0.0000 0.0000 0.0000 26.6966 0.0000
# 6 0.0000 0.0000 0.0000 0.0000 0.0000 10.6525
#
#
#
# Elastic Compliance Matrix: (Units=1/GPa)
#
#
# Indices 1 2 3 4 5 6 
#
# 1 0.006316 -0.000585 -0.001189 0.000000 0.000000 0.000000
# 2 -0.000585 0.011268 -0.002509 0.000000 0.000000 0.000000
# 3 -0.001189 -0.002509 0.007852 0.000000 0.000000 0.000000
# 4 0.000000 0.000000 0.000000 0.035699 0.000000 0.000000
# 5 0.000000 0.000000 0.000000 0.000000 0.037458 0.000000
# 6 0.000000 0.000000 0.000000 0.000000 0.000000 0.093875
#
#
# Mechanical properties :
#
#
# Convention : Reuss Voigt Hill
#
# Bulk Modulus (GPa) = 59.27494 62.41405 60.84449
# Shear Modulus (GPa) = 24.19481 34.83266 29.51374
#
# Velocity S-wave (km/s) = 3.02975 3.63530 3.34625
# Velocity P-wave (km/s) = 5.89304 6.42652 6.16555
#
# Compressibility (1/GPa) = 0.01687054
#
# Stress axis : x y z
#
# Youngs Moduli (GPa) = 158.32688 88.74642 127.36079
#
# Poissons Ratio (x) = 0.05187 0.15143
# Poissons Ratio (y) = 0.09255 0.31956
# Poissons Ratio (z) = 0.18825 0.22267
#
# Static dielectric constant tensor:
#      x y z
#    x 2.064840 0.000000 0.000000 
#    y 0.000000 2.064770 0.000000 
#    z 0.000000 0.000000 2.326610 
# 
# From -- ./inp_files/42660.got.cif
#   From: 2010.05.17/outbox.cif.g08.bks.cpg/sg74_22_cif.got.tgz:42660.got - 2010.06.03 17:57:02.
