data_PCOD9536165
_publ_section_title
;
Structure prediction by ZEFSAII (Michael W. Deem and Ramdas Pophale) SiO2 
 PCOD9536165
Probable space group: I M M A
;
_chemical_formula_sum "Si O2"
_cell_formula_units_Z 100
_cell_length_a 24.296165
_cell_length_b 7.718910
_cell_length_c 29.821259
_cell_angle_alpha 90.000000
_cell_angle_beta 90.000000
_cell_angle_gamma 90.000000
_cell_volume 5592.676258
_symmetry_space_group_name_H-M "I M M A"
_symmetry_group_IT_number 74
_symmetry_cell_setting 'orthorhombic'
loop_
_space_group_symop_operation_xyz
x,y,z
-x,1/2-y,z
x,-y,-z
-x,1/2+y,-z
-x,-y,-z
x,1/2+y,-z
-x,y,z
x,1/2-y,z
1/2+x,1/2+y,1/2+z
1/2-x,-y,1/2+z
1/2+x,1/2-y,1/2-z
1/2-x,y,1/2-z
1/2-x,1/2-y,1/2-z
1/2+x,y,1/2-z
1/2-x,1/2+y,1/2+z
1/2+x,-y,1/2+z
loop_
_atom_site_type_symbol
_atom_site_label
_atom_site_fract_x
_atom_site_fract_y
_atom_site_fract_z
Si Si1 0.320803 0.543561 0.951040
Si Si2 0.420367 0.049790 0.730765
Si Si3 0.558966 0.547106 0.929014
Si Si4 0.500000 0.750000 0.700643
Si Si5 0.781371 0.547610 0.355748
Si Si6 0.297290 0.949484 0.716973
Si Si7 0.903830 0.958951 0.332226
O O1 0.323544 0.750000 0.945598
O O2 0.383711 0.471825 0.947354
O O3 0.286727 0.474031 0.909044
O O4 0.298842 0.500000 0.000000
O O5 0.437872 0.250000 0.724760
O O6 0.427435 0.000618 0.783518
O O7 0.452491 0.904733 0.703365
O O8 0.355215 0.042620 0.721028
O O9 0.500000 0.469963 0.942783
O O10 0.558175 0.750000 0.941073
O O11 0.564795 0.532629 0.875118
O O12 0.777353 0.750000 0.345051
O O13 0.730328 0.458149 0.331902
O O14 0.840099 0.482348 0.336276
O O15 0.306839 0.750000 0.729923
O O16 0.250000 0.021537 0.750000
O O17 0.904123 0.750000 0.336759
#
# Coordination Sequence:
#
# PCOD9536165 Si02
#       7
#    16  16  16   4  16  16  16
#     4  10  20  35  51  70  96 129 170 216 273 337
#     4  11  23  38  55  76 106 147 189 234 277 330
#     4   9  19  31  46  64  88 125 173 225 272 319
#     4  12  26  40  50  74 104 152 198 226 276 326
#     4  10  19  33  53  76 103 133 171 218 274 335
#     4  11  21  34  56  84 112 142 181 230 283 334
#     4   9  19  31  45  69  98 129 171 224 278 323
#
# _framework density 17.880528000000002
#
# number of rings (size 3 to 8) (size 9 to 14) (size 15 to 20)
#    0.000    1.920    2.400    1.680    2.240    2.560 
#    0.000    0.000    0.000    0.000    0.000    0.000 
#    0.000    0.000    0.000    0.720    4.160    1.280 
#
# Total GULP energy -278657.473800 kJ/mol
# GULP energy per Si atom -5573.149476 kJ/mol
# Density = 1.783983 g / cm^3
# Si number density = 17.880528 Si / 1000 Ang^3
#
#
#
# Elastic Constant Matrix: (Units=GPa)
#
#
# Indices 1 2 3 4 5 6 
#
# 1 89.6117 18.6757 19.7000 0.0000 0.0000 0.0000
# 2 18.6757 70.4437 -1.4667 0.0000 0.0000 0.0000
# 3 19.7000 -1.4667 60.4604 0.0000 0.0000 0.0000
# 4 0.0000 0.0000 0.0000 15.5143 0.0000 0.0000
# 5 0.0000 0.0000 0.0000 0.0000 -7.8824 0.0000
# 6 0.0000 0.0000 0.0000 0.0000 0.0000 31.0266
#
#
#
# Elastic Compliance Matrix: (Units=1/GPa)
#
#
# Indices 1 2 3 4 5 6 
#
# 1 0.012823 -0.003488 -0.004263 0.000000 0.000000 0.000000
# 2 -0.003488 0.015152 0.001504 0.000000 0.000000 0.000000
# 3 -0.004263 0.001504 0.017965 0.000000 0.000000 0.000000
# 4 0.000000 0.000000 0.000000 0.064457 0.000000 0.000000
# 5 0.000000 0.000000 0.000000 0.000000 -0.126864 0.000000
# 6 0.000000 0.000000 0.000000 0.000000 0.000000 0.032230
#
#
# Mechanical properties :
#
#
# Convention : Reuss Voigt Hill
#
# Bulk Modulus (GPa) = 29.89870 32.70375 31.30123
# Shear Modulus (GPa) = 126.88301 19.97214 73.42758
#
# Velocity S-wave (km/s) = 8.43301 3.34575 6.41520
# Velocity P-wave (km/s) = 10.56307 5.76673 8.50981
#
# Compressibility (1/GPa) = 0.03344627
#
# Stress axis : x y z
#
# Youngs Moduli (GPa) = 77.98229 65.99835 55.66298
#
# Poissons Ratio (x) = 0.23023 0.23729
# Poissons Ratio (y) = 0.27204 -0.08373
# Poissons Ratio (z) = 0.33243 -0.09928
#
# Static dielectric constant tensor:
#      x y z
#    x 1.632120 0.000000 0.000000 
#    y 0.000000 1.640300 0.000000 
#    z 0.000000 0.000000 1.618920 
# 
# From -- ./inp_files/73342.got.cif
#   From: 2010.05.17/outbox.cif.g08.bks.cpg/sg74_37_cif.got.tgz:73342.got - 2010.06.03 17:57:02.
