data_PCOD9536619
_publ_section_title
;
Structure prediction by ZEFSAII (Michael W. Deem and Ramdas Pophale) SiO2 
 PCOD9536619
Probable space group: I M M A
;
_chemical_formula_sum "Si O2"
_cell_formula_units_Z 120
_cell_length_a 8.741384
_cell_length_b 28.306931
_cell_length_c 26.306828
_cell_angle_alpha 90.000000
_cell_angle_beta 90.000000
_cell_angle_gamma 90.000000
_cell_volume 6509.407655
_symmetry_space_group_name_H-M "I M M A"
_symmetry_group_IT_number 74
_symmetry_cell_setting 'orthorhombic'
loop_
_space_group_symop_operation_xyz
x,y,z
-x,1/2-y,z
x,-y,-z
-x,1/2+y,-z
-x,-y,-z
x,1/2+y,-z
-x,y,z
x,1/2-y,z
1/2+x,1/2+y,1/2+z
1/2-x,-y,1/2+z
1/2+x,1/2-y,1/2-z
1/2-x,y,1/2-z
1/2-x,1/2-y,1/2-z
1/2+x,y,1/2-z
1/2-x,1/2+y,1/2+z
1/2+x,-y,1/2+z
loop_
_atom_site_type_symbol
_atom_site_label
_atom_site_fract_x
_atom_site_fract_y
_atom_site_fract_z
Si Si1 0.182308 0.250000 0.306617
Si Si2 0.814874 0.967701 0.385263
Si Si3 0.818244 0.897370 0.193480
Si Si4 0.816475 0.100537 0.523080
Si Si5 0.816040 0.197574 0.002646
Si Si6 0.183443 0.301450 0.692467
Si Si7 0.184405 0.425126 0.407728
Si Si8 0.182836 0.171953 0.119474
O O1 0.250000 0.250000 0.250000
O O2 0.240228 0.204794 0.338554
O O3 0.000000 0.250000 0.304162
O O4 0.739563 0.941853 0.337912
O O5 0.768296 0.936840 0.434416
O O6 0.000000 0.965471 0.381436
O O7 0.772052 0.022427 0.390596
O O8 0.750000 0.900095 0.250000
O O9 0.753935 0.848652 0.168977
O O10 0.000000 0.894896 0.195773
O O11 0.750376 0.153199 0.527661
O O12 0.774142 0.081645 0.467095
O O13 0.000000 0.103750 0.525015
O O14 0.764148 0.250000 0.986933
O O15 0.775329 0.189890 0.062407
O O16 0.000000 0.196025 0.999572
O O17 0.220818 0.250000 0.669295
O O18 0.250000 0.300204 0.750000
O O19 0.000000 0.305933 0.694790
O O20 0.262472 0.382165 0.378052
O O21 0.000000 0.420622 0.403746
O O22 0.000000 0.175354 0.124053
#
# Coordination Sequence:
#
# PCOD9536619 Si02
#       8
#     8  16  16  16  16  16  16  16
#     4  12  24  38  58  84 116 152 190 234 281 334
#     4  10  20  36  56  78 111 146 180 227 276 324
#     4  11  22  36  55  77 103 136 179 222 267 323
#     4   9  18  32  53  82 110 141 181 225 273 323
#     4   9  17  31  51  76 110 149 183 221 272 328
#     4   9  16  28  49  75 100 126 161 206 256 307
#     4   9  18  34  57  84 110 142 183 225 273 327
#     4  10  19  35  56  81 112 145 183 227 275 328
#
# _framework density 18.434857999999998
#
# number of rings (size 3 to 8) (size 9 to 14) (size 15 to 20)
#    0.000    2.267    0.667    3.800    0.000    4.267 
#    0.000    1.333    0.000    8.000    0.000    0.000 
#    0.000    0.000    0.000    0.000    0.000    0.000 
#
# Total GULP energy -334825.356274 kJ/mol
# GULP energy per Si atom -5580.422605 kJ/mol
# Density = 1.839290 g / cm^3
# Si number density = 18.434858 Si / 1000 Ang^3
#
#
#
# Elastic Constant Matrix: (Units=GPa)
#
#
# Indices 1 2 3 4 5 6 
#
# 1 57.5155 57.1980 31.3178 0.0000 0.0000 0.0000
# 2 57.1980 193.1550 57.0801 0.0000 0.0000 0.0000
# 3 31.3178 57.0801 61.5872 0.0000 0.0000 0.0000
# 4 0.0000 0.0000 0.0000 14.1286 0.0000 0.0000
# 5 0.0000 0.0000 0.0000 0.0000 19.5387 0.0000
# 6 0.0000 0.0000 0.0000 0.0000 0.0000 28.5668
#
#
#
# Elastic Compliance Matrix: (Units=1/GPa)
#
#
# Indices 1 2 3 4 5 6 
#
# 1 0.027831 -0.005590 -0.008971 0.000000 0.000000 0.000000
# 2 -0.005590 0.008253 -0.004806 0.000000 0.000000 0.000000
# 3 -0.008971 -0.004806 0.025254 0.000000 0.000000 0.000000
# 4 0.000000 0.000000 0.000000 0.070779 0.000000 0.000000
# 5 0.000000 0.000000 0.000000 0.000000 0.051180 0.000000
# 6 0.000000 0.000000 0.000000 0.000000 0.000000 0.035006
#
#
# Mechanical properties :
#
#
# Convention : Reuss Voigt Hill
#
# Bulk Modulus (GPa) = 44.24375 67.04994 55.64685
# Shear Modulus (GPa) = 18.89847 23.55760 21.22803
#
# Velocity S-wave (km/s) = 3.20527 3.57863 3.39708
# Velocity P-wave (km/s) = 6.14414 7.31612 6.75560
#
# Compressibility (1/GPa) = 0.02260206
#
# Stress axis : x y z
#
# Youngs Moduli (GPa) = 35.93116 121.16911 39.59840
#
# Poissons Ratio (x) = 0.67738 0.35524
# Poissons Ratio (y) = 0.20087 0.19032
# Poissons Ratio (z) = 0.32234 0.58236
#
# Static dielectric constant tensor:
#      x y z
#    x 1.619520 0.000000 0.000000 
#    y 0.000000 1.650770 0.000000 
#    z 0.000000 0.000000 1.627520 
# 
# From -- ./inp_files/65064.got.cif
#   From: 2010.05.17/outbox.cif.g08.bks.cpg/sg74_33_cif.got.tgz:65064.got - 2010.06.03 17:57:02.
