data_PCOD9536006
_publ_section_title
;
Structure prediction by ZEFSAII (Michael W. Deem and Ramdas Pophale) SiO2 
 PCOD9536006
Probable space group: I M M A
;
_chemical_formula_sum "Si O2"
_cell_formula_units_Z 88
_cell_length_a 13.313563
_cell_length_b 22.374331
_cell_length_c 16.099870
_cell_angle_alpha 90.000000
_cell_angle_beta 90.000000
_cell_angle_gamma 90.000000
_cell_volume 4795.862527
_symmetry_space_group_name_H-M "I M M A"
_symmetry_group_IT_number 74
_symmetry_cell_setting 'orthorhombic'
loop_
_space_group_symop_operation_xyz
x,y,z
-x,1/2-y,z
x,-y,-z
-x,1/2+y,-z
-x,-y,-z
x,1/2+y,-z
-x,y,z
x,1/2-y,z
1/2+x,1/2+y,1/2+z
1/2-x,-y,1/2+z
1/2+x,1/2-y,1/2-z
1/2-x,y,1/2-z
1/2-x,1/2-y,1/2-z
1/2+x,y,1/2-z
1/2-x,1/2+y,1/2+z
1/2+x,-y,1/2+z
loop_
_atom_site_type_symbol
_atom_site_label
_atom_site_fract_x
_atom_site_fract_y
_atom_site_fract_z
Si Si1 0.176760 0.091700 0.376147
Si Si2 0.213407 0.318137 0.844810
Si Si3 0.111766 0.564138 0.807721
Si Si4 0.613559 0.679239 0.019351
Si Si5 0.727957 0.000000 0.000000
Si Si6 0.113513 0.437908 0.888560
O O1 0.123970 0.083249 0.287818
O O2 0.296218 0.094126 0.356551
O O3 0.141697 0.144902 0.434986
O O4 0.163138 0.032094 0.430595
O O5 0.177666 0.250000 0.862703
O O6 0.250000 0.319007 0.750000
O O7 0.306152 0.331294 0.907408
O O8 0.134958 0.371838 0.855523
O O9 0.124229 0.492359 0.821860
O O10 0.000000 0.579638 0.837571
O O11 0.500000 0.661928 0.044423
O O12 0.614556 0.750000 0.003601
O O13 0.803192 0.047006 0.957251
O O14 0.000000 0.441917 0.921359
#
# Coordination Sequence:
#
# PCOD9536006 Si02
#       6
#    16  16  16  16   8  16
#     4  10  19  35  59  82 114 147 187 234 276 331
#     4  10  22  38  56  79 112 149 188 233 277 326
#     4   9  20  35  55  83 117 153 182 224 285 337
#     4  10  21  39  61  83 110 147 189 233 283 335
#     4  10  19  32  53  82 110 142 181 230 277 328
#     4  10  20  34  55  79 111 148 184 223 275 335
#
# _framework density 18.349150000000002
#
# number of rings (size 3 to 8) (size 9 to 14) (size 15 to 20)
#    0.000    2.182    1.818    0.818    5.091    1.818 
#    0.000    7.273    0.000    1.636    0.000    0.000 
#    0.000    0.000    0.000    0.000    0.000    0.000 
#
# Total GULP energy -245241.632254 kJ/mol
# GULP energy per Si atom -5573.673460 kJ/mol
# Density = 1.830739 g / cm^3
# Si number density = 18.349150 Si / 1000 Ang^3
#
#
#
# Elastic Constant Matrix: (Units=GPa)
#
#
# Indices 1 2 3 4 5 6 
#
# 1 64.3502 27.2664 3.0764 0.0000 0.0000 0.0000
# 2 27.2664 60.0419 18.2784 0.0000 0.0000 0.0000
# 3 3.0764 18.2784 80.4759 0.0000 0.0000 0.0000
# 4 0.0000 0.0000 0.0000 30.6541 0.0000 0.0000
# 5 0.0000 0.0000 0.0000 0.0000 3.9770 0.0000
# 6 0.0000 0.0000 0.0000 0.0000 0.0000 23.1976
#
#
#
# Elastic Compliance Matrix: (Units=1/GPa)
#
#
# Indices 1 2 3 4 5 6 
#
# 1 0.019378 -0.009212 0.001351 0.000000 0.000000 0.000000
# 2 -0.009212 0.022271 -0.004706 0.000000 0.000000 0.000000
# 3 0.001351 -0.004706 0.013443 0.000000 0.000000 0.000000
# 4 0.000000 0.000000 0.000000 0.032622 0.000000 0.000000
# 5 0.000000 0.000000 0.000000 0.000000 0.251443 0.000000
# 6 0.000000 0.000000 0.000000 0.000000 0.000000 0.043108
#
#
# Mechanical properties :
#
#
# Convention : Reuss Voigt Hill
#
# Bulk Modulus (GPa) = 33.37793 33.56783 33.47288
# Shear Modulus (GPa) = 11.97935 21.98221 16.98078
#
# Velocity S-wave (km/s) = 2.55788 3.46496 3.04538
# Velocity P-wave (km/s) = 5.19168 5.86017 5.53603
#
# Compressibility (1/GPa) = 0.02995992
#
# Stress axis : x y z
#
# Youngs Moduli (GPa) = 51.60359 44.90149 74.38628
#
# Poissons Ratio (x) = 0.41362 -0.10053
# Poissons Ratio (y) = 0.47535 0.35008
# Poissons Ratio (z) = -0.06974 0.21132
#
# Static dielectric constant tensor:
#      x y z
#    x 1.646870 0.000000 0.000000 
#    y 0.000000 1.639910 0.000000 
#    z 0.000000 0.000000 1.623520 
# 
# From -- ./inp_files/32225.got.cif
#   From: 2010.05.17/outbox.cif.g08.bks.cpg/sg74_17_cif.got.tgz:32225.got - 2010.06.03 17:57:02.
