data_PCOD9536223
_publ_section_title
;
Structure prediction by ZEFSAII (Michael W. Deem and Ramdas Pophale) SiO2 
 PCOD9536223
Probable space group: I M M A
;
_chemical_formula_sum "Si O2"
_cell_formula_units_Z 104
_cell_length_a 28.359358
_cell_length_b 9.261800
_cell_length_c 23.174650
_cell_angle_alpha 90.000000
_cell_angle_beta 90.000000
_cell_angle_gamma 90.000000
_cell_volume 6087.023487
_symmetry_space_group_name_H-M "I M M A"
_symmetry_group_IT_number 74
_symmetry_cell_setting 'orthorhombic'
loop_
_space_group_symop_operation_xyz
x,y,z
-x,1/2-y,z
x,-y,-z
-x,1/2+y,-z
-x,-y,-z
x,1/2+y,-z
-x,y,z
x,1/2-y,z
1/2+x,1/2+y,1/2+z
1/2-x,-y,1/2+z
1/2+x,1/2-y,1/2-z
1/2-x,y,1/2-z
1/2-x,1/2-y,1/2-z
1/2+x,y,1/2-z
1/2-x,1/2+y,1/2+z
1/2+x,-y,1/2+z
loop_
_atom_site_type_symbol
_atom_site_label
_atom_site_fract_x
_atom_site_fract_y
_atom_site_fract_z
Si Si1 0.946136 0.576783 0.061470
Si Si2 0.500000 0.079151 0.938842
Si Si3 0.307011 0.917404 0.252678
Si Si4 0.650358 0.077477 0.620933
Si Si5 0.897738 0.077841 0.561930
Si Si6 0.767175 0.079520 0.057818
Si Si7 0.821766 0.080768 0.361819
O O1 0.944850 0.750000 0.052916
O O2 0.904111 0.541800 0.106298
O O3 0.000000 0.539124 0.079671
O O4 0.937257 0.500000 0.000000
O O5 0.500000 0.250000 0.950124
O O6 0.550388 0.046370 0.911139
O O7 0.500000 0.000000 0.000000
O O8 0.319433 0.750000 0.239353
O O9 0.250000 0.925203 0.250000
O O10 0.330316 0.952517 0.314518
O O11 0.323546 0.024818 0.203148
O O12 0.656497 0.250000 0.612003
O O13 0.683904 0.991303 0.577360
O O14 0.892504 0.250000 0.554821
O O15 0.895593 0.000000 0.500000
O O16 0.857740 0.012634 0.601276
O O17 0.772040 0.250000 0.047099
O O18 0.729614 0.058875 0.109307
O O19 0.750008 0.000000 0.000000
O O20 0.832723 0.250000 0.366010
#
# Coordination Sequence:
#
# PCOD9536223 Si02
#       7
#    16   8  16  16  16  16  16
#     4   9  18  33  54  81 111 139 171 214 265 322
#     4   8  16  30  50  76 102 132 168 208 255 308
#     4  10  20  36  57  77 100 137 180 223 265 311
#     4  10  20  35  56  79 104 138 179 217 263 317
#     4  10  19  33  54  79 108 138 173 216 265 319
#     4  11  23  35  50  75 108 140 172 212 261 312
#     4  11  23  36  52  76 105 141 179 219 265 314
#
# _framework density 17.085526000000002
#
# number of rings (size 3 to 8) (size 9 to 14) (size 15 to 20)
#    0.000    2.000    1.538    2.308    0.000    6.462 
#    0.000    0.000    1.692    0.000    0.000    0.000 
#    0.000    0.000    0.000    0.000    0.000    0.000 
#
# Total GULP energy -289915.082936 kJ/mol
# GULP energy per Si atom -5575.290056 kJ/mol
# Density = 1.704664 g / cm^3
# Si number density = 17.085526 Si / 1000 Ang^3
#
#
#
# Elastic Constant Matrix: (Units=GPa)
#
#
# Indices 1 2 3 4 5 6 
#
# 1 109.5997 46.3462 35.7981 0.0000 0.0000 0.0000
# 2 46.3462 54.5576 39.6306 0.0000 0.0000 0.0000
# 3 35.7981 39.6306 74.0283 0.0000 0.0000 0.0000
# 4 0.0000 0.0000 0.0000 30.2880 0.0000 0.0000
# 5 0.0000 0.0000 0.0000 0.0000 13.4216 0.0000
# 6 0.0000 0.0000 0.0000 0.0000 0.0000 23.6656
#
#
#
# Elastic Compliance Matrix: (Units=1/GPa)
#
#
# Indices 1 2 3 4 5 6 
#
# 1 0.014260 -0.011625 -0.000672 0.000000 0.000000 0.000000
# 2 -0.011625 0.039470 -0.015508 0.000000 0.000000 0.000000
# 3 -0.000672 -0.015508 0.022136 0.000000 0.000000 0.000000
# 4 0.000000 0.000000 0.000000 0.033016 0.000000 0.000000
# 5 0.000000 0.000000 0.000000 0.000000 0.074507 0.000000
# 6 0.000000 0.000000 0.000000 0.000000 0.000000 0.042255
#
#
# Mechanical properties :
#
#
# Convention : Reuss Voigt Hill
#
# Bulk Modulus (GPa) = 49.37313 53.52618 51.44965
# Shear Modulus (GPa) = 17.36071 21.23575 19.29823
#
# Velocity S-wave (km/s) = 3.19110 3.52932 3.36446
# Velocity P-wave (km/s) = 6.52211 6.92853 6.72839
#
# Compressibility (1/GPa) = 0.02025393
#
# Stress axis : x y z
#
# Youngs Moduli (GPa) = 70.12851 25.33565 45.17586
#
# Poissons Ratio (x) = 0.29453 0.03036
# Poissons Ratio (y) = 0.81526 0.70061
# Poissons Ratio (z) = 0.04713 0.39292
#
# Static dielectric constant tensor:
#      x y z
#    x 1.612800 0.000000 0.000000 
#    y 0.000000 1.565050 0.000000 
#    z 0.000000 0.000000 1.561450 
# 
# From -- ./inp_files/55660.got.cif
#   From: 2010.05.17/outbox.cif.g08.bks.cpg/sg74_28_cif.got.tgz:55660.got - 2010.06.03 17:57:02.
