data_PCOD9536874
_publ_section_title
;
Structure prediction by ZEFSAII (Michael W. Deem and Ramdas Pophale) SiO2 
 PCOD9536874
Probable space group: I M M A
;
_chemical_formula_sum "Si O2"
_cell_formula_units_Z 112
_cell_length_a 24.072509
_cell_length_b 14.183663
_cell_length_c 14.631373
_cell_angle_alpha 90.000000
_cell_angle_beta 90.000000
_cell_angle_gamma 90.000000
_cell_volume 4995.682669
_symmetry_space_group_name_H-M "I M M A"
_symmetry_group_IT_number 74
_symmetry_cell_setting 'orthorhombic'
loop_
_space_group_symop_operation_xyz
x,y,z
-x,1/2-y,z
x,-y,-z
-x,1/2+y,-z
-x,-y,-z
x,1/2+y,-z
-x,y,z
x,1/2-y,z
1/2+x,1/2+y,1/2+z
1/2-x,-y,1/2+z
1/2+x,1/2-y,1/2-z
1/2-x,y,1/2-z
1/2-x,1/2-y,1/2-z
1/2+x,y,1/2-z
1/2-x,1/2+y,1/2+z
1/2+x,-y,1/2+z
loop_
_atom_site_type_symbol
_atom_site_label
_atom_site_fract_x
_atom_site_fract_y
_atom_site_fract_z
Si Si1 0.615033 0.144369 0.522005
Si Si2 0.258181 0.388878 0.488296
Si Si3 0.803145 0.557877 0.690480
Si Si4 0.663355 0.648395 0.129020
Si Si5 0.062219 0.508846 0.872238
Si Si6 0.563033 0.112739 0.007118
Si Si7 0.412255 0.354269 0.220238
O O1 0.594876 0.250000 0.537055
O O2 0.679494 0.148390 0.492461
O O3 0.581722 0.090388 0.442256
O O4 0.604525 0.077201 0.609920
O O5 0.265983 0.500000 0.500000
O O6 0.220849 0.386484 0.397332
O O7 0.219696 0.351512 0.569125
O O8 0.750000 0.534973 0.750000
O O9 0.833344 0.457035 0.672028
O O10 0.847040 0.627306 0.736461
O O11 0.661707 0.750000 0.180837
O O12 0.610435 0.647621 0.061318
O O13 0.061316 0.559350 0.774627
O O14 0.000000 0.475505 0.893089
O O15 0.500000 0.142768 0.985242
O O16 0.576411 0.139040 0.112000
O O17 0.564840 0.000000 0.000000
O O18 0.429111 0.250000 0.251829
#
# Coordination Sequence:
#
# PCOD9536874 Si02
#       7
#    16  16  16  16  16  16  16
#     4  11  22  40  69  98 129 175 224 270 331 397
#     4  10  19  38  62  91 129 167 206 262 318 382
#     4  11  24  40  64  93 133 172 213 268 330 389
#     4  11  22  40  65  96 130 169 216 264 320 391
#     4  11  25  43  64  96 135 174 220 274 332 396
#     4  11  22  42  70  98 131 174 220 268 327 392
#     4  12  25  43  66  98 134 172 222 277 337 395
#
# _framework density 22.419357999999999
#
# number of rings (size 3 to 8) (size 9 to 14) (size 15 to 20)
#    0.000    1.000    4.286    3.857    2.000    4.857 
#    0.000    0.714    0.000    0.000    0.000    0.000 
#    0.000    0.000    0.000    0.000    0.000    0.000 
#
# Total GULP energy -312701.587147 kJ/mol
# GULP energy per Si atom -5583.956913 kJ/mol
# Density = 2.236833 g / cm^3
# Si number density = 22.419358 Si / 1000 Ang^3
#
#
#
# Elastic Constant Matrix: (Units=GPa)
#
#
# Indices 1 2 3 4 5 6 
#
# 1 118.7330 16.0692 3.3104 0.0000 0.0000 0.0000
# 2 16.0692 154.2375 6.1097 0.0000 0.0000 0.0000
# 3 3.3104 6.1097 20.7410 0.0000 0.0000 0.0000
# 4 0.0000 0.0000 0.0000 5.3053 0.0000 0.0000
# 5 0.0000 0.0000 0.0000 0.0000 7.0696 0.0000
# 6 0.0000 0.0000 0.0000 0.0000 0.0000 -55.5774
#
#
#
# Elastic Compliance Matrix: (Units=1/GPa)
#
#
# Indices 1 2 3 4 5 6 
#
# 1 0.008568 -0.000848 -0.001118 0.000000 0.000000 0.000000
# 2 -0.000848 0.006644 -0.001822 0.000000 0.000000 0.000000
# 3 -0.001118 -0.001822 0.048929 0.000000 0.000000 0.000000
# 4 0.000000 0.000000 0.000000 0.188492 0.000000 0.000000
# 5 0.000000 0.000000 0.000000 0.000000 0.141450 0.000000
# 6 0.000000 0.000000 0.000000 0.000000 0.000000 -0.017993
#
#
# Mechanical properties :
#
#
# Convention : Reuss Voigt Hill
#
# Bulk Modulus (GPa) = 17.67863 38.29892 27.98877
# Shear Modulus (GPa) = 12.42173 9.24098 10.83135
#
# Velocity S-wave (km/s) = 2.35641 2.03244 2.20040
# Velocity P-wave (km/s) = 3.91230 4.75687 4.35511
#
# Compressibility (1/GPa) = 0.05656546
#
# Stress axis : x y z
#
# Youngs Moduli (GPa) = 116.71002 150.51036 20.43788
#
# Poissons Ratio (x) = 0.12769 0.02284
# Poissons Ratio (y) = 0.09902 0.03723
# Poissons Ratio (z) = 0.13044 0.27419
#
# Static dielectric constant tensor:
#      x y z
#    x 1.819850 0.000000 0.000000 
#    y 0.000000 1.150730 0.000000 
#    z 0.000000 0.000000 1.884160 
# 
# From -- ./inp_files/36478.got.cif
#   From: 2010.05.17/outbox.cif.g08.bks.cpg/sg74_19_cif.got.tgz:36478.got - 2010.06.03 17:57:02.
