data_PCOD9536940
_publ_section_title
;
Structure prediction by ZEFSAII (Michael W. Deem and Ramdas Pophale) SiO2 
 PCOD9536940
Probable space group: I M M A
;
_chemical_formula_sum "Si O2"
_cell_formula_units_Z 88
_cell_length_a 16.754771
_cell_length_b 12.672304
_cell_length_c 25.938036
_cell_angle_alpha 90.000000
_cell_angle_beta 90.000000
_cell_angle_gamma 90.000000
_cell_volume 5507.204048
_symmetry_space_group_name_H-M "I M M A"
_symmetry_group_IT_number 74
_symmetry_cell_setting 'orthorhombic'
loop_
_space_group_symop_operation_xyz
x,y,z
-x,1/2-y,z
x,-y,-z
-x,1/2+y,-z
-x,-y,-z
x,1/2+y,-z
-x,y,z
x,1/2-y,z
1/2+x,1/2+y,1/2+z
1/2-x,-y,1/2+z
1/2+x,1/2-y,1/2-z
1/2-x,y,1/2-z
1/2-x,1/2-y,1/2-z
1/2+x,y,1/2-z
1/2-x,1/2+y,1/2+z
1/2+x,-y,1/2+z
loop_
_atom_site_type_symbol
_atom_site_label
_atom_site_fract_x
_atom_site_fract_y
_atom_site_fract_z
Si Si1 0.191329 0.954830 0.054340
Si Si2 0.660315 0.250000 0.686982
Si Si3 0.260654 0.634192 0.689239
Si Si4 0.210811 0.915573 0.348124
Si Si5 0.907207 0.250000 0.927409
Si Si6 0.405835 0.250000 0.803134
Si Si7 0.093492 0.126899 0.119622
O O1 0.262279 0.917639 0.092294
O O2 0.134550 0.853432 0.049811
O O3 0.138695 0.046393 0.081828
O O4 0.218908 0.000000 0.000000
O O5 0.717521 0.352266 0.681042
O O6 0.606681 0.250000 0.635107
O O7 0.619104 0.250000 0.742516
O O8 0.236443 0.750000 0.669065
O O9 0.250000 0.634231 0.750000
O O10 0.210875 0.536708 0.668058
O O11 0.352746 0.619409 0.671415
O O12 0.133604 0.850736 0.331543
O O13 0.000000 0.250000 0.938539
O O14 0.500000 0.250000 0.806945
O O15 0.097407 0.250000 0.102678
O O16 0.000000 0.099906 0.126082
#
# Coordination Sequence:
#
# PCOD9536940 Si02
#       7
#    16   8  16  16   8   8  16
#     4  10  21  34  49  68  94 134 175 202 242 291
#     4   9  17  31  52  76 107 140 159 185 246 313
#     4   9  16  28  47  67  93 134 175 200 230 280
#     4   9  18  34  50  71 103 131 162 205 242 294
#     4  10  20  31  44  70 108 138 168 206 238 283
#     4  11  20  32  57  84 103 124 157 207 266 316
#     4   9  18  31  46  68  99 130 164 206 242 278
#
# _framework density 15.97907
#
# number of rings (size 3 to 8) (size 9 to 14) (size 15 to 20)
#    0.000    2.545    0.000    3.545    1.273    1.455 
#    0.000    7.273    0.000    2.182    0.000    0.000 
#    0.000    0.000    0.000    0.000    0.000    0.000 
#
# Total GULP energy -245079.183710 kJ/mol
# GULP energy per Si atom -5569.981448 kJ/mol
# Density = 1.594270 g / cm^3
# Si number density = 15.979070 Si / 1000 Ang^3
#
#
#
# Elastic Constant Matrix: (Units=GPa)
#
#
# Indices 1 2 3 4 5 6 
#
# 1 79.5783 35.9697 43.4667 0.0000 0.0000 0.0000
# 2 35.9697 95.3270 35.4760 0.0000 0.0000 0.0000
# 3 43.4667 35.4760 80.5345 0.0000 0.0000 0.0000
# 4 0.0000 0.0000 0.0000 20.0579 0.0000 0.0000
# 5 0.0000 0.0000 0.0000 0.0000 5.6481 0.0000
# 6 0.0000 0.0000 0.0000 0.0000 0.0000 12.6250
#
#
#
# Elastic Compliance Matrix: (Units=1/GPa)
#
#
# Indices 1 2 3 4 5 6 
#
# 1 0.019023 -0.004015 -0.008499 0.000000 0.000000 0.000000
# 2 -0.004015 0.013395 -0.003733 0.000000 0.000000 0.000000
# 3 -0.008499 -0.003733 0.018648 0.000000 0.000000 0.000000
# 4 0.000000 0.000000 0.000000 0.049856 0.000000 0.000000
# 5 0.000000 0.000000 0.000000 0.000000 0.177050 0.000000
# 6 0.000000 0.000000 0.000000 0.000000 0.000000 0.079208
#
#
# Mechanical properties :
#
#
# Convention : Reuss Voigt Hill
#
# Bulk Modulus (GPa) = 53.84435 53.91831 53.88133
# Shear Modulus (GPa) = 12.63056 17.03470 14.83263
#
# Velocity S-wave (km/s) = 2.81453 3.26860 3.05003
# Velocity P-wave (km/s) = 6.65823 6.93263 6.79682
#
# Compressibility (1/GPa) = 0.01857205
#
# Stress axis : x y z
#
# Youngs Moduli (GPa) = 52.56747 74.65687 53.62362
#
# Poissons Ratio (x) = 0.29976 0.45573
# Poissons Ratio (y) = 0.21107 0.20019
# Poissons Ratio (z) = 0.44675 0.27872
#
# Static dielectric constant tensor:
#      x y z
#    x 1.509060 0.000000 0.000000 
#    y 0.000000 1.566280 0.000000 
#    z 0.000000 0.000000 1.546140 
# 
# From -- ./inp_files/67017.got.cif
#   From: 2010.05.17/outbox.cif.g08.bks.cpg/sg74_34_cif.got.tgz:67017.got - 2010.06.03 17:57:02.
