data_PCOD9536773
_publ_section_title
;
Structure prediction by ZEFSAII (Michael W. Deem and Ramdas Pophale) SiO2 
 PCOD9536773
Probable space group: I M M A
;
_chemical_formula_sum "Si O2"
_cell_formula_units_Z 112
_cell_length_a 14.730262
_cell_length_b 29.430735
_cell_length_c 11.537292
_cell_angle_alpha 90.000000
_cell_angle_beta 90.000000
_cell_angle_gamma 90.000000
_cell_volume 5001.674949
_symmetry_space_group_name_H-M "I M M A"
_symmetry_group_IT_number 74
_symmetry_cell_setting 'orthorhombic'
loop_
_space_group_symop_operation_xyz
x,y,z
-x,1/2-y,z
x,-y,-z
-x,1/2+y,-z
-x,-y,-z
x,1/2+y,-z
-x,y,z
x,1/2-y,z
1/2+x,1/2+y,1/2+z
1/2-x,-y,1/2+z
1/2+x,1/2-y,1/2-z
1/2-x,y,1/2-z
1/2-x,1/2-y,1/2-z
1/2+x,y,1/2-z
1/2-x,1/2+y,1/2+z
1/2+x,-y,1/2+z
loop_
_atom_site_type_symbol
_atom_site_label
_atom_site_fract_x
_atom_site_fract_y
_atom_site_fract_z
Si Si1 0.393082 0.050456 0.011940
Si Si2 0.393269 0.398463 0.236068
Si Si3 0.642007 0.938263 0.245888
Si Si4 0.895607 0.024933 0.109952
Si Si5 0.287317 0.303887 0.911791
Si Si6 0.842445 0.699970 0.678244
Si Si7 0.394532 0.340949 0.689310
O O1 0.500000 0.045107 0.035218
O O2 0.384607 0.071720 0.885797
O O3 0.356073 0.080537 0.116246
O O4 0.353348 0.000000 0.000000
O O5 0.500000 0.408510 0.239491
O O6 0.354284 0.428501 0.341338
O O7 0.386282 0.344593 0.233330
O O8 0.750000 0.939920 0.250000
O O9 0.608096 0.895679 0.320199
O O10 0.605970 0.986828 0.289043
O O11 0.000000 0.034631 0.076179
O O12 0.851924 0.000000 0.000000
O O13 0.287337 0.250000 0.887815
O O14 0.352766 0.326965 0.815630
O O15 0.183709 0.321440 0.895528
O O16 0.322486 0.309813 0.042691
O O17 0.887538 0.750000 0.685295
O O18 0.750000 0.703710 0.750000
O O19 0.500000 0.325958 0.676124
#
# Coordination Sequence:
#
# PCOD9536773 Si02
#       7
#    16  16  16  16  16  16  16
#     4  10  19  36  61  85 118 160 208 260 315 378
#     4  10  21  39  66  95 122 164 220 272 324 391
#     4  12  23  36  55  86 125 163 214 262 312 389
#     4  10  22  41  60  85 125 169 211 264 326 391
#     4  10  22  42  65  98 133 164 223 283 330 409
#     4  10  23  43  65  89 127 173 214 274 342 391
#     4  11  22  39  64  94 132 175 215 273 346 404
#
# _framework density 22.392499000000001
#
# number of rings (size 3 to 8) (size 9 to 14) (size 15 to 20)
#    0.000    1.571    2.857    3.000    0.000    5.429 
#    0.000    3.571    0.000    2.571    0.000    0.000 
#    0.000    0.000    0.000    0.000    0.000    0.000 
#
# Total GULP energy -312596.825339 kJ/mol
# GULP energy per Si atom -5582.086167 kJ/mol
# Density = 2.234153 g / cm^3
# Si number density = 22.392499 Si / 1000 Ang^3
#
#
#
# Elastic Constant Matrix: (Units=GPa)
#
#
# Indices 1 2 3 4 5 6 
#
# 1 106.6442 14.1057 -3.7981 -0.0053 -0.0001 -0.0008
# 2 14.1057 149.6201 34.8866 0.0086 -0.0002 -0.0010
# 3 -3.7981 34.8866 74.3516 -0.0027 -0.0008 -0.0037
# 4 -0.0053 0.0086 -0.0027 -327.8184 -0.0151 -0.1218
# 5 -0.0001 -0.0002 -0.0008 -0.0151 21.2542 0.0014
# 6 -0.0008 -0.0010 -0.0037 -0.1218 0.0014 94.4435
#
#
#
# Elastic Compliance Matrix: (Units=1/GPa)
#
#
# Indices 1 2 3 4 5 6 
#
# 1 0.009564 -0.001140 0.001024 0.000000 0.000000 0.000000
# 2 -0.001140 0.007641 -0.003643 0.000000 0.000000 0.000000
# 3 0.001024 -0.003643 0.015211 0.000000 0.000001 0.000001
# 4 0.000000 0.000000 0.000000 -0.003050 -0.000002 -0.000004
# 5 0.000000 0.000000 0.000001 -0.000002 0.047049 -0.000001
# 6 0.000000 0.000000 0.000001 -0.000004 -0.000001 0.010588
#
#
# Mechanical properties :
#
#
# Convention : Reuss Voigt Hill
#
# Bulk Modulus (GPa) = 40.16682 46.77827 43.47254
# Shear Modulus (GPa) = 48.62754 -23.39602 12.61576
#
# Velocity S-wave (km/s) = 4.66510 -3.23587 2.37616
# Velocity P-wave (km/s) = 6.85522 2.64091 5.19464
#
# Compressibility (1/GPa) = 0.02489617
#
# Stress axis : x y z
#
# Youngs Moduli (GPa) = 104.55587 130.87972 65.74028
#
# Poissons Ratio (x) = 0.14925 -0.06729
# Poissons Ratio (y) = 0.11923 0.23951
# Poissons Ratio (z) = -0.10703 0.47683
#
# Static dielectric constant tensor:
#      x y z
#    x 1.820420 0.000000 0.000000 
#    y 0.000000 1.892840 0.000000 
#    z 0.000000 0.000000 1.864230 
# 
# From -- ./inp_files/21149.got.cif
#   From: 2010.05.17/outbox.cif.g08.bks.cpg/sg74_11_cif.got.tgz:21149.got - 2010.06.03 17:57:02.
