data_PCOD9536923
_publ_section_title
;
Structure prediction by ZEFSAII (Michael W. Deem and Ramdas Pophale) SiO2 
 PCOD9536923
Probable space group: I M M A
;
_chemical_formula_sum "Si O2"
_cell_formula_units_Z 80
_cell_length_a 17.037937
_cell_length_b 18.437242
_cell_length_c 13.458714
_cell_angle_alpha 90.000000
_cell_angle_beta 90.000000
_cell_angle_gamma 90.000000
_cell_volume 4227.820386
_symmetry_space_group_name_H-M "I M M A"
_symmetry_group_IT_number 74
_symmetry_cell_setting 'orthorhombic'
loop_
_space_group_symop_operation_xyz
x,y,z
-x,1/2-y,z
x,-y,-z
-x,1/2+y,-z
-x,-y,-z
x,1/2+y,-z
-x,y,z
x,1/2-y,z
1/2+x,1/2+y,1/2+z
1/2-x,-y,1/2+z
1/2+x,1/2-y,1/2-z
1/2-x,y,1/2-z
1/2-x,1/2-y,1/2-z
1/2+x,y,1/2-z
1/2-x,1/2+y,1/2+z
1/2+x,-y,1/2+z
loop_
_atom_site_type_symbol
_atom_site_label
_atom_site_fract_x
_atom_site_fract_y
_atom_site_fract_z
Si Si1 0.260709 0.892453 0.143503
Si Si2 0.172510 0.166326 0.050755
Si Si3 0.000000 0.980704 0.114337
Si Si4 0.406949 0.981699 0.115962
Si Si5 0.660862 0.462328 0.304685
Si Si6 0.500000 0.331154 0.543176
O O1 0.250000 0.853394 0.250000
O O2 0.352723 0.910683 0.130981
O O3 0.214385 0.969556 0.159860
O O4 0.222347 0.856130 0.047077
O O5 0.188160 0.250000 0.076245
O O6 0.187427 0.110614 0.140926
O O7 0.080119 0.160514 0.019977
O O8 0.000000 0.894217 0.124330
O O9 0.076838 0.015662 0.155523
O O10 0.000000 0.000000 0.000000
O O11 0.500000 0.975560 0.141272
O O12 0.360608 0.038895 0.187233
O O13 0.402040 0.000000 0.000000
O O14 0.500000 0.250000 0.584870
#
# Coordination Sequence:
#
# PCOD9536923 Si02
#       6
#    16  16   8  16  16   8
#     4  10  21  36  59  85 114 155 201 250 299 357
#     4  11  21  34  55  89 128 159 190 240 307 374
#     4  12  16  28  53  80 117 152 183 240 291 357
#     4  10  21  36  57  83 111 145 196 258 301 352
#     4  11  19  33  57  86 113 151 198 247 304 358
#     4  10  20  30  48  84 126 158 179 224 303 371
#
# _framework density 18.922279
#
# number of rings (size 3 to 8) (size 9 to 14) (size 15 to 20)
#    0.000    1.400    5.000    1.800    0.000    0.400 
#    0.000    0.000    0.000   15.600    0.000    5.600 
#    0.000    0.000    0.000    0.000    0.000    0.000 
#
# Total GULP energy -222767.432308 kJ/mol
# GULP energy per Si atom -5569.185808 kJ/mol
# Density = 1.887921 g / cm^3
# Si number density = 18.922279 Si / 1000 Ang^3
#
#
#
# Elastic Constant Matrix: (Units=GPa)
#
#
# Indices 1 2 3 4 5 6 
#
# 1 103.6046 11.6157 26.9048 0.0000 0.0000 0.0000
# 2 11.6157 103.2162 36.6498 0.0000 0.0000 0.0000
# 3 26.9048 36.6498 116.3561 0.0000 0.0000 0.0000
# 4 0.0000 0.0000 0.0000 13.0868 0.0000 0.0000
# 5 0.0000 0.0000 0.0000 0.0000 -90.0591 0.0000
# 6 0.0000 0.0000 0.0000 0.0000 0.0000 10.7021
#
#
#
# Elastic Compliance Matrix: (Units=1/GPa)
#
#
# Indices 1 2 3 4 5 6 
#
# 1 0.010280 -0.000352 -0.002266 0.000000 0.000000 0.000000
# 2 -0.000352 0.010921 -0.003358 0.000000 0.000000 0.000000
# 3 -0.002266 -0.003358 0.010176 0.000000 0.000000 0.000000
# 4 0.000000 0.000000 0.000000 0.076413 0.000000 0.000000
# 5 0.000000 0.000000 0.000000 0.000000 -0.011104 0.000000
# 6 0.000000 0.000000 0.000000 0.000000 0.000000 0.093439
#
#
# Mechanical properties :
#
#
# Convention : Reuss Voigt Hill
#
# Bulk Modulus (GPa) = 51.48433 52.61305 52.04869
# Shear Modulus (GPa) = 23.97474 3.27975 13.62725
#
# Velocity S-wave (km/s) = 3.56337 1.31797 2.68651
# Velocity P-wave (km/s) = 6.64812 5.49374 6.09831
#
# Compressibility (1/GPa) = 0.01942339
#
# Stress axis : x y z
#
# Youngs Moduli (GPa) = 97.27586 91.57090 98.26966
#
# Poissons Ratio (x) = 0.03226 0.22269
# Poissons Ratio (y) = 0.03427 0.33002
# Poissons Ratio (z) = 0.22044 0.30752
#
# Static dielectric constant tensor:
#      x y z
#    x 1.691710 0.000000 0.000000 
#    y 0.000000 1.674700 0.000000 
#    z 0.000000 0.000000 1.767250 
# 
# From -- ./inp_files/22094.got.cif
#   From: 2010.05.17/outbox.cif.g08.bks.cpg/sg74_12_cif.got.tgz:22094.got - 2010.06.03 17:57:02.
