data_PCOD9536829
_publ_section_title
;
Structure prediction by ZEFSAII (Michael W. Deem and Ramdas Pophale) SiO2 
 PCOD9536829
Probable space group: I M M A
;
_chemical_formula_sum "Si O2"
_cell_formula_units_Z 100
_cell_length_a 14.426308
_cell_length_b 15.024399
_cell_length_c 23.262706
_cell_angle_alpha 90.000000
_cell_angle_beta 90.000000
_cell_angle_gamma 90.000000
_cell_volume 5042.112607
_symmetry_space_group_name_H-M "I M M A"
_symmetry_group_IT_number 74
_symmetry_cell_setting 'orthorhombic'
loop_
_space_group_symop_operation_xyz
x,y,z
-x,1/2-y,z
x,-y,-z
-x,1/2+y,-z
-x,-y,-z
x,1/2+y,-z
-x,y,z
x,1/2-y,z
1/2+x,1/2+y,1/2+z
1/2-x,-y,1/2+z
1/2+x,1/2-y,1/2-z
1/2-x,y,1/2-z
1/2-x,1/2-y,1/2-z
1/2+x,y,1/2-z
1/2-x,1/2+y,1/2+z
1/2+x,-y,1/2+z
loop_
_atom_site_type_symbol
_atom_site_label
_atom_site_fract_x
_atom_site_fract_y
_atom_site_fract_z
Si Si1 0.606353 0.022950 0.566866
Si Si2 0.110505 0.005431 0.642580
Si Si3 0.893433 0.150334 0.129807
Si Si4 0.390080 0.354088 0.047408
Si Si5 0.500000 0.250000 0.193685
Si Si6 0.279728 0.144939 0.928796
Si Si7 0.354119 0.115220 0.239717
O O1 0.500000 0.039552 0.587232
O O2 0.677104 0.103564 0.573895
O O3 0.601365 0.000000 0.500000
O O4 0.647052 0.934329 0.597402
O O5 0.130194 0.925792 0.596694
O O6 0.147324 0.977290 0.705464
O O7 0.000000 0.016700 0.645331
O O8 0.158898 0.092216 0.617239
O O9 0.852475 0.250000 0.122659
O O10 0.895854 0.124955 0.196807
O O11 0.000000 0.156254 0.109228
O O12 0.500000 0.363857 0.032609
O O13 0.379121 0.250000 0.065765
O O14 0.326972 0.370296 0.991535
O O15 0.419402 0.174199 0.199802
O O16 0.278883 0.250000 0.919253
O O17 0.250000 0.146549 0.250000
#
# Coordination Sequence:
#
# PCOD9536829 Si02
#       7
#    16  16  16  16   4  16  16
#     4  10  22  39  60  87 118 156 204 250 295 351
#     4  11  22  37  61  89 121 152 194 245 297 360
#     4  10  19  37  60  87 122 151 182 233 295 364
#     4   9  19  34  59  87 118 152 185 233 299 360
#     4  12  22  40  52  90 130 164 190 232 278 376
#     4  11  23  40  57  80 115 157 208 254 297 348
#     4  12  23  37  60  88 126 160 193 231 292 360
#
# _framework density 19.832957
#
# number of rings (size 3 to 8) (size 9 to 14) (size 15 to 20)
#    0.000    1.440    2.400    3.120    1.120    3.200 
#    0.000    4.000    0.000    4.320    0.000    4.480 
#    0.000    0.000    0.000    0.000    0.000    0.000 
#
# Total GULP energy -278660.970346 kJ/mol
# GULP energy per Si atom -5573.219407 kJ/mol
# Density = 1.978782 g / cm^3
# Si number density = 19.832957 Si / 1000 Ang^3
#
#
#
# Elastic Constant Matrix: (Units=GPa)
#
#
# Indices 1 2 3 4 5 6 
#
# 1 136.9277 51.3073 18.5867 0.0000 0.0000 0.0000
# 2 51.3073 133.9220 55.3018 0.0000 0.0000 0.0000
# 3 18.5867 55.3018 46.5326 0.0000 0.0000 0.0000
# 4 0.0000 0.0000 0.0000 -2.3768 0.0000 0.0000
# 5 0.0000 0.0000 0.0000 0.0000 13.8549 0.0000
# 6 0.0000 0.0000 0.0000 0.0000 0.0000 36.5693
#
#
#
# Elastic Compliance Matrix: (Units=1/GPa)
#
#
# Indices 1 2 3 4 5 6 
#
# 1 0.008548 -0.003662 0.000938 0.000000 0.000000 0.000000
# 2 -0.003662 0.016232 -0.017828 0.000000 0.000000 0.000000
# 3 0.000938 -0.017828 0.042304 0.000000 0.000000 0.000000
# 4 0.000000 0.000000 0.000000 -0.420726 0.000000 0.000000
# 5 0.000000 0.000000 0.000000 0.000000 0.072177 0.000000
# 6 0.000000 0.000000 0.000000 0.000000 0.000000 0.027345
#
#
# Mechanical properties :
#
#
# Convention : Reuss Voigt Hill
#
# Bulk Modulus (GPa) = 38.49282 63.08599 50.78940
# Shear Modulus (GPa) = -24.46717 22.42189 -1.02264
#
# Velocity S-wave (km/s) = -3.51616 3.36599 -0.71885
# Velocity P-wave (km/s) = 1.72224 6.85451 4.99752
#
# Compressibility (1/GPa) = 0.02597887
#
# Stress axis : x y z
#
# Youngs Moduli (GPa) = 116.98583 61.60638 23.63856
#
# Poissons Ratio (x) = 0.22561 -0.02217
# Poissons Ratio (y) = 0.42842 0.42143
# Poissons Ratio (z) = -0.10973 1.09834
#
# Static dielectric constant tensor:
#      x y z
#    x 1.799460 0.000000 0.000000 
#    y 0.000000 0.967260 0.000000 
#    z 0.000000 0.000000 1.723280 
# 
# From -- ./inp_files/60035.got.cif
#   From: 2010.05.17/outbox.cif.g08.bks.cpg/sg74_31_cif.got.tgz:60035.got - 2010.06.03 17:57:02.
