data_PCOD9536052
_publ_section_title
;
Structure prediction by ZEFSAII (Michael W. Deem and Ramdas Pophale) SiO2 
 PCOD9536052
Probable space group: I M M A
;
_chemical_formula_sum "Si O2"
_cell_formula_units_Z 112
_cell_length_a 24.711208
_cell_length_b 24.107328
_cell_length_c 10.074767
_cell_angle_alpha 90.000000
_cell_angle_beta 90.000000
_cell_angle_gamma 90.000000
_cell_volume 6001.752252
_symmetry_space_group_name_H-M "I M M A"
_symmetry_group_IT_number 74
_symmetry_cell_setting 'orthorhombic'
loop_
_space_group_symop_operation_xyz
x,y,z
-x,1/2-y,z
x,-y,-z
-x,1/2+y,-z
-x,-y,-z
x,1/2+y,-z
-x,y,z
x,1/2-y,z
1/2+x,1/2+y,1/2+z
1/2-x,-y,1/2+z
1/2+x,1/2-y,1/2-z
1/2-x,y,1/2-z
1/2-x,1/2-y,1/2-z
1/2+x,y,1/2-z
1/2-x,1/2+y,1/2+z
1/2+x,-y,1/2+z
loop_
_atom_site_type_symbol
_atom_site_label
_atom_site_fract_x
_atom_site_fract_y
_atom_site_fract_z
Si Si1 0.807174 0.969721 0.308000
Si Si2 0.833914 0.816358 0.172640
Si Si3 0.938753 0.410842 0.261265
Si Si4 0.670548 0.086344 0.091119
Si Si5 0.719287 0.816634 0.045594
Si Si6 0.059794 0.863059 0.029185
Si Si7 0.093870 0.474633 0.864037
O O1 0.750000 0.952525 0.250000
O O2 0.819279 0.943811 0.450569
O O3 0.856018 0.951046 0.216229
O O4 0.809923 0.037307 0.310611
O O5 0.834837 0.750000 0.169805
O O6 0.780276 0.832445 0.089185
O O7 0.819757 0.829541 0.327063
O O8 0.889586 0.835673 0.104331
O O9 0.891606 0.402511 0.368426
O O10 0.933782 0.475237 0.214960
O O11 0.000000 0.400554 0.307953
O O12 0.929437 0.374238 0.127775
O O13 0.700954 0.144706 0.076033
O O14 0.717045 0.750000 0.022096
O O15 0.056719 0.924363 0.092922
O O16 0.000000 0.836512 0.042853
O O17 0.116429 0.500000 0.000000
#
# Coordination Sequence:
#
# PCOD9536052 Si02
#       7
#    16  16  16  16  16  16  16
#     4  10  22  33  49  79 114 146 177 219 276 329
#     4   9  19  35  56  82 107 137 178 228 278 319
#     4   9  19  37  54  75 109 144 182 226 269 326
#     4  10  21  35  53  80 109 145 185 220 275 333
#     4   9  19  36  58  80 106 143 185 226 272 331
#     4  10  19  32  55  80 104 140 181 225 277 322
#     4   9  18  31  52  77 104 139 178 220 264 319
#
# _framework density 18.661217000000001
#
# number of rings (size 3 to 8) (size 9 to 14) (size 15 to 20)
#    0.000    2.571    0.000    2.143    6.000    4.286 
#    0.000    9.286    0.000    4.286    0.000    0.000 
#    0.000    0.000    0.000    0.000    0.000    0.000 
#
# Total GULP energy -311897.192924 kJ/mol
# GULP energy per Si atom -5569.592731 kJ/mol
# Density = 1.861874 g / cm^3
# Si number density = 18.661217 Si / 1000 Ang^3
#
#
#
# Elastic Constant Matrix: (Units=GPa)
#
#
# Indices 1 2 3 4 5 6 
#
# 1 122.4622 15.5232 45.9241 0.0000 0.0000 0.0000
# 2 15.5232 57.7146 7.7288 0.0000 0.0000 0.0000
# 3 45.9241 7.7288 36.1616 0.0000 0.0000 0.0000
# 4 0.0000 0.0000 0.0000 27.4178 0.0000 0.0000
# 5 0.0000 0.0000 0.0000 0.0000 20.6769 0.0000
# 6 0.0000 0.0000 0.0000 0.0000 0.0000 15.8011
#
#
#
# Elastic Compliance Matrix: (Units=1/GPa)
#
#
# Indices 1 2 3 4 5 6 
#
# 1 0.015733 -0.001602 -0.019639 0.000000 0.000000 0.000000
# 2 -0.001602 0.018000 -0.001813 0.000000 0.000000 0.000000
# 3 -0.019639 -0.001813 0.052981 0.000000 0.000000 0.000000
# 4 0.000000 0.000000 0.000000 0.036473 0.000000 0.000000
# 5 0.000000 0.000000 0.000000 0.000000 0.048363 0.000000
# 6 0.000000 0.000000 0.000000 0.000000 0.000000 0.063287
#
#
# Mechanical properties :
#
#
# Convention : Reuss Voigt Hill
#
# Bulk Modulus (GPa) = 24.62535 39.41006 32.01771
# Shear Modulus (GPa) = 16.97904 22.58997 19.78451
#
# Velocity S-wave (km/s) = 3.01966 3.48304 3.25959
# Velocity P-wave (km/s) = 5.03810 6.11065 5.60011
#
# Compressibility (1/GPa) = 0.04060855
#
# Stress axis : x y z
#
# Youngs Moduli (GPa) = 63.55894 55.55474 18.87451
#
# Poissons Ratio (x) = 0.08899 0.37067
# Poissons Ratio (y) = 0.10181 0.03422
# Poissons Ratio (z) = 1.24821 0.10071
#
# Static dielectric constant tensor:
#      x y z
#    x 1.646460 0.000000 0.000000 
#    y 0.000000 1.698170 0.000000 
#    z 0.000000 0.000000 1.634660 
# 
# From -- ./inp_files/25535.got.cif
#   From: 2010.05.17/outbox.cif.g08.bks.cpg/sg74_13_cif.got.tgz:25535.got - 2010.06.03 17:57:02.
