data_PCOD9536559
_publ_section_title
;
Structure prediction by ZEFSAII (Michael W. Deem and Ramdas Pophale) SiO2 
 PCOD9536559
Probable space group: I M M A
;
_chemical_formula_sum "Si O2"
_cell_formula_units_Z 104
_cell_length_a 19.420936
_cell_length_b 27.395984
_cell_length_c 10.030443
_cell_angle_alpha 90.000000
_cell_angle_beta 90.000000
_cell_angle_gamma 90.000000
_cell_volume 5336.753889
_symmetry_space_group_name_H-M "I M M A"
_symmetry_group_IT_number 74
_symmetry_cell_setting 'orthorhombic'
loop_
_space_group_symop_operation_xyz
x,y,z
-x,1/2-y,z
x,-y,-z
-x,1/2+y,-z
-x,-y,-z
x,1/2+y,-z
-x,y,z
x,1/2-y,z
1/2+x,1/2+y,1/2+z
1/2-x,-y,1/2+z
1/2+x,1/2-y,1/2-z
1/2-x,y,1/2-z
1/2-x,1/2-y,1/2-z
1/2+x,y,1/2-z
1/2-x,1/2+y,1/2+z
1/2+x,-y,1/2+z
loop_
_atom_site_type_symbol
_atom_site_label
_atom_site_fract_x
_atom_site_fract_y
_atom_site_fract_z
Si Si1 0.922417 0.093912 0.479550
Si Si2 0.832255 0.553051 0.755678
Si Si3 0.156986 0.806055 0.102482
Si Si4 0.122056 0.941819 0.248265
Si Si5 0.081473 0.196107 0.611045
Si Si6 0.920603 0.608317 0.977142
Si Si7 0.250000 0.870385 0.250000
O O1 0.867235 0.071674 0.380015
O O2 0.921639 0.064003 0.617927
O O3 0.905081 0.150009 0.517332
O O4 0.000000 0.092262 0.423106
O O5 0.750000 0.558891 0.750000
O O6 0.851622 0.496295 0.773425
O O7 0.869244 0.582686 0.873927
O O8 0.166694 0.750000 0.063539
O O9 0.122032 0.806992 0.249730
O O10 0.107998 0.837520 0.007606
O O11 0.227723 0.835572 0.127671
O O12 0.085096 0.920870 0.117293
O O13 0.186666 0.906216 0.274054
O O14 0.095098 0.250000 0.552770
O O15 0.000000 0.193283 0.643680
O O16 0.000000 0.608488 0.933259
#
# Coordination Sequence:
#
# PCOD9536559 Si02
#       7
#    16  16  16  16  16  16   8
#     4  11  23  41  65  95 127 160 209 267 315 370
#     4  12  28  42  61  87 128 179 217 257 315 381
#     4  10  20  35  63  96 126 160 204 260 321 380
#     4  11  23  40  68  90 122 165 220 261 318 375
#     4   9  17  33  60  91 119 152 197 252 314 374
#     4  11  24  42  64  94 131 167 212 267 323 383
#     4  10  19  34  58  96 128 156 199 262 310 374
#
# _framework density 19.487501999999999
#
# number of rings (size 3 to 8) (size 9 to 14) (size 15 to 20)
#    0.000    1.385    3.846    2.538    4.308    5.846 
#    0.000    0.769    0.000    2.769    0.000    0.000 
#    0.000    0.000    0.000    0.000    0.000    0.000 
#
# Total GULP energy -290424.065722 kJ/mol
# GULP energy per Si atom -5585.078187 kJ/mol
# Density = 1.944315 g / cm^3
# Si number density = 19.487502 Si / 1000 Ang^3
#
#
#
# Elastic Constant Matrix: (Units=GPa)
#
#
# Indices 1 2 3 4 5 6 
#
# 1 106.6004 53.9448 17.8149 0.0000 0.0000 0.0000
# 2 53.9448 141.2104 17.3677 0.0000 0.0000 0.0000
# 3 17.8149 17.3677 58.5313 0.0000 0.0000 0.0000
# 4 0.0000 0.0000 0.0000 52.0517 0.0000 0.0000
# 5 0.0000 0.0000 0.0000 0.0000 4.3605 0.0000
# 6 0.0000 0.0000 0.0000 0.0000 0.0000 9.1436
#
#
#
# Elastic Compliance Matrix: (Units=1/GPa)
#
#
# Indices 1 2 3 4 5 6 
#
# 1 0.011937 -0.004269 -0.002366 0.000000 0.000000 0.000000
# 2 -0.004269 0.008877 -0.001335 0.000000 0.000000 0.000000
# 3 -0.002366 -0.001335 0.018201 0.000000 0.000000 0.000000
# 4 0.000000 0.000000 0.000000 0.019212 0.000000 0.000000
# 5 0.000000 0.000000 0.000000 0.000000 0.229329 0.000000
# 6 0.000000 0.000000 0.000000 0.000000 0.000000 0.109366
#
#
# Mechanical properties :
#
#
# Convention : Reuss Voigt Hill
#
# Bulk Modulus (GPa) = 43.33793 53.84411 48.59102
# Shear Modulus (GPa) = 11.88911 27.59214 19.74063
#
# Velocity S-wave (km/s) = 2.47268 3.76691 3.18620
# Velocity P-wave (km/s) = 5.51718 6.82712 6.20680
#
# Compressibility (1/GPa) = 0.02307447
#
# Stress axis : x y z
#
# Youngs Moduli (GPa) = 83.77605 112.65596 54.94167
#
# Poissons Ratio (x) = 0.48092 0.13001
# Poissons Ratio (y) = 0.35763 0.07332
# Poissons Ratio (z) = 0.19825 0.15035
#
# Static dielectric constant tensor:
#      x y z
#    x 1.704680 0.000000 0.000000 
#    y 0.000000 1.694950 0.000000 
#    z 0.000000 0.000000 1.670250 
# 
# From -- ./inp_files/12775.got.cif
#   From: 2010.05.17/outbox.cif.g08.bks.cpg/sg74_7_cif.got.tgz:12775.got - 2010.06.03 17:57:02.
