data_PCOD9536954
_publ_section_title
;
Structure prediction by ZEFSAII (Michael W. Deem and Ramdas Pophale) SiO2 
 PCOD9536954
Probable space group: I M M A
;
_chemical_formula_sum "Si O2"
_cell_formula_units_Z 96
_cell_length_a 13.272067
_cell_length_b 14.690180
_cell_length_c 19.307800
_cell_angle_alpha 90.000000
_cell_angle_beta 90.000000
_cell_angle_gamma 90.000000
_cell_volume 3764.423485
_symmetry_space_group_name_H-M "I M M A"
_symmetry_group_IT_number 74
_symmetry_cell_setting 'orthorhombic'
loop_
_space_group_symop_operation_xyz
x,y,z
-x,1/2-y,z
x,-y,-z
-x,1/2+y,-z
-x,-y,-z
x,1/2+y,-z
-x,y,z
x,1/2-y,z
1/2+x,1/2+y,1/2+z
1/2-x,-y,1/2+z
1/2+x,1/2-y,1/2-z
1/2-x,y,1/2-z
1/2-x,1/2-y,1/2-z
1/2+x,y,1/2-z
1/2-x,1/2+y,1/2+z
1/2+x,-y,1/2+z
loop_
_atom_site_type_symbol
_atom_site_label
_atom_site_fract_x
_atom_site_fract_y
_atom_site_fract_z
Si Si1 0.384672 0.891978 0.204569
Si Si2 0.822067 0.882677 0.852492
Si Si3 0.615344 0.856352 0.048625
Si Si4 0.120003 0.406946 0.853712
Si Si5 0.173520 0.603769 0.000123
Si Si6 0.108796 0.387196 0.297122
O O1 0.500000 0.858906 0.202714
O O2 0.347505 0.865060 0.128661
O O3 0.346137 0.864024 0.280686
O O4 0.385658 0.002412 0.205318
O O5 0.880365 0.856902 0.782842
O O6 0.706359 0.856477 0.838622
O O7 0.828878 0.993182 0.856121
O O8 0.857864 0.852366 0.927799
O O9 0.500000 0.893251 0.043062
O O10 0.611107 0.750000 0.031812
O O11 0.704241 0.898085 0.002695
O O12 0.138717 0.357516 0.926364
O O13 0.000000 0.422236 0.847404
O O14 0.134390 0.500000 0.000000
O O15 0.000000 0.361197 0.325679
#
# Coordination Sequence:
#
# PCOD9536954 Si02
#       6
#    16  16  16  16  16  16
#     4   8  14  27  45  62  87 126 168 207 242 284
#     4   9  17  27  42  69 100 127 159 204 258 308
#     4  10  21  36  52  72 103 143 181 217 263 315
#     4   9  17  29  46  69  99 135 175 218 260 302
#     4  10  20  31  48  75 102 131 172 220 264 313
#     4   9  16  27  45  69  97 127 160 202 255 311
#
# _framework density 25.501912000000001
#
# number of rings (size 3 to 8) (size 9 to 14) (size 15 to 20)
#    0.000    2.833    0.000    3.500    0.000    6.667 
#    0.000    1.667    0.000    1.500    0.000    2.333 
#    0.000    1.333    0.000    0.000    0.000    0.000 
#
# Total GULP energy -268035.215176 kJ/mol
# GULP energy per Si atom -5584.066983 kJ/mol
# Density = 2.544387 g / cm^3
# Si number density = 25.501912 Si / 1000 Ang^3
#
#
#
# Elastic Constant Matrix: (Units=GPa)
#
#
# Indices 1 2 3 4 5 6 
#
# 1 112.9873 -1.1725 11.9117 0.0000 0.0000 0.0000
# 2 -1.1725 93.7000 3.3885 0.0000 0.0000 0.0000
# 3 11.9117 3.3885 117.1014 0.0000 0.0000 0.0000
# 4 0.0000 0.0000 0.0000 -270.1123 0.0000 0.0000
# 5 0.0000 0.0000 0.0000 0.0000 20.6830 0.0000
# 6 0.0000 0.0000 0.0000 0.0000 0.0000 -20.1221
#
#
#
# Elastic Compliance Matrix: (Units=1/GPa)
#
#
# Indices 1 2 3 4 5 6 
#
# 1 0.008948 0.000145 -0.000914 0.000000 0.000000 0.000000
# 2 0.000145 0.010686 -0.000324 0.000000 0.000000 0.000000
# 3 -0.000914 -0.000324 0.008642 0.000000 0.000000 0.000000
# 4 0.000000 0.000000 0.000000 -0.003702 0.000000 0.000000
# 5 0.000000 0.000000 0.000000 0.000000 0.048349 0.000000
# 6 0.000000 0.000000 0.000000 0.000000 0.000000 -0.049697
#
#
# Mechanical properties :
#
#
# Convention : Reuss Voigt Hill
#
# Bulk Modulus (GPa) = 38.32943 39.11601 38.72272
# Shear Modulus (GPa) = 146.58570 -33.26621 56.65974
#
# Velocity S-wave (km/s) = 7.58980 -3.61565 4.71869
# Velocity P-wave (km/s) = 9.58485 1.43485 6.70114
#
# Compressibility (1/GPa) = 0.02608961
#
# Stress axis : x y z
#
# Youngs Moduli (GPa) = 111.75099 93.58139 115.71393
#
# Poissons Ratio (x) = -0.01357 0.10581
# Poissons Ratio (y) = -0.01621 0.03749
# Poissons Ratio (z) = 0.10219 0.03032
#
# Static dielectric constant tensor:
#      x y z
#    x 2.033990 0.000000 0.000000 
#    y 0.000000 1.957750 0.000000 
#    z 0.000000 0.000000 2.010310 
# 
# From -- ./inp_files/52240.got.cif
#   From: 2010.05.17/outbox.cif.g08.bks.cpg/sg74_27_cif.got.tgz:52240.got - 2010.06.03 17:57:02.
