data_PCOD9536114
_publ_section_title
;
Structure prediction by ZEFSAII (Michael W. Deem and Ramdas Pophale) SiO2 
 PCOD9536114
Probable space group: I M M A
;
_chemical_formula_sum "Si O2"
_cell_formula_units_Z 80
_cell_length_a 19.038177
_cell_length_b 7.989719
_cell_length_c 31.386183
_cell_angle_alpha 90.000000
_cell_angle_beta 90.000000
_cell_angle_gamma 90.000000
_cell_volume 4774.142394
_symmetry_space_group_name_H-M "I M M A"
_symmetry_group_IT_number 74
_symmetry_cell_setting 'orthorhombic'
loop_
_space_group_symop_operation_xyz
x,y,z
-x,1/2-y,z
x,-y,-z
-x,1/2+y,-z
-x,-y,-z
x,1/2+y,-z
-x,y,z
x,1/2-y,z
1/2+x,1/2+y,1/2+z
1/2-x,-y,1/2+z
1/2+x,1/2-y,1/2-z
1/2-x,y,1/2-z
1/2-x,1/2-y,1/2-z
1/2+x,y,1/2-z
1/2-x,1/2+y,1/2+z
1/2+x,-y,1/2+z
loop_
_atom_site_type_symbol
_atom_site_label
_atom_site_fract_x
_atom_site_fract_y
_atom_site_fract_z
Si Si1 0.423929 0.450775 0.049829
Si Si2 0.270154 0.555557 0.049268
Si Si3 0.919975 0.442380 0.189335
Si Si4 0.216060 0.938597 0.867025
Si Si5 0.725736 0.750000 0.180983
Si Si6 0.634729 0.250000 0.739956
O O1 0.500000 0.503102 0.068321
O O2 0.418720 0.250000 0.053022
O O3 0.350703 0.527051 0.064869
O O4 0.426491 0.500000 0.000000
O O5 0.253356 0.750000 0.051433
O O6 0.221075 0.458224 0.082221
O O7 0.265937 0.500000 0.000000
O O8 0.912029 0.250000 0.204982
O O9 0.861710 0.464954 0.152437
O O10 0.904959 0.582461 0.224928
O O11 0.000000 0.461927 0.174034
O O12 0.238089 0.750000 0.855135
O O13 0.264689 0.083048 0.846902
O O14 0.657762 0.750000 0.210983
O O15 0.793274 0.750000 0.212408
#
# Coordination Sequence:
#
# PCOD9536114 Si02
#       6
#    16  16  16  16   8   8
#     4   9  16  26  41  62  86 114 153 200 250 300
#     4  11  20  31  48  71 100 134 179 224 266 315
#     4   9  18  32  53  80 106 137 176 215 259 311
#     4  10  19  33  51  74 107 139 174 220 264 309
#     4   9  18  32  48  76 104 132 166 204 260 319
#     4   9  17  30  52  76 105 131 164 210 255 313
#
# _framework density 16.756937000000001
#
# number of rings (size 3 to 8) (size 9 to 14) (size 15 to 20)
#    0.000    2.400    1.000    3.900    0.000    2.000 
#    0.000    4.000    0.000    3.000    0.000    2.800 
#    0.000    0.000    0.000    0.000    0.000    0.000 
#
# Total GULP energy -222669.113199 kJ/mol
# GULP energy per Si atom -5566.727830 kJ/mol
# Density = 1.671880 g / cm^3
# Si number density = 16.756937 Si / 1000 Ang^3
#
#
#
# Elastic Constant Matrix: (Units=GPa)
#
#
# Indices 1 2 3 4 5 6 
#
# 1 73.2934 43.7936 40.6492 0.0000 0.0000 0.0000
# 2 43.7936 108.6776 42.9680 0.0000 0.0000 0.0000
# 3 40.6492 42.9680 74.9160 0.0000 0.0000 0.0000
# 4 0.0000 0.0000 0.0000 15.9687 0.0000 0.0000
# 5 0.0000 0.0000 0.0000 0.0000 18.0655 0.0000
# 6 0.0000 0.0000 0.0000 0.0000 0.0000 21.9350
#
#
#
# Elastic Compliance Matrix: (Units=1/GPa)
#
#
# Indices 1 2 3 4 5 6 
#
# 1 0.021623 -0.005270 -0.008710 0.000000 0.000000 0.000000
# 2 -0.005270 0.013184 -0.004703 0.000000 0.000000 0.000000
# 3 -0.008710 -0.004703 0.020772 0.000000 0.000000 0.000000
# 4 0.000000 0.000000 0.000000 0.062623 0.000000 0.000000
# 5 0.000000 0.000000 0.000000 0.000000 0.055354 0.000000
# 6 0.000000 0.000000 0.000000 0.000000 0.000000 0.045589
#
#
# Mechanical properties :
#
#
# Convention : Reuss Voigt Hill
#
# Bulk Modulus (GPa) = 54.90240 56.85652 55.87946
# Shear Modulus (GPa) = 19.04170 19.82558 19.43364
#
# Velocity S-wave (km/s) = 3.37463 3.44339 3.40919
# Velocity P-wave (km/s) = 6.92960 7.05784 6.99401
#
# Compressibility (1/GPa) = 0.01821414
#
# Stress axis : x y z
#
# Youngs Moduli (GPa) = 46.24635 75.84785 48.14262
#
# Poissons Ratio (x) = 0.39969 0.41934
# Poissons Ratio (y) = 0.24370 0.22639
# Poissons Ratio (z) = 0.40282 0.35668
#
# Static dielectric constant tensor:
#      x y z
#    x 1.582700 0.000000 0.000000 
#    y 0.000000 1.588970 0.000000 
#    z 0.000000 0.000000 1.554050 
# 
# From -- ./inp_files/72867.got.cif
#   From: 2010.05.17/outbox.cif.g08.bks.cpg/sg74_37_cif.got.tgz:72867.got - 2010.06.03 17:57:02.
