data_PCOD9536579
_publ_section_title
;
Structure prediction by ZEFSAII (Michael W. Deem and Ramdas Pophale) SiO2 
 PCOD9536579
Probable space group: I M M A
;
_chemical_formula_sum "Si O2"
_cell_formula_units_Z 44
_cell_length_a 17.682150
_cell_length_b 7.826233
_cell_length_c 14.467734
_cell_angle_alpha 90.000000
_cell_angle_beta 90.000000
_cell_angle_gamma 90.000000
_cell_volume 2002.111956
_symmetry_space_group_name_H-M "I M M A"
_symmetry_group_IT_number 74
_symmetry_cell_setting 'orthorhombic'
loop_
_space_group_symop_operation_xyz
x,y,z
-x,1/2-y,z
x,-y,-z
-x,1/2+y,-z
-x,-y,-z
x,1/2+y,-z
-x,y,z
x,1/2-y,z
1/2+x,1/2+y,1/2+z
1/2-x,-y,1/2+z
1/2+x,1/2-y,1/2-z
1/2-x,y,1/2-z
1/2-x,1/2-y,1/2-z
1/2+x,y,1/2-z
1/2-x,1/2+y,1/2+z
1/2+x,-y,1/2+z
loop_
_atom_site_type_symbol
_atom_site_label
_atom_site_fract_x
_atom_site_fract_y
_atom_site_fract_z
Si Si1 0.152545 0.437094 0.206589
Si Si2 0.250000 0.750000 0.250000
Si Si3 0.408600 0.052061 0.895671
Si Si4 0.000000 0.545966 0.107069
O O1 0.183031 0.250000 0.182730
O O2 0.206802 0.597160 0.190986
O O3 0.129739 0.445959 0.315188
O O4 0.074455 0.468944 0.153560
O O5 0.500000 0.039657 0.887856
O O6 0.386447 0.250000 0.877882
O O7 0.389119 0.000000 0.000000
O O8 0.000000 0.750000 0.122158
O O9 0.000000 0.500000 0.000000
#
# Coordination Sequence:
#
# PCOD9536579 Si02
#       4
#    16   4  16   8
#     4  12  24  44  71 101 137 184 232 291 357 420
#     4  12  26  46  68  94 148 188 230 278 360 442
#     4  10  19  34  61  98 132 165 211 274 333 396
#     4  12  24  46  77 109 138 180 249 317 356 410
#
# _framework density 21.976793000000001
#
# number of rings (size 3 to 8) (size 9 to 14) (size 15 to 20)
#    0.000    0.727    5.455    3.273    0.000    1.455 
#    0.000    1.818    0.000    0.000    0.000    0.000 
#    0.000    0.000    0.000    0.000    0.000    0.000 
#
# Total GULP energy -122599.366155 kJ/mol
# GULP energy per Si atom -5572.698462 kJ/mol
# Density = 2.192677 g / cm^3
# Si number density = 21.976793 Si / 1000 Ang^3
#
#
#
# Elastic Constant Matrix: (Units=GPa)
#
#
# Indices 1 2 3 4 5 6 
#
# 1 82.0640 38.1161 13.9354 0.0000 0.0000 0.0000
# 2 38.1161 220.5832 11.0355 0.0000 0.0000 0.0000
# 3 13.9354 11.0355 97.6671 0.0000 0.0000 0.0000
# 4 0.0000 0.0000 0.0000 27.0597 0.0000 0.0000
# 5 0.0000 0.0000 0.0000 0.0000 -14.9356 0.0000
# 6 0.0000 0.0000 0.0000 0.0000 0.0000 9.9631
#
#
#
# Elastic Compliance Matrix: (Units=1/GPa)
#
#
# Indices 1 2 3 4 5 6 
#
# 1 0.013516 -0.002252 -0.001674 0.000000 0.000000 0.000000
# 2 -0.002252 0.004934 -0.000236 0.000000 0.000000 0.000000
# 3 -0.001674 -0.000236 0.010504 0.000000 0.000000 0.000000
# 4 0.000000 0.000000 0.000000 0.036955 0.000000 0.000000
# 5 0.000000 0.000000 0.000000 0.000000 -0.066954 0.000000
# 6 0.000000 0.000000 0.000000 0.000000 0.000000 0.100370
#
#
# Mechanical properties :
#
#
# Convention : Reuss Voigt Hill
#
# Bulk Modulus (GPa) = 48.47205 58.49873 53.48539
# Shear Modulus (GPa) = 43.65801 26.89927 35.27864
#
# Velocity S-wave (km/s) = 4.46191 3.50235 4.01093
# Velocity P-wave (km/s) = 6.97486 6.55983 6.77053
#
# Compressibility (1/GPa) = 0.02063045
#
# Stress axis : x y z
#
# Youngs Moduli (GPa) = 73.98782 202.66099 95.19811
#
# Poissons Ratio (x) = 0.45634 0.15937
# Poissons Ratio (y) = 0.16660 0.02249
# Poissons Ratio (z) = 0.12386 0.04788
#
# Static dielectric constant tensor:
#      x y z
#    x 1.891940 0.000000 0.000000 
#    y 0.000000 1.804570 0.000000 
#    z 0.000000 0.000000 2.202000 
# 
# From -- ./inp_files/33344.got.cif
#   From: 2010.05.17/outbox.cif.g08.bks.cpg/sg74_17_cif.got.tgz:33344.got - 2010.06.03 17:57:02.
