data_PCOD9536146
_publ_section_title
;
Structure prediction by ZEFSAII (Michael W. Deem and Ramdas Pophale) SiO2 
 PCOD9536146
Probable space group: I M M A
;
_chemical_formula_sum "Si O2"
_cell_formula_units_Z 92
_cell_length_a 7.661170
_cell_length_b 22.795699
_cell_length_c 28.243447
_cell_angle_alpha 90.000000
_cell_angle_beta 90.000000
_cell_angle_gamma 90.000000
_cell_volume 4932.484313
_symmetry_space_group_name_H-M "I M M A"
_symmetry_group_IT_number 74
_symmetry_cell_setting 'orthorhombic'
loop_
_space_group_symop_operation_xyz
x,y,z
-x,1/2-y,z
x,-y,-z
-x,1/2+y,-z
-x,-y,-z
x,1/2+y,-z
-x,y,z
x,1/2-y,z
1/2+x,1/2+y,1/2+z
1/2-x,-y,1/2+z
1/2+x,1/2-y,1/2-z
1/2-x,y,1/2-z
1/2-x,1/2-y,1/2-z
1/2+x,y,1/2-z
1/2-x,1/2+y,1/2+z
1/2+x,-y,1/2+z
loop_
_atom_site_type_symbol
_atom_site_label
_atom_site_fract_x
_atom_site_fract_y
_atom_site_fract_z
Si Si1 0.500000 0.750000 0.474152
Si Si2 0.289741 0.045769 0.900194
Si Si3 0.210535 0.250000 0.194656
Si Si4 0.206917 0.008554 0.302756
Si Si5 0.707460 0.628775 0.652500
Si Si6 0.792895 0.925023 0.946068
Si Si7 0.202297 0.851001 0.464695
O O1 0.344360 0.801054 0.473795
O O2 0.500000 0.044767 0.899540
O O3 0.240896 0.109273 0.919741
O O4 0.223837 0.028552 0.847644
O O5 0.233228 0.993741 0.935601
O O6 0.250000 0.250000 0.250000
O O7 0.278586 0.190457 0.170727
O O8 0.000000 0.250000 0.189877
O O9 0.250000 0.988059 0.250000
O O10 0.265690 0.075594 0.311023
O O11 0.000000 0.008526 0.306843
O O12 0.500000 0.635744 0.646800
O O13 0.774657 0.607218 0.601653
O O14 0.000000 0.914987 0.950629
O O15 0.705180 0.896541 0.991371
O O16 0.000000 0.830892 0.458614
#
# Coordination Sequence:
#
# PCOD9536146 Si02
#       7
#     4  16   8  16  16  16  16
#     4  12  26  42  58  86 112 156 198 240 282 342
#     4   9  20  36  57  84 117 150 187 232 294 352
#     4  10  20  33  46  62  91 138 192 235 275 315
#     4  10  19  33  52  79 113 141 177 230 288 345
#     4   9  19  33  48  72 103 146 188 235 283 329
#     4  10  19  33  56  87 114 149 190 240 291 344
#     4  11  23  41  61  85 119 153 194 239 289 347
#
# _framework density 18.651858000000001
#
# number of rings (size 3 to 8) (size 9 to 14) (size 15 to 20)
#    0.000    2.087    0.870    2.348    1.217    6.261 
#    1.565    0.000    0.000    0.000    0.000    0.609 
#    0.000    0.000    0.000    0.000    0.000    0.000 
#
# Total GULP energy -256143.888015 kJ/mol
# GULP energy per Si atom -5568.345392 kJ/mol
# Density = 1.860941 g / cm^3
# Si number density = 18.651858 Si / 1000 Ang^3
#
#
#
# Elastic Constant Matrix: (Units=GPa)
#
#
# Indices 1 2 3 4 5 6 
#
# 1 64.9375 24.0076 6.1883 0.0000 0.0000 0.0000
# 2 24.0076 69.5506 35.0329 0.0000 0.0000 0.0000
# 3 6.1883 35.0329 74.7549 0.0000 0.0000 0.0000
# 4 0.0000 0.0000 0.0000 7.6718 0.0000 0.0000
# 5 0.0000 0.0000 0.0000 0.0000 18.4705 0.0000
# 6 0.0000 0.0000 0.0000 0.0000 0.0000 39.1970
#
#
#
# Elastic Compliance Matrix: (Units=1/GPa)
#
#
# Indices 1 2 3 4 5 6 
#
# 1 0.017844 -0.007089 0.001845 0.000000 0.000000 0.000000
# 2 -0.007089 0.021637 -0.009553 0.000000 0.000000 0.000000
# 3 0.001845 -0.009553 0.017701 0.000000 0.000000 0.000000
# 4 0.000000 0.000000 0.000000 0.130348 0.000000 0.000000
# 5 0.000000 0.000000 0.000000 0.000000 0.054141 0.000000
# 6 0.000000 0.000000 0.000000 0.000000 0.000000 0.025512
#
#
# Mechanical properties :
#
#
# Convention : Reuss Voigt Hill
#
# Bulk Modulus (GPa) = 36.24688 37.74451 36.99569
# Shear Modulus (GPa) = 16.34131 22.66880 19.50506
#
# Velocity S-wave (km/s) = 2.96315 3.48999 3.23730
# Velocity P-wave (km/s) = 5.58414 6.04320 5.81820
#
# Compressibility (1/GPa) = 0.02758858
#
# Stress axis : x y z
#
# Youngs Moduli (GPa) = 56.03998 46.21742 56.49330
#
# Poissons Ratio (x) = 0.32763 -0.10423
# Poissons Ratio (y) = 0.39726 0.53968
# Poissons Ratio (z) = -0.10339 0.44152
#
# Static dielectric constant tensor:
#      x y z
#    x 1.681010 0.000000 0.000000 
#    y 0.000000 1.641110 0.000000 
#    z 0.000000 0.000000 1.672100 
# 
# From -- ./inp_files/64391.got.cif
#   From: 2010.05.17/outbox.cif.g08.bks.cpg/sg74_33_cif.got.tgz:64391.got - 2010.06.03 17:57:02.
