data_PCOD9536983
_publ_section_title
;
Structure prediction by ZEFSAII (Michael W. Deem and Ramdas Pophale) SiO2 
 PCOD9536983
Probable space group: I M M A
;
_chemical_formula_sum "Si O2"
_cell_formula_units_Z 80
_cell_length_a 25.534234
_cell_length_b 7.840085
_cell_length_c 24.344649
_cell_angle_alpha 90.000000
_cell_angle_beta 90.000000
_cell_angle_gamma 90.000000
_cell_volume 4873.569037
_symmetry_space_group_name_H-M "I M M A"
_symmetry_group_IT_number 74
_symmetry_cell_setting 'orthorhombic'
loop_
_space_group_symop_operation_xyz
x,y,z
-x,1/2-y,z
x,-y,-z
-x,1/2+y,-z
-x,-y,-z
x,1/2+y,-z
-x,y,z
x,1/2-y,z
1/2+x,1/2+y,1/2+z
1/2-x,-y,1/2+z
1/2+x,1/2-y,1/2-z
1/2-x,y,1/2-z
1/2-x,1/2-y,1/2-z
1/2+x,y,1/2-z
1/2-x,1/2+y,1/2+z
1/2+x,-y,1/2+z
loop_
_atom_site_type_symbol
_atom_site_label
_atom_site_fract_x
_atom_site_fract_y
_atom_site_fract_z
Si Si1 0.663973 0.047496 0.062325
Si Si2 0.057789 0.548612 0.746132
Si Si3 0.331048 0.458451 0.274454
Si Si4 0.558194 0.952811 0.120281
Si Si5 0.269136 0.541851 0.836139
O O1 0.665811 0.250000 0.066409
O O2 0.704747 0.978789 0.107805
O O3 0.605483 0.994947 0.080029
O O4 0.675633 0.000000 0.000000
O O5 0.055394 0.750000 0.758471
O O6 0.109337 0.478535 0.776034
O O7 0.067006 0.531726 0.680586
O O8 0.000000 0.474495 0.757685
O O9 0.332353 0.250000 0.275158
O O10 0.305481 0.506249 0.215772
O O11 0.289795 0.513120 0.320938
O O12 0.500000 0.007466 0.101217
O O13 0.557380 0.750000 0.127833
O O14 0.268531 0.750000 0.837198
#
# Coordination Sequence:
#
# PCOD9536983 Si02
#       5
#    16  16  16  16  16
#     4  11  21  33  47  62  80 107 141 179 214 246
#     4   9  15  24  42  66  88 110 137 171 208 243
#     4   8  12  22  41  64  85 105 133 167 201 249
#     4  10  20  32  44  59  82 112 144 176 208 243
#     4   8  14  24  41  62  82 106 136 166 204 248
#
# _framework density 16.415074000000001
#
# number of rings (size 3 to 8) (size 9 to 14) (size 15 to 20)
#    0.000    2.800    2.000    2.400    0.000    1.600 
#    0.000    0.000    0.000    3.600    0.000    0.000 
#    0.000    0.800    0.000    0.600    0.000    1.200 
#
# Total GULP energy -222829.879784 kJ/mol
# GULP energy per Si atom -5570.746995 kJ/mol
# Density = 1.637771 g / cm^3
# Si number density = 16.415074 Si / 1000 Ang^3
#
#
#
# Elastic Constant Matrix: (Units=GPa)
#
#
# Indices 1 2 3 4 5 6 
#
# 1 156.2443 7.0844 75.9002 0.0000 0.0000 0.0000
# 2 7.0844 21.7792 0.6689 0.0000 0.0000 0.0000
# 3 75.9002 0.6689 80.3734 0.0000 0.0000 0.0000
# 4 0.0000 0.0000 0.0000 10.7861 0.0000 0.0000
# 5 0.0000 0.0000 0.0000 0.0000 21.3318 0.0000
# 6 0.0000 0.0000 0.0000 0.0000 0.0000 0.1999
#
#
#
# Elastic Compliance Matrix: (Units=1/GPa)
#
#
# Indices 1 2 3 4 5 6 
#
# 1 0.012098 -0.003585 -0.011395 0.000000 0.000000 0.000000
# 2 -0.003585 0.046990 0.002995 0.000000 0.000000 0.000000
# 3 -0.011395 0.002995 0.023178 0.000000 0.000000 0.000000
# 4 0.000000 0.000000 0.000000 0.092712 0.000000 0.000000
# 5 0.000000 0.000000 0.000000 0.000000 0.046878 0.000000
# 6 0.000000 0.000000 0.000000 0.000000 0.000000 5.002461
#
#
# Mechanical properties :
#
#
# Convention : Reuss Voigt Hill
#
# Bulk Modulus (GPa) = 17.15428 47.30041 32.22735
# Shear Modulus (GPa) = 0.94918 18.11312 9.53115
#
# Velocity S-wave (km/s) = 0.76124 3.32542 2.41225
# Velocity P-wave (km/s) = 3.35346 6.60472 5.23775
#
# Compressibility (1/GPa) = 0.05829449
#
# Stress axis : x y z
#
# Youngs Moduli (GPa) = 82.65614 21.28124 43.14447
#
# Poissons Ratio (x) = 0.07630 0.49164
# Poissons Ratio (y) = 0.29635 -0.12921
# Poissons Ratio (z) = 0.94188 -0.06373
#
# Static dielectric constant tensor:
#      x y z
#    x 1.616110 0.000000 0.000000 
#    y 0.000000 1.604260 0.000000 
#    z 0.000000 0.000000 1.498000 
# 
# From -- ./inp_files/46499.got.cif
#   From: 2010.05.17/outbox.cif.g08.bks.cpg/sg74_24_cif.got.tgz:46499.got - 2010.06.03 17:57:02.
