data_PCOD9536257
_publ_section_title
;
Structure prediction by ZEFSAII (Michael W. Deem and Ramdas Pophale) SiO2 
 PCOD9536257
Probable space group: I M M A
;
_chemical_formula_sum "Si O2"
_cell_formula_units_Z 96
_cell_length_a 28.303130
_cell_length_b 8.603831
_cell_length_c 21.042163
_cell_angle_alpha 90.000000
_cell_angle_beta 90.000000
_cell_angle_gamma 90.000000
_cell_volume 5124.089631
_symmetry_space_group_name_H-M "I M M A"
_symmetry_group_IT_number 74
_symmetry_cell_setting 'orthorhombic'
loop_
_space_group_symop_operation_xyz
x,y,z
-x,1/2-y,z
x,-y,-z
-x,1/2+y,-z
-x,-y,-z
x,1/2+y,-z
-x,y,z
x,1/2-y,z
1/2+x,1/2+y,1/2+z
1/2-x,-y,1/2+z
1/2+x,1/2-y,1/2-z
1/2-x,y,1/2-z
1/2-x,1/2-y,1/2-z
1/2+x,y,1/2-z
1/2-x,1/2+y,1/2+z
1/2+x,-y,1/2+z
loop_
_atom_site_type_symbol
_atom_site_label
_atom_site_fract_x
_atom_site_fract_y
_atom_site_fract_z
Si Si1 0.609896 0.436197 0.689736
Si Si2 0.945187 0.436058 0.069294
Si Si3 0.226432 0.936473 0.568759
Si Si4 0.878905 0.436881 0.569074
Si Si5 0.215112 0.437657 0.192851
Si Si6 0.945927 0.560463 0.315444
O O1 0.608509 0.250000 0.687498
O O2 0.587705 0.501451 0.625084
O O3 0.663447 0.491065 0.698988
O O4 0.578584 0.489152 0.749901
O O5 0.943266 0.250000 0.068054
O O6 0.000000 0.483702 0.080877
O O7 0.931591 0.500000 0.000000
O O8 0.223823 0.750000 0.565916
O O9 0.261099 0.981497 0.625786
O O10 0.241553 0.000000 0.500000
O O11 0.173935 0.001320 0.581612
O O12 0.893343 0.500000 0.500000
O O13 0.877460 0.250000 0.567074
O O14 0.914401 0.487620 0.624474
O O15 0.211092 0.250000 0.194625
O O16 0.250000 0.484748 0.250000
O O17 0.946289 0.750000 0.315490
O O18 0.000000 0.507630 0.319629
#
# Coordination Sequence:
#
# PCOD9536257 Si02
#       6
#    16  16  16  16  16  16
#     4  11  22  36  58  84 111 145 184 229 277 330
#     4  10  21  38  60  85 114 148 185 226 273 327
#     4  10  20  35  56  79 106 140 175 217 267 320
#     4  10  19  33  55  80 108 142 179 222 268 318
#     4  10  22  39  57  78 108 145 184 230 280 328
#     4   9  19  35  54  78 109 144 181 221 267 319
#
# _framework density 18.735035
#
# number of rings (size 3 to 8) (size 9 to 14) (size 15 to 20)
#    0.000    2.000    0.000    4.500    0.000    4.333 
#    0.000    4.167    0.000    5.500    0.000    0.000 
#    0.000    0.000    0.000    0.000    0.000    0.000 
#
# Total GULP energy -268164.611512 kJ/mol
# GULP energy per Si atom -5586.762740 kJ/mol
# Density = 1.869239 g / cm^3
# Si number density = 18.735035 Si / 1000 Ang^3
#
#
#
# Elastic Constant Matrix: (Units=GPa)
#
#
# Indices 1 2 3 4 5 6 
#
# 1 43.9931 13.9112 15.9497 0.0000 0.0000 0.0000
# 2 13.9112 34.4536 16.7527 0.0000 0.0000 0.0000
# 3 15.9497 16.7527 56.1851 0.0000 0.0000 0.0000
# 4 0.0000 0.0000 0.0000 22.7180 0.0000 0.0000
# 5 0.0000 0.0000 0.0000 0.0000 43.1092 0.0000
# 6 0.0000 0.0000 0.0000 0.0000 0.0000 26.5476
#
#
#
# Elastic Compliance Matrix: (Units=1/GPa)
#
#
# Indices 1 2 3 4 5 6 
#
# 1 0.027308 -0.008487 -0.005221 0.000000 0.000000 0.000000
# 2 -0.008487 0.036584 -0.008499 0.000000 0.000000 0.000000
# 3 -0.005221 -0.008499 0.021815 0.000000 0.000000 0.000000
# 4 0.000000 0.000000 0.000000 0.044018 0.000000 0.000000
# 5 0.000000 0.000000 0.000000 0.000000 0.023197 0.000000
# 6 0.000000 0.000000 0.000000 0.000000 0.000000 0.037668
#
#
# Mechanical properties :
#
#
# Convention : Reuss Voigt Hill
#
# Bulk Modulus (GPa) = 24.21815 25.31766 24.76790
# Shear Modulus (GPa) = 20.09908 24.34285 22.22097
#
# Velocity S-wave (km/s) = 3.27893 3.60852 3.44767
# Velocity P-wave (km/s) = 5.22397 5.55921 5.39419
#
# Compressibility (1/GPa) = 0.04129135
#
# Stress axis : x y z
#
# Youngs Moduli (GPa) = 36.61982 27.33450 45.84071
#
# Poissons Ratio (x) = 0.23199 0.23935
# Poissons Ratio (y) = 0.31079 0.38960
# Poissons Ratio (z) = 0.19121 0.23231
#
# Static dielectric constant tensor:
#      x y z
#    x 1.618470 0.000000 0.000000 
#    y 0.000000 1.638240 0.000000 
#    z 0.000000 0.000000 1.632030 
# 
# From -- ./inp_files/49154.got.cif
#   From: 2010.05.17/outbox.cif.g08.bks.cpg/sg74_25_cif.got.tgz:49154.got - 2010.06.03 17:57:02.
