data_PCOD9536415
_publ_section_title
;
Structure prediction by ZEFSAII (Michael W. Deem and Ramdas Pophale) SiO2 
 PCOD9536415
Probable space group: I M M A
;
_chemical_formula_sum "Si O2"
_cell_formula_units_Z 116
_cell_length_a 8.197290
_cell_length_b 23.833447
_cell_length_c 28.287076
_cell_angle_alpha 90.000000
_cell_angle_beta 90.000000
_cell_angle_gamma 90.000000
_cell_volume 5526.436895
_symmetry_space_group_name_H-M "I M M A"
_symmetry_group_IT_number 74
_symmetry_cell_setting 'orthorhombic'
loop_
_space_group_symop_operation_xyz
x,y,z
-x,1/2-y,z
x,-y,-z
-x,1/2+y,-z
-x,-y,-z
x,1/2+y,-z
-x,y,z
x,1/2-y,z
1/2+x,1/2+y,1/2+z
1/2-x,-y,1/2+z
1/2+x,1/2-y,1/2-z
1/2-x,y,1/2-z
1/2-x,1/2-y,1/2-z
1/2+x,y,1/2-z
1/2-x,1/2+y,1/2+z
1/2+x,-y,1/2+z
loop_
_atom_site_type_symbol
_atom_site_label
_atom_site_fract_x
_atom_site_fract_y
_atom_site_fract_z
Si Si1 0.750000 0.250000 0.250000
Si Si2 0.305622 0.507870 0.400988
Si Si3 0.198257 0.369037 0.899668
Si Si4 0.696605 0.815151 0.301741
Si Si5 0.194627 0.813116 0.493129
Si Si6 0.307068 0.384428 0.420734
Si Si7 0.308722 0.033857 0.297833
Si Si8 0.311903 0.156090 0.178000
O O1 0.783224 0.299427 0.209779
O O2 0.500000 0.508450 0.411499
O O3 0.240956 0.568801 0.414331
O O4 0.241681 0.448654 0.420726
O O5 0.284096 0.502271 0.344563
O O6 0.252442 0.350250 0.847363
O O7 0.255386 0.326612 0.939727
O O8 0.000000 0.370235 0.899169
O O9 0.500000 0.815193 0.302573
O O10 0.751480 0.750000 0.306393
O O11 0.750000 0.835729 0.250000
O O12 0.245000 0.750000 0.505475
O O13 0.275950 0.855670 0.529598
O O14 0.000000 0.817533 0.497787
O O15 0.500000 0.387652 0.410441
O O16 0.230963 0.349111 0.377434
O O17 0.500000 0.046901 0.295102
O O18 0.250000 0.005517 0.250000
O O19 0.215950 0.092834 0.303717
O O20 0.500000 0.173375 0.183855
#
# Coordination Sequence:
#
# PCOD9536415 Si02
#       8
#     4  16  16  16  16  16  16  16
#     4  12  26  36  56  86 122 156 202 244 306 356
#     4   8  18  36  58  85 115 149 188 239 294 345
#     4  10  20  38  63  89 119 154 198 242 287 348
#     4   9  18  32  53  83 118 156 194 234 280 336
#     4  11  25  43  62  87 120 154 192 241 299 350
#     4  10  22  42  65  88 117 153 197 242 295 359
#     4  10  19  34  54  78 112 153 197 240 290 345
#     4  11  23  38  57  83 117 153 195 246 300 351
#
# _framework density 20.990015
#
# number of rings (size 3 to 8) (size 9 to 14) (size 15 to 20)
#    0.000    2.069    0.690    3.103    0.966    4.966 
#    0.000    8.276    0.000    0.000    0.000    0.000 
#    0.000    0.000    0.000    0.000    0.000    0.000 
#
# Total GULP energy -323270.934357 kJ/mol
# GULP energy per Si atom -5573.636799 kJ/mol
# Density = 2.094224 g / cm^3
# Si number density = 20.990015 Si / 1000 Ang^3
#
#
#
# Elastic Constant Matrix: (Units=GPa)
#
#
# Indices 1 2 3 4 5 6 
#
# 1 18.3219 6.2247 2.7589 0.0000 0.0000 0.0000
# 2 6.2247 72.2954 15.1589 0.0000 0.0000 0.0000
# 3 2.7589 15.1589 84.9374 0.0000 0.0000 0.0000
# 4 0.0000 0.0000 0.0000 -138.1208 0.0000 0.0000
# 5 0.0000 0.0000 0.0000 0.0000 26.9951 0.0000
# 6 0.0000 0.0000 0.0000 0.0000 0.0000 -209.6464
#
#
#
# Elastic Compliance Matrix: (Units=1/GPa)
#
#
# Indices 1 2 3 4 5 6 
#
# 1 0.056306 -0.004638 -0.001001 0.000000 0.000000 0.000000
# 2 -0.004638 0.014752 -0.002482 0.000000 0.000000 0.000000
# 3 -0.001001 -0.002482 0.012249 0.000000 0.000000 0.000000
# 4 0.000000 0.000000 0.000000 -0.007240 0.000000 0.000000
# 5 0.000000 0.000000 0.000000 0.000000 0.037044 0.000000
# 6 0.000000 0.000000 0.000000 0.000000 0.000000 -0.004770
#
#
# Mechanical properties :
#
#
# Convention : Reuss Voigt Hill
#
# Bulk Modulus (GPa) = 14.91111 24.87107 19.89109
# Shear Modulus (GPa) = 34.02799 -54.06026 -10.01614
#
# Velocity S-wave (km/s) = 4.03072 -5.08047 -2.18683
# Velocity P-wave (km/s) = 5.36485 4.74764 1.76656
#
# Compressibility (1/GPa) = 0.06706407
#
# Stress axis : x y z
#
# Youngs Moduli (GPa) = 17.76011 67.78768 81.64011
#
# Poissons Ratio (x) = 0.31441 0.08173
# Poissons Ratio (y) = 0.08237 0.20264
# Poissons Ratio (z) = 0.01778 0.16826
#
# Static dielectric constant tensor:
#      x y z
#    x 1.756790 0.000000 0.000000 
#    y 0.000000 1.758100 0.000000 
#    z 0.000000 0.000000 1.743540 
# 
# From -- ./inp_files/64860.got.cif
#   From: 2010.05.17/outbox.cif.g08.bks.cpg/sg74_33_cif.got.tgz:64860.got - 2010.06.03 17:57:02.
