data_PCOD9536094
_publ_section_title
;
Structure prediction by ZEFSAII (Michael W. Deem and Ramdas Pophale) SiO2 
 PCOD9536094
Probable space group: I M M A
;
_chemical_formula_sum "Si O2"
_cell_formula_units_Z 80
_cell_length_a 25.071571
_cell_length_b 14.438816
_cell_length_c 10.949723
_cell_angle_alpha 90.000000
_cell_angle_beta 90.000000
_cell_angle_gamma 90.000000
_cell_volume 3963.841340
_symmetry_space_group_name_H-M "I M M A"
_symmetry_group_IT_number 74
_symmetry_cell_setting 'orthorhombic'
loop_
_space_group_symop_operation_xyz
x,y,z
-x,1/2-y,z
x,-y,-z
-x,1/2+y,-z
-x,-y,-z
x,1/2+y,-z
-x,y,z
x,1/2-y,z
1/2+x,1/2+y,1/2+z
1/2-x,-y,1/2+z
1/2+x,1/2-y,1/2-z
1/2-x,y,1/2-z
1/2-x,1/2-y,1/2-z
1/2+x,y,1/2-z
1/2-x,1/2+y,1/2+z
1/2+x,-y,1/2+z
loop_
_atom_site_type_symbol
_atom_site_label
_atom_site_fract_x
_atom_site_fract_y
_atom_site_fract_z
Si Si1 0.000000 0.642606 0.539458
Si Si2 0.115952 0.862807 0.242593
Si Si3 0.500000 0.142267 0.742954
Si Si4 0.269081 0.395253 0.122091
Si Si5 0.883641 0.137637 0.472042
Si Si6 0.225023 0.395590 0.871431
O O1 0.058087 0.602446 0.572466
O O2 0.000000 0.750000 0.580208
O O3 0.000000 0.643109 0.391326
O O4 0.115982 0.750000 0.239560
O O5 0.057052 0.897258 0.205796
O O6 0.125155 0.888432 0.385334
O O7 0.162378 0.897156 0.154732
O O8 0.500000 0.250000 0.704544
O O9 0.250000 0.353885 0.250000
O O10 0.332629 0.392323 0.104883
O O11 0.248677 0.500956 0.125105
O O12 0.242992 0.353371 0.999695
O O13 0.886022 0.250000 0.469944
O O14 0.250000 0.350710 0.750000
#
# Coordination Sequence:
#
# PCOD9536094 Si02
#       6
#     8  16   8  16  16  16
#     4   7  12  24  46  75 102 127 154 199 258 300
#     4   9  16  28  52  80 102 125 164 212 253 295
#     4   7  12  24  44  77 107 121 147 207 266 294
#     4  10  21  33  47  68 103 143 168 204 248 294
#     4   9  16  29  51  78 104 128 163 208 252 299
#     4  10  19  33  50  69  97 137 173 204 245 294
#
# _framework density 20.182442999999999
#
# number of rings (size 3 to 8) (size 9 to 14) (size 15 to 20)
#    0.000    3.000    2.000    2.400    0.000    1.600 
#    0.000    0.000    0.000   10.800    0.000    4.200 
#    0.000    0.000    0.000    0.000    0.000    0.000 
#
# Total GULP energy -222939.935744 kJ/mol
# GULP energy per Si atom -5573.498394 kJ/mol
# Density = 2.013651 g / cm^3
# Si number density = 20.182443 Si / 1000 Ang^3
#
#
#
# Elastic Constant Matrix: (Units=GPa)
#
#
# Indices 1 2 3 4 5 6 
#
# 1 247.2069 19.7009 69.2668 0.0000 0.0000 0.0000
# 2 19.7009 67.2256 8.4939 0.0000 0.0000 0.0000
# 3 69.2668 8.4939 127.3453 0.0000 0.0000 0.0000
# 4 0.0000 0.0000 0.0000 -5.9816 0.0000 0.0000
# 5 0.0000 0.0000 0.0000 0.0000 30.4854 0.0000
# 6 0.0000 0.0000 0.0000 0.0000 0.0000 27.7616
#
#
#
# Elastic Compliance Matrix: (Units=1/GPa)
#
#
# Indices 1 2 3 4 5 6 
#
# 1 0.004852 -0.001098 -0.002566 0.000000 0.000000 0.000000
# 2 -0.001098 0.015250 -0.000420 0.000000 0.000000 0.000000
# 3 -0.002566 -0.000420 0.009276 0.000000 0.000000 0.000000
# 4 0.000000 0.000000 0.000000 -0.167178 0.000000 0.000000
# 5 0.000000 0.000000 0.000000 0.000000 0.032803 0.000000
# 6 0.000000 0.000000 0.000000 0.000000 0.000000 0.036021
#
#
# Mechanical properties :
#
#
# Convention : Reuss Voigt Hill
#
# Bulk Modulus (GPa) = 47.14551 70.74454 58.94502
# Shear Modulus (GPa) = -93.04174 33.40748 -29.81713
#
# Velocity S-wave (km/s) = -6.79709 4.07292 -3.84784
# Velocity P-wave (km/s) = 6.17982 7.56616 3.08680
#
# Compressibility (1/GPa) = 0.02121093
#
# Stress axis : x y z
#
# Youngs Moduli (GPa) = 206.11885 65.57364 107.80224
#
# Poissons Ratio (x) = 0.07197 0.27659
# Poissons Ratio (y) = 0.22624 0.04529
# Poissons Ratio (z) = 0.52884 0.02755
#
# Static dielectric constant tensor:
#      x y z
#    x 1.771150 0.000000 0.000000 
#    y 0.000000 1.608440 0.000000 
#    z 0.000000 0.000000 1.739710 
# 
# From -- ./inp_files/25120.got.cif
#   From: 2010.05.17/outbox.cif.g08.bks.cpg/sg74_13_cif.got.tgz:25120.got - 2010.06.03 17:57:02.
