data_PCOD9536201
_publ_section_title
;
Structure prediction by ZEFSAII (Michael W. Deem and Ramdas Pophale) SiO2 
 PCOD9536201
Probable space group: I M M A
;
_chemical_formula_sum "Si O2"
_cell_formula_units_Z 72
_cell_length_a 20.984835
_cell_length_b 15.964463
_cell_length_c 12.727310
_cell_angle_alpha 90.000000
_cell_angle_beta 90.000000
_cell_angle_gamma 90.000000
_cell_volume 4263.796766
_symmetry_space_group_name_H-M "I M M A"
_symmetry_group_IT_number 74
_symmetry_cell_setting 'orthorhombic'
loop_
_space_group_symop_operation_xyz
x,y,z
-x,1/2-y,z
x,-y,-z
-x,1/2+y,-z
-x,-y,-z
x,1/2+y,-z
-x,y,z
x,1/2-y,z
1/2+x,1/2+y,1/2+z
1/2-x,-y,1/2+z
1/2+x,1/2-y,1/2-z
1/2-x,y,1/2-z
1/2-x,1/2-y,1/2-z
1/2+x,y,1/2-z
1/2-x,1/2+y,1/2+z
1/2+x,-y,1/2+z
loop_
_atom_site_type_symbol
_atom_site_label
_atom_site_fract_x
_atom_site_fract_y
_atom_site_fract_z
Si Si1 0.316832 0.561480 0.908931
Si Si2 0.070940 0.148021 0.054966
Si Si3 0.570360 0.149690 0.201865
Si Si4 0.750000 0.058300 0.750000
Si Si5 0.704685 0.851089 0.458715
O O1 0.372478 0.621246 0.870890
O O2 0.297468 0.503693 0.810896
O O3 0.340414 0.500000 0.000000
O O4 0.255558 0.609074 0.959074
O O5 0.070386 0.250000 0.052461
O O6 0.079434 0.122806 0.176757
O O7 0.000000 0.120483 0.019745
O O8 0.133106 0.122003 0.990561
O O9 0.500000 0.120333 0.167572
O O10 0.569411 0.250000 0.203593
O O11 0.720386 0.114649 0.657313
O O12 0.709235 0.750000 0.462476
#
# Coordination Sequence:
#
# PCOD9536201 Si02
#       5
#    16  16  16   8  16
#     4  10  20  32  48  70  98 130 164 204 250 298
#     4   8  15  28  48  74  97 118 152 200 246 284
#     4   9  17  31  51  73  97 126 164 208 248 291
#     4  10  21  34  47  72 106 130 158 206 255 294
#     4  10  19  33  54  74  97 133 172 205 241 294
#
# _framework density 16.886358000000001
#
# number of rings (size 3 to 8) (size 9 to 14) (size 15 to 20)
#    0.000    2.667    0.000    3.667    0.000    0.444 
#    0.000    5.556    0.000   10.000    0.000   12.444 
#    0.000    0.000    0.000    0.000    0.000    0.000 
#
# Total GULP energy -200542.988053 kJ/mol
# GULP energy per Si atom -5570.638557 kJ/mol
# Density = 1.684792 g / cm^3
# Si number density = 16.886358 Si / 1000 Ang^3
#
#
#
# Elastic Constant Matrix: (Units=GPa)
#
#
# Indices 1 2 3 4 5 6 
#
# 1 160.5494 36.5166 80.7792 0.0000 0.0000 0.0000
# 2 36.5166 48.1651 27.1031 0.0000 0.0000 0.0000
# 3 80.7792 27.1031 73.3743 0.0000 0.0000 0.0000
# 4 0.0000 0.0000 0.0000 -15.1661 0.0000 0.0000
# 5 0.0000 0.0000 0.0000 0.0000 16.2233 0.0000
# 6 0.0000 0.0000 0.0000 0.0000 0.0000 8.1329
#
#
#
# Elastic Compliance Matrix: (Units=1/GPa)
#
#
# Indices 1 2 3 4 5 6 
#
# 1 0.014195 -0.002485 -0.014709 0.000000 0.000000 0.000000
# 2 -0.002485 0.026645 -0.007107 0.000000 0.000000 0.000000
# 3 -0.014709 -0.007107 0.032448 0.000000 0.000000 0.000000
# 4 0.000000 0.000000 0.000000 -0.065937 0.000000 0.000000
# 5 0.000000 0.000000 0.000000 0.000000 0.061640 0.000000
# 6 0.000000 0.000000 0.000000 0.000000 0.000000 0.122958
#
#
# Mechanical properties :
#
#
# Convention : Reuss Voigt Hill
#
# Bulk Modulus (GPa) = 40.50941 63.43183 51.97062
# Shear Modulus (GPa) = 20.09822 11.01734 15.55778
#
# Velocity S-wave (km/s) = 3.45368 2.55706 3.03862
# Velocity P-wave (km/s) = 6.32023 6.80908 6.56921
#
# Compressibility (1/GPa) = 0.02468562
#
# Stress axis : x y z
#
# Youngs Moduli (GPa) = 70.44907 37.53100 30.81886
#
# Poissons Ratio (x) = 0.09325 0.45333
# Poissons Ratio (y) = 0.17504 0.21902
# Poissons Ratio (z) = 1.03626 0.26672
#
# Static dielectric constant tensor:
#      x y z
#    x 1.577390 0.000000 0.000000 
#    y 0.000000 1.575630 0.000000 
#    z 0.000000 0.000000 1.584130 
# 
# From -- ./inp_files/21833.got.cif
#   From: 2010.05.17/outbox.cif.g08.bks.cpg/sg74_11_cif.got.tgz:21833.got - 2010.06.03 17:57:02.
