data_PCOD9536794
_publ_section_title
;
Structure prediction by ZEFSAII (Michael W. Deem and Ramdas Pophale) SiO2 
 PCOD9536794
Probable space group: I M M A
;
_chemical_formula_sum "Si O2"
_cell_formula_units_Z 96
_cell_length_a 26.860445
_cell_length_b 18.472132
_cell_length_c 9.800372
_cell_angle_alpha 90.000000
_cell_angle_beta 90.000000
_cell_angle_gamma 90.000000
_cell_volume 4862.647494
_symmetry_space_group_name_H-M "I M M A"
_symmetry_group_IT_number 74
_symmetry_cell_setting 'orthorhombic'
loop_
_space_group_symop_operation_xyz
x,y,z
-x,1/2-y,z
x,-y,-z
-x,1/2+y,-z
-x,-y,-z
x,1/2+y,-z
-x,y,z
x,1/2-y,z
1/2+x,1/2+y,1/2+z
1/2-x,-y,1/2+z
1/2+x,1/2-y,1/2-z
1/2-x,y,1/2-z
1/2-x,1/2-y,1/2-z
1/2+x,y,1/2-z
1/2-x,1/2+y,1/2+z
1/2+x,-y,1/2+z
loop_
_atom_site_type_symbol
_atom_site_label
_atom_site_fract_x
_atom_site_fract_y
_atom_site_fract_z
Si Si1 0.265412 0.065321 0.594967
Si Si2 0.881776 0.076142 0.948064
Si Si3 0.814903 0.163217 0.492333
Si Si4 0.901100 0.921924 0.346335
Si Si5 0.555865 0.075941 0.125394
Si Si6 0.627726 0.665941 0.722221
O O1 0.250000 0.056091 0.750000
O O2 0.324808 0.063362 0.596432
O O3 0.240202 0.137200 0.532488
O O4 0.246993 0.000000 0.500000
O O5 0.908221 0.102580 0.809495
O O6 0.875590 0.126423 0.078591
O O7 0.903896 0.000000 0.000000
O O8 0.821525 0.250000 0.511676
O O9 0.851987 0.116116 0.589509
O O10 0.830155 0.145759 0.335400
O O11 0.941334 0.907452 0.464386
O O12 0.905293 0.010153 0.342686
O O13 0.500000 0.055283 0.164186
O O14 0.576423 0.145181 0.202784
O O15 0.633316 0.750000 0.698173
#
# Coordination Sequence:
#
# PCOD9536794 Si02
#       6
#    16  16  16  16  16  16
#     4  11  25  37  60  89 123 164 212 260 301 346
#     4  11  22  38  57  91 125 161 204 254 305 359
#     4  10  23  40  60  87 123 172 211 250 299 358
#     4  10  19  36  63  87 122 152 200 253 305 360
#     4  10  21  39  68  95 116 151 205 256 308 376
#     4  10  23  41  63  89 125 168 203 247 312 373
#
# _framework density 19.742332000000001
#
# number of rings (size 3 to 8) (size 9 to 14) (size 15 to 20)
#    0.000    1.667    3.333    1.000    9.333    2.000 
#    0.000    4.167    0.000    1.500    0.000    0.000 
#    0.000    0.000    0.000    0.000    0.000    0.000 
#
# Total GULP energy -267394.626926 kJ/mol
# GULP energy per Si atom -5570.721394 kJ/mol
# Density = 1.969740 g / cm^3
# Si number density = 19.742332 Si / 1000 Ang^3
#
#
#
# Elastic Constant Matrix: (Units=GPa)
#
#
# Indices 1 2 3 4 5 6 
#
# 1 18.3909 -3.7266 -8.6343 0.0000 0.0000 0.0000
# 2 -3.7266 39.7786 35.3098 0.0000 0.0000 0.0000
# 3 -8.6343 35.3098 176.8450 0.0000 0.0000 0.0000
# 4 0.0000 0.0000 0.0000 27.8084 0.0000 0.0000
# 5 0.0000 0.0000 0.0000 0.0000 7.7303 0.0000
# 6 0.0000 0.0000 0.0000 0.0000 0.0000 20.4596
#
#
#
# Elastic Compliance Matrix: (Units=1/GPa)
#
#
# Indices 1 2 3 4 5 6 
#
# 1 0.056032 0.003429 0.002051 0.000000 0.000000 0.000000
# 2 0.003429 0.030764 -0.005975 0.000000 0.000000 0.000000
# 3 0.002051 -0.005975 0.006948 0.000000 0.000000 0.000000
# 4 0.000000 0.000000 0.000000 0.035960 0.000000 0.000000
# 5 0.000000 0.000000 0.000000 0.000000 0.129361 0.000000
# 6 0.000000 0.000000 0.000000 0.000000 0.000000 0.048877
#
#
# Mechanical properties :
#
#
# Convention : Reuss Voigt Hill
#
# Bulk Modulus (GPa) = 10.78124 31.21249 20.99687
# Shear Modulus (GPa) = 14.71229 25.33736 20.02483
#
# Velocity S-wave (km/s) = 2.73283 3.58635 3.18828
# Velocity P-wave (km/s) = 3.92818 5.74399 4.92057
#
# Compressibility (1/GPa) = 0.09275369
#
# Stress axis : x y z
#
# Youngs Moduli (GPa) = 17.84679 32.50530 143.92958
#
# Poissons Ratio (x) = -0.11145 -0.29522
# Poissons Ratio (y) = -0.06119 0.86000
# Poissons Ratio (z) = -0.03661 0.19422
#
# Static dielectric constant tensor:
#      x y z
#    x 1.713770 0.000000 0.000000 
#    y 0.000000 1.713740 0.000000 
#    z 0.000000 0.000000 1.733670 
# 
# From -- ./inp_files/15088.got.cif
#   From: 2010.05.17/outbox.cif.g08.bks.cpg/sg74_8_cif.got.tgz:15088.got - 2010.06.03 17:57:02.
