data_PCOD9536294
_publ_section_title
;
Structure prediction by ZEFSAII (Michael W. Deem and Ramdas Pophale) SiO2 
 PCOD9536294
Probable space group: I M M A
;
_chemical_formula_sum "Si O2"
_cell_formula_units_Z 120
_cell_length_a 8.671881
_cell_length_b 27.840845
_cell_length_c 28.437177
_cell_angle_alpha 90.000000
_cell_angle_beta 90.000000
_cell_angle_gamma 90.000000
_cell_volume 6865.658588
_symmetry_space_group_name_H-M "I M M A"
_symmetry_group_IT_number 74
_symmetry_cell_setting 'orthorhombic'
loop_
_space_group_symop_operation_xyz
x,y,z
-x,1/2-y,z
x,-y,-z
-x,1/2+y,-z
-x,-y,-z
x,1/2+y,-z
-x,y,z
x,1/2-y,z
1/2+x,1/2+y,1/2+z
1/2-x,-y,1/2+z
1/2+x,1/2-y,1/2-z
1/2-x,y,1/2-z
1/2-x,1/2-y,1/2-z
1/2+x,y,1/2-z
1/2-x,1/2+y,1/2+z
1/2+x,-y,1/2+z
loop_
_atom_site_type_symbol
_atom_site_label
_atom_site_fract_x
_atom_site_fract_y
_atom_site_fract_z
Si Si1 0.184994 0.946865 0.134126
Si Si2 0.314144 0.250000 0.697075
Si Si3 0.686690 0.356022 0.696837
Si Si4 0.815208 0.951941 0.643770
Si Si5 0.685704 0.196425 0.389843
Si Si6 0.183813 0.856438 0.698814
Si Si7 0.685148 0.102699 0.445718
Si Si8 0.315603 0.547862 0.028951
O O1 0.235762 0.899739 0.163171
O O2 0.243317 0.947380 0.080368
O O3 0.000000 0.948270 0.134234
O O4 0.249596 0.996113 0.156221
O O5 0.500000 0.250000 0.697752
O O6 0.250000 0.250000 0.750000
O O7 0.267075 0.197358 0.677991
O O8 0.500000 0.357087 0.699326
O O9 0.750000 0.361548 0.750000
O O10 0.774132 0.910025 0.680593
O O11 0.745904 0.934297 0.593967
O O12 0.000000 0.954285 0.639309
O O13 0.500000 0.195843 0.386959
O O14 0.736572 0.250000 0.402172
O O15 0.751000 0.180081 0.339727
O O16 0.729752 0.155296 0.426808
O O17 0.250000 0.847479 0.750000
O O18 0.000000 0.853241 0.699487
O O19 0.500000 0.099065 0.448598
O O20 0.761171 0.090518 0.495140
O O21 0.500000 0.546229 0.033604
O O22 0.266637 0.500000 0.000000
#
# Coordination Sequence:
#
# PCOD9536294 Si02
#       8
#    16   8  16  16  16  16  16  16
#     4  11  22  34  52  80 109 138 176 217 258 308
#     4   8  14  30  54  76 100 130 168 208 248 296
#     4   9  19  34  54  80 107 138 174 212 255 304
#     4  10  20  34  50  72 102 137 173 212 260 315
#     4   9  19  36  57  80 105 134 173 220 269 321
#     4  10  21  35  52  74 103 139 180 221 266 316
#     4  10  19  33  56  80 102 132 171 215 261 313
#     4  11  22  35  54  79 107 140 175 213 260 309
#
# _framework density 17.478294999999999
#
# number of rings (size 3 to 8) (size 9 to 14) (size 15 to 20)
#    0.000    2.133    1.333    2.000    0.000    4.800 
#    0.000    2.667    1.467    0.000    0.000    0.000 
#    0.000    0.000    0.000    0.000    0.000    0.000 
#
# Total GULP energy -334679.902768 kJ/mol
# GULP energy per Si atom -5577.998379 kJ/mol
# Density = 1.743851 g / cm^3
# Si number density = 17.478295 Si / 1000 Ang^3
#
#
#
# Elastic Constant Matrix: (Units=GPa)
#
#
# Indices 1 2 3 4 5 6 
#
# 1 18.1713 22.6692 10.6048 0.0000 0.0000 0.0000
# 2 22.6692 149.7161 39.5470 0.0000 0.0000 0.0000
# 3 10.6048 39.5470 59.3366 0.0000 0.0000 0.0000
# 4 0.0000 0.0000 0.0000 17.2700 0.0000 0.0000
# 5 0.0000 0.0000 0.0000 0.0000 25.3183 0.0000
# 6 0.0000 0.0000 0.0000 0.0000 0.0000 18.0300
#
#
#
# Elastic Compliance Matrix: (Units=1/GPa)
#
#
# Indices 1 2 3 4 5 6 
#
# 1 0.069916 -0.008842 -0.006602 0.000000 0.000000 0.000000
# 2 -0.008842 0.009225 -0.004568 0.000000 0.000000 0.000000
# 3 -0.006602 -0.004568 0.021077 0.000000 0.000000 0.000000
# 4 0.000000 0.000000 0.000000 0.057904 0.000000 0.000000
# 5 0.000000 0.000000 0.000000 0.000000 0.039497 0.000000
# 6 0.000000 0.000000 0.000000 0.000000 0.000000 0.055463
#
#
# Mechanical properties :
#
#
# Convention : Reuss Voigt Hill
#
# Bulk Modulus (GPa) = 16.61322 41.42957 29.02140
# Shear Modulus (GPa) = 15.96570 22.41719 19.19144
#
# Velocity S-wave (km/s) = 3.02563 3.58519 3.31723
# Velocity P-wave (km/s) = 4.66171 6.39476 5.59574
#
# Compressibility (1/GPa) = 0.06019304
#
# Stress axis : x y z
#
# Youngs Moduli (GPa) = 14.30291 108.40408 47.44421
#
# Poissons Ratio (x) = 0.95854 0.31324
# Poissons Ratio (y) = 0.12647 0.21672
# Poissons Ratio (z) = 0.09443 0.49517
#
# Static dielectric constant tensor:
#      x y z
#    x 1.586130 0.000000 0.000000 
#    y 0.000000 1.634830 0.000000 
#    z 0.000000 0.000000 1.568360 
# 
# From -- ./inp_files/65046.got.cif
#   From: 2010.05.17/outbox.cif.g08.bks.cpg/sg74_33_cif.got.tgz:65046.got - 2010.06.03 17:57:02.
