data_PCOD9536453
_publ_section_title
;
Structure prediction by ZEFSAII (Michael W. Deem and Ramdas Pophale) SiO2 
 PCOD9536453
Probable space group: I M M A
;
_chemical_formula_sum "Si O2"
_cell_formula_units_Z 96
_cell_length_a 25.236136
_cell_length_b 8.106785
_cell_length_c 23.277218
_cell_angle_alpha 90.000000
_cell_angle_beta 90.000000
_cell_angle_gamma 90.000000
_cell_volume 4762.144710
_symmetry_space_group_name_H-M "I M M A"
_symmetry_group_IT_number 74
_symmetry_cell_setting 'orthorhombic'
loop_
_space_group_symop_operation_xyz
x,y,z
-x,1/2-y,z
x,-y,-z
-x,1/2+y,-z
-x,-y,-z
x,1/2+y,-z
-x,y,z
x,1/2-y,z
1/2+x,1/2+y,1/2+z
1/2-x,-y,1/2+z
1/2+x,1/2-y,1/2-z
1/2-x,y,1/2-z
1/2-x,1/2-y,1/2-z
1/2+x,y,1/2-z
1/2-x,1/2+y,1/2+z
1/2+x,-y,1/2+z
loop_
_atom_site_type_symbol
_atom_site_label
_atom_site_fract_x
_atom_site_fract_y
_atom_site_fract_z
Si Si1 0.500000 0.952203 0.288218
Si Si2 0.886225 0.448449 0.828364
Si Si3 0.197486 0.050469 0.598015
Si Si4 0.084945 0.448695 0.561343
Si Si5 0.184128 0.055448 0.064267
Si Si6 0.500000 0.951525 0.154517
Si Si7 0.808015 0.548846 0.270819
O O1 0.500000 0.750000 0.287728
O O2 0.446441 0.006782 0.320205
O O3 0.500000 0.004253 0.220957
O O4 0.887453 0.250000 0.824485
O O5 0.855172 0.488820 0.886686
O O6 0.851770 0.509833 0.774051
O O7 0.198413 0.250000 0.596291
O O8 0.145605 0.990690 0.564616
O O9 0.187079 0.997785 0.663579
O O10 0.255023 0.995403 0.577078
O O11 0.062053 0.500000 0.500000
O O12 0.085476 0.250000 0.563631
O O13 0.050660 0.503345 0.616331
O O14 0.181514 0.250000 0.066773
O O15 0.170012 0.000000 0.000000
O O16 0.500000 0.750000 0.156033
O O17 0.809856 0.750000 0.270375
O O18 0.750000 0.498947 0.250000
#
# Coordination Sequence:
#
# PCOD9536453 Si02
#       7
#     8  16  16  16  16   8  16
#     4   9  18  33  61  91 112 138 178 231 280 325
#     4  10  19  36  60  88 117 145 183 227 275 332
#     4  10  19  34  55  83 114 150 190 231 279 331
#     4  10  20  32  51  76 111 152 194 236 274 319
#     4  12  25  40  58  81 110 147 185 230 282 336
#     4   9  17  33  54  83 113 144 189 237 274 319
#     4   9  15  27  53  83 111 144 179 219 268 326
#
# _framework density 20.158982999999999
#
# number of rings (size 3 to 8) (size 9 to 14) (size 15 to 20)
#    0.000    2.000    1.667    3.250    0.000    6.000 
#    0.000    2.500    0.000    4.000    0.000    0.000 
#    0.000    0.000    0.000    0.000    0.000    0.000 
#
# Total GULP energy -267977.898439 kJ/mol
# GULP energy per Si atom -5582.872884 kJ/mol
# Density = 2.011310 g / cm^3
# Si number density = 20.158983 Si / 1000 Ang^3
#
#
#
# Elastic Constant Matrix: (Units=GPa)
#
#
# Indices 1 2 3 4 5 6 
#
# 1 166.1160 12.4837 72.2394 0.0000 0.0000 0.0000
# 2 12.4837 15.2839 -0.0415 0.0000 0.0000 0.0000
# 3 72.2394 -0.0415 136.6611 0.0000 0.0000 0.0000
# 4 0.0000 0.0000 0.0000 22.2422 0.0000 0.0000
# 5 0.0000 0.0000 0.0000 0.0000 18.2066 0.0000
# 6 0.0000 0.0000 0.0000 0.0000 0.0000 -16.8632
#
#
#
# Elastic Compliance Matrix: (Units=1/GPa)
#
#
# Indices 1 2 3 4 5 6 
#
# 1 0.008496 -0.006952 -0.004493 0.000000 0.000000 0.000000
# 2 -0.006952 0.071117 0.003696 0.000000 0.000000 0.000000
# 3 -0.004493 0.003696 0.009694 0.000000 0.000000 0.000000
# 4 0.000000 0.000000 0.000000 0.044960 0.000000 0.000000
# 5 0.000000 0.000000 0.000000 0.000000 0.054925 0.000000
# 6 0.000000 0.000000 0.000000 0.000000 0.000000 -0.059301
#
#
# Mechanical properties :
#
#
# Convention : Reuss Voigt Hill
#
# Bulk Modulus (GPa) = 13.54846 54.15825 33.85335
# Shear Modulus (GPa) = 29.41319 20.27573 24.84446
#
# Velocity S-wave (km/s) = 3.82391 3.17486 3.51440
# Velocity P-wave (km/s) = 5.12170 6.35323 5.77041
#
# Compressibility (1/GPa) = 0.07380914
#
# Stress axis : x y z
#
# Youngs Moduli (GPa) = 117.69760 14.06138 103.16012
#
# Poissons Ratio (x) = 0.09775 0.46353
# Poissons Ratio (y) = 0.81823 -0.38132
# Poissons Ratio (z) = 0.52885 -0.05198
#
# Static dielectric constant tensor:
#      x y z
#    x 1.732700 0.000000 0.000000 
#    y 0.000000 1.717060 0.000000 
#    z 0.000000 0.000000 1.692910 
# 
# From -- ./inp_files/61965.got.cif
#   From: 2010.05.17/outbox.cif.g08.bks.cpg/sg74_31_cif.got.tgz:61965.got - 2010.06.03 17:57:02.
