data_PCOD9536544
_publ_section_title
;
Structure prediction by ZEFSAII (Michael W. Deem and Ramdas Pophale) SiO2 
 PCOD9536544
Probable space group: I M M A
;
_chemical_formula_sum "Si O2"
_cell_formula_units_Z 88
_cell_length_a 17.953444
_cell_length_b 25.212352
_cell_length_c 11.154808
_cell_angle_alpha 90.000000
_cell_angle_beta 90.000000
_cell_angle_gamma 90.000000
_cell_volume 5049.207664
_symmetry_space_group_name_H-M "I M M A"
_symmetry_group_IT_number 74
_symmetry_cell_setting 'orthorhombic'
loop_
_space_group_symop_operation_xyz
x,y,z
-x,1/2-y,z
x,-y,-z
-x,1/2+y,-z
-x,-y,-z
x,1/2+y,-z
-x,y,z
x,1/2-y,z
1/2+x,1/2+y,1/2+z
1/2-x,-y,1/2+z
1/2+x,1/2-y,1/2-z
1/2-x,y,1/2-z
1/2-x,1/2-y,1/2-z
1/2+x,y,1/2-z
1/2-x,1/2+y,1/2+z
1/2+x,-y,1/2+z
loop_
_atom_site_type_symbol
_atom_site_label
_atom_site_fract_x
_atom_site_fract_y
_atom_site_fract_z
Si Si1 0.211260 0.750000 0.882740
Si Si2 0.697196 0.250000 0.866166
Si Si3 0.158878 0.366170 0.586702
Si Si4 0.000000 0.913395 0.463228
Si Si5 0.250000 0.947500 0.250000
Si Si6 0.500000 0.514599 0.802037
Si Si7 0.864907 0.024025 0.121843
Si Si8 0.285325 0.365949 0.381735
O O1 0.250000 0.750000 0.750000
O O2 0.174540 0.691678 0.889384
O O3 0.263140 0.750000 0.002150
O O4 0.750000 0.250000 0.750000
O O5 0.656142 0.193507 0.861821
O O6 0.192517 0.408992 0.680271
O O7 0.217985 0.366910 0.477274
O O8 0.076617 0.381509 0.545503
O O9 0.000000 0.946023 0.586027
O O10 0.000000 0.955603 0.355147
O O11 0.203873 0.986365 0.162337
O O12 0.426483 0.523462 0.724334
O O13 0.836771 0.083469 0.098929
O O14 0.896652 0.000000 0.000000
O O15 0.250000 0.370883 0.250000
#
# Coordination Sequence:
#
# PCOD9536544 Si02
#       8
#     8   8  16   8   8   8  16  16
#     4   8  18  34  53  83 115 151 190 246 295 342
#     4  10  20  35  63  90 117 152 203 251 296 355
#     4  11  22  39  59  90 119 156 196 248 303 356
#     4  11  24  39  60  80 127 160 189 251 304 364
#     4  12  22  35  60  89 118 150 200 246 302 364
#     4  11  25  40  54  86 120 162 199 240 313 369
#     4  12  23  36  59  86 120 157 199 255 303 368
#     4  10  19  34  58  84 114 149 199 244 293 358
#
# _framework density 17.428477999999998
#
# number of rings (size 3 to 8) (size 9 to 14) (size 15 to 20)
#    0.000    1.273    5.455    1.364    0.000    0.364 
#    0.000    0.000    0.000    1.636    0.000    0.000 
#    0.000    0.000    0.000    0.000    0.000    0.000 
#
# Total GULP energy -245297.301088 kJ/mol
# GULP energy per Si atom -5574.938661 kJ/mol
# Density = 1.738881 g / cm^3
# Si number density = 17.428478 Si / 1000 Ang^3
#
#
#
# Elastic Constant Matrix: (Units=GPa)
#
#
# Indices 1 2 3 4 5 6 
#
# 1 67.6870 45.1187 19.1366 0.0000 0.0000 0.0000
# 2 45.1187 167.9479 28.1646 0.0000 0.0000 0.0000
# 3 19.1366 28.1646 59.7384 0.0000 0.0000 0.0000
# 4 0.0000 0.0000 0.0000 22.6861 0.0000 0.0000
# 5 0.0000 0.0000 0.0000 0.0000 32.3744 0.0000
# 6 0.0000 0.0000 0.0000 0.0000 0.0000 17.2185
#
#
#
# Elastic Compliance Matrix: (Units=1/GPa)
#
#
# Indices 1 2 3 4 5 6 
#
# 1 0.018821 -0.004392 -0.003958 0.000000 0.000000 0.000000
# 2 -0.004392 0.007490 -0.002124 0.000000 0.000000 0.000000
# 3 -0.003958 -0.002124 0.019009 0.000000 0.000000 0.000000
# 4 0.000000 0.000000 0.000000 0.044080 0.000000 0.000000
# 5 0.000000 0.000000 0.000000 0.000000 0.030889 0.000000
# 6 0.000000 0.000000 0.000000 0.000000 0.000000 0.058077
#
#
# Mechanical properties :
#
#
# Convention : Reuss Voigt Hill
#
# Bulk Modulus (GPa) = 41.03328 53.35702 47.19515
# Shear Modulus (GPa) = 24.10342 27.98604 26.04473
#
# Velocity S-wave (km/s) = 3.72289 4.01155 3.86991
# Velocity P-wave (km/s) = 6.48651 7.22066 6.86341
#
# Compressibility (1/GPa) = 0.02437046
#
# Stress axis : x y z
#
# Youngs Moduli (GPa) = 53.13268 133.50259 52.60596
#
# Poissons Ratio (x) = 0.58639 0.20823
# Poissons Ratio (y) = 0.23338 0.11176
# Poissons Ratio (z) = 0.21031 0.28362
#
# Static dielectric constant tensor:
#      x y z
#    x 1.543720 0.000000 0.000000 
#    y 0.000000 1.619170 0.000000 
#    z 0.000000 0.000000 1.571110 
# 
# From -- ./inp_files/20943.got.cif
#   From: 2010.05.17/outbox.cif.g08.bks.cpg/sg74_11_cif.got.tgz:20943.got - 2010.06.03 17:57:02.
