data_PCOD9536580
_publ_section_title
;
Structure prediction by ZEFSAII (Michael W. Deem and Ramdas Pophale) SiO2 
 PCOD9536580
Probable space group: I M M A
;
_chemical_formula_sum "Si O2"
_cell_formula_units_Z 80
_cell_length_a 10.413753
_cell_length_b 17.759851
_cell_length_c 24.216103
_cell_angle_alpha 90.000000
_cell_angle_beta 90.000000
_cell_angle_gamma 90.000000
_cell_volume 4478.688376
_symmetry_space_group_name_H-M "I M M A"
_symmetry_group_IT_number 74
_symmetry_cell_setting 'orthorhombic'
loop_
_space_group_symop_operation_xyz
x,y,z
-x,1/2-y,z
x,-y,-z
-x,1/2+y,-z
-x,-y,-z
x,1/2+y,-z
-x,y,z
x,1/2-y,z
1/2+x,1/2+y,1/2+z
1/2-x,-y,1/2+z
1/2+x,1/2-y,1/2-z
1/2-x,y,1/2-z
1/2-x,1/2-y,1/2-z
1/2+x,y,1/2-z
1/2-x,1/2+y,1/2+z
1/2+x,-y,1/2+z
loop_
_atom_site_type_symbol
_atom_site_label
_atom_site_fract_x
_atom_site_fract_y
_atom_site_fract_z
Si Si1 0.652078 0.940982 0.595242
Si Si2 0.000000 0.840301 0.189688
Si Si3 0.000000 0.159496 0.679569
Si Si4 0.346732 0.835606 0.493082
Si Si5 0.756285 0.395753 0.879151
Si Si6 0.147451 0.660610 0.796587
O O1 0.500000 0.960729 0.590578
O O2 0.687799 0.895596 0.540084
O O3 0.666249 0.886125 0.647632
O O4 0.730161 0.016722 0.605252
O O5 0.125478 0.874006 0.160662
O O6 0.000000 0.750000 0.181848
O O7 0.000000 0.856250 0.254905
O O8 0.874238 0.125542 0.651132
O O9 0.000000 0.250000 0.672967
O O10 0.500000 0.843657 0.482287
O O11 0.325560 0.750000 0.512519
O O12 0.274502 0.850511 0.436138
O O13 0.161607 0.750000 0.807618
O O14 0.250000 0.639157 0.750000
O O15 0.000000 0.648148 0.777875
#
# Coordination Sequence:
#
# PCOD9536580 Si02
#       6
#    16   8   8  16  16  16
#     4  10  20  36  56  89 119 150 191 246 291 335
#     4  11  22  40  63  86 111 149 201 240 280 344
#     4  11  26  42  59  84 121 157 191 240 294 352
#     4  10  19  34  62  90 116 151 197 244 286 341
#     4  12  22  39  61  88 117 153 192 242 297 348
#     4   9  18  34  56  81 114 155 196 237 285 342
#
# _framework density 17.862373000000002
#
# number of rings (size 3 to 8) (size 9 to 14) (size 15 to 20)
#    0.000    1.600    2.000    3.600    0.000    7.200 
#    1.800    2.000    0.000    0.000    0.000    0.000 
#    0.000    0.000    0.000    0.000    0.000    0.000 
#
# Total GULP energy -223488.254449 kJ/mol
# GULP energy per Si atom -5587.206361 kJ/mol
# Density = 1.782172 g / cm^3
# Si number density = 17.862373 Si / 1000 Ang^3
#
#
#
# Elastic Constant Matrix: (Units=GPa)
#
#
# Indices 1 2 3 4 5 6 
#
# 1 110.0697 50.6875 69.6685 0.0000 0.0000 0.0000
# 2 50.6875 95.7054 64.4914 0.0000 0.0000 0.0000
# 3 69.6685 64.4914 121.9763 0.0000 0.0000 0.0000
# 4 0.0000 0.0000 0.0000 -23.0688 0.0000 0.0000
# 5 0.0000 0.0000 0.0000 0.0000 16.6858 0.0000
# 6 0.0000 0.0000 0.0000 0.0000 0.0000 22.8207
#
#
#
# Elastic Compliance Matrix: (Units=1/GPa)
#
#
# Indices 1 2 3 4 5 6 
#
# 1 0.014889 -0.003348 -0.006734 0.000000 0.000000 0.000000
# 2 -0.003348 0.016985 -0.007068 0.000000 0.000000 0.000000
# 3 -0.006734 -0.007068 0.015782 0.000000 0.000000 0.000000
# 4 0.000000 0.000000 0.000000 -0.043349 0.000000 0.000000
# 5 0.000000 0.000000 0.000000 0.000000 0.059931 0.000000
# 6 0.000000 0.000000 0.000000 0.000000 0.000000 0.043820
#
#
# Mechanical properties :
#
#
# Convention : Reuss Voigt Hill
#
# Bulk Modulus (GPa) = 74.87505 77.49401 76.18453
# Shear Modulus (GPa) = 34.05774 12.81446 23.43610
#
# Velocity S-wave (km/s) = 4.37129 2.68134 3.62614
# Velocity P-wave (km/s) = 8.21500 7.28452 7.76371
#
# Compressibility (1/GPa) = 0.01335558
#
# Stress axis : x y z
#
# Youngs Moduli (GPa) = 67.16293 58.87708 63.36508
#
# Poissons Ratio (x) = 0.19711 0.42671
# Poissons Ratio (y) = 0.22485 0.44786
# Poissons Ratio (z) = 0.45228 0.41614
#
# Static dielectric constant tensor:
#      x y z
#    x 1.582370 0.000000 0.000000 
#    y 0.000000 1.617260 0.000000 
#    z 0.000000 0.000000 1.586060 
# 
# From -- ./inp_files/50430.got.cif
#   From: 2010.05.17/outbox.cif.g08.bks.cpg/sg74_26_cif.got.tgz:50430.got - 2010.06.03 17:57:02.
