data_PCOD9536718
_publ_section_title
;
Structure prediction by ZEFSAII (Michael W. Deem and Ramdas Pophale) SiO2 
 PCOD9536718
Probable space group: I M M A
;
_chemical_formula_sum "Si O2"
_cell_formula_units_Z 44
_cell_length_a 10.380848
_cell_length_b 24.519364
_cell_length_c 8.375872
_cell_angle_alpha 90.000000
_cell_angle_beta 90.000000
_cell_angle_gamma 90.000000
_cell_volume 2131.925699
_symmetry_space_group_name_H-M "I M M A"
_symmetry_group_IT_number 74
_symmetry_cell_setting 'orthorhombic'
loop_
_space_group_symop_operation_xyz
x,y,z
-x,1/2-y,z
x,-y,-z
-x,1/2+y,-z
-x,-y,-z
x,1/2+y,-z
-x,y,z
x,1/2-y,z
1/2+x,1/2+y,1/2+z
1/2-x,-y,1/2+z
1/2+x,1/2-y,1/2-z
1/2-x,y,1/2-z
1/2-x,1/2-y,1/2-z
1/2+x,y,1/2-z
1/2-x,1/2+y,1/2+z
1/2+x,-y,1/2+z
loop_
_atom_site_type_symbol
_atom_site_label
_atom_site_fract_x
_atom_site_fract_y
_atom_site_fract_z
Si Si1 0.500000 0.562951 0.951611
Si Si2 0.000000 0.750000 0.908357
Si Si3 0.225963 0.750000 0.559259
Si Si4 0.500000 0.128007 0.373422
Si Si5 0.730947 0.364335 0.937607
O O1 0.500000 0.583550 0.766890
O O2 0.500000 0.500000 0.000000
O O3 0.628501 0.589370 0.024080
O O4 0.128370 0.750000 0.012460
O O5 0.000000 0.692106 0.816941
O O6 0.250000 0.750000 0.750000
O O7 0.172584 0.807392 0.504167
O O8 0.367874 0.124188 0.475050
O O9 0.750000 0.359393 0.750000
#
# Coordination Sequence:
#
# PCOD9536718 Si02
#       5
#     8   4   8   8  16
#     4  12  27  44  63  91 124 174 227 268 313 371
#     4   8  16  32  60  94 122 156 200 246 312 382
#     4  10  19  35  63  96 129 167 204 252 320 392
#     4  10  21  43  69  95 131 170 208 258 321 393
#     4  11  23  41  66 100 133 165 208 265 324 384
#
# _framework density 20.638618999999998
#
# number of rings (size 3 to 8) (size 9 to 14) (size 15 to 20)
#    0.000    1.455    0.000    7.091    0.000    3.636 
#    0.000    6.364    0.000    0.000    0.000    0.000 
#    0.000    0.000    0.000    0.000    0.000    0.000 
#
# Total GULP energy -122789.942928 kJ/mol
# GULP energy per Si atom -5581.361042 kJ/mol
# Density = 2.059164 g / cm^3
# Si number density = 20.638619 Si / 1000 Ang^3
#
#
#
# Elastic Constant Matrix: (Units=GPa)
#
#
# Indices 1 2 3 4 5 6 
#
# 1 125.6048 75.3399 46.8968 0.0000 -0.0001 0.0001
# 2 75.3399 223.9620 85.3984 0.0003 0.0001 0.0000
# 3 46.8968 85.3984 177.3310 0.0004 0.0008 0.0003
# 4 0.0000 0.0003 0.0004 10.9318 0.0001 0.0000
# 5 -0.0001 0.0001 0.0008 0.0001 28.9487 0.0001
# 6 0.0001 0.0000 0.0003 0.0000 0.0001 43.9287
#
#
#
# Elastic Compliance Matrix: (Units=1/GPa)
#
#
# Indices 1 2 3 4 5 6 
#
# 1 0.010206 -0.002945 -0.001281 0.000000 0.000000 0.000000
# 2 -0.002945 0.006319 -0.002264 0.000000 0.000000 0.000000
# 3 -0.001281 -0.002264 0.007068 0.000000 0.000000 0.000000
# 4 0.000000 0.000000 0.000000 0.091476 0.000000 0.000000
# 5 0.000000 0.000000 0.000000 0.000000 0.034544 0.000000
# 6 0.000000 0.000000 0.000000 0.000000 0.000000 0.022764
#
#
# Mechanical properties :
#
#
# Convention : Reuss Voigt Hill
#
# Bulk Modulus (GPa) = 94.22104 104.68533 99.45318
# Shear Modulus (GPa) = 26.46967 38.04603 32.25785
#
# Velocity S-wave (km/s) = 3.58513 4.29819 3.95775
# Velocity P-wave (km/s) = 7.93029 8.68710 8.31730
#
# Compressibility (1/GPa) = 0.01061334
#
# Stress axis : x y z
#
# Youngs Moduli (GPa) = 97.98052 158.25064 141.47533
#
# Poissons Ratio (x) = 0.46603 0.18122
# Poissons Ratio (y) = 0.28854 0.32035
# Poissons Ratio (z) = 0.12551 0.35833
#
# Static dielectric constant tensor:
#      x y z
#    x 1.813160 0.000000 0.000000 
#    y 0.000000 1.740570 0.000000 
#    z 0.000000 0.000000 1.744480 
# 
# From -- ./inp_files/6839.got.cif
#   From: 2010.05.17/outbox.cif.g08.bks.cpg/sg74_4_cif.got.tgz:6839.got - 2010.06.03 17:57:02.
