data_PCOD9536224
_publ_section_title
;
Structure prediction by ZEFSAII (Michael W. Deem and Ramdas Pophale) SiO2 
 PCOD9536224
Probable space group: I M M A
;
_chemical_formula_sum "Si O2"
_cell_formula_units_Z 112
_cell_length_a 25.266959
_cell_length_b 14.517134
_cell_length_c 13.125243
_cell_angle_alpha 90.000000
_cell_angle_beta 90.000000
_cell_angle_gamma 90.000000
_cell_volume 4814.389397
_symmetry_space_group_name_H-M "I M M A"
_symmetry_group_IT_number 74
_symmetry_cell_setting 'orthorhombic'
loop_
_space_group_symop_operation_xyz
x,y,z
-x,1/2-y,z
x,-y,-z
-x,1/2+y,-z
-x,-y,-z
x,1/2+y,-z
-x,y,z
x,1/2-y,z
1/2+x,1/2+y,1/2+z
1/2-x,-y,1/2+z
1/2+x,1/2-y,1/2-z
1/2-x,y,1/2-z
1/2-x,1/2-y,1/2-z
1/2+x,y,1/2-z
1/2-x,1/2+y,1/2+z
1/2+x,-y,1/2+z
loop_
_atom_site_type_symbol
_atom_site_label
_atom_site_fract_x
_atom_site_fract_y
_atom_site_fract_z
Si Si1 0.136131 0.856645 0.663804
Si Si2 0.224860 0.593619 0.356018
Si Si3 0.109137 0.862085 0.291260
Si Si4 0.872005 0.143175 0.117068
Si Si5 0.057518 0.861955 0.495493
Si Si6 0.749095 0.113640 0.081670
Si Si7 0.061143 0.137276 0.925776
O O1 0.119814 0.750000 0.668916
O O2 0.120538 0.900189 0.771540
O O3 0.105052 0.896355 0.567129
O O4 0.199197 0.854085 0.648194
O O5 0.250000 0.628769 0.250000
O O6 0.163234 0.592122 0.329439
O O7 0.234242 0.641116 0.465188
O O8 0.248267 0.494032 0.385937
O O9 0.117711 0.750000 0.292197
O O10 0.066633 0.885156 0.377882
O O11 0.090233 0.888033 0.179090
O O12 0.888466 0.250000 0.123179
O O13 0.809030 0.143431 0.098150
O O14 0.905242 0.104632 0.023179
O O15 0.058345 0.750000 0.497120
O O16 0.000000 0.892165 0.532736
O O17 0.060751 0.250000 0.926158
O O18 0.000000 0.107399 0.928318
#
# Coordination Sequence:
#
# PCOD9536224 Si02
#       7
#    16  16  16  16  16  16  16
#     4  10  19  33  54  79 108 146 186 228 275 330
#     4  11  23  36  54  79 108 146 185 229 286 336
#     4  10  19  34  55  80 111 144 184 230 278 339
#     4  10  20  33  54  82 114 150 188 229 274 332
#     4   9  17  30  51  79 106 136 176 222 272 323
#     4  11  22  37  54  78 112 147 188 231 281 339
#     4   9  18  33  55  86 120 151 186 233 288 341
#
# _framework density 23.263594000000001
#
# number of rings (size 3 to 8) (size 9 to 14) (size 15 to 20)
#    0.000    2.000    1.429    3.000    0.000    4.286 
#    0.000    2.857    0.000    2.571    0.000   16.000 
#    0.000    0.000    0.000    0.000    0.000    0.429 
#
# Total GULP energy -312641.587276 kJ/mol
# GULP energy per Si atom -5582.885487 kJ/mol
# Density = 2.321065 g / cm^3
# Si number density = 23.263594 Si / 1000 Ang^3
#
#
#
# Elastic Constant Matrix: (Units=GPa)
#
#
# Indices 1 2 3 4 5 6 
#
# 1 49.3219 -27.9130 27.5750 0.0000 0.0000 0.0000
# 2 -27.9130 55.3270 -9.8209 0.0000 0.0000 0.0000
# 3 27.5750 -9.8209 187.9146 0.0000 0.0000 0.0000
# 4 0.0000 0.0000 0.0000 6.2084 0.0000 0.0000
# 5 0.0000 0.0000 0.0000 0.0000 16.4201 0.0000
# 6 0.0000 0.0000 0.0000 0.0000 0.0000 346.7837
#
#
#
# Elastic Compliance Matrix: (Units=1/GPa)
#
#
# Indices 1 2 3 4 5 6 
#
# 1 0.030778 0.014864 -0.003740 0.000000 0.000000 0.000000
# 2 0.014864 0.025422 -0.000853 0.000000 0.000000 0.000000
# 3 -0.003740 -0.000853 0.005826 0.000000 0.000000 0.000000
# 4 0.000000 0.000000 0.000000 0.161073 0.000000 0.000000
# 5 0.000000 0.000000 0.000000 0.000000 0.060901 0.000000
# 6 0.000000 0.000000 0.000000 0.000000 0.000000 0.002884
#
#
# Mechanical properties :
#
#
# Convention : Reuss Voigt Hill
#
# Bulk Modulus (GPa) = 12.11112 30.24953 21.18032
# Shear Modulus (GPa) = 17.01474 94.06391 55.53932
#
# Velocity S-wave (km/s) = 2.70735 6.36567 4.89140
# Velocity P-wave (km/s) = 3.87174 8.18903 6.40510
#
# Compressibility (1/GPa) = 0.08256876
#
# Stress axis : x y z
#
# Youngs Moduli (GPa) = 32.49112 39.33610 171.65135
#
# Poissons Ratio (x) = -0.58468 0.64190
# Poissons Ratio (y) = -0.48294 0.14634
# Poissons Ratio (z) = 0.12150 0.03354
#
# Static dielectric constant tensor:
#      x y z
#    x 1.814920 0.000000 0.000000 
#    y 0.000000 1.971510 0.000000 
#    z 0.000000 0.000000 1.884360 
# 
# From -- ./inp_files/25357.got.cif
#   From: 2010.05.17/outbox.cif.g08.bks.cpg/sg74_13_cif.got.tgz:25357.got - 2010.06.03 17:57:02.
