data_PCOD9536689
_publ_section_title
;
Structure prediction by ZEFSAII (Michael W. Deem and Ramdas Pophale) SiO2 
 PCOD9536689
Probable space group: I M M A
;
_chemical_formula_sum "Si O2"
_cell_formula_units_Z 96
_cell_length_a 19.464058
_cell_length_b 16.838353
_cell_length_c 15.417303
_cell_angle_alpha 90.000000
_cell_angle_beta 90.000000
_cell_angle_gamma 90.000000
_cell_volume 5052.908195
_symmetry_space_group_name_H-M "I M M A"
_symmetry_group_IT_number 74
_symmetry_cell_setting 'orthorhombic'
loop_
_space_group_symop_operation_xyz
x,y,z
-x,1/2-y,z
x,-y,-z
-x,1/2+y,-z
-x,-y,-z
x,1/2+y,-z
-x,y,z
x,1/2-y,z
1/2+x,1/2+y,1/2+z
1/2-x,-y,1/2+z
1/2+x,1/2-y,1/2-z
1/2-x,y,1/2-z
1/2-x,1/2-y,1/2-z
1/2+x,y,1/2-z
1/2-x,1/2+y,1/2+z
1/2+x,-y,1/2+z
loop_
_atom_site_type_symbol
_atom_site_label
_atom_site_fract_x
_atom_site_fract_y
_atom_site_fract_z
Si Si1 0.580573 0.843681 0.363330
Si Si2 0.162702 0.595954 0.486043
Si Si3 0.680421 0.405532 0.489334
Si Si4 0.079777 0.613753 0.656226
Si Si5 0.183107 0.341290 0.199777
Si Si6 0.919904 0.423169 0.682480
O O1 0.500000 0.860865 0.381007
O O2 0.586732 0.750000 0.345059
O O3 0.626869 0.866283 0.445122
O O4 0.600862 0.892839 0.277415
O O5 0.162244 0.500000 0.500000
O O6 0.241716 0.621550 0.489535
O O7 0.119161 0.629828 0.566264
O O8 0.126435 0.611440 0.394498
O O9 0.676875 0.500000 0.500000
O O10 0.667529 0.385361 0.389170
O O11 0.120032 0.654377 0.734329
O O12 0.083841 0.518757 0.674914
O O13 0.000000 0.635573 0.650574
O O14 0.199065 0.250000 0.177795
O O15 0.250000 0.375208 0.250000
O O16 0.000000 0.400845 0.669213
#
# Coordination Sequence:
#
# PCOD9536689 Si02
#       6
#    16  16  16  16  16  16
#     4  10  22  40  58  80 114 153 193 238 288 339
#     4   9  18  33  56  88 118 147 183 233 290 338
#     4  11  22  38  61  88 113 147 192 238 281 337
#     4  10  19  35  60  88 114 147 197 240 277 341
#     4  11  23  39  56  79 119 159 186 227 290 344
#     4   9  18  35  59  86 117 152 188 237 290 334
#
# _framework density 18.99896
#
# number of rings (size 3 to 8) (size 9 to 14) (size 15 to 20)
#    0.000    2.000    1.667    2.000    0.000    4.000 
#    0.000    3.333    0.000    2.000    0.000    0.000 
#    0.000    0.000    0.000    0.000    0.000    0.000 
#
# Total GULP energy -268068.485395 kJ/mol
# GULP energy per Si atom -5584.760112 kJ/mol
# Density = 1.895572 g / cm^3
# Si number density = 18.998960 Si / 1000 Ang^3
#
#
#
# Elastic Constant Matrix: (Units=GPa)
#
#
# Indices 1 2 3 4 5 6 
#
# 1 101.9574 16.5799 69.8379 0.0000 0.0000 0.0000
# 2 16.5799 26.8698 28.8902 0.0000 0.0000 0.0000
# 3 69.8379 28.8902 161.7651 0.0000 0.0000 0.0000
# 4 0.0000 0.0000 0.0000 -13.0576 0.0000 0.0000
# 5 0.0000 0.0000 0.0000 0.0000 40.8214 0.0000
# 6 0.0000 0.0000 0.0000 0.0000 0.0000 8.2518
#
#
#
# Elastic Compliance Matrix: (Units=1/GPa)
#
#
# Indices 1 2 3 4 5 6 
#
# 1 0.014079 -0.002664 -0.005602 0.000000 0.000000 0.000000
# 2 -0.002664 0.046565 -0.007166 0.000000 0.000000 0.000000
# 3 -0.005602 -0.007166 0.009880 0.000000 0.000000 0.000000
# 4 0.000000 0.000000 0.000000 -0.076584 0.000000 0.000000
# 5 0.000000 0.000000 0.000000 0.000000 0.024497 0.000000
# 6 0.000000 0.000000 0.000000 0.000000 0.000000 0.121185
#
#
# Mechanical properties :
#
#
# Convention : Reuss Voigt Hill
#
# Bulk Modulus (GPa) = 25.21450 57.91202 41.56326
# Shear Modulus (GPa) = 27.21724 18.88875 23.05300
#
# Velocity S-wave (km/s) = 3.78903 3.15651 3.48714
# Velocity P-wave (km/s) = 5.69585 6.62062 6.17557
#
# Compressibility (1/GPa) = 0.03965972
#
# Stress axis : x y z
#
# Youngs Moduli (GPa) = 71.02971 21.47526 101.21099
#
# Poissons Ratio (x) = 0.05720 0.56702
# Poissons Ratio (y) = 0.18919 0.72531
# Poissons Ratio (z) = 0.39794 0.15390
#
# Static dielectric constant tensor:
#      x y z
#    x 1.650040 0.000000 0.000000 
#    y 0.000000 1.663500 0.000000 
#    z 0.000000 0.000000 1.622280 
# 
# From -- ./inp_files/35243.got.cif
#   From: 2010.05.17/outbox.cif.g08.bks.cpg/sg74_18_cif.got.tgz:35243.got - 2010.06.03 17:57:02.
