data_PCOD9536050
_publ_section_title
;
Structure prediction by ZEFSAII (Michael W. Deem and Ramdas Pophale) SiO2 
 PCOD9536050
Probable space group: I M M A
;
_chemical_formula_sum "Si O2"
_cell_formula_units_Z 104
_cell_length_a 27.133314
_cell_length_b 21.513245
_cell_length_c 9.383422
_cell_angle_alpha 90.000000
_cell_angle_beta 90.000000
_cell_angle_gamma 90.000000
_cell_volume 5477.343935
_symmetry_space_group_name_H-M "I M M A"
_symmetry_group_IT_number 74
_symmetry_cell_setting 'orthorhombic'
loop_
_space_group_symop_operation_xyz
x,y,z
-x,1/2-y,z
x,-y,-z
-x,1/2+y,-z
-x,-y,-z
x,1/2+y,-z
-x,y,z
x,1/2-y,z
1/2+x,1/2+y,1/2+z
1/2-x,-y,1/2+z
1/2+x,1/2-y,1/2-z
1/2-x,y,1/2-z
1/2-x,1/2-y,1/2-z
1/2+x,y,1/2-z
1/2-x,1/2+y,1/2+z
1/2+x,-y,1/2+z
loop_
_atom_site_type_symbol
_atom_site_label
_atom_site_fract_x
_atom_site_fract_y
_atom_site_fract_z
Si Si1 0.557577 0.824417 0.957035
Si Si2 0.750000 0.907270 0.250000
Si Si3 0.841217 0.508549 0.334701
Si Si4 0.946152 0.567995 0.978068
Si Si5 0.592856 0.121646 0.742587
Si Si6 0.318038 0.822727 0.442315
Si Si7 0.133081 0.124635 0.221999
O O1 0.500000 0.844803 0.921864
O O2 0.556512 0.750000 0.954575
O O3 0.604170 0.844436 0.855889
O O4 0.571600 0.848270 0.115077
O O5 0.791614 0.952624 0.311150
O O6 0.725498 0.864676 0.373806
O O7 0.850650 0.500000 0.500000
O O8 0.882918 0.554835 0.276964
O O9 0.841100 0.440038 0.266739
O O10 0.947197 0.605512 0.124315
O O11 0.000000 0.557863 0.916989
O O12 0.923448 0.500000 0.000000
O O13 0.913114 0.605927 0.873346
O O14 0.635068 0.161603 0.660785
O O15 0.306294 0.750000 0.433122
O O16 0.332273 0.839234 0.607225
#
# Coordination Sequence:
#
# PCOD9536050 Si02
#       7
#    16   8  16  16  16  16  16
#     4  11  23  39  58  85 123 166 210 249 289 348
#     4  10  25  38  68  88 119 152 198 248 308 366
#     4  11  22  39  60  90 122 152 189 248 310 369
#     4  10  19  32  54  85 119 152 193 242 291 347
#     4  10  20  37  59  86 118 163 199 248 296 358
#     4  10  22  41  65  89 120 160 203 248 296 361
#     4  11  22  38  61  87 124 156 200 242 307 356
#
# _framework density 18.987304000000002
#
# number of rings (size 3 to 8) (size 9 to 14) (size 15 to 20)
#    0.000    1.538    3.077    2.077    2.154    0.000 
#    0.000    0.769    0.000    8.308    0.000    0.000 
#    0.000    0.000    0.000    0.000    0.000    0.000 
#
# Total GULP energy -289596.079180 kJ/mol
# GULP energy per Si atom -5569.155369 kJ/mol
# Density = 1.894409 g / cm^3
# Si number density = 18.987304 Si / 1000 Ang^3
#
#
#
# Elastic Constant Matrix: (Units=GPa)
#
#
# Indices 1 2 3 4 5 6 
#
# 1 69.4003 35.5205 24.5594 0.0000 0.0000 0.0000
# 2 35.5205 101.3311 33.1410 0.0000 0.0000 0.0000
# 3 24.5594 33.1410 98.1324 0.0000 0.0000 0.0000
# 4 0.0000 0.0000 0.0000 30.7565 0.0000 0.0000
# 5 0.0000 0.0000 0.0000 0.0000 42.7783 0.0000
# 6 0.0000 0.0000 0.0000 0.0000 0.0000 51.6685
#
#
#
# Elastic Compliance Matrix: (Units=1/GPa)
#
#
# Indices 1 2 3 4 5 6 
#
# 1 0.018172 -0.005489 -0.002694 0.000000 0.000000 0.000000
# 2 -0.005489 0.012752 -0.002933 0.000000 0.000000 0.000000
# 3 -0.002694 -0.002933 0.011855 0.000000 0.000000 0.000000
# 4 0.000000 0.000000 0.000000 0.032513 0.000000 0.000000
# 5 0.000000 0.000000 0.000000 0.000000 0.023376 0.000000
# 6 0.000000 0.000000 0.000000 0.000000 0.000000 0.019354
#
#
# Mechanical properties :
#
#
# Convention : Reuss Voigt Hill
#
# Bulk Modulus (GPa) = 48.66858 50.58950 49.62904
# Shear Modulus (GPa) = 33.98968 36.75018 35.36993
#
# Velocity S-wave (km/s) = 4.23558 4.40422 4.32072
# Velocity P-wave (km/s) = 7.04329 7.25014 7.14747
#
# Compressibility (1/GPa) = 0.02054714
#
# Stress axis : x y z
#
# Youngs Moduli (GPa) = 55.03015 78.41974 84.35216
#
# Poissons Ratio (x) = 0.43043 0.22726
# Poissons Ratio (y) = 0.30205 0.24739
# Poissons Ratio (z) = 0.14826 0.22999
#
# Static dielectric constant tensor:
#      x y z
#    x 1.627560 0.000000 0.000000 
#    y 0.000000 1.796420 0.000000 
#    z 0.000000 0.000000 1.689920 
# 
# From -- ./inp_files/16183.got.cif
#   From: 2010.05.17/outbox.cif.g08.bks.cpg/sg74_9_cif.got.tgz:16183.got - 2010.06.03 17:57:02.
