data_PCOD9536035
_publ_section_title
;
Structure prediction by ZEFSAII (Michael W. Deem and Ramdas Pophale) SiO2 
 PCOD9536035
Probable space group: I M M A
;
_chemical_formula_sum "Si O2"
_cell_formula_units_Z 112
_cell_length_a 20.024694
_cell_length_b 21.616649
_cell_length_c 12.538412
_cell_angle_alpha 90.000000
_cell_angle_beta 90.000000
_cell_angle_gamma 90.000000
_cell_volume 5427.462048
_symmetry_space_group_name_H-M "I M M A"
_symmetry_group_IT_number 74
_symmetry_cell_setting 'orthorhombic'
loop_
_space_group_symop_operation_xyz
x,y,z
-x,1/2-y,z
x,-y,-z
-x,1/2+y,-z
-x,-y,-z
x,1/2+y,-z
-x,y,z
x,1/2-y,z
1/2+x,1/2+y,1/2+z
1/2-x,-y,1/2+z
1/2+x,1/2-y,1/2-z
1/2-x,y,1/2-z
1/2-x,1/2-y,1/2-z
1/2+x,y,1/2-z
1/2-x,1/2+y,1/2+z
1/2+x,-y,1/2+z
loop_
_atom_site_type_symbol
_atom_site_label
_atom_site_fract_x
_atom_site_fract_y
_atom_site_fract_z
Si Si1 0.925811 0.678758 0.844598
Si Si2 0.924204 0.344548 0.773507
Si Si3 0.080862 0.182480 0.527504
Si Si4 0.640900 0.466751 0.754930
Si Si5 0.921966 0.912313 0.645186
Si Si6 0.177483 0.180115 0.964263
Si Si7 0.252950 0.553906 0.418226
O O1 0.923541 0.750000 0.809684
O O2 0.918293 0.636049 0.742338
O O3 0.000000 0.667124 0.890969
O O4 0.870385 0.670380 0.934111
O O5 0.908077 0.322516 0.653791
O O6 0.917975 0.418918 0.768366
O O7 0.870137 0.323076 0.859717
O O8 0.000000 0.325789 0.800008
O O9 0.105163 0.250000 0.489789
O O10 0.104955 0.123908 0.458730
O O11 0.000000 0.181931 0.513124
O O12 0.616317 0.527975 0.813151
O O13 0.683282 0.474258 0.646632
O O14 0.693638 0.435942 0.835061
O O15 0.000000 0.928641 0.626820
O O16 0.206424 0.250000 0.969358
O O17 0.226291 0.121358 0.960749
O O18 0.233745 0.500000 0.500000
#
# Coordination Sequence:
#
# PCOD9536035 Si02
#       7
#    16  16  16  16  16  16  16
#     4   9  17  30  53  86 117 142 170 211 271 336
#     4  10  20  34  54  83 115 142 173 220 276 332
#     4   9  18  31  48  75 111 146 173 206 263 327
#     4  10  22  37  55  80 103 143 191 225 274 325
#     4  10  19  32  54  82 112 142 176 222 270 331
#     4  10  20  36  59  84 110 144 185 227 272 327
#     4  10  22  40  59  76 107 148 188 234 279 315
#
# _framework density 20.635797
#
# number of rings (size 3 to 8) (size 9 to 14) (size 15 to 20)
#    0.000    2.286    0.000    2.571    2.000    3.143 
#    0.000    8.571    0.000    6.857    0.000    5.000 
#    0.000    0.000    0.000    0.000    0.000    0.000 
#
# Total GULP energy -312605.214159 kJ/mol
# GULP energy per Si atom -5582.235967 kJ/mol
# Density = 2.058883 g / cm^3
# Si number density = 20.635797 Si / 1000 Ang^3
#
#
#
# Elastic Constant Matrix: (Units=GPa)
#
#
# Indices 1 2 3 4 5 6 
#
# 1 37.2382 14.1342 0.4960 0.0000 0.0000 0.0000
# 2 14.1342 49.8074 -4.3037 0.0000 0.0000 0.0000
# 3 0.4960 -4.3037 34.1119 0.0000 0.0000 0.0000
# 4 0.0000 0.0000 0.0000 28.1539 0.0000 0.0000
# 5 0.0000 0.0000 0.0000 0.0000 16.7408 0.0000
# 6 0.0000 0.0000 0.0000 0.0000 0.0000 -20.7135
#
#
#
# Elastic Compliance Matrix: (Units=1/GPa)
#
#
# Indices 1 2 3 4 5 6 
#
# 1 0.030175 -0.008696 -0.001536 0.000000 0.000000 0.000000
# 2 -0.008696 0.022805 0.003004 0.000000 0.000000 0.000000
# 3 -0.001536 0.003004 0.029717 0.000000 0.000000 0.000000
# 4 0.000000 0.000000 0.000000 0.035519 0.000000 0.000000
# 5 0.000000 0.000000 0.000000 0.000000 0.059734 0.000000
# 6 0.000000 0.000000 0.000000 0.000000 0.000000 -0.048278
#
#
# Mechanical properties :
#
#
# Convention : Reuss Voigt Hill
#
# Bulk Modulus (GPa) = 14.65413 15.75672 15.20542
# Shear Modulus (GPa) = 29.96259 12.22497 21.09378
#
# Velocity S-wave (km/s) = 3.81461 2.43660 3.20065
# Velocity P-wave (km/s) = 5.14960 3.94566 4.58730
#
# Compressibility (1/GPa) = 0.06824017
#
# Stress axis : x y z
#
# Youngs Moduli (GPa) = 33.13985 43.85097 33.65130
#
# Poissons Ratio (x) = 0.38132 0.05168
# Poissons Ratio (y) = 0.28817 -0.10107
# Poissons Ratio (z) = 0.05090 -0.13171
#
# Static dielectric constant tensor:
#      x y z
#    x 1.746490 0.000000 0.000000 
#    y 0.000000 1.758660 0.000000 
#    z 0.000000 0.000000 1.723860 
# 
# From -- ./inp_files/25358.got.cif
#   From: 2010.05.17/outbox.cif.g08.bks.cpg/sg74_13_cif.got.tgz:25358.got - 2010.06.03 17:57:02.
