data_PCOD9536945
_publ_section_title
;
Structure prediction by ZEFSAII (Michael W. Deem and Ramdas Pophale) SiO2 
 PCOD9536945
Probable space group: I M M A
;
_chemical_formula_sum "Si O2"
_cell_formula_units_Z 92
_cell_length_a 26.749386
_cell_length_b 7.454851
_cell_length_c 21.958800
_cell_angle_alpha 90.000000
_cell_angle_beta 90.000000
_cell_angle_gamma 90.000000
_cell_volume 4378.863311
_symmetry_space_group_name_H-M "I M M A"
_symmetry_group_IT_number 74
_symmetry_cell_setting 'orthorhombic'
loop_
_space_group_symop_operation_xyz
x,y,z
-x,1/2-y,z
x,-y,-z
-x,1/2+y,-z
-x,-y,-z
x,1/2+y,-z
-x,y,z
x,1/2-y,z
1/2+x,1/2+y,1/2+z
1/2-x,-y,1/2+z
1/2+x,1/2-y,1/2-z
1/2-x,y,1/2-z
1/2-x,1/2-y,1/2-z
1/2+x,y,1/2-z
1/2-x,1/2+y,1/2+z
1/2+x,-y,1/2+z
loop_
_atom_site_type_symbol
_atom_site_label
_atom_site_fract_x
_atom_site_fract_y
_atom_site_fract_z
Si Si1 0.899168 0.463357 0.864501
Si Si2 0.200586 0.465317 0.927884
Si Si3 0.419645 0.956574 0.102225
Si Si4 0.500000 0.250000 0.061875
Si Si5 0.555702 0.963767 0.760713
Si Si6 0.809678 0.963460 0.428102
Si Si7 0.000000 0.464834 0.928207
O O1 0.898643 0.250000 0.875652
O O2 0.847573 0.535390 0.892010
O O3 0.906074 0.491851 0.792698
O O4 0.949066 0.535705 0.897569
O O5 0.201876 0.250000 0.920248
O O6 0.255364 0.534452 0.907770
O O7 0.194725 0.500000 0.000000
O O8 0.423545 0.750000 0.079009
O O9 0.362440 0.024023 0.098427
O O10 0.456535 0.091800 0.068539
O O11 0.434004 0.955714 0.173446
O O12 0.500000 0.020871 0.740236
O O13 0.555022 0.750000 0.769458
O O14 0.808946 0.750000 0.417831
O O15 0.811877 0.000000 0.500000
O O16 0.000000 0.250000 0.919153
O O17 0.000000 0.500000 0.000000
#
# Coordination Sequence:
#
# PCOD9536945 Si02
#       7
#    16  16  16   4  16  16   8
#     4  10  20  33  52  78 112 150 194 241 292 351
#     4   9  18  35  56  82 111 148 196 242 291 353
#     4  11  22  39  63  88 120 156 194 238 291 350
#     4  12  22  38  62  90 118 154 188 234 278 354
#     4  11  21  36  56  81 112 152 198 242 290 354
#     4   9  20  37  62  86 112 152 192 234 294 349
#     4  10  20  31  46  74 109 149 187 233 296 345
#
# _framework density 21.010017999999999
#
# number of rings (size 3 to 8) (size 9 to 14) (size 15 to 20)
#    0.000    1.913    2.609    1.304    1.217    2.087 
#    0.000    1.304    0.000    5.217    0.000    0.000 
#    0.000    0.000    0.000    0.000    0.000    0.000 
#
# Total GULP energy -256353.351144 kJ/mol
# GULP energy per Si atom -5572.898938 kJ/mol
# Density = 2.096220 g / cm^3
# Si number density = 21.010018 Si / 1000 Ang^3
#
#
#
# Elastic Constant Matrix: (Units=GPa)
#
#
# Indices 1 2 3 4 5 6 
#
# 1 204.1067 42.1267 42.2026 0.0000 0.0000 0.0000
# 2 42.1267 93.2380 -0.6105 0.0000 0.0000 0.0000
# 3 42.2026 -0.6105 51.6622 0.0000 0.0000 0.0000
# 4 0.0000 0.0000 0.0000 20.7211 0.0000 0.0000
# 5 0.0000 0.0000 0.0000 0.0000 11.4371 0.0000
# 6 0.0000 0.0000 0.0000 0.0000 0.0000 -13.0693
#
#
#
# Elastic Compliance Matrix: (Units=1/GPa)
#
#
# Indices 1 2 3 4 5 6 
#
# 1 0.006660 -0.003045 -0.005477 0.000000 0.000000 0.000000
# 2 -0.003045 0.012118 0.002631 0.000000 0.000000 0.000000
# 3 -0.005477 0.002631 0.023862 0.000000 0.000000 0.000000
# 4 0.000000 0.000000 0.000000 0.048260 0.000000 0.000000
# 5 0.000000 0.000000 0.000000 0.000000 0.087435 0.000000
# 6 0.000000 0.000000 0.000000 0.000000 0.000000 -0.076515
#
#
# Mechanical properties :
#
#
# Convention : Reuss Voigt Hill
#
# Bulk Modulus (GPa) = 32.40666 57.38273 44.89470
# Shear Modulus (GPa) = 40.35908 21.50365 30.93137
#
# Velocity S-wave (km/s) = 4.38761 3.20268 3.84111
# Velocity P-wave (km/s) = 6.41296 6.40684 6.40990
#
# Compressibility (1/GPa) = 0.03085785
#
# Stress axis : x y z
#
# Youngs Moduli (GPa) = 150.14313 82.51984 41.90848
#
# Poissons Ratio (x) = 0.25128 0.22952
# Poissons Ratio (y) = 0.45720 -0.11025
# Poissons Ratio (z) = 0.82230 -0.21709
#
# Static dielectric constant tensor:
#      x y z
#    x 1.801890 0.000000 0.000000 
#    y 0.000000 1.774750 0.000000 
#    z 0.000000 0.000000 1.717880 
# 
# From -- ./inp_files/55142.got.cif
#   From: 2010.05.17/outbox.cif.g08.bks.cpg/sg74_28_cif.got.tgz:55142.got - 2010.06.03 17:57:02.
