data_PCOD9536065
_publ_section_title
;
Structure prediction by ZEFSAII (Michael W. Deem and Ramdas Pophale) SiO2 
 PCOD9536065
Probable space group: I M M A
;
_chemical_formula_sum "Si O2"
_cell_formula_units_Z 116
_cell_length_a 19.758631
_cell_length_b 16.500554
_cell_length_c 17.799001
_cell_angle_alpha 90.000000
_cell_angle_beta 90.000000
_cell_angle_gamma 90.000000
_cell_volume 5802.979066
_symmetry_space_group_name_H-M "I M M A"
_symmetry_group_IT_number 74
_symmetry_cell_setting 'orthorhombic'
loop_
_space_group_symop_operation_xyz
x,y,z
-x,1/2-y,z
x,-y,-z
-x,1/2+y,-z
-x,-y,-z
x,1/2+y,-z
-x,y,z
x,1/2-y,z
1/2+x,1/2+y,1/2+z
1/2-x,-y,1/2+z
1/2+x,1/2-y,1/2-z
1/2-x,y,1/2-z
1/2-x,1/2-y,1/2-z
1/2+x,y,1/2-z
1/2-x,1/2+y,1/2+z
1/2+x,-y,1/2+z
loop_
_atom_site_type_symbol
_atom_site_label
_atom_site_fract_x
_atom_site_fract_y
_atom_site_fract_z
Si Si1 0.575549 0.000530 0.665953
Si Si2 0.500000 0.250000 0.105428
Si Si3 0.322399 0.421243 0.551955
Si Si4 0.575425 0.047706 0.836890
Si Si5 0.824890 0.652956 0.419539
Si Si6 0.618997 0.840830 0.587390
Si Si7 0.390896 0.107561 0.077462
Si Si8 0.763723 0.343751 0.331998
O O1 0.500000 0.032184 0.648089
O O2 0.634205 0.049152 0.622954
O O3 0.583689 0.005470 0.755559
O O4 0.579880 0.909373 0.633426
O O5 0.441202 0.178598 0.102266
O O6 0.307602 0.500000 0.500000
O O7 0.251671 0.379520 0.572590
O O8 0.369788 0.365391 0.499119
O O9 0.500000 0.085069 0.838942
O O10 0.634473 0.112005 0.851439
O O11 0.578879 0.979133 0.901228
O O12 0.824347 0.750000 0.416347
O O13 0.867666 0.625279 0.492768
O O14 0.591991 0.750000 0.595812
O O15 0.694798 0.842765 0.621581
O O16 0.321654 0.110680 0.124663
O O17 0.786006 0.250000 0.322490
O O18 0.750000 0.378688 0.250000
#
# Coordination Sequence:
#
# PCOD9536065 Si02
#       8
#    16   4  16  16  16  16  16  16
#     4  10  24  46  63  90 132 174 213 267 332 397
#     4  12  24  36  64 104 138 182 212 262 316 392
#     4  10  21  40  68  95 125 166 211 266 326 393
#     4  11  26  43  63  91 131 179 222 260 324 401
#     4  12  25  42  67  94 127 165 219 286 327 380
#     4  10  20  37  64 100 127 163 209 260 321 390
#     4  12  22  41  62  96 134 174 214 261 322 385
#     4  10  19  32  55  87 130 170 209 250 306 371
#
# _framework density 19.989733000000001
#
# number of rings (size 3 to 8) (size 9 to 14) (size 15 to 20)
#    0.000    1.241    3.448    2.483    2.897    4.138 
#    1.241    2.069    0.000    2.897    0.000    0.000 
#    0.000    0.000    0.000    0.000    0.000    0.000 
#
# Total GULP energy -323520.452436 kJ/mol
# GULP energy per Si atom -5577.938835 kJ/mol
# Density = 1.994424 g / cm^3
# Si number density = 19.989733 Si / 1000 Ang^3
#
#
#
# Elastic Constant Matrix: (Units=GPa)
#
#
# Indices 1 2 3 4 5 6 
#
# 1 92.4214 43.7838 29.3357 0.0000 0.0000 0.0000
# 2 43.7838 99.4173 42.5010 0.0000 0.0000 0.0000
# 3 29.3357 42.5010 56.3389 0.0000 0.0000 0.0000
# 4 0.0000 0.0000 0.0000 42.6209 0.0000 0.0000
# 5 0.0000 0.0000 0.0000 0.0000 12.2914 0.0000
# 6 0.0000 0.0000 0.0000 0.0000 0.0000 42.4350
#
#
#
# Elastic Compliance Matrix: (Units=1/GPa)
#
#
# Indices 1 2 3 4 5 6 
#
# 1 0.014248 -0.004580 -0.003964 0.000000 0.000000 0.000000
# 2 -0.004580 0.016319 -0.009926 0.000000 0.000000 0.000000
# 3 -0.003964 -0.009926 0.027301 0.000000 0.000000 0.000000
# 4 0.000000 0.000000 0.000000 0.023463 0.000000 0.000000
# 5 0.000000 0.000000 0.000000 0.000000 0.081358 0.000000
# 6 0.000000 0.000000 0.000000 0.000000 0.000000 0.023565
#
#
# Mechanical properties :
#
#
# Convention : Reuss Voigt Hill
#
# Bulk Modulus (GPa) = 47.78075 53.26872 50.52474
# Shear Modulus (GPa) = 21.72305 28.30661 25.01483
#
# Velocity S-wave (km/s) = 3.30011 3.76714 3.54133
# Velocity P-wave (km/s) = 6.20286 6.75482 6.48472
#
# Compressibility (1/GPa) = 0.02092893
#
# Stress axis : x y z
#
# Youngs Moduli (GPa) = 70.18506 61.27773 36.62825
#
# Poissons Ratio (x) = 0.28068 0.14518
# Poissons Ratio (y) = 0.32148 0.36356
# Poissons Ratio (z) = 0.27818 0.60823
#
# Static dielectric constant tensor:
#      x y z
#    x 1.684650 0.000000 0.000000 
#    y 0.000000 1.711220 0.000000 
#    z 0.000000 0.000000 1.720860 
# 
# From -- ./inp_files/44259.got.cif
#   From: 2010.05.17/outbox.cif.g08.bks.cpg/sg74_23_cif.got.tgz:44259.got - 2010.06.03 17:57:02.
