data_PCOD9536668
_publ_section_title
;
Structure prediction by ZEFSAII (Michael W. Deem and Ramdas Pophale) SiO2 
 PCOD9536668
Probable space group: I M M A
;
_chemical_formula_sum "Si O2"
_cell_formula_units_Z 96
_cell_length_a 14.915350
_cell_length_b 22.627223
_cell_length_c 15.330125
_cell_angle_alpha 90.000000
_cell_angle_beta 90.000000
_cell_angle_gamma 90.000000
_cell_volume 5173.809119
_symmetry_space_group_name_H-M "I M M A"
_symmetry_group_IT_number 74
_symmetry_cell_setting 'orthorhombic'
loop_
_space_group_symop_operation_xyz
x,y,z
-x,1/2-y,z
x,-y,-z
-x,1/2+y,-z
-x,-y,-z
x,1/2+y,-z
-x,y,z
x,1/2-y,z
1/2+x,1/2+y,1/2+z
1/2-x,-y,1/2+z
1/2+x,1/2-y,1/2-z
1/2-x,y,1/2-z
1/2-x,1/2-y,1/2-z
1/2+x,y,1/2-z
1/2-x,1/2+y,1/2+z
1/2+x,-y,1/2+z
loop_
_atom_site_type_symbol
_atom_site_label
_atom_site_fract_x
_atom_site_fract_y
_atom_site_fract_z
Si Si1 0.402225 0.005704 0.605713
Si Si2 0.898804 0.250000 0.560714
Si Si3 0.357250 0.250000 0.738071
Si Si4 0.272761 0.433749 0.158201
Si Si5 0.397274 0.030452 0.903775
Si Si6 0.712706 0.135261 0.981156
Si Si7 0.899491 0.856450 0.108322
O O1 0.500000 0.982792 0.634189
O O2 0.316397 0.970617 0.636174
O O3 0.400383 0.000000 0.500000
O O4 0.396339 0.074293 0.633994
O O5 0.897462 0.250000 0.665797
O O6 0.846623 0.192742 0.529043
O O7 0.000000 0.250000 0.528922
O O8 0.250000 0.250000 0.750000
O O9 0.385327 0.308545 0.684556
O O10 0.250000 0.404304 0.250000
O O11 0.353233 0.481865 0.159520
O O12 0.290963 0.390500 0.078216
O O13 0.500000 0.046356 0.881097
O O14 0.331013 0.086014 0.916499
O O15 0.398988 0.000000 0.000000
O O16 0.815014 0.149501 0.955761
O O17 0.000000 0.846972 0.071299
#
# Coordination Sequence:
#
# PCOD9536668 Si02
#       7
#    16   8   8  16  16  16  16
#     4  10  19  35  59  85 117 161 203 240 298 367
#     4  12  26  43  65  85 118 162 203 246 302 371
#     4  12  24  41  61  94 126 153 194 252 303 357
#     4  11  22  36  58  88 122 155 201 257 303 351
#     4   9  18  35  58  82 115 156 201 248 297 355
#     4  11  21  40  61  86 116 165 206 246 296 363
#     4  11  21  36  61  88 124 162 197 244 298 361
#
# _framework density 18.554994000000001
#
# number of rings (size 3 to 8) (size 9 to 14) (size 15 to 20)
#    0.000    1.333    5.000    1.750    0.000    3.333 
#    0.000    2.083    0.000    0.000    0.000    0.000 
#    0.000    0.000    0.000    0.000    0.000    0.000 
#
# Total GULP energy -267940.775735 kJ/mol
# GULP energy per Si atom -5582.099494 kJ/mol
# Density = 1.851276 g / cm^3
# Si number density = 18.554994 Si / 1000 Ang^3
#
#
#
# Elastic Constant Matrix: (Units=GPa)
#
#
# Indices 1 2 3 4 5 6 
#
# 1 152.5025 36.1630 23.5181 -0.0001 0.0000 -0.0002
# 2 36.1630 110.3379 43.1485 -0.0001 0.0000 -0.0003
# 3 23.5181 43.1485 75.9991 -0.0001 0.0001 -0.0004
# 4 -0.0001 -0.0001 -0.0001 19.3394 0.0000 -0.0003
# 5 0.0000 0.0000 0.0001 0.0000 16.6254 0.0000
# 6 -0.0002 -0.0003 -0.0004 -0.0003 0.0000 -19.8304
#
#
#
# Elastic Compliance Matrix: (Units=1/GPa)
#
#
# Indices 1 2 3 4 5 6 
#
# 1 0.007186 -0.001910 -0.001140 0.000000 0.000000 0.000000
# 2 -0.001910 0.012157 -0.006311 0.000000 0.000000 0.000000
# 3 -0.001140 -0.006311 0.017094 0.000000 0.000000 0.000000
# 4 0.000000 0.000000 0.000000 0.051708 0.000000 -0.000001
# 5 0.000000 0.000000 0.000000 0.000000 0.060149 0.000000
# 6 0.000000 0.000000 0.000000 -0.000001 0.000000 -0.050428
#
#
# Mechanical properties :
#
#
# Convention : Reuss Voigt Hill
#
# Bulk Modulus (GPa) = 56.44577 60.49987 58.47282
# Shear Modulus (GPa) = 40.81911 18.96088 29.88999
#
# Velocity S-wave (km/s) = 4.69540 3.20015 4.01794
# Velocity P-wave (km/s) = 7.73838 6.80669 7.28744
#
# Compressibility (1/GPa) = 0.01771612
#
# Stress axis : x y z
#
# Youngs Moduli (GPa) = 139.16327 82.25741 58.50045
#
# Poissons Ratio (x) = 0.15707 0.06666
# Poissons Ratio (y) = 0.26573 0.36921
# Poissons Ratio (z) = 0.15858 0.51914
#
# Static dielectric constant tensor:
#      x y z
#    x 1.660950 0.000000 0.000000 
#    y 0.000000 1.641930 0.000000 
#    z 0.000000 0.000000 1.663060 
# 
# From -- ./inp_files/32468.got.cif
#   From: 2010.05.17/outbox.cif.g08.bks.cpg/sg74_17_cif.got.tgz:32468.got - 2010.06.03 17:57:02.
