data_PCOD9536942
_publ_section_title
;
Structure prediction by ZEFSAII (Michael W. Deem and Ramdas Pophale) SiO2 
 PCOD9536942
Probable space group: I M M A
;
_chemical_formula_sum "Si O2"
_cell_formula_units_Z 112
_cell_length_a 25.831788
_cell_length_b 23.930310
_cell_length_c 11.332669
_cell_angle_alpha 90.000000
_cell_angle_beta 90.000000
_cell_angle_gamma 90.000000
_cell_volume 7005.433207
_symmetry_space_group_name_H-M "I M M A"
_symmetry_group_IT_number 74
_symmetry_cell_setting 'orthorhombic'
loop_
_space_group_symop_operation_xyz
x,y,z
-x,1/2-y,z
x,-y,-z
-x,1/2+y,-z
-x,-y,-z
x,1/2+y,-z
-x,y,z
x,1/2-y,z
1/2+x,1/2+y,1/2+z
1/2-x,-y,1/2+z
1/2+x,1/2-y,1/2-z
1/2-x,y,1/2-z
1/2-x,1/2-y,1/2-z
1/2+x,y,1/2-z
1/2-x,1/2+y,1/2+z
1/2+x,-y,1/2+z
loop_
_atom_site_type_symbol
_atom_site_label
_atom_site_fract_x
_atom_site_fract_y
_atom_site_fract_z
Si Si1 0.061198 0.183765 0.921505
Si Si2 0.698982 0.909866 0.053606
Si Si3 0.692947 0.905515 0.777717
Si Si4 0.279619 0.312320 0.582334
Si Si5 0.796127 0.519028 0.130132
Si Si6 0.363340 0.314476 0.370588
Si Si7 0.143873 0.876845 0.230624
O O1 0.071526 0.250000 0.898507
O O2 0.091333 0.146635 0.824706
O O3 0.000000 0.174662 0.919525
O O4 0.085706 0.172573 0.051061
O O5 0.734881 0.855532 0.057642
O O6 0.737100 0.955789 0.116881
O O7 0.649529 0.895399 0.133880
O O8 0.687389 0.919477 0.916389
O O9 0.750000 0.880261 0.750000
O O10 0.651859 0.861152 0.725507
O O11 0.694770 0.964110 0.707897
O O12 0.260307 0.250000 0.593994
O O13 0.318873 0.315611 0.471548
O O14 0.312925 0.330520 0.696093
O O15 0.834246 0.568916 0.163494
O O16 0.809087 0.500000 0.000000
O O17 0.366194 0.250000 0.326009
#
# Coordination Sequence:
#
# PCOD9536942 Si02
#       7
#    16  16  16  16  16  16  16
#     4   9  18  36  61  80  96 126 173 231 283 317
#     4  11  22  29  43  73 103 144 178 204 245 306
#     4  12  20  32  48  70 107 150 179 204 249 306
#     4   9  16  29  46  65  99 136 165 204 250 298
#     4  11  20  31  49  70 104 143 182 216 240 293
#     4   9  18  32  50  75 101 131 175 219 259 310
#     4  10  20  31  45  74 102 128 171 219 257 303
#
# _framework density 15.987591
#
# number of rings (size 3 to 8) (size 9 to 14) (size 15 to 20)
#    0.000    1.857    2.857    5.571    0.000    2.571 
#    0.000    0.000    0.000    4.714    0.000    3.000 
#    0.000    0.000    0.000    0.000    0.000    0.000 
#
# Total GULP energy -312002.842991 kJ/mol
# GULP energy per Si atom -5571.479339 kJ/mol
# Density = 1.595120 g / cm^3
# Si number density = 15.987591 Si / 1000 Ang^3
#
#
#
# Elastic Constant Matrix: (Units=GPa)
#
#
# Indices 1 2 3 4 5 6 
#
# 1 81.4557 41.3172 41.6882 0.0000 0.0000 0.0000
# 2 41.3172 102.8065 58.2630 0.0000 0.0000 0.0000
# 3 41.6882 58.2630 105.7680 0.0000 0.0000 0.0000
# 4 0.0000 0.0000 0.0000 21.9644 0.0000 0.0000
# 5 0.0000 0.0000 0.0000 0.0000 13.3847 0.0000
# 6 0.0000 0.0000 0.0000 0.0000 0.0000 18.2993
#
#
#
# Elastic Compliance Matrix: (Units=1/GPa)
#
#
# Indices 1 2 3 4 5 6 
#
# 1 0.016594 -0.004307 -0.004168 0.000000 0.000000 0.000000
# 2 -0.004307 0.015260 -0.006708 0.000000 0.000000 0.000000
# 3 -0.004168 -0.006708 0.014793 0.000000 0.000000 0.000000
# 4 0.000000 0.000000 0.000000 0.045528 0.000000 0.000000
# 5 0.000000 0.000000 0.000000 0.000000 0.074712 0.000000
# 6 0.000000 0.000000 0.000000 0.000000 0.000000 0.054647
#
#
# Mechanical properties :
#
#
# Convention : Reuss Voigt Hill
#
# Bulk Modulus (GPa) = 61.42460 63.61854 62.52157
# Shear Modulus (GPa) = 19.43043 20.64712 20.03877
#
# Velocity S-wave (km/s) = 3.48996 3.59757 3.54417
# Velocity P-wave (km/s) = 7.39887 7.55880 7.47927
#
# Compressibility (1/GPa) = 0.01628012
#
# Stress axis : x y z
#
# Youngs Moduli (GPa) = 60.26094 65.53183 67.60033
#
# Poissons Ratio (x) = 0.28225 0.28177
# Poissons Ratio (y) = 0.25955 0.45349
# Poissons Ratio (z) = 0.25117 0.43961
#
# Static dielectric constant tensor:
#      x y z
#    x 1.523020 0.000000 0.000000 
#    y 0.000000 1.558190 0.000000 
#    z 0.000000 0.000000 1.589410 
# 
# From -- ./inp_files/26567.got.cif
#   From: 2010.05.17/outbox.cif.g08.bks.cpg/sg74_14_cif.got.tgz:26567.got - 2010.06.03 17:57:02.
