data_PCOD9536825
_publ_section_title
;
Structure prediction by ZEFSAII (Michael W. Deem and Ramdas Pophale) SiO2 
 PCOD9536825
Probable space group: I M M A
;
_chemical_formula_sum "Si O2"
_cell_formula_units_Z 96
_cell_length_a 16.600281
_cell_length_b 23.994157
_cell_length_c 12.061444
_cell_angle_alpha 90.000000
_cell_angle_beta 90.000000
_cell_angle_gamma 90.000000
_cell_volume 4804.190727
_symmetry_space_group_name_H-M "I M M A"
_symmetry_group_IT_number 74
_symmetry_cell_setting 'orthorhombic'
loop_
_space_group_symop_operation_xyz
x,y,z
-x,1/2-y,z
x,-y,-z
-x,1/2+y,-z
-x,-y,-z
x,1/2+y,-z
-x,y,z
x,1/2-y,z
1/2+x,1/2+y,1/2+z
1/2-x,-y,1/2+z
1/2+x,1/2-y,1/2-z
1/2-x,y,1/2-z
1/2-x,1/2-y,1/2-z
1/2+x,y,1/2-z
1/2-x,1/2+y,1/2+z
1/2+x,-y,1/2+z
loop_
_atom_site_type_symbol
_atom_site_label
_atom_site_fract_x
_atom_site_fract_y
_atom_site_fract_z
Si Si1 0.345230 0.143188 0.216010
Si Si2 0.358185 0.425498 0.414245
Si Si3 0.164497 0.250000 0.677798
Si Si4 0.656832 0.373077 0.792244
Si Si5 0.413664 0.534956 0.359018
Si Si6 0.677596 0.933707 0.980850
Si Si7 0.402203 0.250000 0.074020
O O1 0.250000 0.149853 0.250000
O O2 0.382950 0.123868 0.333101
O O3 0.357430 0.091086 0.132560
O O4 0.378144 0.196497 0.149946
O O5 0.350925 0.484452 0.349178
O O6 0.413733 0.441144 0.516612
O O7 0.271554 0.417376 0.469246
O O8 0.250000 0.250000 0.750000
O O9 0.128592 0.190643 0.711317
O O10 0.151575 0.250000 0.541244
O O11 0.750000 0.375495 0.750000
O O12 0.607187 0.413521 0.715627
O O13 0.648293 0.398346 0.914698
O O14 0.500000 0.510752 0.329270
O O15 0.668171 0.000000 0.000000
O O16 0.500000 0.250000 0.051603
#
# Coordination Sequence:
#
# PCOD9536825 Si02
#       7
#    16  16   8  16  16  16   8
#     4  10  23  39  65  93 122 167 217 264 309 372
#     4  10  19  37  59  91 126 162 202 251 304 373
#     4  10  24  41  68  87 116 167 217 273 317 371
#     4  11  20  38  60  87 118 152 210 259 311 359
#     4  11  22  36  59  89 129 166 195 245 316 383
#     4  11  18  33  62  93 121 152 205 258 311 360
#     4  12  25  45  64  91 132 176 215 267 333 383
#
# _framework density 19.982554
#
# number of rings (size 3 to 8) (size 9 to 14) (size 15 to 20)
#    0.000    1.333    5.000    2.250    0.000    3.333 
#    0.000    0.833    0.000    2.000    0.000    0.000 
#    0.000    0.000    0.000    0.000    0.000    0.000 
#
# Total GULP energy -267278.489121 kJ/mol
# GULP energy per Si atom -5568.301857 kJ/mol
# Density = 1.993707 g / cm^3
# Si number density = 19.982554 Si / 1000 Ang^3
#
#
#
# Elastic Constant Matrix: (Units=GPa)
#
#
# Indices 1 2 3 4 5 6 
#
# 1 23.6310 6.9636 21.5590 0.0000 0.0000 0.0000
# 2 6.9636 83.4462 58.1262 0.0000 0.0000 0.0000
# 3 21.5590 58.1262 106.1211 0.0000 0.0000 0.0000
# 4 0.0000 0.0000 0.0000 24.0520 0.0000 0.0000
# 5 0.0000 0.0000 0.0000 0.0000 7.8629 0.0000
# 6 0.0000 0.0000 0.0000 0.0000 0.0000 34.5548
#
#
#
# Elastic Compliance Matrix: (Units=1/GPa)
#
#
# Indices 1 2 3 4 5 6 
#
# 1 0.053202 0.004995 -0.013544 0.000000 0.000000 0.000000
# 2 0.004995 0.019846 -0.011885 0.000000 0.000000 0.000000
# 3 -0.013544 -0.011885 0.018684 0.000000 0.000000 0.000000
# 4 0.000000 0.000000 0.000000 0.041577 0.000000 0.000000
# 5 0.000000 0.000000 0.000000 0.000000 0.127180 0.000000
# 6 0.000000 0.000000 0.000000 0.000000 0.000000 0.028940
#
#
# Mechanical properties :
#
#
# Convention : Reuss Voigt Hill
#
# Bulk Modulus (GPa) = 19.66042 42.94399 31.30221
# Shear Modulus (GPa) = 14.39882 21.73057 18.06470
#
# Velocity S-wave (km/s) = 2.68726 3.30127 3.00996
# Velocity P-wave (km/s) = 4.41459 6.00571 5.27054
#
# Compressibility (1/GPa) = 0.05086361
#
# Stress axis : x y z
#
# Youngs Moduli (GPa) = 18.79634 50.38910 53.52047
#
# Poissons Ratio (x) = -0.25168 0.72488
# Poissons Ratio (y) = -0.09388 0.63608
# Poissons Ratio (z) = 0.25458 0.59886
#
# Static dielectric constant tensor:
#      x y z
#    x 1.692210 0.000000 0.000000 
#    y 0.000000 1.700260 0.000000 
#    z 0.000000 0.000000 1.765100 
# 
# From -- ./inp_files/22516.got.cif
#   From: 2010.05.17/outbox.cif.g08.bks.cpg/sg74_12_cif.got.tgz:22516.got - 2010.06.03 17:57:02.
