data_PCOD9536732
_publ_section_title
;
Structure prediction by ZEFSAII (Michael W. Deem and Ramdas Pophale) SiO2 
 PCOD9536732
Probable space group: I M M A
;
_chemical_formula_sum "Si O2"
_cell_formula_units_Z 116
_cell_length_a 16.495929
_cell_length_b 25.826767
_cell_length_c 15.546230
_cell_angle_alpha 90.000000
_cell_angle_beta 90.000000
_cell_angle_gamma 90.000000
_cell_volume 6623.261646
_symmetry_space_group_name_H-M "I M M A"
_symmetry_group_IT_number 74
_symmetry_cell_setting 'orthorhombic'
loop_
_space_group_symop_operation_xyz
x,y,z
-x,1/2-y,z
x,-y,-z
-x,1/2+y,-z
-x,-y,-z
x,1/2+y,-z
-x,y,z
x,1/2-y,z
1/2+x,1/2+y,1/2+z
1/2-x,-y,1/2+z
1/2+x,1/2-y,1/2-z
1/2-x,y,1/2-z
1/2-x,1/2-y,1/2-z
1/2+x,y,1/2-z
1/2-x,1/2+y,1/2+z
1/2+x,-y,1/2+z
loop_
_atom_site_type_symbol
_atom_site_label
_atom_site_fract_x
_atom_site_fract_y
_atom_site_fract_z
Si Si1 0.763689 0.191684 0.452587
Si Si2 0.847359 0.189726 0.747188
Si Si3 0.407472 0.443968 0.042721
Si Si4 0.407202 0.159958 0.940685
Si Si5 0.408358 0.943891 0.543799
Si Si6 0.500000 0.750000 0.470421
Si Si7 0.122191 0.843301 0.067952
Si Si8 0.249951 0.411073 0.148465
O O1 0.740642 0.250000 0.429405
O O2 0.854203 0.189962 0.489195
O O3 0.711461 0.170539 0.533226
O O4 0.751215 0.149668 0.378205
O O5 0.872289 0.250000 0.757901
O O6 0.750000 0.187873 0.750000
O O7 0.877040 0.169786 0.655609
O O8 0.880882 0.158653 0.829025
O O9 0.500000 0.438892 0.079078
O O10 0.332237 0.434584 0.106843
O O11 0.400675 0.500000 0.000000
O O12 0.400156 0.399900 0.969428
O O13 0.500000 0.175799 0.945463
O O14 0.500000 0.940680 0.581910
O O15 0.402044 0.897940 0.473149
O O16 0.332339 0.934555 0.607140
O O17 0.400342 0.000000 0.500000
O O18 0.568943 0.704000 0.466809
O O19 0.250000 0.417944 0.250000
#
# Coordination Sequence:
#
# PCOD9536732 Si02
#       8
#    16  16  16  16  16   4  16  16
#     4  10  19  36  56  76 109 146 183 226 278 334
#     4  11  21  33  50  77 118 152 182 225 282 335
#     4   9  19  40  63  80 107 146 190 234 277 329
#     4  10  21  33  52  81 108 146 188 227 273 334
#     4  10  22  41  61  83 116 152 189 233 284 335
#     4  12  20  32  56  84 108 148 196 222 270 344
#     4  11  21  35  55  81 111 151 189 228 277 339
#     4  10  22  38  59  86 112 143 185 232 285 334
#
# _framework density 17.514030000000002
#
# number of rings (size 3 to 8) (size 9 to 14) (size 15 to 20)
#    0.000    1.793    3.448    0.828    0.966    1.931 
#    2.483    0.000    0.000    0.000    0.000    3.862 
#    0.000    0.000    0.000    0.000    0.000    0.000 
#
# Total GULP energy -322878.517362 kJ/mol
# GULP energy per Si atom -5566.870989 kJ/mol
# Density = 1.747417 g / cm^3
# Si number density = 17.514030 Si / 1000 Ang^3
#
#
#
# Elastic Constant Matrix: (Units=GPa)
#
#
# Indices 1 2 3 4 5 6 
#
# 1 134.6119 41.8395 59.8771 0.0000 0.0000 0.0000
# 2 41.8395 118.5631 34.7653 0.0000 0.0000 0.0000
# 3 59.8771 34.7653 100.7335 0.0000 0.0000 0.0000
# 4 0.0000 0.0000 0.0000 4.8346 0.0000 0.0000
# 5 0.0000 0.0000 0.0000 0.0000 9.1218 0.0000
# 6 0.0000 0.0000 0.0000 0.0000 0.0000 21.8843
#
#
#
# Elastic Compliance Matrix: (Units=1/GPa)
#
#
# Indices 1 2 3 4 5 6 
#
# 1 0.010547 -0.002096 -0.005546 0.000000 0.000000 0.000000
# 2 -0.002096 0.009800 -0.002137 0.000000 0.000000 0.000000
# 3 -0.005546 -0.002137 0.013961 0.000000 0.000000 0.000000
# 4 0.000000 0.000000 0.000000 0.206842 0.000000 0.000000
# 5 0.000000 0.000000 0.000000 0.000000 0.109628 0.000000
# 6 0.000000 0.000000 0.000000 0.000000 0.000000 0.045695
#
#
# Mechanical properties :
#
#
# Convention : Reuss Voigt Hill
#
# Bulk Modulus (GPa) = 67.78763 69.65249 68.72006
# Shear Modulus (GPa) = 11.87797 21.66325 16.77061
#
# Velocity S-wave (km/s) = 2.60705 3.52079 3.09779
# Velocity P-wave (km/s) = 6.91744 7.50891 7.21924
#
# Compressibility (1/GPa) = 0.01475195
#
# Stress axis : x y z
#
# Youngs Moduli (GPa) = 94.81291 102.03684 71.62715
#
# Poissons Ratio (x) = 0.21384 0.39725
# Poissons Ratio (y) = 0.19870 0.15304
# Poissons Ratio (z) = 0.52583 0.21801
#
# Static dielectric constant tensor:
#      x y z
#    x 1.712820 0.000000 0.000000 
#    y 0.000000 1.597160 0.000000 
#    z 0.000000 0.000000 1.559480 
# 
# From -- ./inp_files/34546.got.cif
#   From: 2010.05.17/outbox.cif.g08.bks.cpg/sg74_18_cif.got.tgz:34546.got - 2010.06.03 17:57:02.
