data_PCOD9536507
_publ_section_title
;
Structure prediction by ZEFSAII (Michael W. Deem and Ramdas Pophale) SiO2 
 PCOD9536507
Probable space group: I M M A
;
_chemical_formula_sum "Si O2"
_cell_formula_units_Z 96
_cell_length_a 24.314336
_cell_length_b 8.598715
_cell_length_c 25.841087
_cell_angle_alpha 90.000000
_cell_angle_beta 90.000000
_cell_angle_gamma 90.000000
_cell_volume 5402.648922
_symmetry_space_group_name_H-M "I M M A"
_symmetry_group_IT_number 74
_symmetry_cell_setting 'orthorhombic'
loop_
_space_group_symop_operation_xyz
x,y,z
-x,1/2-y,z
x,-y,-z
-x,1/2+y,-z
-x,-y,-z
x,1/2+y,-z
-x,y,z
x,1/2-y,z
1/2+x,1/2+y,1/2+z
1/2-x,-y,1/2+z
1/2+x,1/2-y,1/2-z
1/2-x,y,1/2-z
1/2-x,1/2-y,1/2-z
1/2+x,y,1/2-z
1/2-x,1/2+y,1/2+z
1/2+x,-y,1/2+z
loop_
_atom_site_type_symbol
_atom_site_label
_atom_site_fract_x
_atom_site_fract_y
_atom_site_fract_z
Si Si1 0.883108 0.562041 0.350524
Si Si2 0.500000 0.937895 0.195925
Si Si3 0.500000 0.065150 0.313146
Si Si4 0.813141 0.064983 0.442591
Si Si5 0.693242 0.436799 0.557535
Si Si6 0.884427 0.561810 0.151332
Si Si7 0.312800 0.060600 0.750489
O O1 0.881141 0.750000 0.355080
O O2 0.944948 0.517339 0.334747
O O3 0.859154 0.489004 0.402378
O O4 0.844158 0.515087 0.302610
O O5 0.500000 0.750000 0.201083
O O6 0.500000 0.004101 0.253925
O O7 0.500000 0.250000 0.312558
O O8 0.445110 0.004161 0.341048
O O9 0.809644 0.250000 0.444797
O O10 0.823941 0.000000 0.500000
O O11 0.753479 0.997890 0.426197
O O12 0.682343 0.500000 0.500000
O O13 0.695667 0.250000 0.555949
O O14 0.647112 0.483851 0.598942
O O15 0.887671 0.750000 0.152390
O O16 0.847174 0.511762 0.200253
O O17 0.311847 0.250000 0.749610
O O18 0.250000 0.006082 0.750000
#
# Coordination Sequence:
#
# PCOD9536507 Si02
#       7
#    16   8   8  16  16  16  16
#     4  10  19  34  57  82 110 144 190 235 278 331
#     4  10  20  38  61  80 107 154 197 231 273 341
#     4  12  24  36  55  82 117 152 187 237 285 329
#     4  11  22  37  58  83 116 151 186 229 280 339
#     4  10  20  36  61  87 114 148 188 234 282 337
#     4  10  20  37  59  81 109 150 195 230 274 340
#     4   9  16  28  52  83 110 137 177 227 273 328
#
# _framework density 17.76906
#
# number of rings (size 3 to 8) (size 9 to 14) (size 15 to 20)
#    0.000    1.833    1.667    4.750    0.000    4.667 
#    0.000    0.833    0.000    2.000    0.000    0.000 
#    0.000    0.000    0.000    0.000    0.000    0.000 
#
# Total GULP energy -268085.378159 kJ/mol
# GULP energy per Si atom -5585.112045 kJ/mol
# Density = 1.772862 g / cm^3
# Si number density = 17.769060 Si / 1000 Ang^3
#
#
#
# Elastic Constant Matrix: (Units=GPa)
#
#
# Indices 1 2 3 4 5 6 
#
# 1 177.6100 44.2192 90.2557 0.0000 0.0000 0.0000
# 2 44.2192 49.1967 39.4614 0.0000 0.0000 0.0000
# 3 90.2557 39.4614 107.2831 0.0000 0.0000 0.0000
# 4 0.0000 0.0000 0.0000 24.3449 0.0000 0.0000
# 5 0.0000 0.0000 0.0000 0.0000 19.4657 0.0000
# 6 0.0000 0.0000 0.0000 0.0000 0.0000 17.5028
#
#
#
# Elastic Compliance Matrix: (Units=1/GPa)
#
#
# Indices 1 2 3 4 5 6 
#
# 1 0.010186 -0.003237 -0.007379 0.000000 0.000000 0.000000
# 2 -0.003237 0.029862 -0.008261 0.000000 0.000000 0.000000
# 3 -0.007379 -0.008261 0.018567 0.000000 0.000000 0.000000
# 4 0.000000 0.000000 0.000000 0.041076 0.000000 0.000000
# 5 0.000000 0.000000 0.000000 0.000000 0.051372 0.000000
# 6 0.000000 0.000000 0.000000 0.000000 0.000000 0.057134
#
#
# Mechanical properties :
#
#
# Convention : Reuss Voigt Hill
#
# Bulk Modulus (GPa) = 47.93306 75.77361 61.85334
# Shear Modulus (GPa) = 19.77033 22.93957 21.35495
#
# Velocity S-wave (km/s) = 3.33922 3.59692 3.47047
# Velocity P-wave (km/s) = 6.47313 7.74510 7.13751
#
# Compressibility (1/GPa) = 0.02086243
#
# Stress axis : x y z
#
# Youngs Moduli (GPa) = 98.17707 33.48729 53.85846
#
# Poissons Ratio (x) = 0.10839 0.39740
# Poissons Ratio (y) = 0.31777 0.44493
# Poissons Ratio (z) = 0.72440 0.27664
#
# Static dielectric constant tensor:
#      x y z
#    x 1.590810 0.000000 0.000000 
#    y 0.000000 1.603080 0.000000 
#    z 0.000000 0.000000 1.584750 
# 
# From -- ./inp_files/61950.got.cif
#   From: 2010.05.17/outbox.cif.g08.bks.cpg/sg74_31_cif.got.tgz:61950.got - 2010.06.03 17:57:02.
