data_PCOD9536212
_publ_section_title
;
Structure prediction by ZEFSAII (Michael W. Deem and Ramdas Pophale) SiO2 
 PCOD9536212
Probable space group: I M M A
;
_chemical_formula_sum "Si O2"
_cell_formula_units_Z 80
_cell_length_a 17.892908
_cell_length_b 7.854490
_cell_length_c 30.314588
_cell_angle_alpha 90.000000
_cell_angle_beta 90.000000
_cell_angle_gamma 90.000000
_cell_volume 4260.402101
_symmetry_space_group_name_H-M "I M M A"
_symmetry_group_IT_number 74
_symmetry_cell_setting 'orthorhombic'
loop_
_space_group_symop_operation_xyz
x,y,z
-x,1/2-y,z
x,-y,-z
-x,1/2+y,-z
-x,-y,-z
x,1/2+y,-z
-x,y,z
x,1/2-y,z
1/2+x,1/2+y,1/2+z
1/2-x,-y,1/2+z
1/2+x,1/2-y,1/2-z
1/2-x,y,1/2-z
1/2-x,1/2-y,1/2-z
1/2+x,y,1/2-z
1/2-x,1/2+y,1/2+z
1/2+x,-y,1/2+z
loop_
_atom_site_type_symbol
_atom_site_label
_atom_site_fract_x
_atom_site_fract_y
_atom_site_fract_z
Si Si1 0.089148 0.750000 0.610174
Si Si2 0.091491 0.250000 0.289062
Si Si3 0.913673 0.544059 0.869204
Si Si4 0.643208 0.055699 0.950665
Si Si5 0.908934 0.439059 0.771842
Si Si6 0.813970 0.454357 0.047687
O O1 0.117450 0.750000 0.660521
O O2 0.114717 0.582272 0.584074
O O3 0.000000 0.750000 0.611514
O O4 0.115942 0.415647 0.261752
O O5 0.000000 0.250000 0.289477
O O6 0.912885 0.750000 0.866318
O O7 0.885838 0.475214 0.822221
O O8 0.864659 0.493838 0.911126
O O9 0.000000 0.490775 0.875060
O O10 0.620004 0.250000 0.942094
O O11 0.733309 0.042627 0.950207
O O12 0.619195 0.000000 0.000000
O O13 0.886249 0.250000 0.758274
O O14 0.000000 0.445788 0.772489
O O15 0.802464 0.250000 0.049542
O O16 0.847822 0.500000 0.000000
#
# Coordination Sequence:
#
# PCOD9536212 Si02
#       6
#     8   8  16  16  16  16
#     4  11  24  40  61  91 116 138 175 232 290 332
#     4   9  18  34  53  77 113 142 173 223 277 334
#     4   9  17  30  50  79 112 149 193 238 280 316
#     4  11  21  40  62  82 111 149 189 219 266 344
#     4   9  16  28  50  76 106 147 187 223 270 328
#     4  10  19  33  54  77 109 152 193 231 274 330
#
# _framework density 18.777570999999998
#
# number of rings (size 3 to 8) (size 9 to 14) (size 15 to 20)
#    0.000    2.200    3.000    1.800    0.000    3.600 
#    0.000    2.000    0.000    2.400    0.000    2.800 
#    0.000    0.000    0.000    0.000    0.000    0.000 
#
# Total GULP energy -223225.127237 kJ/mol
# GULP energy per Si atom -5580.628181 kJ/mol
# Density = 1.873483 g / cm^3
# Si number density = 18.777571 Si / 1000 Ang^3
#
#
#
# Elastic Constant Matrix: (Units=GPa)
#
#
# Indices 1 2 3 4 5 6 
#
# 1 14.9416 17.5310 30.9561 0.0000 0.0000 0.0000
# 2 17.5310 144.6922 89.9530 0.0000 0.0000 0.0000
# 3 30.9561 89.9530 184.8352 0.0000 0.0000 0.0000
# 4 0.0000 0.0000 0.0000 37.9371 0.0000 0.0000
# 5 0.0000 0.0000 0.0000 0.0000-1129.9536 0.0000
# 6 0.0000 0.0000 0.0000 0.0000 0.0000 9.1699
#
#
#
# Elastic Compliance Matrix: (Units=1/GPa)
#
#
# Indices 1 2 3 4 5 6 
#
# 1 0.103126 -0.002520 -0.016045 0.000000 0.000000 0.000000
# 2 -0.002520 0.009971 -0.004430 0.000000 0.000000 0.000000
# 3 -0.016045 -0.004430 0.010254 0.000000 0.000000 0.000000
# 4 0.000000 0.000000 0.000000 0.026359 0.000000 0.000000
# 5 0.000000 0.000000 0.000000 0.000000 -0.000885 0.000000
# 6 0.000000 0.000000 0.000000 0.000000 0.000000 0.109052
#
#
# Mechanical properties :
#
#
# Convention : Reuss Voigt Hill
#
# Bulk Modulus (GPa) = 12.92664 69.03879 40.98271
# Shear Modulus (GPa) = 15.16739 -202.83405 -93.83333
#
# Velocity S-wave (km/s) = 2.84516 -10.40451 -7.07668
# Velocity P-wave (km/s) = 4.20622 10.36783 6.70074
#
# Compressibility (1/GPa) = 0.07735965
#
# Stress axis : x y z
#
# Youngs Moduli (GPa) = 9.69687 100.29199 97.52656
#
# Poissons Ratio (x) = 0.25272 1.56483
# Poissons Ratio (y) = 0.02443 0.43209
# Poissons Ratio (z) = 0.15559 0.44434
#
# Static dielectric constant tensor:
#      x y z
#    x 1.637690 0.000000 0.000000 
#    y 0.000000 1.661000 0.000000 
#    z 0.000000 0.000000 1.640010 
# 
# From -- ./inp_files/72896.got.cif
#   From: 2010.05.17/outbox.cif.g08.bks.cpg/sg74_37_cif.got.tgz:72896.got - 2010.06.03 17:57:02.
