data_PCOD9536069
_publ_section_title
;
Structure prediction by ZEFSAII (Michael W. Deem and Ramdas Pophale) SiO2 
 PCOD9536069
Probable space group: I M M A
;
_chemical_formula_sum "Si O2"
_cell_formula_units_Z 72
_cell_length_a 26.306774
_cell_length_b 8.024622
_cell_length_c 17.154183
_cell_angle_alpha 90.000000
_cell_angle_beta 90.000000
_cell_angle_gamma 90.000000
_cell_volume 3621.280923
_symmetry_space_group_name_H-M "I M M A"
_symmetry_group_IT_number 74
_symmetry_cell_setting 'orthorhombic'
loop_
_space_group_symop_operation_xyz
x,y,z
-x,1/2-y,z
x,-y,-z
-x,1/2+y,-z
-x,-y,-z
x,1/2+y,-z
-x,y,z
x,1/2-y,z
1/2+x,1/2+y,1/2+z
1/2-x,-y,1/2+z
1/2+x,1/2-y,1/2-z
1/2-x,y,1/2-z
1/2-x,1/2-y,1/2-z
1/2+x,y,1/2-z
1/2-x,1/2+y,1/2+z
1/2+x,-y,1/2+z
loop_
_atom_site_type_symbol
_atom_site_label
_atom_site_fract_x
_atom_site_fract_y
_atom_site_fract_z
Si Si1 0.183402 0.944727 0.413208
Si Si2 0.632390 0.447964 0.238096
Si Si3 0.059481 0.553580 0.129392
Si Si4 0.869167 0.000000 0.000000
Si Si5 0.204670 0.555257 0.876617
O O1 0.194326 0.750000 0.414447
O O2 0.168959 0.000000 0.500000
O O3 0.141866 0.983008 0.347551
O O4 0.235846 0.033611 0.388209
O O5 0.625461 0.250000 0.233948
O O6 0.586383 0.524399 0.287766
O O7 0.682904 0.479732 0.290879
O O8 0.065922 0.750000 0.107464
O O9 0.000000 0.515864 0.130922
O O10 0.089793 0.444608 0.065583
O O11 0.827013 0.059401 0.936549
O O12 0.191685 0.750000 0.894869
#
# Coordination Sequence:
#
# PCOD9536069 Si02
#       5
#    16  16  16   8  16
#     4  12  24  37  57  82 113 149 190 235 286 343
#     4  10  22  39  58  81 112 148 192 240 289 342
#     4  10  21  37  58  85 117 154 198 243 288 340
#     4  10  19  32  56  84 122 158 199 230 278 330
#     4  10  20  34  53  80 116 154 192 233 278 333
#
# _framework density 19.882467999999999
#
# number of rings (size 3 to 8) (size 9 to 14) (size 15 to 20)
#    0.000    1.556    1.111    4.333    0.000    8.444 
#    0.000    0.000    0.000    0.667    0.000    0.000 
#    0.000    0.000    0.000    0.000    0.000    0.000 
#
# Total GULP energy -200552.294586 kJ/mol
# GULP energy per Si atom -5570.897072 kJ/mol
# Density = 1.983722 g / cm^3
# Si number density = 19.882468 Si / 1000 Ang^3
#
#
#
# Elastic Constant Matrix: (Units=GPa)
#
#
# Indices 1 2 3 4 5 6 
#
# 1 83.6590 7.4814 35.4157 0.0000 0.0000 0.0000
# 2 7.4814 78.4893 20.2727 0.0000 0.0000 0.0000
# 3 35.4157 20.2727 126.1937 0.0000 0.0000 0.0000
# 4 0.0000 0.0000 0.0000 3.2141 0.0000 0.0000
# 5 0.0000 0.0000 0.0000 0.0000 12.6627 0.0000
# 6 0.0000 0.0000 0.0000 0.0000 0.0000 -86.8432
#
#
#
# Elastic Compliance Matrix: (Units=1/GPa)
#
#
# Indices 1 2 3 4 5 6 
#
# 1 0.013573 -0.000323 -0.003757 0.000000 0.000000 0.000000
# 2 -0.000323 0.013300 -0.002046 0.000000 0.000000 0.000000
# 3 -0.003757 -0.002046 0.009307 0.000000 0.000000 0.000000
# 4 0.000000 0.000000 0.000000 0.311127 0.000000 0.000000
# 5 0.000000 0.000000 0.000000 0.000000 0.078972 0.000000
# 6 0.000000 0.000000 0.000000 0.000000 0.000000 -0.011515
#
#
# Mechanical properties :
#
#
# Convention : Reuss Voigt Hill
#
# Bulk Modulus (GPa) = 41.79323 46.07574 43.93449
# Shear Modulus (GPa) = 11.49446 0.81821 6.15633
#
# Velocity S-wave (km/s) = 2.40702 0.64219 1.76156
# Velocity P-wave (km/s) = 5.36570 4.87588 5.12665
#
# Compressibility (1/GPa) = 0.02392732
#
# Stress axis : x y z
#
# Youngs Moduli (GPa) = 73.67702 75.18895 107.44108
#
# Poissons Ratio (x) = 0.02431 0.40368
# Poissons Ratio (y) = 0.02382 0.21981
# Poissons Ratio (z) = 0.27682 0.15383
#
# Static dielectric constant tensor:
#      x y z
#    x 1.665040 0.000000 0.000000 
#    y 0.000000 1.825480 0.000000 
#    z 0.000000 0.000000 1.697600 
# 
# From -- ./inp_files/37051.got.cif
#   From: 2010.05.17/outbox.cif.g08.bks.cpg/sg74_19_cif.got.tgz:37051.got - 2010.06.03 17:57:02.
