data_PCOD9536752
_publ_section_title
;
Structure prediction by ZEFSAII (Michael W. Deem and Ramdas Pophale) SiO2 
 PCOD9536752
Probable space group: I M M A
;
_chemical_formula_sum "Si O2"
_cell_formula_units_Z 88
_cell_length_a 27.318304
_cell_length_b 24.538387
_cell_length_c 5.548556
_cell_angle_alpha 90.000000
_cell_angle_beta 90.000000
_cell_angle_gamma 90.000000
_cell_volume 3719.458511
_symmetry_space_group_name_H-M "I M M A"
_symmetry_group_IT_number 74
_symmetry_cell_setting 'orthorhombic'
loop_
_space_group_symop_operation_xyz
x,y,z
-x,1/2-y,z
x,-y,-z
-x,1/2+y,-z
-x,-y,-z
x,1/2+y,-z
-x,y,z
x,1/2-y,z
1/2+x,1/2+y,1/2+z
1/2-x,-y,1/2+z
1/2+x,1/2-y,1/2-z
1/2-x,y,1/2-z
1/2-x,1/2-y,1/2-z
1/2+x,y,1/2-z
1/2-x,1/2+y,1/2+z
1/2+x,-y,1/2+z
loop_
_atom_site_type_symbol
_atom_site_label
_atom_site_fract_x
_atom_site_fract_y
_atom_site_fract_z
Si Si1 0.171726 0.103448 0.669338
Si Si2 0.089035 0.439299 0.950979
Si Si3 0.220925 0.000000 0.500000
Si Si4 0.000000 0.673121 0.783037
Si Si5 0.707983 0.312633 0.451636
Si Si6 0.893662 0.659830 0.702367
Si Si7 0.000000 0.114343 0.711885
O O1 0.142849 0.062553 0.842985
O O2 0.130810 0.143318 0.551257
O O3 0.194461 0.059838 0.483726
O O4 0.204123 0.143032 0.835523
O O5 0.048825 0.418018 0.766792
O O6 0.074522 0.500000 0.000000
O O7 0.091569 0.397133 0.169953
O O8 0.250000 0.994515 0.250000
O O9 0.944214 0.693523 0.726317
O O10 0.000000 0.629380 0.565561
O O11 0.000000 0.659670 0.069777
O O12 0.716643 0.250000 0.529614
O O13 0.750000 0.325256 0.250000
O O14 0.653358 0.315212 0.337691
#
# Coordination Sequence:
#
# PCOD9536752 Si02
#       7
#    16  16   8   8  16  16   8
#     4  11  24  43  70  99 143 194 245 305 375 450
#     4  10  20  36  58  94 138 185 238 292 353 431
#     4  12  32  46  70 105 150 203 250 302 376 460
#     4  10  20  40  64 102 139 186 238 296 366 445
#     4  10  25  48  76 107 141 189 257 325 384 446
#     4  10  22  39  68  98 142 187 238 303 372 446
#     4  10  19  36  58  92 134 188 235 291 350 419
#
# _framework density 23.659358000000001
#
# number of rings (size 3 to 8) (size 9 to 14) (size 15 to 20)
#    0.000    1.636    1.818    1.364    8.909    0.727 
#    0.000    4.091    0.000    0.545    0.000    0.000 
#    0.000    0.000    0.000    0.000    0.000    0.000 
#
# Total GULP energy -245149.694519 kJ/mol
# GULP energy per Si atom -5571.583966 kJ/mol
# Density = 2.360551 g / cm^3
# Si number density = 23.659358 Si / 1000 Ang^3
#
#
#
# Elastic Constant Matrix: (Units=GPa)
#
#
# Indices 1 2 3 4 5 6 
#
# 1 179.0708 33.5959 26.9834 0.0000 0.0000 0.0000
# 2 33.5959 110.5142 7.4031 0.0000 0.0000 0.0000
# 3 26.9834 7.4031 40.2546 0.0000 0.0000 0.0000
# 4 0.0000 0.0000 0.0000 261.1537 0.0000 0.0000
# 5 0.0000 0.0000 0.0000 0.0000 54.3006 0.0000
# 6 0.0000 0.0000 0.0000 0.0000 0.0000 154.0585
#
#
#
# Elastic Compliance Matrix: (Units=1/GPa)
#
#
# Indices 1 2 3 4 5 6 
#
# 1 0.006516 -0.001709 -0.004053 0.000000 0.000000 0.000000
# 2 -0.001709 0.009610 -0.000622 0.000000 0.000000 0.000000
# 3 -0.004053 -0.000622 0.027673 0.000000 0.000000 0.000000
# 4 0.000000 0.000000 0.000000 0.003829 0.000000 0.000000
# 5 0.000000 0.000000 0.000000 0.000000 0.018416 0.000000
# 6 0.000000 0.000000 0.000000 0.000000 0.000000 0.006491
#
#
# Mechanical properties :
#
#
# Convention : Reuss Voigt Hill
#
# Bulk Modulus (GPa) = 32.22632 51.75606 41.99119
# Shear Modulus (GPa) = 52.27558 111.35971 81.81764
#
# Velocity S-wave (km/s) = 4.70564 6.86805 5.88698
# Velocity P-wave (km/s) = 6.57074 9.20959 7.99972
#
# Compressibility (1/GPa) = 0.03103054
#
# Stress axis : x y z
#
# Youngs Moduli (GPa) = 153.47207 104.05983 36.13605
#
# Poissons Ratio (x) = 0.17787 0.14647
# Poissons Ratio (y) = 0.26232 0.02246
# Poissons Ratio (z) = 0.62207 0.06468
#
# Static dielectric constant tensor:
#      x y z
#    x 1.980820 0.000000 0.000000 
#    y 0.000000 1.875530 0.000000 
#    z 0.000000 0.000000 1.911680 
# 
# From -- ./inp_files/5179.got.cif
#   From: 2010.05.17/outbox.cif.g08.bks.cpg/sg74_3_cif.got.tgz:5179.got - 2010.06.03 17:57:02.
