data_PCOD9536610
_publ_section_title
;
Structure prediction by ZEFSAII (Michael W. Deem and Ramdas Pophale) SiO2 
 PCOD9536610
Probable space group: I M M A
;
_chemical_formula_sum "Si O2"
_cell_formula_units_Z 88
_cell_length_a 28.665826
_cell_length_b 7.466460
_cell_length_c 18.105227
_cell_angle_alpha 90.000000
_cell_angle_beta 90.000000
_cell_angle_gamma 90.000000
_cell_volume 3875.102348
_symmetry_space_group_name_H-M "I M M A"
_symmetry_group_IT_number 74
_symmetry_cell_setting 'orthorhombic'
loop_
_space_group_symop_operation_xyz
x,y,z
-x,1/2-y,z
x,-y,-z
-x,1/2+y,-z
-x,-y,-z
x,1/2+y,-z
-x,y,z
x,1/2-y,z
1/2+x,1/2+y,1/2+z
1/2-x,-y,1/2+z
1/2+x,1/2-y,1/2-z
1/2-x,y,1/2-z
1/2-x,1/2-y,1/2-z
1/2+x,y,1/2-z
1/2-x,1/2+y,1/2+z
1/2+x,-y,1/2+z
loop_
_atom_site_type_symbol
_atom_site_label
_atom_site_fract_x
_atom_site_fract_y
_atom_site_fract_z
Si Si1 0.947173 0.969450 0.659369
Si Si2 0.144909 0.036324 0.415754
Si Si3 0.326517 0.964599 0.585591
Si Si4 0.735154 0.531062 0.832046
Si Si5 0.911155 0.043269 0.182139
Si Si6 0.000000 0.461885 0.913400
O O1 0.948833 0.750000 0.659743
O O2 0.907055 0.028804 0.603020
O O3 0.929585 0.030325 0.740322
O O4 0.000000 0.029612 0.645031
O O5 0.143632 0.250000 0.406216
O O6 0.184727 0.968884 0.360022
O O7 0.158031 0.000000 0.500000
O O8 0.326728 0.750000 0.593266
O O9 0.275575 0.026398 0.611259
O O10 0.366361 0.036159 0.640762
O O11 0.336488 0.000000 0.500000
O O12 0.733986 0.750000 0.831499
O O13 0.750000 0.475266 0.750000
O O14 0.899110 0.250000 0.198747
O O15 0.954064 0.037837 0.125429
O O16 0.000000 0.250000 0.901462
O O17 0.000000 0.500000 0.000000
#
# Coordination Sequence:
#
# PCOD9536610 Si02
#       6
#    16  16  16  16  16   8
#     4   9  17  32  56  80 102 136 183 225 266 319
#     4  10  20  34  55  81 110 144 179 222 273 323
#     4  10  20  32  51  77 105 137 171 212 262 310
#     4   9  17  32  54  80 105 133 178 225 260 308
#     4  10  19  35  56  77 102 137 180 224 267 314
#     4  12  24  36  52  76 107 142 179 220 269 318
#
# _framework density 22.709077000000001
#
# number of rings (size 3 to 8) (size 9 to 14) (size 15 to 20)
#    0.000    2.182    0.909    3.000    0.000    6.909 
#    0.000    0.909    0.000    4.364    0.000    0.000 
#    0.000    0.000    0.000    0.000    0.000    0.000 
#
# Total GULP energy -245884.343785 kJ/mol
# GULP energy per Si atom -5588.280541 kJ/mol
# Density = 2.265739 g / cm^3
# Si number density = 22.709077 Si / 1000 Ang^3
#
#
#
# Elastic Constant Matrix: (Units=GPa)
#
#
# Indices 1 2 3 4 5 6 
#
# 1 177.8500 5.7359 50.4791 0.0000 0.0000 0.0000
# 2 5.7359 69.1580 -8.4337 0.0000 0.0000 0.0000
# 3 50.4791 -8.4337 96.2334 0.0000 0.0000 0.0000
# 4 0.0000 0.0000 0.0000 14.6070 0.0000 0.0000
# 5 0.0000 0.0000 0.0000 0.0000 35.8834 0.0000
# 6 0.0000 0.0000 0.0000 0.0000 0.0000 -24.2576
#
#
#
# Elastic Compliance Matrix: (Units=1/GPa)
#
#
# Indices 1 2 3 4 5 6 
#
# 1 0.006673 -0.000991 -0.003587 0.000000 0.000000 0.000000
# 2 -0.000991 0.014763 0.001814 0.000000 0.000000 0.000000
# 3 -0.003587 0.001814 0.012432 0.000000 0.000000 0.000000
# 4 0.000000 0.000000 0.000000 0.068460 0.000000 0.000000
# 5 0.000000 0.000000 0.000000 0.000000 0.027868 0.000000
# 6 0.000000 0.000000 0.000000 0.000000 0.000000 -0.041224
#
#
# Mechanical properties :
#
#
# Convention : Reuss Voigt Hill
#
# Bulk Modulus (GPa) = 35.28707 48.75599 42.02153
# Shear Modulus (GPa) = 48.10154 24.94391 36.52273
#
# Velocity S-wave (km/s) = 4.60734 3.31782 4.01470
# Velocity P-wave (km/s) = 6.62389 6.01612 6.32731
#
# Compressibility (1/GPa) = 0.02833899
#
# Stress axis : x y z
#
# Youngs Moduli (GPa) = 149.86262 67.73700 80.43817
#
# Poissons Ratio (x) = 0.06712 0.28853
# Poissons Ratio (y) = 0.14849 -0.14588
# Poissons Ratio (z) = 0.53756 -0.12285
#
# Static dielectric constant tensor:
#      x y z
#    x 1.853190 0.000000 0.000000 
#    y 0.000000 1.845150 0.000000 
#    z 0.000000 0.000000 1.791330 
# 
# From -- ./inp_files/47045.got.cif
#   From: 2010.05.17/outbox.cif.g08.bks.cpg/sg74_24_cif.got.tgz:47045.got - 2010.06.03 17:57:02.
