data_PCOD9536886
_publ_section_title
;
Structure prediction by ZEFSAII (Michael W. Deem and Ramdas Pophale) SiO2 
 PCOD9536886
Probable space group: I M M A
;
_chemical_formula_sum "Si O2"
_cell_formula_units_Z 68
_cell_length_a 15.716603
_cell_length_b 10.338819
_cell_length_c 19.575249
_cell_angle_alpha 90.000000
_cell_angle_beta 90.000000
_cell_angle_gamma 90.000000
_cell_volume 3180.804011
_symmetry_space_group_name_H-M "I M M A"
_symmetry_group_IT_number 74
_symmetry_cell_setting 'orthorhombic'
loop_
_space_group_symop_operation_xyz
x,y,z
-x,1/2-y,z
x,-y,-z
-x,1/2+y,-z
-x,-y,-z
x,1/2+y,-z
-x,y,z
x,1/2-y,z
1/2+x,1/2+y,1/2+z
1/2-x,-y,1/2+z
1/2+x,1/2-y,1/2-z
1/2-x,y,1/2-z
1/2-x,1/2-y,1/2-z
1/2+x,y,1/2-z
1/2-x,1/2+y,1/2+z
1/2+x,-y,1/2+z
loop_
_atom_site_type_symbol
_atom_site_label
_atom_site_fract_x
_atom_site_fract_y
_atom_site_fract_z
Si Si1 0.395847 0.534803 0.304034
Si Si2 0.397245 0.969834 0.151388
Si Si3 0.162477 0.250000 0.549454
Si Si4 0.500000 0.750000 0.524914
Si Si5 0.648489 0.750000 0.411948
Si Si6 0.602140 0.750000 0.894277
Si Si7 0.905906 0.750000 0.832801
O O1 0.500000 0.537805 0.311225
O O2 0.373300 0.576475 0.227337
O O3 0.359348 0.626576 0.362107
O O4 0.366598 0.386801 0.313874
O O5 0.500000 0.970183 0.149388
O O6 0.366382 0.874808 0.092574
O O7 0.366871 0.116555 0.139130
O O8 0.263625 0.250000 0.548423
O O9 0.124518 0.250000 0.474121
O O10 0.573101 0.750000 0.465933
O O11 0.427814 0.750000 0.586835
O O12 0.500000 0.750000 0.887694
O O13 0.000000 0.750000 0.796664
#
# Coordination Sequence:
#
# PCOD9536886 Si02
#       7
#    16  16   8   4   8   8   8
#     4  10  19  39  63  93 119 160 206 256 302 365
#     4  10  21  39  68  93 124 158 204 254 311 364
#     4  12  25  40  57  95 129 166 205 251 305 368
#     4  10  22  44  64  92 120 172 200 260 302 364
#     4  12  25  39  63  88 129 166 209 248 301 365
#     4  10  21  43  67  94 122 160 203 254 313 370
#     4   8  19  36  62  89 119 150 213 249 301 353
#
# _framework density 21.378243000000001
#
# number of rings (size 3 to 8) (size 9 to 14) (size 15 to 20)
#    0.353    1.412    1.176    3.176    0.000   10.353 
#    8.471    0.000    0.000    2.824    0.000    0.000 
#    0.000    0.000    0.000    0.000    0.000    0.000 
#
# Total GULP energy -189485.710220 kJ/mol
# GULP energy per Si atom -5573.109124 kJ/mol
# Density = 2.132959 g / cm^3
# Si number density = 21.378243 Si / 1000 Ang^3
#
#
#
# Elastic Constant Matrix: (Units=GPa)
#
#
# Indices 1 2 3 4 5 6 
#
# 1 23.0749 4.6490 5.3504 0.0000 0.0000 0.0000
# 2 4.6490 88.9494 1.9004 0.0000 0.0000 0.0000
# 3 5.3504 1.9004 97.6902 0.0000 0.0000 0.0000
# 4 0.0000 0.0000 0.0000 12.5661 0.0000 0.0000
# 5 0.0000 0.0000 0.0000 0.0000 -156.6113 0.0000
# 6 0.0000 0.0000 0.0000 0.0000 0.0000 86.4678
#
#
#
# Elastic Compliance Matrix: (Units=1/GPa)
#
#
# Indices 1 2 3 4 5 6 
#
# 1 0.044347 -0.002267 -0.002385 0.000000 0.000000 0.000000
# 2 -0.002267 0.011363 -0.000097 0.000000 0.000000 0.000000
# 3 -0.002385 -0.000097 0.010369 0.000000 0.000000 0.000000
# 4 0.000000 0.000000 0.000000 0.079579 0.000000 0.000000
# 5 0.000000 0.000000 0.000000 0.000000 -0.006385 0.000000
# 6 0.000000 0.000000 0.000000 0.000000 0.000000 0.011565
#
#
# Mechanical properties :
#
#
# Convention : Reuss Voigt Hill
#
# Bulk Modulus (GPa) = 17.67359 25.94601 21.80980
# Shear Modulus (GPa) = 27.90255 1.67217 14.78736
#
# Velocity S-wave (km/s) = 3.61665 0.88537 2.63287
# Velocity P-wave (km/s) = 5.07201 3.63430 4.41211
#
# Compressibility (1/GPa) = 0.05658160
#
# Stress axis : x y z
#
# Youngs Moduli (GPa) = 22.54958 88.00578 96.44192
#
# Poissons Ratio (x) = 0.19950 0.22999
# Poissons Ratio (y) = 0.05112 0.00934
# Poissons Ratio (z) = 0.05377 0.00853
#
# Static dielectric constant tensor:
#      x y z
#    x 1.794970 0.000000 0.000000 
#    y 0.000000 1.783820 0.000000 
#    z 0.000000 0.000000 1.713970 
# 
# From -- ./inp_files/52673.got.cif
#   From: 2010.05.17/outbox.cif.g08.bks.cpg/sg74_27_cif.got.tgz:52673.got - 2010.06.03 17:57:02.
