data_PCOD9536635
_publ_section_title
;
Structure prediction by ZEFSAII (Michael W. Deem and Ramdas Pophale) SiO2 
 PCOD9536635
Probable space group: I M M A
;
_chemical_formula_sum "Si O2"
_cell_formula_units_Z 112
_cell_length_a 25.265056
_cell_length_b 18.094221
_cell_length_c 12.500495
_cell_angle_alpha 90.000000
_cell_angle_beta 90.000000
_cell_angle_gamma 90.000000
_cell_volume 5714.620126
_symmetry_space_group_name_H-M "I M M A"
_symmetry_group_IT_number 74
_symmetry_cell_setting 'orthorhombic'
loop_
_space_group_symop_operation_xyz
x,y,z
-x,1/2-y,z
x,-y,-z
-x,1/2+y,-z
-x,-y,-z
x,1/2+y,-z
-x,y,z
x,1/2-y,z
1/2+x,1/2+y,1/2+z
1/2-x,-y,1/2+z
1/2+x,1/2-y,1/2-z
1/2-x,y,1/2-z
1/2-x,1/2-y,1/2-z
1/2+x,y,1/2-z
1/2-x,1/2+y,1/2+z
1/2+x,-y,1/2+z
loop_
_atom_site_type_symbol
_atom_site_label
_atom_site_fract_x
_atom_site_fract_y
_atom_site_fract_z
Si Si1 0.331119 0.660684 0.965933
Si Si2 0.719408 0.091307 0.407385
Si Si3 0.630010 0.661708 0.203042
Si Si4 0.060509 0.165967 0.057733
Si Si5 0.361416 0.338087 0.259788
Si Si6 0.826059 0.559059 0.129784
Si Si7 0.940337 0.069455 0.842725
O O1 0.322976 0.750000 0.962946
O O2 0.275452 0.620318 0.946923
O O3 0.365508 0.637195 0.862747
O O4 0.356683 0.643889 0.080392
O O5 0.693967 0.138271 0.312509
O O6 0.681777 0.093902 0.512632
O O7 0.716436 0.006438 0.367765
O O8 0.629502 0.750000 0.217108
O O9 0.673461 0.622074 0.280023
O O10 0.575486 0.624771 0.245679
O O11 0.077962 0.250000 0.029867
O O12 0.094240 0.137920 0.156932
O O13 0.000000 0.169239 0.093335
O O14 0.061147 0.117132 0.951576
O O15 0.363931 0.250000 0.257169
O O16 0.885231 0.524140 0.145088
O O17 0.000000 0.038212 0.832588
#
# Coordination Sequence:
#
# PCOD9536635 Si02
#       7
#    16  16  16  16  16  16  16
#     4  10  22  38  58  83 114 156 201 242 289 342
#     4  11  20  38  52  79 116 146 193 239 295 349
#     4   9  19  38  58  84 119 152 192 240 291 354
#     4   9  16  28  52  85 115 143 179 232 295 346
#     4  10  19  35  57  81 110 147 192 240 287 346
#     4   9  22  37  53  85 116 145 187 236 290 347
#     4   9  17  34  59  87 115 147 190 239 295 352
#
# _framework density 19.598853999999999
#
# number of rings (size 3 to 8) (size 9 to 14) (size 15 to 20)
#    0.857    1.571    1.429    1.286    0.000    3.714 
#   10.286    4.286    0.000    2.571    0.000    1.000 
#    0.000    0.000    0.000    0.000    0.000    0.000 
#
# Total GULP energy -311758.568761 kJ/mol
# GULP energy per Si atom -5567.117299 kJ/mol
# Density = 1.955425 g / cm^3
# Si number density = 19.598854 Si / 1000 Ang^3
#
#
#
# Elastic Constant Matrix: (Units=GPa)
#
#
# Indices 1 2 3 4 5 6 
#
# 1 57.4257 9.1645 29.9993 0.0000 0.0000 0.0000
# 2 9.1645 32.2971 22.8516 0.0000 0.0000 0.0000
# 3 29.9993 22.8516 138.0423 0.0000 0.0000 0.0000
# 4 0.0000 0.0000 0.0000 -42.4465 0.0000 0.0000
# 5 0.0000 0.0000 0.0000 0.0000 14.3312 0.0000
# 6 0.0000 0.0000 0.0000 0.0000 0.0000 -141.4926
#
#
#
# Elastic Compliance Matrix: (Units=1/GPa)
#
#
# Indices 1 2 3 4 5 6 
#
# 1 0.019885 -0.002928 -0.003837 0.000000 0.000000 0.000000
# 2 -0.002928 0.035501 -0.005241 0.000000 0.000000 0.000000
# 3 -0.003837 -0.005241 0.008946 0.000000 0.000000 0.000000
# 4 0.000000 0.000000 0.000000 -0.023559 0.000000 0.000000
# 5 0.000000 0.000000 0.000000 0.000000 0.069778 0.000000
# 6 0.000000 0.000000 0.000000 0.000000 0.000000 -0.007068
#
#
# Mechanical properties :
#
#
# Convention : Reuss Voigt Hill
#
# Bulk Modulus (GPa) = 24.80060 39.08841 31.94451
# Shear Modulus (GPa) = 35.47748 -22.87159 6.30294
#
# Velocity S-wave (km/s) = 4.25924 -3.41982 1.79526
# Velocity P-wave (km/s) = 6.07204 2.09617 4.54223
#
# Compressibility (1/GPa) = 0.04032160
#
# Stress axis : x y z
#
# Youngs Moduli (GPa) = 50.28811 28.16801 111.78804
#
# Poissons Ratio (x) = 0.08247 0.42891
# Poissons Ratio (y) = 0.14724 0.58584
# Poissons Ratio (z) = 0.19295 0.14762
#
# Static dielectric constant tensor:
#      x y z
#    x 1.719860 0.000000 0.000000 
#    y 0.000000 1.729380 0.000000 
#    z 0.000000 0.000000 1.687730 
# 
# From -- ./inp_files/25383.got.cif
#   From: 2010.05.17/outbox.cif.g08.bks.cpg/sg74_13_cif.got.tgz:25383.got - 2010.06.03 17:57:02.
