data_PCOD9536712
_publ_section_title
;
Structure prediction by ZEFSAII (Michael W. Deem and Ramdas Pophale) SiO2 
 PCOD9536712
Probable space group: I M M A
;
_chemical_formula_sum "Si O2"
_cell_formula_units_Z 64
_cell_length_a 15.584836
_cell_length_b 21.344882
_cell_length_c 7.843662
_cell_angle_alpha 90.000000
_cell_angle_beta 90.000000
_cell_angle_gamma 90.000000
_cell_volume 2609.245034
_symmetry_space_group_name_H-M "I M M A"
_symmetry_group_IT_number 74
_symmetry_cell_setting 'orthorhombic'
loop_
_space_group_symop_operation_xyz
x,y,z
-x,1/2-y,z
x,-y,-z
-x,1/2+y,-z
-x,-y,-z
x,1/2+y,-z
-x,y,z
x,1/2-y,z
1/2+x,1/2+y,1/2+z
1/2-x,-y,1/2+z
1/2+x,1/2-y,1/2-z
1/2-x,y,1/2-z
1/2-x,1/2-y,1/2-z
1/2+x,y,1/2-z
1/2-x,1/2+y,1/2+z
1/2+x,-y,1/2+z
loop_
_atom_site_type_symbol
_atom_site_label
_atom_site_fract_x
_atom_site_fract_y
_atom_site_fract_z
Si Si1 0.222119 0.317971 0.552278
Si Si2 0.907521 0.351912 0.022065
Si Si3 0.655287 0.534920 0.317565
Si Si4 0.094451 0.081588 0.388324
O O1 0.179080 0.250000 0.520297
O O2 0.250000 0.319843 0.750000
O O3 0.315990 0.318454 0.466917
O O4 0.164933 0.376767 0.489247
O O5 0.911639 0.385475 0.203898
O O6 0.000000 0.320153 0.995255
O O7 0.896314 0.403379 0.871173
O O8 0.663062 0.500000 0.500000
O O9 0.750000 0.547637 0.250000
O O10 0.616109 0.488947 0.175453
O O11 0.000000 0.084717 0.469005
#
# Coordination Sequence:
#
# PCOD9536712 Si02
#       4
#    16  16  16  16
#     4  11  25  44  64  89 128 177 226 279 337 399
#     4  10  21  38  63  95 129 167 214 270 332 397
#     4  10  19  35  61  94 136 177 214 263 326 394
#     4  10  21  39  65  96 128 167 216 270 331 398
#
# _framework density 24.528168999999998
#
# number of rings (size 3 to 8) (size 9 to 14) (size 15 to 20)
#    0.000    1.750    0.000    5.250    0.000    7.000 
#    0.000    5.000    0.000    6.000    0.000    0.000 
#    0.000    0.000    0.000    0.000    0.000    0.000 
#
# Total GULP energy -178695.110521 kJ/mol
# GULP energy per Si atom -5584.222204 kJ/mol
# Density = 2.447234 g / cm^3
# Si number density = 24.528169 Si / 1000 Ang^3
#
#
#
# Elastic Constant Matrix: (Units=GPa)
#
#
# Indices 1 2 3 4 5 6 
#
# 1 175.6946 58.7861 36.4595 0.0000 0.0000 0.0000
# 2 58.7861 146.7626 30.3476 0.0000 0.0000 0.0000
# 3 36.4595 30.3476 127.6815 0.0000 0.0000 0.0000
# 4 0.0000 0.0000 0.0000 195.0193 0.0000 0.0000
# 5 0.0000 0.0000 0.0000 0.0000 31.4683 0.0000
# 6 0.0000 0.0000 0.0000 0.0000 0.0000 -16.3449
#
#
#
# Elastic Compliance Matrix: (Units=1/GPa)
#
#
# Indices 1 2 3 4 5 6 
#
# 1 0.006790 -0.002439 -0.001359 0.000000 0.000000 0.000000
# 2 -0.002439 0.008042 -0.001215 0.000000 0.000000 0.000000
# 3 -0.001359 -0.001215 0.008509 0.000000 0.000000 0.000000
# 4 0.000000 0.000000 0.000000 0.005128 0.000000 0.000000
# 5 0.000000 0.000000 0.000000 0.000000 0.031778 0.000000
# 6 0.000000 0.000000 0.000000 0.000000 0.000000 -0.061181
#
#
# Mechanical properties :
#
#
# Convention : Reuss Voigt Hill
#
# Bulk Modulus (GPa) = 75.10486 77.92501 76.51493
# Shear Modulus (GPa) = 369.58339 63.66490 216.62415
#
# Velocity S-wave (km/s) = 12.28838 5.10021 9.40788
# Velocity P-wave (km/s) = 15.23238 8.15607 12.21775
#
# Compressibility (1/GPa) = 0.01331472
#
# Stress axis : x y z
#
# Youngs Moduli (GPa) = 147.28252 124.35117 117.52397
#
# Poissons Ratio (x) = 0.30324 0.15974
# Poissons Ratio (y) = 0.35916 0.14280
# Poissons Ratio (z) = 0.20019 0.15109
#
# Static dielectric constant tensor:
#      x y z
#    x 1.972340 0.000000 0.000000 
#    y 0.000000 2.047730 0.000000 
#    z 0.000000 0.000000 1.975500 
# 
# From -- ./inp_files/8815.got.cif
#   From: 2010.05.17/outbox.cif.g08.bks.cpg/sg74_5_cif.got.tgz:8815.got - 2010.06.03 17:57:02.
