data_PCOD9536941
_publ_section_title
;
Structure prediction by ZEFSAII (Michael W. Deem and Ramdas Pophale) SiO2 
 PCOD9536941
Probable space group: I M M A
;
_chemical_formula_sum "Si O2"
_cell_formula_units_Z 104
_cell_length_a 17.794275
_cell_length_b 12.293436
_cell_length_c 26.725418
_cell_angle_alpha 90.000000
_cell_angle_beta 90.000000
_cell_angle_gamma 90.000000
_cell_volume 5846.259508
_symmetry_space_group_name_H-M "I M M A"
_symmetry_group_IT_number 74
_symmetry_cell_setting 'orthorhombic'
loop_
_space_group_symop_operation_xyz
x,y,z
-x,1/2-y,z
x,-y,-z
-x,1/2+y,-z
-x,-y,-z
x,1/2+y,-z
-x,y,z
x,1/2-y,z
1/2+x,1/2+y,1/2+z
1/2-x,-y,1/2+z
1/2+x,1/2-y,1/2-z
1/2-x,y,1/2-z
1/2-x,1/2-y,1/2-z
1/2+x,y,1/2-z
1/2-x,1/2+y,1/2+z
1/2+x,-y,1/2+z
loop_
_atom_site_type_symbol
_atom_site_label
_atom_site_fract_x
_atom_site_fract_y
_atom_site_fract_z
Si Si1 0.083289 0.875511 0.285561
Si Si2 0.417013 0.750000 0.483463
Si Si3 0.874044 0.493703 0.188866
Si Si4 0.079778 0.528477 0.076898
Si Si5 0.744095 0.523420 0.555779
Si Si6 0.408451 0.750000 0.664180
Si Si7 0.768133 0.379559 0.650678
Si Si8 0.295691 0.250000 0.429736
O O1 0.089841 0.750000 0.267935
O O2 0.150449 0.892354 0.324474
O O3 0.000000 0.889212 0.307643
O O4 0.092041 0.952861 0.237981
O O5 0.500000 0.750000 0.508958
O O6 0.415942 0.646589 0.447074
O O7 0.343658 0.750000 0.518496
O O8 0.913826 0.528438 0.136789
O O9 0.883005 0.362995 0.190292
O O10 0.791332 0.546671 0.181542
O O11 0.152881 0.470787 0.056221
O O12 0.000000 0.477614 0.062700
O O13 0.770754 0.500000 0.500000
O O14 0.765866 0.430405 0.595063
O O15 0.758506 0.645265 0.573924
O O16 0.500000 0.750000 0.658014
O O17 0.360157 0.750000 0.612885
O O18 0.748530 0.250000 0.651021
#
# Coordination Sequence:
#
# PCOD9536941 Si02
#       8
#    16   8  16  16  16   8  16   8
#     4  10  21  39  64  90 110 137 178 228 283 343
#     4  10  21  30  44  69 103 146 191 236 274 301
#     4  11  22  35  56  81 115 152 189 226 273 326
#     4  10  20  31  44  71 108 148 187 226 265 310
#     4  11  23  34  55  75 108 146 190 232 281 324
#     4  12  23  36  50  76 116 161 199 235 267 314
#     4  10  22  39  60  84 116 144 178 228 284 331
#     4  12  21  36  49  72 103 155 202 235 266 322
#
# _framework density 17.789152999999999
#
# number of rings (size 3 to 8) (size 9 to 14) (size 15 to 20)
#    0.000    1.385    4.615    2.538    6.462    2.154 
#    0.000    2.308    0.000    0.462    0.000    0.000 
#    0.000    0.000    0.000    0.000    0.000    0.000 
#
# Total GULP energy -290014.912687 kJ/mol
# GULP energy per Si atom -5577.209859 kJ/mol
# Density = 1.774866 g / cm^3
# Si number density = 17.789153 Si / 1000 Ang^3
#
#
#
# Elastic Constant Matrix: (Units=GPa)
#
#
# Indices 1 2 3 4 5 6 
#
# 1 80.1896 50.9077 31.4961 0.0000 0.0000 0.0000
# 2 50.9077 135.7431 42.6107 0.0000 0.0000 0.0000
# 3 31.4961 42.6107 63.4589 0.0000 0.0000 0.0000
# 4 0.0000 0.0000 0.0000 28.0487 0.0000 0.0000
# 5 0.0000 0.0000 0.0000 0.0000 1.4437 0.0000
# 6 0.0000 0.0000 0.0000 0.0000 0.0000 -16.5004
#
#
#
# Elastic Compliance Matrix: (Units=1/GPa)
#
#
# Indices 1 2 3 4 5 6 
#
# 1 0.017765 -0.004935 -0.005504 0.000000 0.000000 0.000000
# 2 -0.004935 0.010705 -0.004739 0.000000 0.000000 0.000000
# 3 -0.005504 -0.004739 0.021672 0.000000 0.000000 0.000000
# 4 0.000000 0.000000 0.000000 0.035652 0.000000 0.000000
# 5 0.000000 0.000000 0.000000 0.000000 0.692686 0.000000
# 6 0.000000 0.000000 0.000000 0.000000 0.000000 -0.060604
#
#
# Mechanical properties :
#
#
# Convention : Reuss Voigt Hill
#
# Bulk Modulus (GPa) = 50.53744 58.82451 54.68097
# Shear Modulus (GPa) = 6.62404 12.89018 9.75711
#
# Velocity S-wave (km/s) = 1.93177 2.69478 2.34452
# Velocity P-wave (km/s) = 5.78329 6.54384 6.17528
#
# Compressibility (1/GPa) = 0.01978731
#
# Stress axis : x y z
#
# Youngs Moduli (GPa) = 56.29082 93.41328 46.14282
#
# Poissons Ratio (x) = 0.46097 0.25395
# Poissons Ratio (y) = 0.27778 0.21867
# Poissons Ratio (z) = 0.30980 0.44268
#
# Static dielectric constant tensor:
#      x y z
#    x 1.624460 0.000000 0.000000 
#    y 0.000000 1.699440 0.000000 
#    z 0.000000 0.000000 1.599000 
# 
# From -- ./inp_files/67800.got.cif
#   From: 2010.05.17/outbox.cif.g08.bks.cpg/sg74_34_cif.got.tgz:67800.got - 2010.06.03 17:57:02.
