data_PCOD9536145
_publ_section_title
;
Structure prediction by ZEFSAII (Michael W. Deem and Ramdas Pophale) SiO2 
 PCOD9536145
Probable space group: I M M A
;
_chemical_formula_sum "Si O2"
_cell_formula_units_Z 88
_cell_length_a 15.073493
_cell_length_b 11.281508
_cell_length_c 30.498122
_cell_angle_alpha 90.000000
_cell_angle_beta 90.000000
_cell_angle_gamma 90.000000
_cell_volume 5186.258465
_symmetry_space_group_name_H-M "I M M A"
_symmetry_group_IT_number 74
_symmetry_cell_setting 'orthorhombic'
loop_
_space_group_symop_operation_xyz
x,y,z
-x,1/2-y,z
x,-y,-z
-x,1/2+y,-z
-x,-y,-z
x,1/2+y,-z
-x,y,z
x,1/2-y,z
1/2+x,1/2+y,1/2+z
1/2-x,-y,1/2+z
1/2+x,1/2-y,1/2-z
1/2-x,y,1/2-z
1/2-x,1/2-y,1/2-z
1/2+x,y,1/2-z
1/2-x,1/2+y,1/2+z
1/2+x,-y,1/2+z
loop_
_atom_site_type_symbol
_atom_site_label
_atom_site_fract_x
_atom_site_fract_y
_atom_site_fract_z
Si Si1 0.246241 0.608015 0.365201
Si Si2 0.500000 0.385967 0.967339
Si Si3 0.106760 0.512451 0.297066
Si Si4 0.399324 0.892342 0.298699
Si Si5 0.392848 0.250000 0.184434
Si Si6 0.606659 0.250000 0.082957
Si Si7 0.176767 0.499151 0.550952
O O1 0.248665 0.750000 0.370878
O O2 0.159573 0.572114 0.336864
O O3 0.329401 0.569320 0.335237
O O4 0.244437 0.543182 0.412033
O O5 0.500000 0.250000 0.983829
O O6 0.407546 0.410131 0.943157
O O7 0.500000 0.500000 0.000000
O O8 0.127326 0.571033 0.250415
O O9 0.134050 0.374379 0.294914
O O10 0.000000 0.520553 0.304317
O O11 0.500000 0.935952 0.306311
O O12 0.400916 0.750000 0.299815
O O13 0.500000 0.250000 0.185141
O O14 0.365068 0.250000 0.133693
O O15 0.500000 0.250000 0.082311
O O16 0.642320 0.368880 0.060942
O O17 0.205431 0.500000 0.500000
#
# Coordination Sequence:
#
# PCOD9536145 Si02
#       7
#    16   8  16  16   8   8  16
#     4  11  22  35  52  79 108 136 174 222 267 315
#     4  10  22  34  50  76 106 146 186 218 264 318
#     4  10  19  33  52  79 109 142 172 208 254 317
#     4   9  19  37  59  78 100 133 174 220 273 322
#     4   9  18  32  48  72 106 146 182 201 241 306
#     4  11  20  36  51  71 105 157 187 215 249 314
#     4  11  24  34  53  74 109 142 185 222 266 310
#
# _framework density 16.967915999999999
#
# number of rings (size 3 to 8) (size 9 to 14) (size 15 to 20)
#    0.000    1.818    2.727    1.636    7.636    2.545 
#    0.000    2.727    0.000    0.545    0.000    0.000 
#    0.000    0.000    0.000    0.000    0.000    0.000 
#
# Total GULP energy -245383.474505 kJ/mol
# GULP energy per Si atom -5576.897148 kJ/mol
# Density = 1.692930 g / cm^3
# Si number density = 16.967916 Si / 1000 Ang^3
#
#
#
# Elastic Constant Matrix: (Units=GPa)
#
#
# Indices 1 2 3 4 5 6 
#
# 1 43.8444 16.5651 47.7239 0.0000 0.0000 0.0000
# 2 16.5651 76.2189 23.9011 0.0000 0.0000 0.0000
# 3 47.7239 23.9011 119.8310 0.0000 0.0000 0.0000
# 4 0.0000 0.0000 0.0000 26.3340 0.0000 0.0000
# 5 0.0000 0.0000 0.0000 0.0000 23.7889 0.0000
# 6 0.0000 0.0000 0.0000 0.0000 0.0000 11.7701
#
#
#
# Elastic Compliance Matrix: (Units=1/GPa)
#
#
# Indices 1 2 3 4 5 6 
#
# 1 0.041420 -0.004085 -0.015681 0.000000 0.000000 0.000000
# 2 -0.004085 0.014398 -0.001245 0.000000 0.000000 0.000000
# 3 -0.015681 -0.001245 0.014839 0.000000 0.000000 0.000000
# 4 0.000000 0.000000 0.000000 0.037974 0.000000 0.000000
# 5 0.000000 0.000000 0.000000 0.000000 0.042036 0.000000
# 6 0.000000 0.000000 0.000000 0.000000 0.000000 0.084961
#
#
# Mechanical properties :
#
#
# Convention : Reuss Voigt Hill
#
# Bulk Modulus (GPa) = 34.92238 46.25272 40.58755
# Shear Modulus (GPa) = 17.40978 22.49220 19.95099
#
# Velocity S-wave (km/s) = 3.20666 3.64479 3.43272
# Velocity P-wave (km/s) = 5.85972 6.71050 6.29949
#
# Compressibility (1/GPa) = 0.02863493
#
# Stress axis : x y z
#
# Youngs Moduli (GPa) = 24.14304 69.45270 67.39184
#
# Poissons Ratio (x) = 0.28369 1.05678
# Poissons Ratio (y) = 0.09862 0.08391
# Poissons Ratio (z) = 0.37859 0.08647
#
# Static dielectric constant tensor:
#      x y z
#    x 1.603750 0.000000 0.000000 
#    y 0.000000 1.586660 0.000000 
#    z 0.000000 0.000000 1.587190 
# 
# From -- ./inp_files/72406.got.cif
#   From: 2010.05.17/outbox.cif.g08.bks.cpg/sg74_37_cif.got.tgz:72406.got - 2010.06.03 17:57:02.
