data_PCOD9536797
_publ_section_title
;
Structure prediction by ZEFSAII (Michael W. Deem and Ramdas Pophale) SiO2 
 PCOD9536797
Probable space group: I M M A
;
_chemical_formula_sum "Si O2"
_cell_formula_units_Z 104
_cell_length_a 20.928194
_cell_length_b 14.679487
_cell_length_c 18.303813
_cell_angle_alpha 90.000000
_cell_angle_beta 90.000000
_cell_angle_gamma 90.000000
_cell_volume 5623.208689
_symmetry_space_group_name_H-M "I M M A"
_symmetry_group_IT_number 74
_symmetry_cell_setting 'orthorhombic'
loop_
_space_group_symop_operation_xyz
x,y,z
-x,1/2-y,z
x,-y,-z
-x,1/2+y,-z
-x,-y,-z
x,1/2+y,-z
-x,y,z
x,1/2-y,z
1/2+x,1/2+y,1/2+z
1/2-x,-y,1/2+z
1/2+x,1/2-y,1/2-z
1/2-x,y,1/2-z
1/2-x,1/2-y,1/2-z
1/2+x,y,1/2-z
1/2-x,1/2+y,1/2+z
1/2+x,-y,1/2+z
loop_
_atom_site_type_symbol
_atom_site_label
_atom_site_fract_x
_atom_site_fract_y
_atom_site_fract_z
Si Si1 0.500000 0.607941 0.989096
Si Si2 0.109413 0.025883 0.726463
Si Si3 0.390658 0.648124 0.874233
Si Si4 0.500000 0.852244 0.157454
Si Si5 0.573240 0.980111 0.395173
Si Si6 0.742566 0.853395 0.619251
Si Si7 0.250000 0.007836 0.250000
Si Si8 0.126305 0.642655 0.983983
O O1 0.438808 0.634860 0.941013
O O2 0.500000 0.500000 0.000000
O O3 0.500000 0.648334 0.069742
O O4 0.099333 0.929103 0.686241
O O5 0.185838 0.044731 0.726218
O O6 0.063234 0.095868 0.685230
O O7 0.087779 0.020840 0.810032
O O8 0.399481 0.750000 0.843977
O O9 0.317229 0.639699 0.899517
O O10 0.500000 0.750000 0.186332
O O11 0.500000 0.953393 0.408215
O O12 0.617223 0.908554 0.439192
O O13 0.584613 0.080442 0.428918
O O14 0.730640 0.750000 0.646863
O O15 0.729707 0.926116 0.682934
O O16 0.697198 0.866278 0.549821
O O17 0.110061 0.750000 0.986845
#
# Coordination Sequence:
#
# PCOD9536797 Si02
#       8
#     8  16  16   8  16  16   8  16
#     4  12  22  43  65  92 127 159 201 255 309 377
#     4  11  22  41  63  94 124 165 209 251 315 368
#     4  10  21  38  65  99 129 159 196 252 316 378
#     4  12  26  45  66  88 124 169 213 255 306 372
#     4  11  23  39  59  86 125 157 209 268 296 364
#     4   9  18  34  59  93 127 160 197 241 311 380
#     4  10  19  36  63  92 126 158 196 260 310 370
#     4  10  21  39  60  86 121 165 207 251 312 366
#
# _framework density 18.494778
#
# number of rings (size 3 to 8) (size 9 to 14) (size 15 to 20)
#    0.000    1.538    3.846    1.846    0.000    3.077 
#    5.538    0.385    0.000    0.000    0.000    0.000 
#    0.000    0.000    0.000    0.000    0.000    0.000 
#
# Total GULP energy -290193.252218 kJ/mol
# GULP energy per Si atom -5580.639466 kJ/mol
# Density = 1.845268 g / cm^3
# Si number density = 18.494778 Si / 1000 Ang^3
#
#
#
# Elastic Constant Matrix: (Units=GPa)
#
#
# Indices 1 2 3 4 5 6 
#
# 1 95.3137 49.1228 41.9655 0.0000 0.0000 0.0000
# 2 49.1228 119.7195 41.6446 0.0000 0.0000 0.0000
# 3 41.9655 41.6446 124.5921 0.0000 0.0000 0.0000
# 4 0.0000 0.0000 0.0000 -9.7658 0.0000 0.0000
# 5 0.0000 0.0000 0.0000 0.0000 29.9288 0.0000
# 6 0.0000 0.0000 0.0000 0.0000 0.0000 19.3638
#
#
#
# Elastic Compliance Matrix: (Units=1/GPa)
#
#
# Indices 1 2 3 4 5 6 
#
# 1 0.014381 -0.004770 -0.003249 0.000000 0.000000 0.000000
# 2 -0.004770 0.011034 -0.002081 0.000000 0.000000 0.000000
# 3 -0.003249 -0.002081 0.009816 0.000000 0.000000 0.000000
# 4 0.000000 0.000000 0.000000 -0.102398 0.000000 0.000000
# 5 0.000000 0.000000 0.000000 0.000000 0.033413 0.000000
# 6 0.000000 0.000000 0.000000 0.000000 0.000000 0.051643
#
#
# Mechanical properties :
#
#
# Convention : Reuss Voigt Hill
#
# Bulk Modulus (GPa) = 66.53701 67.23235 66.88468
# Shear Modulus (GPa) = 116.00720 21.69818 68.85269
#
# Velocity S-wave (km/s) = 7.92846 3.42892 6.10811
# Velocity P-wave (km/s) = 10.94843 7.21857 9.27297
#
# Compressibility (1/GPa) = 0.01502923
#
# Stress axis : x y z
#
# Youngs Moduli (GPa) = 69.53669 90.62692 101.87105
#
# Poissons Ratio (x) = 0.43233 0.33101
# Poissons Ratio (y) = 0.33172 0.21203
# Poissons Ratio (z) = 0.22595 0.18863
#
# Static dielectric constant tensor:
#      x y z
#    x 1.656900 0.000000 0.000000 
#    y 0.000000 1.640550 0.000000 
#    z 0.000000 0.000000 1.615560 
# 
# From -- ./inp_files/45349.got.cif
#   From: 2010.05.17/outbox.cif.g08.bks.cpg/sg74_23_cif.got.tgz:45349.got - 2010.06.03 17:57:02.
