data_PCOD9536707
_publ_section_title
;
Structure prediction by ZEFSAII (Michael W. Deem and Ramdas Pophale) SiO2 
 PCOD9536707
Probable space group: I M M A
;
_chemical_formula_sum "Si O2"
_cell_formula_units_Z 84
_cell_length_a 18.094897
_cell_length_b 15.065021
_cell_length_c 13.385923
_cell_angle_alpha 90.000000
_cell_angle_beta 90.000000
_cell_angle_gamma 90.000000
_cell_volume 3649.002654
_symmetry_space_group_name_H-M "I M M A"
_symmetry_group_IT_number 74
_symmetry_cell_setting 'orthorhombic'
loop_
_space_group_symop_operation_xyz
x,y,z
-x,1/2-y,z
x,-y,-z
-x,1/2+y,-z
-x,-y,-z
x,1/2+y,-z
-x,y,z
x,1/2-y,z
1/2+x,1/2+y,1/2+z
1/2-x,-y,1/2+z
1/2+x,1/2-y,1/2-z
1/2-x,y,1/2-z
1/2-x,1/2-y,1/2-z
1/2+x,y,1/2-z
1/2-x,1/2+y,1/2+z
1/2+x,-y,1/2+z
loop_
_atom_site_type_symbol
_atom_site_label
_atom_site_fract_x
_atom_site_fract_y
_atom_site_fract_z
Si Si1 0.110487 0.395354 0.593485
Si Si2 0.500000 0.750000 0.015418
Si Si3 0.277017 0.854520 0.934277
Si Si4 0.366876 0.026416 0.394261
Si Si5 0.081125 0.586486 0.682050
Si Si6 0.169201 0.843052 0.202586
O O1 0.062841 0.328737 0.527565
O O2 0.188450 0.394394 0.536402
O O3 0.083474 0.494753 0.617286
O O4 0.115501 0.351434 0.702387
O O5 0.262719 0.750000 0.946011
O O6 0.203090 0.908303 0.908728
O O7 0.342629 0.866722 0.851766
O O8 0.412314 0.063479 0.299755
O O9 0.403861 0.000000 0.500000
O O10 0.338559 0.931074 0.358575
O O11 0.000000 0.630543 0.667333
O O12 0.155572 0.750000 0.148403
O O13 0.250000 0.841216 0.250000
#
# Coordination Sequence:
#
# PCOD9536707 Si02
#       6
#    16   4  16  16  16  16
#     4  11  22  39  64  99 134 156 192 250 321 392
#     4  12  20  36  64 100 134 162 180 240 324 416
#     4  12  25  41  65  93 127 168 209 254 309 370
#     4  11  24  43  62  88 124 164 215 264 304 355
#     4  11  25  41  64  92 128 167 206 254 311 370
#     4  10  19  35  61  92 121 153 197 255 313 366
#
# _framework density 23.019988999999999
#
# number of rings (size 3 to 8) (size 9 to 14) (size 15 to 20)
#    0.000    0.952    2.857    5.714    1.333    5.333 
#    0.000    0.000    0.000    0.000    0.000    2.667 
#    0.000    0.000    0.000    0.000    0.000    0.000 
#
# Total GULP energy -234231.151162 kJ/mol
# GULP energy per Si atom -5576.932171 kJ/mol
# Density = 2.296759 g / cm^3
# Si number density = 23.019989 Si / 1000 Ang^3
#
#
#
# Elastic Constant Matrix: (Units=GPa)
#
#
# Indices 1 2 3 4 5 6 
#
# 1 79.4532 11.8599 25.9253 0.0000 0.0000 0.0000
# 2 11.8599 102.5263 1.6529 0.0000 0.0000 0.0000
# 3 25.9253 1.6529 127.0692 0.0000 0.0000 0.0000
# 4 0.0000 0.0000 0.0000 -0.8411 0.0000 0.0000
# 5 0.0000 0.0000 0.0000 0.0000 21.1703 0.0000
# 6 0.0000 0.0000 0.0000 0.0000 0.0000 39.5771
#
#
#
# Elastic Compliance Matrix: (Units=1/GPa)
#
#
# Indices 1 2 3 4 5 6 
#
# 1 0.013723 -0.001543 -0.002780 0.000000 0.000000 0.000000
# 2 -0.001543 0.009929 0.000186 0.000000 0.000000 0.000000
# 3 -0.002780 0.000186 0.008434 0.000000 0.000000 0.000000
# 4 0.000000 0.000000 0.000000 -1.188952 0.000000 0.000000
# 5 0.000000 0.000000 0.000000 0.000000 0.047236 0.000000
# 6 0.000000 0.000000 0.000000 0.000000 0.000000 0.025267
#
#
# Mechanical properties :
#
#
# Convention : Reuss Voigt Hill
#
# Bulk Modulus (GPa) = 41.99380 43.10279 42.54830
# Shear Modulus (GPa) = -4.68099 29.95530 12.63716
#
# Velocity S-wave (km/s) = -1.42754 3.61123 2.34554
# Velocity P-wave (km/s) = 3.94522 6.01271 5.08515
#
# Compressibility (1/GPa) = 0.02381304
#
# Stress axis : x y z
#
# Youngs Moduli (GPa) = 72.86848 100.71457 118.56109
#
# Poissons Ratio (x) = 0.15537 0.32958
# Poissons Ratio (y) = 0.11241 -0.02200
# Poissons Ratio (z) = 0.20256 -0.01869
#
# Static dielectric constant tensor:
#      x y z
#    x 1.935330 0.000000 0.000000 
#    y 0.000000 1.852440 0.000000 
#    z 0.000000 0.000000 1.974640 
# 
# From -- ./inp_files/35154.got.cif
#   From: 2010.05.17/outbox.cif.g08.bks.cpg/sg74_18_cif.got.tgz:35154.got - 2010.06.03 17:57:02.
