data_PCOD9536671
_publ_section_title
;
Structure prediction by ZEFSAII (Michael W. Deem and Ramdas Pophale) SiO2 
 PCOD9536671
Probable space group: I M M A
;
_chemical_formula_sum "Si O2"
_cell_formula_units_Z 88
_cell_length_a 18.651246
_cell_length_b 12.790464
_cell_length_c 20.239652
_cell_angle_alpha 90.000000
_cell_angle_beta 90.000000
_cell_angle_gamma 90.000000
_cell_volume 4828.332734
_symmetry_space_group_name_H-M "I M M A"
_symmetry_group_IT_number 74
_symmetry_cell_setting 'orthorhombic'
loop_
_space_group_symop_operation_xyz
x,y,z
-x,1/2-y,z
x,-y,-z
-x,1/2+y,-z
-x,-y,-z
x,1/2+y,-z
-x,y,z
x,1/2-y,z
1/2+x,1/2+y,1/2+z
1/2-x,-y,1/2+z
1/2+x,1/2-y,1/2-z
1/2-x,y,1/2-z
1/2-x,1/2-y,1/2-z
1/2+x,y,1/2-z
1/2-x,1/2+y,1/2+z
1/2+x,-y,1/2+z
loop_
_atom_site_type_symbol
_atom_site_label
_atom_site_fract_x
_atom_site_fract_y
_atom_site_fract_z
Si Si1 0.920590 0.626542 0.603125
Si Si2 0.134364 0.631824 0.865863
Si Si3 0.917348 0.513640 0.739489
Si Si4 0.699515 0.370801 0.813846
Si Si5 0.229802 0.533287 0.572636
Si Si6 0.000000 0.879630 0.964506
O O1 0.919444 0.750000 0.593429
O O2 0.913698 0.599338 0.680964
O O3 0.850840 0.578124 0.569263
O O4 0.000000 0.586797 0.582455
O O5 0.128944 0.750000 0.840510
O O6 0.121268 0.554571 0.804867
O O7 0.211782 0.612389 0.897885
O O8 0.071449 0.617465 0.919716
O O9 0.877220 0.414556 0.708907
O O10 0.000000 0.493348 0.754823
O O11 0.697123 0.250000 0.831298
O O12 0.750000 0.384921 0.750000
O O13 0.726407 0.438012 0.875606
O O14 0.253151 0.500000 0.500000
O O15 0.000000 0.750000 0.990905
O O16 0.000000 0.000000 0.000000
#
# Coordination Sequence:
#
# PCOD9536671 Si02
#       6
#    16  16  16  16  16   8
#     4   9  19  35  57  85 114 142 180 235 301 360
#     4  11  21  35  59  87 118 156 199 248 310 370
#     4  10  19  35  59  87 117 146 190 243 297 358
#     4  10  21  39  59  81 114 160 203 246 300 360
#     4  11  23  38  58  85 119 155 201 251 299 359
#     4  10  22  40  58  82 122 168 213 262 313 378
#
# _framework density 18.225753999999998
#
# number of rings (size 3 to 8) (size 9 to 14) (size 15 to 20)
#    0.000    1.818    2.727    1.636    0.000    2.909 
#    0.000    4.545    0.000    0.000    0.000    0.000 
#    0.000    0.000    0.000    0.000    0.000    0.000 
#
# Total GULP energy -245072.547612 kJ/mol
# GULP energy per Si atom -5569.830628 kJ/mol
# Density = 1.818427 g / cm^3
# Si number density = 18.225754 Si / 1000 Ang^3
#
#
#
# Elastic Constant Matrix: (Units=GPa)
#
#
# Indices 1 2 3 4 5 6 
#
# 1 76.5771 17.8689 6.8519 0.0000 0.0000 0.0000
# 2 17.8689 86.6733 18.1454 0.0000 0.0000 0.0000
# 3 6.8519 18.1454 34.2087 0.0000 0.0000 0.0000
# 4 0.0000 0.0000 0.0000 9.8170 0.0000 0.0000
# 5 0.0000 0.0000 0.0000 0.0000 21.0061 0.0000
# 6 0.0000 0.0000 0.0000 0.0000 0.0000 12.1691
#
#
#
# Elastic Compliance Matrix: (Units=1/GPa)
#
#
# Indices 1 2 3 4 5 6 
#
# 1 0.013779 -0.002546 -0.001410 0.000000 0.000000 0.000000
# 2 -0.002546 0.013449 -0.006624 0.000000 0.000000 0.000000
# 3 -0.001410 -0.006624 0.033028 0.000000 0.000000 0.000000
# 4 0.000000 0.000000 0.000000 0.101864 0.000000 0.000000
# 5 0.000000 0.000000 0.000000 0.000000 0.047605 0.000000
# 6 0.000000 0.000000 0.000000 0.000000 0.000000 0.082175
#
#
# Mechanical properties :
#
#
# Convention : Reuss Voigt Hill
#
# Bulk Modulus (GPa) = 25.57683 31.46574 28.52129
# Shear Modulus (GPa) = 15.33310 18.90462 17.11886
#
# Velocity S-wave (km/s) = 2.90364 3.22413 3.06807
# Velocity P-wave (km/s) = 5.03044 5.58229 5.31353
#
# Compressibility (1/GPa) = 0.03909788
#
# Stress axis : x y z
#
# Youngs Moduli (GPa) = 72.57487 74.35416 30.27712
#
# Poissons Ratio (x) = 0.18928 0.04268
# Poissons Ratio (y) = 0.18475 0.20056
# Poissons Ratio (z) = 0.10230 0.49252
#
# Static dielectric constant tensor:
#      x y z
#    x 1.637040 0.000000 0.000000 
#    y 0.000000 1.641000 0.000000 
#    z 0.000000 0.000000 1.595630 
# 
# From -- ./inp_files/41309.got.cif
#   From: 2010.05.17/outbox.cif.g08.bks.cpg/sg74_21_cif.got.tgz:41309.got - 2010.06.03 17:57:02.
