data_PCOD9536388
_publ_section_title
;
Structure prediction by ZEFSAII (Michael W. Deem and Ramdas Pophale) SiO2 
 PCOD9536388
Probable space group: I M M A
;
_chemical_formula_sum "Si O2"
_cell_formula_units_Z 104
_cell_length_a 15.910570
_cell_length_b 26.445373
_cell_length_c 13.279887
_cell_angle_alpha 90.000000
_cell_angle_beta 90.000000
_cell_angle_gamma 90.000000
_cell_volume 5587.657980
_symmetry_space_group_name_H-M "I M M A"
_symmetry_group_IT_number 74
_symmetry_cell_setting 'orthorhombic'
loop_
_space_group_symop_operation_xyz
x,y,z
-x,1/2-y,z
x,-y,-z
-x,1/2+y,-z
-x,-y,-z
x,1/2+y,-z
-x,y,z
x,1/2-y,z
1/2+x,1/2+y,1/2+z
1/2-x,-y,1/2+z
1/2+x,1/2-y,1/2-z
1/2-x,y,1/2-z
1/2-x,1/2-y,1/2-z
1/2+x,y,1/2-z
1/2-x,1/2+y,1/2+z
1/2+x,-y,1/2+z
loop_
_atom_site_type_symbol
_atom_site_label
_atom_site_fract_x
_atom_site_fract_y
_atom_site_fract_z
Si Si1 0.399087 0.588529 0.380397
Si Si2 0.595869 0.804818 0.393659
Si Si3 0.299427 0.564263 0.847134
Si Si4 0.166332 0.691649 0.316425
Si Si5 0.599317 0.534924 0.183690
Si Si6 0.816080 0.000000 0.000000
Si Si7 0.399074 0.114327 0.983434
O O1 0.500000 0.593833 0.377424
O O2 0.364663 0.641547 0.424218
O O3 0.368574 0.574222 0.268189
O O4 0.372664 0.540833 0.444123
O O5 0.500000 0.803266 0.430032
O O6 0.634940 0.750000 0.418279
O O7 0.596426 0.809283 0.271910
O O8 0.250000 0.584730 0.750000
O O9 0.360306 0.519646 0.807647
O O10 0.238444 0.532797 0.921709
O O11 0.351053 0.605321 0.911801
O O12 0.174501 0.750000 0.349774
O O13 0.250000 0.679392 0.250000
O O14 0.141530 0.656191 0.409303
O O15 0.500000 0.529974 0.198467
O O16 0.612571 0.561176 0.076339
O O17 0.500000 0.122770 0.993784
#
# Coordination Sequence:
#
# PCOD9536388 Si02
#       7
#    16  16  16  16  16   8  16
#     4  10  20  34  52  79 115 151 189 231 283 355
#     4   9  17  31  52  78 112 149 180 220 279 346
#     4  12  24  37  52  79 108 147 200 253 297 348
#     4  10  21  34  55  91 126 149 180 233 293 353
#     4  10  19  34  53  77 111 145 184 235 290 349
#     4  12  23  34  55  78 108 158 196 240 295 366
#     4  11  22  37  59  84 115 158 198 238 293 364
#
# _framework density 18.612448000000001
#
# number of rings (size 3 to 8) (size 9 to 14) (size 15 to 20)
#    0.000    1.538    4.615    1.154    2.154    2.769 
#    0.000    0.000    0.000    0.462    0.000    0.000 
#    0.000    2.462    0.000    0.000    0.000    0.000 
#
# Total GULP energy -289857.714041 kJ/mol
# GULP energy per Si atom -5574.186808 kJ/mol
# Density = 1.857009 g / cm^3
# Si number density = 18.612448 Si / 1000 Ang^3
#
#
#
# Elastic Constant Matrix: (Units=GPa)
#
#
# Indices 1 2 3 4 5 6 
#
# 1 56.6582 34.1477 34.4205 0.0000 0.0000 0.0000
# 2 34.1477 98.9242 34.8140 0.0000 0.0000 0.0000
# 3 34.4205 34.8140 78.5988 0.0000 0.0000 0.0000
# 4 0.0000 0.0000 0.0000 29.3352 0.0000 0.0000
# 5 0.0000 0.0000 0.0000 0.0000 23.5651 0.0000
# 6 0.0000 0.0000 0.0000 0.0000 0.0000 13.0611
#
#
#
# Elastic Compliance Matrix: (Units=1/GPa)
#
#
# Indices 1 2 3 4 5 6 
#
# 1 0.026805 -0.006068 -0.009051 0.000000 0.000000 0.000000
# 2 -0.006068 0.013349 -0.003256 0.000000 0.000000 0.000000
# 3 -0.009051 -0.003256 0.018129 0.000000 0.000000 0.000000
# 4 0.000000 0.000000 0.000000 0.034089 0.000000 0.000000
# 5 0.000000 0.000000 0.000000 0.000000 0.042436 0.000000
# 6 0.000000 0.000000 0.000000 0.000000 0.000000 0.076563
#
#
# Mechanical properties :
#
#
# Convention : Reuss Voigt Hill
#
# Bulk Modulus (GPa) = 46.43784 48.99396 47.71590
# Shear Modulus (GPa) = 19.58501 21.91221 20.74861
#
# Velocity S-wave (km/s) = 3.24736 3.43489 3.34244
# Velocity P-wave (km/s) = 6.25016 6.48935 6.37088
#
# Compressibility (1/GPa) = 0.02153416
#
# Stress axis : x y z
#
# Youngs Moduli (GPa) = 37.30600 74.91245 55.16142
#
# Poissons Ratio (x) = 0.45454 0.49928
# Poissons Ratio (y) = 0.22636 0.17958
# Poissons Ratio (z) = 0.33767 0.24388
#
# Static dielectric constant tensor:
#      x y z
#    x 1.714700 0.000000 0.000000 
#    y 0.000000 1.688650 0.000000 
#    z 0.000000 0.000000 1.657800 
# 
# From -- ./inp_files/22779.got.cif
#   From: 2010.05.17/outbox.cif.g08.bks.cpg/sg74_12_cif.got.tgz:22779.got - 2010.06.03 17:57:02.
