data_PCOD9536677
_publ_section_title
;
Structure prediction by ZEFSAII (Michael W. Deem and Ramdas Pophale) SiO2 
 PCOD9536677
Probable space group: I M M A
;
_chemical_formula_sum "Si O2"
_cell_formula_units_Z 88
_cell_length_a 20.776687
_cell_length_b 22.456781
_cell_length_c 9.789714
_cell_angle_alpha 90.000000
_cell_angle_beta 90.000000
_cell_angle_gamma 90.000000
_cell_volume 4567.660380
_symmetry_space_group_name_H-M "I M M A"
_symmetry_group_IT_number 74
_symmetry_cell_setting 'orthorhombic'
loop_
_space_group_symop_operation_xyz
x,y,z
-x,1/2-y,z
x,-y,-z
-x,1/2+y,-z
-x,-y,-z
x,1/2+y,-z
-x,y,z
x,1/2-y,z
1/2+x,1/2+y,1/2+z
1/2-x,-y,1/2+z
1/2+x,1/2-y,1/2-z
1/2-x,y,1/2-z
1/2-x,1/2-y,1/2-z
1/2+x,y,1/2-z
1/2-x,1/2+y,1/2+z
1/2+x,-y,1/2+z
loop_
_atom_site_type_symbol
_atom_site_label
_atom_site_fract_x
_atom_site_fract_y
_atom_site_fract_z
Si Si1 0.575812 0.373330 0.040815
Si Si2 0.377178 0.149975 0.537438
Si Si3 0.576973 0.439124 0.329563
Si Si4 0.643578 0.250000 0.079703
Si Si5 0.569957 0.250000 0.354038
Si Si6 0.272200 0.250000 0.590886
Si Si7 0.922939 0.068911 0.729883
O O1 0.500000 0.363177 0.019483
O O2 0.582687 0.401220 0.190580
O O3 0.611046 0.310682 0.028460
O O4 0.598542 0.419348 0.924934
O O5 0.377905 0.091764 0.441363
O O6 0.424058 0.193458 0.452320
O O7 0.315123 0.191000 0.562765
O O8 0.402476 0.125295 0.680419
O O9 0.500000 0.438663 0.370757
O O10 0.597369 0.506353 0.295136
O O11 0.627055 0.250000 0.242556
O O12 0.714925 0.250000 0.019314
O O13 0.500000 0.250000 0.283163
O O14 0.250000 0.250000 0.750000
O O15 0.000000 0.065060 0.728989
#
# Coordination Sequence:
#
# PCOD9536677 Si02
#       7
#    16  16  16   8   8   8  16
#     4  10  20  35  59  93 127 160 195 250 313 373
#     4  11  22  37  60  86 119 161 204 253 307 358
#     4  10  19  35  59  93 129 158 195 250 314 379
#     4  12  22  39  64  82 117 160 209 251 303 359
#     4  11  21  36  60  95 128 149 188 257 319 370
#     4  11  27  46  62  83 119 168 217 268 301 344
#     4  10  20  34  58  91 127 163 200 245 313 384
#
# _framework density 19.265881
#
# number of rings (size 3 to 8) (size 9 to 14) (size 15 to 20)
#    0.000    1.455    1.818    4.636    0.000    5.818 
#    0.000    1.818    0.000   10.909    0.000    0.000 
#    0.000    0.000    0.000    0.000    0.000    0.000 
#
# Total GULP energy -245486.091715 kJ/mol
# GULP energy per Si atom -5579.229357 kJ/mol
# Density = 1.922203 g / cm^3
# Si number density = 19.265881 Si / 1000 Ang^3
#
#
#
# Elastic Constant Matrix: (Units=GPa)
#
#
# Indices 1 2 3 4 5 6 
#
# 1 34.0438 27.8835 26.8201 0.0000 0.0000 0.0000
# 2 27.8835 106.9633 19.6670 0.0000 0.0000 0.0000
# 3 26.8201 19.6670 84.9726 0.0000 0.0000 0.0000
# 4 0.0000 0.0000 0.0000 16.6287 0.0000 0.0000
# 5 0.0000 0.0000 0.0000 0.0000 23.2582 0.0000
# 6 0.0000 0.0000 0.0000 0.0000 0.0000 -27.5103
#
#
#
# Elastic Compliance Matrix: (Units=1/GPa)
#
#
# Indices 1 2 3 4 5 6 
#
# 1 0.047640 -0.010083 -0.012703 0.000000 0.000000 0.000000
# 2 -0.010083 0.011899 0.000429 0.000000 0.000000 0.000000
# 3 -0.012703 0.000429 0.015679 0.000000 0.000000 0.000000
# 4 0.000000 0.000000 0.000000 0.060137 0.000000 0.000000
# 5 0.000000 0.000000 0.000000 0.000000 0.042996 0.000000
# 6 0.000000 0.000000 0.000000 0.000000 0.000000 -0.036350
#
#
# Mechanical properties :
#
#
# Convention : Reuss Voigt Hill
#
# Bulk Modulus (GPa) = 32.78434 41.63566 37.21000
# Shear Modulus (GPa) = 25.39577 12.58260 18.98918
#
# Velocity S-wave (km/s) = 3.63460 2.55836 3.14289
# Velocity P-wave (km/s) = 5.88791 5.51225 5.70318
#
# Compressibility (1/GPa) = 0.03050236
#
# Stress axis : x y z
#
# Youngs Moduli (GPa) = 20.99064 84.04256 63.78043
#
# Poissons Ratio (x) = 0.84743 0.81021
# Poissons Ratio (y) = 0.21166 -0.02734
# Poissons Ratio (z) = 0.26665 -0.03603
#
# Static dielectric constant tensor:
#      x y z
#    x 1.650980 0.000000 0.000000 
#    y 0.000000 1.703910 0.000000 
#    z 0.000000 0.000000 1.708220 
# 
# From -- ./inp_files/12516.got.cif
#   From: 2010.05.17/outbox.cif.g08.bks.cpg/sg74_7_cif.got.tgz:12516.got - 2010.06.03 17:57:02.
