data_PCOD9536496
_publ_section_title
;
Structure prediction by ZEFSAII (Michael W. Deem and Ramdas Pophale) SiO2 
 PCOD9536496
Probable space group: I M M A
;
_chemical_formula_sum "Si O2"
_cell_formula_units_Z 48
_cell_length_a 15.001586
_cell_length_b 15.934397
_cell_length_c 8.863937
_cell_angle_alpha 90.000000
_cell_angle_beta 90.000000
_cell_angle_gamma 90.000000
_cell_volume 2118.846376
_symmetry_space_group_name_H-M "I M M A"
_symmetry_group_IT_number 74
_symmetry_cell_setting 'orthorhombic'
loop_
_space_group_symop_operation_xyz
x,y,z
-x,1/2-y,z
x,-y,-z
-x,1/2+y,-z
-x,-y,-z
x,1/2+y,-z
-x,y,z
x,1/2-y,z
1/2+x,1/2+y,1/2+z
1/2-x,-y,1/2+z
1/2+x,1/2-y,1/2-z
1/2-x,y,1/2-z
1/2-x,1/2-y,1/2-z
1/2+x,y,1/2-z
1/2-x,1/2+y,1/2+z
1/2+x,-y,1/2+z
loop_
_atom_site_type_symbol
_atom_site_label
_atom_site_fract_x
_atom_site_fract_y
_atom_site_fract_z
Si Si1 0.107514 0.906769 0.562642
Si Si2 0.608984 0.417642 0.412436
Si Si3 0.400989 0.750000 0.439249
Si Si4 0.666929 0.750000 0.131985
O O1 0.133901 0.908973 0.738235
O O2 0.154388 0.832682 0.469477
O O3 0.000000 0.892083 0.553911
O O4 0.124441 0.000000 0.500000
O O5 0.641502 0.500000 0.500000
O O6 0.500000 0.422074 0.416298
O O7 0.640478 0.335348 0.500570
O O8 0.500000 0.750000 0.507592
O O9 0.408069 0.750000 0.260775
O O10 0.750000 0.750000 0.250000
#
# Coordination Sequence:
#
# PCOD9536496 Si02
#       4
#    16  16   8   8
#     4  10  20  38  66  94 121 161 217 276 328 388
#     4   9  17  31  56  90 118 144 194 265 327 372
#     4  10  19  34  57  80 107 150 203 258 310 373
#     4  12  25  40  56  88 134 176 211 258 331 401
#
# _framework density 22.653838
#
# number of rings (size 3 to 8) (size 9 to 14) (size 15 to 20)
#    0.000    2.000    0.000    4.500    0.000    8.000 
#    0.000    8.333    0.000    0.000    0.000    0.000 
#    0.000    0.000    0.000    0.000    0.000    1.333 
#
# Total GULP energy -134087.942183 kJ/mol
# GULP energy per Si atom -5586.997591 kJ/mol
# Density = 2.260228 g / cm^3
# Si number density = 22.653838 Si / 1000 Ang^3
#
#
#
# Elastic Constant Matrix: (Units=GPa)
#
#
# Indices 1 2 3 4 5 6 
#
# 1 97.7236 41.1267 30.4011 0.0000 0.0000 0.0000
# 2 41.1267 259.8549 151.5741 0.0000 0.0000 0.0000
# 3 30.4011 151.5741 226.8599 0.0000 0.0000 0.0000
# 4 0.0000 0.0000 0.0000 56.3885 0.0000 0.0000
# 5 0.0000 0.0000 0.0000 0.0000 23.4079 0.0000
# 6 0.0000 0.0000 0.0000 0.0000 0.0000 -7.8361
#
#
#
# Elastic Compliance Matrix: (Units=1/GPa)
#
#
# Indices 1 2 3 4 5 6 
#
# 1 0.010999 -0.001444 -0.000509 0.000000 0.000000 0.000000
# 2 -0.001444 0.006495 -0.004146 0.000000 0.000000 0.000000
# 3 -0.000509 -0.004146 0.007247 0.000000 0.000000 0.000000
# 4 0.000000 0.000000 0.000000 0.017734 0.000000 0.000000
# 5 0.000000 0.000000 0.000000 0.000000 0.042721 0.000000
# 6 0.000000 0.000000 0.000000 0.000000 0.000000 -0.127615
#
#
# Mechanical properties :
#
#
# Convention : Reuss Voigt Hill
#
# Bulk Modulus (GPa) = 79.73111 114.51580 97.12345
# Shear Modulus (GPa) = -192.01253 38.48117 -76.76568
#
# Velocity S-wave (km/s) = -9.21647 4.12595 -5.82752
# Velocity P-wave (km/s) = 8.83097 8.56493 1.52119
#
# Compressibility (1/GPa) = 0.01254216
#
# Stress axis : x y z
#
# Youngs Moduli (GPa) = 90.91759 153.95603 137.99560
#
# Poissons Ratio (x) = 0.22226 0.07029
# Poissons Ratio (y) = 0.13125 0.57218
# Poissons Ratio (z) = 0.04631 0.63836
#
# Static dielectric constant tensor:
#      x y z
#    x 2.048370 0.000000 0.000000 
#    y 0.000000 1.780410 0.000000 
#    z 0.000000 0.000000 1.777720 
# 
# From -- ./inp_files/8103.got.cif
#   From: 2010.05.17/outbox.cif.g08.bks.cpg/sg74_5_cif.got.tgz:8103.got - 2010.06.03 17:57:02.
