data_PCOD9536690
_publ_section_title
;
Structure prediction by ZEFSAII (Michael W. Deem and Ramdas Pophale) SiO2 
 PCOD9536690
Probable space group: I M M A
;
_chemical_formula_sum "Si O2"
_cell_formula_units_Z 88
_cell_length_a 30.432167
_cell_length_b 10.976548
_cell_length_c 11.501317
_cell_angle_alpha 90.000000
_cell_angle_beta 90.000000
_cell_angle_gamma 90.000000
_cell_volume 3841.901562
_symmetry_space_group_name_H-M "I M M A"
_symmetry_group_IT_number 74
_symmetry_cell_setting 'orthorhombic'
loop_
_space_group_symop_operation_xyz
x,y,z
-x,1/2-y,z
x,-y,-z
-x,1/2+y,-z
-x,-y,-z
x,1/2+y,-z
-x,y,z
x,1/2-y,z
1/2+x,1/2+y,1/2+z
1/2-x,-y,1/2+z
1/2+x,1/2-y,1/2-z
1/2-x,y,1/2-z
1/2-x,1/2-y,1/2-z
1/2+x,y,1/2-z
1/2-x,1/2+y,1/2+z
1/2+x,-y,1/2+z
loop_
_atom_site_type_symbol
_atom_site_label
_atom_site_fract_x
_atom_site_fract_y
_atom_site_fract_z
Si Si1 0.299390 0.882134 0.797500
Si Si2 0.160998 0.378876 0.630711
Si Si3 0.399706 0.382578 0.643547
Si Si4 0.552184 0.607335 0.758091
Si Si5 0.413010 0.000000 0.000000
Si Si6 0.324957 0.620808 0.541945
O O1 0.306177 0.750000 0.853703
O O2 0.250000 0.887701 0.750000
O O3 0.328848 0.883977 0.680403
O O4 0.310293 0.999871 0.870923
O O5 0.184225 0.250000 0.616483
O O6 0.137501 0.378376 0.756520
O O7 0.119932 0.395445 0.544998
O O8 0.423706 0.250000 0.649732
O O9 0.427566 0.503508 0.672477
O O10 0.371192 0.381050 0.525636
O O11 0.500000 0.609715 0.740367
O O12 0.567769 0.750000 0.746852
O O13 0.561826 0.554932 0.888706
O O14 0.300399 0.500000 0.500000
O O15 0.303008 0.750000 0.513477
#
# Coordination Sequence:
#
# PCOD9536690 Si02
#       6
#    16  16  16  16   8  16
#     4  10  22  39  59  86 122 158 196 247 305 357
#     4  10  20  36  57  83 116 155 203 250 293 349
#     4   9  19  35  57  86 118 152 197 246 295 353
#     4  10  21  37  60  91 123 157 199 247 301 360
#     4  10  21  38  58  84 122 160 200 244 300 362
#     4  10  19  35  60  88 116 154 201 243 293 357
#
# _framework density 22.905324
#
# number of rings (size 3 to 8) (size 9 to 14) (size 15 to 20)
#    0.000    2.182    1.818    0.818    0.000    5.818 
#    1.636    0.000    0.000    0.545    0.000    0.000 
#    0.000    0.000    0.000    0.000    0.000    0.000 
#
# Total GULP energy -245367.067183 kJ/mol
# GULP energy per Si atom -5576.524254 kJ/mol
# Density = 2.285319 g / cm^3
# Si number density = 22.905324 Si / 1000 Ang^3
#
#
#
# Elastic Constant Matrix: (Units=GPa)
#
#
# Indices 1 2 3 4 5 6 
#
# 1 67.3743 49.5006 39.4221 0.0000 0.0000 0.0000
# 2 49.5006 255.5146 42.3511 0.0000 0.0000 0.0000
# 3 39.4221 42.3511 93.8781 0.0000 0.0000 0.0000
# 4 0.0000 0.0000 0.0000 -82.4828 0.0000 0.0000
# 5 0.0000 0.0000 0.0000 0.0000 21.6366 0.0000
# 6 0.0000 0.0000 0.0000 0.0000 0.0000 16.2921
#
#
#
# Elastic Compliance Matrix: (Units=1/GPa)
#
#
# Indices 1 2 3 4 5 6 
#
# 1 0.021475 -0.002881 -0.007718 0.000000 0.000000 0.000000
# 2 -0.002881 0.004616 -0.000873 0.000000 0.000000 0.000000
# 3 -0.007718 -0.000873 0.014287 0.000000 0.000000 0.000000
# 4 0.000000 0.000000 0.000000 -0.012124 0.000000 0.000000
# 5 0.000000 0.000000 0.000000 0.000000 0.046218 0.000000
# 6 0.000000 0.000000 0.000000 0.000000 0.000000 0.061380
#
#
# Mechanical properties :
#
#
# Convention : Reuss Voigt Hill
#
# Bulk Modulus (GPa) = 57.35792 75.47940 66.41866
# Shear Modulus (GPa) = 30.37506 10.12206 20.24856
#
# Velocity S-wave (km/s) = 3.64554 2.10444 2.97646
# Velocity P-wave (km/s) = 6.54336 6.23933 6.39315
#
# Compressibility (1/GPa) = 0.01743438
#
# Stress axis : x y z
#
# Youngs Moduli (GPa) = 46.56491 216.61507 69.99367
#
# Poissons Ratio (x) = 0.62409 0.54024
# Poissons Ratio (y) = 0.13416 0.06109
# Poissons Ratio (z) = 0.35941 0.18906
#
# Static dielectric constant tensor:
#      x y z
#    x 1.825090 0.000000 0.000000 
#    y 0.000000 1.969550 0.000000 
#    z 0.000000 0.000000 1.940600 
# 
# From -- ./inp_files/26974.got.cif
#   From: 2010.05.17/outbox.cif.g08.bks.cpg/sg74_14_cif.got.tgz:26974.got - 2010.06.03 17:57:02.
