data_PCOD9536503
_publ_section_title
;
Structure prediction by ZEFSAII (Michael W. Deem and Ramdas Pophale) SiO2 
 PCOD9536503
Probable space group: I M M A
;
_chemical_formula_sum "Si O2"
_cell_formula_units_Z 112
_cell_length_a 28.673680
_cell_length_b 17.266194
_cell_length_c 12.353577
_cell_angle_alpha 90.000000
_cell_angle_beta 90.000000
_cell_angle_gamma 90.000000
_cell_volume 6116.074642
_symmetry_space_group_name_H-M "I M M A"
_symmetry_group_IT_number 74
_symmetry_cell_setting 'orthorhombic'
loop_
_space_group_symop_operation_xyz
x,y,z
-x,1/2-y,z
x,-y,-z
-x,1/2+y,-z
-x,-y,-z
x,1/2+y,-z
-x,y,z
x,1/2-y,z
1/2+x,1/2+y,1/2+z
1/2-x,-y,1/2+z
1/2+x,1/2-y,1/2-z
1/2-x,y,1/2-z
1/2-x,1/2-y,1/2-z
1/2+x,y,1/2-z
1/2-x,1/2+y,1/2+z
1/2+x,-y,1/2+z
loop_
_atom_site_type_symbol
_atom_site_label
_atom_site_fract_x
_atom_site_fract_y
_atom_site_fract_z
Si Si1 0.643427 0.909948 0.318670
Si Si2 0.803325 0.658855 0.385377
Si Si3 0.054747 0.341958 0.725094
Si Si4 0.448157 0.344074 0.029231
Si Si5 0.700867 0.060578 0.300382
Si Si6 0.648070 0.158017 0.118580
Si Si7 0.207952 0.341160 0.984016
O O1 0.669455 0.882888 0.209095
O O2 0.589340 0.894283 0.294981
O O3 0.660966 0.859060 0.419390
O O4 0.664105 0.995146 0.335755
O O5 0.803709 0.750000 0.358863
O O6 0.828232 0.648484 0.501057
O O7 0.750090 0.634334 0.404227
O O8 0.066950 0.250000 0.736389
O O9 0.060279 0.361942 0.597440
O O10 0.000000 0.350202 0.751027
O O11 0.500000 0.371619 0.059495
O O12 0.448438 0.250000 0.034029
O O13 0.405239 0.369931 0.102848
O O14 0.750000 0.031657 0.250000
O O15 0.676053 0.111884 0.208404
O O16 0.711606 0.112348 0.405189
O O17 0.648505 0.250000 0.143141
O O18 0.213541 0.250000 0.005115
#
# Coordination Sequence:
#
# PCOD9536503 Si02
#       7
#    16  16  16  16  16  16  16
#     4  12  23  36  56  86 120 142 175 235 299 345
#     4  10  19  34  57  83 109 142 186 233 277 323
#     4   9  17  33  59  87 113 144 185 232 283 337
#     4   8  14  28  53  84 113 141 179 228 277 324
#     4  12  25  39  54  77 116 161 192 223 278 348
#     4  10  19  34  57  81 110 151 198 236 267 321
#     4  11  23  39  59  79 107 151 201 241 271 324
#
# _framework density 18.312398999999999
#
# number of rings (size 3 to 8) (size 9 to 14) (size 15 to 20)
#    0.000    1.714    2.857    4.286    0.000    2.286 
#    0.000    0.714    0.000    4.286    0.000    2.000 
#    0.000    0.000    0.000    0.000    0.000    0.000 
#
# Total GULP energy -312655.336902 kJ/mol
# GULP energy per Si atom -5583.131016 kJ/mol
# Density = 1.827072 g / cm^3
# Si number density = 18.312399 Si / 1000 Ang^3
#
#
#
# Elastic Constant Matrix: (Units=GPa)
#
#
# Indices 1 2 3 4 5 6 
#
# 1 105.1788 18.9878 13.1614 0.0000 0.0000 0.0000
# 2 18.9878 48.2619 15.5677 0.0000 0.0000 0.0000
# 3 13.1614 15.5677 27.9694 0.0000 0.0000 0.0000
# 4 0.0000 0.0000 0.0000 21.6754 0.0000 0.0000
# 5 0.0000 0.0000 0.0000 0.0000 22.6304 0.0000
# 6 0.0000 0.0000 0.0000 0.0000 0.0000 42.4842
#
#
#
# Elastic Compliance Matrix: (Units=1/GPa)
#
#
# Indices 1 2 3 4 5 6 
#
# 1 0.010466 -0.003082 -0.003209 0.000000 0.000000 0.000000
# 2 -0.003082 0.026162 -0.013111 0.000000 0.000000 0.000000
# 3 -0.003209 -0.013111 0.044561 0.000000 0.000000 0.000000
# 4 0.000000 0.000000 0.000000 0.046135 0.000000 0.000000
# 5 0.000000 0.000000 0.000000 0.000000 0.044188 0.000000
# 6 0.000000 0.000000 0.000000 0.000000 0.000000 0.023538
#
#
# Mechanical properties :
#
#
# Convention : Reuss Voigt Hill
#
# Bulk Modulus (GPa) = 23.59416 30.76044 27.17730
# Shear Modulus (GPa) = 20.16252 26.27086 23.21669
#
# Velocity S-wave (km/s) = 3.32178 3.79171 3.56450
# Velocity P-wave (km/s) = 5.25590 6.00029 5.64039
#
# Compressibility (1/GPa) = 0.04238337
#
# Stress axis : x y z
#
# Youngs Moduli (GPa) = 95.55077 38.22293 22.44097
#
# Poissons Ratio (x) = 0.11782 0.07202
# Poissons Ratio (y) = 0.29452 0.29423
# Poissons Ratio (z) = 0.30664 0.50116
#
# Static dielectric constant tensor:
#      x y z
#    x 1.669160 0.000000 0.000000 
#    y 0.000000 1.654440 0.000000 
#    z 0.000000 0.000000 1.591860 
# 
# From -- ./inp_files/21188.got.cif
#   From: 2010.05.17/outbox.cif.g08.bks.cpg/sg74_11_cif.got.tgz:21188.got - 2010.06.03 17:57:02.
