data_PCOD9536444
_publ_section_title
;
Structure prediction by ZEFSAII (Michael W. Deem and Ramdas Pophale) SiO2 
 PCOD9536444
Probable space group: I M M A
;
_chemical_formula_sum "Si O2"
_cell_formula_units_Z 104
_cell_length_a 28.915616
_cell_length_b 8.043465
_cell_length_c 23.407677
_cell_angle_alpha 90.000000
_cell_angle_beta 90.000000
_cell_angle_gamma 90.000000
_cell_volume 5444.198369
_symmetry_space_group_name_H-M "I M M A"
_symmetry_group_IT_number 74
_symmetry_cell_setting 'orthorhombic'
loop_
_space_group_symop_operation_xyz
x,y,z
-x,1/2-y,z
x,-y,-z
-x,1/2+y,-z
-x,-y,-z
x,1/2+y,-z
-x,y,z
x,1/2-y,z
1/2+x,1/2+y,1/2+z
1/2-x,-y,1/2+z
1/2+x,1/2-y,1/2-z
1/2-x,y,1/2-z
1/2-x,1/2-y,1/2-z
1/2+x,y,1/2-z
1/2-x,1/2+y,1/2+z
1/2+x,-y,1/2+z
loop_
_atom_site_type_symbol
_atom_site_label
_atom_site_fract_x
_atom_site_fract_y
_atom_site_fract_z
Si Si1 0.000000 0.949726 0.933539
Si Si2 0.300758 0.941971 0.763119
Si Si3 0.182385 0.060423 0.854707
Si Si4 0.144701 0.952780 0.626141
Si Si5 0.263894 0.448056 0.063991
Si Si6 0.899760 0.449917 0.066346
Si Si7 0.052308 0.549015 0.565857
O O1 0.049674 0.005953 0.910876
O O2 0.000000 0.750000 0.930544
O O3 0.000000 0.000000 0.000000
O O4 0.291841 0.750000 0.780225
O O5 0.250000 0.018757 0.750000
O O6 0.333180 0.010704 0.813501
O O7 0.324271 0.950215 0.701457
O O8 0.183196 0.250000 0.835614
O O9 0.229343 0.019987 0.888746
O O10 0.141189 0.029836 0.898568
O O11 0.141960 0.750000 0.628393
O O12 0.183695 0.997613 0.579377
O O13 0.094132 0.011504 0.606302
O O14 0.260524 0.250000 0.068000
O O15 0.251188 0.500000 0.000000
O O16 0.896436 0.250000 0.070040
O O17 0.896462 0.500000 0.000000
O O18 0.061423 0.500000 0.500000
O O19 0.051991 0.750000 0.568471
O O20 0.000000 0.491163 0.580390
#
# Coordination Sequence:
#
# PCOD9536444 Si02
#       7
#     8  16  16  16  16  16  16
#     4   8  16  30  52  78 102 130 168 208 251 304
#     4  10  19  37  59  75  96 137 181 222 267 314
#     4  12  24  36  51  76 106 139 177 219 264 314
#     4   9  18  33  55  78 103 138 179 216 262 318
#     4  11  21  35  52  76 107 140 174 214 263 316
#     4  10  19  34  55  80 108 138 172 214 263 316
#     4   9  17  31  53  82 113 141 172 214 264 321
#
# _framework density 19.102903999999999
#
# number of rings (size 3 to 8) (size 9 to 14) (size 15 to 20)
#    0.000    2.000    1.538    3.231    0.000    0.923 
#    0.000    1.538    1.692    0.000    0.000    0.000 
#    0.000    0.000    0.000    0.000    0.000    0.000 
#
# Total GULP energy -290006.572751 kJ/mol
# GULP energy per Si atom -5577.049476 kJ/mol
# Density = 1.905943 g / cm^3
# Si number density = 19.102904 Si / 1000 Ang^3
#
#
#
# Elastic Constant Matrix: (Units=GPa)
#
#
# Indices 1 2 3 4 5 6 
#
# 1 152.4762 10.1093 50.0584 0.0000 0.0000 0.0000
# 2 10.1093 28.3422 -3.1056 0.0000 0.0000 0.0000
# 3 50.0584 -3.1056 94.2056 0.0000 0.0000 0.0000
# 4 0.0000 0.0000 0.0000 19.4085 0.0000 0.0000
# 5 0.0000 0.0000 0.0000 0.0000 18.4901 0.0000
# 6 0.0000 0.0000 0.0000 0.0000 0.0000 4.5933
#
#
#
# Elastic Compliance Matrix: (Units=1/GPa)
#
#
# Indices 1 2 3 4 5 6 
#
# 1 0.008266 -0.003442 -0.004506 0.000000 0.000000 0.000000
# 2 -0.003442 0.036844 0.003044 0.000000 0.000000 0.000000
# 3 -0.004506 0.003044 0.013110 0.000000 0.000000 0.000000
# 4 0.000000 0.000000 0.000000 0.051524 0.000000 0.000000
# 5 0.000000 0.000000 0.000000 0.000000 0.054083 0.000000
# 6 0.000000 0.000000 0.000000 0.000000 0.000000 0.217706
#
#
# Mechanical properties :
#
#
# Convention : Reuss Voigt Hill
#
# Bulk Modulus (GPa) = 20.65626 43.23869 31.94747
# Shear Modulus (GPa) = 12.27059 23.02918 17.64989
#
# Velocity S-wave (km/s) = 2.53720 3.47585 3.04293
# Velocity P-wave (km/s) = 4.40679 6.22836 5.39501
#
# Compressibility (1/GPa) = 0.04841148
#
# Stress axis : x y z
#
# Youngs Moduli (GPa) = 120.97965 27.14125 76.27975
#
# Poissons Ratio (x) = 0.09342 0.34370
# Poissons Ratio (y) = 0.41642 -0.23217
# Poissons Ratio (z) = 0.54510 -0.08261
#
# Static dielectric constant tensor:
#      x y z
#    x 1.707200 0.000000 0.000000 
#    y 0.000000 1.690930 0.000000 
#    z 0.000000 0.000000 0.573170 
# 
# From -- ./inp_files/62681.got.cif
#   From: 2010.05.17/outbox.cif.g08.bks.cpg/sg74_32_cif.got.tgz:62681.got - 2010.06.03 17:57:02.
