data_PCOD9536046
_publ_section_title
;
Structure prediction by ZEFSAII (Michael W. Deem and Ramdas Pophale) SiO2 
 PCOD9536046
Probable space group: I M M A
;
_chemical_formula_sum "Si O2"
_cell_formula_units_Z 72
_cell_length_a 9.350229
_cell_length_b 26.727734
_cell_length_c 13.625110
_cell_angle_alpha 90.000000
_cell_angle_beta 90.000000
_cell_angle_gamma 90.000000
_cell_volume 3405.057147
_symmetry_space_group_name_H-M "I M M A"
_symmetry_group_IT_number 74
_symmetry_cell_setting 'orthorhombic'
loop_
_space_group_symop_operation_xyz
x,y,z
-x,1/2-y,z
x,-y,-z
-x,1/2+y,-z
-x,-y,-z
x,1/2+y,-z
-x,y,z
x,1/2-y,z
1/2+x,1/2+y,1/2+z
1/2-x,-y,1/2+z
1/2+x,1/2-y,1/2-z
1/2-x,y,1/2-z
1/2-x,1/2-y,1/2-z
1/2+x,y,1/2-z
1/2-x,1/2+y,1/2+z
1/2+x,-y,1/2+z
loop_
_atom_site_type_symbol
_atom_site_label
_atom_site_fract_x
_atom_site_fract_y
_atom_site_fract_z
Si Si1 0.162945 0.085167 0.086089
Si Si2 0.670555 0.696598 0.567089
Si Si3 0.836058 0.569739 0.398550
Si Si4 0.250000 0.013773 0.250000
Si Si5 0.169201 0.669027 0.157281
O O1 0.217715 0.142020 0.105389
O O2 0.160751 0.050816 0.181250
O O3 0.000000 0.089194 0.046336
O O4 0.264926 0.060795 0.004485
O O5 0.500000 0.697864 0.585427
O O6 0.731334 0.750000 0.602976
O O7 0.690362 0.694031 0.449008
O O8 0.829533 0.523036 0.325359
O O9 0.738476 0.614268 0.356172
O O10 0.000000 0.586092 0.409228
O O11 0.250000 0.692323 0.250000
O O12 0.000000 0.666389 0.176205
#
# Coordination Sequence:
#
# PCOD9536046 Si02
#       5
#    16  16  16   8  16
#     4  10  23  41  61  87 118 152 195 243 290 348
#     4   8  16  34  58  81 109 148 192 241 293 340
#     4  11  23  38  58  84 119 159 196 239 290 345
#     4  12  24  36  59  88 119 156 198 234 288 346
#     4  10  19  32  54  84 117 152 192 236 286 350
#
# _framework density 21.145019999999999
#
# number of rings (size 3 to 8) (size 9 to 14) (size 15 to 20)
#    0.000    2.000    1.111    4.000    0.000    6.667 
#    0.000    0.556    0.000   16.000    0.000    0.000 
#    0.000    0.000    0.000    0.000    0.000    0.000 
#
# Total GULP energy -200754.662947 kJ/mol
# GULP energy per Si atom -5576.518415 kJ/mol
# Density = 2.109689 g / cm^3
# Si number density = 21.145020 Si / 1000 Ang^3
#
#
#
# Elastic Constant Matrix: (Units=GPa)
#
#
# Indices 1 2 3 4 5 6 
#
# 1 83.4892 26.8728 17.9429 -0.0006 0.0000 0.0000
# 2 26.8728 157.4672 40.1237 -0.0001 0.0000 0.0000
# 3 17.9429 40.1237 55.0133 0.0002 0.0000 0.0000
# 4 -0.0006 -0.0001 0.0002 803.0175 -0.0004 0.0000
# 5 0.0000 0.0000 0.0000 -0.0004 16.6548 0.0000
# 6 0.0000 0.0000 0.0000 0.0000 0.0000 6.4717
#
#
#
# Elastic Compliance Matrix: (Units=1/GPa)
#
#
# Indices 1 2 3 4 5 6 
#
# 1 0.013131 -0.001412 -0.003253 0.000000 0.000000 0.000000
# 2 -0.001412 0.007952 -0.005339 0.000000 0.000000 0.000000
# 3 -0.003253 -0.005339 0.023133 0.000000 0.000000 0.000000
# 4 0.000000 0.000000 0.000000 0.001245 0.000000 0.000000
# 5 0.000000 0.000000 0.000000 0.000000 0.060043 0.000000
# 6 0.000000 0.000000 0.000000 0.000000 0.000000 0.154519
#
#
# Mechanical properties :
#
#
# Convention : Reuss Voigt Hill
#
# Bulk Modulus (GPa) = 41.30982 51.76095 46.53539
# Shear Modulus (GPa) = 17.35507 179.29748 98.32627
#
# Velocity S-wave (km/s) = 2.86801 9.21837 6.82656
# Velocity P-wave (km/s) = 5.52685 11.74038 9.17558
#
# Compressibility (1/GPa) = 0.02420732
#
# Stress axis : x y z
#
# Youngs Moduli (GPa) = 76.15451 125.75504 43.22920
#
# Poissons Ratio (x) = 0.17757 0.14062
# Poissons Ratio (y) = 0.10753 0.23081
# Poissons Ratio (z) = 0.24773 0.67143
#
# Static dielectric constant tensor:
#      x y z
#    x 1.737050 0.000000 0.000000 
#    y 0.000000 1.825390 0.000000 
#    z 0.000000 0.000000 1.790060 
# 
# From -- ./inp_files/29406.got.cif
#   From: 2010.05.17/outbox.cif.g08.bks.cpg/sg74_15_cif.got.tgz:29406.got - 2010.06.03 17:57:02.
