data_PCOD9536929
_publ_section_title
;
Structure prediction by ZEFSAII (Michael W. Deem and Ramdas Pophale) SiO2 
 PCOD9536929
Probable space group: I M M A
;
_chemical_formula_sum "Si O2"
_cell_formula_units_Z 96
_cell_length_a 19.653557
_cell_length_b 7.711883
_cell_length_c 33.450842
_cell_angle_alpha 90.000000
_cell_angle_beta 90.000000
_cell_angle_gamma 90.000000
_cell_volume 5070.008048
_symmetry_space_group_name_H-M "I M M A"
_symmetry_group_IT_number 74
_symmetry_cell_setting 'orthorhombic'
loop_
_space_group_symop_operation_xyz
x,y,z
-x,1/2-y,z
x,-y,-z
-x,1/2+y,-z
-x,-y,-z
x,1/2+y,-z
-x,y,z
x,1/2-y,z
1/2+x,1/2+y,1/2+z
1/2-x,-y,1/2+z
1/2+x,1/2-y,1/2-z
1/2-x,y,1/2-z
1/2-x,1/2-y,1/2-z
1/2+x,y,1/2-z
1/2-x,1/2+y,1/2+z
1/2+x,-y,1/2+z
loop_
_atom_site_type_symbol
_atom_site_label
_atom_site_fract_x
_atom_site_fract_y
_atom_site_fract_z
Si Si1 0.576742 0.544738 0.246653
Si Si2 0.846209 0.458158 0.332719
Si Si3 0.923690 0.961962 0.588080
Si Si4 0.711280 0.537191 0.623360
Si Si5 0.076185 0.953738 0.836563
Si Si6 0.711117 0.957621 0.954714
O O1 0.500000 0.482654 0.236012
O O2 0.573928 0.750000 0.252347
O O3 0.627781 0.508367 0.210700
O O4 0.594733 0.467274 0.289686
O O5 0.845349 0.250000 0.334215
O O6 0.898291 0.515162 0.367678
O O7 0.771087 0.516728 0.345971
O O8 0.924776 0.750000 0.587511
O O9 0.864571 0.019855 0.557725
O O10 0.000000 0.022174 0.579560
O O11 0.709852 0.750000 0.623834
O O12 0.637727 0.473337 0.637217
O O13 0.736550 0.481764 0.579454
O O14 0.071605 0.750000 0.846181
O O15 0.000000 0.028795 0.841463
O O16 0.709335 0.750000 0.951215
O O17 0.728469 0.000000 0.000000
#
# Coordination Sequence:
#
# PCOD9536929 Si02
#       6
#    16  16  16  16  16  16
#     4  10  20  31  42  62  95 126 149 182 225 260
#     4   9  16  28  47  66  86 118 158 191 216 252
#     4   8  14  25  42  63  86 115 151 185 213 244
#     4   8  16  31  49  69  90 112 144 188 228 257
#     4   9  17  31  51  69  84 111 152 188 219 263
#     4   9  17  30  47  66  89 114 140 175 219 264
#
# _framework density 18.934882000000002
#
# number of rings (size 3 to 8) (size 9 to 14) (size 15 to 20)
#    0.000    3.167    0.000    3.000    0.000    2.667 
#    0.000    8.333    0.000    1.500    0.000    0.000 
#    0.000    0.000    0.000    0.000    0.000    0.000 
#
# Total GULP energy -267534.487003 kJ/mol
# GULP energy per Si atom -5573.635146 kJ/mol
# Density = 1.889179 g / cm^3
# Si number density = 18.934882 Si / 1000 Ang^3
#
#
#
# Elastic Constant Matrix: (Units=GPa)
#
#
# Indices 1 2 3 4 5 6 
#
# 1 141.1736 7.3853 109.1620 0.0000 0.0000 0.0000
# 2 7.3853 27.2550 -0.1879 0.0000 0.0000 0.0000
# 3 109.1620 -0.1879 119.3001 0.0000 0.0000 0.0000
# 4 0.0000 0.0000 0.0000 11.6700 0.0000 0.0000
# 5 0.0000 0.0000 0.0000 0.0000 11.7663 0.0000
# 6 0.0000 0.0000 0.0000 0.0000 0.0000 3.3445
#
#
#
# Elastic Compliance Matrix: (Units=1/GPa)
#
#
# Indices 1 2 3 4 5 6 
#
# 1 0.025515 -0.007075 -0.023358 0.000000 0.000000 0.000000
# 2 -0.007075 0.038653 0.006535 0.000000 0.000000 0.000000
# 3 -0.023358 0.006535 0.029765 0.000000 0.000000 0.000000
# 4 0.000000 0.000000 0.000000 0.085690 0.000000 0.000000
# 5 0.000000 0.000000 0.000000 0.000000 0.084989 0.000000
# 6 0.000000 0.000000 0.000000 0.000000 0.000000 0.299001
#
#
# Mechanical properties :
#
#
# Convention : Reuss Voigt Hill
#
# Bulk Modulus (GPa) = 21.67472 57.82750 39.75111
# Shear Modulus (GPa) = 7.97718 16.78077 12.37897
#
# Velocity S-wave (km/s) = 2.05478 2.98020 2.55966
# Velocity P-wave (km/s) = 4.13537 6.51526 5.45664
#
# Compressibility (1/GPa) = 0.04613669
#
# Stress axis : x y z
#
# Youngs Moduli (GPa) = 39.19264 25.87144 33.59599
#
# Poissons Ratio (x) = 0.18304 0.78473
# Poissons Ratio (y) = 0.27728 -0.21953
# Poissons Ratio (z) = 0.91546 -0.16906
#
# Static dielectric constant tensor:
#      x y z
#    x 1.678610 0.000000 0.000000 
#    y 0.000000 1.707220 0.000000 
#    z 0.000000 0.000000 1.636170 
# 
# From -- ./inp_files/68155.got.cif
#   From: 2010.05.17/outbox.cif.g08.bks.cpg/sg74_35_cif.got.tgz:68155.got - 2010.06.03 17:57:02.
