data_PCOD9536555
_publ_section_title
;
Structure prediction by ZEFSAII (Michael W. Deem and Ramdas Pophale) SiO2 
 PCOD9536555
Probable space group: I M M A
;
_chemical_formula_sum "Si O2"
_cell_formula_units_Z 88
_cell_length_a 17.918544
_cell_length_b 17.473024
_cell_length_c 11.078369
_cell_angle_alpha 90.000000
_cell_angle_beta 90.000000
_cell_angle_gamma 90.000000
_cell_volume 3468.539283
_symmetry_space_group_name_H-M "I M M A"
_symmetry_group_IT_number 74
_symmetry_cell_setting 'orthorhombic'
loop_
_space_group_symop_operation_xyz
x,y,z
-x,1/2-y,z
x,-y,-z
-x,1/2+y,-z
-x,-y,-z
x,1/2+y,-z
-x,y,z
x,1/2-y,z
1/2+x,1/2+y,1/2+z
1/2-x,-y,1/2+z
1/2+x,1/2-y,1/2-z
1/2-x,y,1/2-z
1/2-x,1/2-y,1/2-z
1/2+x,y,1/2-z
1/2-x,1/2+y,1/2+z
1/2+x,-y,1/2+z
loop_
_atom_site_type_symbol
_atom_site_label
_atom_site_fract_x
_atom_site_fract_y
_atom_site_fract_z
Si Si1 0.231698 0.836937 0.021935
Si Si2 0.583989 0.659494 0.841010
Si Si3 0.916836 0.599397 0.119769
Si Si4 0.304421 0.500000 0.000000
Si Si5 0.337207 0.975375 0.748329
Si Si6 0.886227 0.162877 0.621697
O O1 0.240150 0.750000 0.965348
O O2 0.146071 0.848716 0.057319
O O3 0.295308 0.835215 0.125989
O O4 0.255566 0.922598 0.972570
O O5 0.500000 0.637337 0.806445
O O6 0.592995 0.750000 0.827817
O O7 0.641852 0.613049 0.759642
O O8 0.594887 0.640288 0.982998
O O9 0.881574 0.515316 0.141420
O O10 0.919141 0.627304 0.258469
O O11 0.000000 0.600250 0.067863
O O12 0.355761 0.509219 0.118129
O O13 0.250000 0.993774 0.750000
O O14 0.912202 0.250000 0.624599
#
# Coordination Sequence:
#
# PCOD9536555 Si02
#       6
#    16  16  16   8  16  16
#     4  11  23  41  65  91 127 171 217 269 322 381
#     4  10  21  37  58  90 130 167 207 266 334 390
#     4  12  23  37  59  93 128 164 210 268 334 393
#     4  12  22  42  66  92 128 160 220 272 312 382
#     4  12  22  39  64  91 123 168 216 263 322 393
#     4  10  19  34  58  88 123 165 208 257 320 391
#
# _framework density 25.370909999999999
#
# number of rings (size 3 to 8) (size 9 to 14) (size 15 to 20)
#    0.000    0.909    5.455    2.182    0.000    4.000 
#    0.000    3.182    0.000    0.000    0.000    0.000 
#    0.000    0.000    0.000    0.000    0.000    0.000 
#
# Total GULP energy -245403.446662 kJ/mol
# GULP energy per Si atom -5577.351061 kJ/mol
# Density = 2.531316 g / cm^3
# Si number density = 25.370910 Si / 1000 Ang^3
#
#
#
# Elastic Constant Matrix: (Units=GPa)
#
#
# Indices 1 2 3 4 5 6 
#
# 1 153.1941 10.6419 -9.4133 0.0000 0.0000 0.0000
# 2 10.6419 127.2599 12.1339 0.0000 0.0000 0.0000
# 3 -9.4133 12.1339 32.8835 0.0000 0.0000 0.0000
# 4 0.0000 0.0000 0.0000 29.6296 0.0000 0.0000
# 5 0.0000 0.0000 0.0000 0.0000 3.3890 0.0000
# 6 0.0000 0.0000 0.0000 0.0000 0.0000 23.8569
#
#
#
# Elastic Compliance Matrix: (Units=1/GPa)
#
#
# Indices 1 2 3 4 5 6 
#
# 1 0.006717 -0.000772 0.002208 0.000000 0.000000 0.000000
# 2 -0.000772 0.008233 -0.003259 0.000000 0.000000 0.000000
# 3 0.002208 -0.003259 0.032245 0.000000 0.000000 0.000000
# 4 0.000000 0.000000 0.000000 0.033750 0.000000 0.000000
# 5 0.000000 0.000000 0.000000 0.000000 0.295073 0.000000
# 6 0.000000 0.000000 0.000000 0.000000 0.000000 0.041917
#
#
# Mechanical properties :
#
#
# Convention : Reuss Voigt Hill
#
# Bulk Modulus (GPa) = 22.96311 37.78472 30.37391
# Shear Modulus (GPa) = 11.46531 31.37343 21.41937
#
# Velocity S-wave (km/s) = 2.12812 3.52033 2.90875
# Velocity P-wave (km/s) = 3.88705 5.60793 4.82483
#
# Compressibility (1/GPa) = 0.04354812
#
# Stress axis : x y z
#
# Youngs Moduli (GPa) = 148.87672 121.45863 31.01259
#
# Poissons Ratio (x) = 0.09379 -0.06847
# Poissons Ratio (y) = 0.11496 0.10107
# Poissons Ratio (z) = -0.32868 0.39584
#
# Static dielectric constant tensor:
#      x y z
#    x 2.032080 0.000000 0.000000 
#    y 0.000000 2.182120 0.000000 
#    z 0.000000 0.000000 2.084560 
# 
# From -- ./inp_files/34105.got.cif
#   From: 2010.05.17/outbox.cif.g08.bks.cpg/sg74_18_cif.got.tgz:34105.got - 2010.06.03 17:57:02.
