data_PCOD9536349
_publ_section_title
;
Structure prediction by ZEFSAII (Michael W. Deem and Ramdas Pophale) SiO2 
 PCOD9536349
Probable space group: I M M A
;
_chemical_formula_sum "Si O2"
_cell_formula_units_Z 112
_cell_length_a 18.536702
_cell_length_b 24.808988
_cell_length_c 10.209581
_cell_angle_alpha 90.000000
_cell_angle_beta 90.000000
_cell_angle_gamma 90.000000
_cell_volume 4695.149618
_symmetry_space_group_name_H-M "I M M A"
_symmetry_group_IT_number 74
_symmetry_cell_setting 'orthorhombic'
loop_
_space_group_symop_operation_xyz
x,y,z
-x,1/2-y,z
x,-y,-z
-x,1/2+y,-z
-x,-y,-z
x,1/2+y,-z
-x,y,z
x,1/2-y,z
1/2+x,1/2+y,1/2+z
1/2-x,-y,1/2+z
1/2+x,1/2-y,1/2-z
1/2-x,y,1/2-z
1/2-x,1/2-y,1/2-z
1/2+x,y,1/2-z
1/2-x,1/2+y,1/2+z
1/2+x,-y,1/2+z
loop_
_atom_site_type_symbol
_atom_site_label
_atom_site_fract_x
_atom_site_fract_y
_atom_site_fract_z
Si Si1 0.413116 0.986889 0.702847
Si Si2 0.585376 0.098866 0.822465
Si Si3 0.819451 0.945549 0.555877
Si Si4 0.368985 0.808079 0.743114
Si Si5 0.419004 0.111263 0.451605
Si Si6 0.658045 0.812832 0.336306
Si Si7 0.238641 0.831783 0.547199
O O1 0.500000 0.979330 0.728716
O O2 0.360455 0.961906 0.812741
O O3 0.396548 0.949813 0.577824
O O4 0.402426 0.051183 0.715082
O O5 0.500000 0.108993 0.833667
O O6 0.630418 0.151775 0.784944
O O7 0.619163 0.074031 0.953982
O O8 0.763936 0.896433 0.563733
O O9 0.784742 0.000000 0.500000
O O10 0.404878 0.750000 0.728072
O O11 0.414561 0.857711 0.688974
O O12 0.299039 0.809209 0.646666
O O13 0.337258 0.814147 0.889221
O O14 0.500000 0.108476 0.499375
O O15 0.380785 0.152135 0.549619
O O16 0.637939 0.750000 0.327320
O O17 0.738656 0.814770 0.400415
#
# Coordination Sequence:
#
# PCOD9536349 Si02
#       7
#    16  16  16  16  16  16  16
#     4   9  18  36  62  92 119 144 183 243 309 363
#     4  10  22  40  63  86 117 159 200 240 294 361
#     4  10  20  38  61  90 118 150 190 241 300 355
#     4  10  19  34  57  83 116 152 190 235 293 355
#     4  10  19  33  59  90 118 149 191 246 305 356
#     4  11  24  41  58  80 120 169 209 241 283 349
#     4  10  19  36  55  83 114 154 196 235 288 349
#
# _framework density 23.854406000000001
#
# number of rings (size 3 to 8) (size 9 to 14) (size 15 to 20)
#    0.000    2.000    1.429    3.857    0.000    4.857 
#    5.143    5.000    0.000    0.000    0.000    0.000 
#    0.000    0.000    0.000    0.000    0.000    0.000 
#
# Total GULP energy -312474.789457 kJ/mol
# GULP energy per Si atom -5579.906955 kJ/mol
# Density = 2.380011 g / cm^3
# Si number density = 23.854406 Si / 1000 Ang^3
#
#
#
# Elastic Constant Matrix: (Units=GPa)
#
#
# Indices 1 2 3 4 5 6 
#
# 1 56.0710 40.0180 14.2272 0.0000 0.0000 0.0000
# 2 40.0180 217.8552 15.2981 0.0000 0.0000 0.0000
# 3 14.2272 15.2981 36.4726 0.0000 0.0000 0.0000
# 4 0.0000 0.0000 0.0000 25.2337 0.0000 0.0000
# 5 0.0000 0.0000 0.0000 0.0000 24.1302 0.0000
# 6 0.0000 0.0000 0.0000 0.0000 0.0000 30.4705
#
#
#
# Elastic Compliance Matrix: (Units=1/GPa)
#
#
# Indices 1 2 3 4 5 6 
#
# 1 0.022204 -0.003576 -0.007161 0.000000 0.000000 0.000000
# 2 -0.003576 0.005305 -0.000830 0.000000 0.000000 0.000000
# 3 -0.007161 -0.000830 0.030560 0.000000 0.000000 0.000000
# 4 0.000000 0.000000 0.000000 0.039630 0.000000 0.000000
# 5 0.000000 0.000000 0.000000 0.000000 0.041442 0.000000
# 6 0.000000 0.000000 0.000000 0.000000 0.000000 0.032819
#
#
# Mechanical properties :
#
#
# Convention : Reuss Voigt Hill
#
# Bulk Modulus (GPa) = 28.62578 49.94281 39.28430
# Shear Modulus (GPa) = 24.18518 32.02391 28.10454
#
# Velocity S-wave (km/s) = 3.18758 3.66795 3.43617
# Velocity P-wave (km/s) = 5.05706 6.23863 5.67866
#
# Compressibility (1/GPa) = 0.03493354
#
# Stress axis : x y z
#
# Youngs Moduli (GPa) = 45.03777 188.48908 32.72289
#
# Poissons Ratio (x) = 0.67398 0.23434
# Poissons Ratio (y) = 0.16104 0.02718
# Poissons Ratio (z) = 0.32253 0.15653
#
# Static dielectric constant tensor:
#      x y z
#    x 1.930380 0.000000 0.000000 
#    y 0.000000 1.922970 0.000000 
#    z 0.000000 0.000000 2.012910 
# 
# From -- ./inp_files/24196.got.cif
#   From: 2010.05.17/outbox.cif.g08.bks.cpg/sg74_13_cif.got.tgz:24196.got - 2010.06.03 17:57:02.
