data_PCOD9536680
_publ_section_title
;
Structure prediction by ZEFSAII (Michael W. Deem and Ramdas Pophale) SiO2 
 PCOD9536680
Probable space group: I M M A
;
_chemical_formula_sum "Si O2"
_cell_formula_units_Z 64
_cell_length_a 13.861107
_cell_length_b 14.933776
_cell_length_c 18.463458
_cell_angle_alpha 90.000000
_cell_angle_beta 90.000000
_cell_angle_gamma 90.000000
_cell_volume 3821.911195
_symmetry_space_group_name_H-M "I M M A"
_symmetry_group_IT_number 74
_symmetry_cell_setting 'orthorhombic'
loop_
_space_group_symop_operation_xyz
x,y,z
-x,1/2-y,z
x,-y,-z
-x,1/2+y,-z
-x,-y,-z
x,1/2+y,-z
-x,y,z
x,1/2-y,z
1/2+x,1/2+y,1/2+z
1/2-x,-y,1/2+z
1/2+x,1/2-y,1/2-z
1/2-x,y,1/2-z
1/2-x,1/2-y,1/2-z
1/2+x,y,1/2-z
1/2-x,1/2+y,1/2+z
1/2+x,-y,1/2+z
loop_
_atom_site_type_symbol
_atom_site_label
_atom_site_fract_x
_atom_site_fract_y
_atom_site_fract_z
Si Si1 0.749166 0.410178 0.336094
Si Si2 0.890674 0.250000 0.944246
Si Si3 0.390193 0.750000 0.618507
Si Si4 0.388518 0.143197 0.040522
Si Si5 0.781091 0.067730 0.940947
O O1 0.750000 0.412316 0.250000
O O2 0.667557 0.338059 0.357607
O O3 0.844349 0.377628 0.380052
O O4 0.731018 0.507478 0.370320
O O5 0.837606 0.158243 0.924277
O O6 0.000000 0.250000 0.917526
O O7 0.891066 0.250000 0.031678
O O8 0.500000 0.750000 0.645312
O O9 0.500000 0.115498 0.034557
O O10 0.382560 0.250000 0.029610
O O11 0.318106 0.097126 0.981648
O O12 0.829583 0.000000 0.000000
#
# Coordination Sequence:
#
# PCOD9536680 Si02
#       5
#    16   8   8  16  16
#     4  11  22  37  54  82 115 147 181 220 274 335
#     4  11  20  35  58  82 108 140 181 230 271 315
#     4  11  21  35  55  82 113 142 178 224 276 325
#     4  10  19  35  60  83 106 140 182 231 279 323
#     4  10  19  36  56  82 110 141 185 228 268 327
#
# _framework density 16.745550000000001
#
# number of rings (size 3 to 8) (size 9 to 14) (size 15 to 20)
#    0.000    1.500    7.500    0.375    0.000    7.000 
#    0.000    0.625    0.000    0.000    0.000    0.000 
#    0.000    0.000    0.000    0.000    0.000    0.000 
#
# Total GULP energy -178383.365213 kJ/mol
# GULP energy per Si atom -5574.480163 kJ/mol
# Density = 1.670744 g / cm^3
# Si number density = 16.745550 Si / 1000 Ang^3
#
#
#
# Elastic Constant Matrix: (Units=GPa)
#
#
# Indices 1 2 3 4 5 6 
#
# 1 121.3895 68.6457 37.1565 0.0000 0.0000 0.0000
# 2 68.6457 143.2962 33.2746 0.0000 0.0000 0.0000
# 3 37.1565 33.2746 75.5803 0.0000 0.0000 0.0000
# 4 0.0000 0.0000 0.0000 11.4293 0.0000 0.0000
# 5 0.0000 0.0000 0.0000 0.0000 9.4033 0.0000
# 6 0.0000 0.0000 0.0000 0.0000 0.0000 -11.9289
#
#
#
# Elastic Compliance Matrix: (Units=1/GPa)
#
#
# Indices 1 2 3 4 5 6 
#
# 1 0.012214 -0.004964 -0.003819 0.000000 0.000000 0.000000
# 2 -0.004964 0.009791 -0.001870 0.000000 0.000000 0.000000
# 3 -0.003819 -0.001870 0.015932 0.000000 0.000000 0.000000
# 4 0.000000 0.000000 0.000000 0.087495 0.000000 0.000000
# 5 0.000000 0.000000 0.000000 0.000000 0.106346 0.000000
# 6 0.000000 0.000000 0.000000 0.000000 0.000000 -0.083830
#
#
# Mechanical properties :
#
#
# Convention : Reuss Voigt Hill
#
# Bulk Modulus (GPa) = 60.13210 68.71329 64.42270
# Shear Modulus (GPa) = 28.60454 15.19335 21.89894
#
# Velocity S-wave (km/s) = 4.13751 3.01542 3.62020
# Velocity P-wave (km/s) = 7.66893 7.29702 7.48529
#
# Compressibility (1/GPa) = 0.01663005
#
# Stress axis : x y z
#
# Youngs Moduli (GPa) = 81.87102 102.13511 62.76768
#
# Poissons Ratio (x) = 0.50704 0.23972
# Poissons Ratio (y) = 0.40644 0.11737
# Poissons Ratio (z) = 0.31268 0.19099
#
# Static dielectric constant tensor:
#      x y z
#    x 1.594340 0.000000 0.000000 
#    y 0.000000 1.593440 0.000000 
#    z 0.000000 0.000000 1.536640 
# 
# From -- ./inp_files/40722.got.cif
#   From: 2010.05.17/outbox.cif.g08.bks.cpg/sg74_21_cif.got.tgz:40722.got - 2010.06.03 17:57:02.
