data_PCOD9536157
_publ_section_title
;
Structure prediction by ZEFSAII (Michael W. Deem and Ramdas Pophale) SiO2 
 PCOD9536157
Probable space group: I M M A
;
_chemical_formula_sum "Si O2"
_cell_formula_units_Z 80
_cell_length_a 18.348058
_cell_length_b 8.804957
_cell_length_c 28.165350
_cell_angle_alpha 90.000000
_cell_angle_beta 90.000000
_cell_angle_gamma 90.000000
_cell_volume 4550.221059
_symmetry_space_group_name_H-M "I M M A"
_symmetry_group_IT_number 74
_symmetry_cell_setting 'orthorhombic'
loop_
_space_group_symop_operation_xyz
x,y,z
-x,1/2-y,z
x,-y,-z
-x,1/2+y,-z
-x,-y,-z
x,1/2+y,-z
-x,y,z
x,1/2-y,z
1/2+x,1/2+y,1/2+z
1/2-x,-y,1/2+z
1/2+x,1/2-y,1/2-z
1/2-x,y,1/2-z
1/2-x,1/2-y,1/2-z
1/2+x,y,1/2-z
1/2-x,1/2+y,1/2+z
1/2+x,-y,1/2+z
loop_
_atom_site_type_symbol
_atom_site_label
_atom_site_fract_x
_atom_site_fract_y
_atom_site_fract_z
Si Si1 0.269545 0.430344 0.947448
Si Si2 0.797782 0.929840 0.860639
Si Si3 0.188687 0.078453 0.708760
Si Si4 0.415530 0.567498 0.718523
Si Si5 0.579412 0.067669 0.053227
O O1 0.272879 0.250000 0.951059
O O2 0.208653 0.484002 0.910365
O O3 0.347060 0.493407 0.927638
O O4 0.259269 0.500000 0.000000
O O5 0.800285 0.750000 0.868736
O O6 0.866019 0.974150 0.827147
O O7 0.725807 0.973436 0.830536
O O8 0.176758 0.250000 0.690965
O O9 0.250000 0.085513 0.750000
O O10 0.118615 0.010537 0.734995
O O11 0.500000 0.528868 0.712026
O O12 0.408893 0.750000 0.723967
O O13 0.500000 0.034232 0.075784
O O14 0.587606 0.250000 0.051294
O O15 0.575835 0.000000 0.000000
#
# Coordination Sequence:
#
# PCOD9536157 Si02
#       5
#    16  16  16  16  16
#     4  11  21  33  50  72 100 134 175 218 257 301
#     4  10  19  33  53  75 102 135 170 209 253 301
#     4   9  17  30  49  74 102 130 161 198 242 294
#     4   9  18  33  54  79 105 134 167 204 251 307
#     4   9  16  27  44  65  89 118 154 196 242 290
#
# _framework density 17.581564
#
# number of rings (size 3 to 8) (size 9 to 14) (size 15 to 20)
#    0.000    2.400    0.000    4.800    0.000    4.800 
#    0.000    1.000    0.000    6.600    0.000    0.000 
#    0.000    0.000    0.000    0.000    0.000    0.000 
#
# Total GULP energy -222915.835590 kJ/mol
# GULP energy per Si atom -5572.895890 kJ/mol
# Density = 1.754155 g / cm^3
# Si number density = 17.581564 Si / 1000 Ang^3
#
#
#
# Elastic Constant Matrix: (Units=GPa)
#
#
# Indices 1 2 3 4 5 6 
#
# 1 104.7455 33.7999 35.7553 0.0000 0.0000 0.0000
# 2 33.7999 81.6496 23.4375 0.0000 0.0000 0.0000
# 3 35.7553 23.4375 54.3797 0.0000 0.0000 0.0000
# 4 0.0000 0.0000 0.0000 25.6003 0.0000 0.0000
# 5 0.0000 0.0000 0.0000 0.0000 20.8133 0.0000
# 6 0.0000 0.0000 0.0000 0.0000 0.0000 19.2661
#
#
#
# Elastic Compliance Matrix: (Units=1/GPa)
#
#
# Indices 1 2 3 4 5 6 
#
# 1 0.013070 -0.003359 -0.007146 0.000000 0.000000 0.000000
# 2 -0.003359 0.014840 -0.004187 0.000000 0.000000 0.000000
# 3 -0.007146 -0.004187 0.024892 0.000000 0.000000 0.000000
# 4 0.000000 0.000000 0.000000 0.039062 0.000000 0.000000
# 5 0.000000 0.000000 0.000000 0.000000 0.048046 0.000000
# 6 0.000000 0.000000 0.000000 0.000000 0.000000 0.051905
#
#
# Mechanical properties :
#
#
# Convention : Reuss Voigt Hill
#
# Bulk Modulus (GPa) = 42.70278 47.41781 45.06030
# Shear Modulus (GPa) = 21.83345 22.98810 22.41077
#
# Velocity S-wave (km/s) = 3.52779 3.61988 3.57413
# Velocity P-wave (km/s) = 6.39804 6.67084 6.53586
#
# Compressibility (1/GPa) = 0.02341768
#
# Stress axis : x y z
#
# Youngs Moduli (GPa) = 76.50947 67.38523 40.17286
#
# Poissons Ratio (x) = 0.22637 0.28707
# Poissons Ratio (y) = 0.25702 0.16821
# Poissons Ratio (z) = 0.54674 0.28215
#
# Static dielectric constant tensor:
#      x y z
#    x 1.620580 0.000000 0.000000 
#    y 0.000000 1.596800 0.000000 
#    z 0.000000 0.000000 1.609990 
# 
# From -- ./inp_files/63942.got.cif
#   From: 2010.05.17/outbox.cif.g08.bks.cpg/sg74_32_cif.got.tgz:63942.got - 2010.06.03 17:57:02.
