data_PCOD9536283
_publ_section_title
;
Structure prediction by ZEFSAII (Michael W. Deem and Ramdas Pophale) SiO2 
 PCOD9536283
Probable space group: I M M A
;
_chemical_formula_sum "Si O2"
_cell_formula_units_Z 112
_cell_length_a 20.920146
_cell_length_b 12.066100
_cell_length_c 17.374498
_cell_angle_alpha 90.000000
_cell_angle_beta 90.000000
_cell_angle_gamma 90.000000
_cell_volume 4385.750250
_symmetry_space_group_name_H-M "I M M A"
_symmetry_group_IT_number 74
_symmetry_cell_setting 'orthorhombic'
loop_
_space_group_symop_operation_xyz
x,y,z
-x,1/2-y,z
x,-y,-z
-x,1/2+y,-z
-x,-y,-z
x,1/2+y,-z
-x,y,z
x,1/2-y,z
1/2+x,1/2+y,1/2+z
1/2-x,-y,1/2+z
1/2+x,1/2-y,1/2-z
1/2-x,y,1/2-z
1/2-x,1/2-y,1/2-z
1/2+x,y,1/2-z
1/2-x,1/2+y,1/2+z
1/2+x,-y,1/2+z
loop_
_atom_site_type_symbol
_atom_site_label
_atom_site_fract_x
_atom_site_fract_y
_atom_site_fract_z
Si Si1 0.928570 0.405796 0.408011
Si Si2 0.881780 0.911634 0.171863
Si Si3 0.788229 0.376270 0.463598
Si Si4 0.072957 0.626388 0.012336
Si Si5 0.889979 0.371266 0.648613
Si Si6 0.072802 0.372754 0.227384
Si Si7 0.251646 0.473204 0.841076
O O1 0.865668 0.374735 0.455293
O O2 0.929009 0.537976 0.397300
O O3 0.914950 0.371078 0.318908
O O4 0.000000 0.369596 0.429759
O O5 0.926591 0.870245 0.105142
O O6 0.898780 0.874550 0.258351
O O7 0.884363 0.044145 0.180893
O O8 0.809253 0.894587 0.144026
O O9 0.771685 0.500000 0.500000
O O10 0.769597 0.250000 0.487958
O O11 0.757865 0.407159 0.380837
O O12 0.098813 0.750000 0.988409
O O13 0.000000 0.621127 0.982020
O O14 0.101418 0.500000 0.000000
O O15 0.903677 0.250000 0.620796
O O16 0.815990 0.405559 0.638651
O O17 0.077136 0.250000 0.197414
O O18 0.000000 0.413595 0.219614
O O19 0.250000 0.489240 0.750000
#
# Coordination Sequence:
#
# PCOD9536283 Si02
#       7
#    16  16  16  16  16  16  16
#     4   9  19  36  58  85 116 154 201 245 289 350
#     4  10  19  33  55  84 111 145 191 238 292 359
#     4  11  25  44  64  89 125 166 206 257 318 375
#     4  10  22  39  56  76 107 147 191 241 295 351
#     4   9  18  33  54  84 122 155 185 235 302 361
#     4   9  17  30  52  84 118 146 177 229 293 351
#     4   9  21  39  61  90 120 156 203 255 305 360
#
# _framework density 25.53725
#
# number of rings (size 3 to 8) (size 9 to 14) (size 15 to 20)
#    0.000    2.429    0.000    2.143    0.000    9.429 
#    0.000    2.857    0.000    0.000    0.000    0.000 
#    0.000    0.000    0.000    0.000    0.000    0.000 
#
# Total GULP energy -312366.368358 kJ/mol
# GULP energy per Si atom -5577.970864 kJ/mol
# Density = 2.547913 g / cm^3
# Si number density = 25.537250 Si / 1000 Ang^3
#
#
#
# Elastic Constant Matrix: (Units=GPa)
#
#
# Indices 1 2 3 4 5 6 
#
# 1 71.5197 14.8872 -1.2670 0.0000 0.0000 0.0000
# 2 14.8872 215.7449 23.7276 0.0000 0.0000 0.0000
# 3 -1.2670 23.7276 46.3656 0.0000 0.0000 0.0000
# 4 0.0000 0.0000 0.0000 -55.5789 0.0000 0.0000
# 5 0.0000 0.0000 0.0000 0.0000 17.5055 0.0000
# 6 0.0000 0.0000 0.0000 0.0000 0.0000 15.0114
#
#
#
# Elastic Compliance Matrix: (Units=1/GPa)
#
#
# Indices 1 2 3 4 5 6 
#
# 1 0.014225 -0.001085 0.000944 0.000000 0.000000 0.000000
# 2 -0.001085 0.004994 -0.002586 0.000000 0.000000 0.000000
# 3 0.000944 -0.002586 0.022917 0.000000 0.000000 0.000000
# 4 0.000000 0.000000 0.000000 -0.017992 0.000000 0.000000
# 5 0.000000 0.000000 0.000000 0.000000 0.057125 0.000000
# 6 0.000000 0.000000 0.000000 0.000000 0.000000 0.066616
#
#
# Mechanical properties :
#
#
# Convention : Reuss Voigt Hill
#
# Bulk Modulus (GPa) = 27.26108 45.36953 36.31531
# Shear Modulus (GPa) = 30.19957 15.13976 22.66966
#
# Velocity S-wave (km/s) = 3.44258 2.43749 2.98268
# Velocity P-wave (km/s) = 5.14782 5.07212 5.11011
#
# Compressibility (1/GPa) = 0.03668233
#
# Stress axis : x y z
#
# Youngs Moduli (GPa) = 70.29962 200.22607 43.63638
#
# Poissons Ratio (x) = 0.21733 -0.04120
# Poissons Ratio (y) = 0.07630 0.11282
# Poissons Ratio (z) = -0.06637 0.51769
#
# Static dielectric constant tensor:
#      x y z
#    x 2.086850 0.000000 0.000000 
#    y 0.000000 2.040550 0.000000 
#    z 0.000000 0.000000 2.135180 
# 
# From -- ./inp_files/54726.got.cif
#   From: 2010.05.17/outbox.cif.g08.bks.cpg/sg74_28_cif.got.tgz:54726.got - 2010.06.03 17:57:02.
