data_PCOD9536088
_publ_section_title
;
Structure prediction by ZEFSAII (Michael W. Deem and Ramdas Pophale) SiO2 
 PCOD9536088
Probable space group: I M M A
;
_chemical_formula_sum "Si O2"
_cell_formula_units_Z 80
_cell_length_a 24.060967
_cell_length_b 8.755381
_cell_length_c 26.685994
_cell_angle_alpha 90.000000
_cell_angle_beta 90.000000
_cell_angle_gamma 90.000000
_cell_volume 5621.749774
_symmetry_space_group_name_H-M "I M M A"
_symmetry_group_IT_number 74
_symmetry_cell_setting 'orthorhombic'
loop_
_space_group_symop_operation_xyz
x,y,z
-x,1/2-y,z
x,-y,-z
-x,1/2+y,-z
-x,-y,-z
x,1/2+y,-z
-x,y,z
x,1/2-y,z
1/2+x,1/2+y,1/2+z
1/2-x,-y,1/2+z
1/2+x,1/2-y,1/2-z
1/2-x,y,1/2-z
1/2-x,1/2-y,1/2-z
1/2+x,y,1/2-z
1/2-x,1/2+y,1/2+z
1/2+x,-y,1/2+z
loop_
_atom_site_type_symbol
_atom_site_label
_atom_site_fract_x
_atom_site_fract_y
_atom_site_fract_z
Si Si1 0.000000 0.933024 0.601793
Si Si2 0.316372 0.565791 0.856753
Si Si3 0.500000 0.067937 0.221370
Si Si4 0.882395 0.569174 0.261643
Si Si5 0.612985 0.432853 0.944714
Si Si6 0.710530 0.926140 0.700642
O O1 0.000000 0.750000 0.594314
O O2 0.000000 0.962808 0.661389
O O3 0.945277 0.004612 0.577193
O O4 0.320079 0.750000 0.858434
O O5 0.354973 0.508028 0.810963
O O6 0.339651 0.492833 0.907112
O O7 0.252705 0.524337 0.843043
O O8 0.500000 0.250000 0.228044
O O9 0.444113 0.996056 0.243477
O O10 0.883438 0.750000 0.268878
O O11 0.842504 0.525219 0.215292
O O12 0.611958 0.250000 0.945875
O O13 0.620674 0.500000 0.000000
O O14 0.693745 0.750000 0.692621
O O15 0.750000 0.927983 0.750000
#
# Coordination Sequence:
#
# PCOD9536088 Si02
#       6
#     8  16   8  16  16  16
#     4  11  22  36  51  63  83 117 154 193 233 273
#     4  10  19  33  49  65  86 114 148 184 224 269
#     4  11  21  32  48  63  88 123 153 186 227 270
#     4  11  20  29  45  68  91 113 146 185 223 266
#     4  12  24  36  50  66  87 114 150 194 235 274
#     4   8  16  30  47  64  86 114 143 176 218 268
#
# _framework density 14.230446000000001
#
# number of rings (size 3 to 8) (size 9 to 14) (size 15 to 20)
#    0.000    1.600    2.000    6.300    0.000    5.200 
#    0.000    0.000    0.000    0.000    0.000    0.000 
#    0.000    0.000    0.000    0.900    0.000   12.000 
#
# Total GULP energy -223269.160397 kJ/mol
# GULP energy per Si atom -5581.729010 kJ/mol
# Density = 1.419806 g / cm^3
# Si number density = 14.230446 Si / 1000 Ang^3
#
#
#
# Elastic Constant Matrix: (Units=GPa)
#
#
# Indices 1 2 3 4 5 6 
#
# 1 110.3270 59.2603 56.5947 0.0000 0.0000 0.0000
# 2 59.2603 95.6894 40.9226 0.0000 0.0000 0.0000
# 3 56.5947 40.9226 65.8388 0.0000 0.0000 0.0000
# 4 0.0000 0.0000 0.0000 19.7829 0.0000 0.0000
# 5 0.0000 0.0000 0.0000 0.0000 10.9590 0.0000
# 6 0.0000 0.0000 0.0000 0.0000 0.0000 69.0439
#
#
#
# Elastic Compliance Matrix: (Units=1/GPa)
#
#
# Indices 1 2 3 4 5 6 
#
# 1 0.018719 -0.006417 -0.012102 0.000000 0.000000 0.000000
# 2 -0.006417 0.016434 -0.004699 0.000000 0.000000 0.000000
# 3 -0.012102 -0.004699 0.028512 0.000000 0.000000 0.000000
# 4 0.000000 0.000000 0.000000 0.050549 0.000000 0.000000
# 5 0.000000 0.000000 0.000000 0.000000 0.091249 0.000000
# 6 0.000000 0.000000 0.000000 0.000000 0.000000 0.014484
#
#
# Mechanical properties :
#
#
# Convention : Reuss Voigt Hill
#
# Bulk Modulus (GPa) = 58.04050 65.04559 61.54305
# Shear Modulus (GPa) = 18.37396 27.62900 23.00148
#
# Velocity S-wave (km/s) = 3.59719 4.41107 4.02476
# Velocity P-wave (km/s) = 7.62415 8.47062 8.05851
#
# Compressibility (1/GPa) = 0.01722935
#
# Stress axis : x y z
#
# Youngs Moduli (GPa) = 53.42256 60.84984 35.07306
#
# Poissons Ratio (x) = 0.39047 0.42445
# Poissons Ratio (y) = 0.34281 0.16480
# Poissons Ratio (z) = 0.64652 0.28591
#
# Static dielectric constant tensor:
#      x y z
#    x 1.473140 0.000000 0.000000 
#    y 0.000000 1.471410 0.000000 
#    z 0.000000 0.000000 1.455180 
# 
# From -- ./inp_files/64184.got.cif
#   From: 2010.05.17/outbox.cif.g08.bks.cpg/sg74_33_cif.got.tgz:64184.got - 2010.06.03 17:57:02.
