data_PCOD9536246
_publ_section_title
;
Structure prediction by ZEFSAII (Michael W. Deem and Ramdas Pophale) SiO2 
 PCOD9536246
Probable space group: I M M A
;
_chemical_formula_sum "Si O2"
_cell_formula_units_Z 112
_cell_length_a 28.906151
_cell_length_b 14.842751
_cell_length_c 14.218449
_cell_angle_alpha 90.000000
_cell_angle_beta 90.000000
_cell_angle_gamma 90.000000
_cell_volume 6100.380068
_symmetry_space_group_name_H-M "I M M A"
_symmetry_group_IT_number 74
_symmetry_cell_setting 'orthorhombic'
loop_
_space_group_symop_operation_xyz
x,y,z
-x,1/2-y,z
x,-y,-z
-x,1/2+y,-z
-x,-y,-z
x,1/2+y,-z
-x,y,z
x,1/2-y,z
1/2+x,1/2+y,1/2+z
1/2-x,-y,1/2+z
1/2+x,1/2-y,1/2-z
1/2-x,y,1/2-z
1/2-x,1/2-y,1/2-z
1/2+x,y,1/2-z
1/2-x,1/2+y,1/2+z
1/2+x,-y,1/2+z
loop_
_atom_site_type_symbol
_atom_site_label
_atom_site_fract_x
_atom_site_fract_y
_atom_site_fract_z
Si Si1 0.135280 0.140077 0.066848
Si Si2 0.051304 0.020713 0.110710
Si Si3 0.322555 0.143052 0.628137
Si Si4 0.351412 0.142419 0.832689
Si Si5 0.230245 0.146969 0.156871
Si Si6 0.272191 0.600763 0.029377
Si Si7 0.053037 0.354808 0.747624
O O1 0.131917 0.250000 0.067807
O O2 0.091982 0.093620 0.116476
O O3 0.182236 0.108985 0.118585
O O4 0.144916 0.111310 0.958118
O O5 0.000000 0.055234 0.138283
O O6 0.058517 0.929072 0.170420
O O7 0.049506 0.000000 0.000000
O O8 0.331029 0.250000 0.633387
O O9 0.333120 0.106828 0.731628
O O10 0.269323 0.131637 0.597457
O O11 0.343700 0.250000 0.835826
O O12 0.320802 0.105997 0.917755
O O13 0.406609 0.127764 0.828169
O O14 0.218414 0.250000 0.182109
O O15 0.250000 0.101221 0.250000
O O16 0.266074 0.150027 0.070461
O O17 0.262079 0.500000 0.000000
O O18 0.059517 0.250000 0.780561
O O19 0.000000 0.361380 0.713466
#
# Coordination Sequence:
#
# PCOD9536246 Si02
#       7
#    16  16  16  16  16  16  16
#     4   9  18  32  50  74 103 135 171 209 251 301
#     4  10  20  31  46  70 100 136 172 206 249 303
#     4   9  18  33  51  71  99 135 169 204 250 296
#     4  10  19  33  55  76  97 130 168 212 261 304
#     4   9  19  36  53  68  94 134 171 200 235 285
#     4  11  22  31  45  74 105 129 162 204 246 299
#     4   9  19  35  53  74  99 129 170 220 273 320
#
# _framework density 18.359511000000001
#
# number of rings (size 3 to 8) (size 9 to 14) (size 15 to 20)
#    0.000    2.429    0.000    3.429    0.000   10.000 
#    0.000    1.429    0.000    0.429    0.000    1.000 
#    0.000    3.429    0.000    0.000    0.000    0.286 
#
# Total GULP energy -312032.652450 kJ/mol
# GULP energy per Si atom -5572.011651 kJ/mol
# Density = 1.831772 g / cm^3
# Si number density = 18.359511 Si / 1000 Ang^3
#
#
#
# Elastic Constant Matrix: (Units=GPa)
#
#
# Indices 1 2 3 4 5 6 
#
# 1 133.1965 21.8853 64.7578 0.0000 0.0000 0.0000
# 2 21.8853 38.7342 11.3367 0.0000 0.0000 0.0000
# 3 64.7578 11.3367 73.4117 0.0000 0.0000 0.0000
# 4 0.0000 0.0000 0.0000 -12.3852 0.0000 0.0000
# 5 0.0000 0.0000 0.0000 0.0000 23.3113 0.0000
# 6 0.0000 0.0000 0.0000 0.0000 0.0000 26.9546
#
#
#
# Elastic Compliance Matrix: (Units=1/GPa)
#
#
# Indices 1 2 3 4 5 6 
#
# 1 0.013840 -0.004448 -0.011522 0.000000 0.000000 0.000000
# 2 -0.004448 0.028468 -0.000473 0.000000 0.000000 0.000000
# 3 -0.011522 -0.000473 0.023858 0.000000 0.000000 0.000000
# 4 0.000000 0.000000 0.000000 -0.080741 0.000000 0.000000
# 5 0.000000 0.000000 0.000000 0.000000 0.042898 0.000000
# 6 0.000000 0.000000 0.000000 0.000000 0.000000 0.037099
#
#
# Mechanical properties :
#
#
# Convention : Reuss Voigt Hill
#
# Bulk Modulus (GPa) = 30.04613 49.03355 39.53984
# Shear Modulus (GPa) = 45.70320 17.40031 31.55176
#
# Velocity S-wave (km/s) = 4.99475 3.08190 4.15004
# Velocity P-wave (km/s) = 7.04729 6.27930 6.67435
#
# Compressibility (1/GPa) = 0.03328215
#
# Stress axis : x y z
#
# Youngs Moduli (GPa) = 72.25322 35.12675 41.91385
#
# Poissons Ratio (x) = 0.15623 0.48293
# Poissons Ratio (y) = 0.32136 0.01982
# Poissons Ratio (z) = 0.83249 0.01661
#
# Static dielectric constant tensor:
#      x y z
#    x 1.677960 0.000000 0.000000 
#    y 0.000000 1.584000 0.000000 
#    z 0.000000 0.000000 1.658030 
# 
# From -- ./inp_files/37391.got.cif
#   From: 2010.05.17/outbox.cif.g08.bks.cpg/sg74_19_cif.got.tgz:37391.got - 2010.06.03 17:57:02.
