data_PCOD9536131
_publ_section_title
;
Structure prediction by ZEFSAII (Michael W. Deem and Ramdas Pophale) SiO2 
 PCOD9536131
Probable space group: I M M A
;
_chemical_formula_sum "Si O2"
_cell_formula_units_Z 80
_cell_length_a 14.451706
_cell_length_b 13.626312
_cell_length_c 22.300852
_cell_angle_alpha 90.000000
_cell_angle_beta 90.000000
_cell_angle_gamma 90.000000
_cell_volume 4391.560823
_symmetry_space_group_name_H-M "I M M A"
_symmetry_group_IT_number 74
_symmetry_cell_setting 'orthorhombic'
loop_
_space_group_symop_operation_xyz
x,y,z
-x,1/2-y,z
x,-y,-z
-x,1/2+y,-z
-x,-y,-z
x,1/2+y,-z
-x,y,z
x,1/2-y,z
1/2+x,1/2+y,1/2+z
1/2-x,-y,1/2+z
1/2+x,1/2-y,1/2-z
1/2-x,y,1/2-z
1/2-x,1/2-y,1/2-z
1/2+x,y,1/2-z
1/2-x,1/2+y,1/2+z
1/2+x,-y,1/2+z
loop_
_atom_site_type_symbol
_atom_site_label
_atom_site_fract_x
_atom_site_fract_y
_atom_site_fract_z
Si Si1 0.608260 0.630550 0.041346
Si Si2 0.648213 0.860672 0.776432
Si Si3 0.895704 0.937182 0.225808
Si Si4 0.107865 0.631869 0.591697
Si Si5 0.218510 0.132525 0.659106
O O1 0.500000 0.603264 0.049607
O O2 0.609591 0.750000 0.042045
O O3 0.671857 0.599233 0.096727
O O4 0.638058 0.598770 0.974346
O O5 0.607992 0.750000 0.774470
O O6 0.750000 0.855047 0.750000
O O7 0.654860 0.894101 0.845773
O O8 0.600216 0.946673 0.739617
O O9 0.852421 0.890129 0.286438
O O10 0.817556 0.914586 0.176054
O O11 0.000000 0.901578 0.213556
O O12 0.113112 0.750000 0.589087
O O13 0.000000 0.605920 0.598672
O O14 0.231557 0.250000 0.656761
#
# Coordination Sequence:
#
# PCOD9536131 Si02
#       5
#    16  16  16  16  16
#     4   8  14  27  49  75 104 135 163 201 256 309
#     4  10  19  33  52  74 104 137 170 207 253 305
#     4  11  21  33  50  73 104 136 172 213 253 298
#     4   8  14  26  47  76 103 128 162 203 253 311
#     4  10  20  34  50  73 105 137 174 212 253 300
#
# _framework density 18.216757999999999
#
# number of rings (size 3 to 8) (size 9 to 14) (size 15 to 20)
#    0.000    2.600    2.000    3.600    0.000    3.600 
#    0.000    1.000    0.000    3.600    0.000    4.200 
#    0.000   16.000    0.000    0.000    0.000    0.000 
#
# Total GULP energy -223028.400106 kJ/mol
# GULP energy per Si atom -5575.710003 kJ/mol
# Density = 1.817530 g / cm^3
# Si number density = 18.216758 Si / 1000 Ang^3
#
#
#
# Elastic Constant Matrix: (Units=GPa)
#
#
# Indices 1 2 3 4 5 6 
#
# 1 128.5339 17.6466 77.5784 0.0000 0.0000 0.0000
# 2 17.6466 90.3165 26.7038 0.0000 0.0000 0.0000
# 3 77.5784 26.7038 153.6241 0.0000 0.0000 0.0000
# 4 0.0000 0.0000 0.0000 23.9251 0.0000 0.0000
# 5 0.0000 0.0000 0.0000 0.0000 15.3182 0.0000
# 6 0.0000 0.0000 0.0000 0.0000 0.0000 -248.7276
#
#
#
# Elastic Compliance Matrix: (Units=1/GPa)
#
#
# Indices 1 2 3 4 5 6 
#
# 1 0.011216 -0.000545 -0.005569 0.000000 0.000000 0.000000
# 2 -0.000545 0.011699 -0.001758 0.000000 0.000000 0.000000
# 3 -0.005569 -0.001758 0.009628 0.000000 0.000000 0.000000
# 4 0.000000 0.000000 0.000000 0.041797 0.000000 0.000000
# 5 0.000000 0.000000 0.000000 0.000000 0.065282 0.000000
# 6 0.000000 0.000000 0.000000 0.000000 0.000000 -0.004020
#
#
# Mechanical properties :
#
#
# Convention : Reuss Voigt Hill
#
# Bulk Modulus (GPa) = 59.53379 68.48134 64.00756
# Shear Modulus (GPa) = 31.85821 -25.19383 3.33219
#
# Velocity S-wave (km/s) = 4.18645 -3.72291 1.35394
# Velocity P-wave (km/s) = 7.49134 4.38110 6.13654
#
# Compressibility (1/GPa) = 0.01679718
#
# Stress axis : x y z
#
# Youngs Moduli (GPa) = 89.15560 85.48087 103.86865
#
# Poissons Ratio (x) = 0.04657 0.57849
# Poissons Ratio (y) = 0.04857 0.18264
# Poissons Ratio (z) = 0.49655 0.15031
#
# Static dielectric constant tensor:
#      x y z
#    x 1.600810 0.000000 0.000000 
#    y 0.000000 1.745700 0.000000 
#    z 0.000000 0.000000 1.632150 
# 
# From -- ./inp_files/51663.got.cif
#   From: 2010.05.17/outbox.cif.g08.bks.cpg/sg74_26_cif.got.tgz:51663.got - 2010.06.03 17:57:02.
