data_PCOD9536606
_publ_section_title
;
Structure prediction by ZEFSAII (Michael W. Deem and Ramdas Pophale) SiO2 
 PCOD9536606
Probable space group: I M M A
;
_chemical_formula_sum "Si O2"
_cell_formula_units_Z 68
_cell_length_a 7.408755
_cell_length_b 22.863952
_cell_length_c 17.306359
_cell_angle_alpha 90.000000
_cell_angle_beta 90.000000
_cell_angle_gamma 90.000000
_cell_volume 2931.583316
_symmetry_space_group_name_H-M "I M M A"
_symmetry_group_IT_number 74
_symmetry_cell_setting 'orthorhombic'
loop_
_space_group_symop_operation_xyz
x,y,z
-x,1/2-y,z
x,-y,-z
-x,1/2+y,-z
-x,-y,-z
x,1/2+y,-z
-x,y,z
x,1/2-y,z
1/2+x,1/2+y,1/2+z
1/2-x,-y,1/2+z
1/2+x,1/2-y,1/2-z
1/2-x,y,1/2-z
1/2-x,1/2-y,1/2-z
1/2+x,y,1/2-z
1/2-x,1/2+y,1/2+z
1/2+x,-y,1/2+z
loop_
_atom_site_type_symbol
_atom_site_label
_atom_site_fract_x
_atom_site_fract_y
_atom_site_fract_z
Si Si1 0.713831 0.416361 0.162151
Si Si2 0.208248 0.843047 0.124394
Si Si3 0.718980 0.313863 0.050279
Si Si4 0.205717 0.029904 0.922361
Si Si5 0.500000 0.250000 0.820813
O O1 0.500000 0.421487 0.151127
O O2 0.750000 0.399964 0.250000
O O3 0.780937 0.366832 0.103571
O O4 0.793474 0.478983 0.140551
O O5 0.277789 0.909919 0.113248
O O6 0.341781 0.801241 0.170294
O O7 0.000000 0.841755 0.153064
O O8 0.210260 0.819747 0.036170
O O9 0.500000 0.316448 0.044924
O O10 0.766833 0.250000 0.082003
O O11 0.000000 0.045733 0.944321
O O12 0.287636 0.000000 0.000000
#
# Coordination Sequence:
#
# PCOD9536606 Si02
#       5
#    16  16  16  16   4
#     4  11  24  38  58  82 121 165 207 254 303 359
#     4  11  21  34  58  89 120 160 197 249 306 358
#     4  10  19  35  55  81 118 161 207 250 295 355
#     4  10  21  37  60  88 118 151 202 258 304 360
#     4  12  22  36  54  86 136 148 196 252 298 378
#
# _framework density 23.195658000000002
#
# number of rings (size 3 to 8) (size 9 to 14) (size 15 to 20)
#    0.000    1.412    4.706    1.059    1.647    1.882 
#    0.000    0.000    0.000    0.000    0.000    0.824 
#    0.000    0.000    0.000    0.000    0.000    0.000 
#
# Total GULP energy -189613.971080 kJ/mol
# GULP energy per Si atom -5576.881502 kJ/mol
# Density = 2.314286 g / cm^3
# Si number density = 23.195658 Si / 1000 Ang^3
#
#
#
# Elastic Constant Matrix: (Units=GPa)
#
#
# Indices 1 2 3 4 5 6 
#
# 1 124.2741 42.6859 13.5414 0.0000 0.0000 0.0000
# 2 42.6859 202.6872 25.4998 0.0000 0.0000 0.0000
# 3 13.5414 25.4998 81.2541 -0.0001 0.0001 0.0000
# 4 0.0000 0.0000 -0.0001 -17.1862 0.0001 0.0000
# 5 0.0000 0.0000 0.0001 0.0001 0.6923 0.0000
# 6 0.0000 0.0000 0.0000 0.0000 0.0000 26.6375
#
#
#
# Elastic Compliance Matrix: (Units=1/GPa)
#
#
# Indices 1 2 3 4 5 6 
#
# 1 0.008739 -0.001725 -0.000915 0.000000 0.000000 0.000000
# 2 -0.001725 0.005477 -0.001431 0.000000 0.000000 0.000000
# 3 -0.000915 -0.001431 0.012909 0.000000 -0.000001 0.000000
# 4 0.000000 0.000000 0.000000 -0.058186 0.000005 0.000000
# 5 0.000000 0.000000 -0.000001 0.000005 1.444446 0.000002
# 6 0.000000 0.000000 0.000000 0.000000 0.000002 0.037541
#
#
# Mechanical properties :
#
#
# Convention : Reuss Voigt Hill
#
# Bulk Modulus (GPa) = 52.68235 63.51883 58.10059
# Shear Modulus (GPa) = 3.41205 23.79461 13.60333
#
# Velocity S-wave (km/s) = 1.21416 3.20632 2.42432
# Velocity P-wave (km/s) = 4.97263 6.41488 5.73924
#
# Compressibility (1/GPa) = 0.01898169
#
# Stress axis : x y z
#
# Youngs Moduli (GPa) = 114.42896 182.57700 77.46686
#
# Poissons Ratio (x) = 0.31501 0.07088
# Poissons Ratio (y) = 0.19743 0.11088
# Poissons Ratio (z) = 0.10470 0.26133
#
# Static dielectric constant tensor:
#      x y z
#    x 1.961370 0.000000 0.000000 
#    y 0.000000 1.915530 0.000000 
#    z 0.000000 0.000000 1.857350 
# 
# From -- ./inp_files/39201.got.cif
#   From: 2010.05.17/outbox.cif.g08.bks.cpg/sg74_20_cif.got.tgz:39201.got - 2010.06.03 17:57:02.
