data_PCOD9536883
_publ_section_title
;
Structure prediction by ZEFSAII (Michael W. Deem and Ramdas Pophale) SiO2 
 PCOD9536883
Probable space group: I M M A
;
_chemical_formula_sum "Si O2"
_cell_formula_units_Z 88
_cell_length_a 26.528295
_cell_length_b 10.329565
_cell_length_c 18.040369
_cell_angle_alpha 90.000000
_cell_angle_beta 90.000000
_cell_angle_gamma 90.000000
_cell_volume 4943.525601
_symmetry_space_group_name_H-M "I M M A"
_symmetry_group_IT_number 74
_symmetry_cell_setting 'orthorhombic'
loop_
_space_group_symop_operation_xyz
x,y,z
-x,1/2-y,z
x,-y,-z
-x,1/2+y,-z
-x,-y,-z
x,1/2+y,-z
-x,y,z
x,1/2-y,z
1/2+x,1/2+y,1/2+z
1/2-x,-y,1/2+z
1/2+x,1/2-y,1/2-z
1/2-x,y,1/2-z
1/2-x,1/2-y,1/2-z
1/2+x,y,1/2-z
1/2-x,1/2+y,1/2+z
1/2+x,-y,1/2+z
loop_
_atom_site_type_symbol
_atom_site_label
_atom_site_fract_x
_atom_site_fract_y
_atom_site_fract_z
Si Si1 0.218864 0.402857 0.175947
Si Si2 0.939787 0.250000 0.907319
Si Si3 0.940150 0.250000 0.084518
Si Si4 0.595252 0.597999 0.825888
Si Si5 0.689350 0.099011 0.067229
Si Si6 0.000000 0.598598 0.567807
Si Si7 0.607477 0.496838 0.334477
O O1 0.205174 0.250000 0.184140
O O2 0.250000 0.438251 0.250000
O O3 0.256788 0.415356 0.107165
O O4 0.168024 0.482799 0.165477
O O5 0.913905 0.375103 0.871716
O O6 0.000000 0.250000 0.893255
O O7 0.932725 0.250000 0.996066
O O8 0.915351 0.375878 0.120783
O O9 0.000000 0.250000 0.099432
O O10 0.595404 0.750000 0.803850
O O11 0.646597 0.573884 0.870911
O O12 0.548958 0.577816 0.881301
O O13 0.591508 0.516164 0.751379
O O14 0.683580 0.250000 0.044078
O O15 0.683799 0.000000 0.000000
O O16 0.000000 0.500000 0.500000
O O17 0.000000 0.750000 0.543751
#
# Coordination Sequence:
#
# PCOD9536883 Si02
#       7
#    16   8   8  16  16   8  16
#     4  10  19  38  65  92 120 159 213 265 306 356
#     4  11  28  46  59  96 140 162 193 271 336 376
#     4  11  24  42  71  92 120 168 217 257 316 390
#     4  10  20  37  64  91 117 162 214 254 295 371
#     4  10  21  38  60  88 125 163 207 254 312 371
#     4  10  22  38  58  90 123 157 206 254 301 361
#     4  12  22  42  68  93 123 165 214 256 314 376
#
# _framework density 17.801061000000001
#
# number of rings (size 3 to 8) (size 9 to 14) (size 15 to 20)
#    0.000    1.455    3.636    1.636    2.545    2.909 
#    4.909    0.455    0.000    0.000    0.000    0.000 
#    0.000    0.000    0.000    0.000    0.000    0.000 
#
# Total GULP energy -245841.617249 kJ/mol
# GULP energy per Si atom -5587.309483 kJ/mol
# Density = 1.776054 g / cm^3
# Si number density = 17.801061 Si / 1000 Ang^3
#
#
#
# Elastic Constant Matrix: (Units=GPa)
#
#
# Indices 1 2 3 4 5 6 
#
# 1 133.4841 65.5551 61.7031 0.0000 0.0000 0.0000
# 2 65.5551 126.4985 80.2468 0.0000 0.0000 0.0000
# 3 61.7031 80.2468 116.9287 0.0000 0.0000 0.0000
# 4 0.0000 0.0000 0.0000 40.3526 0.0000 0.0000
# 5 0.0000 0.0000 0.0000 0.0000 23.6478 0.0000
# 6 0.0000 0.0000 0.0000 0.0000 0.0000 22.8317
#
#
#
# Elastic Compliance Matrix: (Units=1/GPa)
#
#
# Indices 1 2 3 4 5 6 
#
# 1 0.010709 -0.003480 -0.003263 0.000000 0.000000 0.000000
# 2 -0.003480 0.015131 -0.008548 0.000000 0.000000 0.000000
# 3 -0.003263 -0.008548 0.016141 0.000000 0.000000 0.000000
# 4 0.000000 0.000000 0.000000 0.024782 0.000000 0.000000
# 5 0.000000 0.000000 0.000000 0.000000 0.042287 0.000000
# 6 0.000000 0.000000 0.000000 0.000000 0.000000 0.043799
#
#
# Mechanical properties :
#
#
# Convention : Reuss Voigt Hill
#
# Bulk Modulus (GPa) = 87.72702 87.99124 87.85913
# Shear Modulus (GPa) = 26.70527 28.66018 27.68273
#
# Velocity S-wave (km/s) = 3.87745 4.01687 3.94777
# Velocity P-wave (km/s) = 8.33277 8.42919 8.38112
#
# Compressibility (1/GPa) = 0.01139900
#
# Stress axis : x y z
#
# Youngs Moduli (GPa) = 93.38205 66.08878 61.95580
#
# Poissons Ratio (x) = 0.22997 0.20216
# Poissons Ratio (y) = 0.32494 0.52961
# Poissons Ratio (z) = 0.30470 0.56494
#
# Static dielectric constant tensor:
#      x y z
#    x 1.607170 0.000000 0.000000 
#    y 0.000000 1.584260 0.000000 
#    z 0.000000 0.000000 1.585730 
# 
# From -- ./inp_files/37259.got.cif
#   From: 2010.05.17/outbox.cif.g08.bks.cpg/sg74_19_cif.got.tgz:37259.got - 2010.06.03 17:57:02.
