data_PCOD9536250
_publ_section_title
;
Structure prediction by ZEFSAII (Michael W. Deem and Ramdas Pophale) SiO2 
 PCOD9536250
Probable space group: I M M A
;
_chemical_formula_sum "Si O2"
_cell_formula_units_Z 80
_cell_length_a 16.181505
_cell_length_b 12.958053
_cell_length_c 17.960413
_cell_angle_alpha 90.000000
_cell_angle_beta 90.000000
_cell_angle_gamma 90.000000
_cell_volume 3765.953756
_symmetry_space_group_name_H-M "I M M A"
_symmetry_group_IT_number 74
_symmetry_cell_setting 'orthorhombic'
loop_
_space_group_symop_operation_xyz
x,y,z
-x,1/2-y,z
x,-y,-z
-x,1/2+y,-z
-x,-y,-z
x,1/2+y,-z
-x,y,z
x,1/2-y,z
1/2+x,1/2+y,1/2+z
1/2-x,-y,1/2+z
1/2+x,1/2-y,1/2-z
1/2-x,y,1/2-z
1/2-x,1/2-y,1/2-z
1/2+x,y,1/2-z
1/2-x,1/2+y,1/2+z
1/2+x,-y,1/2+z
loop_
_atom_site_type_symbol
_atom_site_label
_atom_site_fract_x
_atom_site_fract_y
_atom_site_fract_z
Si Si1 0.827099 0.364312 0.192375
Si Si2 0.653432 0.050183 0.926346
Si Si3 0.843022 0.952716 0.075081
Si Si4 0.147587 0.250000 0.663256
Si Si5 0.906538 0.864896 0.660641
Si Si6 0.350777 0.750000 0.337587
O O1 0.822079 0.250000 0.157605
O O2 0.750000 0.373434 0.250000
O O3 0.835881 0.455151 0.134384
O O4 0.902485 0.367028 0.250387
O O5 0.748173 0.077873 0.945909
O O6 0.619178 0.149266 0.882923
O O7 0.649927 0.954721 0.870204
O O8 0.613600 0.000000 0.000000
O O9 0.877790 0.852246 0.117233
O O10 0.882127 0.000000 0.000000
O O11 0.249089 0.250000 0.664932
O O12 0.122484 0.250000 0.750498
O O13 0.879851 0.750000 0.636509
O O14 0.000000 0.881418 0.635195
#
# Coordination Sequence:
#
# PCOD9536250 Si02
#       6
#    16  16  16   8  16   8
#     4  10  19  33  55  79 104 137 178 224 262 313
#     4  10  20  32  51  76 108 143 177 219 261 311
#     4  10  20  31  51  80 111 136 175 220 273 320
#     4   9  18  32  49  74 101 143 183 212 259 319
#     4  10  21  36  54  77 105 142 179 216 266 321
#     4   9  18  30  48  70 110 144 166 215 274 321
#
# _framework density 21.242958999999999
#
# number of rings (size 3 to 8) (size 9 to 14) (size 15 to 20)
#    0.000    2.200    2.000    1.200    5.600    0.400 
#    0.000    0.500    0.000    0.600    0.000    0.000 
#    0.000    0.000    0.000    0.000    0.000    0.000 
#
# Total GULP energy -222850.508631 kJ/mol
# GULP energy per Si atom -5571.262716 kJ/mol
# Density = 2.119461 g / cm^3
# Si number density = 21.242959 Si / 1000 Ang^3
#
#
#
# Elastic Constant Matrix: (Units=GPa)
#
#
# Indices 1 2 3 4 5 6 
#
# 1 20.9704 -2.7860 -2.9113 0.0000 0.0000 0.0000
# 2 -2.7860 193.6417 105.2157 0.0000 0.0000 0.0000
# 3 -2.9113 105.2157 136.8212 0.0000 0.0000 0.0000
# 4 0.0000 0.0000 0.0000 37.7266 0.0000 0.0000
# 5 0.0000 0.0000 0.0000 0.0000 4.0315 0.0000
# 6 0.0000 0.0000 0.0000 0.0000 0.0000 1.4687
#
#
#
# Elastic Compliance Matrix: (Units=1/GPa)
#
#
# Indices 1 2 3 4 5 6 
#
# 1 0.047834 0.000232 0.000839 0.000000 0.000000 0.000000
# 2 0.000232 0.008872 -0.006817 0.000000 0.000000 0.000000
# 3 0.000839 -0.006817 0.012569 0.000000 0.000000 0.000000
# 4 0.000000 0.000000 0.000000 0.026506 0.000000 0.000000
# 5 0.000000 0.000000 0.000000 0.000000 0.248045 0.000000
# 6 0.000000 0.000000 0.000000 0.000000 0.000000 0.680864
#
#
# Mechanical properties :
#
#
# Convention : Reuss Voigt Hill
#
# Bulk Modulus (GPa) = 17.30622 61.16334 39.23478
# Shear Modulus (GPa) = 4.73735 25.43970 15.08852
#
# Velocity S-wave (km/s) = 1.49496 3.46433 2.66801
# Velocity P-wave (km/s) = 3.33832 6.69753 5.29156
#
# Compressibility (1/GPa) = 0.05778270
#
# Stress axis : x y z
#
# Youngs Moduli (GPa) = 20.90579 112.71642 79.55874
#
# Poissons Ratio (x) = -0.02617 -0.06677
# Poissons Ratio (y) = -0.00485 0.54239
# Poissons Ratio (z) = -0.01755 0.76844
#
# Static dielectric constant tensor:
#      x y z
#    x 1.815150 0.000000 0.000000 
#    y 0.000000 1.764570 0.000000 
#    z 0.000000 0.000000 1.881870 
# 
# From -- ./inp_files/45069.got.cif
#   From: 2010.05.17/outbox.cif.g08.bks.cpg/sg74_23_cif.got.tgz:45069.got - 2010.06.03 17:57:02.
