data_PCOD9536710
_publ_section_title
;
Structure prediction by ZEFSAII (Michael W. Deem and Ramdas Pophale) SiO2 
 PCOD9536710
Probable space group: I M M A
;
_chemical_formula_sum "Si O2"
_cell_formula_units_Z 96
_cell_length_a 13.761640
_cell_length_b 23.896746
_cell_length_c 14.803859
_cell_angle_alpha 90.000000
_cell_angle_beta 90.000000
_cell_angle_gamma 90.000000
_cell_volume 4868.373616
_symmetry_space_group_name_H-M "I M M A"
_symmetry_group_IT_number 74
_symmetry_cell_setting 'orthorhombic'
loop_
_space_group_symop_operation_xyz
x,y,z
-x,1/2-y,z
x,-y,-z
-x,1/2+y,-z
-x,-y,-z
x,1/2+y,-z
-x,y,z
x,1/2-y,z
1/2+x,1/2+y,1/2+z
1/2-x,-y,1/2+z
1/2+x,1/2-y,1/2-z
1/2-x,y,1/2-z
1/2-x,1/2-y,1/2-z
1/2+x,y,1/2-z
1/2-x,1/2+y,1/2+z
1/2+x,-y,1/2+z
loop_
_atom_site_type_symbol
_atom_site_label
_atom_site_fract_x
_atom_site_fract_y
_atom_site_fract_z
Si Si1 0.384346 0.128989 0.336022
Si Si2 0.614979 0.410413 0.013174
Si Si3 0.883585 0.814644 0.026331
Si Si4 0.715396 0.518439 0.596202
Si Si5 0.882726 0.187558 0.349898
Si Si6 0.745235 0.603244 0.351950
O O1 0.500000 0.120718 0.331689
O O2 0.364502 0.168153 0.422405
O O3 0.336070 0.069382 0.354454
O O4 0.354135 0.157861 0.243110
O O5 0.500000 0.421913 0.015292
O O6 0.678919 0.457027 0.066059
O O7 0.636745 0.353120 0.066823
O O8 0.656826 0.401928 0.912414
O O9 0.855978 0.750000 0.042249
O O10 0.826661 0.857983 0.089674
O O11 0.000000 0.819672 0.040424
O O12 0.668654 0.500000 0.500000
O O13 0.712743 0.461576 0.651871
O O14 0.842570 0.250000 0.358654
O O15 0.000000 0.191954 0.345769
O O16 0.750000 0.624873 0.250000
#
# Coordination Sequence:
#
# PCOD9536710 Si02
#       6
#    16  16  16  16  16  16
#     4  10  19  35  61  93 128 163 197 245 307 371
#     4  10  22  42  62  87 125 167 209 255 305 363
#     4  10  21  40  64  90 122 158 201 255 315 372
#     4  10  21  39  58  88 123 163 206 253 303 367
#     4   9  19  36  60  93 128 162 201 243 299 377
#     4  11  25  42  62  88 120 159 211 265 309 362
#
# _framework density 19.719111000000002
#
# number of rings (size 3 to 8) (size 9 to 14) (size 15 to 20)
#    0.000    2.000    3.333    0.500    2.333    7.667 
#    0.000    0.833    0.000    2.000    0.000    0.000 
#    0.000    0.000    0.000    0.000    0.000    0.000 
#
# Total GULP energy -267980.430440 kJ/mol
# GULP energy per Si atom -5582.925634 kJ/mol
# Density = 1.967423 g / cm^3
# Si number density = 19.719111 Si / 1000 Ang^3
#
#
#
# Elastic Constant Matrix: (Units=GPa)
#
#
# Indices 1 2 3 4 5 6 
#
# 1 76.9114 24.4547 -2.2369 0.0000 -0.0002 0.0000
# 2 24.4547 144.3834 23.7086 0.0002 -0.0006 0.0000
# 3 -2.2369 23.7086 78.6560 0.0002 -0.0006 0.0000
# 4 0.0000 0.0002 0.0002 15.0757 -0.0004 0.0000
# 5 -0.0002 -0.0006 -0.0006 -0.0004 -340.9201 0.0000
# 6 0.0000 0.0000 0.0000 0.0000 0.0000 26.0639
#
#
#
# Elastic Compliance Matrix: (Units=1/GPa)
#
#
# Indices 1 2 3 4 5 6 
#
# 1 0.013842 -0.002534 0.001158 0.000000 0.000000 0.000000
# 2 -0.002534 0.007751 -0.002408 0.000000 0.000000 0.000000
# 3 0.001158 -0.002408 0.013472 0.000000 0.000000 0.000000
# 4 0.000000 0.000000 0.000000 0.066332 0.000000 0.000000
# 5 0.000000 0.000000 0.000000 0.000000 -0.002933 0.000000
# 6 0.000000 0.000000 0.000000 0.000000 0.000000 0.038367
#
#
# Mechanical properties :
#
#
# Convention : Reuss Voigt Hill
#
# Bulk Modulus (GPa) = 36.37120 43.53371 39.95246
# Shear Modulus (GPa) = 32.55935 -43.02114 -5.23090
#
# Velocity S-wave (km/s) = 4.06785 -4.67593 -1.63048
# Velocity P-wave (km/s) = 6.36772 2.65096 4.09392
#
# Compressibility (1/GPa) = 0.02749428
#
# Stress axis : x y z
#
# Youngs Moduli (GPa) = 72.24649 129.02008 74.22568
#
# Poissons Ratio (x) = 0.32700 -0.08592
# Poissons Ratio (y) = 0.18311 0.17876
# Poissons Ratio (z) = -0.08363 0.31072
#
# Static dielectric constant tensor:
#      x y z
#    x 1.725750 0.000000 0.000000 
#    y 0.000000 1.689100 0.000000 
#    z 0.000000 0.000000 1.705670 
# 
# From -- ./inp_files/32343.got.cif
#   From: 2010.05.17/outbox.cif.g08.bks.cpg/sg74_17_cif.got.tgz:32343.got - 2010.06.03 17:57:02.
