data_PCOD9536196
_publ_section_title
;
Structure prediction by ZEFSAII (Michael W. Deem and Ramdas Pophale) SiO2 
 PCOD9536196
Probable space group: I M M A
;
_chemical_formula_sum "Si O2"
_cell_formula_units_Z 116
_cell_length_a 9.507634
_cell_length_b 22.082918
_cell_length_c 26.148347
_cell_angle_alpha 90.000000
_cell_angle_beta 90.000000
_cell_angle_gamma 90.000000
_cell_volume 5490.010239
_symmetry_space_group_name_H-M "I M M A"
_symmetry_group_IT_number 74
_symmetry_cell_setting 'orthorhombic'
loop_
_space_group_symop_operation_xyz
x,y,z
-x,1/2-y,z
x,-y,-z
-x,1/2+y,-z
-x,-y,-z
x,1/2+y,-z
-x,y,z
x,1/2-y,z
1/2+x,1/2+y,1/2+z
1/2-x,-y,1/2+z
1/2+x,1/2-y,1/2-z
1/2-x,y,1/2-z
1/2-x,1/2-y,1/2-z
1/2+x,y,1/2-z
1/2-x,1/2+y,1/2+z
1/2+x,-y,1/2+z
loop_
_atom_site_type_symbol
_atom_site_label
_atom_site_fract_x
_atom_site_fract_y
_atom_site_fract_z
Si Si1 0.333511 0.321501 0.198613
Si Si2 0.000000 0.500000 0.000000
Si Si3 0.835855 0.976503 0.204518
Si Si4 0.156819 0.179687 0.007399
Si Si5 0.264291 0.489101 0.590021
Si Si6 0.658001 0.117574 0.092832
Si Si7 0.161654 0.148619 0.588285
Si Si8 0.831333 0.348575 0.702813
O O1 0.500000 0.329342 0.207813
O O2 0.308657 0.250000 0.187090
O O3 0.250000 0.336464 0.250000
O O4 0.295216 0.361198 0.149255
O O5 0.122731 0.508281 0.044782
O O6 0.750000 0.010180 0.250000
O O7 0.747868 0.913624 0.200185
O O8 0.000000 0.968971 0.218909
O O9 0.830782 0.999506 0.146529
O O10 0.149344 0.250000 0.021593
O O11 0.233758 0.174449 0.953464
O O12 0.000000 0.153169 0.003271
O O13 0.241167 0.144755 0.050349
O O14 0.160752 0.545784 0.585578
O O15 0.189152 0.423807 0.589379
O O16 0.500000 0.141488 0.085802
O O17 0.185577 0.174947 0.645123
O O18 0.000000 0.160052 0.574011
O O19 0.750000 0.317807 0.750000
O O20 0.000000 0.352619 0.712021
#
# Coordination Sequence:
#
# PCOD9536196 Si02
#       8
#    16   4  16  16  16  16  16  16
#     4   9  19  38  63  91 123 166 216 266 321 375
#     4  12  24  40  54  80 122 168 210 258 308 390
#     4  10  19  33  53  81 116 161 209 253 304 359
#     4  11  26  44  64  90 118 153 202 259 315 371
#     4  11  24  38  61  91 127 167 213 255 318 382
#     4  11  24  41  64  91 125 164 208 262 317 381
#     4  10  22  39  63  91 124 163 205 252 306 373
#     4   9  17  30  52  85 120 155 195 238 290 352
#
# _framework density 21.129286
#
# number of rings (size 3 to 8) (size 9 to 14) (size 15 to 20)
#    0.000    1.793    0.690    3.724    3.862    5.517 
#    0.000    4.828    0.000    0.414    0.000    0.000 
#    0.000    0.000    0.000    0.000    0.000    0.000 
#
# Total GULP energy -323245.399551 kJ/mol
# GULP energy per Si atom -5573.196544 kJ/mol
# Density = 2.108120 g / cm^3
# Si number density = 21.129286 Si / 1000 Ang^3
#
#
#
# Elastic Constant Matrix: (Units=GPa)
#
#
# Indices 1 2 3 4 5 6 
#
# 1 143.0836 17.3815 79.9773 0.0000 0.0000 0.0000
# 2 17.3815 67.0202 19.9140 0.0000 0.0000 0.0000
# 3 79.9773 19.9140 153.0219 0.0000 0.0000 0.0000
# 4 0.0000 0.0000 0.0000 3.0117 0.0000 0.0000
# 5 0.0000 0.0000 0.0000 0.0000 31.4434 0.0000
# 6 0.0000 0.0000 0.0000 0.0000 0.0000 13.9195
#
#
#
# Elastic Compliance Matrix: (Units=1/GPa)
#
#
# Indices 1 2 3 4 5 6 
#
# 1 0.009947 -0.001077 -0.005059 0.000000 0.000000 0.000000
# 2 -0.001077 0.015638 -0.001472 0.000000 0.000000 0.000000
# 3 -0.005059 -0.001472 0.009371 0.000000 0.000000 0.000000
# 4 0.000000 0.000000 0.000000 0.332039 0.000000 0.000000
# 5 0.000000 0.000000 0.000000 0.000000 0.031803 0.000000
# 6 0.000000 0.000000 0.000000 0.000000 0.000000 0.071842
#
#
# Mechanical properties :
#
#
# Convention : Reuss Voigt Hill
#
# Bulk Modulus (GPa) = 50.65896 66.40793 58.53345
# Shear Modulus (GPa) = 10.15362 26.06511 18.10936
#
# Velocity S-wave (km/s) = 2.19452 3.51608 2.93076
# Velocity P-wave (km/s) = 5.51806 6.92685 6.26220
#
# Compressibility (1/GPa) = 0.01973984
#
# Stress axis : x y z
#
# Youngs Moduli (GPa) = 100.52845 63.94855 106.71572
#
# Poissons Ratio (x) = 0.06885 0.53987
# Poissons Ratio (y) = 0.10823 0.15712
# Poissons Ratio (z) = 0.50857 0.09415
#
# Static dielectric constant tensor:
#      x y z
#    x 1.726880 0.000000 0.000000 
#    y 0.000000 1.839800 0.000000 
#    z 0.000000 0.000000 1.776790 
# 
# From -- ./inp_files/64893.got.cif
#   From: 2010.05.17/outbox.cif.g08.bks.cpg/sg74_33_cif.got.tgz:64893.got - 2010.06.03 17:57:02.
