data_PCOD9536695
_publ_section_title
;
Structure prediction by ZEFSAII (Michael W. Deem and Ramdas Pophale) SiO2 
 PCOD9536695
Probable space group: I M M A
;
_chemical_formula_sum "Si O2"
_cell_formula_units_Z 88
_cell_length_a 14.419124
_cell_length_b 23.334717
_cell_length_c 11.846011
_cell_angle_alpha 90.000000
_cell_angle_beta 90.000000
_cell_angle_gamma 90.000000
_cell_volume 3985.782045
_symmetry_space_group_name_H-M "I M M A"
_symmetry_group_IT_number 74
_symmetry_cell_setting 'orthorhombic'
loop_
_space_group_symop_operation_xyz
x,y,z
-x,1/2-y,z
x,-y,-z
-x,1/2+y,-z
-x,-y,-z
x,1/2+y,-z
-x,y,z
x,1/2-y,z
1/2+x,1/2+y,1/2+z
1/2-x,-y,1/2+z
1/2+x,1/2-y,1/2-z
1/2-x,y,1/2-z
1/2-x,1/2-y,1/2-z
1/2+x,y,1/2-z
1/2-x,1/2+y,1/2+z
1/2+x,-y,1/2+z
loop_
_atom_site_type_symbol
_atom_site_label
_atom_site_fract_x
_atom_site_fract_y
_atom_site_fract_z
Si Si1 0.388099 0.750000 0.221083
Si Si2 0.397150 0.477514 0.835254
Si Si3 0.107912 0.646641 0.447884
Si Si4 0.397922 0.056958 0.574366
Si Si5 0.210474 0.640028 0.938420
Si Si6 0.250000 0.939673 0.750000
Si Si7 0.110592 0.750000 0.017526
O O1 0.500000 0.750000 0.228523
O O2 0.364666 0.692554 0.150046
O O3 0.354654 0.750000 0.350924
O O4 0.500000 0.502183 0.861333
O O5 0.386497 0.419129 0.905020
O O6 0.397179 0.459117 0.704388
O O7 0.312831 0.522306 0.834868
O O8 0.181002 0.653778 0.548571
O O9 0.000000 0.657741 0.476321
O O10 0.500000 0.082263 0.548104
O O11 0.318770 0.101028 0.544514
O O12 0.387958 0.000000 0.500000
O O13 0.190106 0.601706 0.829291
O O14 0.149874 0.695754 0.951899
O O15 0.000000 0.750000 0.020319
#
# Coordination Sequence:
#
# PCOD9536695 Si02
#       7
#     8  16  16  16  16   8   8
#     4   9  19  41  67  93 124 153 187 241 314 383
#     4  10  21  37  60  92 127 163 205 258 310 363
#     4  10  22  39  62  93 129 163 200 247 307 374
#     4  10  19  35  60  89 119 154 198 249 309 365
#     4  12  25  40  63  88 123 164 210 254 307 362
#     4  12  26  41  58  83 122 170 218 256 298 358
#     4  11  25  44  68  98 122 148 194 258 317 369
#
# _framework density 22.078476999999999
#
# number of rings (size 3 to 8) (size 9 to 14) (size 15 to 20)
#    0.000    1.455    1.818    3.273    0.000    7.636 
#    0.000    1.818    0.000    1.091    0.000    0.000 
#    0.000    0.000    0.000    0.000    0.000    0.000 
#
# Total GULP energy -245953.290124 kJ/mol
# GULP energy per Si atom -5589.847503 kJ/mol
# Density = 2.202823 g / cm^3
# Si number density = 22.078477 Si / 1000 Ang^3
#
#
#
# Elastic Constant Matrix: (Units=GPa)
#
#
# Indices 1 2 3 4 5 6 
#
# 1 110.6427 37.2952 3.1047 0.0000 0.0000 0.0000
# 2 37.2952 88.4474 14.0863 0.0000 0.0000 0.0000
# 3 3.1047 14.0863 32.8330 0.0000 0.0000 -0.0001
# 4 0.0000 0.0000 0.0000 16.7510 0.0000 0.0000
# 5 0.0000 0.0000 0.0000 0.0000 16.8698 0.0001
# 6 0.0000 0.0000 -0.0001 0.0000 0.0001 36.7548
#
#
#
# Elastic Compliance Matrix: (Units=1/GPa)
#
#
# Indices 1 2 3 4 5 6 
#
# 1 0.010565 -0.004611 0.000979 0.000000 0.000000 0.000000
# 2 -0.004611 0.014148 -0.005634 0.000000 0.000000 0.000000
# 3 0.000979 -0.005634 0.032782 0.000000 0.000000 0.000000
# 4 0.000000 0.000000 0.000000 0.059698 0.000000 0.000000
# 5 0.000000 0.000000 0.000000 0.000000 0.059278 0.000000
# 6 0.000000 0.000000 0.000000 0.000000 0.000000 0.027207
#
#
# Mechanical properties :
#
#
# Convention : Reuss Voigt Hill
#
# Bulk Modulus (GPa) = 25.66519 37.87727 31.77123
# Shear Modulus (GPa) = 21.25895 25.90426 23.58161
#
# Velocity S-wave (km/s) = 3.10640 3.42904 3.27170
# Velocity P-wave (km/s) = 4.95137 5.73330 5.35662
#
# Compressibility (1/GPa) = 0.03896329
#
# Stress axis : x y z
#
# Youngs Moduli (GPa) = 94.65386 70.68340 30.50495
#
# Poissons Ratio (x) = 0.32590 -0.02987
# Poissons Ratio (y) = 0.43643 0.17186
# Poissons Ratio (z) = -0.09268 0.39821
#
# Static dielectric constant tensor:
#      x y z
#    x 1.895620 0.000000 0.000000 
#    y 0.000000 -9.454490 0.000000 
#    z 0.000000 0.000000 1.798960 
# 
# From -- ./inp_files/20703.got.cif
#   From: 2010.05.17/outbox.cif.g08.bks.cpg/sg74_11_cif.got.tgz:20703.got - 2010.06.03 17:57:02.
