data_PCOD9536882
_publ_section_title
;
Structure prediction by ZEFSAII (Michael W. Deem and Ramdas Pophale) SiO2 
 PCOD9536882
Probable space group: I M M A
;
_chemical_formula_sum "Si O2"
_cell_formula_units_Z 32
_cell_length_a 10.996035
_cell_length_b 5.409465
_cell_length_c 23.638124
_cell_angle_alpha 90.000000
_cell_angle_beta 90.000000
_cell_angle_gamma 90.000000
_cell_volume 1406.058646
_symmetry_space_group_name_H-M "I M M A"
_symmetry_group_IT_number 74
_symmetry_cell_setting 'orthorhombic'
loop_
_space_group_symop_operation_xyz
x,y,z
-x,1/2-y,z
x,-y,-z
-x,1/2+y,-z
-x,-y,-z
x,1/2+y,-z
-x,y,z
x,1/2-y,z
1/2+x,1/2+y,1/2+z
1/2-x,-y,1/2+z
1/2+x,1/2-y,1/2-z
1/2-x,y,1/2-z
1/2-x,1/2-y,1/2-z
1/2+x,y,1/2-z
1/2-x,1/2+y,1/2+z
1/2+x,-y,1/2+z
loop_
_atom_site_type_symbol
_atom_site_label
_atom_site_fract_x
_atom_site_fract_y
_atom_site_fract_z
Si Si1 0.640492 0.250000 0.804791
Si Si2 0.359473 0.750000 0.853248
Si Si3 0.000000 0.750000 0.193586
Si Si4 0.267917 0.750000 0.536636
Si Si5 0.500000 0.250000 0.380446
O O1 0.500000 0.250000 0.829442
O O2 0.696620 0.501349 0.827928
O O3 0.613216 0.250000 0.738094
O O4 0.500000 0.750000 0.834622
O O5 0.345206 0.750000 0.920318
O O6 0.000000 0.499904 0.157092
O O7 0.269243 0.500000 0.500000
O O8 0.383549 0.750000 0.578446
#
# Coordination Sequence:
#
# PCOD9536882 Si02
#       5
#     8   8   4   8   4
#     4   8  17  34  62  88 128 151 181 246 299 373
#     4  10  19  38  64  89 124 155 192 247 310 362
#     4  10  20  39  68  92 124 155 206 238 306 378
#     4  12  26  43  62  87 121 164 213 254 296 344
#     4  12  24  43  62  88 122 165 208 252 290 354
#
# _framework density 22.758652000000001
#
# number of rings (size 3 to 8) (size 9 to 14) (size 15 to 20)
#    0.750    1.000    0.000    5.250    0.000    1.000 
#    0.000    7.500    0.000    0.000    0.000    0.000 
#    0.000    0.000    0.000    0.000    0.000    0.000 
#
# Total GULP energy -89424.931974 kJ/mol
# GULP energy per Si atom -5589.058248 kJ/mol
# Density = 2.270685 g / cm^3
# Si number density = 22.758652 Si / 1000 Ang^3
#
#
#
# Elastic Constant Matrix: (Units=GPa)
#
#
# Indices 1 2 3 4 5 6 
#
# 1 38.1689 17.9194 7.8655 0.0000 0.0000 0.0000
# 2 17.9194 314.6596 135.1815 0.0000 0.0000 0.0000
# 3 7.8655 135.1815 149.9563 0.0000 0.0000 0.0000
# 4 0.0000 0.0000 0.0000 68.5034 0.0000 0.0000
# 5 0.0000 0.0000 0.0000 0.0000 56.8802 0.0000
# 6 0.0000 0.0000 0.0000 0.0000 0.0000 0.7166
#
#
#
# Elastic Compliance Matrix: (Units=1/GPa)
#
#
# Indices 1 2 3 4 5 6 
#
# 1 0.026919 -0.001512 -0.000049 0.000000 0.000000 0.000000
# 2 -0.001512 0.005272 -0.004673 0.000000 0.000000 0.000000
# 3 -0.000049 -0.004673 0.010884 0.000000 0.000000 0.000000
# 4 0.000000 0.000000 0.000000 0.014598 0.000000 0.000000
# 5 0.000000 0.000000 0.000000 0.000000 0.017581 0.000000
# 6 0.000000 0.000000 0.000000 0.000000 0.000000 1.395445
#
#
# Mechanical properties :
#
#
# Convention : Reuss Voigt Hill
#
# Bulk Modulus (GPa) = 32.67242 91.63530 62.15386
# Shear Modulus (GPa) = 3.34814 48.00795 25.67804
#
# Velocity S-wave (km/s) = 1.21422 4.59784 3.36263
# Velocity P-wave (km/s) = 4.04388 8.27878 6.51503
#
# Compressibility (1/GPa) = 0.03060685
#
# Stress axis : x y z
#
# Youngs Moduli (GPa) = 37.14815 189.69124 91.87990
#
# Poissons Ratio (x) = 0.28681 0.00450
# Poissons Ratio (y) = 0.05617 0.42936
# Poissons Ratio (z) = 0.00182 0.88643
#
# Static dielectric constant tensor:
#      x y z
#    x 2.002140 0.000000 0.000000 
#    y 0.000000 1.764200 0.000000 
#    z 0.000000 0.000000 1.777700 
# 
# From -- ./inp_files/41905.got.cif
#   From: 2010.05.17/outbox.cif.g08.bks.cpg/sg74_21_cif.got.tgz:41905.got - 2010.06.03 17:57:02.
