data_PCOD9536986
_publ_section_title
;
Structure prediction by ZEFSAII (Michael W. Deem and Ramdas Pophale) SiO2 
 PCOD9536986
Probable space group: I M M A
;
_chemical_formula_sum "Si O2"
_cell_formula_units_Z 104
_cell_length_a 7.260625
_cell_length_b 27.735971
_cell_length_c 23.714529
_cell_angle_alpha 90.000000
_cell_angle_beta 90.000000
_cell_angle_gamma 90.000000
_cell_volume 4775.643338
_symmetry_space_group_name_H-M "I M M A"
_symmetry_group_IT_number 74
_symmetry_cell_setting 'orthorhombic'
loop_
_space_group_symop_operation_xyz
x,y,z
-x,1/2-y,z
x,-y,-z
-x,1/2+y,-z
-x,-y,-z
x,1/2+y,-z
-x,y,z
x,1/2-y,z
1/2+x,1/2+y,1/2+z
1/2-x,-y,1/2+z
1/2+x,1/2-y,1/2-z
1/2-x,y,1/2-z
1/2-x,1/2-y,1/2-z
1/2+x,y,1/2-z
1/2-x,1/2+y,1/2+z
1/2+x,-y,1/2+z
loop_
_atom_site_type_symbol
_atom_site_label
_atom_site_fract_x
_atom_site_fract_y
_atom_site_fract_z
Si Si1 0.776493 0.194505 0.993016
Si Si2 0.791702 0.054313 0.980226
Si Si3 0.775396 0.380186 0.081465
Si Si4 0.218469 0.250000 0.815827
Si Si5 0.223932 0.846937 0.126824
Si Si6 0.775633 0.950099 0.146749
Si Si7 0.219048 0.555339 0.814847
O O1 0.716060 0.250000 0.985885
O O2 0.722144 0.170928 0.053195
O O3 0.000000 0.195469 0.991904
O O4 0.722124 0.160917 0.939299
O O5 0.712975 0.050779 0.918279
O O6 0.000000 0.073956 0.972428
O O7 0.713472 0.083537 0.032081
O O8 0.804915 0.000000 0.000000
O O9 0.713505 0.404513 0.140196
O O10 0.000000 0.379621 0.084241
O O11 0.250000 0.250000 0.750000
O O12 0.290007 0.201134 0.842941
O O13 0.000000 0.250000 0.827422
O O14 0.279272 0.895188 0.161201
O O15 0.000000 0.847683 0.126917
O O16 0.000000 0.952010 0.149543
O O17 0.711694 0.000169 0.174672
O O18 0.250000 0.568687 0.750000
O O19 0.000000 0.552689 0.824026
#
# Coordination Sequence:
#
# PCOD9536986 Si02
#       7
#    16  16  16   8  16  16  16
#     4   9  14  21  37  64  95 116 133 176 241 284
#     4   9  12  17  33  59  86 105 127 170 222 261
#     4   9  15  23  39  63  89 113 141 180 228 273
#     4  10  20  32  44  60  86 122 157 182 210 254
#     4   9  15  24  40  63  91 117 143 182 228 266
#     4   9  15  23  39  63  89 114 142 179 222 260
#     4  10  20  32  45  64  91 123 154 182 215 262
#
# _framework density 21.777170999999999
#
# number of rings (size 3 to 8) (size 9 to 14) (size 15 to 20)
#    0.000    2.769    3.846    0.000    0.000    0.615 
#    0.000    0.000    0.000    0.462    0.000    3.231 
#    0.000    0.000    0.000    0.000    0.000    0.000 
#
# Total GULP energy -289643.482165 kJ/mol
# GULP energy per Si atom -5570.066965 kJ/mol
# Density = 2.172761 g / cm^3
# Si number density = 21.777171 Si / 1000 Ang^3
#
#
#
# Elastic Constant Matrix: (Units=GPa)
#
#
# Indices 1 2 3 4 5 6 
#
# 1 93.1661 -0.8480 -9.1246 0.0000 0.0000 0.0000
# 2 -0.8480 96.8867 32.7039 0.0000 0.0000 0.0000
# 3 -9.1246 32.7039 112.4737 0.0000 0.0000 0.0000
# 4 0.0000 0.0000 0.0000 22.0461 0.0000 0.0000
# 5 0.0000 0.0000 0.0000 0.0000 7.2172 0.0000
# 6 0.0000 0.0000 0.0000 0.0000 0.0000 -15.2737
#
#
#
# Elastic Compliance Matrix: (Units=1/GPa)
#
#
# Indices 1 2 3 4 5 6 
#
# 1 0.010824 -0.000224 0.000943 0.000000 0.000000 0.000000
# 2 -0.000224 0.011449 -0.003347 0.000000 0.000000 0.000000
# 3 0.000943 -0.003347 0.009941 0.000000 0.000000 0.000000
# 4 0.000000 0.000000 0.000000 0.045359 0.000000 0.000000
# 5 0.000000 0.000000 0.000000 0.000000 0.138557 0.000000
# 6 0.000000 0.000000 0.000000 0.000000 0.000000 -0.065472
#
#
# Mechanical properties :
#
#
# Convention : Reuss Voigt Hill
#
# Bulk Modulus (GPa) = 37.09419 38.66545 37.87982
# Shear Modulus (GPa) = 30.32133 21.45094 25.88613
#
# Velocity S-wave (km/s) = 3.73546 3.14191 3.45147
# Velocity P-wave (km/s) = 5.97289 5.56378 5.77196
#
# Compressibility (1/GPa) = 0.02695840
#
# Stress axis : x y z
#
# Youngs Moduli (GPa) = 92.38859 87.34209 100.59595
#
# Poissons Ratio (x) = 0.01953 -0.09487
# Poissons Ratio (y) = 0.02066 0.33672
# Poissons Ratio (z) = -0.08713 0.29235
#
# Static dielectric constant tensor:
#      x y z
#    x 1.895070 0.000000 0.000000 
#    y 0.000000 1.843430 0.000000 
#    z 0.000000 0.000000 1.782560 
# 
# From -- ./inp_files/41815.got.cif
#   From: 2010.05.17/outbox.cif.g08.bks.cpg/sg74_21_cif.got.tgz:41815.got - 2010.06.03 17:57:02.
