data_PCOD9536633
_publ_section_title
;
Structure prediction by ZEFSAII (Michael W. Deem and Ramdas Pophale) SiO2 
 PCOD9536633
Probable space group: I M M A
;
_chemical_formula_sum "Si O2"
_cell_formula_units_Z 72
_cell_length_a 8.523071
_cell_length_b 22.531917
_cell_length_c 20.122044
_cell_angle_alpha 90.000000
_cell_angle_beta 90.000000
_cell_angle_gamma 90.000000
_cell_volume 3864.260035
_symmetry_space_group_name_H-M "I M M A"
_symmetry_group_IT_number 74
_symmetry_cell_setting 'orthorhombic'
loop_
_space_group_symop_operation_xyz
x,y,z
-x,1/2-y,z
x,-y,-z
-x,1/2+y,-z
-x,-y,-z
x,1/2+y,-z
-x,y,z
x,1/2-y,z
1/2+x,1/2+y,1/2+z
1/2-x,-y,1/2+z
1/2+x,1/2-y,1/2-z
1/2-x,y,1/2-z
1/2-x,1/2-y,1/2-z
1/2+x,y,1/2-z
1/2-x,1/2+y,1/2+z
1/2+x,-y,1/2+z
loop_
_atom_site_type_symbol
_atom_site_label
_atom_site_fract_x
_atom_site_fract_y
_atom_site_fract_z
Si Si1 0.810903 0.250000 0.324712
Si Si2 0.688376 0.396458 0.822408
Si Si3 0.313306 0.970661 0.677553
Si Si4 0.689985 0.865148 0.909554
Si Si5 0.191438 0.318467 0.552683
O O1 0.750000 0.250000 0.250000
O O2 0.761609 0.191152 0.364538
O O3 0.000000 0.250000 0.323688
O O4 0.500000 0.397114 0.820787
O O5 0.750000 0.377900 0.750000
O O6 0.746988 0.463462 0.834547
O O7 0.741508 0.353331 0.881488
O O8 0.500000 0.973368 0.680582
O O9 0.250000 0.951019 0.750000
O O10 0.258167 0.924489 0.622184
O O11 0.500000 0.868685 0.908064
O O12 0.739017 0.851637 0.985083
O O13 0.243154 0.250000 0.551744
O O14 0.000000 0.317700 0.552562
#
# Coordination Sequence:
#
# PCOD9536633 Si02
#       5
#     8  16  16  16  16
#     4  10  20  32  52  78 107 142 180 222 265 314
#     4  10  20  36  59  84 110 143 184 230 278 330
#     4  11  22  37  56  80 112 147 186 230 276 327
#     4  10  19  35  57  81 110 145 184 226 272 324
#     4   9  18  35  59  84 111 145 186 227 271 328
#
# _framework density 18.632286000000001
#
# number of rings (size 3 to 8) (size 9 to 14) (size 15 to 20)
#    0.000    2.000    1.111    4.667    0.000    4.000 
#    0.000    6.667    0.000    4.667    0.000    0.000 
#    0.000    0.000    0.000    0.000    0.000    0.000 
#
# Total GULP energy -201063.485418 kJ/mol
# GULP energy per Si atom -5585.096817 kJ/mol
# Density = 1.858988 g / cm^3
# Si number density = 18.632286 Si / 1000 Ang^3
#
#
#
# Elastic Constant Matrix: (Units=GPa)
#
#
# Indices 1 2 3 4 5 6 
#
# 1 50.0973 25.4391 36.2860 0.0000 0.0000 0.0000
# 2 25.4391 94.7020 105.2154 0.0000 0.0000 0.0000
# 3 36.2860 105.2154 195.8861 0.0000 0.0000 0.0000
# 4 0.0000 0.0000 0.0000 44.4859 0.0000 0.0000
# 5 0.0000 0.0000 0.0000 0.0000 28.1531 0.0000
# 6 0.0000 0.0000 0.0000 0.0000 0.0000 16.3486
#
#
#
# Elastic Compliance Matrix: (Units=1/GPa)
#
#
# Indices 1 2 3 4 5 6 
#
# 1 0.023558 -0.003670 -0.002393 0.000000 0.000000 0.000000
# 2 -0.003670 0.026758 -0.013693 0.000000 0.000000 0.000000
# 3 -0.002393 -0.013693 0.012903 0.000000 0.000000 0.000000
# 4 0.000000 0.000000 0.000000 0.022479 0.000000 0.000000
# 5 0.000000 0.000000 0.000000 0.000000 0.035520 0.000000
# 6 0.000000 0.000000 0.000000 0.000000 0.000000 0.061167
#
#
# Mechanical properties :
#
#
# Convention : Reuss Voigt Hill
#
# Bulk Modulus (GPa) = 42.17930 74.95183 58.56556
# Shear Modulus (GPa) = 21.75826 29.38050 25.56938
#
# Velocity S-wave (km/s) = 3.42098 3.97528 3.70850
# Velocity P-wave (km/s) = 6.18797 7.83483 7.05959
#
# Compressibility (1/GPa) = 0.02370831
#
# Stress axis : x y z
#
# Youngs Moduli (GPa) = 42.44897 37.37220 77.50237
#
# Poissons Ratio (x) = 0.13715 0.18544
# Poissons Ratio (y) = 0.15578 1.06120
# Poissons Ratio (z) = 0.10157 0.51172
#
# Static dielectric constant tensor:
#      x y z
#    x 1.640830 0.000000 0.000000 
#    y 0.000000 1.619560 0.000000 
#    z 0.000000 0.000000 1.627650 
# 
# From -- ./inp_files/39457.got.cif
#   From: 2010.05.17/outbox.cif.g08.bks.cpg/sg74_20_cif.got.tgz:39457.got - 2010.06.03 17:57:02.
