data_PCOD9536693
_publ_section_title
;
Structure prediction by ZEFSAII (Michael W. Deem and Ramdas Pophale) SiO2 
 PCOD9536693
Probable space group: I M M A
;
_chemical_formula_sum "Si O2"
_cell_formula_units_Z 80
_cell_length_a 13.950238
_cell_length_b 23.623719
_cell_length_c 13.608652
_cell_angle_alpha 90.000000
_cell_angle_beta 90.000000
_cell_angle_gamma 90.000000
_cell_volume 4484.819757
_symmetry_space_group_name_H-M "I M M A"
_symmetry_group_IT_number 74
_symmetry_cell_setting 'orthorhombic'
loop_
_space_group_symop_operation_xyz
x,y,z
-x,1/2-y,z
x,-y,-z
-x,1/2+y,-z
-x,-y,-z
x,1/2+y,-z
-x,y,z
x,1/2-y,z
1/2+x,1/2+y,1/2+z
1/2-x,-y,1/2+z
1/2+x,1/2-y,1/2-z
1/2-x,y,1/2-z
1/2-x,1/2-y,1/2-z
1/2+x,y,1/2-z
1/2-x,1/2+y,1/2+z
1/2+x,-y,1/2+z
loop_
_atom_site_type_symbol
_atom_site_label
_atom_site_fract_x
_atom_site_fract_y
_atom_site_fract_z
Si Si1 0.310807 0.541388 0.371627
Si Si2 0.276192 0.814584 0.635222
Si Si3 0.890157 0.684325 0.476623
Si Si4 0.886881 0.925350 0.914748
Si Si5 0.388135 0.917151 0.172297
O O1 0.341587 0.476793 0.352570
O O2 0.353093 0.561946 0.474360
O O3 0.355824 0.580477 0.286084
O O4 0.195622 0.544660 0.375091
O O5 0.308455 0.750000 0.613652
O O6 0.250000 0.816615 0.750000
O O7 0.185174 0.826392 0.563977
O O8 0.351882 0.863613 0.615051
O O9 0.879432 0.750000 0.447006
O O10 0.877034 0.642468 0.384491
O O11 0.000000 0.676483 0.511741
O O12 0.000000 0.930309 0.908490
O O13 0.500000 0.934175 0.163518
#
# Coordination Sequence:
#
# PCOD9536693 Si02
#       5
#    16  16  16  16  16
#     4  10  21  37  57  87 121 154 188 229 285 344
#     4  10  22  39  58  83 113 148 196 247 289 338
#     4   9  18  36  60  85 117 152 185 232 297 349
#     4  11  22  39  59  80 115 160 195 231 288 346
#     4  10  19  35  60  89 118 150 188 233 283 342
#
# _framework density 17.837952000000001
#
# number of rings (size 3 to 8) (size 9 to 14) (size 15 to 20)
#    0.000    2.000    2.000    2.400    2.800    1.200 
#    0.000    8.000    0.000    2.400    0.000    0.000 
#    0.000    0.000    0.000    0.000    0.000    0.000 
#
# Total GULP energy -222884.886703 kJ/mol
# GULP energy per Si atom -5572.122168 kJ/mol
# Density = 1.779735 g / cm^3
# Si number density = 17.837952 Si / 1000 Ang^3
#
#
#
# Elastic Constant Matrix: (Units=GPa)
#
#
# Indices 1 2 3 4 5 6 
#
# 1 151.8517 61.8741 30.1988 0.0000 0.0000 0.0000
# 2 61.8741 82.3323 44.1155 -0.0004 0.0000 0.0000
# 3 30.1988 44.1155 70.5830 0.0004 0.0000 0.0000
# 4 0.0000 -0.0004 0.0004 -169.4173 0.0000 -0.0004
# 5 0.0000 0.0000 0.0000 0.0000 19.2607 0.0000
# 6 0.0000 0.0000 0.0000 -0.0004 0.0000 27.4442
#
#
#
# Elastic Compliance Matrix: (Units=1/GPa)
#
#
# Indices 1 2 3 4 5 6 
#
# 1 0.009509 -0.007467 0.000598 0.000000 0.000000 0.000000
# 2 -0.007467 0.024125 -0.011884 0.000000 0.000000 0.000000
# 3 0.000598 -0.011884 0.021339 0.000000 0.000000 0.000000
# 4 0.000000 0.000000 0.000000 -0.005903 0.000000 0.000000
# 5 0.000000 0.000000 0.000000 0.000000 0.051919 0.000000
# 6 0.000000 0.000000 0.000000 0.000000 0.000000 0.036438
#
#
# Mechanical properties :
#
#
# Convention : Reuss Voigt Hill
#
# Bulk Modulus (GPa) = 57.24480 64.12709 60.68595
# Shear Modulus (GPa) = 27.66197 -13.30388 7.17904
#
# Velocity S-wave (km/s) = 3.94221 -2.73393 2.00831
# Velocity P-wave (km/s) = 7.27204 5.10510 6.28270
#
# Compressibility (1/GPa) = 0.01746883
#
# Stress axis : x y z
#
# Youngs Moduli (GPa) = 105.16632 41.45112 46.86211
#
# Poissons Ratio (x) = 0.30950 -0.02805
# Poissons Ratio (y) = 0.78524 0.55690
# Poissons Ratio (z) = -0.06294 0.49260
#
# Static dielectric constant tensor:
#      x y z
#    x 1.610380 0.000000 0.000000 
#    y 0.000000 1.623890 0.000000 
#    z 0.000000 0.000000 1.610610 
# 
# From -- ./inp_files/32097.got.cif
#   From: 2010.05.17/outbox.cif.g08.bks.cpg/sg74_17_cif.got.tgz:32097.got - 2010.06.03 17:57:02.
