data_PCOD9536867
_publ_section_title
;
Structure prediction by ZEFSAII (Michael W. Deem and Ramdas Pophale) SiO2 
 PCOD9536867
Probable space group: I M M A
;
_chemical_formula_sum "Si O2"
_cell_formula_units_Z 80
_cell_length_a 23.991654
_cell_length_b 19.113010
_cell_length_c 9.674913
_cell_angle_alpha 90.000000
_cell_angle_beta 90.000000
_cell_angle_gamma 90.000000
_cell_volume 4436.457699
_symmetry_space_group_name_H-M "I M M A"
_symmetry_group_IT_number 74
_symmetry_cell_setting 'orthorhombic'
loop_
_space_group_symop_operation_xyz
x,y,z
-x,1/2-y,z
x,-y,-z
-x,1/2+y,-z
-x,-y,-z
x,1/2+y,-z
-x,y,z
x,1/2-y,z
1/2+x,1/2+y,1/2+z
1/2-x,-y,1/2+z
1/2+x,1/2-y,1/2-z
1/2-x,y,1/2-z
1/2-x,1/2-y,1/2-z
1/2+x,y,1/2-z
1/2-x,1/2+y,1/2+z
1/2+x,-y,1/2+z
loop_
_atom_site_type_symbol
_atom_site_label
_atom_site_fract_x
_atom_site_fract_y
_atom_site_fract_z
Si Si1 0.500000 0.666333 0.687886
Si Si2 0.216623 0.560338 0.393124
Si Si3 0.500000 0.475118 0.156452
Si Si4 0.386059 0.972969 0.281176
Si Si5 0.236341 0.830244 0.902480
Si Si6 0.383356 0.885372 0.556225
O O1 0.500000 0.750000 0.719847
O O2 0.500000 0.608875 0.813167
O O3 0.557414 0.647020 0.605066
O O4 0.233621 0.500000 0.500000
O O5 0.250000 0.557284 0.250000
O O6 0.153420 0.549307 0.344385
O O7 0.231060 0.629683 0.477323
O O8 0.553136 0.508960 0.228597
O O9 0.500000 0.500000 0.000000
O O10 0.387045 0.914630 0.400486
O O11 0.367946 0.046278 0.351473
O O12 0.254008 0.750000 0.902134
O O13 0.250000 0.860104 0.750000
O O14 0.170167 0.836189 0.928531
#
# Coordination Sequence:
#
# PCOD9536867 Si02
#       6
#     8  16   8  16  16  16
#     4  10  21  37  63  89 116 158 201 246 305 369
#     4  12  22  36  59  86 116 154 203 249 300 363
#     4  10  21  37  59  87 121 152 201 256 305 357
#     4  10  20  35  59  87 115 152 199 251 299 355
#     4  11  24  40  58  84 122 161 200 252 312 370
#     4  10  19  38  59  88 118 153 199 250 301 360
#
# _framework density 18.032404
#
# number of rings (size 3 to 8) (size 9 to 14) (size 15 to 20)
#    0.000    1.400    2.000    4.800    0.000    4.400 
#    0.000    0.000    0.000    3.600    0.000    0.000 
#    0.000    0.000    0.000    0.000    0.000    0.000 
#
# Total GULP energy -223187.959256 kJ/mol
# GULP energy per Si atom -5579.698981 kJ/mol
# Density = 1.799136 g / cm^3
# Si number density = 18.032404 Si / 1000 Ang^3
#
#
#
# Elastic Constant Matrix: (Units=GPa)
#
#
# Indices 1 2 3 4 5 6 
#
# 1 94.7955 39.9524 33.2614 0.0000 0.0000 0.0000
# 2 39.9524 89.2403 58.7185 0.0000 0.0000 0.0000
# 3 33.2614 58.7185 128.9028 0.0000 0.0000 0.0000
# 4 0.0000 0.0000 0.0000 24.8707 0.0000 0.0000
# 5 0.0000 0.0000 0.0000 0.0000 30.6994 0.0000
# 6 0.0000 0.0000 0.0000 0.0000 0.0000 26.7795
#
#
#
# Elastic Compliance Matrix: (Units=1/GPa)
#
#
# Indices 1 2 3 4 5 6 
#
# 1 0.013094 -0.005197 -0.001012 0.000000 0.000000 0.000000
# 2 -0.005197 0.018064 -0.006888 0.000000 0.000000 0.000000
# 3 -0.001012 -0.006888 0.011156 0.000000 0.000000 0.000000
# 4 0.000000 0.000000 0.000000 0.040208 0.000000 0.000000
# 5 0.000000 0.000000 0.000000 0.000000 0.032574 0.000000
# 6 0.000000 0.000000 0.000000 0.000000 0.000000 0.037342
#
#
# Mechanical properties :
#
#
# Convention : Reuss Voigt Hill
#
# Bulk Modulus (GPa) = 62.02393 64.08923 63.05658
# Shear Modulus (GPa) = 27.17323 28.53702 27.85512
#
# Velocity S-wave (km/s) = 3.88611 3.98243 3.93456
# Velocity P-wave (km/s) = 7.38960 7.53423 7.46227
#
# Compressibility (1/GPa) = 0.01612281
#
# Stress axis : x y z
#
# Youngs Moduli (GPa) = 76.37034 55.35802 89.63485
#
# Poissons Ratio (x) = 0.28767 0.09067
# Poissons Ratio (y) = 0.39686 0.61739
# Poissons Ratio (z) = 0.07725 0.38130
#
# Static dielectric constant tensor:
#      x y z
#    x 1.636780 0.000000 0.000000 
#    y 0.000000 1.623760 0.000000 
#    z 0.000000 0.000000 1.619550 
# 
# From -- ./inp_files/13646.got.cif
#   From: 2010.05.17/outbox.cif.g08.bks.cpg/sg74_7_cif.got.tgz:13646.got - 2010.06.03 17:57:02.
