data_PCOD9536903
_publ_section_title
;
Structure prediction by ZEFSAII (Michael W. Deem and Ramdas Pophale) SiO2 
 PCOD9536903
Probable space group: I M M A
;
_chemical_formula_sum "Si O2"
_cell_formula_units_Z 128
_cell_length_a 26.858010
_cell_length_b 21.950609
_cell_length_c 12.102292
_cell_angle_alpha 90.000000
_cell_angle_beta 90.000000
_cell_angle_gamma 90.000000
_cell_volume 7134.902328
_symmetry_space_group_name_H-M "I M M A"
_symmetry_group_IT_number 74
_symmetry_cell_setting 'orthorhombic'
loop_
_space_group_symop_operation_xyz
x,y,z
-x,1/2-y,z
x,-y,-z
-x,1/2+y,-z
-x,-y,-z
x,1/2+y,-z
-x,y,z
x,1/2-y,z
1/2+x,1/2+y,1/2+z
1/2-x,-y,1/2+z
1/2+x,1/2-y,1/2-z
1/2-x,y,1/2-z
1/2-x,1/2-y,1/2-z
1/2+x,y,1/2-z
1/2-x,1/2+y,1/2+z
1/2+x,-y,1/2+z
loop_
_atom_site_type_symbol
_atom_site_label
_atom_site_fract_x
_atom_site_fract_y
_atom_site_fract_z
Si Si1 0.125355 0.006602 0.115346
Si Si2 0.196316 0.631978 0.303202
Si Si3 0.697838 0.515719 0.806359
Si Si4 0.631643 0.368109 0.605797
Si Si5 0.811331 0.628563 0.556891
Si Si6 0.204548 0.820782 0.927706
Si Si7 0.441427 0.121041 0.420986
Si Si8 0.378241 0.320330 0.238098
O O1 0.114260 0.936317 0.138867
O O2 0.155730 0.033288 0.216887
O O3 0.080694 0.052222 0.086981
O O4 0.155958 0.000000 0.000000
O O5 0.250000 0.648452 0.250000
O O6 0.195629 0.557617 0.311075
O O7 0.153497 0.656578 0.220735
O O8 0.188143 0.649022 0.429810
O O9 0.750000 0.531312 0.750000
O O10 0.692348 0.556378 0.915548
O O11 0.679511 0.362201 0.523592
O O12 0.587484 0.346481 0.524091
O O13 0.759877 0.658050 0.600008
O O14 0.859032 0.650600 0.625086
O O15 0.204648 0.750000 0.964619
O O16 0.168440 0.824867 0.822837
O O17 0.500000 0.122021 0.435823
O O18 0.423599 0.150848 0.306377
O O19 0.389052 0.250000 0.218845
#
# Coordination Sequence:
#
# PCOD9536903 Si02
#       8
#    16  16  16  16  16  16  16  16
#     4   9  18  31  50  76 108 137 170 220 280 332
#     4  10  20  34  47  76 113 152 189 224 263 326
#     4  10  20  28  46  76 108 148 184 223 268 324
#     4   9  19  35  52  75 111 144 180 225 274 327
#     4  12  20  31  51  74 111 155 190 225 266 322
#     4  10  20  34  52  75 109 149 186 226 265 320
#     4  10  20  36  59  84 105 131 175 235 292 340
#     4  10  21  36  53  80 110 140 180 226 279 335
#
# _framework density 17.939979999999998
#
# number of rings (size 3 to 8) (size 9 to 14) (size 15 to 20)
#    0.000    2.000    2.500    1.875    3.500    3.500 
#    0.000    1.875    0.000    0.750    0.000    1.750 
#    0.000    0.000    0.000    0.000    0.000    0.000 
#
# Total GULP energy -356274.437023 kJ/mol
# GULP energy per Si atom -5566.788078 kJ/mol
# Density = 1.789915 g / cm^3
# Si number density = 17.939980 Si / 1000 Ang^3
#
#
#
# Elastic Constant Matrix: (Units=GPa)
#
#
# Indices 1 2 3 4 5 6 
#
# 1 88.6305 6.2507 31.6344 0.0000 0.0000 0.0000
# 2 6.2507 49.7345 -0.8608 0.0000 0.0000 0.0000
# 3 31.6344 -0.8608 97.1927 0.0000 0.0000 0.0000
# 4 0.0000 0.0000 0.0000 12.3155 0.0000 0.0000
# 5 0.0000 0.0000 0.0000 0.0000 15.0564 0.0000
# 6 0.0000 0.0000 0.0000 0.0000 0.0000 9.8336
#
#
#
# Elastic Compliance Matrix: (Units=1/GPa)
#
#
# Indices 1 2 3 4 5 6 
#
# 1 0.012907 -0.001695 -0.004216 0.000000 0.000000 0.000000
# 2 -0.001695 0.020332 0.000732 0.000000 0.000000 0.000000
# 3 -0.004216 0.000732 0.011668 0.000000 0.000000 0.000000
# 4 0.000000 0.000000 0.000000 0.081198 0.000000 0.000000
# 5 0.000000 0.000000 0.000000 0.000000 0.066417 0.000000
# 6 0.000000 0.000000 0.000000 0.000000 0.000000 0.101692
#
#
# Mechanical properties :
#
#
# Convention : Reuss Voigt Hill
#
# Bulk Modulus (GPa) = 28.94489 34.40071 31.67280
# Shear Modulus (GPa) = 15.81832 20.67667 18.24749
#
# Velocity S-wave (km/s) = 2.97262 3.39860 3.19273
# Velocity P-wave (km/s) = 5.28690 5.88368 5.59326
#
# Compressibility (1/GPa) = 0.03454841
#
# Stress axis : x y z
#
# Youngs Moduli (GPa) = 77.47637 49.18238 85.70768
#
# Poissons Ratio (x) = 0.08337 0.36135
# Poissons Ratio (y) = 0.13133 -0.06272
# Poissons Ratio (z) = 0.32664 -0.03599
#
# Static dielectric constant tensor:
#      x y z
#    x 1.582420 0.000000 0.000000 
#    y 0.000000 1.676950 0.000000 
#    z 0.000000 0.000000 1.660590 
# 
# From -- ./inp_files/25600.got.cif
#   From: 2010.05.17/outbox.cif.g08.bks.cpg/sg74_13_cif.got.tgz:25600.got - 2010.06.03 17:57:02.
