data_PCOD9536482
_publ_section_title
;
Structure prediction by ZEFSAII (Michael W. Deem and Ramdas Pophale) SiO2 
 PCOD9536482
Probable space group: I M M A
;
_chemical_formula_sum "Si O2"
_cell_formula_units_Z 80
_cell_length_a 17.385327
_cell_length_b 18.713711
_cell_length_c 10.143183
_cell_angle_alpha 90.000000
_cell_angle_beta 90.000000
_cell_angle_gamma 90.000000
_cell_volume 3300.023579
_symmetry_space_group_name_H-M "I M M A"
_symmetry_group_IT_number 74
_symmetry_cell_setting 'orthorhombic'
loop_
_space_group_symop_operation_xyz
x,y,z
-x,1/2-y,z
x,-y,-z
-x,1/2+y,-z
-x,-y,-z
x,1/2+y,-z
-x,y,z
x,1/2-y,z
1/2+x,1/2+y,1/2+z
1/2-x,-y,1/2+z
1/2+x,1/2-y,1/2-z
1/2-x,y,1/2-z
1/2-x,1/2-y,1/2-z
1/2+x,y,1/2-z
1/2-x,1/2+y,1/2+z
1/2+x,-y,1/2+z
loop_
_atom_site_type_symbol
_atom_site_label
_atom_site_fract_x
_atom_site_fract_y
_atom_site_fract_z
Si Si1 0.805157 0.334188 0.879651
Si Si2 0.091763 0.045754 0.777047
Si Si3 0.410902 0.250000 0.302337
Si Si4 0.339742 0.605477 0.021197
Si Si5 0.913674 0.750000 0.483043
Si Si6 0.340924 0.599563 0.722817
O O1 0.817463 0.250000 0.910422
O O2 0.750000 0.336329 0.750000
O O3 0.878976 0.383143 0.851634
O O4 0.751630 0.380304 0.979614
O O5 0.132308 0.051239 0.631926
O O6 0.000000 0.043548 0.766211
O O7 0.124681 0.972403 0.839023
O O8 0.500000 0.250000 0.345177
O O9 0.368775 0.324611 0.337055
O O10 0.409840 0.250000 0.141843
O O11 0.372740 0.680922 0.068830
O O12 0.372772 0.597997 0.874830
O O13 0.000000 0.750000 0.438898
O O14 0.250000 0.596219 0.750000
#
# Coordination Sequence:
#
# PCOD9536482 Si02
#       6
#    16  16   8  16   8  16
#     4   9  18  35  56  81 113 150 192 236 284 347
#     4  11  23  35  54  85 118 151 190 239 295 348
#     4   9  19  35  55  76 107 144 178 233 290 333
#     4  10  19  34  56  82 114 150 187 231 285 345
#     4   9  16  27  48  82 112 138 174 217 279 341
#     4  11  22  37  57  85 115 149 195 237 286 350
#
# _framework density 24.242251
#
# number of rings (size 3 to 8) (size 9 to 14) (size 15 to 20)
#    0.000    2.000    1.000    3.900    1.400    3.600 
#    0.000    0.000    0.000    3.600    0.000    0.000 
#    0.000    0.000    0.000    0.000    0.000    0.000 
#
# Total GULP energy -223450.211272 kJ/mol
# GULP energy per Si atom -5586.255282 kJ/mol
# Density = 2.418707 g / cm^3
# Si number density = 24.242251 Si / 1000 Ang^3
#
#
#
# Elastic Constant Matrix: (Units=GPa)
#
#
# Indices 1 2 3 4 5 6 
#
# 1 164.6062 75.5066 -2.8160 0.0000 0.0000 0.0000
# 2 75.5066 212.4793 14.3651 0.0000 0.0000 0.0000
# 3 -2.8160 14.3651 57.1853 0.0000 0.0000 0.0000
# 4 0.0000 0.0000 0.0000 29.7154 0.0000 0.0000
# 5 0.0000 0.0000 0.0000 0.0000 19.0463 0.0000
# 6 0.0000 0.0000 0.0000 0.0000 0.0000 47.0492
#
#
#
# Elastic Compliance Matrix: (Units=1/GPa)
#
#
# Indices 1 2 3 4 5 6 
#
# 1 0.007318 -0.002670 0.001031 0.000000 0.000000 0.000000
# 2 -0.002670 0.005762 -0.001579 0.000000 0.000000 0.000000
# 3 0.001031 -0.001579 0.017934 0.000000 0.000000 0.000000
# 4 0.000000 0.000000 0.000000 0.033653 0.000000 0.000000
# 5 0.000000 0.000000 0.000000 0.000000 0.052504 0.000000
# 6 0.000000 0.000000 0.000000 0.000000 0.000000 0.021254
#
#
# Mechanical properties :
#
#
# Convention : Reuss Voigt Hill
#
# Bulk Modulus (GPa) = 40.68667 67.59804 54.14235
# Shear Modulus (GPa) = 32.66842 42.30985 37.48914
#
# Velocity S-wave (km/s) = 3.67493 4.18220 3.93674
# Velocity P-wave (km/s) = 5.90140 7.16003 6.56097
#
# Compressibility (1/GPa) = 0.02457807
#
# Stress axis : x y z
#
# Youngs Moduli (GPa) = 136.65813 173.55332 55.75876
#
# Poissons Ratio (x) = 0.46340 -0.05749
# Poissons Ratio (y) = 0.36489 0.08804
# Poissons Ratio (z) = -0.14090 0.27402
#
# Static dielectric constant tensor:
#      x y z
#    x 1.880670 0.000000 0.000000 
#    y 0.000000 1.904380 0.000000 
#    z 0.000000 0.000000 2.028400 
# 
# From -- ./inp_files/34030.got.cif
#   From: 2010.05.17/outbox.cif.g08.bks.cpg/sg74_18_cif.got.tgz:34030.got - 2010.06.03 17:57:02.
