data_PCOD9536297
_publ_section_title
;
Structure prediction by ZEFSAII (Michael W. Deem and Ramdas Pophale) SiO2 
 PCOD9536297
Probable space group: I M M A
;
_chemical_formula_sum "Si O2"
_cell_formula_units_Z 80
_cell_length_a 11.898764
_cell_length_b 20.654579
_cell_length_c 18.957187
_cell_angle_alpha 90.000000
_cell_angle_beta 90.000000
_cell_angle_gamma 90.000000
_cell_volume 4658.993367
_symmetry_space_group_name_H-M "I M M A"
_symmetry_group_IT_number 74
_symmetry_cell_setting 'orthorhombic'
loop_
_space_group_symop_operation_xyz
x,y,z
-x,1/2-y,z
x,-y,-z
-x,1/2+y,-z
-x,-y,-z
x,1/2+y,-z
-x,y,z
x,1/2-y,z
1/2+x,1/2+y,1/2+z
1/2-x,-y,1/2+z
1/2+x,1/2-y,1/2-z
1/2-x,y,1/2-z
1/2-x,1/2-y,1/2-z
1/2+x,y,1/2-z
1/2-x,1/2+y,1/2+z
1/2+x,-y,1/2+z
loop_
_atom_site_type_symbol
_atom_site_label
_atom_site_fract_x
_atom_site_fract_y
_atom_site_fract_z
Si Si1 0.500000 0.538161 0.393492
Si Si2 0.864352 0.891277 0.430601
Si Si3 0.754901 0.378782 0.080507
Si Si4 0.628058 0.250000 0.920678
Si Si5 0.500000 0.894445 0.536869
Si Si6 0.871501 0.750000 0.592161
Si Si7 0.262939 0.010693 0.666625
O O1 0.500000 0.592655 0.453520
O O2 0.500000 0.467103 0.430356
O O3 0.614488 0.539780 0.350516
O O4 0.806655 0.900157 0.507357
O O5 0.824387 0.820393 0.402700
O O6 0.000000 0.889938 0.439351
O O7 0.825866 0.945640 0.376161
O O8 0.692071 0.316029 0.110716
O O9 0.754923 0.438887 0.133658
O O10 0.883998 0.362520 0.061091
O O11 0.500000 0.250000 0.894277
O O12 0.625879 0.250000 0.006296
O O13 0.000000 0.750000 0.617036
O O14 0.250000 0.009553 0.750000
#
# Coordination Sequence:
#
# PCOD9536297 Si02
#       7
#     8  16  16   8   8   8  16
#     4   9  18  36  50  72 111 140 175 220 276 311
#     4  10  19  33  56  82 106 137 178 226 275 322
#     4  10  19  35  56  80 108 140 182 223 270 323
#     4   7  14  30  50  75 105 131 162 210 269 315
#     4   9  16  31  58  76  98 145 178 219 266 319
#     4   9  18  33  54  81 111 138 168 226 283 315
#     4  11  23  35  52  80 110 145 182 223 269 321
#
# _framework density 17.171091000000001
#
# number of rings (size 3 to 8) (size 9 to 14) (size 15 to 20)
#    0.000    2.400    2.000    2.400    1.400    2.800 
#    0.000    1.000    0.000    0.600    0.000    0.000 
#    0.000    0.000    0.000    0.000    0.000    0.000 
#
# Total GULP energy -222847.659662 kJ/mol
# GULP energy per Si atom -5571.191492 kJ/mol
# Density = 1.713201 g / cm^3
# Si number density = 17.171091 Si / 1000 Ang^3
#
#
#
# Elastic Constant Matrix: (Units=GPa)
#
#
# Indices 1 2 3 4 5 6 
#
# 1 105.5232 9.6246 18.4529 0.0000 0.0000 0.0000
# 2 9.6246 41.1318 5.3499 0.0000 0.0000 0.0000
# 3 18.4529 5.3499 68.0120 0.0000 0.0000 0.0000
# 4 0.0000 0.0000 0.0000 0.9289 0.0000 0.0000
# 5 0.0000 0.0000 0.0000 0.0000 1.9083 0.0000
# 6 0.0000 0.0000 0.0000 0.0000 0.0000 24.7056
#
#
#
# Elastic Compliance Matrix: (Units=1/GPa)
#
#
# Indices 1 2 3 4 5 6 
#
# 1 0.010114 -0.002030 -0.002584 0.000000 0.000000 0.000000
# 2 -0.002030 0.024971 -0.001413 0.000000 0.000000 0.000000
# 3 -0.002584 -0.001413 0.015516 0.000000 0.000000 0.000000
# 4 0.000000 0.000000 0.000000 1.076563 0.000000 0.000000
# 5 0.000000 0.000000 0.000000 0.000000 0.524032 0.000000
# 6 0.000000 0.000000 0.000000 0.000000 0.000000 0.040477
#
#
# Mechanical properties :
#
#
# Convention : Reuss Voigt Hill
#
# Bulk Modulus (GPa) = 25.94423 31.28019 28.61221
# Shear Modulus (GPa) = 2.91277 17.59120 10.25198
#
# Velocity S-wave (km/s) = 1.30384 3.20420 2.44611
# Velocity P-wave (km/s) = 4.17238 5.65204 4.96761
#
# Compressibility (1/GPa) = 0.03854422
#
# Stress axis : x y z
#
# Youngs Moduli (GPa) = 98.87575 40.04637 64.45115
#
# Poissons Ratio (x) = 0.08131 0.16656
# Poissons Ratio (y) = 0.20076 0.09109
# Poissons Ratio (z) = 0.25553 0.05660
#
# Static dielectric constant tensor:
#      x y z
#    x 1.601660 0.000000 0.000000 
#    y 0.000000 1.603710 0.000000 
#    z 0.000000 0.000000 1.550120 
# 
# From -- ./inp_files/41240.got.cif
#   From: 2010.05.17/outbox.cif.g08.bks.cpg/sg74_21_cif.got.tgz:41240.got - 2010.06.03 17:57:02.
