data_PCOD9536977
_publ_section_title
;
Structure prediction by ZEFSAII (Michael W. Deem and Ramdas Pophale) SiO2 
 PCOD9536977
Probable space group: I M M A
;
_chemical_formula_sum "Si O2"
_cell_formula_units_Z 88
_cell_length_a 27.953224
_cell_length_b 8.054497
_cell_length_c 31.067640
_cell_angle_alpha 90.000000
_cell_angle_beta 90.000000
_cell_angle_gamma 90.000000
_cell_volume 6994.853013
_symmetry_space_group_name_H-M "I M M A"
_symmetry_group_IT_number 74
_symmetry_cell_setting 'orthorhombic'
loop_
_space_group_symop_operation_xyz
x,y,z
-x,1/2-y,z
x,-y,-z
-x,1/2+y,-z
-x,-y,-z
x,1/2+y,-z
-x,y,z
x,1/2-y,z
1/2+x,1/2+y,1/2+z
1/2-x,-y,1/2+z
1/2+x,1/2-y,1/2-z
1/2-x,y,1/2-z
1/2-x,1/2-y,1/2-z
1/2+x,y,1/2-z
1/2-x,1/2+y,1/2+z
1/2+x,-y,1/2+z
loop_
_atom_site_type_symbol
_atom_site_label
_atom_site_fract_x
_atom_site_fract_y
_atom_site_fract_z
Si Si1 0.753405 0.067112 0.367341
Si Si2 0.172426 0.250000 0.730966
Si Si3 0.724648 0.250000 0.681284
Si Si4 0.500000 0.549628 0.950276
Si Si5 0.400466 0.549564 0.909636
Si Si6 0.356927 0.939505 0.819832
Si Si7 0.698615 0.944494 0.048912
O O1 0.732070 0.250000 0.361209
O O2 0.804396 0.065029 0.342200
O O3 0.723848 0.915025 0.347759
O O4 0.767837 0.037887 0.416862
O O5 0.223456 0.250000 0.705382
O O6 0.185663 0.250000 0.781044
O O7 0.145565 0.416769 0.715580
O O8 0.500000 0.750000 0.947593
O O9 0.451314 0.491232 0.927491
O O10 0.500000 0.500000 0.000000
O O11 0.397569 0.750000 0.913851
O O12 0.391918 0.513550 0.859259
O O13 0.356127 0.477613 0.936498
O O14 0.367026 0.750000 0.805197
O O15 0.708082 0.750000 0.053317
O O16 0.705112 0.000000 0.000000
#
# Coordination Sequence:
#
# PCOD9536977 Si02
#       7
#    16   8   8   8  16  16  16
#     4   9  16  27  38  51  72  92 111 137 171 206
#     4   9  16  24  40  55  72  86 114 131 162 220
#     4   9  16  26  36  56  72  92 106 134 170 207
#     4  10  20  32  40  52  72  90 118 154 188 234
#     4   9  18  30  41  52  68  90 114 148 191 224
#     4   8  15  26  39  53  69  88 110 138 170 211
#     4  11  19  27  39  53  68  89 121 152 178 215
#
# _framework density 12.580679
#
# number of rings (size 3 to 8) (size 9 to 14) (size 15 to 20)
#    0.000    2.727    0.909    3.273    3.818    2.909 
#    0.000    3.636    0.000    0.000    0.000    0.000 
#    0.000    0.000    0.000    0.000    0.000    0.000 
#
# Total GULP energy -245061.760072 kJ/mol
# GULP energy per Si atom -5569.585456 kJ/mol
# Density = 1.255205 g / cm^3
# Si number density = 12.580679 Si / 1000 Ang^3
#
#
#
# Elastic Constant Matrix: (Units=GPa)
#
#
# Indices 1 2 3 4 5 6 
#
# 1 21.7270 21.9894 30.4062 0.0000 0.0000 0.0000
# 2 21.9894 86.3364 50.2837 0.0000 0.0000 0.0000
# 3 30.4062 50.2837 80.8663 0.0000 0.0000 0.0000
# 4 0.0000 0.0000 0.0000 16.8810 0.0000 0.0000
# 5 0.0000 0.0000 0.0000 0.0000 18.1697 0.0000
# 6 0.0000 0.0000 0.0000 0.0000 0.0000 8.2035
#
#
#
# Elastic Compliance Matrix: (Units=1/GPa)
#
#
# Indices 1 2 3 4 5 6 
#
# 1 0.098800 -0.005530 -0.033710 0.000000 0.000000 0.000000
# 2 -0.005530 0.018468 -0.009405 0.000000 0.000000 0.000000
# 3 -0.033710 -0.009405 0.030889 0.000000 0.000000 0.000000
# 4 0.000000 0.000000 0.000000 0.059238 0.000000 0.000000
# 5 0.000000 0.000000 0.000000 0.000000 0.055037 0.000000
# 6 0.000000 0.000000 0.000000 0.000000 0.000000 0.121899
#
#
# Mechanical properties :
#
#
# Convention : Reuss Voigt Hill
#
# Bulk Modulus (GPa) = 19.65917 43.80982 31.73450
# Shear Modulus (GPa) = 10.02853 14.40085 12.21469
#
# Velocity S-wave (km/s) = 2.82642 3.38698 3.11932
# Velocity P-wave (km/s) = 5.12952 7.08479 6.18491
#
# Compressibility (1/GPa) = 0.05086684
#
# Stress axis : x y z
#
# Youngs Moduli (GPa) = 10.12151 54.14635 32.37366
#
# Poissons Ratio (x) = 0.29944 1.09133
# Poissons Ratio (y) = 0.05597 0.30446
# Poissons Ratio (z) = 0.34120 0.50922
#
# Static dielectric constant tensor:
#      x y z
#    x 1.377670 0.000000 0.000000 
#    y 0.000000 1.450180 0.000000 
#    z 0.000000 0.000000 1.409870 
# 
# From -- ./inp_files/55587.got.cif
#   From: 2010.05.17/outbox.cif.g08.bks.cpg/sg74_28_cif.got.tgz:55587.got - 2010.06.03 17:57:02.
