data_PCOD9536197
_publ_section_title
;
Structure prediction by ZEFSAII (Michael W. Deem and Ramdas Pophale) SiO2 
 PCOD9536197
Probable space group: I M M A
;
_chemical_formula_sum "Si O2"
_cell_formula_units_Z 80
_cell_length_a 25.363228
_cell_length_b 20.556353
_cell_length_c 8.066191
_cell_angle_alpha 90.000000
_cell_angle_beta 90.000000
_cell_angle_gamma 90.000000
_cell_volume 4205.514108
_symmetry_space_group_name_H-M "I M M A"
_symmetry_group_IT_number 74
_symmetry_cell_setting 'orthorhombic'
loop_
_space_group_symop_operation_xyz
x,y,z
-x,1/2-y,z
x,-y,-z
-x,1/2+y,-z
-x,-y,-z
x,1/2+y,-z
-x,y,z
x,1/2-y,z
1/2+x,1/2+y,1/2+z
1/2-x,-y,1/2+z
1/2+x,1/2-y,1/2-z
1/2-x,y,1/2-z
1/2-x,1/2-y,1/2-z
1/2+x,y,1/2-z
1/2-x,1/2+y,1/2+z
1/2+x,-y,1/2+z
loop_
_atom_site_type_symbol
_atom_site_label
_atom_site_fract_x
_atom_site_fract_y
_atom_site_fract_z
Si Si1 0.558106 0.431243 0.908887
Si Si2 0.834141 0.961943 0.236514
Si Si3 0.619082 0.176882 0.111579
Si Si4 0.222939 0.853584 0.420163
Si Si5 0.683010 0.396930 0.379307
O O1 0.500000 0.414536 0.840302
O O2 0.605839 0.447190 0.785718
O O3 0.553224 0.500000 0.000000
O O4 0.578350 0.374387 0.031755
O O5 0.796531 0.925395 0.365987
O O6 0.817346 0.037084 0.229673
O O7 0.829920 0.926691 0.059609
O O8 0.598244 0.250000 0.128083
O O9 0.642028 0.149578 0.285435
O O10 0.669698 0.178428 0.987331
O O11 0.250000 0.827107 0.250000
O O12 0.263769 0.858901 0.571333
#
# Coordination Sequence:
#
# PCOD9536197 Si02
#       5
#    16  16  16  16  16
#     4  10  20  40  65  84 106 142 190 242 290 340
#     4   9  19  35  54  86 115 144 194 241 282 327
#     4  11  23  37  55  83 117 151 190 237 289 346
#     4   9  20  33  52  80 115 158 193 230 276 337
#     4  10  19  33  53  82 120 153 187 230 283 339
#
# _framework density 19.022646000000002
#
# number of rings (size 3 to 8) (size 9 to 14) (size 15 to 20)
#    0.000    2.200    2.000    0.600    0.000   12.000 
#    0.000   11.000    0.000    0.000    0.000    0.000 
#    0.000    0.000    0.000    0.000    0.000    0.000 
#
# Total GULP energy -222822.047304 kJ/mol
# GULP energy per Si atom -5570.551183 kJ/mol
# Density = 1.897935 g / cm^3
# Si number density = 19.022646 Si / 1000 Ang^3
#
#
#
# Elastic Constant Matrix: (Units=GPa)
#
#
# Indices 1 2 3 4 5 6 
#
# 1 92.6844 7.0540 8.1139 0.0000 0.0000 0.0000
# 2 7.0540 113.2643 10.7555 0.0000 0.0000 0.0000
# 3 8.1139 10.7555 64.6798 0.0000 0.0000 0.0000
# 4 0.0000 0.0000 0.0000 11.4602 0.0000 0.0000
# 5 0.0000 0.0000 0.0000 0.0000 9.3152 0.0000
# 6 0.0000 0.0000 0.0000 0.0000 0.0000 1.8023
#
#
#
# Elastic Compliance Matrix: (Units=1/GPa)
#
#
# Indices 1 2 3 4 5 6 
#
# 1 0.010944 -0.000560 -0.001280 0.000000 0.000000 0.000000
# 2 -0.000560 0.008999 -0.001426 0.000000 0.000000 0.000000
# 3 -0.001280 -0.001426 0.015858 0.000000 0.000000 0.000000
# 4 0.000000 0.000000 0.000000 0.087258 0.000000 0.000000
# 5 0.000000 0.000000 0.000000 0.000000 0.107351 0.000000
# 6 0.000000 0.000000 0.000000 0.000000 0.000000 0.554838
#
#
# Mechanical properties :
#
#
# Convention : Reuss Voigt Hill
#
# Bulk Modulus (GPa) = 34.16512 35.83059 34.99785
# Shear Modulus (GPa) = 6.23801 20.82923 13.53362
#
# Velocity S-wave (km/s) = 1.81284 3.31262 2.67019
# Velocity P-wave (km/s) = 4.73086 5.78860 5.28626
#
# Compressibility (1/GPa) = 0.02926962
#
# Stress axis : x y z
#
# Youngs Moduli (GPa) = 91.37454 111.12076 63.05776
#
# Poissons Ratio (x) = 0.06223 0.08070
# Poissons Ratio (y) = 0.05117 0.08993
# Poissons Ratio (z) = 0.11694 0.15848
#
# Static dielectric constant tensor:
#      x y z
#    x 1.730140 0.000000 0.000000 
#    y 0.000000 1.676690 0.000000 
#    z 0.000000 0.000000 1.691800 
# 
# From -- ./inp_files/14940.got.cif
#   From: 2010.05.17/outbox.cif.g08.bks.cpg/sg74_8_cif.got.tgz:14940.got - 2010.06.03 17:57:02.
