data_PCOD9536461
_publ_section_title
;
Structure prediction by ZEFSAII (Michael W. Deem and Ramdas Pophale) SiO2 
 PCOD9536461
Probable space group: I M M A
;
_chemical_formula_sum "Si O2"
_cell_formula_units_Z 116
_cell_length_a 17.943416
_cell_length_b 27.954057
_cell_length_c 9.723675
_cell_angle_alpha 90.000000
_cell_angle_beta 90.000000
_cell_angle_gamma 90.000000
_cell_volume 4877.310528
_symmetry_space_group_name_H-M "I M M A"
_symmetry_group_IT_number 74
_symmetry_cell_setting 'orthorhombic'
loop_
_space_group_symop_operation_xyz
x,y,z
-x,1/2-y,z
x,-y,-z
-x,1/2+y,-z
-x,-y,-z
x,1/2+y,-z
-x,y,z
x,1/2-y,z
1/2+x,1/2+y,1/2+z
1/2-x,-y,1/2+z
1/2+x,1/2-y,1/2-z
1/2-x,y,1/2-z
1/2-x,1/2-y,1/2-z
1/2+x,y,1/2-z
1/2-x,1/2+y,1/2+z
1/2+x,-y,1/2+z
loop_
_atom_site_type_symbol
_atom_site_label
_atom_site_fract_x
_atom_site_fract_y
_atom_site_fract_z
Si Si1 0.618670 0.908137 0.957481
Si Si2 0.084568 0.425013 0.766062
Si Si3 0.879445 0.301947 0.471081
Si Si4 0.500000 0.250000 0.624118
Si Si5 0.087166 0.533448 0.819654
Si Si6 0.790539 0.199572 0.056616
Si Si7 0.633490 0.320026 0.702990
Si Si8 0.285722 0.904513 0.602148
O O1 0.597853 0.941648 0.830039
O O2 0.709197 0.905965 0.985141
O O3 0.584649 0.925125 0.099904
O O4 0.591007 0.853790 0.927601
O O5 0.108094 0.477919 0.808394
O O6 0.129580 0.377566 0.806901
O O7 0.000000 0.417324 0.814370
O O8 0.915022 0.250000 0.442145
O O9 0.796510 0.300032 0.409429
O O10 0.872242 0.306273 0.637066
O O11 0.564806 0.292044 0.633731
O O12 0.145728 0.560184 0.918009
O O13 0.000000 0.537453 0.858627
O O14 0.824395 0.250000 0.102947
O O15 0.819148 0.149020 0.109131
O O16 0.798024 0.196229 0.891092
O O17 0.250000 0.916051 0.750000
#
# Coordination Sequence:
#
# PCOD9536461 Si02
#       8
#    16  16  16   4  16  16  16  16
#     4   9  18  33  57  83 108 136 183 230 270 316
#     4  10  20  34  56  83 112 143 177 217 270 331
#     4   9  17  31  53  79 109 138 169 218 273 329
#     4  12  20  32  50  76 118 154 158 210 260 332
#     4  10  20  38  56  76 106 147 184 226 270 315
#     4  10  19  34  56  79 101 139 181 223 267 318
#     4  11  20  33  50  82 114 141 171 206 267 330
#     4   9  20  39  56  78 108 141 185 232 272 308
#
# _framework density 23.7836
#
# number of rings (size 3 to 8) (size 9 to 14) (size 15 to 20)
#    0.000    2.207    2.069    1.241    0.000    2.483 
#    1.241   19.310    0.000    2.483    0.000    0.000 
#    0.000    0.000    0.000    0.000    0.000    0.000 
#
# Total GULP energy -323240.714610 kJ/mol
# GULP energy per Si atom -5573.115769 kJ/mol
# Density = 2.372947 g / cm^3
# Si number density = 23.783600 Si / 1000 Ang^3
#
#
#
# Elastic Constant Matrix: (Units=GPa)
#
#
# Indices 1 2 3 4 5 6 
#
# 1 73.0291 61.8453 11.3269 0.0000 0.0000 0.0000
# 2 61.8453 230.8211 30.2655 0.0001 0.0000 0.0000
# 3 11.3269 30.2655 57.8337 0.0006 0.0001 0.0001
# 4 0.0000 0.0001 0.0006 28.9361 0.0000 0.0000
# 5 0.0000 0.0000 0.0001 0.0000 1.2664 0.0000
# 6 0.0000 0.0000 0.0001 0.0000 0.0000 30.6586
#
#
#
# Elastic Compliance Matrix: (Units=1/GPa)
#
#
# Indices 1 2 3 4 5 6 
#
# 1 0.017773 -0.004623 -0.001062 0.000000 0.000000 0.000000
# 2 -0.004623 0.005854 -0.002158 0.000000 0.000000 0.000000
# 3 -0.001062 -0.002158 0.018628 0.000000 -0.000001 0.000000
# 4 0.000000 0.000000 0.000000 0.034559 0.000000 0.000000
# 5 0.000000 0.000000 -0.000001 0.000000 0.789633 0.000000
# 6 0.000000 0.000000 0.000000 0.000000 0.000000 0.032617
#
#
# Mechanical properties :
#
#
# Convention : Reuss Voigt Hill
#
# Bulk Modulus (GPa) = 37.63667 63.17327 50.40497
# Shear Modulus (GPa) = 5.41357 29.38865 17.40111
#
# Velocity S-wave (km/s) = 1.51034 3.51902 2.70782
# Velocity P-wave (km/s) = 4.34747 6.56740 5.56916
#
# Compressibility (1/GPa) = 0.02656983
#
# Stress axis : x y z
#
# Youngs Moduli (GPa) = 56.26632 170.82549 53.68191
#
# Poissons Ratio (x) = 0.78968 0.05699
# Poissons Ratio (y) = 0.26010 0.11585
# Poissons Ratio (z) = 0.05974 0.36866
#
# Static dielectric constant tensor:
#      x y z
#    x 1.937940 0.000000 0.000000 
#    y 0.000000 1.925760 0.000000 
#    z 0.000000 0.000000 1.939940 
# 
# From -- ./inp_files/22828.got.cif
#   From: 2010.05.17/outbox.cif.g08.bks.cpg/sg74_12_cif.got.tgz:22828.got - 2010.06.03 17:57:02.
