data_PCOD9536840
_publ_section_title
;
Structure prediction by ZEFSAII (Michael W. Deem and Ramdas Pophale) SiO2 
 PCOD9536840
Probable space group: I M M A
;
_chemical_formula_sum "Si O2"
_cell_formula_units_Z 96
_cell_length_a 14.850851
_cell_length_b 14.017781
_cell_length_c 22.131737
_cell_angle_alpha 90.000000
_cell_angle_beta 90.000000
_cell_angle_gamma 90.000000
_cell_volume 4607.295972
_symmetry_space_group_name_H-M "I M M A"
_symmetry_group_IT_number 74
_symmetry_cell_setting 'orthorhombic'
loop_
_space_group_symop_operation_xyz
x,y,z
-x,1/2-y,z
x,-y,-z
-x,1/2+y,-z
-x,-y,-z
x,1/2+y,-z
-x,y,z
x,1/2-y,z
1/2+x,1/2+y,1/2+z
1/2-x,-y,1/2+z
1/2+x,1/2-y,1/2-z
1/2-x,y,1/2-z
1/2-x,1/2-y,1/2-z
1/2+x,y,1/2-z
1/2-x,1/2+y,1/2+z
1/2+x,-y,1/2+z
loop_
_atom_site_type_symbol
_atom_site_label
_atom_site_fract_x
_atom_site_fract_y
_atom_site_fract_z
Si Si1 0.900631 0.438818 0.876304
Si Si2 0.401003 0.750000 0.179555
Si Si3 0.673303 0.855889 0.802116
Si Si4 0.898011 0.250000 0.536431
Si Si5 0.330788 0.646417 0.605533
Si Si6 0.854774 0.444534 0.739762
Si Si7 0.738581 0.107245 0.521107
O O1 0.888064 0.553580 0.879302
O O2 0.894567 0.418519 0.805093
O O3 0.820436 0.394308 0.917170
O O4 0.000000 0.412156 0.899355
O O5 0.500000 0.750000 0.207600
O O6 0.406546 0.750000 0.108189
O O7 0.360809 0.851136 0.198730
O O8 0.629204 0.750000 0.804107
O O9 0.750000 0.849326 0.750000
O O10 0.732524 0.868237 0.863227
O O11 0.616472 0.952189 0.787919
O O12 0.833319 0.160924 0.522407
O O13 0.000000 0.250000 0.510703
O O14 0.364170 0.750000 0.627386
O O15 0.319982 0.648912 0.533677
O O16 0.750000 0.459624 0.750000
O O17 0.754490 0.000000 0.500000
#
# Coordination Sequence:
#
# PCOD9536840 Si02
#       7
#    16   8  16   8  16  16  16
#     4  11  23  38  60  94 137 178 221 263 310 384
#     4  11  25  39  57  86 125 160 199 263 325 381
#     4   9  17  32  61  94 116 155 213 266 327 382
#     4  11  24  45  70  98 123 156 221 281 333 397
#     4  10  19  37  62  90 122 172 218 267 317 388
#     4  11  20  38  63  90 120 167 217 267 319 379
#     4  10  23  41  65  91 131 171 213 261 333 385
#
# _framework density 20.836517000000001
#
# number of rings (size 3 to 8) (size 9 to 14) (size 15 to 20)
#    0.000    1.667    4.167    1.750    2.333    4.333 
#    0.000    1.250    0.000    1.500    0.000    0.000 
#    0.000    0.000    0.000    0.000    0.000    0.000 
#
# Total GULP energy -267379.527576 kJ/mol
# GULP energy per Si atom -5570.406824 kJ/mol
# Density = 2.078909 g / cm^3
# Si number density = 20.836517 Si / 1000 Ang^3
#
#
#
# Elastic Constant Matrix: (Units=GPa)
#
#
# Indices 1 2 3 4 5 6 
#
# 1 78.4213 6.4983 -11.6901 0.0000 0.0000 0.0000
# 2 6.4983 103.4270 -3.5214 0.0000 0.0000 0.0000
# 3 -11.6901 -3.5214 57.6172 0.0000 0.0000 0.0000
# 4 0.0000 0.0000 0.0000 5.9056 0.0000 0.0000
# 5 0.0000 0.0000 0.0000 0.0000 9.6781 0.0000
# 6 0.0000 0.0000 0.0000 0.0000 0.0000 -47.1593
#
#
#
# Elastic Compliance Matrix: (Units=1/GPa)
#
#
# Indices 1 2 3 4 5 6 
#
# 1 0.013206 -0.000740 0.002634 0.000000 0.000000 0.000000
# 2 -0.000740 0.009730 0.000445 0.000000 0.000000 0.000000
# 3 0.002634 0.000445 0.017918 0.000000 0.000000 0.000000
# 4 0.000000 0.000000 0.000000 0.169331 0.000000 0.000000
# 5 0.000000 0.000000 0.000000 0.000000 0.103326 0.000000
# 6 0.000000 0.000000 0.000000 0.000000 0.000000 -0.021205
#
#
# Mechanical properties :
#
#
# Convention : Reuss Voigt Hill
#
# Bulk Modulus (GPa) = 21.96325 24.67104 23.31714
# Shear Modulus (GPa) = 16.51223 10.23011 13.37117
#
# Velocity S-wave (km/s) = 2.81813 2.21819 2.53596
# Velocity P-wave (km/s) = 4.59922 4.29261 4.44855
#
# Compressibility (1/GPa) = 0.04553060
#
# Stress axis : x y z
#
# Youngs Moduli (GPa) = 75.72532 102.77186 55.81131
#
# Poissons Ratio (x) = 0.07605 -0.14701
# Poissons Ratio (y) = 0.05604 -0.02481
# Poissons Ratio (z) = -0.19947 -0.04569
#
# Static dielectric constant tensor:
#      x y z
#    x 1.754100 0.000000 0.000000 
#    y 0.000000 1.930660 0.000000 
#    z 0.000000 0.000000 1.773950 
# 
# From -- ./inp_files/51959.got.cif
#   From: 2010.05.17/outbox.cif.g08.bks.cpg/sg74_26_cif.got.tgz:51959.got - 2010.06.03 17:57:02.
