data_PCOD9536652
_publ_section_title
;
Structure prediction by ZEFSAII (Michael W. Deem and Ramdas Pophale) SiO2 
 PCOD9536652
Probable space group: I M M A
;
_chemical_formula_sum "Si O2"
_cell_formula_units_Z 116
_cell_length_a 26.103453
_cell_length_b 7.942846
_cell_length_c 26.779400
_cell_angle_alpha 90.000000
_cell_angle_beta 90.000000
_cell_angle_gamma 90.000000
_cell_volume 5552.325839
_symmetry_space_group_name_H-M "I M M A"
_symmetry_group_IT_number 74
_symmetry_cell_setting 'orthorhombic'
loop_
_space_group_symop_operation_xyz
x,y,z
-x,1/2-y,z
x,-y,-z
-x,1/2+y,-z
-x,-y,-z
x,1/2+y,-z
-x,y,z
x,1/2-y,z
1/2+x,1/2+y,1/2+z
1/2-x,-y,1/2+z
1/2+x,1/2-y,1/2-z
1/2-x,y,1/2-z
1/2-x,1/2-y,1/2-z
1/2+x,y,1/2-z
1/2-x,1/2+y,1/2+z
1/2+x,-y,1/2+z
loop_
_atom_site_type_symbol
_atom_site_label
_atom_site_fract_x
_atom_site_fract_y
_atom_site_fract_z
Si Si1 0.648432 0.555658 0.724123
Si Si2 0.801414 0.951862 0.946418
Si Si3 0.860047 0.056463 0.668198
Si Si4 0.000000 0.750000 0.448377
Si Si5 0.555021 0.562945 0.906705
Si Si6 0.742373 0.953528 0.658358
Si Si7 0.919915 0.951404 0.945969
Si Si8 0.444547 0.553462 0.338295
O O1 0.635243 0.250000 0.845959
O O2 0.627650 0.466235 0.773416
O O3 0.701177 0.487164 0.699817
O O4 0.604239 0.543915 0.682756
O O5 0.801910 0.750000 0.944104
O O6 0.774366 0.014887 0.896519
O O7 0.860407 0.008963 0.945569
O O8 0.778452 0.000000 0.000000
O O9 0.842273 0.750000 0.762054
O O10 0.897937 0.959384 0.630898
O O11 0.800851 0.001936 0.666042
O O12 0.044384 0.597339 0.442418
O O13 0.500000 0.562098 0.877517
O O14 0.558176 0.750000 0.931028
O O15 0.738650 0.750000 0.659007
O O16 0.922251 0.750000 0.940469
O O17 0.944547 0.033372 0.897835
O O18 0.940900 0.000000 0.000000
O O19 0.500000 0.493848 0.319128
O O20 0.438638 0.750000 0.325666
#
# Coordination Sequence:
#
# PCOD9536652 Si02
#       8
#    16  16  16   4  16  16  16  16
#     4  11  23  40  57  74 103 144 187 231 288 348
#     4   9  18  34  56  82 109 140 178 222 278 340
#     4  12  23  36  54  82 112 145 192 235 276 335
#     4   8  14  32  52  78 106 140 180 232 258 330
#     4   9  17  32  53  76 107 144 179 226 274 315
#     4  10  21  38  56  79 110 143 181 227 280 342
#     4  10  19  35  58  82 105 138 179 229 287 347
#     4  11  24  40  56  78 107 141 184 238 293 345
#
# _framework density 20.892146
#
# number of rings (size 3 to 8) (size 9 to 14) (size 15 to 20)
#    0.414    1.379    2.069    2.897    0.000    5.793 
#    0.000    0.000    0.000    0.000    0.000    0.000 
#    0.000    0.552    0.000    3.034    0.000    5.517 
#
# Total GULP energy -322981.498205 kJ/mol
# GULP energy per Si atom -5568.646521 kJ/mol
# Density = 2.084459 g / cm^3
# Si number density = 20.892146 Si / 1000 Ang^3
#
#
#
# Elastic Constant Matrix: (Units=GPa)
#
#
# Indices 1 2 3 4 5 6 
#
# 1 80.7073 5.7752 5.6199 0.0000 0.0000 0.0000
# 2 5.7752 80.5533 0.6552 0.0000 0.0000 0.0000
# 3 5.6199 0.6552 41.5143 0.0000 0.0000 0.0000
# 4 0.0000 0.0000 0.0000 24.6860 0.0000 0.0000
# 5 0.0000 0.0000 0.0000 0.0000 394.5300 0.0000
# 6 0.0000 0.0000 0.0000 0.0000 0.0000 5.1645
#
#
#
# Elastic Compliance Matrix: (Units=1/GPa)
#
#
# Indices 1 2 3 4 5 6 
#
# 1 0.012571 -0.000888 -0.001688 0.000000 0.000000 0.000000
# 2 -0.000888 0.012478 -0.000077 0.000000 0.000000 0.000000
# 3 -0.001688 -0.000077 0.024318 0.000000 0.000000 0.000000
# 4 0.000000 0.000000 0.000000 0.040509 0.000000 0.000000
# 5 0.000000 0.000000 0.000000 0.000000 0.002535 0.000000
# 6 0.000000 0.000000 0.000000 0.000000 0.000000 0.193631
#
#
# Mechanical properties :
#
#
# Convention : Reuss Voigt Hill
#
# Bulk Modulus (GPa) = 22.69463 25.20838 23.95151
# Shear Modulus (GPa) = 16.33804 97.59108 56.96456
#
# Velocity S-wave (km/s) = 2.79949 6.84202 5.22735
# Velocity P-wave (km/s) = 4.61908 8.63191 6.92263
#
# Compressibility (1/GPa) = 0.04406329
#
# Stress axis : x y z
#
# Youngs Moduli (GPa) = 79.54502 80.13848 41.12220
#
# Poissons Ratio (x) = 0.07113 0.06941
# Poissons Ratio (y) = 0.07060 0.00316
# Poissons Ratio (z) = 0.13426 0.00615
#
# Static dielectric constant tensor:
#      x y z
#    x 1.759370 0.000000 0.000000 
#    y 0.000000 1.770860 0.000000 
#    z 0.000000 0.000000 1.760220 
# 
# From -- ./inp_files/73780.got.cif
#   From: 2010.05.17/outbox.cif.g08.bks.cpg/sg74_37_cif.got.tgz:73780.got - 2010.06.03 17:57:02.
