data_PCOD9536753
_publ_section_title
;
Structure prediction by ZEFSAII (Michael W. Deem and Ramdas Pophale) SiO2 
 PCOD9536753
Probable space group: I M M A
;
_chemical_formula_sum "Si O2"
_cell_formula_units_Z 44
_cell_length_a 15.988452
_cell_length_b 5.306959
_cell_length_c 30.232662
_cell_angle_alpha 90.000000
_cell_angle_beta 90.000000
_cell_angle_gamma 90.000000
_cell_volume 2565.243162
_symmetry_space_group_name_H-M "I M M A"
_symmetry_group_IT_number 74
_symmetry_cell_setting 'orthorhombic'
loop_
_space_group_symop_operation_xyz
x,y,z
-x,1/2-y,z
x,-y,-z
-x,1/2+y,-z
-x,-y,-z
x,1/2+y,-z
-x,y,z
x,1/2-y,z
1/2+x,1/2+y,1/2+z
1/2-x,-y,1/2+z
1/2+x,1/2-y,1/2-z
1/2-x,y,1/2-z
1/2-x,1/2-y,1/2-z
1/2+x,y,1/2-z
1/2-x,1/2+y,1/2+z
1/2+x,-y,1/2+z
loop_
_atom_site_type_symbol
_atom_site_label
_atom_site_fract_x
_atom_site_fract_y
_atom_site_fract_z
Si Si1 0.798043 0.750000 0.204025
Si Si2 0.403892 0.750000 0.689938
Si Si3 0.844738 0.250000 0.091566
Si Si4 0.500000 0.750000 0.527824
Si Si5 0.762508 0.750000 0.395592
Si Si6 0.600163 0.750000 0.029435
O O1 0.750000 0.750000 0.250000
O O2 0.855285 0.501295 0.203726
O O3 0.741150 0.750000 0.158764
O O4 0.500000 0.750000 0.704285
O O5 0.396527 0.750000 0.637062
O O6 0.787930 0.499013 0.090874
O O7 0.914474 0.250000 0.054806
O O8 0.500000 0.500000 0.500000
O O9 0.847562 0.750000 0.424611
O O10 0.500000 0.750000 0.038095
O O11 0.619313 0.500000 0.000000
#
# Coordination Sequence:
#
# PCOD9536753 Si02
#       6
#     8   8   8   4   8   8
#     4  10  21  36  57  85 115 142 182 238 284 338
#     4  10  19  36  59  77 105 148 190 221 265 338
#     4  10  21  36  52  77 107 144 186 219 261 331
#     4  12  24  34  48  76 116 146 176 230 272 298
#     4  10  21  36  59  79 106 150 180 225 286 328
#     4  10  21  37  57  80 107 141 187 236 280 335
#
# _framework density 17.152370000000001
#
# number of rings (size 3 to 8) (size 9 to 14) (size 15 to 20)
#    0.000    1.818    0.909    3.273    0.000    4.364 
#    0.000    1.818    0.000    2.182    0.000    0.000 
#    0.000    0.000    0.000    0.000    0.000    0.000 
#
# Total GULP energy -122680.449174 kJ/mol
# GULP energy per Si atom -5576.384053 kJ/mol
# Density = 1.711333 g / cm^3
# Si number density = 17.152370 Si / 1000 Ang^3
#
#
#
# Elastic Constant Matrix: (Units=GPa)
#
#
# Indices 1 2 3 4 5 6 
#
# 1 106.3274 59.8678 92.0305 0.0000 0.0000 0.0000
# 2 59.8678 174.8783 73.7357 0.0000 0.0000 0.0000
# 3 92.0305 73.7357 137.5429 0.0000 0.0000 0.0000
# 4 0.0000 0.0000 0.0000 -7.2154 0.0000 0.0000
# 5 0.0000 0.0000 0.0000 0.0000 -24.1445 0.0000
# 6 0.0000 0.0000 0.0000 0.0000 0.0000 3.5805
#
#
#
# Elastic Compliance Matrix: (Units=1/GPa)
#
#
# Indices 1 2 3 4 5 6 
#
# 1 0.022763 -0.001771 -0.014282 0.000000 0.000000 0.000000
# 2 -0.001771 0.007526 -0.002850 0.000000 0.000000 0.000000
# 3 -0.014282 -0.002850 0.018354 0.000000 0.000000 0.000000
# 4 0.000000 0.000000 0.000000 -0.138592 0.000000 0.000000
# 5 0.000000 0.000000 0.000000 0.000000 -0.041417 0.000000
# 6 0.000000 0.000000 0.000000 0.000000 0.000000 0.279292
#
#
# Mechanical properties :
#
#
# Convention : Reuss Voigt Hill
#
# Bulk Modulus (GPa) = 92.26097 96.66851 94.46474
# Shear Modulus (GPa) = 26.40700 7.31842 16.86271
#
# Velocity S-wave (km/s) = 3.92797 2.06784 3.13886
# Velocity P-wave (km/s) = 8.63005 7.88558 8.26620
#
# Compressibility (1/GPa) = 0.01083882
#
# Stress axis : x y z
#
# Youngs Moduli (GPa) = 43.93014 132.87089 54.48408
#
# Poissons Ratio (x) = 0.23533 0.77812
# Poissons Ratio (y) = 0.07781 0.15526
# Poissons Ratio (z) = 0.62739 0.37863
#
# Static dielectric constant tensor:
#      x y z
#    x 1.521400 0.000000 0.000000 
#    y 0.000000 1.550070 0.000000 
#    z 0.000000 0.000000 1.580240 
# 
# From -- ./inp_files/62894.got.cif
#   From: 2010.05.17/outbox.cif.g08.bks.cpg/sg74_32_cif.got.tgz:62894.got - 2010.06.03 17:57:02.
