data_PCOD9536810
_publ_section_title
;
Structure prediction by ZEFSAII (Michael W. Deem and Ramdas Pophale) SiO2 
 PCOD9536810
Probable space group: I M M A
;
_chemical_formula_sum "Si O2"
_cell_formula_units_Z 60
_cell_length_a 15.624249
_cell_length_b 25.529623
_cell_length_c 8.531130
_cell_angle_alpha 90.000000
_cell_angle_beta 90.000000
_cell_angle_gamma 90.000000
_cell_volume 3402.907258
_symmetry_space_group_name_H-M "I M M A"
_symmetry_group_IT_number 74
_symmetry_cell_setting 'orthorhombic'
loop_
_space_group_symop_operation_xyz
x,y,z
-x,1/2-y,z
x,-y,-z
-x,1/2+y,-z
-x,-y,-z
x,1/2+y,-z
-x,y,z
x,1/2-y,z
1/2+x,1/2+y,1/2+z
1/2-x,-y,1/2+z
1/2+x,1/2-y,1/2-z
1/2-x,y,1/2-z
1/2-x,1/2-y,1/2-z
1/2+x,y,1/2-z
1/2-x,1/2+y,1/2+z
1/2+x,-y,1/2+z
loop_
_atom_site_type_symbol
_atom_site_label
_atom_site_fract_x
_atom_site_fract_y
_atom_site_fract_z
Si Si1 0.000000 0.339462 0.373782
Si Si2 0.000000 0.459990 0.358762
Si Si3 0.164706 0.661698 0.849266
Si Si4 0.666766 0.460719 0.355017
Si Si5 0.401046 0.750000 0.435958
Si Si6 0.000000 0.750000 0.369273
O O1 0.083994 0.331470 0.267100
O O2 0.000000 0.400414 0.421235
O O3 0.000000 0.300343 0.519316
O O4 0.000000 0.500000 0.500000
O O5 0.916965 0.467442 0.251201
O O6 0.250000 0.674154 0.750000
O O7 0.169390 0.600889 0.900739
O O8 0.147362 0.699791 0.994872
O O9 0.664466 0.500000 0.500000
O O10 0.750000 0.471125 0.250000
O O11 0.500000 0.750000 0.498411
O O12 0.418818 0.750000 0.249854
#
# Coordination Sequence:
#
# PCOD9536810 Si02
#       6
#     8   8  16  16   8   4
#     4  10  19  37  54  77 112 142 186 229 276 335
#     4  10  21  34  55  82 109 149 191 228 279 340
#     4  10  20  37  61  82 105 152 194 226 271 343
#     4  10  21  37  58  84 116 148 189 234 286 336
#     4  10  20  36  57  80 112 142 187 231 286 317
#     4  10  22  34  56  80 110 152 170 234 302 308
#
# _framework density 17.631983000000002
#
# number of rings (size 3 to 8) (size 9 to 14) (size 15 to 20)
#    0.400    1.600    1.333    2.400    0.000    2.133 
#    0.000    2.667    0.000    0.000    0.000    0.000 
#    0.000    0.000    0.000    0.000    0.000    0.000 
#
# Total GULP energy -167374.272690 kJ/mol
# GULP energy per Si atom -5579.142423 kJ/mol
# Density = 1.759185 g / cm^3
# Si number density = 17.631983 Si / 1000 Ang^3
#
#
#
# Elastic Constant Matrix: (Units=GPa)
#
#
# Indices 1 2 3 4 5 6 
#
# 1 131.2367 54.6262 43.7568 -0.0001 -0.0001 0.0000
# 2 54.6262 140.2665 115.7229 0.0000 0.0001 0.0000
# 3 43.7568 115.7229 122.2918 -0.0001 0.0000 0.0000
# 4 -0.0001 0.0000 -0.0001 43.3497 0.0000 -0.0001
# 5 -0.0001 0.0001 0.0000 0.0000 10.9104 0.0000
# 6 0.0000 0.0000 0.0000 -0.0001 0.0000 20.6922
#
#
#
# Elastic Compliance Matrix: (Units=1/GPa)
#
#
# Indices 1 2 3 4 5 6 
#
# 1 0.009099 -0.003911 0.000445 0.000000 0.000000 0.000000
# 2 -0.003911 0.034191 -0.030955 0.000000 0.000000 0.000000
# 3 0.000445 -0.030955 0.037310 0.000000 0.000000 0.000000
# 4 0.000000 0.000000 0.000000 0.023068 0.000000 0.000000
# 5 0.000000 0.000000 0.000000 0.000000 0.091656 0.000000
# 6 0.000000 0.000000 0.000000 0.000000 0.000000 0.048327
#
#
# Mechanical properties :
#
#
# Convention : Reuss Voigt Hill
#
# Bulk Modulus (GPa) = 85.04362 91.33408 88.18885
# Shear Modulus (GPa) = 15.80216 26.96974 21.38595
#
# Velocity S-wave (km/s) = 2.99694 3.91524 3.48646
# Velocity P-wave (km/s) = 7.76614 8.50597 8.14446
#
# Compressibility (1/GPa) = 0.01175867
#
# Stress axis : x y z
#
# Youngs Moduli (GPa) = 109.89875 29.24774 26.80239
#
# Poissons Ratio (x) = 0.11438 -0.01192
# Poissons Ratio (y) = 0.42977 0.82966
# Poissons Ratio (z) = -0.04888 0.90536
#
# Static dielectric constant tensor:
#      x y z
#    x 1.594450 0.000000 0.000000 
#    y 0.000000 1.603620 0.000000 
#    z 0.000000 0.000000 1.558060 
# 
# From -- ./inp_files/8750.got.cif
#   From: 2010.05.17/outbox.cif.g08.bks.cpg/sg74_5_cif.got.tgz:8750.got - 2010.06.03 17:57:02.
