data_PCOD9536030
_publ_section_title
;
Structure prediction by ZEFSAII (Michael W. Deem and Ramdas Pophale) SiO2 
 PCOD9536030
Probable space group: I M M A
;
_chemical_formula_sum "Si O2"
_cell_formula_units_Z 64
_cell_length_a 31.062831
_cell_length_b 11.306606
_cell_length_c 7.804090
_cell_angle_alpha 90.000000
_cell_angle_beta 90.000000
_cell_angle_gamma 90.000000
_cell_volume 2740.914963
_symmetry_space_group_name_H-M "I M M A"
_symmetry_group_IT_number 74
_symmetry_cell_setting 'orthorhombic'
loop_
_space_group_symop_operation_xyz
x,y,z
-x,1/2-y,z
x,-y,-z
-x,1/2+y,-z
-x,-y,-z
x,1/2+y,-z
-x,y,z
x,1/2-y,z
1/2+x,1/2+y,1/2+z
1/2-x,-y,1/2+z
1/2+x,1/2-y,1/2-z
1/2-x,y,1/2-z
1/2-x,1/2-y,1/2-z
1/2+x,y,1/2-z
1/2-x,1/2+y,1/2+z
1/2+x,-y,1/2+z
loop_
_atom_site_type_symbol
_atom_site_label
_atom_site_fract_x
_atom_site_fract_y
_atom_site_fract_z
Si Si1 0.699721 0.120598 0.209029
Si Si2 0.165187 0.121839 0.672986
Si Si3 0.951098 0.375105 0.975372
Si Si4 0.435678 0.376782 0.918203
O O1 0.683895 0.250000 0.272153
O O2 0.750000 0.111779 0.250000
O O3 0.676839 0.999490 0.268545
O O4 0.692513 0.123370 0.003183
O O5 0.171775 0.250000 0.760631
O O6 0.115796 0.117218 0.610774
O O7 0.931533 0.250000 0.034050
O O8 0.954296 0.369812 0.771302
O O9 0.000000 0.381677 0.047560
O O10 0.927928 0.500000 0.000000
O O11 0.445324 0.250000 0.006878
O O12 0.449467 0.500000 0.000000
#
# Coordination Sequence:
#
# PCOD9536030 Si02
#       4
#    16  16  16  16
#     4   9  16  27  46  68  90 120 160 202 247 302
#     4   9  17  30  47  69  96 128 164 206 258 308
#     4   9  19  36  56  79 109 144 182 222 263 313
#     4  10  19  32  54  81 109 142 178 219 268 321
#
# _framework density 23.349867
#
# number of rings (size 3 to 8) (size 9 to 14) (size 15 to 20)
#    0.000    2.750    2.500    0.000    0.000    2.000 
#    0.000    0.000    5.500    0.000    0.000    0.000 
#    0.000    0.000    0.000    0.000    0.000    0.000 
#
# Total GULP energy -178166.485081 kJ/mol
# GULP energy per Si atom -5567.702659 kJ/mol
# Density = 2.329672 g / cm^3
# Si number density = 23.349867 Si / 1000 Ang^3
#
#
#
# Elastic Constant Matrix: (Units=GPa)
#
#
# Indices 1 2 3 4 5 6 
#
# 1 87.2410 15.7081 9.7257 0.0000 0.0000 0.0000
# 2 15.7081 347.9152 8.9658 0.0000 0.0000 -0.0003
# 3 9.7257 8.9658 24.8221 0.0000 0.0000 -0.0009
# 4 0.0000 0.0000 0.0000 14.6422 0.0000 -0.0004
# 5 0.0000 0.0000 0.0000 0.0000 14.3527 -0.0004
# 6 0.0000 -0.0003 -0.0009 -0.0004 -0.0004 -423.0423
#
#
#
# Elastic Compliance Matrix: (Units=1/GPa)
#
#
# Indices 1 2 3 4 5 6 
#
# 1 0.012048 -0.000426 -0.004567 0.000000 0.000000 0.000000
# 2 -0.000426 0.002916 -0.000886 0.000000 0.000000 0.000000
# 3 -0.004567 -0.000886 0.042396 0.000000 0.000000 0.000000
# 4 0.000000 0.000000 0.000000 0.068296 0.000000 0.000000
# 5 0.000000 0.000000 0.000000 0.000000 0.069673 0.000000
# 6 0.000000 0.000000 0.000000 0.000000 0.000000 -0.002364
#
#
# Mechanical properties :
#
#
# Convention : Reuss Voigt Hill
#
# Bulk Modulus (GPa) = 21.92884 58.75306 40.34095
# Shear Modulus (GPa) = 22.73496 -50.43757 -13.85131
#
# Velocity S-wave (km/s) = 3.12375 -4.65271 -2.43823
# Velocity P-wave (km/s) = 4.73521 1.90969 3.06393
#
# Compressibility (1/GPa) = 0.04560205
#
# Stress axis : x y z
#
# Youngs Moduli (GPa) = 82.99879 342.89413 23.58703
#
# Poissons Ratio (x) = 0.14617 0.10772
# Poissons Ratio (y) = 0.03538 0.02091
# Poissons Ratio (z) = 0.37904 0.30393
#
# Static dielectric constant tensor:
#      x y z
#    x 1.990680 0.000000 0.000000 
#    y 0.000000 2.078260 0.000000 
#    z 0.000000 0.000000 1.823450 
# 
# From -- ./inp_files/7323.got.cif
#   From: 2010.05.17/outbox.cif.g08.bks.cpg/sg74_4_cif.got.tgz:7323.got - 2010.06.03 17:57:02.
