data_PCOD9536062
_publ_section_title
;
Structure prediction by ZEFSAII (Michael W. Deem and Ramdas Pophale) SiO2 
 PCOD9536062
Probable space group: I M M A
;
_chemical_formula_sum "Si O2"
_cell_formula_units_Z 88
_cell_length_a 8.428171
_cell_length_b 26.109478
_cell_length_c 20.618908
_cell_angle_alpha 90.000000
_cell_angle_beta 90.000000
_cell_angle_gamma 90.000000
_cell_volume 4537.296796
_symmetry_space_group_name_H-M "I M M A"
_symmetry_group_IT_number 74
_symmetry_cell_setting 'orthorhombic'
loop_
_space_group_symop_operation_xyz
x,y,z
-x,1/2-y,z
x,-y,-z
-x,1/2+y,-z
-x,-y,-z
x,1/2+y,-z
-x,y,z
x,1/2-y,z
1/2+x,1/2+y,1/2+z
1/2-x,-y,1/2+z
1/2+x,1/2-y,1/2-z
1/2-x,y,1/2-z
1/2-x,1/2-y,1/2-z
1/2+x,y,1/2-z
1/2-x,1/2+y,1/2+z
1/2+x,-y,1/2+z
loop_
_atom_site_type_symbol
_atom_site_label
_atom_site_fract_x
_atom_site_fract_y
_atom_site_fract_z
Si Si1 0.689566 0.631175 0.680408
Si Si2 0.823174 0.019252 0.350943
Si Si3 0.262162 0.000000 0.000000
Si Si4 0.684460 0.087365 0.680464
Si Si5 0.191554 0.690740 0.949546
Si Si6 0.313285 0.895276 0.043344
O O1 0.500000 0.626513 0.681930
O O2 0.750000 0.649639 0.750000
O O3 0.762200 0.575150 0.666936
O O4 0.733534 0.668171 0.621105
O O5 0.831850 0.013350 0.429002
O O6 0.000000 0.011119 0.324370
O O7 0.711914 0.973968 0.325717
O O8 0.202555 0.942641 0.018197
O O9 0.500000 0.099274 0.674266
O O10 0.750000 0.103854 0.750000
O O11 0.779425 0.110187 0.619431
O O12 0.236694 0.750000 0.955405
O O13 0.000000 0.687088 0.956271
O O14 0.271750 0.654655 0.002811
O O15 0.500000 0.909290 0.033650
#
# Coordination Sequence:
#
# PCOD9536062 Si02
#       6
#    16  16   8  16  16  16
#     4  11  23  38  57  83 114 155 201 249 301 353
#     4  11  20  34  54  82 119 158 197 243 294 351
#     4  10  19  32  55  86 119 150 187 240 295 348
#     4  11  22  37  56  85 122 161 198 237 289 353
#     4  10  23  43  63  86 118 155 200 253 302 351
#     4  11  21  37  61  91 121 155 196 243 297 355
#
# _framework density 19.394808999999999
#
# number of rings (size 3 to 8) (size 9 to 14) (size 15 to 20)
#    0.000    1.273    1.818    6.545    0.000    1.455 
#    0.000    2.727    0.000    0.545    0.000    0.000 
#    0.000    0.000    0.000    0.000    0.000    0.000 
#
# Total GULP energy -245458.557262 kJ/mol
# GULP energy per Si atom -5578.603574 kJ/mol
# Density = 1.935067 g / cm^3
# Si number density = 19.394809 Si / 1000 Ang^3
#
#
#
# Elastic Constant Matrix: (Units=GPa)
#
#
# Indices 1 2 3 4 5 6 
#
# 1 52.9232 20.9932 22.8046 0.0000 0.0000 0.0000
# 2 20.9932 110.0296 60.6462 0.0000 0.0000 0.0000
# 3 22.8046 60.6462 148.1614 0.0000 0.0000 0.0000
# 4 0.0000 0.0000 0.0000 7.3945 0.0000 0.0000
# 5 0.0000 0.0000 0.0000 0.0000 22.4685 0.0000
# 6 0.0000 0.0000 0.0000 0.0000 0.0000 19.2570
#
#
#
# Elastic Compliance Matrix: (Units=1/GPa)
#
#
# Indices 1 2 3 4 5 6 
#
# 1 0.020913 -0.002861 -0.002048 0.000000 0.000000 0.000000
# 2 -0.002861 0.012128 -0.004524 0.000000 0.000000 0.000000
# 3 -0.002048 -0.004524 0.008916 0.000000 0.000000 0.000000
# 4 0.000000 0.000000 0.000000 0.135236 0.000000 0.000000
# 5 0.000000 0.000000 0.000000 0.000000 0.044507 0.000000
# 6 0.000000 0.000000 0.000000 0.000000 0.000000 0.051929
#
#
# Mechanical properties :
#
#
# Convention : Reuss Voigt Hill
#
# Bulk Modulus (GPa) = 43.30670 57.77801 50.54236
# Shear Modulus (GPa) = 16.65603 23.60201 20.12902
#
# Velocity S-wave (km/s) = 2.93369 3.49223 3.22507
# Velocity P-wave (km/s) = 5.81832 6.79088 6.32332
#
# Compressibility (1/GPa) = 0.02309111
#
# Stress axis : x y z
#
# Youngs Moduli (GPa) = 47.81794 82.45480 112.15476
#
# Poissons Ratio (x) = 0.23594 0.22964
# Poissons Ratio (y) = 0.13683 0.50737
# Poissons Ratio (z) = 0.09791 0.37301
#
# Static dielectric constant tensor:
#      x y z
#    x 1.691520 0.000000 0.000000 
#    y 0.000000 1.650190 0.000000 
#    z 0.000000 0.000000 1.689570 
# 
# From -- ./inp_files/48781.got.cif
#   From: 2010.05.17/outbox.cif.g08.bks.cpg/sg74_25_cif.got.tgz:48781.got - 2010.06.03 17:57:02.
