data_PCOD9536245
_publ_section_title
;
Structure prediction by ZEFSAII (Michael W. Deem and Ramdas Pophale) SiO2 
 PCOD9536245
Probable space group: I M M A
;
_chemical_formula_sum "Si O2"
_cell_formula_units_Z 96
_cell_length_a 24.213044
_cell_length_b 17.832431
_cell_length_c 13.049614
_cell_angle_alpha 90.000000
_cell_angle_beta 90.000000
_cell_angle_gamma 90.000000
_cell_volume 5634.528879
_symmetry_space_group_name_H-M "I M M A"
_symmetry_group_IT_number 74
_symmetry_cell_setting 'orthorhombic'
loop_
_space_group_symop_operation_xyz
x,y,z
-x,1/2-y,z
x,-y,-z
-x,1/2+y,-z
-x,-y,-z
x,1/2+y,-z
-x,y,z
x,1/2-y,z
1/2+x,1/2+y,1/2+z
1/2-x,-y,1/2+z
1/2+x,1/2-y,1/2-z
1/2-x,y,1/2-z
1/2-x,1/2-y,1/2-z
1/2+x,y,1/2-z
1/2-x,1/2+y,1/2+z
1/2+x,-y,1/2+z
loop_
_atom_site_type_symbol
_atom_site_label
_atom_site_fract_x
_atom_site_fract_y
_atom_site_fract_z
Si Si1 0.738199 0.892732 0.136150
Si Si2 0.341369 0.663682 0.961317
Si Si3 0.936368 0.835345 0.186865
Si Si4 0.142982 0.539824 0.104432
Si Si5 0.350479 0.476686 0.176568
Si Si6 0.436132 0.589992 0.090503
O O1 0.750000 0.858364 0.250000
O O2 0.796130 0.924393 0.097141
O O3 0.698155 0.963789 0.154804
O O4 0.705362 0.845942 0.050279
O O5 0.343016 0.750000 0.928706
O O6 0.333831 0.602972 0.870596
O O7 0.399100 0.637108 0.012032
O O8 0.916918 0.750000 0.178774
O O9 0.898409 0.892730 0.127385
O O10 0.934906 0.861933 0.304636
O O11 0.000000 0.839256 0.152999
O O12 0.140627 0.483324 0.201699
O O13 0.128573 0.500000 0.000000
O O14 0.403896 0.512830 0.119069
O O15 0.500000 0.579094 0.061351
#
# Coordination Sequence:
#
# PCOD9536245 Si02
#       6
#    16  16  16  16  16  16
#     4   9  18  33  53  73  96 128 167 207 242 280
#     4  11  21  31  47  74 108 137 158 193 248 301
#     4   9  18  32  49  73 102 124 151 203 261 297
#     4  10  19  33  55  74  90 125 174 212 241 289
#     4   9  19  34  49  70 100 132 164 202 249 293
#     4   9  17  31  52  73  95 129 169 202 236 288
#
# _framework density 17.037804000000001
#
# number of rings (size 3 to 8) (size 9 to 14) (size 15 to 20)
#    0.000    2.500    0.000    4.500    0.000    3.667 
#    0.000    0.833    0.000    9.500    0.000    0.000 
#    0.000    0.000    0.000    0.000    0.000    0.000 
#
# Total GULP energy -267606.843426 kJ/mol
# GULP energy per Si atom -5575.142571 kJ/mol
# Density = 1.699903 g / cm^3
# Si number density = 17.037804 Si / 1000 Ang^3
#
#
#
# Elastic Constant Matrix: (Units=GPa)
#
#
# Indices 1 2 3 4 5 6 
#
# 1 70.8427 22.9490 27.1547 0.0000 0.0000 0.0000
# 2 22.9490 107.8987 59.8924 0.0000 0.0000 0.0000
# 3 27.1547 59.8924 79.8083 0.0000 0.0000 0.0000
# 4 0.0000 0.0000 0.0000 12.9211 0.0000 0.0000
# 5 0.0000 0.0000 0.0000 0.0000 8.3012 0.0000
# 6 0.0000 0.0000 0.0000 0.0000 0.0000 2.1558
#
#
#
# Elastic Compliance Matrix: (Units=1/GPa)
#
#
# Indices 1 2 3 4 5 6 
#
# 1 0.016261 -0.000664 -0.005034 0.000000 0.000000 0.000000
# 2 -0.000664 0.015912 -0.011715 0.000000 0.000000 0.000000
# 3 -0.005034 -0.011715 0.023035 0.000000 0.000000 0.000000
# 4 0.000000 0.000000 0.000000 0.077393 0.000000 0.000000
# 5 0.000000 0.000000 0.000000 0.000000 0.120465 0.000000
# 6 0.000000 0.000000 0.000000 0.000000 0.000000 0.463875
#
#
# Mechanical properties :
#
#
# Convention : Reuss Voigt Hill
#
# Bulk Modulus (GPa) = 49.06755 53.17131 51.11943
# Shear Modulus (GPa) = 6.59142 14.57917 10.58530
#
# Velocity S-wave (km/s) = 1.96904 2.92840 2.49526
# Velocity P-wave (km/s) = 5.83363 6.53526 6.19439
#
# Compressibility (1/GPa) = 0.02038007
#
# Stress axis : x y z
#
# Youngs Moduli (GPa) = 61.49837 62.84499 43.41250
#
# Poissons Ratio (x) = 0.04173 0.21855
# Poissons Ratio (y) = 0.04084 0.50860
# Poissons Ratio (z) = 0.30960 0.73626
#
# Static dielectric constant tensor:
#      x y z
#    x 1.590180 0.000000 0.000000 
#    y 0.000000 1.562110 0.000000 
#    z 0.000000 0.000000 1.594130 
# 
# From -- ./inp_files/25189.got.cif
#   From: 2010.05.17/outbox.cif.g08.bks.cpg/sg74_13_cif.got.tgz:25189.got - 2010.06.03 17:57:02.
