data_PCOD9536920
_publ_section_title
;
Structure prediction by ZEFSAII (Michael W. Deem and Ramdas Pophale) SiO2 
 PCOD9536920
Probable space group: I M M A
;
_chemical_formula_sum "Si O2"
_cell_formula_units_Z 112
_cell_length_a 28.723337
_cell_length_b 14.506362
_cell_length_c 15.027313
_cell_angle_alpha 90.000000
_cell_angle_beta 90.000000
_cell_angle_gamma 90.000000
_cell_volume 6261.447404
_symmetry_space_group_name_H-M "I M M A"
_symmetry_group_IT_number 74
_symmetry_cell_setting 'orthorhombic'
loop_
_space_group_symop_operation_xyz
x,y,z
-x,1/2-y,z
x,-y,-z
-x,1/2+y,-z
-x,-y,-z
x,1/2+y,-z
-x,y,z
x,1/2-y,z
1/2+x,1/2+y,1/2+z
1/2-x,-y,1/2+z
1/2+x,1/2-y,1/2-z
1/2-x,y,1/2-z
1/2-x,1/2-y,1/2-z
1/2+x,y,1/2-z
1/2-x,1/2+y,1/2+z
1/2+x,-y,1/2+z
loop_
_atom_site_type_symbol
_atom_site_label
_atom_site_fract_x
_atom_site_fract_y
_atom_site_fract_z
Si Si1 0.650258 0.140770 0.399464
Si Si2 0.050950 0.644847 0.181222
Si Si3 0.807015 0.525852 0.406065
Si Si4 0.648941 0.138584 0.747116
Si Si5 0.711362 0.861742 0.428703
Si Si6 0.196851 0.354274 0.279898
Si Si7 0.948619 0.607506 0.977527
O O1 0.658568 0.250000 0.394687
O O2 0.680130 0.110754 0.485563
O O3 0.668162 0.106105 0.304481
O O4 0.595765 0.125879 0.417025
O O5 0.048375 0.750000 0.214061
O O6 0.097152 0.603302 0.223067
O O7 0.058310 0.650719 0.074998
O O8 0.000000 0.600600 0.195612
O O9 0.829899 0.500000 0.500000
O O10 0.833379 0.591215 0.336435
O O11 0.758317 0.578745 0.425305
O O12 0.802204 0.427723 0.357913
O O13 0.648054 0.250000 0.757113
O O14 0.682394 0.121438 0.662084
O O15 0.720381 0.750000 0.433403
O O16 0.180645 0.250000 0.303393
O O17 0.250000 0.346185 0.250000
O O18 0.000000 0.634714 0.943410
O O19 0.949601 0.500000 0.000000
#
# Coordination Sequence:
#
# PCOD9536920 Si02
#       7
#    16  16  16  16  16  16  16
#     4  10  20  35  56  79 109 150 180 213 265 322
#     4   9  17  32  54  80 111 142 171 210 265 329
#     4  12  25  37  53  75 102 144 187 231 280 312
#     4  10  20  35  56  84 111 138 175 222 273 324
#     4  10  20  35  55  83 113 140 175 218 271 331
#     4  10  22  38  54  74 102 140 189 230 263 316
#     4  10  20  30  47  81 118 149 177 209 253 319
#
# _framework density 17.887239000000001
#
# number of rings (size 3 to 8) (size 9 to 14) (size 15 to 20)
#    0.000    1.857    1.429    3.000    2.000    6.000 
#    0.000    0.000    0.000    0.429    0.000    0.000 
#    0.000    2.286    0.000    0.000    0.000    0.000 
#
# Total GULP energy -312410.280020 kJ/mol
# GULP energy per Si atom -5578.755000 kJ/mol
# Density = 1.784653 g / cm^3
# Si number density = 17.887239 Si / 1000 Ang^3
#
#
#
# Elastic Constant Matrix: (Units=GPa)
#
#
# Indices 1 2 3 4 5 6 
#
# 1 96.5906 5.5185 30.3664 0.0000 0.0000 0.0000
# 2 5.5185 70.0842 27.6084 0.0000 0.0000 0.0000
# 3 30.3664 27.6084 80.1788 0.0000 0.0000 0.0000
# 4 0.0000 0.0000 0.0000 16.7379 0.0000 0.0000
# 5 0.0000 0.0000 0.0000 0.0000 16.8330 0.0000
# 6 0.0000 0.0000 0.0000 0.0000 0.0000 16.7785
#
#
#
# Elastic Compliance Matrix: (Units=1/GPa)
#
#
# Indices 1 2 3 4 5 6 
#
# 1 0.011808 0.000962 -0.004804 0.000000 0.000000 0.000000
# 2 0.000962 0.016586 -0.006076 0.000000 0.000000 0.000000
# 3 -0.004804 -0.006076 0.016383 0.000000 0.000000 0.000000
# 4 0.000000 0.000000 0.000000 0.059745 0.000000 0.000000
# 5 0.000000 0.000000 0.000000 0.000000 0.059407 0.000000
# 6 0.000000 0.000000 0.000000 0.000000 0.000000 0.059600
#
#
# Mechanical properties :
#
#
# Convention : Reuss Voigt Hill
#
# Bulk Modulus (GPa) = 40.08948 41.53779 40.81364
# Shear Modulus (GPa) = 19.86663 22.29388 21.08026
#
# Velocity S-wave (km/s) = 3.33627 3.53421 3.43666
# Velocity P-wave (km/s) = 6.10753 6.31875 6.21404
#
# Compressibility (1/GPa) = 0.02494420
#
# Stress axis : x y z
#
# Youngs Moduli (GPa) = 84.68734 60.29110 61.03706
#
# Poissons Ratio (x) = -0.05803 0.29319
# Poissons Ratio (y) = -0.08151 0.37085
# Poissons Ratio (z) = 0.40680 0.36631
#
# Static dielectric constant tensor:
#      x y z
#    x 1.634650 0.000000 0.000000 
#    y 0.000000 1.662780 0.000000 
#    z 0.000000 0.000000 1.696180 
# 
# From -- ./inp_files/21191.got.cif
#   From: 2010.05.17/outbox.cif.g08.bks.cpg/sg74_11_cif.got.tgz:21191.got - 2010.06.03 17:57:02.
