data_PCOD9536385
_publ_section_title
;
Structure prediction by ZEFSAII (Michael W. Deem and Ramdas Pophale) SiO2 
 PCOD9536385
Probable space group: I M M A
;
_chemical_formula_sum "Si O2"
_cell_formula_units_Z 96
_cell_length_a 20.839607
_cell_length_b 22.100541
_cell_length_c 9.934059
_cell_angle_alpha 90.000000
_cell_angle_beta 90.000000
_cell_angle_gamma 90.000000
_cell_volume 4575.295668
_symmetry_space_group_name_H-M "I M M A"
_symmetry_group_IT_number 74
_symmetry_cell_setting 'orthorhombic'
loop_
_space_group_symop_operation_xyz
x,y,z
-x,1/2-y,z
x,-y,-z
-x,1/2+y,-z
-x,-y,-z
x,1/2+y,-z
-x,y,z
x,1/2-y,z
1/2+x,1/2+y,1/2+z
1/2-x,-y,1/2+z
1/2+x,1/2-y,1/2-z
1/2-x,y,1/2-z
1/2-x,1/2-y,1/2-z
1/2+x,y,1/2-z
1/2-x,1/2+y,1/2+z
1/2+x,-y,1/2+z
loop_
_atom_site_type_symbol
_atom_site_label
_atom_site_fract_x
_atom_site_fract_y
_atom_site_fract_z
Si Si1 0.427114 0.507007 0.846182
Si Si2 0.680460 0.654867 0.703063
Si Si3 0.188758 0.509860 0.837348
Si Si4 0.700681 0.679862 0.413407
Si Si5 0.070834 0.147553 0.395128
Si Si6 0.843387 0.823612 0.370929
O O1 0.500000 0.481572 0.836824
O O2 0.376531 0.486029 0.733902
O O3 0.433294 0.579656 0.837990
O O4 0.402708 0.500000 0.000000
O O5 0.750000 0.677641 0.750000
O O6 0.686096 0.582081 0.690546
O O7 0.665224 0.674645 0.552652
O O8 0.626458 0.676423 0.805400
O O9 0.250000 0.486901 0.750000
O O10 0.193018 0.500000 0.000000
O O11 0.711305 0.750000 0.382153
O O12 0.773514 0.655695 0.428143
O O13 0.662373 0.657046 0.284530
O O14 0.099284 0.147608 0.545400
O O15 0.000000 0.174488 0.390635
O O16 0.850360 0.750000 0.382112
#
# Coordination Sequence:
#
# PCOD9536385 Si02
#       6
#    16  16  16  16  16  16
#     4   9  19  36  56  75 100 137 178 215 254 310
#     4  10  19  34  53  77 103 137 174 212 260 310
#     4  10  21  35  50  76 109 137 169 216 267 310
#     4   9  18  33  53  77 102 132 174 216 250 299
#     4  10  20  34  53  77 106 135 170 216 261 308
#     4   9  18  33  52  76 104 133 170 213 256 304
#
# _framework density 20.982251000000002
#
# number of rings (size 3 to 8) (size 9 to 14) (size 15 to 20)
#    0.000    2.500    1.667    1.500    0.000    3.000 
#    3.000    0.833    0.000    1.000    0.000    0.000 
#    0.000    0.000    0.000    0.000    0.000    0.000 
#
# Total GULP energy -267570.193602 kJ/mol
# GULP energy per Si atom -5574.379033 kJ/mol
# Density = 2.093449 g / cm^3
# Si number density = 20.982251 Si / 1000 Ang^3
#
#
#
# Elastic Constant Matrix: (Units=GPa)
#
#
# Indices 1 2 3 4 5 6 
#
# 1 158.3389 9.3491 94.0151 0.0000 0.0000 0.0000
# 2 9.3491 41.4408 -14.6926 0.0000 0.0000 0.0000
# 3 94.0151 -14.6926 155.5637 0.0000 0.0000 0.0000
# 4 0.0000 0.0000 0.0000 26.7067 0.0000 0.0000
# 5 0.0000 0.0000 0.0000 0.0000 22.5339 0.0000
# 6 0.0000 0.0000 0.0000 0.0000 0.0000 -2.3265
#
#
#
# Elastic Compliance Matrix: (Units=1/GPa)
#
#
# Indices 1 2 3 4 5 6 
#
# 1 0.010727 -0.004882 -0.006944 0.000000 0.000000 0.000000
# 2 -0.004882 0.027189 0.005518 0.000000 0.000000 0.000000
# 3 -0.006944 0.005518 0.011146 0.000000 0.000000 0.000000
# 4 0.000000 0.000000 0.000000 0.037444 0.000000 0.000000
# 5 0.000000 0.000000 0.000000 0.000000 0.044378 0.000000
# 6 0.000000 0.000000 0.000000 0.000000 0.000000 -0.429833
#
#
# Mechanical properties :
#
#
# Convention : Reuss Voigt Hill
#
# Bulk Modulus (GPa) = 27.43748 59.18739 43.31244
# Shear Modulus (GPa) = -18.23575 27.16094 4.46259
#
# Velocity S-wave (km/s) = -2.95125 3.60178 1.45995
# Velocity P-wave (km/s) = 1.22135 6.75031 4.85069
#
# Compressibility (1/GPa) = 0.03644649
#
# Stress axis : x y z
#
# Youngs Moduli (GPa) = 93.22473 36.78007 89.71888
#
# Poissons Ratio (x) = 0.17956 0.62299
# Poissons Ratio (y) = 0.45511 -0.49509
# Poissons Ratio (z) = 0.64734 -0.20296
#
# Static dielectric constant tensor:
#      x y z
#    x 1.772770 0.000000 0.000000 
#    y 0.000000 1.850650 0.000000 
#    z 0.000000 0.000000 1.762080 
# 
# From -- ./inp_files/12685.got.cif
#   From: 2010.05.17/outbox.cif.g08.bks.cpg/sg74_7_cif.got.tgz:12685.got - 2010.06.03 17:57:02.
