data_PCOD9536351
_publ_section_title
;
Structure prediction by ZEFSAII (Michael W. Deem and Ramdas Pophale) SiO2 
 PCOD9536351
Probable space group: I M M A
;
_chemical_formula_sum "Si O2"
_cell_formula_units_Z 112
_cell_length_a 22.202217
_cell_length_b 21.998465
_cell_length_c 10.338528
_cell_angle_alpha 90.000000
_cell_angle_beta 90.000000
_cell_angle_gamma 90.000000
_cell_volume 5049.488985
_symmetry_space_group_name_H-M "I M M A"
_symmetry_group_IT_number 74
_symmetry_cell_setting 'orthorhombic'
loop_
_space_group_symop_operation_xyz
x,y,z
-x,1/2-y,z
x,-y,-z
-x,1/2+y,-z
-x,-y,-z
x,1/2+y,-z
-x,y,z
x,1/2-y,z
1/2+x,1/2+y,1/2+z
1/2-x,-y,1/2+z
1/2+x,1/2-y,1/2-z
1/2-x,y,1/2-z
1/2-x,1/2-y,1/2-z
1/2+x,y,1/2-z
1/2-x,1/2+y,1/2+z
1/2+x,-y,1/2+z
loop_
_atom_site_type_symbol
_atom_site_label
_atom_site_fract_x
_atom_site_fract_y
_atom_site_fract_z
Si Si1 0.565972 0.974908 0.682756
Si Si2 0.187765 0.874018 0.192314
Si Si3 0.810428 0.816978 0.923399
Si Si4 0.603463 0.435548 0.038717
Si Si5 0.797921 0.487841 0.147161
Si Si6 0.331476 0.682072 0.866782
Si Si7 0.436812 0.110118 0.771712
O O1 0.500000 0.955318 0.627653
O O2 0.568587 0.950063 0.829584
O O3 0.634234 0.960045 0.634686
O O4 0.564658 0.048699 0.684813
O O5 0.250000 0.847824 0.250000
O O6 0.190842 0.946475 0.213168
O O7 0.124758 0.853315 0.252610
O O8 0.182979 0.862437 0.040553
O O9 0.827820 0.750000 0.971952
O O10 0.739713 0.815944 0.890678
O O11 0.842607 0.826348 0.786612
O O12 0.645042 0.377530 0.062853
O O13 0.633842 0.500000 0.000000
O O14 0.564399 0.416073 0.916634
O O15 0.750000 0.457535 0.250000
O O16 0.775589 0.500000 0.000000
O O17 0.354846 0.750000 0.903210
O O18 0.500000 0.142492 0.746987
#
# Coordination Sequence:
#
# PCOD9536351 Si02
#       7
#    16  16  16  16  16  16  16
#     4   9  19  35  56  83 115 161 209 251 306 379
#     4  10  20  34  54  82 114 147 196 252 303 363
#     4   9  19  36  58  82 112 158 208 248 300 375
#     4  10  19  33  60  90 119 156 207 257 311 374
#     4  10  23  37  52  81 122 161 200 255 324 383
#     4   9  19  36  59  86 119 159 204 256 313 369
#     4   9  18  34  55  82 121 157 193 247 307 373
#
# _framework density 22.180461999999999
#
# number of rings (size 3 to 8) (size 9 to 14) (size 15 to 20)
#    0.000    2.571    0.000    2.143    2.000    8.571 
#    0.000    0.714    3.143    3.000    0.000    4.000 
#    0.000    0.000    0.000    0.000    0.000    0.000 
#
# Total GULP energy -311957.472696 kJ/mol
# GULP energy per Si atom -5570.669155 kJ/mol
# Density = 2.212998 g / cm^3
# Si number density = 22.180462 Si / 1000 Ang^3
#
#
#
# Elastic Constant Matrix: (Units=GPa)
#
#
# Indices 1 2 3 4 5 6 
#
# 1 170.2147 23.9937 49.8326 0.0000 0.0000 0.0000
# 2 23.9937 95.0956 8.7741 0.0000 0.0000 0.0000
# 3 49.8326 8.7741 89.1225 0.0000 0.0000 0.0000
# 4 0.0000 0.0000 0.0000 21.6788 0.0000 0.0000
# 5 0.0000 0.0000 0.0000 0.0000 0.2279 0.0000
# 6 0.0000 0.0000 0.0000 0.0000 0.0000 4.4901
#
#
#
# Elastic Compliance Matrix: (Units=1/GPa)
#
#
# Indices 1 2 3 4 5 6 
#
# 1 0.007221 -0.001463 -0.003894 0.000000 0.000000 0.000000
# 2 -0.001463 0.010908 -0.000256 0.000000 0.000000 0.000000
# 3 -0.003894 -0.000256 0.013423 0.000000 0.000000 0.000000
# 4 0.000000 0.000000 0.000000 0.046128 0.000000 0.000000
# 5 0.000000 0.000000 0.000000 0.000000 4.388705 0.000000
# 6 0.000000 0.000000 0.000000 0.000000 0.000000 0.222710
#
#
# Mechanical properties :
#
#
# Convention : Reuss Voigt Hill
#
# Bulk Modulus (GPa) = 49.19441 57.73706 53.46574
# Shear Modulus (GPa) = 1.06223 23.40151 12.23187
#
# Velocity S-wave (km/s) = 0.69278 3.25168 2.35089
# Velocity P-wave (km/s) = 4.78197 6.33916 5.61481
#
# Compressibility (1/GPa) = 0.02032751
#
# Stress axis : x y z
#
# Youngs Moduli (GPa) = 138.48445 91.67231 74.49997
#
# Poissons Ratio (x) = 0.13409 0.29007
# Poissons Ratio (y) = 0.20256 0.01908
# Poissons Ratio (z) = 0.53921 0.02347
#
# Static dielectric constant tensor:
#      x y z
#    x 1.900320 0.000000 0.000000 
#    y 0.000000 1.814680 0.000000 
#    z 0.000000 0.000000 1.850210 
# 
# From -- ./inp_files/24208.got.cif
#   From: 2010.05.17/outbox.cif.g08.bks.cpg/sg74_13_cif.got.tgz:24208.got - 2010.06.03 17:57:02.
