data_PCOD9536370
_publ_section_title
;
Structure prediction by ZEFSAII (Michael W. Deem and Ramdas Pophale) SiO2 
 PCOD9536370
Probable space group: I M M A
;
_chemical_formula_sum "Si O2"
_cell_formula_units_Z 116
_cell_length_a 7.664562
_cell_length_b 26.281074
_cell_length_c 28.771126
_cell_angle_alpha 90.000000
_cell_angle_beta 90.000000
_cell_angle_gamma 90.000000
_cell_volume 5795.451954
_symmetry_space_group_name_H-M "I M M A"
_symmetry_group_IT_number 74
_symmetry_cell_setting 'orthorhombic'
loop_
_space_group_symop_operation_xyz
x,y,z
-x,1/2-y,z
x,-y,-z
-x,1/2+y,-z
-x,-y,-z
x,1/2+y,-z
-x,y,z
x,1/2-y,z
1/2+x,1/2+y,1/2+z
1/2-x,-y,1/2+z
1/2+x,1/2-y,1/2-z
1/2-x,y,1/2-z
1/2-x,1/2-y,1/2-z
1/2+x,y,1/2-z
1/2-x,1/2+y,1/2+z
1/2+x,-y,1/2+z
loop_
_atom_site_type_symbol
_atom_site_label
_atom_site_fract_x
_atom_site_fract_y
_atom_site_fract_z
Si Si1 0.206443 0.584831 0.699906
Si Si2 0.000000 0.750000 0.027956
Si Si3 0.704480 0.087079 0.476467
Si Si4 0.709313 0.694765 0.933478
Si Si5 0.806247 0.803740 0.425312
Si Si6 0.208717 0.520531 0.891223
Si Si7 0.288787 0.088280 0.582669
Si Si8 0.210826 0.194891 0.322821
O O1 0.250000 0.561929 0.750000
O O2 0.259453 0.552049 0.655473
O O3 0.282031 0.642425 0.697752
O O4 0.000000 0.589919 0.696635
O O5 0.846675 0.794019 0.037831
O O6 0.500000 0.074618 0.480708
O O7 0.722982 0.143818 0.456497
O O8 0.779541 0.049877 0.436818
O O9 0.773335 0.083674 0.528859
O O10 0.500000 0.696173 0.939375
O O11 0.785435 0.750000 0.948930
O O12 0.742766 0.691895 0.878231
O O13 0.798053 0.750000 0.397325
O O14 0.775096 0.856774 0.400108
O O15 0.000000 0.805747 0.446572
O O16 0.270664 0.462271 0.890828
O O17 0.000000 0.518612 0.896810
O O18 0.500000 0.089882 0.583286
O O19 0.278348 0.250000 0.306265
O O20 0.000000 0.195869 0.316842
#
# Coordination Sequence:
#
# PCOD9536370 Si02
#       8
#    16   4  16  16  16  16  16  16
#     4  11  22  37  58  79 103 133 171 224 284 340
#     4   8  14  32  52  70 110 144 172 232 270 314
#     4  10  20  32  50  74 102 137 180 224 274 328
#     4   9  17  31  49  69  98 138 179 221 271 323
#     4   9  17  30  51  77 105 142 184 223 266 321
#     4  10  21  37  55  75 102 138 182 223 271 331
#     4  10  19  34  52  73 107 149 183 225 276 322
#     4   8  15  30  52  73  97 131 170 215 276 334
#
# _framework density 20.015695999999998
#
# number of rings (size 3 to 8) (size 9 to 14) (size 15 to 20)
#    0.414    2.069    2.069    1.655    0.000    3.862 
#    0.000    2.759    0.000    3.724    0.000    0.000 
#    0.000    0.552    0.000    2.897    0.000    5.103 
#
# Total GULP energy -322946.615290 kJ/mol
# GULP energy per Si atom -5568.045091 kJ/mol
# Density = 1.997014 g / cm^3
# Si number density = 20.015696 Si / 1000 Ang^3
#
#
#
# Elastic Constant Matrix: (Units=GPa)
#
#
# Indices 1 2 3 4 5 6 
#
# 1 62.7417 15.1526 -2.1222 0.0000 0.0000 0.0000
# 2 15.1526 169.0182 40.0391 0.0000 0.0000 0.0000
# 3 -2.1222 40.0391 43.4146 0.0000 0.0000 0.0000
# 4 0.0000 0.0000 0.0000 8.4590 0.0000 0.0000
# 5 0.0000 0.0000 0.0000 0.0000 16.0246 0.0000
# 6 0.0000 0.0000 0.0000 0.0000 0.0000 14.1682
#
#
#
# Elastic Compliance Matrix: (Units=1/GPa)
#
#
# Indices 1 2 3 4 5 6 
#
# 1 0.016550 -0.002144 0.002786 0.000000 0.000000 0.000000
# 2 -0.002144 0.007848 -0.007343 0.000000 0.000000 0.000000
# 3 0.002786 -0.007343 0.029942 0.000000 0.000000 0.000000
# 4 0.000000 0.000000 0.000000 0.118217 0.000000 0.000000
# 5 0.000000 0.000000 0.000000 0.000000 0.062404 0.000000
# 6 0.000000 0.000000 0.000000 0.000000 0.000000 0.070581
#
#
# Mechanical properties :
#
#
# Convention : Reuss Voigt Hill
#
# Bulk Modulus (GPa) = 24.42633 42.36817 33.39725
# Shear Modulus (GPa) = 15.03353 22.53734 18.78544
#
# Velocity S-wave (km/s) = 2.74357 3.35921 3.06688
# Velocity P-wave (km/s) = 4.71872 6.02156 5.40950
#
# Compressibility (1/GPa) = 0.04093944
#
# Stress axis : x y z
#
# Youngs Moduli (GPa) = 60.42173 127.41848 33.39812
#
# Poissons Ratio (x) = 0.27315 -0.09305
# Poissons Ratio (y) = 0.12953 0.24523
# Poissons Ratio (z) = -0.16834 0.93560
#
# Static dielectric constant tensor:
#      x y z
#    x 1.752300 0.000000 0.000000 
#    y 0.000000 1.787270 0.000000 
#    z 0.000000 0.000000 1.646890 
# 
# From -- ./inp_files/64896.got.cif
#   From: 2010.05.17/outbox.cif.g08.bks.cpg/sg74_33_cif.got.tgz:64896.got - 2010.06.03 17:57:02.
