data_PCOD9536092
_publ_section_title
;
Structure prediction by ZEFSAII (Michael W. Deem and Ramdas Pophale) SiO2 
 PCOD9536092
Probable space group: I M M A
;
_chemical_formula_sum "Si O2"
_cell_formula_units_Z 72
_cell_length_a 10.145486
_cell_length_b 12.948527
_cell_length_c 26.224951
_cell_angle_alpha 90.000000
_cell_angle_beta 90.000000
_cell_angle_gamma 90.000000
_cell_volume 3445.148195
_symmetry_space_group_name_H-M "I M M A"
_symmetry_group_IT_number 74
_symmetry_cell_setting 'orthorhombic'
loop_
_space_group_symop_operation_xyz
x,y,z
-x,1/2-y,z
x,-y,-z
-x,1/2+y,-z
-x,-y,-z
x,1/2+y,-z
-x,y,z
x,1/2-y,z
1/2+x,1/2+y,1/2+z
1/2-x,-y,1/2+z
1/2+x,1/2-y,1/2-z
1/2-x,y,1/2-z
1/2-x,1/2-y,1/2-z
1/2+x,y,1/2-z
1/2-x,1/2+y,1/2+z
1/2+x,-y,1/2+z
loop_
_atom_site_type_symbol
_atom_site_label
_atom_site_fract_x
_atom_site_fract_y
_atom_site_fract_z
Si Si1 0.500000 0.416526 0.893273
Si Si2 0.500000 0.873501 0.947998
Si Si3 0.500000 0.985815 0.673492
Si Si4 0.774520 0.631267 0.470944
Si Si5 0.000000 0.376635 0.926124
Si Si6 0.000000 0.484193 0.706342
Si Si7 0.762200 0.136037 0.310604
O O1 0.500000 0.540274 0.904837
O O2 0.628498 0.375698 0.922383
O O3 0.500000 0.390752 0.833574
O O4 0.500000 0.750000 0.936731
O O5 0.368813 0.898075 0.981548
O O6 0.500000 0.072760 0.630199
O O7 0.500000 0.028150 0.732424
O O8 0.628177 0.912873 0.668482
O O9 0.744657 0.750000 0.482033
O O10 0.632755 0.586662 0.455411
O O11 0.000000 0.250000 0.921991
O O12 0.874307 0.550710 0.689248
O O13 0.791832 0.250000 0.332911
O O14 0.750000 0.150931 0.250000
#
# Coordination Sequence:
#
# PCOD9536092 Si02
#       7
#     8   8   8  16   8   8  16
#     4  11  19  33  53  77 104 136 168 206 260 312
#     4   9  19  35  55  80 107 134 167 215 267 316
#     4  10  19  33  49  73 103 135 174 216 254 302
#     4   9  18  34  55  76  99 131 174 217 261 311
#     4  10  20  35  55  76 102 140 179 218 265 311
#     4  10  20  30  48  74 107 137 169 209 249 303
#     4   9  17  30  48  69  96 133 172 208 251 301
#
# _framework density 20.898958
#
# number of rings (size 3 to 8) (size 9 to 14) (size 15 to 20)
#    0.000    2.444    0.000    4.333    0.000    3.556 
#    0.000    3.333    0.000    8.667    0.000    3.111 
#    0.000    0.000    0.000    0.000    0.000    0.000 
#
# Total GULP energy -200469.071069 kJ/mol
# GULP energy per Si atom -5568.585307 kJ/mol
# Density = 2.085139 g / cm^3
# Si number density = 20.898958 Si / 1000 Ang^3
#
#
#
# Elastic Constant Matrix: (Units=GPa)
#
#
# Indices 1 2 3 4 5 6 
#
# 1 154.6591 0.1992 27.4506 0.0000 0.0000 0.0000
# 2 0.1992 57.0286 15.2643 0.0000 0.0000 0.0000
# 3 27.4506 15.2643 100.2036 0.0000 0.0000 0.0000
# 4 0.0000 0.0000 0.0000 20.3521 0.0000 0.0000
# 5 0.0000 0.0000 0.0000 0.0000 16.2562 0.0000
# 6 0.0000 0.0000 0.0000 0.0000 0.0000 57.9939
#
#
#
# Elastic Compliance Matrix: (Units=1/GPa)
#
#
# Indices 1 2 3 4 5 6 
#
# 1 0.006810 0.000496 -0.001941 0.000000 0.000000 0.000000
# 2 0.000496 0.018317 -0.002926 0.000000 0.000000 0.000000
# 3 -0.001941 -0.002926 0.010957 0.000000 0.000000 0.000000
# 4 0.000000 0.000000 0.000000 0.049135 0.000000 0.000000
# 5 0.000000 0.000000 0.000000 0.000000 0.061515 0.000000
# 6 0.000000 0.000000 0.000000 0.000000 0.000000 0.017243
#
#
# Mechanical properties :
#
#
# Convention : Reuss Voigt Hill
#
# Bulk Modulus (GPa) = 36.57537 44.19105 40.38321
# Shear Modulus (GPa) = 27.49783 36.85226 32.17505
#
# Velocity S-wave (km/s) = 3.63126 4.20379 3.92797
# Velocity P-wave (km/s) = 5.92625 6.68980 6.31957
#
# Compressibility (1/GPa) = 0.02734080
#
# Stress axis : x y z
#
# Youngs Moduli (GPa) = 146.84912 54.59551 91.26455
#
# Poissons Ratio (x) = -0.02707 0.17715
# Poissons Ratio (y) = -0.07280 0.26704
# Poissons Ratio (z) = 0.28504 0.15975
#
# Static dielectric constant tensor:
#      x y z
#    x 1.778530 0.000000 0.000000 
#    y 0.000000 1.833810 0.000000 
#    z 0.000000 0.000000 1.775110 
# 
# From -- ./inp_files/63730.got.cif
#   From: 2010.05.17/outbox.cif.g08.bks.cpg/sg74_32_cif.got.tgz:63730.got - 2010.06.03 17:57:02.
