data_PCOD9536990
_publ_section_title
;
Structure prediction by ZEFSAII (Michael W. Deem and Ramdas Pophale) SiO2 
 PCOD9536990
Probable space group: I M M A
;
_chemical_formula_sum "Si O2"
_cell_formula_units_Z 72
_cell_length_a 17.011795
_cell_length_b 11.490165
_cell_length_c 14.007506
_cell_angle_alpha 90.000000
_cell_angle_beta 90.000000
_cell_angle_gamma 90.000000
_cell_volume 2738.023826
_symmetry_space_group_name_H-M "I M M A"
_symmetry_group_IT_number 74
_symmetry_cell_setting 'orthorhombic'
loop_
_space_group_symop_operation_xyz
x,y,z
-x,1/2-y,z
x,-y,-z
-x,1/2+y,-z
-x,-y,-z
x,1/2+y,-z
-x,y,z
x,1/2-y,z
1/2+x,1/2+y,1/2+z
1/2-x,-y,1/2+z
1/2+x,1/2-y,1/2-z
1/2-x,y,1/2-z
1/2-x,1/2-y,1/2-z
1/2+x,y,1/2-z
1/2-x,1/2+y,1/2+z
1/2+x,-y,1/2+z
loop_
_atom_site_type_symbol
_atom_site_label
_atom_site_fract_x
_atom_site_fract_y
_atom_site_fract_z
Si Si1 0.834592 0.126678 0.142787
Si Si2 0.319083 0.375756 0.671665
Si Si3 0.908394 0.875067 0.356405
Si Si4 0.000000 0.870985 0.961230
Si Si5 0.094652 0.624024 0.649559
O O1 0.793518 0.250000 0.118143
O O2 0.921184 0.133638 0.099324
O O3 0.850598 0.127117 0.256550
O O4 0.806850 0.996498 0.116941
O O5 0.321445 0.250000 0.620959
O O6 0.250000 0.372250 0.750000
O O7 0.395285 0.383914 0.741136
O O8 0.871615 0.750000 0.383284
O O9 0.000000 0.867648 0.379224
O O10 0.883123 0.000308 0.395862
O O11 0.000000 0.750000 0.021855
O O12 0.000000 0.000000 0.000000
O O13 0.102866 0.750000 0.600538
O O14 0.000000 0.616106 0.672798
#
# Coordination Sequence:
#
# PCOD9536990 Si02
#       5
#    16  16  16   8  16
#     4   9  16  27  41  54  73 100 130 167 209 248
#     4   9  17  26  36  54  78 100 128 168 209 249
#     4   8  13  20  30  44  62  86 116 149 182 222
#     4  10  20  32  44  62  84 106 140 186 227 260
#     4   8  11  17  30  45  59  78 106 140 180 218
#
# _framework density 26.296337000000001
#
# number of rings (size 3 to 8) (size 9 to 14) (size 15 to 20)
#    0.000    3.333    1.111    0.000    1.556    1.333 
#    0.000    0.000    0.000    0.000    0.000    0.000 
#    0.000    0.000    0.000    0.000    0.000    1.111 
#
# Total GULP energy -200463.508006 kJ/mol
# GULP energy per Si atom -5568.430778 kJ/mol
# Density = 2.623649 g / cm^3
# Si number density = 26.296337 Si / 1000 Ang^3
#
#
#
# Elastic Constant Matrix: (Units=GPa)
#
#
# Indices 1 2 3 4 5 6 
#
# 1 75.7239 7.7961 0.0381 0.0000 0.0000 0.0000
# 2 7.7961 426.1605 26.0649 0.0000 0.0000 0.0000
# 3 0.0381 26.0649 54.7970 0.0000 0.0000 0.0000
# 4 0.0000 0.0000 0.0000 -1.6013 0.0000 0.0000
# 5 0.0000 0.0000 0.0000 0.0000 -7.7919 0.0000
# 6 0.0000 0.0000 0.0000 0.0000 0.0000 -11.4964
#
#
#
# Elastic Compliance Matrix: (Units=1/GPa)
#
#
# Indices 1 2 3 4 5 6 
#
# 1 0.013231 -0.000249 0.000109 0.000000 0.000000 0.000000
# 2 -0.000249 0.002422 -0.001152 0.000000 0.000000 0.000000
# 3 0.000109 -0.001152 0.018797 0.000000 0.000000 0.000000
# 4 0.000000 0.000000 0.000000 -0.624500 0.000000 0.000000
# 5 0.000000 0.000000 0.000000 0.000000 -0.128338 0.000000
# 6 0.000000 0.000000 0.000000 0.000000 0.000000 -0.086984
#
#
# Mechanical properties :
#
#
# Convention : Reuss Voigt Hill
#
# Bulk Modulus (GPa) = 31.38013 69.38663 50.38338
# Shear Modulus (GPa) = -6.31180 30.67423 12.18122
#
# Velocity S-wave (km/s) = -1.55096 3.41909 2.15461
# Velocity P-wave (km/s) = 2.95836 6.48310 5.03897
#
# Compressibility (1/GPa) = 0.03186730
#
# Stress axis : x y z
#
# Youngs Moduli (GPa) = 75.57765 412.96351 53.20023
#
# Poissons Ratio (x) = 0.10272 -0.00580
# Poissons Ratio (y) = 0.01880 0.06127
# Poissons Ratio (z) = -0.00825 0.47559
#
# Static dielectric constant tensor:
#      x y z
#    x 2.559760 0.000000 0.000000 
#    y 0.000000 2.197880 0.000000 
#    z 0.000000 0.000000 2.023090 
# 
# From -- ./inp_files/43727.got.cif
#   From: 2010.05.17/outbox.cif.g08.bks.cpg/sg74_22_cif.got.tgz:43727.got - 2010.06.03 17:57:02.
