data_PCOD9536498
_publ_section_title
;
Structure prediction by ZEFSAII (Michael W. Deem and Ramdas Pophale) SiO2 
 PCOD9536498
Probable space group: I M M A
;
_chemical_formula_sum "Si O2"
_cell_formula_units_Z 72
_cell_length_a 15.938073
_cell_length_b 22.349334
_cell_length_c 9.641130
_cell_angle_alpha 90.000000
_cell_angle_beta 90.000000
_cell_angle_gamma 90.000000
_cell_volume 3434.221766
_symmetry_space_group_name_H-M "I M M A"
_symmetry_group_IT_number 74
_symmetry_cell_setting 'orthorhombic'
loop_
_space_group_symop_operation_xyz
x,y,z
-x,1/2-y,z
x,-y,-z
-x,1/2+y,-z
-x,-y,-z
x,1/2+y,-z
-x,y,z
x,1/2-y,z
1/2+x,1/2+y,1/2+z
1/2-x,-y,1/2+z
1/2+x,1/2-y,1/2-z
1/2-x,y,1/2-z
1/2-x,1/2-y,1/2-z
1/2+x,y,1/2-z
1/2-x,1/2+y,1/2+z
1/2+x,-y,1/2+z
loop_
_atom_site_type_symbol
_atom_site_label
_atom_site_fract_x
_atom_site_fract_y
_atom_site_fract_z
Si Si1 0.594041 0.180801 0.616126
Si Si2 0.167749 0.848409 0.827813
Si Si3 0.500000 0.143000 0.172769
Si Si4 0.179033 0.509423 0.846088
Si Si5 0.500000 0.500359 0.758957
Si Si6 0.000000 0.875934 0.355942
O O1 0.500000 0.174264 0.551392
O O2 0.606806 0.250000 0.652817
O O3 0.656976 0.164456 0.492150
O O4 0.579513 0.144594 0.759737
O O5 0.250000 0.823923 0.750000
O O6 0.173151 0.920199 0.817075
O O7 0.083353 0.831593 0.745373
O O8 0.500000 0.069900 0.196835
O O9 0.500000 0.152463 0.007472
O O10 0.250000 0.481333 0.750000
O O11 0.084295 0.487469 0.827312
O O12 0.208532 0.500000 0.000000
O O13 0.500000 0.447730 0.872354
#
# Coordination Sequence:
#
# PCOD9536498 Si02
#       6
#    16  16   8  16   8   8
#     4   9  19  37  59  80 109 146 187 233 287 339
#     4  10  20  36  58  82 111 150 193 235 283 340
#     4  10  20  35  54  84 115 140 188 236 279 341
#     4  10  21  34  52  80 113 150 191 232 277 339
#     4  10  20  33  55  78 111 153 186 226 280 348
#     4  10  19  34  57  80 110 151 185 228 297 343
#
# _framework density 20.965449
#
# number of rings (size 3 to 8) (size 9 to 14) (size 15 to 20)
#    0.667    1.556    1.111    2.000    0.000    5.778 
#    0.000    3.333    0.000    1.333    0.000    0.000 
#    0.000    0.000    0.000    0.000    0.000    0.000 
#
# Total GULP energy -200423.216047 kJ/mol
# GULP energy per Si atom -5567.311557 kJ/mol
# Density = 2.091773 g / cm^3
# Si number density = 20.965449 Si / 1000 Ang^3
#
#
#
# Elastic Constant Matrix: (Units=GPa)
#
#
# Indices 1 2 3 4 5 6 
#
# 1 117.9058 13.6463 66.7920 0.0000 0.0000 0.0000
# 2 13.6463 14.5697 -14.1693 0.0000 0.0000 0.0000
# 3 66.7920 -14.1693 143.6847 0.0000 -0.0002 0.0000
# 4 0.0000 0.0000 0.0000 -2.6427 -0.0001 0.0000
# 5 0.0000 0.0000 -0.0002 -0.0001 -687.4232 -0.0001
# 6 0.0000 0.0000 0.0000 0.0000 -0.0001 2.0977
#
#
#
# Elastic Compliance Matrix: (Units=1/GPa)
#
#
# Indices 1 2 3 4 5 6 
#
# 1 0.017928 -0.027537 -0.011049 0.000000 0.000000 0.000000
# 2 -0.027537 0.118214 0.024458 0.000000 0.000000 0.000000
# 3 -0.011049 0.024458 0.014508 0.000000 0.000000 0.000000
# 4 0.000000 0.000000 0.000000 -0.378404 0.000000 0.000000
# 5 0.000000 0.000000 0.000000 0.000000 -0.001455 0.000000
# 6 0.000000 0.000000 0.000000 0.000000 0.000000 0.476719
#
#
# Mechanical properties :
#
#
# Convention : Reuss Voigt Hill
#
# Bulk Modulus (GPa) = 8.17039 45.41089 26.79064
# Shear Modulus (GPa) = 15.79460 -123.60090 -53.90315
#
# Velocity S-wave (km/s) = 2.74772 -7.68652 -5.07605
# Velocity P-wave (km/s) = 3.73794 7.55446 4.64207
#
# Compressibility (1/GPa) = 0.12239310
#
# Stress axis : x y z
#
# Youngs Moduli (GPa) = 55.77944 8.45924 68.92801
#
# Poissons Ratio (x) = 0.23294 0.76161
# Poissons Ratio (y) = 1.53601 -1.68586
# Poissons Ratio (z) = 0.61632 -0.20690
#
# Static dielectric constant tensor:
#      x y z
#    x 1.788450 0.000000 0.000000 
#    y 0.000000 1.781820 0.000000 
#    z 0.000000 0.000000 1.850710 
# 
# From -- ./inp_files/10855.got.cif
#   From: 2010.05.17/outbox.cif.g08.bks.cpg/sg74_6_cif.got.tgz:10855.got - 2010.06.03 17:57:02.
