data_PCOD9536431
_publ_section_title
;
Structure prediction by ZEFSAII (Michael W. Deem and Ramdas Pophale) SiO2 
 PCOD9536431
Probable space group: I M M A
;
_chemical_formula_sum "Si O2"
_cell_formula_units_Z 80
_cell_length_a 14.555438
_cell_length_b 10.517105
_cell_length_c 23.642825
_cell_angle_alpha 90.000000
_cell_angle_beta 90.000000
_cell_angle_gamma 90.000000
_cell_volume 3619.268943
_symmetry_space_group_name_H-M "I M M A"
_symmetry_group_IT_number 74
_symmetry_cell_setting 'orthorhombic'
loop_
_space_group_symop_operation_xyz
x,y,z
-x,1/2-y,z
x,-y,-z
-x,1/2+y,-z
-x,-y,-z
x,1/2+y,-z
-x,y,z
x,1/2-y,z
1/2+x,1/2+y,1/2+z
1/2-x,-y,1/2+z
1/2+x,1/2-y,1/2-z
1/2-x,y,1/2-z
1/2-x,1/2-y,1/2-z
1/2+x,y,1/2-z
1/2-x,1/2+y,1/2+z
1/2+x,-y,1/2+z
loop_
_atom_site_type_symbol
_atom_site_label
_atom_site_fract_x
_atom_site_fract_y
_atom_site_fract_z
Si Si1 0.887184 0.250000 0.244387
Si Si2 0.112252 0.750000 0.626831
Si Si3 0.109823 0.487198 0.171185
Si Si4 0.144786 0.250000 0.764623
Si Si5 0.612615 0.995336 0.065639
Si Si6 0.106321 0.250000 0.632433
Si Si7 0.112454 0.398348 0.047646
O O1 0.857584 0.250000 0.308799
O O2 0.856010 0.376549 0.212594
O O3 0.000000 0.250000 0.244299
O O4 0.142646 0.624470 0.595046
O O5 0.000000 0.750000 0.626670
O O6 0.125029 0.624942 0.198472
O O7 0.142450 0.455876 0.108054
O O8 0.000000 0.472761 0.168372
O O9 0.250000 0.250000 0.750000
O O10 0.104205 0.250000 0.700722
O O11 0.500000 0.994141 0.066717
O O12 0.646193 0.875895 0.102841
O O13 0.638989 0.000000 0.000000
O O14 0.000000 0.250000 0.615003
O O15 0.141507 0.250000 0.040500
O O16 0.000000 0.395085 0.046882
O O17 0.140569 0.500000 0.000000
#
# Coordination Sequence:
#
# PCOD9536431 Si02
#       7
#     8   8  16   8  16   8  16
#     4   9  16  29  52  80 106 131 174 229 272 328
#     4   9  15  22  36  62  96 130 157 193 249 302
#     4  10  19  35  58  83 111 146 187 231 285 343
#     4  12  26  39  52  76 112 154 197 242 285 330
#     4   9  16  26  44  74 106 129 156 204 265 324
#     4  10  19  34  55  78 104 135 176 222 272 330
#     4   9  17  29  50  86 123 146 173 224 285 343
#
# _framework density 22.103909999999999
#
# number of rings (size 3 to 8) (size 9 to 14) (size 15 to 20)
#    0.000    2.400    1.000    2.700    1.400    5.600 
#    0.000    0.500    0.000    1.200    0.000    0.000 
#    0.000    0.000    0.000    0.000    0.000    0.000 
#
# Total GULP energy -223435.163626 kJ/mol
# GULP energy per Si atom -5585.879091 kJ/mol
# Density = 2.205360 g / cm^3
# Si number density = 22.103910 Si / 1000 Ang^3
#
#
#
# Elastic Constant Matrix: (Units=GPa)
#
#
# Indices 1 2 3 4 5 6 
#
# 1 50.5339 4.7512 2.0425 0.0000 0.0000 0.0000
# 2 4.7512 277.1710 172.2581 0.0000 0.0000 0.0000
# 3 2.0425 172.2581 254.2064 0.0000 0.0000 0.0000
# 4 0.0000 0.0000 0.0000 47.0955 0.0000 0.0000
# 5 0.0000 0.0000 0.0000 0.0000 -21.0864 0.0000
# 6 0.0000 0.0000 0.0000 0.0000 0.0000 -32.7654
#
#
#
# Elastic Compliance Matrix: (Units=1/GPa)
#
#
# Indices 1 2 3 4 5 6 
#
# 1 0.019823 -0.000416 0.000123 0.000000 0.000000 0.000000
# 2 -0.000416 0.006241 -0.004226 0.000000 0.000000 0.000000
# 3 0.000123 -0.004226 0.006797 0.000000 0.000000 0.000000
# 4 0.000000 0.000000 0.000000 0.021233 0.000000 0.000000
# 5 0.000000 0.000000 0.000000 0.000000 -0.047424 0.000000
# 6 0.000000 0.000000 0.000000 0.000000 0.000000 -0.030520
#
#
# Mechanical properties :
#
#
# Convention : Reuss Voigt Hill
#
# Bulk Modulus (GPa) = 41.97808 104.44611 73.21209
# Shear Modulus (GPa) = -727.78731 25.50604 -351.14063
#
# Velocity S-wave (km/s) = -18.16513 3.40062 -12.61760
# Velocity P-wave (km/s) = 20.51658 7.92299 13.38201
#
# Compressibility (1/GPa) = 0.02382196
#
# Stress axis : x y z
#
# Youngs Moduli (GPa) = 50.44684 160.21913 147.13383
#
# Poissons Ratio (x) = 0.06665 -0.01804
# Poissons Ratio (y) = 0.02099 0.62180
# Poissons Ratio (z) = -0.00619 0.67710
#
# Static dielectric constant tensor:
#      x y z
#    x 1.792380 0.000000 0.000000 
#    y 0.000000 1.750580 0.000000 
#    z 0.000000 0.000000 2.059480 
# 
# From -- ./inp_files/61375.got.cif
#   From: 2010.05.17/outbox.cif.g08.bks.cpg/sg74_31_cif.got.tgz:61375.got - 2010.06.03 17:57:02.
