data_PCOD9536625
_publ_section_title
;
Structure prediction by ZEFSAII (Michael W. Deem and Ramdas Pophale) SiO2 
 PCOD9536625
Probable space group: I M M A
;
_chemical_formula_sum "Si O2"
_cell_formula_units_Z 72
_cell_length_a 25.744724
_cell_length_b 14.573217
_cell_length_c 7.122211
_cell_angle_alpha 90.000000
_cell_angle_beta 90.000000
_cell_angle_gamma 90.000000
_cell_volume 2672.135691
_symmetry_space_group_name_H-M "I M M A"
_symmetry_group_IT_number 74
_symmetry_cell_setting 'orthorhombic'
loop_
_space_group_symop_operation_xyz
x,y,z
-x,1/2-y,z
x,-y,-z
-x,1/2+y,-z
-x,-y,-z
x,1/2+y,-z
-x,y,z
x,1/2-y,z
1/2+x,1/2+y,1/2+z
1/2-x,-y,1/2+z
1/2+x,1/2-y,1/2-z
1/2-x,y,1/2-z
1/2-x,1/2-y,1/2-z
1/2+x,y,1/2-z
1/2-x,1/2+y,1/2+z
1/2+x,-y,1/2+z
loop_
_atom_site_type_symbol
_atom_site_label
_atom_site_fract_x
_atom_site_fract_y
_atom_site_fract_z
Si Si1 0.111842 0.100097 0.007231
Si Si2 0.000000 0.641520 0.984708
Si Si3 0.813752 0.250000 0.869640
Si Si4 0.000000 0.390815 0.462601
Si Si5 0.731520 0.108976 0.036233
Si Si6 0.613999 0.890682 0.952177
O O1 0.052317 0.096197 0.942449
O O2 0.140956 0.171021 0.880666
O O3 0.113088 0.126940 0.226613
O O4 0.136412 0.000000 0.000000
O O5 0.000000 0.750000 0.022712
O O6 0.000000 0.627274 0.760524
O O7 0.770572 0.170050 0.919526
O O8 0.000000 0.500000 0.500000
O O9 0.057516 0.356534 0.524222
O O10 0.750000 0.123943 0.250000
O O11 0.672279 0.142291 0.998384
O O12 0.733631 0.000000 0.000000
O O13 0.614636 0.000000 0.000000
#
# Coordination Sequence:
#
# PCOD9536625 Si02
#       6
#    16   8   8   8  16  16
#     4  11  22  37  62  87 121 160 199 247 302 352
#     4  10  19  35  56  96 118 152 209 252 288 358
#     4  12  23  37  59  87 117 156 207 241 296 357
#     4   8  16  33  56  87 114 151 189 246 295 339
#     4  11  23  39  61  85 119 159 199 246 298 358
#     4   9  19  35  60  86 116 149 199 241 297 351
#
# _framework density 26.944737
#
# number of rings (size 3 to 8) (size 9 to 14) (size 15 to 20)
#    0.000    1.778    3.333    1.333    0.000    0.000 
#    2.000    0.556    0.000    1.333   17.333    1.556 
#    0.000    0.000    0.000    0.000    0.000    0.000 
#
# Total GULP energy -200599.838193 kJ/mol
# GULP energy per Si atom -5572.217728 kJ/mol
# Density = 2.688341 g / cm^3
# Si number density = 26.944737 Si / 1000 Ang^3
#
#
#
# Elastic Constant Matrix: (Units=GPa)
#
#
# Indices 1 2 3 4 5 6 
#
# 1 303.6789 32.3064 3.0663 0.0000 0.0000 0.0000
# 2 32.3064 172.7183 -17.1589 0.0000 0.0000 0.0000
# 3 3.0663 -17.1589 119.9385 0.0000 0.0000 0.0000
# 4 0.0000 0.0000 0.0000 -55.4955 0.0000 0.0000
# 5 0.0000 0.0000 0.0000 0.0000 4.1247 0.0000
# 6 0.0000 0.0000 0.0000 0.0000 0.0000 33.9948
#
#
#
# Elastic Compliance Matrix: (Units=1/GPa)
#
#
# Indices 1 2 3 4 5 6 
#
# 1 0.003364 -0.000647 -0.000179 0.000000 0.000000 0.000000
# 2 -0.000647 0.005998 0.000875 0.000000 0.000000 0.000000
# 3 -0.000179 0.000875 0.008467 0.000000 0.000000 0.000000
# 4 0.000000 0.000000 0.000000 -0.018019 0.000000 0.000000
# 5 0.000000 0.000000 0.000000 0.000000 0.242445 0.000000
# 6 0.000000 0.000000 0.000000 0.000000 0.000000 0.029416
#
#
# Mechanical properties :
#
#
# Convention : Reuss Voigt Hill
#
# Bulk Modulus (GPa) = 55.78221 70.30702 63.04462
# Shear Modulus (GPa) = 18.01495 35.06626 26.54061
#
# Velocity S-wave (km/s) = 2.58851 3.61143 3.14188
# Velocity P-wave (km/s) = 5.44805 6.59845 6.05065
#
# Compressibility (1/GPa) = 0.01792686
#
# Stress axis : x y z
#
# Youngs Moduli (GPa) = 297.30299 166.73176 118.10148
#
# Poissons Ratio (x) = 0.10786 0.02109
# Poissons Ratio (y) = 0.19232 -0.10329
# Poissons Ratio (z) = 0.05308 -0.14582
#
# Static dielectric constant tensor:
#      x y z
#    x 1.697970 0.000000 0.000000 
#    y 0.000000 2.108570 0.000000 
#    z 0.000000 0.000000 2.169590 
# 
# From -- ./inp_files/9173.got.cif
#   From: 2010.05.17/outbox.cif.g08.bks.cpg/sg74_5_cif.got.tgz:9173.got - 2010.06.03 17:57:02.
