data_PCOD9536778
_publ_section_title
;
Structure prediction by ZEFSAII (Michael W. Deem and Ramdas Pophale) SiO2 
 PCOD9536778
Probable space group: I M M A
;
_chemical_formula_sum "Si O2"
_cell_formula_units_Z 72
_cell_length_a 14.077404
_cell_length_b 16.211204
_cell_length_c 14.840111
_cell_angle_alpha 90.000000
_cell_angle_beta 90.000000
_cell_angle_gamma 90.000000
_cell_volume 3386.686485
_symmetry_space_group_name_H-M "I M M A"
_symmetry_group_IT_number 74
_symmetry_cell_setting 'orthorhombic'
loop_
_space_group_symop_operation_xyz
x,y,z
-x,1/2-y,z
x,-y,-z
-x,1/2+y,-z
-x,-y,-z
x,1/2+y,-z
-x,y,z
x,1/2-y,z
1/2+x,1/2+y,1/2+z
1/2-x,-y,1/2+z
1/2+x,1/2-y,1/2-z
1/2-x,y,1/2-z
1/2-x,1/2-y,1/2-z
1/2+x,y,1/2-z
1/2-x,1/2+y,1/2+z
1/2+x,-y,1/2+z
loop_
_atom_site_type_symbol
_atom_site_label
_atom_site_fract_x
_atom_site_fract_y
_atom_site_fract_z
Si Si1 0.750000 0.941517 0.750000
Si Si2 0.394148 0.651031 0.876952
Si Si3 0.310622 0.650076 0.063467
Si Si4 0.609050 0.580264 0.249438
Si Si5 0.102888 0.845657 0.062400
O O1 0.692036 0.888080 0.821653
O O2 0.668335 0.002804 0.713474
O O3 0.500000 0.626076 0.846389
O O4 0.387950 0.750000 0.869387
O O5 0.380954 0.629825 0.982077
O O6 0.308452 0.750000 0.074364
O O7 0.342502 0.611280 0.157737
O O8 0.205200 0.621493 0.032821
O O9 0.500000 0.559665 0.230775
O O10 0.609237 0.647471 0.328845
O O11 0.100219 0.750000 0.035165
O O12 0.000000 0.883109 0.036373
#
# Coordination Sequence:
#
# PCOD9536778 Si02
#       5
#     8  16  16  16  16
#     4  12  23  40  57  82 120 156 188 238 295 358
#     4  10  23  43  66  88 110 146 201 255 297 343
#     4  10  19  36  61  91 123 155 195 246 294 339
#     4  11  21  34  55  87 123 161 196 232 288 355
#     4   9  17  31  53  84 124 165 200 232 275 344
#
# _framework density 21.259717999999999
#
# number of rings (size 3 to 8) (size 9 to 14) (size 15 to 20)
#    0.000    1.778    2.222    2.333    0.000    4.889 
#    0.000    4.444    0.000    8.000    0.000    0.000 
#    0.000    0.000    0.000    0.000    0.000    0.000 
#
# Total GULP energy -200734.116073 kJ/mol
# GULP energy per Si atom -5575.947669 kJ/mol
# Density = 2.121133 g / cm^3
# Si number density = 21.259718 Si / 1000 Ang^3
#
#
#
# Elastic Constant Matrix: (Units=GPa)
#
#
# Indices 1 2 3 4 5 6 
#
# 1 183.0258 24.2129 21.5182 0.0000 0.0000 0.0000
# 2 24.2129 34.3594 14.9945 0.0001 0.0000 0.0000
# 3 21.5182 14.9945 42.6721 0.0000 0.0000 0.0000
# 4 0.0000 0.0001 0.0000 408.4844 0.0000 0.0000
# 5 0.0000 0.0000 0.0000 0.0000 30.1437 0.0000
# 6 0.0000 0.0000 0.0000 0.0000 0.0000 28.0964
#
#
#
# Elastic Compliance Matrix: (Units=1/GPa)
#
#
# Indices 1 2 3 4 5 6 
#
# 1 0.006148 -0.003519 -0.001864 0.000000 0.000000 0.000000
# 2 -0.003519 0.036390 -0.011012 0.000000 0.000000 0.000000
# 3 -0.001864 -0.011012 0.028244 0.000000 0.000000 0.000000
# 4 0.000000 0.000000 0.000000 0.002448 0.000000 0.000000
# 5 0.000000 0.000000 0.000000 0.000000 0.033174 0.000000
# 6 0.000000 0.000000 0.000000 0.000000 0.000000 0.035592
#
#
# Mechanical properties :
#
#
# Convention : Reuss Voigt Hill
#
# Bulk Modulus (GPa) = 26.32177 42.38983 34.35580
# Shear Modulus (GPa) = 26.67357 106.63368 66.65362
#
# Velocity S-wave (km/s) = 3.54595 7.08989 5.60537
# Velocity P-wave (km/s) = 5.40120 9.32761 7.62159
#
# Compressibility (1/GPa) = 0.03799137
#
# Stress axis : x y z
#
# Youngs Moduli (GPa) = 162.64330 27.48008 35.40578
#
# Poissons Ratio (x) = 0.09671 0.06599
# Poissons Ratio (y) = 0.57241 0.38990
# Poissons Ratio (z) = 0.30313 0.30262
#
# Static dielectric constant tensor:
#      x y z
#    x 1.817680 0.000000 0.000000 
#    y 0.000000 1.796260 0.000000 
#    z 0.000000 0.000000 1.725990 
# 
# From -- ./inp_files/31916.got.cif
#   From: 2010.05.17/outbox.cif.g08.bks.cpg/sg74_16_cif.got.tgz:31916.got - 2010.06.03 17:57:02.
