data_PCOD9536573
_publ_section_title
;
Structure prediction by ZEFSAII (Michael W. Deem and Ramdas Pophale) SiO2 
 PCOD9536573
Probable space group: I M M A
;
_chemical_formula_sum "Si O2"
_cell_formula_units_Z 96
_cell_length_a 22.868642
_cell_length_b 14.225165
_cell_length_c 14.922854
_cell_angle_alpha 90.000000
_cell_angle_beta 90.000000
_cell_angle_gamma 90.000000
_cell_volume 4854.556706
_symmetry_space_group_name_H-M "I M M A"
_symmetry_group_IT_number 74
_symmetry_cell_setting 'orthorhombic'
loop_
_space_group_symop_operation_xyz
x,y,z
-x,1/2-y,z
x,-y,-z
-x,1/2+y,-z
-x,-y,-z
x,1/2+y,-z
-x,y,z
x,1/2-y,z
1/2+x,1/2+y,1/2+z
1/2-x,-y,1/2+z
1/2+x,1/2-y,1/2-z
1/2-x,y,1/2-z
1/2-x,1/2-y,1/2-z
1/2+x,y,1/2-z
1/2-x,1/2+y,1/2+z
1/2+x,-y,1/2+z
loop_
_atom_site_type_symbol
_atom_site_label
_atom_site_fract_x
_atom_site_fract_y
_atom_site_fract_z
Si Si1 0.196639 0.498418 0.108767
Si Si2 0.564699 0.858775 0.161209
Si Si3 0.631048 0.863142 0.743039
Si Si4 0.167518 0.999020 0.392781
Si Si5 0.899761 0.857223 0.137689
Si Si6 0.500000 0.363920 0.304751
Si Si7 0.500000 0.864995 0.489941
O O1 0.169095 0.408475 0.161434
O O2 0.264408 0.515934 0.130565
O O3 0.157892 0.582843 0.145649
O O4 0.190702 0.500000 0.000000
O O5 0.500000 0.891936 0.131273
O O6 0.571666 0.750000 0.131793
O O7 0.566104 0.858096 0.269029
O O8 0.619651 0.921341 0.133906
O O9 0.634923 0.750000 0.740251
O O10 0.651752 0.907007 0.837122
O O11 0.562636 0.893332 0.734166
O O12 0.164821 0.000000 0.500000
O O13 0.884974 0.750000 0.115244
O O14 0.942226 0.896219 0.061364
O O15 0.500000 0.250000 0.300666
O O16 0.500000 0.392709 0.407964
O O17 0.500000 0.750000 0.484986
#
# Coordination Sequence:
#
# PCOD9536573 Si02
#       7
#    16  16  16  16  16   8   8
#     4  11  24  40  61  95 128 165 214 257 313 386
#     4  10  21  40  65  93 122 156 201 256 321 384
#     4  11  24  44  67  93 130 174 217 264 322 385
#     4  11  26  44  64  90 123 163 218 276 319 372
#     4  10  19  34  60  91 126 162 195 242 309 381
#     4   9  20  37  60  91 126 161 205 257 310 374
#     4   9  16  31  57  95 131 159 194 241 304 382
#
# _framework density 19.775234999999999
#
# number of rings (size 3 to 8) (size 9 to 14) (size 15 to 20)
#    0.000    1.667    2.500    1.500    1.167    5.667 
#    0.000    6.667    0.000    0.000    0.000    0.000 
#    0.000    0.000    0.000    0.000    0.000    0.000 
#
# Total GULP energy -267897.233271 kJ/mol
# GULP energy per Si atom -5581.192360 kJ/mol
# Density = 1.973023 g / cm^3
# Si number density = 19.775235 Si / 1000 Ang^3
#
#
#
# Elastic Constant Matrix: (Units=GPa)
#
#
# Indices 1 2 3 4 5 6 
#
# 1 193.3785 72.6451 48.8140 0.0000 0.0000 0.0000
# 2 72.6451 101.4468 28.2742 0.0000 0.0000 0.0000
# 3 48.8140 28.2742 85.7618 0.0000 0.0000 0.0000
# 4 0.0000 0.0000 0.0000 19.4922 0.0000 0.0000
# 5 0.0000 0.0000 0.0000 0.0000 59.9404 0.0000
# 6 0.0000 0.0000 0.0000 0.0000 0.0000 -9.0103
#
#
#
# Elastic Compliance Matrix: (Units=1/GPa)
#
#
# Indices 1 2 3 4 5 6 
#
# 1 0.007641 -0.004690 -0.002803 0.000000 0.000000 0.000000
# 2 -0.004690 0.013734 -0.001858 0.000000 0.000000 0.000000
# 3 -0.002803 -0.001858 0.013868 0.000000 0.000000 0.000000
# 4 0.000000 0.000000 0.000000 0.051303 0.000000 0.000000
# 5 0.000000 0.000000 0.000000 0.000000 0.016683 0.000000
# 6 0.000000 0.000000 0.000000 0.000000 0.000000 -0.110984
#
#
# Mechanical properties :
#
#
# Convention : Reuss Voigt Hill
#
# Bulk Modulus (GPa) = 60.45807 75.56150 68.00979
# Shear Modulus (GPa) = 303.75860 29.47469 166.61665
#
# Velocity S-wave (km/s) = 12.40722 3.86487 9.18902
# Velocity P-wave (km/s) = 15.35874 7.62951 12.12643
#
# Compressibility (1/GPa) = 0.01654039
#
# Stress axis : x y z
#
# Youngs Moduli (GPa) = 130.87959 72.81228 72.10833
#
# Poissons Ratio (x) = 0.34151 0.20209
# Poissons Ratio (y) = 0.61386 0.13400
# Poissons Ratio (z) = 0.36680 0.13530
#
# Static dielectric constant tensor:
#      x y z
#    x 1.742980 0.000000 0.000000 
#    y 0.000000 1.711220 0.000000 
#    z 0.000000 0.000000 1.711370 
# 
# From -- ./inp_files/35316.got.cif
#   From: 2010.05.17/outbox.cif.g08.bks.cpg/sg74_18_cif.got.tgz:35316.got - 2010.06.03 17:57:02.
