data_PCOD9536601
_publ_section_title
;
Structure prediction by ZEFSAII (Michael W. Deem and Ramdas Pophale) SiO2 
 PCOD9536601
Probable space group: I M M A
;
_chemical_formula_sum "Si O2"
_cell_formula_units_Z 96
_cell_length_a 16.345869
_cell_length_b 26.477310
_cell_length_c 12.087593
_cell_angle_alpha 90.000000
_cell_angle_beta 90.000000
_cell_angle_gamma 90.000000
_cell_volume 5231.445470
_symmetry_space_group_name_H-M "I M M A"
_symmetry_group_IT_number 74
_symmetry_cell_setting 'orthorhombic'
loop_
_space_group_symop_operation_xyz
x,y,z
-x,1/2-y,z
x,-y,-z
-x,1/2+y,-z
-x,-y,-z
x,1/2+y,-z
-x,y,z
x,1/2-y,z
1/2+x,1/2+y,1/2+z
1/2-x,-y,1/2+z
1/2+x,1/2-y,1/2-z
1/2-x,y,1/2-z
1/2-x,1/2-y,1/2-z
1/2+x,y,1/2-z
1/2-x,1/2+y,1/2+z
1/2+x,-y,1/2+z
loop_
_atom_site_type_symbol
_atom_site_label
_atom_site_fract_x
_atom_site_fract_y
_atom_site_fract_z
Si Si1 0.163016 0.394184 0.309135
Si Si2 0.900903 0.191729 0.172270
Si Si3 0.405636 0.027768 0.351357
Si Si4 0.344184 0.576231 0.264778
Si Si5 0.097783 0.887023 0.013462
Si Si6 0.904054 0.940111 0.481052
O O1 0.250000 0.404083 0.250000
O O2 0.136528 0.337780 0.276675
O O3 0.099775 0.431572 0.247217
O O4 0.154334 0.408603 0.436776
O O5 0.876638 0.250000 0.165435
O O6 0.000000 0.189584 0.178374
O O7 0.874050 0.158909 0.064722
O O8 0.500000 0.011586 0.366904
O O9 0.375691 0.060037 0.456361
O O10 0.354120 0.980009 0.314883
O O11 0.250000 0.588008 0.250000
O O12 0.379228 0.612986 0.358862
O O13 0.387843 0.574426 0.146156
O O14 0.000000 0.887652 0.004944
O O15 0.000000 0.931033 0.506662
O O16 0.888417 0.000000 0.500000
#
# Coordination Sequence:
#
# PCOD9536601 Si02
#       6
#    16  16  16  16  16  16
#     4  11  22  35  57  84 115 147 185 239 280 329
#     4   9  19  38  65  87 104 134 181 239 296 345
#     4  10  19  35  55  76 108 151 192 229 268 323
#     4  12  24  32  51  79 119 155 192 229 270 326
#     4   9  19  35  57  80 107 141 187 234 281 331
#     4  11  23  37  54  77 117 165 198 221 268 342
#
# _framework density 18.350569
#
# number of rings (size 3 to 8) (size 9 to 14) (size 15 to 20)
#    0.000    1.667    1.667    5.000    4.667    1.667 
#    0.000    0.000    0.000    1.500    0.000    2.333 
#    0.000    0.000    0.000    0.000    0.000    0.000 
#
# Total GULP energy -267963.448798 kJ/mol
# GULP energy per Si atom -5582.571850 kJ/mol
# Density = 1.830880 g / cm^3
# Si number density = 18.350569 Si / 1000 Ang^3
#
#
#
# Elastic Constant Matrix: (Units=GPa)
#
#
# Indices 1 2 3 4 5 6 
#
# 1 44.3391 19.0959 22.6404 0.0000 0.0000 0.0000
# 2 19.0959 93.9604 46.9802 0.0002 0.0000 0.0000
# 3 22.6404 46.9802 137.0117 0.0005 0.0000 0.0000
# 4 0.0000 0.0002 0.0005 12.2493 -0.0001 0.0000
# 5 0.0000 0.0000 0.0000 -0.0001 17.8997 0.0000
# 6 0.0000 0.0000 0.0000 0.0000 0.0000 12.9303
#
#
#
# Elastic Compliance Matrix: (Units=1/GPa)
#
#
# Indices 1 2 3 4 5 6 
#
# 1 0.025675 -0.003737 -0.002961 0.000000 0.000000 0.000000
# 2 -0.003737 0.013389 -0.003973 0.000000 0.000000 0.000000
# 3 -0.002961 -0.003973 0.009150 0.000000 0.000000 0.000000
# 4 0.000000 0.000000 0.000000 0.081637 0.000000 0.000000
# 5 0.000000 0.000000 0.000000 0.000000 0.055867 0.000000
# 6 0.000000 0.000000 0.000000 0.000000 0.000000 0.077338
#
#
# Mechanical properties :
#
#
# Convention : Reuss Voigt Hill
#
# Bulk Modulus (GPa) = 37.21541 50.30488 43.76015
# Shear Modulus (GPa) = 17.04405 21.05550 19.04978
#
# Velocity S-wave (km/s) = 3.05093 3.39101 3.22546
# Velocity P-wave (km/s) = 5.72147 6.54253 6.14573
#
# Compressibility (1/GPa) = 0.02687059
#
# Stress axis : x y z
#
# Youngs Moduli (GPa) = 38.94824 74.68782 109.28481
#
# Poissons Ratio (x) = 0.27914 0.32360
# Poissons Ratio (y) = 0.14557 0.43423
# Poissons Ratio (z) = 0.11533 0.29676
#
# Static dielectric constant tensor:
#      x y z
#    x 1.652320 0.000000 0.000000 
#    y 0.000000 1.618170 0.000000 
#    z 0.000000 0.000000 1.696340 
# 
# From -- ./inp_files/22644.got.cif
#   From: 2010.05.17/outbox.cif.g08.bks.cpg/sg74_12_cif.got.tgz:22644.got - 2010.06.03 17:57:02.
