data_PCOD9536578
_publ_section_title
;
Structure prediction by ZEFSAII (Michael W. Deem and Ramdas Pophale) SiO2 
 PCOD9536578
Probable space group: I M M A
;
_chemical_formula_sum "Si O2"
_cell_formula_units_Z 88
_cell_length_a 16.026450
_cell_length_b 11.637375
_cell_length_c 21.765469
_cell_angle_alpha 90.000000
_cell_angle_beta 90.000000
_cell_angle_gamma 90.000000
_cell_volume 4059.386395
_symmetry_space_group_name_H-M "I M M A"
_symmetry_group_IT_number 74
_symmetry_cell_setting 'orthorhombic'
loop_
_space_group_symop_operation_xyz
x,y,z
-x,1/2-y,z
x,-y,-z
-x,1/2+y,-z
-x,-y,-z
x,1/2+y,-z
-x,y,z
x,1/2-y,z
1/2+x,1/2+y,1/2+z
1/2-x,-y,1/2+z
1/2+x,1/2-y,1/2-z
1/2-x,y,1/2-z
1/2-x,1/2-y,1/2-z
1/2+x,y,1/2-z
1/2-x,1/2+y,1/2+z
1/2+x,-y,1/2+z
loop_
_atom_site_type_symbol
_atom_site_label
_atom_site_fract_x
_atom_site_fract_y
_atom_site_fract_z
Si Si1 0.402285 0.421266 0.653090
Si Si2 0.099979 0.869604 0.289195
Si Si3 0.201605 0.620486 0.811468
Si Si4 0.156758 0.464964 0.392609
Si Si5 0.500000 0.378696 0.036683
Si Si6 0.281835 0.884672 0.460503
O O1 0.500000 0.399371 0.643123
O O2 0.372998 0.371239 0.718495
O O3 0.380154 0.553352 0.667090
O O4 0.345734 0.381633 0.596836
O O5 0.130277 0.750000 0.317751
O O6 0.123880 0.973859 0.331591
O O7 0.000000 0.869401 0.286569
O O8 0.179865 0.750000 0.797480
O O9 0.250000 0.576521 0.750000
O O10 0.265323 0.608681 0.868510
O O11 0.084233 0.391885 0.423347
O O12 0.192682 0.567716 0.435580
O O13 0.500000 0.250000 0.007354
O O14 0.500000 0.500000 0.000000
O O15 0.276880 0.750000 0.483888
O O16 0.308870 0.000000 0.500000
#
# Coordination Sequence:
#
# PCOD9536578 Si02
#       6
#    16  16  16  16   8  16
#     4  10  22  41  65  97 132 167 218 274 337 397
#     4  10  19  34  61  95 129 161 202 260 326 397
#     4  10  20  36  59  90 133 177 214 259 324 401
#     4  11  22  41  65  97 130 169 222 269 337 393
#     4  12  28  46  68  96 134 182 233 282 327 386
#     4  11  26  45  68  94 130 177 228 283 337 396
#
# _framework density 21.678152999999998
#
# number of rings (size 3 to 8) (size 9 to 14) (size 15 to 20)
#    0.000    1.455    2.727    2.182    0.000    8.364 
#    0.000    2.727    0.000    0.000    0.000    0.000 
#    0.000    0.000    0.000    0.000    0.000    0.000 
#
# Total GULP energy -245092.673320 kJ/mol
# GULP energy per Si atom -5570.288030 kJ/mol
# Density = 2.162881 g / cm^3
# Si number density = 21.678153 Si / 1000 Ang^3
#
#
#
# Elastic Constant Matrix: (Units=GPa)
#
#
# Indices 1 2 3 4 5 6 
#
# 1 45.8246 24.3970 12.7382 0.0000 0.0000 0.0000
# 2 24.3970 130.7609 37.8640 0.0000 0.0000 0.0000
# 3 12.7382 37.8640 67.6714 0.0000 0.0000 0.0000
# 4 0.0000 0.0000 0.0000 21.8013 0.0000 0.0000
# 5 0.0000 0.0000 0.0000 0.0000 30.6487 0.0000
# 6 0.0000 0.0000 0.0000 0.0000 0.0000 0.1536
#
#
#
# Elastic Compliance Matrix: (Units=1/GPa)
#
#
# Indices 1 2 3 4 5 6 
#
# 1 0.024567 -0.003872 -0.002458 0.000000 0.000000 0.000000
# 2 -0.003872 0.009736 -0.004719 0.000000 0.000000 0.000000
# 3 -0.002458 -0.004719 0.017880 0.000000 0.000000 0.000000
# 4 0.000000 0.000000 0.000000 0.045869 0.000000 0.000000
# 5 0.000000 0.000000 0.000000 0.000000 0.032628 0.000000
# 6 0.000000 0.000000 0.000000 0.000000 0.000000 6.511532
#
#
# Mechanical properties :
#
#
# Convention : Reuss Voigt Hill
#
# Bulk Modulus (GPa) = 33.23791 43.80614 38.52202
# Shear Modulus (GPa) = 0.74914 21.80456 11.27685
#
# Velocity S-wave (km/s) = 0.58849 3.17492 2.28325
# Velocity P-wave (km/s) = 3.97838 5.80444 4.97589
#
# Compressibility (1/GPa) = 0.03008613
#
# Stress axis : x y z
#
# Youngs Moduli (GPa) = 40.70499 102.70726 55.92726
#
# Poissons Ratio (x) = 0.39767 0.13747
# Poissons Ratio (y) = 0.15761 0.26392
# Poissons Ratio (z) = 0.10005 0.48467
#
# Static dielectric constant tensor:
#      x y z
#    x 1.772060 0.000000 0.000000 
#    y 0.000000 1.887450 0.000000 
#    z 0.000000 0.000000 1.836790 
# 
# From -- ./inp_files/59818.got.cif
#   From: 2010.05.17/outbox.cif.g08.bks.cpg/sg74_30_cif.got.tgz:59818.got - 2010.06.03 17:57:02.
