data_PCOD9536443
_publ_section_title
;
Structure prediction by ZEFSAII (Michael W. Deem and Ramdas Pophale) SiO2 
 PCOD9536443
Probable space group: I M M A
;
_chemical_formula_sum "Si O2"
_cell_formula_units_Z 104
_cell_length_a 19.670031
_cell_length_b 9.361506
_cell_length_c 30.260079
_cell_angle_alpha 90.000000
_cell_angle_beta 90.000000
_cell_angle_gamma 90.000000
_cell_volume 5572.124633
_symmetry_space_group_name_H-M "I M M A"
_symmetry_group_IT_number 74
_symmetry_cell_setting 'orthorhombic'
loop_
_space_group_symop_operation_xyz
x,y,z
-x,1/2-y,z
x,-y,-z
-x,1/2+y,-z
-x,-y,-z
x,1/2+y,-z
-x,y,z
x,1/2-y,z
1/2+x,1/2+y,1/2+z
1/2-x,-y,1/2+z
1/2+x,1/2-y,1/2-z
1/2-x,y,1/2-z
1/2-x,1/2-y,1/2-z
1/2+x,y,1/2-z
1/2-x,1/2+y,1/2+z
1/2+x,-y,1/2+z
loop_
_atom_site_type_symbol
_atom_site_label
_atom_site_fract_x
_atom_site_fract_y
_atom_site_fract_z
Si Si1 0.578526 0.589896 0.425031
Si Si2 0.827034 0.917845 0.233311
Si Si3 0.920868 0.084134 0.684709
Si Si4 0.677588 0.000000 0.500000
Si Si5 0.424498 0.577329 0.907185
Si Si6 0.779382 0.915604 0.575225
Si Si7 0.667871 0.078118 0.358366
O O1 0.500000 0.561100 0.436404
O O2 0.582734 0.750000 0.405980
O O3 0.626794 0.585197 0.467983
O O4 0.607716 0.477599 0.390012
O O5 0.839667 0.750000 0.223444
O O6 0.750000 0.932180 0.250000
O O7 0.875264 0.959789 0.274001
O O8 0.837745 0.010671 0.189744
O O9 0.903858 0.250000 0.673122
O O10 0.000000 0.081234 0.697671
O O11 0.913852 0.983193 0.642248
O O12 0.729069 0.076191 0.466301
O O13 0.500000 0.527113 0.922212
O O14 0.427374 0.750000 0.907357
O O15 0.355738 0.527534 0.932145
O O16 0.788727 0.750000 0.585910
O O17 0.736992 0.976233 0.616850
O O18 0.668137 0.250000 0.356717
#
# Coordination Sequence:
#
# PCOD9536443 Si02
#       7
#    16  16  16   8  16  16  16
#     4  10  21  37  57  79 104 136 173 214 260 311
#     4  10  20  33  50  74 104 138 176 217 261 309
#     4   9  18  32  49  70  97 129 165 206 250 294
#     4  10  19  34  55  80 104 132 168 206 251 312
#     4   9  17  31  52  75  99 131 169 206 247 297
#     4   9  18  33  51  73 102 132 163 205 254 300
#     4  10  21  35  52  75 104 138 175 216 262 311
#
# _framework density 18.664335999999999
#
# number of rings (size 3 to 8) (size 9 to 14) (size 15 to 20)
#    0.000    2.462    0.000    2.077    0.000    2.462 
#    0.000    5.769    0.000    0.000    0.000    0.000 
#    0.000    0.000    0.000    0.000    0.000    0.000 
#
# Total GULP energy -289579.029023 kJ/mol
# GULP energy per Si atom -5568.827481 kJ/mol
# Density = 1.862185 g / cm^3
# Si number density = 18.664336 Si / 1000 Ang^3
#
#
#
# Elastic Constant Matrix: (Units=GPa)
#
#
# Indices 1 2 3 4 5 6 
#
# 1 143.1293 19.0568 32.5979 0.0000 0.0000 0.0000
# 2 19.0568 32.1886 8.7857 0.0000 0.0000 0.0000
# 3 32.5979 8.7857 40.9643 0.0000 0.0000 0.0000
# 4 0.0000 0.0000 0.0000 20.6971 0.0000 0.0000
# 5 0.0000 0.0000 0.0000 0.0000 20.9013 0.0000
# 6 0.0000 0.0000 0.0000 0.0000 0.0000 13.3870
#
#
#
# Elastic Compliance Matrix: (Units=1/GPa)
#
#
# Indices 1 2 3 4 5 6 
#
# 1 0.008898 -0.003543 -0.006321 0.000000 0.000000 0.000000
# 2 -0.003543 0.034409 -0.004561 0.000000 0.000000 0.000000
# 3 -0.006321 -0.004561 0.030420 0.000000 0.000000 0.000000
# 4 0.000000 0.000000 0.000000 0.048316 0.000000 0.000000
# 5 0.000000 0.000000 0.000000 0.000000 0.047844 0.000000
# 6 0.000000 0.000000 0.000000 0.000000 0.000000 0.074699
#
#
# Mechanical properties :
#
#
# Convention : Reuss Voigt Hill
#
# Bulk Modulus (GPa) = 22.28251 37.46254 29.87252
# Shear Modulus (GPa) = 17.33743 21.38653 19.36198
#
# Velocity S-wave (km/s) = 3.05110 3.38871 3.22433
# Velocity P-wave (km/s) = 4.93728 5.95201 5.46824
#
# Compressibility (1/GPa) = 0.04487825
#
# Stress axis : x y z
#
# Youngs Moduli (GPa) = 112.38527 29.06206 32.87363
#
# Poissons Ratio (x) = 0.10296 0.20779
# Poissons Ratio (y) = 0.39814 0.14992
# Poissons Ratio (z) = 0.71037 0.13254
#
# Static dielectric constant tensor:
#      x y z
#    x 1.694970 0.000000 0.000000 
#    y 0.000000 1.644210 0.000000 
#    z 0.000000 0.000000 1.618610 
# 
# From -- ./inp_files/73374.got.cif
#   From: 2010.05.17/outbox.cif.g08.bks.cpg/sg74_37_cif.got.tgz:73374.got - 2010.06.03 17:57:02.
