data_PCOD9536802
_publ_section_title
;
Structure prediction by ZEFSAII (Michael W. Deem and Ramdas Pophale) SiO2 
 PCOD9536802
Probable space group: I M M A
;
_chemical_formula_sum "Si O2"
_cell_formula_units_Z 100
_cell_length_a 17.733877
_cell_length_b 21.928897
_cell_length_c 13.161066
_cell_angle_alpha 90.000000
_cell_angle_beta 90.000000
_cell_angle_gamma 90.000000
_cell_volume 5118.132757
_symmetry_space_group_name_H-M "I M M A"
_symmetry_group_IT_number 74
_symmetry_cell_setting 'orthorhombic'
loop_
_space_group_symop_operation_xyz
x,y,z
-x,1/2-y,z
x,-y,-z
-x,1/2+y,-z
-x,-y,-z
x,1/2+y,-z
-x,y,z
x,1/2-y,z
1/2+x,1/2+y,1/2+z
1/2-x,-y,1/2+z
1/2+x,1/2-y,1/2-z
1/2-x,y,1/2-z
1/2-x,1/2-y,1/2-z
1/2+x,y,1/2-z
1/2-x,1/2+y,1/2+z
1/2+x,-y,1/2+z
loop_
_atom_site_type_symbol
_atom_site_label
_atom_site_fract_x
_atom_site_fract_y
_atom_site_fract_z
Si Si1 0.087587 0.356350 0.367369
Si Si2 0.583186 0.498261 0.837621
Si Si3 0.763985 0.931920 0.367578
Si Si4 0.271260 0.682532 0.989355
Si Si5 0.370992 0.160399 0.362074
Si Si6 0.000000 0.250000 0.068594
Si Si7 0.878681 0.016090 0.108950
O O1 0.095618 0.430131 0.362007
O O2 0.145104 0.329311 0.447913
O O3 0.110180 0.330813 0.256477
O O4 0.000000 0.342468 0.386300
O O5 0.500000 0.480172 0.874474
O O6 0.651882 0.458597 0.879590
O O7 0.585093 0.493291 0.714373
O O8 0.750000 0.915753 0.250000
O O9 0.751279 0.872921 0.436169
O O10 0.704185 0.985331 0.390635
O O11 0.265593 0.750000 0.035664
O O12 0.212290 0.679397 0.896196
O O13 0.433471 0.197287 0.424046
O O14 0.376317 0.088509 0.382258
O O15 0.913447 0.000000 0.000000
#
# Coordination Sequence:
#
# PCOD9536802 Si02
#       7
#    16  16  16  16  16   4  16
#     4  10  22  38  59  93 129 161 196 246 303 368
#     4   9  20  37  59  90 124 156 194 249 316 365
#     4  10  22  42  63  86 119 158 203 267 313 346
#     4  12  25  38  62  90 115 164 220 248 296 377
#     4  11  22  39  60  88 126 165 196 238 305 370
#     4  12  24  40  60  84 140 176 184 236 308 372
#     4  10  19  36  64  92 116 151 203 252 298 359
#
# _framework density 19.538374999999998
#
# number of rings (size 3 to 8) (size 9 to 14) (size 15 to 20)
#    0.000    1.600    3.200    1.440    2.240    4.800 
#    0.000    1.600    0.000    0.000    0.000    0.000 
#    0.000    0.000    0.000    0.000    0.000    0.000 
#
# Total GULP energy -278805.756174 kJ/mol
# GULP energy per Si atom -5576.115123 kJ/mol
# Density = 1.949390 g / cm^3
# Si number density = 19.538375 Si / 1000 Ang^3
#
#
#
# Elastic Constant Matrix: (Units=GPa)
#
#
# Indices 1 2 3 4 5 6 
#
# 1 134.1345 42.0629 5.5916 0.0000 0.0000 0.0000
# 2 42.0629 98.0358 3.6639 0.0000 0.0000 0.0000
# 3 5.5916 3.6639 36.8339 0.0000 0.0000 0.0000
# 4 0.0000 0.0000 0.0000 23.4468 0.0000 0.0000
# 5 0.0000 0.0000 0.0000 0.0000 -1.2897 0.0000
# 6 0.0000 0.0000 0.0000 0.0000 0.0000 65.6888
#
#
#
# Elastic Compliance Matrix: (Units=1/GPa)
#
#
# Indices 1 2 3 4 5 6 
#
# 1 0.008647 -0.003675 -0.000947 0.000000 0.000000 0.000000
# 2 -0.003675 0.011800 -0.000616 0.000000 0.000000 0.000000
# 3 -0.000947 -0.000616 0.027354 0.000000 0.000000 0.000000
# 4 0.000000 0.000000 0.000000 0.042650 0.000000 0.000000
# 5 0.000000 0.000000 0.000000 0.000000 -0.775400 0.000000
# 6 0.000000 0.000000 0.000000 0.000000 0.000000 0.015223
#
#
# Mechanical properties :
#
#
# Convention : Reuss Voigt Hill
#
# Bulk Modulus (GPa) = 26.79134 41.29346 34.04240
# Shear Modulus (GPa) = -7.73027 32.08155 12.17564
#
# Velocity S-wave (km/s) = -1.99124 4.05653 2.49904
# Velocity P-wave (km/s) = 2.90778 6.56666 5.07820
#
# Compressibility (1/GPa) = 0.03732549
#
# Stress axis : x y z
#
# Youngs Moduli (GPa) = 115.64677 84.74561 36.55781
#
# Poissons Ratio (x) = 0.31141 0.03463
# Poissons Ratio (y) = 0.42496 0.02252
# Poissons Ratio (z) = 0.10954 0.05220
#
# Static dielectric constant tensor:
#      x y z
#    x 1.686590 0.000000 0.000000 
#    y 0.000000 1.667160 0.000000 
#    z 0.000000 0.000000 1.705210 
# 
# From -- ./inp_files/34321.got.cif
#   From: 2010.05.17/outbox.cif.g08.bks.cpg/sg74_18_cif.got.tgz:34321.got - 2010.06.03 17:57:02.
