data_PCOD9536828
_publ_section_title
;
Structure prediction by ZEFSAII (Michael W. Deem and Ramdas Pophale) SiO2 
 PCOD9536828
Probable space group: I M M A
;
_chemical_formula_sum "Si O2"
_cell_formula_units_Z 92
_cell_length_a 24.824334
_cell_length_b 8.943261
_cell_length_c 24.445629
_cell_angle_alpha 90.000000
_cell_angle_beta 90.000000
_cell_angle_gamma 90.000000
_cell_volume 5427.186271
_symmetry_space_group_name_H-M "I M M A"
_symmetry_group_IT_number 74
_symmetry_cell_setting 'orthorhombic'
loop_
_space_group_symop_operation_xyz
x,y,z
-x,1/2-y,z
x,-y,-z
-x,1/2+y,-z
-x,-y,-z
x,1/2+y,-z
-x,y,z
x,1/2-y,z
1/2+x,1/2+y,1/2+z
1/2-x,-y,1/2+z
1/2+x,1/2-y,1/2-z
1/2-x,y,1/2-z
1/2-x,1/2-y,1/2-z
1/2+x,y,1/2-z
1/2-x,1/2+y,1/2+z
1/2+x,-y,1/2+z
loop_
_atom_site_type_symbol
_atom_site_label
_atom_site_fract_x
_atom_site_fract_y
_atom_site_fract_z
Si Si1 0.896815 0.570262 0.866612
Si Si2 0.191890 0.428006 0.941255
Si Si3 0.395898 0.084242 0.145116
Si Si4 0.500000 0.250000 0.109396
Si Si5 0.563679 0.429132 0.745515
Si Si6 0.819324 0.927533 0.441492
Si Si7 0.000000 0.929062 0.940380
O O1 0.893947 0.750000 0.863358
O O2 0.843870 0.503353 0.894635
O O3 0.908947 0.501946 0.807425
O O4 0.947167 0.529003 0.905814
O O5 0.182413 0.250000 0.943143
O O6 0.255567 0.453811 0.932167
O O7 0.177674 0.500000 0.000000
O O8 0.374341 0.250000 0.160364
O O9 0.452023 0.121945 0.114393
O O10 0.409899 0.993101 0.199525
O O11 0.354934 0.000428 0.105690
O O12 0.500000 0.469623 0.745467
O O13 0.568002 0.250000 0.743423
O O14 0.828128 0.750000 0.443883
O O15 0.833140 0.000000 0.500000
O O16 0.000000 0.750000 0.946077
O O17 0.000000 0.000000 0.000000
#
# Coordination Sequence:
#
# PCOD9536828 Si02
#       7
#    16  16  16   4  16  16   8
#     4  11  22  36  55  80 113 150 195 238 285 339
#     4  10  21  38  58  83 113 147 192 238 286 338
#     4  10  19  37  60  84 117 148 187 226 281 335
#     4   8  20  34  60  84 116 150 178 224 276 332
#     4  11  21  35  57  83 113 152 193 232 284 343
#     4  10  21  38  62  87 114 151 189 233 282 339
#     4  10  22  35  50  76 110 149 184 235 288 333
#
# _framework density 16.951692999999999
#
# number of rings (size 3 to 8) (size 9 to 14) (size 15 to 20)
#    0.522    1.217    1.739    3.130    0.000    5.565 
#    0.000    1.304    0.000    5.217    0.000    0.000 
#    0.000    0.000    0.000    0.000    0.000    0.000 
#
# Total GULP energy -256146.780279 kJ/mol
# GULP energy per Si atom -5568.408267 kJ/mol
# Density = 1.691311 g / cm^3
# Si number density = 16.951693 Si / 1000 Ang^3
#
#
#
# Elastic Constant Matrix: (Units=GPa)
#
#
# Indices 1 2 3 4 5 6 
#
# 1 85.4874 65.6230 84.2169 0.0000 0.0000 0.0000
# 2 65.6230 93.1089 74.3815 0.0000 0.0000 0.0000
# 3 84.2169 74.3815 133.9364 0.0000 0.0000 0.0000
# 4 0.0000 0.0000 0.0000 36.3833 0.0000 0.0000
# 5 0.0000 0.0000 0.0000 0.0000 23.9336 0.0000
# 6 0.0000 0.0000 0.0000 0.0000 0.0000 29.1904
#
#
#
# Elastic Compliance Matrix: (Units=1/GPa)
#
#
# Indices 1 2 3 4 5 6 
#
# 1 0.038954 -0.014177 -0.016620 0.000000 0.000000 0.000000
# 2 -0.014177 0.024464 -0.004672 0.000000 0.000000 0.000000
# 3 -0.016620 -0.004672 0.020511 0.000000 0.000000 0.000000
# 4 0.000000 0.000000 0.000000 0.027485 0.000000 0.000000
# 5 0.000000 0.000000 0.000000 0.000000 0.041782 0.000000
# 6 0.000000 0.000000 0.000000 0.000000 0.000000 0.034258
#
#
# Mechanical properties :
#
#
# Convention : Reuss Voigt Hill
#
# Bulk Modulus (GPa) = 76.97736 84.55282 80.76509
# Shear Modulus (GPa) = 19.03145 23.78887 21.41016
#
# Velocity S-wave (km/s) = 3.35429 3.75017 3.55774
# Velocity P-wave (km/s) = 7.77882 8.29088 8.03893
#
# Compressibility (1/GPa) = 0.01299083
#
# Stress axis : x y z
#
# Youngs Moduli (GPa) = 25.67159 40.87565 48.75410
#
# Poissons Ratio (x) = 0.57951 0.81029
# Poissons Ratio (y) = 0.36395 0.22777
# Poissons Ratio (z) = 0.42666 0.19097
#
# Static dielectric constant tensor:
#      x y z
#    x 1.558840 0.000000 0.000000 
#    y 0.000000 1.571230 0.000000 
#    z 0.000000 0.000000 1.538840 
# 
# From -- ./inp_files/55140.got.cif
#   From: 2010.05.17/outbox.cif.g08.bks.cpg/sg74_28_cif.got.tgz:55140.got - 2010.06.03 17:57:02.
