data_PCOD9536168
_publ_section_title
;
Structure prediction by ZEFSAII (Michael W. Deem and Ramdas Pophale) SiO2 
 PCOD9536168
Probable space group: I M M A
;
_chemical_formula_sum "Si O2"
_cell_formula_units_Z 64
_cell_length_a 20.538475
_cell_length_b 8.578774
_cell_length_c 20.628502
_cell_angle_alpha 90.000000
_cell_angle_beta 90.000000
_cell_angle_gamma 90.000000
_cell_volume 3634.637576
_symmetry_space_group_name_H-M "I M M A"
_symmetry_group_IT_number 74
_symmetry_cell_setting 'orthorhombic'
loop_
_space_group_symop_operation_xyz
x,y,z
-x,1/2-y,z
x,-y,-z
-x,1/2+y,-z
-x,-y,-z
x,1/2+y,-z
-x,y,z
x,1/2-y,z
1/2+x,1/2+y,1/2+z
1/2-x,-y,1/2+z
1/2+x,1/2-y,1/2-z
1/2-x,y,1/2-z
1/2-x,1/2-y,1/2-z
1/2+x,y,1/2-z
1/2-x,1/2+y,1/2+z
1/2+x,-y,1/2+z
loop_
_atom_site_type_symbol
_atom_site_label
_atom_site_fract_x
_atom_site_fract_y
_atom_site_fract_z
Si Si1 0.574063 0.060144 0.677023
Si Si2 0.679378 0.937483 0.428329
Si Si3 0.177118 0.435235 0.428805
Si Si4 0.575804 0.937879 0.174501
O O1 0.500000 0.009923 0.662136
O O2 0.573808 0.250000 0.676369
O O3 0.626777 0.008585 0.624586
O O4 0.589821 0.014729 0.751027
O O5 0.679780 0.750000 0.429969
O O6 0.663489 0.000000 0.500000
O O7 0.751907 0.995605 0.412066
O O8 0.159600 0.500000 0.500000
O O9 0.182200 0.250000 0.432611
O O10 0.124194 0.485476 0.376214
O O11 0.500000 0.975514 0.161360
O O12 0.582338 0.750000 0.170615
#
# Coordination Sequence:
#
# PCOD9536168 Si02
#       4
#    16  16  16  16
#     4   8  16  32  54  78 103 134 171 208 248 300
#     4  10  19  33  53  76 104 136 172 211 251 297
#     4  11  22  36  53  74 103 135 170 210 253 302
#     4   9  18  35  57  78 101 131 169 210 251 299
#
# _framework density 17.608357999999999
#
# number of rings (size 3 to 8) (size 9 to 14) (size 15 to 20)
#    0.000    2.500    0.000    6.000    0.000    2.500 
#    0.000    7.500    0.000    5.250    0.000    0.000 
#    0.000    0.000    0.000    0.000    0.000    0.000 
#
# Total GULP energy -178533.771329 kJ/mol
# GULP energy per Si atom -5579.180354 kJ/mol
# Density = 1.756828 g / cm^3
# Si number density = 17.608358 Si / 1000 Ang^3
#
#
#
# Elastic Constant Matrix: (Units=GPa)
#
#
# Indices 1 2 3 4 5 6 
#
# 1 133.8628 47.7912 131.6742 0.0000 0.0000 0.0000
# 2 47.7912 62.6873 46.8452 0.0000 0.0000 0.0000
# 3 131.6742 46.8452 146.5583 0.0000 0.0000 0.0000
# 4 0.0000 0.0000 0.0000 27.6415 0.0000 0.0000
# 5 0.0000 0.0000 0.0000 0.0000 43.4528 0.0000
# 6 0.0000 0.0000 0.0000 0.0000 0.0000 20.1107
#
#
#
# Elastic Compliance Matrix: (Units=1/GPa)
#
#
# Indices 1 2 3 4 5 6 
#
# 1 0.067207 -0.008034 -0.057814 0.000000 0.000000 0.000000
# 2 -0.008034 0.021919 0.000212 0.000000 0.000000 0.000000
# 3 -0.057814 0.000212 0.058698 0.000000 0.000000 0.000000
# 4 0.000000 0.000000 0.000000 0.036177 0.000000 0.000000
# 5 0.000000 0.000000 0.000000 0.000000 0.023013 0.000000
# 6 0.000000 0.000000 0.000000 0.000000 0.000000 0.049725
#
#
# Mechanical properties :
#
#
# Convention : Reuss Voigt Hill
#
# Bulk Modulus (GPa) = 60.41485 88.41440 74.41463
# Shear Modulus (GPa) = 12.70557 26.02754 19.36656
#
# Velocity S-wave (km/s) = 2.68911 3.84882 3.32000
# Velocity P-wave (km/s) = 6.63525 8.37089 7.55309
#
# Compressibility (1/GPa) = 0.01655222
#
# Stress axis : x y z
#
# Youngs Moduli (GPa) = 14.87935 45.62344 17.03635
#
# Poissons Ratio (x) = 0.36652 0.98494
# Poissons Ratio (y) = 0.11954 -0.00361
# Poissons Ratio (z) = 0.86023 -0.00967
#
# Static dielectric constant tensor:
#      x y z
#    x 1.581740 0.000000 0.000000 
#    y 0.000000 1.602550 0.000000 
#    z 0.000000 0.000000 1.584700 
# 
# From -- ./inp_files/28812.got.cif
#   From: 2010.05.17/outbox.cif.g08.bks.cpg/sg74_15_cif.got.tgz:28812.got - 2010.06.03 17:57:02.
