data_PCOD9536591
_publ_section_title
;
Structure prediction by ZEFSAII (Michael W. Deem and Ramdas Pophale) SiO2 
 PCOD9536591
Probable space group: I M M A
;
_chemical_formula_sum "Si O2"
_cell_formula_units_Z 72
_cell_length_a 25.548846
_cell_length_b 30.276906
_cell_length_c 4.968881
_cell_angle_alpha 90.000000
_cell_angle_beta 90.000000
_cell_angle_gamma 90.000000
_cell_volume 3843.628252
_symmetry_space_group_name_H-M "I M M A"
_symmetry_group_IT_number 74
_symmetry_cell_setting 'orthorhombic'
loop_
_space_group_symop_operation_xyz
x,y,z
-x,1/2-y,z
x,-y,-z
-x,1/2+y,-z
-x,-y,-z
x,1/2+y,-z
-x,y,z
x,1/2-y,z
1/2+x,1/2+y,1/2+z
1/2-x,-y,1/2+z
1/2+x,1/2-y,1/2-z
1/2-x,y,1/2-z
1/2-x,1/2-y,1/2-z
1/2+x,y,1/2-z
1/2-x,1/2+y,1/2+z
1/2+x,-y,1/2+z
loop_
_atom_site_type_symbol
_atom_site_label
_atom_site_fract_x
_atom_site_fract_y
_atom_site_fract_z
Si Si1 0.940472 0.898202 0.889852
Si Si2 0.302099 0.601708 0.075169
Si Si3 0.596565 0.450791 0.898406
Si Si4 0.710552 0.250000 0.492613
Si Si5 0.159867 0.844498 0.933313
O O1 0.935603 0.919012 0.595375
O O2 0.900455 0.857197 0.887599
O O3 0.000000 0.887201 0.956395
O O4 0.919098 0.935697 0.098181
O O5 0.250000 0.590103 0.250000
O O6 0.341934 0.560684 0.060425
O O7 0.328082 0.637028 0.272572
O O8 0.306216 0.626711 0.785318
O O9 0.586137 0.500000 0.000000
O O10 0.750000 0.250000 0.750000
O O11 0.676011 0.293840 0.452494
O O12 0.750000 0.250000 0.250000
#
# Coordination Sequence:
#
# PCOD9536591 Si02
#       5
#    16  16  16   8  16
#     4  10  21  37  56  76 106 144 178 221 274 317
#     4  10  19  35  54  73 107 145 173 211 267 320
#     4  10  21  35  53  81 108 136 183 229 263 315
#     4  12  22  34  57  84 109 136 172 216 263 314
#     4  10  21  35  53  80 107 135 177 219 259 318
#
# _framework density 18.732301
#
# number of rings (size 3 to 8) (size 9 to 14) (size 15 to 20)
#    0.000    1.778    0.000    5.333    0.000    2.667 
#    0.000    7.222    0.000    0.000    0.000   10.889 
#    0.000    0.000    0.000    0.000    0.000    0.000 
#
# Total GULP energy -200470.938013 kJ/mol
# GULP energy per Si atom -5568.637167 kJ/mol
# Density = 1.868967 g / cm^3
# Si number density = 18.732301 Si / 1000 Ang^3
#
#
#
# Elastic Constant Matrix: (Units=GPa)
#
#
# Indices 1 2 3 4 5 6 
#
# 1 140.3345 51.0882 -2.8769 0.0000 0.0000 0.0000
# 2 51.0882 65.9019 5.9234 0.0000 0.0000 0.0000
# 3 -2.8769 5.9234 82.6977 0.0000 0.0000 0.0000
# 4 0.0000 0.0000 0.0000 12.3455 0.0000 0.0000
# 5 0.0000 0.0000 0.0000 0.0000 21.9590 0.0000
# 6 0.0000 0.0000 0.0000 0.0000 0.0000 3.7905
#
#
#
# Elastic Compliance Matrix: (Units=1/GPa)
#
#
# Indices 1 2 3 4 5 6 
#
# 1 0.009995 -0.007830 0.000909 0.000000 0.000000 0.000000
# 2 -0.007830 0.021406 -0.001806 0.000000 0.000000 0.000000
# 3 0.000909 -0.001806 0.012253 0.000000 0.000000 0.000000
# 4 0.000000 0.000000 0.000000 0.081001 0.000000 0.000000
# 5 0.000000 0.000000 0.000000 0.000000 0.045539 0.000000
# 6 0.000000 0.000000 0.000000 0.000000 0.000000 0.263816
#
#
# Mechanical properties :
#
#
# Convention : Reuss Voigt Hill
#
# Bulk Modulus (GPa) = 38.16749 44.13373 41.15061
# Shear Modulus (GPa) = 10.86489 23.27230 17.06860
#
# Velocity S-wave (km/s) = 2.41095 3.52854 3.02186
# Velocity P-wave (km/s) = 5.30751 6.34131 5.84730
#
# Compressibility (1/GPa) = 0.02620031
#
# Stress axis : x y z
#
# Youngs Moduli (GPa) = 100.05127 46.71551 81.61154
#
# Poissons Ratio (x) = 0.36578 -0.07415
# Poissons Ratio (y) = 0.78339 0.14736
# Poissons Ratio (z) = -0.09090 0.08435
#
# Static dielectric constant tensor:
#      x y z
#    x 1.747760 0.000000 0.000000 
#    y 0.000000 1.574160 0.000000 
#    z 0.000000 0.000000 1.644760 
# 
# From -- ./inp_files/3743.got.cif
#   From: 2010.05.17/outbox.cif.g08.bks.cpg/sg74_2_cif.got.tgz:3743.got - 2010.06.03 17:57:02.
