data_PCOD9536280
_publ_section_title
;
Structure prediction by ZEFSAII (Michael W. Deem and Ramdas Pophale) SiO2 
 PCOD9536280
Probable space group: I M M A
;
_chemical_formula_sum "Si O2"
_cell_formula_units_Z 64
_cell_length_a 13.798219
_cell_length_b 8.212005
_cell_length_c 27.860214
_cell_angle_alpha 90.000000
_cell_angle_beta 90.000000
_cell_angle_gamma 90.000000
_cell_volume 3156.869918
_symmetry_space_group_name_H-M "I M M A"
_symmetry_group_IT_number 74
_symmetry_cell_setting 'orthorhombic'
loop_
_space_group_symop_operation_xyz
x,y,z
-x,1/2-y,z
x,-y,-z
-x,1/2+y,-z
-x,-y,-z
x,1/2+y,-z
-x,y,z
x,1/2-y,z
1/2+x,1/2+y,1/2+z
1/2-x,-y,1/2+z
1/2+x,1/2-y,1/2-z
1/2-x,y,1/2-z
1/2-x,1/2-y,1/2-z
1/2+x,y,1/2-z
1/2-x,1/2+y,1/2+z
1/2+x,-y,1/2+z
loop_
_atom_site_type_symbol
_atom_site_label
_atom_site_fract_x
_atom_site_fract_y
_atom_site_fract_z
Si Si1 0.784961 0.555045 0.446688
Si Si2 0.000000 0.054648 0.416399
Si Si3 0.890234 0.944017 0.121856
Si Si4 0.500000 0.050363 0.192511
Si Si5 0.855821 0.937664 0.771328
O O1 0.756698 0.500000 0.500000
O O2 0.786155 0.750000 0.443977
O O3 0.896280 0.498918 0.437870
O O4 0.702213 0.493440 0.409139
O O5 0.000000 0.250000 0.417860
O O6 0.000000 0.992724 0.361512
O O7 0.893199 0.750000 0.113998
O O8 0.000000 0.006892 0.110441
O O9 0.870668 0.975165 0.178216
O O10 0.500000 0.250000 0.189524
O O11 0.586938 0.994620 0.225854
O O12 0.886374 0.750000 0.779884
O O13 0.750000 0.935294 0.750000
#
# Coordination Sequence:
#
# PCOD9536280 Si02
#       5
#    16   8  16   8  16
#     4  11  24  42  63  88 119 155 201 253 308 362
#     4  11  22  40  65  91 122 157 199 248 303 361
#     4  10  22  40  60  86 122 160 199 247 299 356
#     4   9  18  32  52  83 116 149 188 230 282 343
#     4  10  19  33  55  83 116 153 196 242 287 341
#
# _framework density 20.273247000000001
#
# number of rings (size 3 to 8) (size 9 to 14) (size 15 to 20)
#    0.000    1.750    1.250    3.000    0.000    5.000 
#    0.000    2.500    0.000    0.000    0.000    0.000 
#    0.000    0.000    0.000    0.000    0.000    0.000 
#
# Total GULP energy -178337.427139 kJ/mol
# GULP energy per Si atom -5573.044598 kJ/mol
# Density = 2.022710 g / cm^3
# Si number density = 20.273247 Si / 1000 Ang^3
#
#
#
# Elastic Constant Matrix: (Units=GPa)
#
#
# Indices 1 2 3 4 5 6 
#
# 1 148.8501 19.3682 44.2354 0.0000 0.0000 0.0000
# 2 19.3682 30.2182 4.4890 0.0000 0.0000 0.0000
# 3 44.2354 4.4890 114.5032 0.0000 0.0000 0.0000
# 4 0.0000 0.0000 0.0000 26.0187 0.0000 0.0000
# 5 0.0000 0.0000 0.0000 0.0000 11.0486 0.0000
# 6 0.0000 0.0000 0.0000 0.0000 0.0000 0.5704
#
#
#
# Elastic Compliance Matrix: (Units=1/GPa)
#
#
# Indices 1 2 3 4 5 6 
#
# 1 0.008237 -0.004835 -0.002992 0.000000 0.000000 0.000000
# 2 -0.004835 0.036124 0.000452 0.000000 0.000000 0.000000
# 3 -0.002992 0.000452 0.009872 0.000000 0.000000 0.000000
# 4 0.000000 0.000000 0.000000 0.038434 0.000000 0.000000
# 5 0.000000 0.000000 0.000000 0.000000 0.090509 0.000000
# 6 0.000000 0.000000 0.000000 0.000000 0.000000 1.753045
#
#
# Mechanical properties :
#
#
# Convention : Reuss Voigt Hill
#
# Bulk Modulus (GPa) = 25.32837 47.75074 36.53955
# Shear Modulus (GPa) = 2.54565 22.55949 12.55257
#
# Velocity S-wave (km/s) = 1.12178 3.33944 2.49101
# Velocity P-wave (km/s) = 3.76809 6.20273 5.13188
#
# Compressibility (1/GPa) = 0.03948142
#
# Stress axis : x y z
#
# Youngs Moduli (GPa) = 121.41019 27.68226 101.29926
#
# Poissons Ratio (x) = 0.13383 0.30313
# Poissons Ratio (y) = 0.58697 -0.04574
# Poissons Ratio (z) = 0.36331 -0.01250
#
# Static dielectric constant tensor:
#      x y z
#    x 1.718150 0.000000 0.000000 
#    y 0.000000 1.740990 0.000000 
#    z 0.000000 0.000000 1.686550 
# 
# From -- ./inp_files/66646.got.cif
#   From: 2010.05.17/outbox.cif.g08.bks.cpg/sg74_34_cif.got.tgz:66646.got - 2010.06.03 17:57:02.
