data_PCOD9536344
_publ_section_title
;
Structure prediction by ZEFSAII (Michael W. Deem and Ramdas Pophale) SiO2 
 PCOD9536344
Probable space group: I M M A
;
_chemical_formula_sum "Si O2"
_cell_formula_units_Z 80
_cell_length_a 10.680341
_cell_length_b 20.837242
_cell_length_c 19.667941
_cell_angle_alpha 90.000000
_cell_angle_beta 90.000000
_cell_angle_gamma 90.000000
_cell_volume 4377.077653
_symmetry_space_group_name_H-M "I M M A"
_symmetry_group_IT_number 74
_symmetry_cell_setting 'orthorhombic'
loop_
_space_group_symop_operation_xyz
x,y,z
-x,1/2-y,z
x,-y,-z
-x,1/2+y,-z
-x,-y,-z
x,1/2+y,-z
-x,y,z
x,1/2-y,z
1/2+x,1/2+y,1/2+z
1/2-x,-y,1/2+z
1/2+x,1/2-y,1/2-z
1/2-x,y,1/2-z
1/2-x,1/2-y,1/2-z
1/2+x,y,1/2-z
1/2-x,1/2+y,1/2+z
1/2+x,-y,1/2+z
loop_
_atom_site_type_symbol
_atom_site_label
_atom_site_fract_x
_atom_site_fract_y
_atom_site_fract_z
Si Si1 0.759800 0.327470 0.828587
Si Si2 0.000000 0.891376 0.103750
Si Si3 0.748776 0.325316 0.377435
Si Si4 0.500000 0.171581 0.893610
Si Si5 0.500000 0.875706 0.558763
Si Si6 0.250000 0.921328 0.750000
Si Si7 0.000000 0.327126 0.455952
Si Si8 0.000000 0.975686 0.813919
O O1 0.768355 0.250000 0.830464
O O2 0.750000 0.347010 0.750000
O O3 0.876104 0.354161 0.870994
O O4 0.628062 0.348597 0.859426
O O5 0.000000 0.955906 0.148939
O O6 0.000000 0.897574 0.020768
O O7 0.753469 0.250000 0.357536
O O8 0.626087 0.336271 0.423786
O O9 0.753933 0.372686 0.313663
O O10 0.872915 0.343041 0.418517
O O11 0.500000 0.250000 0.892486
O O12 0.500000 0.145875 0.969275
O O13 0.500000 0.928786 0.619436
O O14 0.375713 0.962158 0.732169
O O15 0.000000 0.250000 0.461758
#
# Coordination Sequence:
#
# PCOD9536344 Si02
#       8
#    16   8  16   8   8   8   8   8
#     4  10  21  36  55  83 113 143 183 236 290 342
#     4  12  23  37  61  81 113 157 202 235 288 341
#     4  10  19  33  58  88 118 148 186 232 299 366
#     4   9  17  32  51  74 112 145 168 212 278 342
#     4  10  22  38  55  85 119 152 190 244 285 344
#     4  10  21  40  58  82 115 152 192 250 292 334
#     4   9  17  28  47  78 110 143 176 210 264 347
#     4  10  24  41  60  80 113 154 205 244 283 331
#
# _framework density 18.277035000000001
#
# number of rings (size 3 to 8) (size 9 to 14) (size 15 to 20)
#    0.000    2.000    0.000    3.600    1.400    4.800 
#    0.000    3.000    0.000    0.000    0.000    9.800 
#    0.000    0.000    0.000    0.000    0.000    0.000 
#
# Total GULP energy -222863.154767 kJ/mol
# GULP energy per Si atom -5571.578869 kJ/mol
# Density = 1.823544 g / cm^3
# Si number density = 18.277035 Si / 1000 Ang^3
#
#
#
# Elastic Constant Matrix: (Units=GPa)
#
#
# Indices 1 2 3 4 5 6 
#
# 1 193.9022 35.8422 91.4698 0.0000 0.0000 0.0000
# 2 35.8422 46.2644 32.9091 0.0000 0.0000 0.0000
# 3 91.4698 32.9091 137.8784 0.0000 0.0000 0.0000
# 4 0.0000 0.0000 0.0000 4.0182 0.0000 0.0000
# 5 0.0000 0.0000 0.0000 0.0000 -72.9771 0.0000
# 6 0.0000 0.0000 0.0000 0.0000 0.0000 48.6468
#
#
#
# Elastic Compliance Matrix: (Units=1/GPa)
#
#
# Indices 1 2 3 4 5 6 
#
# 1 0.007806 -0.002847 -0.004499 0.000000 0.000000 0.000000
# 2 -0.002847 0.027074 -0.004573 0.000000 0.000000 0.000000
# 3 -0.004499 -0.004573 0.011329 0.000000 0.000000 0.000000
# 4 0.000000 0.000000 0.000000 0.248866 0.000000 0.000000
# 5 0.000000 0.000000 0.000000 0.000000 -0.013703 0.000000
# 6 0.000000 0.000000 0.000000 0.000000 0.000000 0.020556
#
#
# Mechanical properties :
#
#
# Convention : Reuss Voigt Hill
#
# Bulk Modulus (GPa) = 44.70281 77.60970 61.15625
# Shear Modulus (GPa) = 15.00498 10.45919 12.73208
#
# Velocity S-wave (km/s) = 2.86837 2.39479 2.64221
# Velocity P-wave (km/s) = 5.95665 7.08532 6.54536
#
# Compressibility (1/GPa) = 0.02236996
#
# Stress axis : x y z
#
# Youngs Moduli (GPa) = 128.11009 36.93621 88.27001
#
# Poissons Ratio (x) = 0.10516 0.39711
# Poissons Ratio (y) = 0.36475 0.40367
# Poissons Ratio (z) = 0.57635 0.16892
#
# Static dielectric constant tensor:
#      x y z
#    x 1.599750 0.000000 0.000000 
#    y 0.000000 1.627910 0.000000 
#    z 0.000000 0.000000 1.881670 
# 
# From -- ./inp_files/48688.got.cif
#   From: 2010.05.17/outbox.cif.g08.bks.cpg/sg74_25_cif.got.tgz:48688.got - 2010.06.03 17:57:02.
