data_PCOD9536457
_publ_section_title
;
Structure prediction by ZEFSAII (Michael W. Deem and Ramdas Pophale) SiO2 
 PCOD9536457
Probable space group: I M M A
;
_chemical_formula_sum "Si O2"
_cell_formula_units_Z 72
_cell_length_a 15.862538
_cell_length_b 20.850320
_cell_length_c 8.672539
_cell_angle_alpha 90.000000
_cell_angle_beta 90.000000
_cell_angle_gamma 90.000000
_cell_volume 2868.346818
_symmetry_space_group_name_H-M "I M M A"
_symmetry_group_IT_number 74
_symmetry_cell_setting 'orthorhombic'
loop_
_space_group_symop_operation_xyz
x,y,z
-x,1/2-y,z
x,-y,-z
-x,1/2+y,-z
-x,-y,-z
x,1/2+y,-z
-x,y,z
x,1/2-y,z
1/2+x,1/2+y,1/2+z
1/2-x,-y,1/2+z
1/2+x,1/2-y,1/2-z
1/2-x,y,1/2-z
1/2-x,1/2-y,1/2-z
1/2+x,y,1/2-z
1/2-x,1/2+y,1/2+z
1/2+x,-y,1/2+z
loop_
_atom_site_type_symbol
_atom_site_label
_atom_site_fract_x
_atom_site_fract_y
_atom_site_fract_z
Si Si1 0.500000 0.673783 0.320087
Si Si2 0.832368 0.047805 0.175251
Si Si3 0.330890 0.181529 0.129126
Si Si4 0.000000 0.978596 0.678606
Si Si5 0.690894 0.365069 0.596119
Si Si6 0.000000 0.646240 0.501391
O O1 0.500000 0.750000 0.280595
O O2 0.593951 0.660701 0.390884
O O3 0.500000 0.624456 0.174918
O O4 0.750000 0.017088 0.250000
O O5 0.836404 0.117685 0.266390
O O6 0.915761 0.010186 0.225516
O O7 0.819830 0.068163 0.998603
O O8 0.334410 0.250000 0.212722
O O9 0.250326 0.175933 0.018534
O O10 0.412395 0.181237 0.020722
O O11 0.000000 0.902843 0.641609
O O12 0.000000 0.000000 0.500000
O O13 0.750000 0.368954 0.750000
#
# Coordination Sequence:
#
# PCOD9536457 Si02
#       6
#     8  16  16   8  16   8
#     4  12  23  33  51  85 126 168 221 264 308 380
#     4   9  21  39  63  96 125 164 212 265 322 388
#     4  10  19  34  55  85 125 168 214 258 314 388
#     4  10  21  43  75  92 120 162 213 276 343 397
#     4  11  22  35  55  86 127 174 209 255 313 375
#     4  10  20  34  56  89 117 162 206 266 321 380
#
# _framework density 25.101566999999999
#
# number of rings (size 3 to 8) (size 9 to 14) (size 15 to 20)
#    0.000    1.778    2.222    2.333    0.000    5.778 
#    0.000    0.000   14.667    1.333    0.000    0.000 
#    0.000    0.000    0.000    0.000    0.000    0.000 
#
# Total GULP energy -200667.337838 kJ/mol
# GULP energy per Si atom -5574.092718 kJ/mol
# Density = 2.504443 g / cm^3
# Si number density = 25.101567 Si / 1000 Ang^3
#
#
#
# Elastic Constant Matrix: (Units=GPa)
#
#
# Indices 1 2 3 4 5 6 
#
# 1 290.4465 30.0097 78.8409 0.0000 0.0000 0.0000
# 2 30.0097 58.4137 12.0296 0.0000 0.0000 0.0000
# 3 78.8409 12.0296 115.6691 0.0000 0.0000 0.0000
# 4 0.0000 0.0000 0.0000 23.6931 0.0000 0.0000
# 5 0.0000 0.0000 0.0000 0.0000 63.3699 0.0000
# 6 0.0000 0.0000 0.0000 0.0000 0.0000 -3.6166
#
#
#
# Elastic Compliance Matrix: (Units=1/GPa)
#
#
# Indices 1 2 3 4 5 6 
#
# 1 0.004379 -0.001671 -0.002811 0.000000 0.000000 0.000000
# 2 -0.001671 0.018131 -0.000747 0.000000 0.000000 0.000000
# 3 -0.002811 -0.000747 0.010639 0.000000 0.000000 0.000000
# 4 0.000000 0.000000 0.000000 0.042206 0.000000 0.000000
# 5 0.000000 0.000000 0.000000 0.000000 0.015780 0.000000
# 6 0.000000 0.000000 0.000000 0.000000 0.000000 -0.276506
#
#
# Mechanical properties :
#
#
# Convention : Reuss Voigt Hill
#
# Bulk Modulus (GPa) = 44.06806 78.47665 61.27236
# Shear Modulus (GPa) = -29.87758 39.59921 4.86082
#
# Velocity S-wave (km/s) = -3.45377 3.97616 1.39308
# Velocity P-wave (km/s) = 1.29974 7.23957 5.20099
#
# Compressibility (1/GPa) = 0.02269217
#
# Stress axis : x y z
#
# Youngs Moduli (GPa) = 228.38632 55.15305 93.99524
#
# Poissons Ratio (x) = 0.09214 0.26419
# Poissons Ratio (y) = 0.38155 0.07021
# Poissons Ratio (z) = 0.64193 0.04120
#
# Static dielectric constant tensor:
#      x y z
#    x 2.042330 0.000000 0.000000 
#    y 0.000000 2.162370 0.000000 
#    z 0.000000 0.000000 2.008470 
# 
# From -- ./inp_files/9224.got.cif
#   From: 2010.05.17/outbox.cif.g08.bks.cpg/sg74_5_cif.got.tgz:9224.got - 2010.06.03 17:57:02.
