data_PCOD9536832
_publ_section_title
;
Structure prediction by ZEFSAII (Michael W. Deem and Ramdas Pophale) SiO2 
 PCOD9536832
Probable space group: I M M A
;
_chemical_formula_sum "Si O2"
_cell_formula_units_Z 88
_cell_length_a 34.915143
_cell_length_b 16.456675
_cell_length_c 7.953735
_cell_angle_alpha 90.000000
_cell_angle_beta 90.000000
_cell_angle_gamma 90.000000
_cell_volume 4570.114012
_symmetry_space_group_name_H-M "I M M A"
_symmetry_group_IT_number 74
_symmetry_cell_setting 'orthorhombic'
loop_
_space_group_symop_operation_xyz
x,y,z
-x,1/2-y,z
x,-y,-z
-x,1/2+y,-z
-x,-y,-z
x,1/2+y,-z
-x,y,z
x,1/2-y,z
1/2+x,1/2+y,1/2+z
1/2-x,-y,1/2+z
1/2+x,1/2-y,1/2-z
1/2-x,y,1/2-z
1/2-x,1/2-y,1/2-z
1/2+x,y,1/2-z
1/2-x,1/2+y,1/2+z
1/2+x,-y,1/2+z
loop_
_atom_site_type_symbol
_atom_site_label
_atom_site_fract_x
_atom_site_fract_y
_atom_site_fract_z
Si Si1 0.831284 0.943160 0.335818
Si Si2 0.457544 0.250000 0.698510
Si Si3 0.953635 0.078921 0.320929
Si Si4 0.764341 0.340714 0.558287
Si Si5 0.457450 0.250000 0.303816
Si Si6 0.215238 0.500000 0.000000
Si Si7 0.580055 0.583212 0.196177
O O1 0.808114 0.866345 0.410016
O O2 0.809264 0.981458 0.171521
O O3 0.874524 0.922534 0.287133
O O4 0.832828 0.000000 0.500000
O O5 0.500000 0.250000 0.778905
O O6 0.461772 0.250000 0.500581
O O7 0.435584 0.168148 0.740471
O O8 0.940024 0.163894 0.243349
O O9 0.934651 0.080616 0.504076
O O10 0.000000 0.075057 0.330122
O O11 0.938882 0.998282 0.227542
O O12 0.759531 0.250000 0.482579
O O13 0.750000 0.336401 0.750000
O O14 0.741684 0.418397 0.478370
O O15 0.500000 0.250000 0.222940
#
# Coordination Sequence:
#
# PCOD9536832 Si02
#       7
#    16   8  16  16   8   8  16
#     4  11  22  40  62  93 129 161 208 260 317 374
#     4  11  23  39  59  89 122 166 214 257 317 384
#     4  10  19  37  61  84 111 157 210 254 303 373
#     4   9  19  38  67  92 122 163 208 250 306 375
#     4   9  21  37  57  85 117 149 203 267 310 367
#     4  10  22  40  68  90 127 166 203 258 314 376
#     4  11  22  37  60  86 123 159 204 258 318 363
#
# _framework density 19.255537
#
# number of rings (size 3 to 8) (size 9 to 14) (size 15 to 20)
#    0.000    1.818    2.727    2.727    1.273    2.909 
#    0.000    4.545    2.000    0.000    0.000    0.000 
#    0.000    0.000    0.000    0.000    0.000    0.000 
#
# Total GULP energy -244951.208344 kJ/mol
# GULP energy per Si atom -5567.072917 kJ/mol
# Density = 1.921171 g / cm^3
# Si number density = 19.255537 Si / 1000 Ang^3
#
#
#
# Elastic Constant Matrix: (Units=GPa)
#
#
# Indices 1 2 3 4 5 6 
#
# 1 136.6538 76.2714 23.0015 0.0000 0.0000 0.0000
# 2 76.2714 220.9614 45.2520 0.0000 0.0000 0.0000
# 3 23.0015 45.2520 63.4868 0.0000 0.0000 0.0000
# 4 0.0000 0.0000 0.0000 56.9501 0.0000 0.0000
# 5 0.0000 0.0000 0.0000 0.0000 26.9863 0.0000
# 6 0.0000 0.0000 0.0000 0.0000 0.0000 27.2235
#
#
#
# Elastic Compliance Matrix: (Units=1/GPa)
#
#
# Indices 1 2 3 4 5 6 
#
# 1 0.009147 -0.002902 -0.001245 0.000000 0.000000 0.000000
# 2 -0.002902 0.006220 -0.003382 0.000000 0.000000 0.000000
# 3 -0.001245 -0.003382 0.018613 0.000000 0.000000 0.000000
# 4 0.000000 0.000000 0.000000 0.017559 0.000000 0.000000
# 5 0.000000 0.000000 0.000000 0.000000 0.037056 0.000000
# 6 0.000000 0.000000 0.000000 0.000000 0.000000 0.036733
#
#
# Mechanical properties :
#
#
# Convention : Reuss Voigt Hill
#
# Bulk Modulus (GPa) = 52.85120 78.90577 65.87848
# Shear Modulus (GPa) = 34.08426 40.67045 37.37735
#
# Velocity S-wave (km/s) = 4.21182 4.60079 4.41060
# Velocity P-wave (km/s) = 7.15258 8.32408 7.76047
#
# Compressibility (1/GPa) = 0.01892105
#
# Stress axis : x y z
#
# Youngs Moduli (GPa) = 109.32155 160.76741 53.72549
#
# Poissons Ratio (x) = 0.46662 0.06691
# Poissons Ratio (y) = 0.31730 0.18170
# Poissons Ratio (z) = 0.13614 0.54372
#
# Static dielectric constant tensor:
#      x y z
#    x 1.701190 0.000000 0.000000 
#    y 0.000000 1.869730 0.000000 
#    z 0.000000 0.000000 1.758130 
# 
# From -- ./inp_files/16118.got.cif
#   From: 2010.05.17/outbox.cif.g08.bks.cpg/sg74_9_cif.got.tgz:16118.got - 2010.06.03 17:57:02.
