data_PCOD9536213
_publ_section_title
;
Structure prediction by ZEFSAII (Michael W. Deem and Ramdas Pophale) SiO2 
 PCOD9536213
Probable space group: I M M A
;
_chemical_formula_sum "Si O2"
_cell_formula_units_Z 88
_cell_length_a 19.728907
_cell_length_b 8.926043
_cell_length_c 27.726463
_cell_angle_alpha 90.000000
_cell_angle_beta 90.000000
_cell_angle_gamma 90.000000
_cell_volume 4882.659863
_symmetry_space_group_name_H-M "I M M A"
_symmetry_group_IT_number 74
_symmetry_cell_setting 'orthorhombic'
loop_
_space_group_symop_operation_xyz
x,y,z
-x,1/2-y,z
x,-y,-z
-x,1/2+y,-z
-x,-y,-z
x,1/2+y,-z
-x,y,z
x,1/2-y,z
1/2+x,1/2+y,1/2+z
1/2-x,-y,1/2+z
1/2+x,1/2-y,1/2-z
1/2-x,y,1/2-z
1/2-x,1/2-y,1/2-z
1/2+x,y,1/2-z
1/2-x,1/2+y,1/2+z
1/2+x,-y,1/2+z
loop_
_atom_site_type_symbol
_atom_site_label
_atom_site_fract_x
_atom_site_fract_y
_atom_site_fract_z
Si Si1 0.226672 0.070117 0.549450
Si Si2 0.183879 0.421273 0.194147
Si Si3 0.000000 0.071760 0.947326
Si Si4 0.577616 0.569609 0.233444
Si Si5 0.636574 0.922167 0.583598
Si Si6 0.817634 0.570445 0.343829
O O1 0.227909 0.250000 0.545838
O O2 0.189498 0.027339 0.599851
O O3 0.198511 0.000000 0.500000
O O4 0.302474 0.005455 0.556396
O O5 0.191252 0.250000 0.210455
O O6 0.129493 0.504615 0.227307
O O7 0.155553 0.419898 0.139722
O O8 0.257116 0.498509 0.187794
O O9 0.000000 0.250000 0.949347
O O10 0.067254 0.010397 0.922352
O O11 0.000000 0.000000 0.000000
O O12 0.500000 0.516635 0.238457
O O13 0.577185 0.750000 0.238033
O O14 0.611523 0.532895 0.181714
O O15 0.630287 0.750000 0.566374
O O16 0.808499 0.750000 0.341894
#
# Coordination Sequence:
#
# PCOD9536213 Si02
#       6
#    16  16   8  16  16  16
#     4  10  19  33  54  78 102 131 170 216 263 312
#     4  10  21  35  54  79 107 139 175 217 264 311
#     4  12  24  36  50  68  96 136 178 218 263 310
#     4  10  21  36  55  79 107 141 179 218 261 313
#     4  10  21  36  51  71 102 136 172 215 259 310
#     4   9  19  36  56  78 106 140 178 217 259 312
#
# _framework density 18.022963000000001
#
# number of rings (size 3 to 8) (size 9 to 14) (size 15 to 20)
#    0.000    2.000    0.000    3.545    1.273    6.182 
#    0.000    0.000    0.000    0.545    0.000    0.000 
#    0.000    0.000    0.000    0.000    0.000    0.545 
#
# Total GULP energy -245584.177319 kJ/mol
# GULP energy per Si atom -5581.458575 kJ/mol
# Density = 1.798194 g / cm^3
# Si number density = 18.022963 Si / 1000 Ang^3
#
#
#
# Elastic Constant Matrix: (Units=GPa)
#
#
# Indices 1 2 3 4 5 6 
#
# 1 81.6915 25.3587 46.6750 0.0000 0.0000 0.0000
# 2 25.3587 65.0017 31.2159 0.0000 0.0000 0.0000
# 3 46.6750 31.2159 98.3772 0.0000 0.0000 0.0000
# 4 0.0000 0.0000 0.0000 28.7483 0.0000 0.0000
# 5 0.0000 0.0000 0.0000 0.0000 10.0000 0.0000
# 6 0.0000 0.0000 0.0000 0.0000 0.0000 11.0219
#
#
#
# Elastic Compliance Matrix: (Units=1/GPa)
#
#
# Indices 1 2 3 4 5 6 
#
# 1 0.017383 -0.003328 -0.007191 0.000000 0.000000 0.000000
# 2 -0.003328 0.018787 -0.004382 0.000000 0.000000 0.000000
# 3 -0.007191 -0.004382 0.014967 0.000000 0.000000 0.000000
# 4 0.000000 0.000000 0.000000 0.034785 0.000000 0.000000
# 5 0.000000 0.000000 0.000000 0.000000 0.100000 0.000000
# 6 0.000000 0.000000 0.000000 0.000000 0.000000 0.090728
#
#
# Mechanical properties :
#
#
# Convention : Reuss Voigt Hill
#
# Bulk Modulus (GPa) = 46.87314 50.17439 48.52376
# Shear Modulus (GPa) = 15.94560 19.40874 17.67717
#
# Velocity S-wave (km/s) = 2.97768 3.28516 3.13519
# Velocity P-wave (km/s) = 6.15516 6.50302 6.33148
#
# Compressibility (1/GPa) = 0.02133418
#
# Stress axis : x y z
#
# Youngs Moduli (GPa) = 57.52706 53.22807 66.81160
#
# Poissons Ratio (x) = 0.17714 0.48047
# Poissons Ratio (y) = 0.19145 0.29279
# Poissons Ratio (z) = 0.41370 0.23326
#
# Static dielectric constant tensor:
#      x y z
#    x 1.571840 0.000000 0.000000 
#    y 0.000000 1.614590 0.000000 
#    z 0.000000 0.000000 1.595700 
# 
# From -- ./inp_files/70302.got.cif
#   From: 2010.05.17/outbox.cif.g08.bks.cpg/sg74_36_cif.got.tgz:70302.got - 2010.06.03 17:57:02.
