data_PCOD9536459
_publ_section_title
;
Structure prediction by ZEFSAII (Michael W. Deem and Ramdas Pophale) SiO2 
 PCOD9536459
Probable space group: I M M A
;
_chemical_formula_sum "Si O2"
_cell_formula_units_Z 80
_cell_length_a 23.823250
_cell_length_b 14.423796
_cell_length_c 11.153028
_cell_angle_alpha 90.000000
_cell_angle_beta 90.000000
_cell_angle_gamma 90.000000
_cell_volume 3832.422420
_symmetry_space_group_name_H-M "I M M A"
_symmetry_group_IT_number 74
_symmetry_cell_setting 'orthorhombic'
loop_
_space_group_symop_operation_xyz
x,y,z
-x,1/2-y,z
x,-y,-z
-x,1/2+y,-z
-x,-y,-z
x,1/2+y,-z
-x,y,z
x,1/2-y,z
1/2+x,1/2+y,1/2+z
1/2-x,-y,1/2+z
1/2+x,1/2-y,1/2-z
1/2-x,y,1/2-z
1/2-x,1/2-y,1/2-z
1/2+x,y,1/2-z
1/2-x,1/2+y,1/2+z
1/2+x,-y,1/2+z
loop_
_atom_site_type_symbol
_atom_site_label
_atom_site_fract_x
_atom_site_fract_y
_atom_site_fract_z
Si Si1 0.173478 0.854831 0.778725
Si Si2 0.724215 0.893339 0.476016
Si Si3 0.061822 0.362680 0.072568
Si Si4 0.837721 0.033799 0.624431
Si Si5 0.114924 0.354958 0.830513
O O1 0.170692 0.750000 0.726750
O O2 0.185104 0.941874 0.692583
O O3 0.215295 0.849729 0.892984
O O4 0.112963 0.879962 0.837623
O O5 0.677856 0.853494 0.386789
O O6 0.708366 0.000000 0.500000
O O7 0.785253 0.900500 0.415065
O O8 0.061160 0.250000 0.063176
O O9 0.077549 0.395371 0.938495
O O10 0.000000 0.393753 0.109594
O O11 0.863726 0.000000 0.500000
O O12 0.879710 0.085703 0.711668
O O13 0.097184 0.250000 0.804715
#
# Coordination Sequence:
#
# PCOD9536459 Si02
#       5
#    16  16  16  16  16
#     4  10  21  39  60  84 115 150 192 239 284 341
#     4  10  19  34  56  75 108 149 183 233 286 319
#     4   8  16  34  63  93 112 135 182 244 300 339
#     4  11  24  36  54  77 117 158 191 233 278 330
#     4  10  20  35  57  83 112 144 184 235 290 346
#
# _framework density 20.874525999999999
#
# number of rings (size 3 to 8) (size 9 to 14) (size 15 to 20)
#    0.000    2.200    2.000    2.400    2.800    3.200 
#    0.000   12.000    0.000    2.400    0.000    5.600 
#    0.000    0.000    0.000    0.000    0.000    0.000 
#
# Total GULP energy -223245.863300 kJ/mol
# GULP energy per Si atom -5581.146582 kJ/mol
# Density = 2.082701 g / cm^3
# Si number density = 20.874526 Si / 1000 Ang^3
#
#
#
# Elastic Constant Matrix: (Units=GPa)
#
#
# Indices 1 2 3 4 5 6 
#
# 1 95.7654 -0.1326 11.1971 0.0000 0.0000 0.0000
# 2 -0.1326 65.8791 17.0339 0.0000 0.0000 0.0000
# 3 11.1971 17.0339 88.9909 0.0000 0.0000 0.0000
# 4 0.0000 0.0000 0.0000 5.3597 0.0000 0.0000
# 5 0.0000 0.0000 0.0000 0.0000 17.7233 0.0000
# 6 0.0000 0.0000 0.0000 0.0000 0.0000 12.1172
#
#
#
# Elastic Compliance Matrix: (Units=1/GPa)
#
#
# Indices 1 2 3 4 5 6 
#
# 1 0.010607 0.000386 -0.001408 0.000000 0.000000 0.000000
# 2 0.000386 0.015984 -0.003108 0.000000 0.000000 0.000000
# 3 -0.001408 -0.003108 0.012009 0.000000 0.000000 0.000000
# 4 0.000000 0.000000 0.000000 0.186578 0.000000 0.000000
# 5 0.000000 0.000000 0.000000 0.000000 0.056423 0.000000
# 6 0.000000 0.000000 0.000000 0.000000 0.000000 0.082527
#
#
# Mechanical properties :
#
#
# Convention : Reuss Voigt Hill
#
# Bulk Modulus (GPa) = 32.96140 34.09248 33.52694
# Shear Modulus (GPa) = 13.07179 21.87585 17.47382
#
# Velocity S-wave (km/s) = 2.50513 3.24075 2.89639
# Velocity P-wave (km/s) = 4.91855 5.51097 5.22316
#
# Compressibility (1/GPa) = 0.03033851
#
# Stress axis : x y z
#
# Youngs Moduli (GPa) = 94.27385 62.56375 83.26937
#
# Poissons Ratio (x) = -0.02412 0.11728
# Poissons Ratio (y) = -0.03635 0.25880
# Poissons Ratio (z) = 0.13278 0.19445
#
# Static dielectric constant tensor:
#      x y z
#    x 1.762030 0.000000 0.000000 
#    y 0.000000 1.804260 0.000000 
#    z 0.000000 0.000000 1.768930 
# 
# From -- ./inp_files/24874.got.cif
#   From: 2010.05.17/outbox.cif.g08.bks.cpg/sg74_13_cif.got.tgz:24874.got - 2010.06.03 17:57:02.
