data_PCOD9536074
_publ_section_title
;
Structure prediction by ZEFSAII (Michael W. Deem and Ramdas Pophale) SiO2 
 PCOD9536074
Probable space group: I M M A
;
_chemical_formula_sum "Si O2"
_cell_formula_units_Z 116
_cell_length_a 7.586855
_cell_length_b 24.964127
_cell_length_c 29.820053
_cell_angle_alpha 90.000000
_cell_angle_beta 90.000000
_cell_angle_gamma 90.000000
_cell_volume 5647.894533
_symmetry_space_group_name_H-M "I M M A"
_symmetry_group_IT_number 74
_symmetry_cell_setting 'orthorhombic'
loop_
_space_group_symop_operation_xyz
x,y,z
-x,1/2-y,z
x,-y,-z
-x,1/2+y,-z
-x,-y,-z
x,1/2+y,-z
-x,y,z
x,1/2-y,z
1/2+x,1/2+y,1/2+z
1/2-x,-y,1/2+z
1/2+x,1/2-y,1/2-z
1/2-x,y,1/2-z
1/2-x,1/2-y,1/2-z
1/2+x,y,1/2-z
1/2-x,1/2+y,1/2+z
1/2+x,-y,1/2+z
loop_
_atom_site_type_symbol
_atom_site_label
_atom_site_fract_x
_atom_site_fract_y
_atom_site_fract_z
Si Si1 0.286666 0.439841 0.893531
Si Si2 0.798039 0.658084 0.959829
Si Si3 0.705442 0.670047 0.438811
Si Si4 0.795191 0.191652 0.362723
Si Si5 0.712603 0.965550 0.956407
Si Si6 0.788406 0.597500 0.699180
Si Si7 0.500000 0.250000 0.907390
Si Si8 0.211174 0.475478 0.699813
O O1 0.500000 0.435980 0.896176
O O2 0.214019 0.391558 0.923006
O O3 0.239206 0.497523 0.914347
O O4 0.227848 0.439841 0.841867
O O5 0.708323 0.681567 0.915924
O O6 0.788201 0.593676 0.956912
O O7 0.000000 0.675409 0.957414
O O8 0.733077 0.674389 0.009152
O O9 0.500000 0.686677 0.436076
O O10 0.843503 0.703769 0.410270
O O11 0.715781 0.250000 0.352858
O O12 0.718653 0.140671 0.336358
O O13 0.000000 0.193937 0.349094
O O14 0.500000 0.959308 0.956873
O O15 0.762572 0.000000 0.000000
O O16 0.750000 0.615309 0.750000
O O17 0.719876 0.536578 0.695058
O O18 0.000000 0.593688 0.693285
O O19 0.250000 0.456396 0.750000
O O20 0.000000 0.478072 0.695846
#
# Coordination Sequence:
#
# PCOD9536074 Si02
#       8
#    16  16  16  16  16  16   4  16
#     4  10  19  36  59  88 122 159 198 242 297 361
#     4  11  24  37  52  80 118 151 196 251 305 351
#     4  11  25  41  62  92 119 157 207 253 295 359
#     4  10  22  37  56  76 101 147 206 254 300 357
#     4  10  19  32  57  82 112 156 197 233 289 365
#     4   9  18  35  55  80 110 147 192 243 298 363
#     4  12  26  44  68  80 122 164 206 244 314 342
#     4   9  18  32  55  84 120 154 189 232 292 361
#
# _framework density 20.538626000000001
#
# number of rings (size 3 to 8) (size 9 to 14) (size 15 to 20)
#    0.000    1.931    2.069    1.448    2.897    4.690 
#    0.000    2.759    0.000    0.000    0.000    0.483 
#    0.000    0.000    0.000    0.000    0.000    0.000 
#
# Total GULP energy -323358.025636 kJ/mol
# GULP energy per Si atom -5575.138373 kJ/mol
# Density = 2.049188 g / cm^3
# Si number density = 20.538626 Si / 1000 Ang^3
#
#
#
# Elastic Constant Matrix: (Units=GPa)
#
#
# Indices 1 2 3 4 5 6 
#
# 1 65.2665 2.4174 -2.2743 0.0000 0.0000 0.0000
# 2 2.4174 36.4181 -4.2741 0.0000 0.0000 0.0000
# 3 -2.2743 -4.2741 86.5548 0.0000 0.0000 0.0000
# 4 0.0000 0.0000 0.0000 32.4151 0.0000 0.0000
# 5 0.0000 0.0000 0.0000 0.0000 16.2456 0.0000
# 6 0.0000 0.0000 0.0000 0.0000 0.0000 -111.5111
#
#
#
# Elastic Compliance Matrix: (Units=1/GPa)
#
#
# Indices 1 2 3 4 5 6 
#
# 1 0.015370 -0.000979 0.000356 0.000000 0.000000 0.000000
# 2 -0.000979 0.027681 0.001341 0.000000 0.000000 0.000000
# 3 0.000356 0.001341 0.011629 0.000000 0.000000 0.000000
# 4 0.000000 0.000000 0.000000 0.030850 0.000000 0.000000
# 5 0.000000 0.000000 0.000000 0.000000 0.061555 0.000000
# 6 0.000000 0.000000 0.000000 0.000000 0.000000 -0.008968
#
#
# Mechanical properties :
#
#
# Convention : Reuss Voigt Hill
#
# Bulk Modulus (GPa) = 17.81991 19.99748 18.90870
# Shear Modulus (GPa) = 32.17769 0.25462 16.21616
#
# Velocity S-wave (km/s) = 3.96244 0.35248 2.81293
# Velocity P-wave (km/s) = 5.44332 3.15013 4.44708
#
# Compressibility (1/GPa) = 0.05611701
#
# Stress axis : x y z
#
# Youngs Moduli (GPa) = 65.05997 36.12559 85.99232
#
# Poissons Ratio (x) = 0.03535 -0.03057
# Poissons Ratio (y) = 0.06366 -0.11533
# Poissons Ratio (z) = -0.02313 -0.04845
#
# Static dielectric constant tensor:
#      x y z
#    x 1.829350 0.000000 0.000000 
#    y 0.000000 1.736610 0.000000 
#    z 0.000000 0.000000 1.739570 
# 
# From -- ./inp_files/70866.got.cif
#   From: 2010.05.17/outbox.cif.g08.bks.cpg/sg74_36_cif.got.tgz:70866.got - 2010.06.03 17:57:02.
