data_PCOD9536660
_publ_section_title
;
Structure prediction by ZEFSAII (Michael W. Deem and Ramdas Pophale) SiO2 
 PCOD9536660
Probable space group: I M M A
;
_chemical_formula_sum "Si O2"
_cell_formula_units_Z 88
_cell_length_a 22.143037
_cell_length_b 19.361828
_cell_length_c 11.946606
_cell_angle_alpha 90.000000
_cell_angle_beta 90.000000
_cell_angle_gamma 90.000000
_cell_volume 5121.864493
_symmetry_space_group_name_H-M "I M M A"
_symmetry_group_IT_number 74
_symmetry_cell_setting 'orthorhombic'
loop_
_space_group_symop_operation_xyz
x,y,z
-x,1/2-y,z
x,-y,-z
-x,1/2+y,-z
-x,-y,-z
x,1/2+y,-z
-x,y,z
x,1/2-y,z
1/2+x,1/2+y,1/2+z
1/2-x,-y,1/2+z
1/2+x,1/2-y,1/2-z
1/2-x,y,1/2-z
1/2-x,1/2-y,1/2-z
1/2+x,y,1/2-z
1/2-x,1/2+y,1/2+z
1/2+x,-y,1/2+z
loop_
_atom_site_type_symbol
_atom_site_label
_atom_site_fract_x
_atom_site_fract_y
_atom_site_fract_z
Si Si1 0.000000 0.169927 0.765242
Si Si2 0.207852 0.572347 0.346098
Si Si3 0.500000 0.027311 0.628538
Si Si4 0.429888 0.169362 0.175712
Si Si5 0.396899 0.829892 0.079946
Si Si6 0.197923 0.000000 0.000000
Si Si7 0.375257 0.037044 0.287175
O O1 0.056585 0.159927 0.681767
O O2 0.000000 0.250000 0.804610
O O3 0.000000 0.110690 0.859024
O O4 0.250000 0.604534 0.250000
O O5 0.159723 0.622362 0.399667
O O6 0.256703 0.549751 0.436087
O O7 0.169344 0.508474 0.292056
O O8 0.500000 0.000000 0.500000
O O9 0.439873 0.999957 0.691460
O O10 0.500000 0.160710 0.209687
O O11 0.413276 0.250000 0.195975
O O12 0.389200 0.112265 0.236723
O O13 0.425631 0.157016 0.041846
O O14 0.379053 0.750000 0.081015
O O15 0.156987 0.962196 0.907943
#
# Coordination Sequence:
#
# PCOD9536660 Si02
#       7
#     8  16   8  16  16   8  16
#     4  10  20  37  61  91 121 154 190 237 301 355
#     4  10  21  36  56  80 108 148 201 242 284 336
#     4  12  22  37  61  89 121 149 192 244 294 346
#     4  10  20  34  55  87 120 148 178 233 301 354
#     4  10  19  35  58  86 119 147 186 243 299 346
#     4  10  22  39  56  77 114 160 198 240 288 338
#     4  11  21  37  59  84 114 153 195 242 293 351
#
# _framework density 17.181242999999998
#
# number of rings (size 3 to 8) (size 9 to 14) (size 15 to 20)
#    0.000    1.636    4.545    1.091    0.000    0.364 
#    0.000    3.636    0.000    8.182    0.000    0.000 
#    0.000    0.000    0.000    0.000    0.000    0.000 
#
# Total GULP energy -245292.018836 kJ/mol
# GULP energy per Si atom -5574.818610 kJ/mol
# Density = 1.714214 g / cm^3
# Si number density = 17.181243 Si / 1000 Ang^3
#
#
#
# Elastic Constant Matrix: (Units=GPa)
#
#
# Indices 1 2 3 4 5 6 
#
# 1 98.9775 44.6955 29.8116 0.0000 0.0000 0.0000
# 2 44.6955 97.4775 60.3935 0.0000 0.0000 0.0000
# 3 29.8116 60.3935 77.3667 0.0000 0.0000 0.0000
# 4 0.0000 0.0000 0.0000 7.7448 0.0000 0.0000
# 5 0.0000 0.0000 0.0000 0.0000 -8.0049 0.0000
# 6 0.0000 0.0000 0.0000 0.0000 0.0000 20.9671
#
#
#
# Elastic Compliance Matrix: (Units=1/GPa)
#
#
# Indices 1 2 3 4 5 6 
#
# 1 0.012760 -0.005431 -0.000677 0.000000 0.000000 0.000000
# 2 -0.005431 0.022179 -0.015221 0.000000 0.000000 0.000000
# 3 -0.000677 -0.015221 0.025068 0.000000 0.000000 0.000000
# 4 0.000000 0.000000 0.000000 0.129120 0.000000 0.000000
# 5 0.000000 0.000000 0.000000 0.000000 -0.124923 0.000000
# 6 0.000000 0.000000 0.000000 0.000000 0.000000 0.047694
#
#
# Mechanical properties :
#
#
# Convention : Reuss Voigt Hill
#
# Bulk Modulus (GPa) = 57.63991 60.40254 59.02123
# Shear Modulus (GPa) = 31.18417 13.40280 22.29349
#
# Velocity S-wave (km/s) = 4.26492 2.79603 3.60606
# Velocity P-wave (km/s) = 7.60748 6.75693 7.19478
#
# Compressibility (1/GPa) = 0.01734909
#
# Stress axis : x y z
#
# Youngs Moduli (GPa) = 78.37116 45.08731 39.89191
#
# Poissons Ratio (x) = 0.24488 0.02701
# Poissons Ratio (y) = 0.42564 0.60718
# Poissons Ratio (z) = 0.05306 0.68626
#
# Static dielectric constant tensor:
#      x y z
#    x 1.573800 0.000000 0.000000 
#    y 0.000000 1.569760 0.000000 
#    z 0.000000 0.000000 1.461840 
# 
# From -- ./inp_files/25030.got.cif
#   From: 2010.05.17/outbox.cif.g08.bks.cpg/sg74_13_cif.got.tgz:25030.got - 2010.06.03 17:57:02.
