data_PCOD9536839
_publ_section_title
;
Structure prediction by ZEFSAII (Michael W. Deem and Ramdas Pophale) SiO2 
 PCOD9536839
Probable space group: I M M A
;
_chemical_formula_sum "Si O2"
_cell_formula_units_Z 100
_cell_length_a 15.153393
_cell_length_b 16.033035
_cell_length_c 19.668290
_cell_angle_alpha 90.000000
_cell_angle_beta 90.000000
_cell_angle_gamma 90.000000
_cell_volume 4778.507043
_symmetry_space_group_name_H-M "I M M A"
_symmetry_group_IT_number 74
_symmetry_cell_setting 'orthorhombic'
loop_
_space_group_symop_operation_xyz
x,y,z
-x,1/2-y,z
x,-y,-z
-x,1/2+y,-z
-x,-y,-z
x,1/2+y,-z
-x,y,z
x,1/2-y,z
1/2+x,1/2+y,1/2+z
1/2-x,-y,1/2+z
1/2+x,1/2-y,1/2-z
1/2-x,y,1/2-z
1/2-x,1/2-y,1/2-z
1/2+x,y,1/2-z
1/2-x,1/2+y,1/2+z
1/2+x,-y,1/2+z
loop_
_atom_site_type_symbol
_atom_site_label
_atom_site_fract_x
_atom_site_fract_y
_atom_site_fract_z
Si Si1 0.644616 0.618383 0.255298
Si Si2 0.099171 0.079513 0.906364
Si Si3 0.647171 0.577350 0.767764
Si Si4 0.269386 0.344356 0.487397
Si Si5 0.400189 0.850862 0.914624
Si Si6 0.500000 0.250000 0.789745
Si Si7 0.595553 0.118148 0.376319
O O1 0.750000 0.635647 0.250000
O O2 0.617796 0.624277 0.334827
O O3 0.629072 0.521819 0.234522
O O4 0.578688 0.677782 0.214928
O O5 0.000000 0.100709 0.930196
O O6 0.101554 0.980794 0.892394
O O7 0.172814 0.103395 0.960331
O O8 0.750000 0.586547 0.750000
O O9 0.622182 0.613344 0.840503
O O10 0.600816 0.623493 0.704845
O O11 0.261224 0.250000 0.513856
O O12 0.173495 0.378822 0.468529
O O13 0.324460 0.342366 0.417074
O O14 0.500000 0.873082 0.933416
O O15 0.393760 0.750000 0.911322
O O16 0.500000 0.148614 0.399994
#
# Coordination Sequence:
#
# PCOD9536839 Si02
#       7
#    16  16  16  16  16   4  16
#     4  10  23  39  64  94 123 159 199 255 309 373
#     4  10  21  39  63  87 119 162 200 239 306 370
#     4  10  19  37  62  89 119 163 206 248 306 365
#     4  11  23  36  57  87 120 160 200 250 299 356
#     4  10  22  39  60  86 123 168 209 253 303 359
#     4  12  22  40  64  94 132 150 202 254 314 376
#     4  10  20  35  55  86 120 151 196 248 295 359
#
# _framework density 20.927036999999999
#
# number of rings (size 3 to 8) (size 9 to 14) (size 15 to 20)
#    0.000    1.760    2.400    1.680    3.360    3.520 
#    0.000    0.000    1.760    1.920    0.000    0.000 
#    0.000    0.000    0.000    0.000    0.000    0.000 
#
# Total GULP energy -278861.824937 kJ/mol
# GULP energy per Si atom -5577.236499 kJ/mol
# Density = 2.087941 g / cm^3
# Si number density = 20.927037 Si / 1000 Ang^3
#
#
#
# Elastic Constant Matrix: (Units=GPa)
#
#
# Indices 1 2 3 4 5 6 
#
# 1 155.0814 26.8161 32.8891 0.0000 0.0000 0.0000
# 2 26.8161 27.9013 9.7080 -0.0001 0.0000 0.0000
# 3 32.8891 9.7080 59.5473 0.0000 0.0000 0.0000
# 4 0.0000 -0.0001 0.0000 -23.9617 0.0000 0.0000
# 5 0.0000 0.0000 0.0000 0.0000 24.8956 0.0000
# 6 0.0000 0.0000 0.0000 0.0000 0.0000 20.4961
#
#
#
# Elastic Compliance Matrix: (Units=1/GPa)
#
#
# Indices 1 2 3 4 5 6 
#
# 1 0.008373 -0.006826 -0.003512 0.000000 0.000000 0.000000
# 2 -0.006826 0.043560 -0.003332 0.000000 0.000000 0.000000
# 3 -0.003512 -0.003332 0.019276 0.000000 0.000000 0.000000
# 4 0.000000 0.000000 0.000000 -0.041733 0.000000 0.000000
# 5 0.000000 0.000000 0.000000 0.000000 0.040168 0.000000
# 6 0.000000 0.000000 0.000000 0.000000 0.000000 0.048790
#
#
# Mechanical properties :
#
#
# Convention : Reuss Voigt Hill
#
# Bulk Modulus (GPa) = 22.79411 42.37295 32.58353
# Shear Modulus (GPa) = 31.17284 15.82711 23.49998
#
# Velocity S-wave (km/s) = 3.86372 2.75307 3.35468
# Velocity P-wave (km/s) = 5.55160 5.51342 5.53254
#
# Compressibility (1/GPa) = 0.04387097
#
# Stress axis : x y z
#
# Youngs Moduli (GPa) = 119.42729 22.95686 51.87733
#
# Poissons Ratio (x) = 0.15670 0.18219
# Poissons Ratio (y) = 0.81517 0.17284
# Poissons Ratio (z) = 0.41942 0.07648
#
# Static dielectric constant tensor:
#      x y z
#    x 1.784610 0.000000 0.000000 
#    y 0.000000 1.753770 0.000000 
#    z 0.000000 0.000000 1.738640 
# 
# From -- ./inp_files/52131.got.cif
#   From: 2010.05.17/outbox.cif.g08.bks.cpg/sg74_27_cif.got.tgz:52131.got - 2010.06.03 17:57:02.
