data_PCOD9536541
_publ_section_title
;
Structure prediction by ZEFSAII (Michael W. Deem and Ramdas Pophale) SiO2 
 PCOD9536541
Probable space group: I M M A
;
_chemical_formula_sum "Si O2"
_cell_formula_units_Z 96
_cell_length_a 24.121208
_cell_length_b 16.325683
_cell_length_c 12.855025
_cell_angle_alpha 90.000000
_cell_angle_beta 90.000000
_cell_angle_gamma 90.000000
_cell_volume 5062.247082
_symmetry_space_group_name_H-M "I M M A"
_symmetry_group_IT_number 74
_symmetry_cell_setting 'orthorhombic'
loop_
_space_group_symop_operation_xyz
x,y,z
-x,1/2-y,z
x,-y,-z
-x,1/2+y,-z
-x,-y,-z
x,1/2+y,-z
-x,y,z
x,1/2-y,z
1/2+x,1/2+y,1/2+z
1/2-x,-y,1/2+z
1/2+x,1/2-y,1/2-z
1/2-x,y,1/2-z
1/2-x,1/2-y,1/2-z
1/2+x,y,1/2-z
1/2-x,1/2+y,1/2+z
1/2+x,-y,1/2+z
loop_
_atom_site_type_symbol
_atom_site_label
_atom_site_fract_x
_atom_site_fract_y
_atom_site_fract_z
Si Si1 0.563780 0.389554 0.716071
Si Si2 0.064242 0.922422 0.854654
Si Si3 0.748361 0.349656 0.870257
Si Si4 0.861921 0.656607 0.030303
Si Si5 0.563458 0.151474 0.134294
Si Si6 0.875329 0.650328 0.427226
O O1 0.500000 0.361354 0.717370
O O2 0.564829 0.481881 0.672035
O O3 0.602302 0.341103 0.636123
O O4 0.589566 0.384017 0.830759
O O5 0.081089 0.877900 0.747807
O O6 0.000000 0.899580 0.880476
O O7 0.104763 0.896599 0.946781
O O8 0.751671 0.250000 0.868641
O O9 0.750000 0.376982 0.750000
O O10 0.801605 0.376640 0.936427
O O11 0.688934 0.372540 0.916160
O O12 0.856472 0.750000 0.990584
O O13 0.500000 0.122951 0.119503
O O14 0.563470 0.250000 0.133610
O O15 0.600024 0.123429 0.037529
O O16 0.878999 0.750000 0.420765
#
# Coordination Sequence:
#
# PCOD9536541 Si02
#       6
#    16  16  16  16  16  16
#     4  11  22  34  54  82 113 146 180 228 287 338
#     4  10  22  38  54  77 116 157 183 217 279 345
#     4   9  17  33  56  81 106 139 176 221 285 330
#     4  11  21  35  59  83 107 143 188 232 275 331
#     4   9  18  34  57  82 109 145 187 230 274 325
#     4  10  19  34  58  84 110 141 187 239 280 326
#
# _framework density 18.963911
#
# number of rings (size 3 to 8) (size 9 to 14) (size 15 to 20)
#    0.000    2.000    1.667    2.500    0.000    5.667 
#    0.000    3.333   11.000    4.000    0.000    0.000 
#    0.000    0.000    0.000    0.000    0.000    0.000 
#
# Total GULP energy -268004.673175 kJ/mol
# GULP energy per Si atom -5583.430691 kJ/mol
# Density = 1.892075 g / cm^3
# Si number density = 18.963911 Si / 1000 Ang^3
#
#
#
# Elastic Constant Matrix: (Units=GPa)
#
#
# Indices 1 2 3 4 5 6 
#
# 1 115.0448 8.8638 64.6508 0.0000 0.0000 0.0000
# 2 8.8638 17.7343 11.4533 0.0000 0.0000 0.0000
# 3 64.6508 11.4533 121.8915 0.0000 0.0000 0.0000
# 4 0.0000 0.0000 0.0000 45.4707 0.0000 0.0000
# 5 0.0000 0.0000 0.0000 0.0000 -2.6898 0.0000
# 6 0.0000 0.0000 0.0000 0.0000 0.0000 7.7602
#
#
#
# Elastic Compliance Matrix: (Units=1/GPa)
#
#
# Indices 1 2 3 4 5 6 
#
# 1 0.012455 -0.002085 -0.006410 0.000000 0.000000 0.000000
# 2 -0.002085 0.060380 -0.004567 0.000000 0.000000 0.000000
# 3 -0.006410 -0.004567 0.012033 0.000000 0.000000 0.000000
# 4 0.000000 0.000000 0.000000 0.021992 0.000000 0.000000
# 5 0.000000 0.000000 0.000000 0.000000 -0.371776 0.000000
# 6 0.000000 0.000000 0.000000 0.000000 0.000000 0.128862
#
#
# Mechanical properties :
#
#
# Convention : Reuss Voigt Hill
#
# Bulk Modulus (GPa) = 17.02354 47.17849 32.10102
# Shear Modulus (GPa) = -55.34242 21.42174 -16.96034
#
# Velocity S-wave (km/s) = -5.40799 3.36461 -2.99381
# Velocity P-wave (km/s) = 5.47712 6.32662 2.23912
#
# Compressibility (1/GPa) = 0.05874217
#
# Stress axis : x y z
#
# Youngs Moduli (GPa) = 80.28726 16.56182 83.10356
#
# Poissons Ratio (x) = 0.03454 0.53272
# Poissons Ratio (y) = 0.16743 0.37957
# Poissons Ratio (z) = 0.51466 0.07564
#
# Static dielectric constant tensor:
#      x y z
#    x 1.653620 0.000000 0.000000 
#    y 0.000000 1.678210 0.000000 
#    z 0.000000 0.000000 1.634020 
# 
# From -- ./inp_files/22412.got.cif
#   From: 2010.05.17/outbox.cif.g08.bks.cpg/sg74_12_cif.got.tgz:22412.got - 2010.06.03 17:57:02.
