data_PCOD9536251
_publ_section_title
;
Structure prediction by ZEFSAII (Michael W. Deem and Ramdas Pophale) SiO2 
 PCOD9536251
Probable space group: I M M A
;
_chemical_formula_sum "Si O2"
_cell_formula_units_Z 88
_cell_length_a 11.807784
_cell_length_b 15.885920
_cell_length_c 24.702737
_cell_angle_alpha 90.000000
_cell_angle_beta 90.000000
_cell_angle_gamma 90.000000
_cell_volume 4633.677946
_symmetry_space_group_name_H-M "I M M A"
_symmetry_group_IT_number 74
_symmetry_cell_setting 'orthorhombic'
loop_
_space_group_symop_operation_xyz
x,y,z
-x,1/2-y,z
x,-y,-z
-x,1/2+y,-z
-x,-y,-z
x,1/2+y,-z
-x,y,z
x,1/2-y,z
1/2+x,1/2+y,1/2+z
1/2-x,-y,1/2+z
1/2+x,1/2-y,1/2-z
1/2-x,y,1/2-z
1/2-x,1/2-y,1/2-z
1/2+x,y,1/2-z
1/2-x,1/2+y,1/2+z
1/2+x,-y,1/2+z
loop_
_atom_site_type_symbol
_atom_site_label
_atom_site_fract_x
_atom_site_fract_y
_atom_site_fract_z
Si Si1 0.638593 0.250000 0.880502
Si Si2 0.000000 0.498304 0.063759
Si Si3 0.633067 0.423866 0.035141
Si Si4 0.865099 0.250000 0.113052
Si Si5 0.260593 0.750000 0.000814
Si Si6 0.286037 0.432201 0.369607
Si Si7 0.733378 0.609235 0.313520
Si Si8 0.500000 0.841661 0.367236
O O1 0.500000 0.250000 0.891695
O O2 0.723128 0.250000 0.933383
O O3 0.674928 0.334170 0.846712
O O4 0.889311 0.456348 0.089921
O O5 0.000000 0.593021 0.084496
O O6 0.000000 0.500000 0.000000
O O7 0.500000 0.425171 0.030190
O O8 0.671575 0.434508 0.096219
O O9 0.682853 0.500000 0.000000
O O10 0.676853 0.335784 0.013936
O O11 0.813443 0.165929 0.141232
O O12 0.000000 0.250000 0.119053
O O13 0.836822 0.250000 0.047398
O O14 0.273792 0.508983 0.327494
O O15 0.750000 0.621027 0.250000
O O16 0.611394 0.644223 0.331752
O O17 0.500000 0.750000 0.391283
#
# Coordination Sequence:
#
# PCOD9536251 Si02
#       8
#     8   8  16   8   8  16  16   8
#     4  12  25  40  63  95 128 165 213 248 297 379
#     4  10  20  35  56  88 127 164 204 248 310 379
#     4  10  19  33  55  79 114 156 192 234 291 354
#     4  10  20  40  64  94 124 163 204 250 320 377
#     4  10  22  37  57  88 126 159 194 240 296 363
#     4  10  21  38  57  88 118 155 203 257 304 369
#     4  11  25  43  63  88 121 164 211 263 319 363
#     4  10  22  42  63  89 128 164 209 264 315 376
#
# _framework density 18.991392999999999
#
# number of rings (size 3 to 8) (size 9 to 14) (size 15 to 20)
#    0.000    1.636    1.818    2.727    1.273    6.545 
#    3.273    0.455    0.000    0.000    0.000    0.000 
#    0.000    0.000    0.000    0.000    0.000    0.000 
#
# Total GULP energy -245123.335584 kJ/mol
# GULP energy per Si atom -5570.984900 kJ/mol
# Density = 1.894817 g / cm^3
# Si number density = 18.991393 Si / 1000 Ang^3
#
#
#
# Elastic Constant Matrix: (Units=GPa)
#
#
# Indices 1 2 3 4 5 6 
#
# 1 3.8803 31.1922 1.7395 0.0000 0.0000 0.0000
# 2 31.1922 146.3171 8.5460 0.0000 0.0000 0.0000
# 3 1.7395 8.5460 61.2840 0.0000 0.0000 0.0000
# 4 0.0000 0.0000 0.0000 22.3918 0.0000 0.0000
# 5 0.0000 0.0000 0.0000 0.0000 -37.8059 0.0000
# 6 0.0000 0.0000 0.0000 0.0000 0.0000 11.2794
#
#
#
# Elastic Compliance Matrix: (Units=1/GPa)
#
#
# Indices 1 2 3 4 5 6 
#
# 1 -0.361081 0.077005 -0.000489 0.000000 0.000000 0.000000
# 2 0.077005 -0.009531 -0.000857 0.000000 0.000000 0.000000
# 3 -0.000489 -0.000857 0.016451 0.000000 0.000000 0.000000
# 4 0.000000 0.000000 0.000000 0.044659 0.000000 0.000000
# 5 0.000000 0.000000 0.000000 0.000000 -0.026451 0.000000
# 6 0.000000 0.000000 0.000000 0.000000 0.000000 0.088657
#
#
# Mechanical properties :
#
#
# Convention : Reuss Voigt Hill
#
# Bulk Modulus (GPa) = -4.92990 32.71521 13.89266
# Shear Modulus (GPa) = -10.72436 10.50663 -0.10886
#
# Velocity S-wave (km/s) = -2.37891 2.35464 -0.23968
# Velocity P-wave (km/s) = 3.18545 4.96550 2.69342
#
# Compressibility (1/GPa) = -0.20284383
#
# Stress axis : x y z
#
# Youngs Moduli (GPa) = -2.76946 -104.91558 60.78733
#
# Poissons Ratio (x) = 8.07897 0.02973
# Poissons Ratio (y) = 0.21326 0.05207
# Poissons Ratio (z) = -0.00135 -0.08987
#
# Static dielectric constant tensor:
#      x y z
#    x 1.679460 0.000000 0.000000 
#    y 0.000000 1.652600 0.000000 
#    z 0.000000 0.000000 1.661170 
# 
# From -- ./inp_files/58710.got.cif
#   From: 2010.05.17/outbox.cif.g08.bks.cpg/sg74_30_cif.got.tgz:58710.got - 2010.06.03 17:57:02.
