data_PCOD9536785
_publ_section_title
;
Structure prediction by ZEFSAII (Michael W. Deem and Ramdas Pophale) SiO2 
 PCOD9536785
Probable space group: I M M A
;
_chemical_formula_sum "Si O2"
_cell_formula_units_Z 80
_cell_length_a 10.452920
_cell_length_b 23.715991
_cell_length_c 17.164969
_cell_angle_alpha 90.000000
_cell_angle_beta 90.000000
_cell_angle_gamma 90.000000
_cell_volume 4255.219102
_symmetry_space_group_name_H-M "I M M A"
_symmetry_group_IT_number 74
_symmetry_cell_setting 'orthorhombic'
loop_
_space_group_symop_operation_xyz
x,y,z
-x,1/2-y,z
x,-y,-z
-x,1/2+y,-z
-x,-y,-z
x,1/2+y,-z
-x,y,z
x,1/2-y,z
1/2+x,1/2+y,1/2+z
1/2-x,-y,1/2+z
1/2+x,1/2-y,1/2-z
1/2-x,y,1/2-z
1/2-x,1/2-y,1/2-z
1/2+x,y,1/2-z
1/2-x,1/2+y,1/2+z
1/2+x,-y,1/2+z
loop_
_atom_site_type_symbol
_atom_site_label
_atom_site_fract_x
_atom_site_fract_y
_atom_site_fract_z
Si Si1 0.759053 0.184705 0.097615
Si Si2 0.000000 0.880523 0.633607
Si Si3 0.500000 0.989574 0.146285
Si Si4 0.755535 0.426627 0.843933
Si Si5 0.500000 0.000904 0.664057
Si Si6 0.000000 0.371244 0.179491
Si Si7 0.652890 0.313350 0.581403
O O1 0.734585 0.250000 0.118372
O O2 0.628805 0.149455 0.104308
O O3 0.872037 0.159846 0.150960
O O4 0.811172 0.182971 0.009444
O O5 0.000000 0.875086 0.727411
O O6 0.000000 0.946988 0.614422
O O7 0.373665 0.954943 0.125365
O O8 0.500000 0.995027 0.241191
O O9 0.750000 0.425074 0.750000
O O10 0.778422 0.363945 0.874474
O O11 0.874941 0.466571 0.865143
O O12 0.500000 0.934835 0.645695
O O13 0.500000 0.319842 0.589966
O O14 0.687460 0.250000 0.608504
#
# Coordination Sequence:
#
# PCOD9536785 Si02
#       7
#    16   8   8  16   8   8  16
#     4  11  23  39  58  84 118 154 193 238 290 339
#     4  11  23  39  59  84 118 155 191 238 290 338
#     4   9  20  36  55  84 120 149 180 237 294 331
#     4  10  19  36  62  88 114 148 191 232 278 341
#     4   9  18  34  57  84 114 151 190 231 286 339
#     4  11  21  37  61  86 114 151 199 242 278 336
#     4  10  21  40  62  83 115 154 189 233 288 340
#
# _framework density 18.800442
#
# number of rings (size 3 to 8) (size 9 to 14) (size 15 to 20)
#    0.000    1.800    2.000    2.400    0.000    6.800 
#    0.000    7.500    0.000    0.000    0.000    0.000 
#    0.000    0.000    0.000    0.000    0.000    0.000 
#
# Total GULP energy -223435.192305 kJ/mol
# GULP energy per Si atom -5585.879808 kJ/mol
# Density = 1.875765 g / cm^3
# Si number density = 18.800442 Si / 1000 Ang^3
#
#
#
# Elastic Constant Matrix: (Units=GPa)
#
#
# Indices 1 2 3 4 5 6 
#
# 1 152.5370 93.4894 9.4797 0.0000 0.0000 0.0000
# 2 93.4894 194.8704 24.4967 0.0000 0.0000 0.0000
# 3 9.4797 24.4967 11.9984 0.0000 0.0000 0.0000
# 4 0.0000 0.0000 0.0000 69.1073 0.0000 0.0000
# 5 0.0000 0.0000 0.0000 0.0000 7.3194 0.0000
# 6 0.0000 0.0000 0.0000 0.0000 0.0000 42.7683
#
#
#
# Elastic Compliance Matrix: (Units=1/GPa)
#
#
# Indices 1 2 3 4 5 6 
#
# 1 0.009337 -0.004778 0.002379 0.000000 0.000000 0.000000
# 2 -0.004778 0.009349 -0.015312 0.000000 0.000000 0.000000
# 3 0.002379 -0.015312 0.112726 0.000000 0.000000 0.000000
# 4 0.000000 0.000000 0.000000 0.014470 0.000000 0.000000
# 5 0.000000 0.000000 0.000000 0.000000 0.136623 0.000000
# 6 0.000000 0.000000 0.000000 0.000000 0.000000 0.023382
#
#
# Mechanical properties :
#
#
# Convention : Reuss Voigt Hill
#
# Bulk Modulus (GPa) = 10.41781 68.25972 39.33876
# Shear Modulus (GPa) = 13.39385 39.30166 26.34776
#
# Velocity S-wave (km/s) = 2.67202 4.57712 3.74765
# Velocity P-wave (km/s) = 3.88238 8.01996 6.30050
#
# Compressibility (1/GPa) = 0.09598945
#
# Stress axis : x y z
#
# Youngs Moduli (GPa) = 107.10615 106.96514 8.87104
#
# Poissons Ratio (x) = 0.51111 -0.02110
# Poissons Ratio (y) = 0.51178 0.13583
# Poissons Ratio (z) = -0.25481 1.63784
#
# Static dielectric constant tensor:
#      x y z
#    x 1.627270 0.000000 0.000000 
#    y 0.000000 1.638210 0.000000 
#    z 0.000000 0.000000 1.637860 
# 
# From -- ./inp_files/48649.got.cif
#   From: 2010.05.17/outbox.cif.g08.bks.cpg/sg74_25_cif.got.tgz:48649.got - 2010.06.03 17:57:02.
