data_PCOD9536570
_publ_section_title
;
Structure prediction by ZEFSAII (Michael W. Deem and Ramdas Pophale) SiO2 
 PCOD9536570
Probable space group: I M M A
;
_chemical_formula_sum "Si O2"
_cell_formula_units_Z 92
_cell_length_a 26.898534
_cell_length_b 21.335223
_cell_length_c 8.518705
_cell_angle_alpha 90.000000
_cell_angle_beta 90.000000
_cell_angle_gamma 90.000000
_cell_volume 4888.767423
_symmetry_space_group_name_H-M "I M M A"
_symmetry_group_IT_number 74
_symmetry_cell_setting 'orthorhombic'
loop_
_space_group_symop_operation_xyz
x,y,z
-x,1/2-y,z
x,-y,-z
-x,1/2+y,-z
-x,-y,-z
x,1/2+y,-z
-x,y,z
x,1/2-y,z
1/2+x,1/2+y,1/2+z
1/2-x,-y,1/2+z
1/2+x,1/2-y,1/2-z
1/2-x,y,1/2-z
1/2-x,1/2-y,1/2-z
1/2+x,y,1/2-z
1/2-x,1/2+y,1/2+z
1/2+x,-y,1/2+z
loop_
_atom_site_type_symbol
_atom_site_label
_atom_site_fract_x
_atom_site_fract_y
_atom_site_fract_z
Si Si1 0.500000 0.750000 0.293908
Si Si2 0.094156 0.570071 0.571567
Si Si3 0.196899 0.428567 0.560559
Si Si4 0.943617 0.250000 0.108032
Si Si5 0.000000 0.122001 0.596238
Si Si6 0.595043 0.383029 0.406674
Si Si7 0.500000 0.566767 0.418222
Si Si8 0.306729 0.428605 0.563502
O O1 0.454038 0.750000 0.418394
O O2 0.500000 0.688015 0.187584
O O3 0.090443 0.500000 0.500000
O O4 0.147472 0.598078 0.519083
O O5 0.048821 0.610791 0.506513
O O6 0.092510 0.570006 0.759379
O O7 0.199152 0.500000 0.500000
O O8 0.251717 0.402530 0.522457
O O9 0.190070 0.429304 0.747895
O O10 0.914975 0.312759 0.151453
O O11 0.000000 0.250000 0.175155
O O12 0.000000 0.068524 0.731396
O O13 0.549439 0.398567 0.521947
O O14 0.647503 0.391271 0.491076
O O15 0.500000 0.500000 0.500000
O O16 0.310225 0.500000 0.500000
#
# Coordination Sequence:
#
# PCOD9536570 Si02
#       8
#     4  16  16   8   8  16   8  16
#     4  10  22  42  60  82 106 160 208 248 270 346
#     4  11  23  37  56  92 128 151 185 246 303 351
#     4   9  19  34  54  87 127 151 189 238 290 362
#     4  10  22  43  60  78 112 156 213 237 277 345
#     4  12  22  37  59  83 117 151 196 245 289 337
#     4  12  22  38  61  81 118 161 198 241 284 358
#     4  12  21  34  56  85 112 147 187 235 300 359
#     4  10  19  34  60  88 115 160 194 232 299 354
#
# _framework density 18.818649000000001
#
# number of rings (size 3 to 8) (size 9 to 14) (size 15 to 20)
#    0.261    1.043    2.609    5.478    0.000    2.783 
#    0.000    0.000    0.000    5.217    0.000    0.000 
#    0.000    0.000    0.000    0.000    0.000    0.000 
#
# Total GULP energy -256797.196526 kJ/mol
# GULP energy per Si atom -5582.547751 kJ/mol
# Density = 1.877582 g / cm^3
# Si number density = 18.818649 Si / 1000 Ang^3
#
#
#
# Elastic Constant Matrix: (Units=GPa)
#
#
# Indices 1 2 3 4 5 6 
#
# 1 173.5091 19.7896 44.3266 0.0000 0.0000 0.0000
# 2 19.7896 60.4892 -7.7769 0.0000 0.0000 0.0000
# 3 44.3266 -7.7769 73.7673 0.0000 0.0000 0.0000
# 4 0.0000 0.0000 0.0000 21.9607 0.0000 0.0000
# 5 0.0000 0.0000 0.0000 0.0000 29.0355 0.0000
# 6 0.0000 0.0000 0.0000 0.0000 0.0000 117.0796
#
#
#
# Elastic Compliance Matrix: (Units=1/GPa)
#
#
# Indices 1 2 3 4 5 6 
#
# 1 0.007308 -0.002996 -0.004707 0.000000 0.000000 0.000000
# 2 -0.002996 0.017987 0.003697 0.000000 0.000000 0.000000
# 3 -0.004707 0.003697 0.016774 0.000000 0.000000 0.000000
# 4 0.000000 0.000000 0.000000 0.045536 0.000000 0.000000
# 5 0.000000 0.000000 0.000000 0.000000 0.034441 0.000000
# 6 0.000000 0.000000 0.000000 0.000000 0.000000 0.008541
#
#
# Mechanical properties :
#
#
# Convention : Reuss Voigt Hill
#
# Bulk Modulus (GPa) = 29.36303 46.71602 38.03952
# Shear Modulus (GPa) = 33.34409 50.37691 41.86050
#
# Velocity S-wave (km/s) = 4.21392 5.17955 4.72149
# Velocity P-wave (km/s) = 6.27002 7.78772 7.06972
#
# Compressibility (1/GPa) = 0.03405644
#
# Stress axis : x y z
#
# Youngs Moduli (GPa) = 136.84435 55.59495 59.61520
#
# Poissons Ratio (x) = 0.16656 0.28061
# Poissons Ratio (y) = 0.40997 -0.22037
# Poissons Ratio (z) = 0.64412 -0.20551
#
# Static dielectric constant tensor:
#      x y z
#    x 1.678600 0.000000 0.000000 
#    y 0.000000 1.667710 0.000000 
#    z 0.000000 0.000000 1.657470 
# 
# From -- ./inp_files/15193.got.cif
#   From: 2010.05.17/outbox.cif.g08.bks.cpg/sg74_8_cif.got.tgz:15193.got - 2010.06.03 17:57:02.
