data_PCOD9536871
_publ_section_title
;
Structure prediction by ZEFSAII (Michael W. Deem and Ramdas Pophale) SiO2 
 PCOD9536871
Probable space group: I M M A
;
_chemical_formula_sum "Si O2"
_cell_formula_units_Z 96
_cell_length_a 8.730849
_cell_length_b 29.982006
_cell_length_c 19.709180
_cell_angle_alpha 90.000000
_cell_angle_beta 90.000000
_cell_angle_gamma 90.000000
_cell_volume 5159.239866
_symmetry_space_group_name_H-M "I M M A"
_symmetry_group_IT_number 74
_symmetry_cell_setting 'orthorhombic'
loop_
_space_group_symop_operation_xyz
x,y,z
-x,1/2-y,z
x,-y,-z
-x,1/2+y,-z
-x,-y,-z
x,1/2+y,-z
-x,y,z
x,1/2-y,z
1/2+x,1/2+y,1/2+z
1/2-x,-y,1/2+z
1/2+x,1/2-y,1/2-z
1/2-x,y,1/2-z
1/2-x,1/2-y,1/2-z
1/2+x,y,1/2-z
1/2-x,1/2+y,1/2+z
1/2+x,-y,1/2+z
loop_
_atom_site_type_symbol
_atom_site_label
_atom_site_fract_x
_atom_site_fract_y
_atom_site_fract_z
Si Si1 0.318373 0.632840 0.083477
Si Si2 0.314720 0.300877 0.174533
Si Si3 0.817791 0.946032 0.174467
Si Si4 0.313697 0.621960 0.928764
Si Si5 0.685240 0.980985 0.924891
Si Si6 0.675203 0.303372 0.679889
O O1 0.500000 0.624681 0.084753
O O2 0.238729 0.595580 0.129499
O O3 0.275350 0.679138 0.118240
O O4 0.266018 0.631875 0.005861
O O5 0.500000 0.302411 0.177285
O O6 0.272217 0.250000 0.153381
O O7 0.250000 0.308018 0.250000
O O8 0.261697 0.339922 0.123586
O O9 0.750000 0.944076 0.250000
O O10 0.000000 0.946245 0.178575
O O11 0.758095 0.988938 0.133308
O O12 0.500000 0.622917 0.927374
O O13 0.269215 0.570675 0.915413
O O14 0.500000 0.983940 0.920820
O O15 0.727125 0.000000 0.000000
O O16 0.500000 0.319107 0.674657
O O17 0.673985 0.250000 0.681401
O O18 0.750000 0.319597 0.750000
#
# Coordination Sequence:
#
# PCOD9536871 Si02
#       6
#    16  16  16  16  16  16
#     4  11  21  37  59  84 113 149 190 235 290 346
#     4   9  18  35  58  84 115 150 189 234 284 343
#     4  12  25  40  59  85 116 152 196 240 289 347
#     4   9  19  35  59  86 113 149 190 231 286 349
#     4  10  19  38  62  83 114 153 191 239 298 352
#     4  10  21  37  55  78 110 148 189 236 287 338
#
# _framework density 18.607392000000001
#
# number of rings (size 3 to 8) (size 9 to 14) (size 15 to 20)
#    0.000    1.833    1.667    3.000    0.000    2.667 
#    0.000    5.833    0.000    2.000    0.000    0.000 
#    0.000    0.000    0.000    0.000    0.000    0.000 
#
# Total GULP energy -267978.308430 kJ/mol
# GULP energy per Si atom -5582.881426 kJ/mol
# Density = 1.856504 g / cm^3
# Si number density = 18.607392 Si / 1000 Ang^3
#
#
#
# Elastic Constant Matrix: (Units=GPa)
#
#
# Indices 1 2 3 4 5 6 
#
# 1 50.8979 34.8533 41.7780 0.0000 0.0000 0.0000
# 2 34.8533 115.9361 82.8521 0.0000 0.0000 0.0000
# 3 41.7780 82.8521 144.7595 0.0000 0.0000 0.0000
# 4 0.0000 0.0000 0.0000 13.3438 0.0000 0.0000
# 5 0.0000 0.0000 0.0000 0.0000 26.9711 0.0000
# 6 0.0000 0.0000 0.0000 0.0000 0.0000 21.2759
#
#
#
# Elastic Compliance Matrix: (Units=1/GPa)
#
#
# Indices 1 2 3 4 5 6 
#
# 1 0.026959 -0.004305 -0.005316 0.000000 0.000000 0.000000
# 2 -0.004305 0.015283 -0.007504 0.000000 0.000000 0.000000
# 3 -0.005316 -0.007504 0.012737 0.000000 0.000000 0.000000
# 4 0.000000 0.000000 0.000000 0.074941 0.000000 0.000000
# 5 0.000000 0.000000 0.000000 0.000000 0.037077 0.000000
# 6 0.000000 0.000000 0.000000 0.000000 0.000000 0.047002
#
#
# Mechanical properties :
#
#
# Convention : Reuss Voigt Hill
#
# Bulk Modulus (GPa) = 48.24622 70.06226 59.15424
# Shear Modulus (GPa) = 19.59557 22.45883 21.02720
#
# Velocity S-wave (km/s) = 3.24868 3.47794 3.36526
# Velocity P-wave (km/s) = 6.32904 7.33912 6.85272
#
# Compressibility (1/GPa) = 0.02072701
#
# Stress axis : x y z
#
# Youngs Moduli (GPa) = 37.09326 65.43382 78.50894
#
# Poissons Ratio (x) = 0.28171 0.41738
# Poissons Ratio (y) = 0.15970 0.58916
# Poissons Ratio (z) = 0.19720 0.49104
#
# Static dielectric constant tensor:
#      x y z
#    x 1.633280 0.000000 0.000000 
#    y 0.000000 1.673680 0.000000 
#    z 0.000000 0.000000 1.616440 
# 
# From -- ./inp_files/49166.got.cif
#   From: 2010.05.17/outbox.cif.g08.bks.cpg/sg74_25_cif.got.tgz:49166.got - 2010.06.03 17:57:02.
