data_PCOD9536423
_publ_section_title
;
Structure prediction by ZEFSAII (Michael W. Deem and Ramdas Pophale) SiO2 
 PCOD9536423
Probable space group: I M M A
;
_chemical_formula_sum "Si O2"
_cell_formula_units_Z 64
_cell_length_a 22.367891
_cell_length_b 15.405288
_cell_length_c 8.788157
_cell_angle_alpha 90.000000
_cell_angle_beta 90.000000
_cell_angle_gamma 90.000000
_cell_volume 3028.256559
_symmetry_space_group_name_H-M "I M M A"
_symmetry_group_IT_number 74
_symmetry_cell_setting 'orthorhombic'
loop_
_space_group_symop_operation_xyz
x,y,z
-x,1/2-y,z
x,-y,-z
-x,1/2+y,-z
-x,-y,-z
x,1/2+y,-z
-x,y,z
x,1/2-y,z
1/2+x,1/2+y,1/2+z
1/2-x,-y,1/2+z
1/2+x,1/2-y,1/2-z
1/2-x,y,1/2-z
1/2-x,1/2-y,1/2-z
1/2+x,y,1/2-z
1/2-x,1/2+y,1/2+z
1/2+x,-y,1/2+z
loop_
_atom_site_type_symbol
_atom_site_label
_atom_site_fract_x
_atom_site_fract_y
_atom_site_fract_z
Si Si1 0.881230 0.644520 0.908587
Si Si2 0.500000 0.598261 0.066875
Si Si3 0.752786 0.853555 0.924787
Si Si4 0.877439 0.901730 0.554671
Si Si5 0.500000 0.144101 0.589263
O O1 0.882262 0.750000 0.897982
O O2 0.817749 0.617636 0.985132
O O3 0.881652 0.609866 0.736308
O O4 0.940204 0.618821 0.998828
O O5 0.500000 0.599706 0.247595
O O6 0.500000 0.500000 0.000000
O O7 0.437797 0.640734 0.011783
O O8 0.756078 0.750000 0.917277
O O9 0.750000 0.886644 0.750000
O O10 0.688569 0.871804 0.997444
O O11 0.879423 0.000000 0.500000
O O12 0.500000 0.250000 0.607155
#
# Coordination Sequence:
#
# PCOD9536423 Si02
#       5
#    16   8  16  16   8
#     4   9  18  36  61  85 110 142 183 234 283 322
#     4  10  23  40  52  77 117 149 180 224 285 336
#     4   8  15  31  56  82 108 140 180 229 279 323
#     4  10  19  34  54  82 115 149 187 220 270 337
#     4  10  21  38  62  87 107 139 192 238 270 322
#
# _framework density 21.134271999999999
#
# number of rings (size 3 to 8) (size 9 to 14) (size 15 to 20)
#    0.000    2.750    0.000    3.000    0.000    2.000 
#    0.000   26.250    0.000    4.500    0.000    0.000 
#    0.000    0.000    0.000    0.000    0.000    0.750 
#
# Total GULP energy -178238.755463 kJ/mol
# GULP energy per Si atom -5569.961108 kJ/mol
# Density = 2.108617 g / cm^3
# Si number density = 21.134272 Si / 1000 Ang^3
#
#
#
# Elastic Constant Matrix: (Units=GPa)
#
#
# Indices 1 2 3 4 5 6 
#
# 1 293.3730 26.1160 77.6195 0.0000 0.0000 0.0000
# 2 26.1160 26.9767 16.5388 0.0000 0.0000 0.0000
# 3 77.6195 16.5388 81.1287 0.0000 0.0000 0.0000
# 4 0.0000 0.0000 0.0000 30.0312 0.0000 0.0000
# 5 0.0000 0.0000 0.0000 0.0000 -12.1806 0.0000
# 6 0.0000 0.0000 0.0000 0.0000 0.0000 19.8610
#
#
#
# Elastic Compliance Matrix: (Units=1/GPa)
#
#
# Indices 1 2 3 4 5 6 
#
# 1 0.004659 -0.002032 -0.004044 0.000000 0.000000 0.000000
# 2 -0.002032 0.043250 -0.006873 0.000000 0.000000 0.000000
# 3 -0.004044 -0.006873 0.017596 0.000000 0.000000 0.000000
# 4 0.000000 0.000000 0.000000 0.033299 0.000000 0.000000
# 5 0.000000 0.000000 0.000000 0.000000 -0.082098 0.000000
# 6 0.000000 0.000000 0.000000 0.000000 0.000000 0.050350
#
#
# Mechanical properties :
#
#
# Convention : Reuss Voigt Hill
#
# Bulk Modulus (GPa) = 25.24727 71.33631 48.29179
# Shear Modulus (GPa) = 47.10106 26.28926 36.69516
#
# Velocity S-wave (km/s) = 4.72599 3.53075 4.17140
# Velocity P-wave (km/s) = 6.46158 7.10272 6.78972
#
# Compressibility (1/GPa) = 0.03960824
#
# Stress axis : x y z
#
# Youngs Moduli (GPa) = 214.62304 23.12164 56.83127
#
# Poissons Ratio (x) = 0.04697 0.22980
# Poissons Ratio (y) = 0.43603 0.39060
# Poissons Ratio (z) = 0.86786 0.15892
#
# Static dielectric constant tensor:
#      x y z
#    x 1.894710 0.000000 0.000000 
#    y 0.000000 4.040370 0.000000 
#    z 0.000000 0.000000 1.711830 
# 
# From -- ./inp_files/13431.got.cif
#   From: 2010.05.17/outbox.cif.g08.bks.cpg/sg74_7_cif.got.tgz:13431.got - 2010.06.03 17:57:02.
