data_PCOD9536684
_publ_section_title
;
Structure prediction by ZEFSAII (Michael W. Deem and Ramdas Pophale) SiO2 
 PCOD9536684
Probable space group: I M M A
;
_chemical_formula_sum "Si O2"
_cell_formula_units_Z 80
_cell_length_a 16.701674
_cell_length_b 26.269464
_cell_length_c 7.632355
_cell_angle_alpha 90.000000
_cell_angle_beta 90.000000
_cell_angle_gamma 90.000000
_cell_volume 3348.650144
_symmetry_space_group_name_H-M "I M M A"
_symmetry_group_IT_number 74
_symmetry_cell_setting 'orthorhombic'
loop_
_space_group_symop_operation_xyz
x,y,z
-x,1/2-y,z
x,-y,-z
-x,1/2+y,-z
-x,-y,-z
x,1/2+y,-z
-x,y,z
x,1/2-y,z
1/2+x,1/2+y,1/2+z
1/2-x,-y,1/2+z
1/2+x,1/2-y,1/2-z
1/2-x,y,1/2-z
1/2-x,1/2-y,1/2-z
1/2+x,y,1/2-z
1/2-x,1/2+y,1/2+z
1/2+x,-y,1/2+z
loop_
_atom_site_type_symbol
_atom_site_label
_atom_site_fract_x
_atom_site_fract_y
_atom_site_fract_z
Si Si1 0.910989 0.584425 0.746983
Si Si2 0.089286 0.570267 0.325470
Si Si3 0.816437 0.657192 0.368646
Si Si4 0.215483 0.946014 0.031495
Si Si5 0.154468 0.805363 0.724140
O O1 0.907261 0.568773 0.539868
O O2 0.896460 0.645156 0.771596
O O3 0.000000 0.570953 0.807876
O O4 0.841268 0.561877 0.864657
O O5 0.107862 0.629700 0.281754
O O6 0.157287 0.546554 0.200799
O O7 0.000000 0.554012 0.277390
O O8 0.750000 0.682710 0.250000
O O9 0.765722 0.606788 0.443481
O O10 0.849460 0.693354 0.514916
O O11 0.258571 0.000000 0.000000
O O12 0.132667 0.750000 0.797208
O O13 0.250000 0.813709 0.750000
#
# Coordination Sequence:
#
# PCOD9536684 Si02
#       5
#    16  16  16  16  16
#     4  10  21  38  60  84 117 154 187 242 297 339
#     4   9  20  38  56  81 113 148 193 239 287 342
#     4   9  19  38  56  84 114 150 194 243 290 339
#     4  11  22  38  59  82 115 157 202 241 286 344
#     4  10  19  35  60  85 113 149 191 237 288 350
#
# _framework density 23.890225000000001
#
# number of rings (size 3 to 8) (size 9 to 14) (size 15 to 20)
#    0.000    2.200    2.000    0.600    0.000    3.200 
#   21.600    2.000    0.000    0.000    0.000    2.800 
#    0.000    0.000    0.000    0.000    0.000    0.000 
#
# Total GULP energy -222805.364538 kJ/mol
# GULP energy per Si atom -5570.134113 kJ/mol
# Density = 2.383585 g / cm^3
# Si number density = 23.890225 Si / 1000 Ang^3
#
#
#
# Elastic Constant Matrix: (Units=GPa)
#
#
# Indices 1 2 3 4 5 6 
#
# 1 90.1170 17.2213 1.0180 0.0000 0.0000 0.0000
# 2 17.2213 117.5922 9.9009 0.0001 0.0000 0.0000
# 3 1.0180 9.9009 46.3027 0.0002 -0.0002 -0.0001
# 4 0.0000 0.0001 0.0002 -4.0149 0.0000 0.0000
# 5 0.0000 0.0000 -0.0002 0.0000 33.9437 0.0000
# 6 0.0000 0.0000 -0.0001 0.0000 0.0000 6.3768
#
#
#
# Elastic Compliance Matrix: (Units=1/GPa)
#
#
# Indices 1 2 3 4 5 6 
#
# 1 0.011417 -0.001681 0.000108 0.000000 0.000000 0.000000
# 2 -0.001681 0.008907 -0.001868 0.000000 0.000000 0.000000
# 3 0.000108 -0.001868 0.021994 0.000001 0.000000 0.000000
# 4 0.000000 0.000000 0.000001 -0.249072 0.000000 -0.000001
# 5 0.000000 0.000000 0.000000 0.000000 0.029461 0.000000
# 6 0.000000 0.000000 0.000000 -0.000001 0.000000 0.156817
#
#
# Mechanical properties :
#
#
# Convention : Reuss Voigt Hill
#
# Bulk Modulus (GPa) = 28.21874 34.47691 31.34783
# Shear Modulus (GPa) = -2805.14077 22.31925 -1391.41076
#
# Velocity S-wave (km/s) = -34.30347 3.05985 -24.15953
# Velocity P-wave (km/s) = 39.46053 5.19098 27.66033
#
# Compressibility (1/GPa) = 0.03543744
#
# Stress axis : x y z
#
# Youngs Moduli (GPa) = 87.59082 112.26597 45.46695
#
# Poissons Ratio (x) = 0.18873 -0.00493
# Poissons Ratio (y) = 0.14725 0.08492
# Poissons Ratio (z) = -0.00950 0.20968
#
# Static dielectric constant tensor:
#      x y z
#    x 1.977830 0.000000 0.000000 
#    y 0.000000 1.954570 0.000000 
#    z 0.000000 0.000000 2.084710 
# 
# From -- ./inp_files/11157.got.cif
#   From: 2010.05.17/outbox.cif.g08.bks.cpg/sg74_6_cif.got.tgz:11157.got - 2010.06.03 17:57:02.
