data_PCOD9536166
_publ_section_title
;
Structure prediction by ZEFSAII (Michael W. Deem and Ramdas Pophale) SiO2 
 PCOD9536166
Probable space group: I M M A
;
_chemical_formula_sum "Si O2"
_cell_formula_units_Z 104
_cell_length_a 28.068436
_cell_length_b 9.174408
_cell_length_c 23.788877
_cell_angle_alpha 90.000000
_cell_angle_beta 90.000000
_cell_angle_gamma 90.000000
_cell_volume 6125.904256
_symmetry_space_group_name_H-M "I M M A"
_symmetry_group_IT_number 74
_symmetry_cell_setting 'orthorhombic'
loop_
_space_group_symop_operation_xyz
x,y,z
-x,1/2-y,z
x,-y,-z
-x,1/2+y,-z
-x,-y,-z
x,1/2+y,-z
-x,y,z
x,1/2-y,z
1/2+x,1/2+y,1/2+z
1/2-x,-y,1/2+z
1/2+x,1/2-y,1/2-z
1/2-x,y,1/2-z
1/2-x,1/2-y,1/2-z
1/2+x,y,1/2-z
1/2-x,1/2+y,1/2+z
1/2+x,-y,1/2+z
loop_
_atom_site_type_symbol
_atom_site_label
_atom_site_fract_x
_atom_site_fract_y
_atom_site_fract_z
Si Si1 0.605315 0.574042 0.061642
Si Si2 0.181084 0.579012 0.642150
Si Si3 0.359603 0.919628 0.731328
Si Si4 0.944532 0.425887 0.819800
Si Si5 0.941997 0.582987 0.055096
Si Si6 0.270820 0.918026 0.313863
Si Si7 0.000000 0.423820 0.560522
O O1 0.610157 0.750000 0.057580
O O2 0.646318 0.505422 0.099953
O O3 0.551898 0.540875 0.086149
O O4 0.607564 0.500000 0.000000
O O5 0.185333 0.750000 0.627350
O O6 0.158302 0.570418 0.704552
O O7 0.232546 0.502666 0.648191
O O8 0.362823 0.750000 0.716506
O O9 0.409665 0.999061 0.723608
O O10 0.320836 0.999915 0.692202
O O11 0.940438 0.250000 0.817908
O O12 0.929840 0.474693 0.882996
O O13 0.000000 0.461672 0.811083
O O14 0.926479 0.750000 0.051823
O O15 0.000000 0.582503 0.053970
O O16 0.924974 0.500000 0.000000
O O17 0.276462 0.750000 0.331266
O O18 0.250000 0.917610 0.250000
O O19 0.000000 0.500000 0.500000
O O20 0.000000 0.250000 0.552324
#
# Coordination Sequence:
#
# PCOD9536166 Si02
#       7
#    16  16  16  16  16  16   8
#     4  10  19  33  53  76 103 135 174 216 261 309
#     4  10  20  34  51  75 103 130 165 209 256 305
#     4  10  20  33  50  73 102 134 168 208 254 303
#     4   9  18  32  48  68  98 134 168 203 244 294
#     4   8  14  25  42  64  88 116 154 196 234 272
#     4   9  17  31  53  76  96 122 159 201 244 294
#     4   8  16  30  48  70  96 128 168 210 249 296
#
# _framework density 16.977086
#
# number of rings (size 3 to 8) (size 9 to 14) (size 15 to 20)
#    0.000    2.769    0.000    2.769    0.000    5.231 
#    1.385    1.538    0.000    0.923    0.000    4.308 
#    0.000    0.000    0.000    0.000    0.000    0.000 
#
# Total GULP energy -289602.864464 kJ/mol
# GULP energy per Si atom -5569.285855 kJ/mol
# Density = 1.693845 g / cm^3
# Si number density = 16.977086 Si / 1000 Ang^3
#
#
#
# Elastic Constant Matrix: (Units=GPa)
#
#
# Indices 1 2 3 4 5 6 
#
# 1 100.5790 57.1125 29.3592 0.0000 0.0000 0.0000
# 2 57.1125 89.1833 30.3185 0.0000 0.0000 0.0000
# 3 29.3592 30.3185 24.3122 0.0000 0.0000 0.0000
# 4 0.0000 0.0000 0.0000 26.8225 0.0000 0.0000
# 5 0.0000 0.0000 0.0000 0.0000 26.3036 0.0000
# 6 0.0000 0.0000 0.0000 0.0000 0.0000 26.3022
#
#
#
# Elastic Compliance Matrix: (Units=1/GPa)
#
#
# Indices 1 2 3 4 5 6 
#
# 1 0.017561 -0.007007 -0.012468 0.000000 0.000000 0.000000
# 2 -0.007007 0.022261 -0.019298 0.000000 0.000000 0.000000
# 3 -0.012468 -0.019298 0.080254 0.000000 0.000000 0.000000
# 4 0.000000 0.000000 0.000000 0.037282 0.000000 0.000000
# 5 0.000000 0.000000 0.000000 0.000000 0.038018 0.000000
# 6 0.000000 0.000000 0.000000 0.000000 0.000000 0.038020
#
#
# Mechanical properties :
#
#
# Convention : Reuss Voigt Hill
#
# Bulk Modulus (GPa) = 23.51377 49.73944 36.62660
# Shear Modulus (GPa) = 15.37900 22.37127 18.87514
#
# Velocity S-wave (km/s) = 3.01303 3.63400 3.33799
# Velocity P-wave (km/s) = 5.09753 6.85343 6.03963
#
# Compressibility (1/GPa) = 0.04252827
#
# Stress axis : x y z
#
# Youngs Moduli (GPa) = 56.94473 44.92166 12.46047
#
# Poissons Ratio (x) = 0.31478 0.15536
# Poissons Ratio (y) = 0.39903 0.24047
# Poissons Ratio (z) = 0.70998 0.86692
#
# Static dielectric constant tensor:
#      x y z
#    x 1.582870 0.000000 0.000000 
#    y 0.000000 1.569220 0.000000 
#    z 0.000000 0.000000 1.575580 
# 
# From -- ./inp_files/62335.got.cif
#   From: 2010.05.17/outbox.cif.g08.bks.cpg/sg74_32_cif.got.tgz:62335.got - 2010.06.03 17:57:02.
