data_PCOD9536592
_publ_section_title
;
Structure prediction by ZEFSAII (Michael W. Deem and Ramdas Pophale) SiO2 
 PCOD9536592
Probable space group: I M M A
;
_chemical_formula_sum "Si O2"
_cell_formula_units_Z 104
_cell_length_a 8.999945
_cell_length_b 32.227937
_cell_length_c 20.916187
_cell_angle_alpha 90.000000
_cell_angle_beta 90.000000
_cell_angle_gamma 90.000000
_cell_volume 6066.732938
_symmetry_space_group_name_H-M "I M M A"
_symmetry_group_IT_number 74
_symmetry_cell_setting 'orthorhombic'
loop_
_space_group_symop_operation_xyz
x,y,z
-x,1/2-y,z
x,-y,-z
-x,1/2+y,-z
-x,-y,-z
x,1/2+y,-z
-x,y,z
x,1/2-y,z
1/2+x,1/2+y,1/2+z
1/2-x,-y,1/2+z
1/2+x,1/2-y,1/2-z
1/2-x,y,1/2-z
1/2-x,1/2-y,1/2-z
1/2+x,y,1/2-z
1/2-x,1/2+y,1/2+z
1/2+x,-y,1/2+z
loop_
_atom_site_type_symbol
_atom_site_label
_atom_site_fract_x
_atom_site_fract_y
_atom_site_fract_z
Si Si1 0.324409 0.064840 0.682794
Si Si2 0.676630 0.465642 0.318391
Si Si3 0.322463 0.115410 0.931735
Si Si4 0.326792 0.702943 0.452923
Si Si5 0.821363 0.592778 0.577295
Si Si6 0.675390 0.750000 0.818031
Si Si7 0.327524 0.179691 0.398249
O O1 0.500000 0.073034 0.684815
O O2 0.250000 0.076884 0.750000
O O3 0.250803 0.089077 0.624437
O O4 0.303230 0.015258 0.675124
O O5 0.500000 0.456758 0.316978
O O6 0.750000 0.453338 0.250000
O O7 0.752556 0.443284 0.378900
O O8 0.500000 0.115605 0.926038
O O9 0.263606 0.162925 0.929041
O O10 0.285858 0.094708 0.001093
O O11 0.500000 0.699296 0.433252
O O12 0.275636 0.750000 0.436814
O O13 0.323311 0.697619 0.529723
O O14 0.748256 0.635049 0.602576
O O15 0.000000 0.592894 0.583401
O O16 0.500000 0.750000 0.813860
O O17 0.750000 0.750000 0.750000
O O18 0.734479 0.710167 0.855028
O O19 0.500000 0.177570 0.378737
#
# Coordination Sequence:
#
# PCOD9536592 Si02
#       7
#    16  16  16  16  16   8  16
#     4  10  21  38  60  83 110 144 183 225 273 331
#     4  10  21  37  57  80 106 144 188 230 277 331
#     4  10  21  35  54  84 116 146 183 225 273 324
#     4   9  17  32  55  80 107 140 176 216 265 319
#     4  10  21  36  54  81 113 145 182 228 277 323
#     4  12  24  36  50  70  98 134 179 226 273 326
#     4  10  19  35  54  74 101 135 176 222 272 320
#
# _framework density 17.142669999999999
#
# number of rings (size 3 to 8) (size 9 to 14) (size 15 to 20)
#    0.000    2.000    0.769    3.000    0.000    5.846 
#    0.000    6.154    0.000    0.462    0.000    0.000 
#    0.000    0.000    0.000    0.000    0.000    0.000 
#
# Total GULP energy -290117.907989 kJ/mol
# GULP energy per Si atom -5579.190538 kJ/mol
# Density = 1.710365 g / cm^3
# Si number density = 17.142670 Si / 1000 Ang^3
#
#
#
# Elastic Constant Matrix: (Units=GPa)
#
#
# Indices 1 2 3 4 5 6 
#
# 1 127.6859 73.2246 88.6457 0.0000 0.0000 0.0000
# 2 73.2246 86.4167 75.0870 -0.0001 0.0000 0.0000
# 3 88.6457 75.0870 114.7853 0.0001 0.0000 0.0000
# 4 0.0000 -0.0001 0.0001 40.4665 0.0000 0.0000
# 5 0.0000 0.0000 0.0000 0.0000 31.5485 0.0000
# 6 0.0000 0.0000 0.0000 0.0000 0.0000 31.3726
#
#
#
# Elastic Compliance Matrix: (Units=1/GPa)
#
#
# Indices 1 2 3 4 5 6 
#
# 1 0.018867 -0.007707 -0.009529 0.000000 0.000000 0.000000
# 2 -0.007707 0.029959 -0.013646 0.000000 0.000000 0.000000
# 3 -0.009529 -0.013646 0.024997 0.000000 0.000000 0.000000
# 4 0.000000 0.000000 0.000000 0.024712 0.000000 0.000000
# 5 0.000000 0.000000 0.000000 0.000000 0.031697 0.000000
# 6 0.000000 0.000000 0.000000 0.000000 0.000000 0.031875
#
#
# Mechanical properties :
#
#
# Convention : Reuss Voigt Hill
#
# Bulk Modulus (GPa) = 82.92035 89.20028 86.06031
# Shear Modulus (GPa) = 21.94032 26.80622 24.37327
#
# Velocity S-wave (km/s) = 3.58140 3.95867 3.77475
# Velocity P-wave (km/s) = 8.09800 8.54645 8.32525
#
# Compressibility (1/GPa) = 0.01205977
#
# Stress axis : x y z
#
# Youngs Moduli (GPa) = 53.00276 33.37851 40.00472
#
# Poissons Ratio (x) = 0.25726 0.38119
# Poissons Ratio (y) = 0.40851 0.54590
# Poissons Ratio (z) = 0.50504 0.45548
#
# Static dielectric constant tensor:
#      x y z
#    x 1.568660 0.000000 0.000000 
#    y 0.000000 1.543780 0.000000 
#    z 0.000000 0.000000 1.555040 
# 
# From -- ./inp_files/49619.got.cif
#   From: 2010.05.17/outbox.cif.g08.bks.cpg/sg74_25_cif.got.tgz:49619.got - 2010.06.03 17:57:02.
