data_PCOD9536554
_publ_section_title
;
Structure prediction by ZEFSAII (Michael W. Deem and Ramdas Pophale) SiO2 
 PCOD9536554
Probable space group: I M M A
;
_chemical_formula_sum "Si O2"
_cell_formula_units_Z 80
_cell_length_a 13.958439
_cell_length_b 23.553929
_cell_length_c 12.095383
_cell_angle_alpha 90.000000
_cell_angle_beta 90.000000
_cell_angle_gamma 90.000000
_cell_volume 3976.672623
_symmetry_space_group_name_H-M "I M M A"
_symmetry_group_IT_number 74
_symmetry_cell_setting 'orthorhombic'
loop_
_space_group_symop_operation_xyz
x,y,z
-x,1/2-y,z
x,-y,-z
-x,1/2+y,-z
-x,-y,-z
x,1/2+y,-z
-x,y,z
x,1/2-y,z
1/2+x,1/2+y,1/2+z
1/2-x,-y,1/2+z
1/2+x,1/2-y,1/2-z
1/2-x,y,1/2-z
1/2-x,1/2-y,1/2-z
1/2+x,y,1/2-z
1/2-x,1/2+y,1/2+z
1/2+x,-y,1/2+z
loop_
_atom_site_type_symbol
_atom_site_label
_atom_site_fract_x
_atom_site_fract_y
_atom_site_fract_z
Si Si1 0.885519 0.250000 0.089585
Si Si2 0.774760 0.142364 0.133389
Si Si3 0.391202 0.628999 0.249655
Si Si4 0.660309 0.750000 0.335572
Si Si5 0.113137 0.817460 0.474835
Si Si6 0.614366 0.435357 0.538892
O O1 0.846796 0.194890 0.151709
O O2 0.000000 0.250000 0.075137
O O3 0.833734 0.250000 0.968692
O O4 0.750000 0.114560 0.250000
O O5 0.678413 0.166376 0.077518
O O6 0.827543 0.102212 0.047203
O O7 0.500000 0.611619 0.226360
O O8 0.390840 0.690443 0.309642
O O9 0.349435 0.645509 0.129920
O O10 0.353246 0.582899 0.336951
O O11 0.750000 0.750000 0.250000
O O12 0.119940 0.750000 0.449551
O O13 0.000000 0.828586 0.491943
O O14 0.626254 0.500000 0.500000
O O15 0.500000 0.422062 0.533993
#
# Coordination Sequence:
#
# PCOD9536554 Si02
#       6
#     8  16  16   8  16  16
#     4  12  23  37  61  93 127 164 212 261 311 384
#     4  12  25  42  59  90 127 169 219 260 315 380
#     4  10  19  34  58  88 120 154 195 245 310 375
#     4  12  20  29  54  93 125 153 185 245 319 380
#     4  10  21  37  60  95 136 167 198 249 320 391
#     4  10  23  44  67  90 119 160 211 267 320 375
#
# _framework density 20.117322000000001
#
# number of rings (size 3 to 8) (size 9 to 14) (size 15 to 20)
#    0.000    1.200    4.000    3.000    0.000    1.600 
#    3.600    0.000    0.000    0.600    0.000    0.000 
#    0.000    0.000    0.000    0.000    0.000    0.000 
#
# Total GULP energy -223213.719932 kJ/mol
# GULP energy per Si atom -5580.342998 kJ/mol
# Density = 2.007153 g / cm^3
# Si number density = 20.117322 Si / 1000 Ang^3
#
#
#
# Elastic Constant Matrix: (Units=GPa)
#
#
# Indices 1 2 3 4 5 6 
#
# 1 104.7772 35.7281 31.4103 0.0000 0.0000 0.0000
# 2 35.7281 69.0718 28.9800 0.0000 0.0000 0.0000
# 3 31.4103 28.9800 115.5199 -0.0001 0.0000 0.0000
# 4 0.0000 0.0000 -0.0001 13.4060 0.0000 0.0000
# 5 0.0000 0.0000 0.0000 0.0000 21.4304 0.0000
# 6 0.0000 0.0000 0.0000 0.0000 0.0000 27.1643
#
#
#
# Elastic Compliance Matrix: (Units=1/GPa)
#
#
# Indices 1 2 3 4 5 6 
#
# 1 0.011949 -0.005384 -0.001898 0.000000 0.000000 0.000000
# 2 -0.005384 0.018607 -0.003204 0.000000 0.000000 0.000000
# 3 -0.001898 -0.003204 0.009976 0.000000 0.000000 0.000000
# 4 0.000000 0.000000 0.000000 0.074594 0.000000 0.000000
# 5 0.000000 0.000000 0.000000 0.000000 0.046663 0.000000
# 6 0.000000 0.000000 0.000000 0.000000 0.000000 0.036813
#
#
# Mechanical properties :
#
#
# Convention : Reuss Voigt Hill
#
# Bulk Modulus (GPa) = 51.12572 53.51172 52.31872
# Shear Modulus (GPa) = 22.11465 25.28352 23.69908
#
# Velocity S-wave (km/s) = 3.31914 3.54899 3.43599
# Velocity P-wave (km/s) = 6.33703 6.59176 6.46565
#
# Compressibility (1/GPa) = 0.01955963
#
# Stress axis : x y z
#
# Youngs Moduli (GPa) = 83.68801 53.74317 100.23661
#
# Poissons Ratio (x) = 0.28937 0.19028
# Poissons Ratio (y) = 0.45061 0.32114
# Poissons Ratio (z) = 0.15886 0.17218
#
# Static dielectric constant tensor:
#      x y z
#    x 1.760300 0.000000 0.000000 
#    y 0.000000 1.696290 0.000000 
#    z 0.000000 0.000000 1.723660 
# 
# From -- ./inp_files/20554.got.cif
#   From: 2010.05.17/outbox.cif.g08.bks.cpg/sg74_11_cif.got.tgz:20554.got - 2010.06.03 17:57:02.
