data_PCOD9536602
_publ_section_title
;
Structure prediction by ZEFSAII (Michael W. Deem and Ramdas Pophale) SiO2 
 PCOD9536602
Probable space group: I M M A
;
_chemical_formula_sum "Si O2"
_cell_formula_units_Z 88
_cell_length_a 23.013772
_cell_length_b 8.788287
_cell_length_c 25.271656
_cell_angle_alpha 90.000000
_cell_angle_beta 90.000000
_cell_angle_gamma 90.000000
_cell_volume 5111.233702
_symmetry_space_group_name_H-M "I M M A"
_symmetry_group_IT_number 74
_symmetry_cell_setting 'orthorhombic'
loop_
_space_group_symop_operation_xyz
x,y,z
-x,1/2-y,z
x,-y,-z
-x,1/2+y,-z
-x,-y,-z
x,1/2+y,-z
-x,y,z
x,1/2-y,z
1/2+x,1/2+y,1/2+z
1/2-x,-y,1/2+z
1/2+x,1/2-y,1/2-z
1/2-x,y,1/2-z
1/2-x,1/2-y,1/2-z
1/2+x,y,1/2-z
1/2-x,1/2+y,1/2+z
1/2+x,-y,1/2+z
loop_
_atom_site_type_symbol
_atom_site_label
_atom_site_fract_x
_atom_site_fract_y
_atom_site_fract_z
Si Si1 0.149302 0.932489 0.057495
Si Si2 0.717191 0.432840 0.942932
Si Si3 0.567879 0.568455 0.647444
Si Si4 0.392445 0.434434 0.874878
Si Si5 0.568987 0.430906 0.759618
Si Si6 0.000000 0.932319 0.559113
O O1 0.146580 0.750000 0.055203
O O2 0.216384 0.978568 0.068895
O O3 0.107009 0.993304 0.102591
O O4 0.134129 0.000000 0.000000
O O5 0.716368 0.250000 0.946842
O O6 0.669503 0.477182 0.899742
O O7 0.701044 0.500000 0.000000
O O8 0.500000 0.523211 0.641177
O O9 0.571392 0.750000 0.643466
O O10 0.586302 0.515678 0.706096
O O11 0.399011 0.250000 0.877645
O O12 0.399253 0.477886 0.813472
O O13 0.443604 0.508322 0.909290
O O14 0.500000 0.456669 0.768141
O O15 0.577361 0.250000 0.751880
O O16 0.000000 0.750000 0.556725
O O17 0.000000 0.000000 0.500000
#
# Coordination Sequence:
#
# PCOD9536602 Si02
#       6
#    16  16  16  16  16   8
#     4  10  20  36  57  81 107 138 173 212 262 319
#     4   9  19  34  54  77 104 138 177 218 263 316
#     4  10  21  36  55  80 108 137 172 216 261 312
#     4  10  19  35  55  77 105 139 180 223 267 314
#     4   9  17  32  54  77 103 139 177 216 263 312
#     4  12  24  34  48  74 108 142 181 228 273 314
#
# _framework density 17.216977
#
# number of rings (size 3 to 8) (size 9 to 14) (size 15 to 20)
#    0.000    2.182    0.909    2.455    0.000    5.091 
#    0.000    0.909    0.000    5.455    0.000    0.000 
#    0.000    0.000    0.000    0.000    0.000    0.000 
#
# Total GULP energy -245565.612227 kJ/mol
# GULP energy per Si atom -5581.036642 kJ/mol
# Density = 1.717779 g / cm^3
# Si number density = 17.216977 Si / 1000 Ang^3
#
#
#
# Elastic Constant Matrix: (Units=GPa)
#
#
# Indices 1 2 3 4 5 6 
#
# 1 88.9595 39.0250 102.3381 0.0000 0.0000 0.0000
# 2 39.0250 40.0627 57.8782 0.0000 0.0000 0.0000
# 3 102.3381 57.8782 181.5273 0.0000 0.0000 0.0000
# 4 0.0000 0.0000 0.0000 32.6550 0.0000 0.0000
# 5 0.0000 0.0000 0.0000 0.0000 25.3283 0.0000
# 6 0.0000 0.0000 0.0000 0.0000 0.0000 14.5054
#
#
#
# Elastic Compliance Matrix: (Units=1/GPa)
#
#
# Indices 1 2 3 4 5 6 
#
# 1 0.034046 -0.010076 -0.015981 0.000000 0.000000 0.000000
# 2 -0.010076 0.049260 -0.010025 0.000000 0.000000 0.000000
# 3 -0.015981 -0.010025 0.017715 0.000000 0.000000 0.000000
# 4 0.000000 0.000000 0.000000 0.030623 0.000000 0.000000
# 5 0.000000 0.000000 0.000000 0.000000 0.039482 0.000000
# 6 0.000000 0.000000 0.000000 0.000000 0.000000 0.068940
#
#
# Mechanical properties :
#
#
# Convention : Reuss Voigt Hill
#
# Bulk Modulus (GPa) = 34.65614 78.78134 56.71874
# Shear Modulus (GPa) = 15.53529 21.91829 18.72679
#
# Velocity S-wave (km/s) = 3.00713 3.57187 3.30160
# Velocity P-wave (km/s) = 5.67713 7.92895 6.89558
#
# Compressibility (1/GPa) = 0.02885492
#
# Stress axis : x y z
#
# Youngs Moduli (GPa) = 29.37234 20.30056 56.45038
#
# Poissons Ratio (x) = 0.20456 0.90213
# Poissons Ratio (y) = 0.29597 0.56593
# Poissons Ratio (z) = 0.46940 0.20352
#
# Static dielectric constant tensor:
#      x y z
#    x 1.577450 0.000000 0.000000 
#    y 0.000000 1.580900 0.000000 
#    z 0.000000 0.000000 1.556130 
# 
# From -- ./inp_files/48742.got.cif
#   From: 2010.05.17/outbox.cif.g08.bks.cpg/sg74_25_cif.got.tgz:48742.got - 2010.06.03 17:57:02.
