data_PCOD9536737
_publ_section_title
;
Structure prediction by ZEFSAII (Michael W. Deem and Ramdas Pophale) SiO2 
 PCOD9536737
Probable space group: I M M A
;
_chemical_formula_sum "Si O2"
_cell_formula_units_Z 76
_cell_length_a 16.827048
_cell_length_b 14.917780
_cell_length_c 16.789753
_cell_angle_alpha 90.000000
_cell_angle_beta 90.000000
_cell_angle_gamma 90.000000
_cell_volume 4214.600737
_symmetry_space_group_name_H-M "I M M A"
_symmetry_group_IT_number 74
_symmetry_cell_setting 'orthorhombic'
loop_
_space_group_symop_operation_xyz
x,y,z
-x,1/2-y,z
x,-y,-z
-x,1/2+y,-z
-x,-y,-z
x,1/2+y,-z
-x,y,z
x,1/2-y,z
1/2+x,1/2+y,1/2+z
1/2-x,-y,1/2+z
1/2+x,1/2-y,1/2-z
1/2-x,y,1/2-z
1/2-x,1/2-y,1/2-z
1/2+x,y,1/2-z
1/2-x,1/2+y,1/2+z
1/2+x,-y,1/2+z
loop_
_atom_site_type_symbol
_atom_site_label
_atom_site_fract_x
_atom_site_fract_y
_atom_site_fract_z
Si Si1 0.500000 0.750000 0.060568
Si Si2 0.500000 0.554908 0.917454
Si Si3 0.406016 0.750000 0.709174
Si Si4 0.826486 0.601391 0.302007
Si Si5 0.269845 0.750000 0.592816
Si Si6 0.674960 0.750000 0.062321
Si Si7 0.848327 0.107863 0.337891
Si Si8 0.000000 0.106216 0.699477
O O1 0.586908 0.750000 0.022395
O O2 0.500000 0.666825 0.120725
O O3 0.418550 0.607548 0.903850
O O4 0.500000 0.492041 0.838797
O O5 0.500000 0.500000 0.000000
O O6 0.500000 0.750000 0.699610
O O7 0.358675 0.750000 0.626136
O O8 0.379979 0.663320 0.761662
O O9 0.750000 0.623780 0.250000
O O10 0.822447 0.662658 0.380845
O O11 0.826169 0.495188 0.320785
O O12 0.913509 0.620937 0.262144
O O13 0.246122 0.750000 0.500495
O O14 0.226106 0.663345 0.629960
#
# Coordination Sequence:
#
# PCOD9536737 Si02
#       8
#     4   8   8  16   8   8  16   8
#     4   8  16  32  46  70 116 134 158 210 272 338
#     4  10  20  29  51  86 116 138 171 216 279 346
#     4  11  21  42  57  78 108 154 202 239 271 328
#     4  10  19  36  57  79 115 146 180 229 283 344
#     4  11  24  34  56  81 114 144 195 234 280 331
#     4  10  22  34  54  87 113 148 183 223 292 344
#     4  10  21  36  56  84 113 146 185 223 281 343
#     4   8  18  30  47  77 101 134 179 202 262 337
#
# _framework density 18.032551999999999
#
# number of rings (size 3 to 8) (size 9 to 14) (size 15 to 20)
#    0.000    2.105    1.053    2.842    8.842    0.000 
#    0.000    0.000    2.316    0.000    0.000    2.947 
#    0.000    0.000    0.000    0.000    0.000    0.000 
#
# Total GULP energy -211709.542563 kJ/mol
# GULP energy per Si atom -5571.303752 kJ/mol
# Density = 1.799151 g / cm^3
# Si number density = 18.032552 Si / 1000 Ang^3
#
#
#
# Elastic Constant Matrix: (Units=GPa)
#
#
# Indices 1 2 3 4 5 6 
#
# 1 128.4273 28.5077 63.2006 0.0000 0.0000 0.0000
# 2 28.5077 99.5259 29.9788 0.0000 0.0000 0.0000
# 3 63.2006 29.9788 70.0034 0.0000 0.0000 0.0000
# 4 0.0000 0.0000 0.0000 23.6430 0.0000 0.0000
# 5 0.0000 0.0000 0.0000 0.0000 21.7187 0.0000
# 6 0.0000 0.0000 0.0000 0.0000 0.0000 17.8688
#
#
#
# Elastic Compliance Matrix: (Units=1/GPa)
#
#
# Indices 1 2 3 4 5 6 
#
# 1 0.014017 -0.000233 -0.012555 0.000000 0.000000 0.000000
# 2 -0.000233 0.011540 -0.004731 0.000000 0.000000 0.000000
# 3 -0.012555 -0.004731 0.027646 0.000000 0.000000 0.000000
# 4 0.000000 0.000000 0.000000 0.042296 0.000000 0.000000
# 5 0.000000 0.000000 0.000000 0.000000 0.046043 0.000000
# 6 0.000000 0.000000 0.000000 0.000000 0.000000 0.055964
#
#
# Mechanical properties :
#
#
# Convention : Reuss Voigt Hill
#
# Bulk Modulus (GPa) = 55.05466 60.14787 57.60127
# Shear Modulus (GPa) = 20.95583 24.39739 22.67661
#
# Velocity S-wave (km/s) = 3.41267 3.68226 3.55002
# Velocity P-wave (km/s) = 6.79157 7.17679 6.98683
#
# Compressibility (1/GPa) = 0.01816377
#
# Stress axis : x y z
#
# Youngs Moduli (GPa) = 71.34436 86.65838 36.17195
#
# Poissons Ratio (x) = 0.02021 0.45412
# Poissons Ratio (y) = 0.01664 0.17114
# Poissons Ratio (z) = 0.89570 0.41000
#
# Static dielectric constant tensor:
#      x y z
#    x 1.672090 0.000000 0.000000 
#    y 0.000000 1.618820 0.000000 
#    z 0.000000 0.000000 1.623980 
# 
# From -- ./inp_files/34076.got.cif
#   From: 2010.05.17/outbox.cif.g08.bks.cpg/sg74_18_cif.got.tgz:34076.got - 2010.06.03 17:57:02.
