data_PCOD9536673
_publ_section_title
;
Structure prediction by ZEFSAII (Michael W. Deem and Ramdas Pophale) SiO2 
 PCOD9536673
Probable space group: I M M A
;
_chemical_formula_sum "Si O2"
_cell_formula_units_Z 72
_cell_length_a 7.675911
_cell_length_b 26.647959
_cell_length_c 14.416763
_cell_angle_alpha 90.000000
_cell_angle_beta 90.000000
_cell_angle_gamma 90.000000
_cell_volume 2948.910835
_symmetry_space_group_name_H-M "I M M A"
_symmetry_group_IT_number 74
_symmetry_cell_setting 'orthorhombic'
loop_
_space_group_symop_operation_xyz
x,y,z
-x,1/2-y,z
x,-y,-z
-x,1/2+y,-z
-x,-y,-z
x,1/2+y,-z
-x,y,z
x,1/2-y,z
1/2+x,1/2+y,1/2+z
1/2-x,-y,1/2+z
1/2+x,1/2-y,1/2-z
1/2-x,y,1/2-z
1/2-x,1/2-y,1/2-z
1/2+x,y,1/2-z
1/2-x,1/2+y,1/2+z
1/2+x,-y,1/2+z
loop_
_atom_site_type_symbol
_atom_site_label
_atom_site_fract_x
_atom_site_fract_y
_atom_site_fract_z
Si Si1 0.791976 0.325825 0.350034
Si Si2 0.288322 0.304355 0.941166
Si Si3 0.210702 0.586894 0.359517
Si Si4 0.243434 0.000000 0.500000
Si Si5 0.696333 0.560197 0.650625
O O1 0.750000 0.302172 0.250000
O O2 0.738672 0.304388 0.449595
O O3 0.706867 0.380458 0.346290
O O4 0.000000 0.330891 0.353311
O O5 0.500000 0.304804 0.937100
O O6 0.230683 0.250000 0.901365
O O7 0.234324 0.357033 0.894228
O O8 0.250000 0.582124 0.250000
O O9 0.298765 0.543368 0.422621
O O10 0.000000 0.581840 0.372427
O O11 0.176642 0.960725 0.574142
O O12 0.500000 0.546041 0.623262
O O13 0.750000 0.540341 0.750000
#
# Coordination Sequence:
#
# PCOD9536673 Si02
#       5
#    16  16  16   8  16
#     4  10  19  35  59  89 122 163 205 252 307 366
#     4   9  19  39  65  91 123 167 213 257 311 373
#     4  11  25  44  67  95 127 165 209 260 313 375
#     4  12  24  40  64  92 122 166 204 256 308 376
#     4  11  23  38  58  87 122 161 203 250 305 369
#
# _framework density 24.415793000000001
#
# number of rings (size 3 to 8) (size 9 to 14) (size 15 to 20)
#    0.000    1.556    2.222    4.000    0.000    7.111 
#    0.000    0.000    0.000    4.667    0.000    0.000 
#    0.000    0.000    0.000    0.000    0.000    0.000 
#
# Total GULP energy -200458.117556 kJ/mol
# GULP energy per Si atom -5568.281043 kJ/mol
# Density = 2.436022 g / cm^3
# Si number density = 24.415793 Si / 1000 Ang^3
#
#
#
# Elastic Constant Matrix: (Units=GPa)
#
#
# Indices 1 2 3 4 5 6 
#
# 1 110.2199 23.6990 16.9600 0.0000 0.0000 0.0000
# 2 23.6990 220.0219 86.0839 0.0000 0.0000 0.0000
# 3 16.9600 86.0839 192.9691 0.0000 0.0000 0.0000
# 4 0.0000 0.0000 0.0000 26.5503 0.0000 0.0000
# 5 0.0000 0.0000 0.0000 0.0000 18.6561 0.0000
# 6 0.0000 0.0000 0.0000 0.0000 0.0000 12.5698
#
#
#
# Elastic Compliance Matrix: (Units=1/GPa)
#
#
# Indices 1 2 3 4 5 6 
#
# 1 0.009320 -0.000828 -0.000450 0.000000 0.000000 0.000000
# 2 -0.000828 0.005580 -0.002416 0.000000 0.000000 0.000000
# 3 -0.000450 -0.002416 0.006300 0.000000 0.000000 0.000000
# 4 0.000000 0.000000 0.000000 0.037664 0.000000 0.000000
# 5 0.000000 0.000000 0.000000 0.000000 0.053602 0.000000
# 6 0.000000 0.000000 0.000000 0.000000 0.000000 0.079556
#
#
# Mechanical properties :
#
#
# Convention : Reuss Voigt Hill
#
# Bulk Modulus (GPa) = 72.40499 86.29962 79.35230
# Shear Modulus (GPa) = 24.50831 37.98646 31.24739
#
# Velocity S-wave (km/s) = 3.17170 3.94866 3.58131
# Velocity P-wave (km/s) = 6.56752 7.49745 7.04784
#
# Compressibility (1/GPa) = 0.01381120
#
# Stress axis : x y z
#
# Youngs Moduli (GPa) = 107.29619 179.22595 158.73973
#
# Poissons Ratio (x) = 0.14838 0.07140
# Poissons Ratio (y) = 0.08883 0.38356
# Poissons Ratio (z) = 0.04826 0.43306
#
# Static dielectric constant tensor:
#      x y z
#    x 2.038660 0.000000 0.000000 
#    y 0.000000 1.931260 0.000000 
#    z 0.000000 0.000000 1.917340 
# 
# From -- ./inp_files/29188.got.cif
#   From: 2010.05.17/outbox.cif.g08.bks.cpg/sg74_15_cif.got.tgz:29188.got - 2010.06.03 17:57:02.
