data_PCOD9536837
_publ_section_title
;
Structure prediction by ZEFSAII (Michael W. Deem and Ramdas Pophale) SiO2 
 PCOD9536837
Probable space group: I M M A
;
_chemical_formula_sum "Si O2"
_cell_formula_units_Z 72
_cell_length_a 7.529035
_cell_length_b 16.665253
_cell_length_c 24.535667
_cell_angle_alpha 90.000000
_cell_angle_beta 90.000000
_cell_angle_gamma 90.000000
_cell_volume 3078.570447
_symmetry_space_group_name_H-M "I M M A"
_symmetry_group_IT_number 74
_symmetry_cell_setting 'orthorhombic'
loop_
_space_group_symop_operation_xyz
x,y,z
-x,1/2-y,z
x,-y,-z
-x,1/2+y,-z
-x,-y,-z
x,1/2+y,-z
-x,y,z
x,1/2-y,z
1/2+x,1/2+y,1/2+z
1/2-x,-y,1/2+z
1/2+x,1/2-y,1/2-z
1/2-x,y,1/2-z
1/2-x,1/2-y,1/2-z
1/2+x,y,1/2-z
1/2-x,1/2+y,1/2+z
1/2+x,-y,1/2+z
loop_
_atom_site_type_symbol
_atom_site_label
_atom_site_fract_x
_atom_site_fract_y
_atom_site_fract_z
Si Si1 0.788959 0.838550 0.814358
Si Si2 0.283280 0.073739 0.962898
Si Si3 0.212294 0.750000 0.455076
Si Si4 0.216365 0.750000 0.173938
Si Si5 0.750000 0.893448 0.250000
Si Si6 0.792818 0.490375 0.654724
O O1 0.719756 0.750000 0.829480
O O2 0.750000 0.850106 0.750000
O O3 0.717922 0.913744 0.847795
O O4 0.000000 0.838141 0.820855
O O5 0.500000 0.074381 0.965137
O O6 0.221121 0.163905 0.976732
O O7 0.236368 0.051665 0.900857
O O8 0.222016 0.000000 0.000000
O O9 0.247295 0.750000 0.389991
O O10 0.000000 0.750000 0.462942
O O11 0.299371 0.673226 0.204114
O O12 0.000000 0.750000 0.182665
O O13 0.682433 0.957962 0.294228
O O14 0.000000 0.470886 0.666407
#
# Coordination Sequence:
#
# PCOD9536837 Si02
#       6
#    16  16   8   8   8  16
#     4  10  21  36  54  78 112 152 190 230 278 334
#     4   9  19  37  59  85 112 146 195 245 291 340
#     4  10  19  37  62  83 116 157 191 240 297 341
#     4  11  23  35  54  86 124 156 191 226 276 358
#     4  11  22  34  53  86 120 158 185 228 286 349
#     4  11  21  35  58  85 115 149 189 239 290 349
#
# _framework density 23.387478999999999
#
# number of rings (size 3 to 8) (size 9 to 14) (size 15 to 20)
#    0.000    1.778    3.333    1.333    0.000    4.000 
#    2.000    0.000    0.000    2.667    0.000    0.000 
#    0.000    0.000    0.000    0.000    0.000    0.000 
#
# Total GULP energy -200590.668893 kJ/mol
# GULP energy per Si atom -5571.963025 kJ/mol
# Density = 2.333425 g / cm^3
# Si number density = 23.387479 Si / 1000 Ang^3
#
#
#
# Elastic Constant Matrix: (Units=GPa)
#
#
# Indices 1 2 3 4 5 6 
#
# 1 98.9206 16.2607 5.1314 0.0000 0.0000 0.0000
# 2 16.2607 245.6071 48.4168 0.0000 0.0000 0.0000
# 3 5.1314 48.4168 71.0729 0.0000 0.0000 0.0000
# 4 0.0000 0.0000 0.0000 36.9163 0.0000 0.0000
# 5 0.0000 0.0000 0.0000 0.0000 36.9770 0.0000
# 6 0.0000 0.0000 0.0000 0.0000 0.0000 50.6756
#
#
#
# Elastic Compliance Matrix: (Units=1/GPa)
#
#
# Indices 1 2 3 4 5 6 
#
# 1 0.010227 -0.000614 -0.000320 0.000000 0.000000 0.000000
# 2 -0.000614 0.004740 -0.003185 0.000000 0.000000 0.000000
# 3 -0.000320 -0.003185 0.016263 0.000000 0.000000 0.000000
# 4 0.000000 0.000000 0.000000 0.027088 0.000000 0.000000
# 5 0.000000 0.000000 0.000000 0.000000 0.027044 0.000000
# 6 0.000000 0.000000 0.000000 0.000000 0.000000 0.019733
#
#
# Mechanical properties :
#
#
# Convention : Reuss Voigt Hill
#
# Bulk Modulus (GPa) = 43.49375 61.69091 52.59233
# Shear Modulus (GPa) = 41.32360 47.96657 44.64508
#
# Velocity S-wave (km/s) = 4.20802 4.53366 4.37387
# Velocity P-wave (km/s) = 6.49980 7.33760 6.93137
#
# Compressibility (1/GPa) = 0.02299181
#
# Stress axis : x y z
#
# Youngs Moduli (GPa) = 97.78371 210.97081 61.49051
#
# Poissons Ratio (x) = 0.12953 0.01968
# Poissons Ratio (y) = 0.06004 0.19583
# Poissons Ratio (z) = 0.03130 0.67188
#
# Static dielectric constant tensor:
#      x y z
#    x 1.476730 0.000000 0.000000 
#    y 0.000000 1.934180 0.000000 
#    z 0.000000 0.000000 1.814920 
# 
# From -- ./inp_files/63700.got.cif
#   From: 2010.05.17/outbox.cif.g08.bks.cpg/sg74_32_cif.got.tgz:63700.got - 2010.06.03 17:57:02.
