data_PCOD9536447
_publ_section_title
;
Structure prediction by ZEFSAII (Michael W. Deem and Ramdas Pophale) SiO2 
 PCOD9536447
Probable space group: I M M A
;
_chemical_formula_sum "Si O2"
_cell_formula_units_Z 100
_cell_length_a 21.881903
_cell_length_b 9.493576
_cell_length_c 21.438136
_cell_angle_alpha 90.000000
_cell_angle_beta 90.000000
_cell_angle_gamma 90.000000
_cell_volume 4453.504974
_symmetry_space_group_name_H-M "I M M A"
_symmetry_group_IT_number 74
_symmetry_cell_setting 'orthorhombic'
loop_
_space_group_symop_operation_xyz
x,y,z
-x,1/2-y,z
x,-y,-z
-x,1/2+y,-z
-x,-y,-z
x,1/2+y,-z
-x,y,z
x,1/2-y,z
1/2+x,1/2+y,1/2+z
1/2-x,-y,1/2+z
1/2+x,1/2-y,1/2-z
1/2-x,y,1/2-z
1/2-x,1/2-y,1/2-z
1/2+x,y,1/2-z
1/2-x,1/2+y,1/2+z
1/2+x,-y,1/2+z
loop_
_atom_site_type_symbol
_atom_site_label
_atom_site_fract_x
_atom_site_fract_y
_atom_site_fract_z
Si Si1 0.926071 0.911905 0.316281
Si Si2 0.400706 0.406826 0.305903
Si Si3 0.257006 0.586176 0.438323
Si Si4 0.901895 0.899890 0.086847
Si Si5 0.256649 0.909853 0.680443
Si Si6 0.925408 0.912497 0.561162
Si Si7 0.000000 0.000000 0.000000
O O1 0.903929 0.750000 0.317974
O O2 0.000000 0.906991 0.316442
O O3 0.907157 0.995456 0.254308
O O4 0.907728 0.001960 0.376927
O O5 0.424351 0.250000 0.293534
O O6 0.427297 0.480581 0.367041
O O7 0.329600 0.396409 0.324116
O O8 0.239566 0.500000 0.500000
O O9 0.238665 0.750000 0.441076
O O10 0.331453 0.582551 0.433271
O O11 0.234881 0.507094 0.375779
O O12 0.904583 0.750000 0.121515
O O13 0.946008 0.900564 0.028881
O O14 0.230201 0.750000 0.678817
O O15 0.250000 0.969963 0.750000
O O16 0.904103 0.750000 0.560843
O O17 0.000000 0.907825 0.560425
O O18 0.906683 0.000000 0.500000
#
# Coordination Sequence:
#
# PCOD9536447 Si02
#       7
#    16  16  16  16  16  16   4
#     4  10  20  33  49  70 101 140 177 212 255 306
#     4  10  21  36  55  78 105 138 177 224 273 322
#     4  10  19  34  55  81 111 143 182 227 276 328
#     4  10  22  36  51  73 104 145 190 232 270 315
#     4   9  19  37  60  84 108 137 175 222 278 336
#     4   9  16  27  45  69  96 126 165 208 249 296
#     4  12  22  36  52  74 106 152 198 234 270 312
#
# _framework density 22.454222999999999
#
# number of rings (size 3 to 8) (size 9 to 14) (size 15 to 20)
#    0.000    2.240    0.800    2.160    1.120    5.760 
#    0.000    0.000    0.000    0.960    0.000    4.480 
#    0.000    0.000    0.000    0.000    0.000    0.000 
#
# Total GULP energy -278715.207555 kJ/mol
# GULP energy per Si atom -5574.304151 kJ/mol
# Density = 2.240312 g / cm^3
# Si number density = 22.454223 Si / 1000 Ang^3
#
#
#
# Elastic Constant Matrix: (Units=GPa)
#
#
# Indices 1 2 3 4 5 6 
#
# 1 53.8884 3.7512 -11.4696 0.0000 0.0000 0.0000
# 2 3.7512 215.3351 112.7472 0.0000 0.0000 0.0000
# 3 -11.4696 112.7472 136.5186 0.0000 0.0000 0.0000
# 4 0.0000 0.0000 0.0000 37.7443 0.0000 0.0000
# 5 0.0000 0.0000 0.0000 0.0000 19.9874 0.0000
# 6 0.0000 0.0000 0.0000 0.0000 0.0000 -2.6149
#
#
#
# Elastic Compliance Matrix: (Units=1/GPa)
#
#
# Indices 1 2 3 4 5 6 
#
# 1 0.019420 -0.002101 0.003367 0.000000 0.000000 0.000000
# 2 -0.002101 0.008409 -0.007122 0.000000 0.000000 0.000000
# 3 0.003367 -0.007122 0.013489 0.000000 0.000000 0.000000
# 4 0.000000 0.000000 0.000000 0.026494 0.000000 0.000000
# 5 0.000000 0.000000 0.000000 0.000000 0.050032 0.000000
# 6 0.000000 0.000000 0.000000 0.000000 0.000000 -0.382429
#
#
# Mechanical properties :
#
#
# Convention : Reuss Voigt Hill
#
# Bulk Modulus (GPa) = 33.77619 68.42220 51.09919
# Shear Modulus (GPa) = -20.57574 31.07090 5.24758
#
# Velocity S-wave (km/s) = -3.03040 3.72391 1.53039
# Velocity P-wave (km/s) = 1.68241 7.00200 5.09208
#
# Compressibility (1/GPa) = 0.02960665
#
# Stress axis : x y z
#
# Youngs Moduli (GPa) = 51.49408 118.91601 74.13241
#
# Poissons Ratio (x) = 0.24986 -0.24959
# Poissons Ratio (y) = 0.10820 0.52794
# Poissons Ratio (z) = -0.17337 0.84687
#
# Static dielectric constant tensor:
#      x y z
#    x 1.868730 0.000000 0.000000 
#    y 0.000000 1.874170 0.000000 
#    z 0.000000 0.000000 1.831810 
# 
# From -- ./inp_files/55200.got.cif
#   From: 2010.05.17/outbox.cif.g08.bks.cpg/sg74_28_cif.got.tgz:55200.got - 2010.06.03 17:57:02.
