data_PCOD9536898
_publ_section_title
;
Structure prediction by ZEFSAII (Michael W. Deem and Ramdas Pophale) SiO2 
 PCOD9536898
Probable space group: I M M A
;
_chemical_formula_sum "Si O2"
_cell_formula_units_Z 88
_cell_length_a 27.311365
_cell_length_b 28.624372
_cell_length_c 5.111665
_cell_angle_alpha 90.000000
_cell_angle_beta 90.000000
_cell_angle_gamma 90.000000
_cell_volume 3996.149780
_symmetry_space_group_name_H-M "I M M A"
_symmetry_group_IT_number 74
_symmetry_cell_setting 'orthorhombic'
loop_
_space_group_symop_operation_xyz
x,y,z
-x,1/2-y,z
x,-y,-z
-x,1/2+y,-z
-x,-y,-z
x,1/2+y,-z
-x,y,z
x,1/2-y,z
1/2+x,1/2+y,1/2+z
1/2-x,-y,1/2+z
1/2+x,1/2-y,1/2-z
1/2-x,y,1/2-z
1/2-x,1/2-y,1/2-z
1/2+x,y,1/2-z
1/2-x,1/2+y,1/2+z
1/2+x,-y,1/2+z
loop_
_atom_site_type_symbol
_atom_site_label
_atom_site_fract_x
_atom_site_fract_y
_atom_site_fract_z
Si Si1 0.055278 0.553212 0.610669
Si Si2 0.886077 0.805849 0.652047
Si Si3 0.806416 0.121649 0.185944
Si Si4 0.849771 0.424414 0.664891
Si Si5 0.384390 0.000000 0.500000
Si Si6 0.945856 0.306638 0.854432
O O1 0.051984 0.500000 0.500000
O O2 0.093265 0.581770 0.431482
O O3 0.000000 0.571435 0.631038
O O4 0.081751 0.541732 0.885781
O O5 0.879467 0.750000 0.674415
O O6 0.837849 0.833509 0.727323
O O7 0.905672 0.816567 0.364203
O O8 0.927270 0.821047 0.861157
O O9 0.750000 0.130983 0.250000
O O10 0.821087 0.082160 0.396280
O O11 0.851546 0.023740 0.781351
O O12 0.824623 0.106497 0.895405
O O13 0.949246 0.250000 0.857996
O O14 0.000000 0.324899 0.793964
#
# Coordination Sequence:
#
# PCOD9536898 Si02
#       6
#    16  16  16  16   8  16
#     4   9  18  35  66  99 131 168 201 243 309 380
#     4  10  21  39  65  93 122 165 217 262 311 386
#     4  12  26  45  65  86 125 171 214 282 343 365
#     4  11  23  43  66  93 129 167 209 260 322 386
#     4  10  19  40  72  94 132 168 214 254 305 396
#     4   9  17  33  60  92 126 161 196 243 310 382
#
# _framework density 22.021197000000001
#
# number of rings (size 3 to 8) (size 9 to 14) (size 15 to 20)
#    0.000    1.818    1.818    2.455    0.000    3.273 
#    0.000    7.273    2.000    5.455    0.000    0.000 
#    0.000    0.000    0.000    0.000    0.000    0.000 
#
# Total GULP energy -245547.184186 kJ/mol
# GULP energy per Si atom -5580.617822 kJ/mol
# Density = 2.197108 g / cm^3
# Si number density = 22.021197 Si / 1000 Ang^3
#
#
#
# Elastic Constant Matrix: (Units=GPa)
#
#
# Indices 1 2 3 4 5 6 
#
# 1 123.9684 24.4625 11.0775 0.0000 0.0000 0.0000
# 2 24.4625 48.2513 3.2243 0.0000 0.0000 0.0000
# 3 11.0775 3.2243 107.2556 0.0000 0.0000 0.0000
# 4 0.0000 0.0000 0.0000 21.5145 0.0000 0.0000
# 5 0.0000 0.0000 0.0000 0.0000 19.0077 0.0000
# 6 0.0000 0.0000 0.0000 0.0000 0.0000 31.1093
#
#
#
# Elastic Compliance Matrix: (Units=1/GPa)
#
#
# Indices 1 2 3 4 5 6 
#
# 1 0.009031 -0.004525 -0.000797 0.000000 0.000000 0.000000
# 2 -0.004525 0.023034 -0.000225 0.000000 0.000000 0.000000
# 3 -0.000797 -0.000225 0.009413 0.000000 0.000000 0.000000
# 4 0.000000 0.000000 0.000000 0.046480 0.000000 0.000000
# 5 0.000000 0.000000 0.000000 0.000000 0.052610 0.000000
# 6 0.000000 0.000000 0.000000 0.000000 0.000000 0.032145
#
#
# Mechanical properties :
#
#
# Convention : Reuss Voigt Hill
#
# Bulk Modulus (GPa) = 32.91260 39.66710 36.28985
# Shear Modulus (GPa) = 25.78193 30.37370 28.07781
#
# Velocity S-wave (km/s) = 3.42538 3.71791 3.57464
# Velocity P-wave (km/s) = 5.53377 6.04010 5.79247
#
# Compressibility (1/GPa) = 0.03038350
#
# Stress axis : x y z
#
# Youngs Moduli (GPa) = 110.73333 43.41397 106.24087
#
# Poissons Ratio (x) = 0.19646 0.08464
# Poissons Ratio (y) = 0.50109 0.02391
# Poissons Ratio (z) = 0.08822 0.00977
#
# Static dielectric constant tensor:
#      x y z
#    x 1.829900 0.000000 0.000000 
#    y 0.000000 1.847900 0.000000 
#    z 0.000000 0.000000 1.869870 
# 
# From -- ./inp_files/4623.got.cif
#   From: 2010.05.17/outbox.cif.g08.bks.cpg/sg74_3_cif.got.tgz:4623.got - 2010.06.03 17:57:02.
