data_PCOD9536098
_publ_section_title
;
Structure prediction by ZEFSAII (Michael W. Deem and Ramdas Pophale) SiO2 
 PCOD9536098
Probable space group: I M M A
;
_chemical_formula_sum "Si O2"
_cell_formula_units_Z 104
_cell_length_a 8.734097
_cell_length_b 22.733885
_cell_length_c 31.016303
_cell_angle_alpha 90.000000
_cell_angle_beta 90.000000
_cell_angle_gamma 90.000000
_cell_volume 6158.595783
_symmetry_space_group_name_H-M "I M M A"
_symmetry_group_IT_number 74
_symmetry_cell_setting 'orthorhombic'
loop_
_space_group_symop_operation_xyz
x,y,z
-x,1/2-y,z
x,-y,-z
-x,1/2+y,-z
-x,-y,-z
x,1/2+y,-z
-x,y,z
x,1/2-y,z
1/2+x,1/2+y,1/2+z
1/2-x,-y,1/2+z
1/2+x,1/2-y,1/2-z
1/2-x,y,1/2-z
1/2-x,1/2-y,1/2-z
1/2+x,y,1/2-z
1/2-x,1/2+y,1/2+z
1/2+x,-y,1/2+z
loop_
_atom_site_type_symbol
_atom_site_label
_atom_site_fract_x
_atom_site_fract_y
_atom_site_fract_z
Si Si1 0.683019 0.469142 0.796531
Si Si2 0.816145 0.181909 0.944053
Si Si3 0.682991 0.099043 0.296471
Si Si4 0.314417 0.865924 0.352615
Si Si5 0.321631 0.178673 0.033672
Si Si6 0.685296 0.819433 0.870748
Si Si7 0.184121 0.250000 0.797977
O O1 0.500000 0.471882 0.794137
O O2 0.750000 0.450300 0.750000
O O3 0.750032 0.533977 0.805086
O O4 0.738321 0.422735 0.831786
O O5 0.763330 0.250000 0.939371
O O6 0.767371 0.145958 0.902004
O O7 0.000000 0.183230 0.943816
O O8 0.762031 0.158803 0.990396
O O9 0.500000 0.096228 0.294038
O O10 0.750000 0.117628 0.250000
O O11 0.737641 0.142886 0.333599
O O12 0.500000 0.871435 0.351068
O O13 0.271767 0.808357 0.324525
O O14 0.500000 0.163094 0.030266
O O15 0.311783 0.250000 0.034241
O O16 0.265453 0.160351 0.081097
O O17 0.500000 0.825005 0.868687
O O18 0.720540 0.750000 0.866108
O O19 0.250000 0.250000 0.750000
O O20 0.000000 0.250000 0.795363
#
# Coordination Sequence:
#
# PCOD9536098 Si02
#       7
#    16  16  16  16  16  16   8
#     4  11  22  37  55  74  97 131 174 215 257 306
#     4   9  16  28  47  71 101 136 171 210 257 304
#     4  11  22  37  57  79 104 135 171 210 250 298
#     4  10  19  33  50  71 101 135 172 215 261 307
#     4   8  15  28  47  72 103 137 169 204 246 296
#     4   9  18  34  55  80 111 142 169 202 249 299
#     4  10  20  32  46  66  98 134 168 210 263 312
#
# _framework density 16.886966999999999
#
# number of rings (size 3 to 8) (size 9 to 14) (size 15 to 20)
#    0.000    2.308    0.769    5.077    0.000    3.692 
#    0.000    1.538    0.000    0.923    0.000    6.462 
#    0.000    0.000    0.000    0.000    0.000    0.000 
#
# Total GULP energy -290013.002044 kJ/mol
# GULP energy per Si atom -5577.173116 kJ/mol
# Density = 1.684853 g / cm^3
# Si number density = 16.886967 Si / 1000 Ang^3
#
#
#
# Elastic Constant Matrix: (Units=GPa)
#
#
# Indices 1 2 3 4 5 6 
#
# 1 69.4665 37.0394 63.6360 0.0000 0.0000 0.0000
# 2 37.0394 54.7798 80.3541 0.0000 0.0000 0.0000
# 3 63.6360 80.3541 192.1289 0.0000 0.0000 0.0000
# 4 0.0000 0.0000 0.0000 14.3805 0.0000 0.0000
# 5 0.0000 0.0000 0.0000 0.0000 30.8196 0.0000
# 6 0.0000 0.0000 0.0000 0.0000 0.0000 20.5838
#
#
#
# Elastic Compliance Matrix: (Units=1/GPa)
#
#
# Indices 1 2 3 4 5 6 
#
# 1 0.023118 -0.011382 -0.002897 0.000000 0.000000 0.000000
# 2 -0.011382 0.052834 -0.018327 0.000000 0.000000 0.000000
# 3 -0.002897 -0.018327 0.013829 0.000000 0.000000 0.000000
# 4 0.000000 0.000000 0.000000 0.069539 0.000000 0.000000
# 5 0.000000 0.000000 0.000000 0.000000 0.032447 0.000000
# 6 0.000000 0.000000 0.000000 0.000000 0.000000 0.048582
#
#
# Mechanical properties :
#
#
# Convention : Reuss Voigt Hill
#
# Bulk Modulus (GPa) = 40.70098 75.38159 58.04128
# Shear Modulus (GPa) = 15.93631 22.17982 19.05807
#
# Velocity S-wave (km/s) = 3.07531 3.62806 3.36306
# Velocity P-wave (km/s) = 6.06336 7.89216 7.03742
#
# Compressibility (1/GPa) = 0.02456943
#
# Stress axis : x y z
#
# Youngs Moduli (GPa) = 43.25644 18.92733 72.31204
#
# Poissons Ratio (x) = 0.21544 0.20946
# Poissons Ratio (y) = 0.49236 1.32523
# Poissons Ratio (z) = 0.12529 0.34687
#
# Static dielectric constant tensor:
#      x y z
#    x 1.571110 0.000000 0.000000 
#    y 0.000000 1.547890 0.000000 
#    z 0.000000 0.000000 1.579040 
# 
# From -- ./inp_files/70547.got.cif
#   From: 2010.05.17/outbox.cif.g08.bks.cpg/sg74_36_cif.got.tgz:70547.got - 2010.06.03 17:57:02.
