data_PCOD9536117
_publ_section_title
;
Structure prediction by ZEFSAII (Michael W. Deem and Ramdas Pophale) SiO2 
 PCOD9536117
Probable space group: I M M A
;
_chemical_formula_sum "Si O2"
_cell_formula_units_Z 80
_cell_length_a 20.106268
_cell_length_b 17.959684
_cell_length_c 10.024540
_cell_angle_alpha 90.000000
_cell_angle_beta 90.000000
_cell_angle_gamma 90.000000
_cell_volume 3619.883645
_symmetry_space_group_name_H-M "I M M A"
_symmetry_group_IT_number 74
_symmetry_cell_setting 'orthorhombic'
loop_
_space_group_symop_operation_xyz
x,y,z
-x,1/2-y,z
x,-y,-z
-x,1/2+y,-z
-x,-y,-z
x,1/2+y,-z
-x,y,z
x,1/2-y,z
1/2+x,1/2+y,1/2+z
1/2-x,-y,1/2+z
1/2+x,1/2-y,1/2-z
1/2-x,y,1/2-z
1/2-x,1/2-y,1/2-z
1/2+x,y,1/2-z
1/2-x,1/2+y,1/2+z
1/2+x,-y,1/2+z
loop_
_atom_site_type_symbol
_atom_site_label
_atom_site_fract_x
_atom_site_fract_y
_atom_site_fract_z
Si Si1 0.074991 0.530628 0.150361
Si Si2 0.797079 0.839529 0.490318
Si Si3 0.428367 0.909792 0.005005
Si Si4 0.859089 0.108159 0.253144
Si Si5 0.850581 0.663714 0.046648
O O1 0.130030 0.478781 0.220084
O O2 0.000000 0.522479 0.205792
O O3 0.071993 0.500000 0.000000
O O4 0.098945 0.614083 0.129568
O O5 0.802793 0.750000 0.492706
O O6 0.862433 0.876843 0.426807
O O7 0.800769 0.870441 0.643297
O O8 0.726208 0.859309 0.428664
O O9 0.500000 0.887600 0.058229
O O10 0.420781 0.877884 0.854195
O O11 0.424450 0.000000 0.000000
O O12 0.860231 0.150560 0.113359
O O13 0.857618 0.750000 0.076735
#
# Coordination Sequence:
#
# PCOD9536117 Si02
#       5
#    16  16  16  16  16
#     4   9  18  32  49  74 108 141 175 215 264 321
#     4   9  19  33  51  77 106 135 168 216 269 312
#     4   9  19  33  49  73 103 135 173 220 268 316
#     4   9  18  31  53  76 103 136 172 219 269 313
#     4  10  19  33  51  77 112 140 173 216 260 318
#
# _framework density 22.100158
#
# number of rings (size 3 to 8) (size 9 to 14) (size 15 to 20)
#    1.200    1.600    0.000    1.800    0.000    5.600 
#    0.000    0.000    0.000    1.200    0.000    5.600 
#    0.000    0.000    0.000    0.000    0.000    0.000 
#
# Total GULP energy -222677.359648 kJ/mol
# GULP energy per Si atom -5566.933991 kJ/mol
# Density = 2.204986 g / cm^3
# Si number density = 22.100158 Si / 1000 Ang^3
#
#
#
# Elastic Constant Matrix: (Units=GPa)
#
#
# Indices 1 2 3 4 5 6 
#
# 1 92.4971 48.9172 -6.7217 0.0000 0.0000 0.0000
# 2 48.9172 79.8555 -11.6146 0.0000 0.0000 0.0000
# 3 -6.7217 -11.6146 51.1024 0.0000 0.0000 0.0000
# 4 0.0000 0.0000 0.0000 22.5684 0.0000 0.0000
# 5 0.0000 0.0000 0.0000 0.0000 -12.0120 0.0000
# 6 0.0000 0.0000 0.0000 0.0000 0.0000 29.4260
#
#
#
# Elastic Compliance Matrix: (Units=1/GPa)
#
#
# Indices 1 2 3 4 5 6 
#
# 1 0.015993 -0.009815 -0.000127 0.000000 0.000000 0.000000
# 2 -0.009815 0.018975 0.003022 0.000000 0.000000 0.000000
# 3 -0.000127 0.003022 0.020239 0.000000 0.000000 0.000000
# 4 0.000000 0.000000 0.000000 0.044310 0.000000 0.000000
# 5 0.000000 0.000000 0.000000 0.000000 -0.083250 0.000000
# 6 0.000000 0.000000 0.000000 0.000000 0.000000 0.033984
#
#
# Mechanical properties :
#
#
# Convention : Reuss Voigt Hill
#
# Bulk Modulus (GPa) = 24.17555 31.62409 27.89982
# Shear Modulus (GPa) = 64.20213 20.85474 42.52843
#
# Velocity S-wave (km/s) = 5.39570 3.07522 4.39150
# Velocity P-wave (km/s) = 7.05556 5.19132 6.19398
#
# Compressibility (1/GPa) = 0.04136410
#
# Stress axis : x y z
#
# Youngs Moduli (GPa) = 62.52863 52.70206 49.41063
#
# Poissons Ratio (x) = 0.51728 0.00629
# Poissons Ratio (y) = 0.61373 -0.14930
# Poissons Ratio (z) = 0.00795 -0.15924
#
# Static dielectric constant tensor:
#      x y z
#    x 1.829120 0.000000 0.000000 
#    y 0.000000 1.753810 0.000000 
#    z 0.000000 0.000000 1.909070 
# 
# From -- ./inp_files/33958.got.cif
#   From: 2010.05.17/outbox.cif.g08.bks.cpg/sg74_17_cif.got.tgz:33958.got - 2010.06.03 17:57:02.
