data_PCOD9536830
_publ_section_title
;
Structure prediction by ZEFSAII (Michael W. Deem and Ramdas Pophale) SiO2 
 PCOD9536830
Probable space group: I M M A
;
_chemical_formula_sum "Si O2"
_cell_formula_units_Z 112
_cell_length_a 24.267169
_cell_length_b 14.847965
_cell_length_c 14.741354
_cell_angle_alpha 90.000000
_cell_angle_beta 90.000000
_cell_angle_gamma 90.000000
_cell_volume 5311.576310
_symmetry_space_group_name_H-M "I M M A"
_symmetry_group_IT_number 74
_symmetry_cell_setting 'orthorhombic'
loop_
_space_group_symop_operation_xyz
x,y,z
-x,1/2-y,z
x,-y,-z
-x,1/2+y,-z
-x,-y,-z
x,1/2+y,-z
-x,y,z
x,1/2-y,z
1/2+x,1/2+y,1/2+z
1/2-x,-y,1/2+z
1/2+x,1/2-y,1/2-z
1/2-x,y,1/2-z
1/2-x,1/2-y,1/2-z
1/2+x,y,1/2-z
1/2-x,1/2+y,1/2+z
1/2+x,-y,1/2+z
loop_
_atom_site_type_symbol
_atom_site_label
_atom_site_fract_x
_atom_site_fract_y
_atom_site_fract_z
Si Si1 0.200616 0.474939 0.701509
Si Si2 0.063238 0.142762 0.399025
Si Si3 0.262203 0.409925 0.440717
Si Si4 0.562981 0.852139 0.366216
Si Si5 0.885828 0.853394 0.944233
Si Si6 0.908597 0.470957 0.220341
Si Si7 0.843530 0.351815 0.545058
O O1 0.250000 0.420886 0.750000
O O2 0.232069 0.554632 0.649318
O O3 0.156714 0.513379 0.770791
O O4 0.166110 0.417644 0.629129
O O5 0.070980 0.250000 0.379213
O O6 0.072450 0.084277 0.308380
O O7 0.108307 0.118695 0.475665
O O8 0.000000 0.130468 0.430022
O O9 0.272969 0.500000 0.500000
O O10 0.320137 0.361275 0.429979
O O11 0.214946 0.354927 0.492874
O O12 0.500000 0.850325 0.398807
O O13 0.577252 0.750000 0.336222
O O14 0.600671 0.878049 0.451858
O O15 0.567255 0.929262 0.291036
O O16 0.903055 0.750000 0.932352
O O17 0.917180 0.914679 0.871408
O O18 0.855930 0.250000 0.574121
#
# Coordination Sequence:
#
# PCOD9536830 Si02
#       7
#    16  16  16  16  16  16  16
#     4  11  23  39  61  90 129 167 209 263 319 386
#     4  10  22  41  65  95 128 166 216 269 321 384
#     4  10  19  37  60  87 122 165 204 256 320 384
#     4  10  24  44  64  90 129 174 220 269 322 387
#     4  11  23  38  61  94 128 170 220 266 323 392
#     4  12  22  39  64  93 128 170 213 267 327 382
#     4  10  22  40  63  90 126 168 212 266 327 386
#
# _framework density 21.086019
#
# number of rings (size 3 to 8) (size 9 to 14) (size 15 to 20)
#    0.000    1.429    2.857    2.571    2.000    2.571 
#    0.000    4.286    0.000    1.714    0.000    0.000 
#    0.000    0.000    0.000    0.000    0.000    0.000 
#
# Total GULP energy -312800.380456 kJ/mol
# GULP energy per Si atom -5585.721080 kJ/mol
# Density = 2.103803 g / cm^3
# Si number density = 21.086019 Si / 1000 Ang^3
#
#
#
# Elastic Constant Matrix: (Units=GPa)
#
#
# Indices 1 2 3 4 5 6 
#
# 1 83.5138 21.2513 21.4685 0.0000 0.0000 0.0000
# 2 21.2513 89.9131 49.5469 0.0000 0.0000 0.0000
# 3 21.4685 49.5469 74.5949 0.0000 0.0000 0.0000
# 4 0.0000 0.0000 0.0000 19.0375 0.0000 0.0000
# 5 0.0000 0.0000 0.0000 0.0000 20.4238 0.0000
# 6 0.0000 0.0000 0.0000 0.0000 0.0000 -2.5551
#
#
#
# Elastic Compliance Matrix: (Units=1/GPa)
#
#
# Indices 1 2 3 4 5 6 
#
# 1 0.013076 -0.001604 -0.002698 0.000000 0.000000 0.000000
# 2 -0.001604 0.017740 -0.011321 0.000000 0.000000 0.000000
# 3 -0.002698 -0.011321 0.021702 0.000000 0.000000 0.000000
# 4 0.000000 0.000000 0.000000 0.052528 0.000000 0.000000
# 5 0.000000 0.000000 0.000000 0.000000 0.048963 0.000000
# 6 0.000000 0.000000 0.000000 0.000000 0.000000 -0.391371
#
#
# Mechanical properties :
#
#
# Convention : Reuss Voigt Hill
#
# Bulk Modulus (GPa) = 47.01190 48.06170 47.53680
# Shear Modulus (GPa) = -25.12224 17.76490 -3.67867
#
# Velocity S-wave (km/s) = -3.45544 2.90573 -1.32227
# Velocity P-wave (km/s) = 2.53449 5.83955 4.50133
#
# Compressibility (1/GPa) = 0.02127121
#
# Stress axis : x y z
#
# Youngs Moduli (GPa) = 76.47756 56.37123 46.07883
#
# Poissons Ratio (x) = 0.09041 0.12432
# Poissons Ratio (y) = 0.12265 0.52167
# Poissons Ratio (z) = 0.20633 0.63819
#
# Static dielectric constant tensor:
#      x y z
#    x 1.764210 0.000000 0.000000 
#    y 0.000000 1.775790 0.000000 
#    z 0.000000 0.000000 1.772150 
# 
# From -- ./inp_files/36541.got.cif
#   From: 2010.05.17/outbox.cif.g08.bks.cpg/sg74_19_cif.got.tgz:36541.got - 2010.06.03 17:57:02.
