data_PCOD9536115
_publ_section_title
;
Structure prediction by ZEFSAII (Michael W. Deem and Ramdas Pophale) SiO2 
 PCOD9536115
Probable space group: I M M A
;
_chemical_formula_sum "Si O2"
_cell_formula_units_Z 56
_cell_length_a 13.508780
_cell_length_b 8.327097
_cell_length_c 24.065369
_cell_angle_alpha 90.000000
_cell_angle_beta 90.000000
_cell_angle_gamma 90.000000
_cell_volume 2707.087402
_symmetry_space_group_name_H-M "I M M A"
_symmetry_group_IT_number 74
_symmetry_cell_setting 'orthorhombic'
loop_
_space_group_symop_operation_xyz
x,y,z
-x,1/2-y,z
x,-y,-z
-x,1/2+y,-z
-x,-y,-z
x,1/2+y,-z
-x,y,z
x,1/2-y,z
1/2+x,1/2+y,1/2+z
1/2-x,-y,1/2+z
1/2+x,1/2-y,1/2-z
1/2-x,y,1/2-z
1/2-x,1/2-y,1/2-z
1/2+x,y,1/2-z
1/2-x,1/2+y,1/2+z
1/2+x,-y,1/2+z
loop_
_atom_site_type_symbol
_atom_site_label
_atom_site_fract_x
_atom_site_fract_y
_atom_site_fract_z
Si Si1 0.808701 0.934688 0.170257
Si Si2 0.111184 0.062387 0.277832
Si Si3 0.000000 0.056737 0.436277
Si Si4 0.280004 0.557333 0.936632
O O1 0.838231 0.750000 0.174132
O O2 0.876289 0.038321 0.211584
O O3 0.698081 0.959692 0.195121
O O4 0.799073 0.990107 0.106836
O O5 0.128092 0.250000 0.291777
O O6 0.000000 0.019796 0.294964
O O7 0.108923 0.004402 0.416595
O O8 0.000000 0.250000 0.432537
O O9 0.000000 0.000000 0.500000
O O10 0.277636 0.750000 0.935626
O O11 0.266644 0.500000 0.000000
#
# Coordination Sequence:
#
# PCOD9536115 Si02
#       4
#    16  16   8  16
#     4  11  22  35  54  82 112 143 179 219 268 323
#     4  10  21  38  59  80 105 140 181 226 272 316
#     4   8  16  28  44  66  96 134 172 210 251 300
#     4  10  19  33  51  75 107 143 182 220 265 316
#
# _framework density 20.686437999999999
#
# number of rings (size 3 to 8) (size 9 to 14) (size 15 to 20)
#    0.000    2.000    0.000    6.000    2.000    3.429 
#    0.000    0.000    0.000    0.857    0.000    0.000 
#    0.000    0.000    0.000    0.000    0.000    0.000 
#
# Total GULP energy -156291.937288 kJ/mol
# GULP energy per Si atom -5581.854903 kJ/mol
# Density = 2.063935 g / cm^3
# Si number density = 20.686438 Si / 1000 Ang^3
#
#
#
# Elastic Constant Matrix: (Units=GPa)
#
#
# Indices 1 2 3 4 5 6 
#
# 1 22.6354 -1.9056 -2.7865 0.0000 0.0000 0.0000
# 2 -1.9056 43.8908 0.1010 0.0000 0.0000 0.0000
# 3 -2.7865 0.1010 92.6785 0.0000 0.0000 0.0000
# 4 0.0000 0.0000 0.0000 29.7239 0.0000 0.0000
# 5 0.0000 0.0000 0.0000 0.0000 30.8221 0.0000
# 6 0.0000 0.0000 0.0000 0.0000 0.0000 8.4365
#
#
#
# Elastic Compliance Matrix: (Units=1/GPa)
#
#
# Indices 1 2 3 4 5 6 
#
# 1 0.044505 0.001929 0.001336 0.000000 0.000000 0.000000
# 2 0.001929 0.022868 0.000033 0.000000 0.000000 0.000000
# 3 0.001336 0.000033 0.010830 0.000000 0.000000 0.000000
# 4 0.000000 0.000000 0.000000 0.033643 0.000000 0.000000
# 5 0.000000 0.000000 0.000000 0.000000 0.032444 0.000000
# 6 0.000000 0.000000 0.000000 0.000000 0.000000 0.118532
#
#
# Mechanical properties :
#
#
# Convention : Reuss Voigt Hill
#
# Bulk Modulus (GPa) = 11.79249 16.66917 14.23083
# Shear Modulus (GPa) = 17.57518 24.71624 21.14571
#
# Velocity S-wave (km/s) = 2.91795 3.46034 3.20066
# Velocity P-wave (km/s) = 4.13105 4.90314 4.53356
#
# Compressibility (1/GPa) = 0.08479976
#
# Stress axis : x y z
#
# Youngs Moduli (GPa) = 22.46916 43.73012 92.33512
#
# Poissons Ratio (x) = -0.08437 -0.12336
# Poissons Ratio (y) = -0.04335 -0.00305
# Poissons Ratio (z) = -0.03002 -0.00145
#
# Static dielectric constant tensor:
#      x y z
#    x 1.747980 0.000000 0.000000 
#    y 0.000000 1.700760 0.000000 
#    z 0.000000 0.000000 1.787240 
# 
# From -- ./inp_files/47840.got.cif
#   From: 2010.05.17/outbox.cif.g08.bks.cpg/sg74_24_cif.got.tgz:47840.got - 2010.06.03 17:57:02.
