data_PCOD9536073
_publ_section_title
;
Structure prediction by ZEFSAII (Michael W. Deem and Ramdas Pophale) SiO2 
 PCOD9536073
Probable space group: I M M A
;
_chemical_formula_sum "Si O2"
_cell_formula_units_Z 112
_cell_length_a 15.091194
_cell_length_b 13.821036
_cell_length_c 26.885208
_cell_angle_alpha 90.000000
_cell_angle_beta 90.000000
_cell_angle_gamma 90.000000
_cell_volume 5607.607411
_symmetry_space_group_name_H-M "I M M A"
_symmetry_group_IT_number 74
_symmetry_cell_setting 'orthorhombic'
loop_
_space_group_symop_operation_xyz
x,y,z
-x,1/2-y,z
x,-y,-z
-x,1/2+y,-z
-x,-y,-z
x,1/2+y,-z
-x,y,z
x,1/2-y,z
1/2+x,1/2+y,1/2+z
1/2-x,-y,1/2+z
1/2+x,1/2-y,1/2-z
1/2-x,y,1/2-z
1/2-x,1/2-y,1/2-z
1/2+x,y,1/2-z
1/2-x,1/2+y,1/2+z
1/2+x,-y,1/2+z
loop_
_atom_site_type_symbol
_atom_site_label
_atom_site_fract_x
_atom_site_fract_y
_atom_site_fract_z
Si Si1 0.146392 0.441591 0.298396
Si Si2 0.604319 0.361530 0.837076
Si Si3 0.600836 0.977130 0.597544
Si Si4 0.095642 0.633281 0.595103
Si Si5 0.258131 0.363466 0.585124
Si Si6 0.847814 0.134668 0.194194
Si Si7 0.234332 0.365864 0.031412
O O1 0.133096 0.556942 0.297815
O O2 0.101440 0.404599 0.348776
O O3 0.112531 0.393968 0.247654
O O4 0.248526 0.409554 0.304720
O O5 0.500000 0.373167 0.848359
O O6 0.617795 0.250000 0.821068
O O7 0.667077 0.378873 0.884815
O O8 0.500000 0.002869 0.585883
O O9 0.604846 0.911638 0.646986
O O10 0.648005 0.917095 0.553509
O O11 0.663768 0.069622 0.605842
O O12 0.098943 0.750000 0.596521
O O13 0.180901 0.601528 0.563814
O O14 0.000000 0.604565 0.573474
O O15 0.280192 0.250000 0.589968
O O16 0.249970 0.385200 0.526547
O O17 0.842262 0.250000 0.189555
O O18 0.225287 0.250000 0.037538
#
# Coordination Sequence:
#
# PCOD9536073 Si02
#       7
#    16  16  16  16  16  16  16
#     4  11  20  37  62  90 123 163 197 243 294 359
#     4  10  21  39  65  95 126 161 202 244 292 357
#     4  12  25  41  61  86 119 160 207 259 310 360
#     4  10  19  32  56  91 128 161 194 239 299 368
#     4  10  22  42  64  87 119 161 206 254 305 355
#     4  11  23  40  64  92 121 157 200 248 303 366
#     4  10  21  38  60  87 123 160 201 251 304 364
#
# _framework density 19.972867999999998
#
# number of rings (size 3 to 8) (size 9 to 14) (size 15 to 20)
#    0.000    1.429    2.857    3.000    0.000    4.286 
#    0.000    6.429    0.000    3.429    0.000    0.000 
#    0.000    0.000    0.000    0.000    0.000    0.000 
#
# Total GULP energy -312927.142702 kJ/mol
# GULP energy per Si atom -5587.984691 kJ/mol
# Density = 1.992741 g / cm^3
# Si number density = 19.972868 Si / 1000 Ang^3
#
#
#
# Elastic Constant Matrix: (Units=GPa)
#
#
# Indices 1 2 3 4 5 6 
#
# 1 113.8917 53.9545 29.4729 0.0000 0.0000 0.0000
# 2 53.9545 118.2341 44.7941 0.0000 0.0000 0.0000
# 3 29.4729 44.7941 61.6871 0.0000 0.0000 0.0000
# 4 0.0000 0.0000 0.0000 34.5763 0.0000 0.0000
# 5 0.0000 0.0000 0.0000 0.0000 -6.6607 0.0000
# 6 0.0000 0.0000 0.0000 0.0000 0.0000 17.7961
#
#
#
# Elastic Compliance Matrix: (Units=1/GPa)
#
#
# Indices 1 2 3 4 5 6 
#
# 1 0.011436 -0.004343 -0.002310 0.000000 0.000000 0.000000
# 2 -0.004343 0.013317 -0.007595 0.000000 0.000000 0.000000
# 3 -0.002310 -0.007595 0.022830 0.000000 0.000000 0.000000
# 4 0.000000 0.000000 0.000000 0.028922 0.000000 0.000000
# 5 0.000000 0.000000 0.000000 0.000000 -0.150134 0.000000
# 6 0.000000 0.000000 0.000000 0.000000 0.000000 0.056192
#
#
# Mechanical properties :
#
#
# Convention : Reuss Voigt Hill
#
# Bulk Modulus (GPa) = 52.39468 61.13952 56.76710
# Shear Modulus (GPa) = 287.01104 20.18176 153.59640
#
# Velocity S-wave (km/s) = 12.00052 3.18222 8.77892
# Velocity P-wave (km/s) = 14.77520 6.64679 11.45614
#
# Compressibility (1/GPa) = 0.01908591
#
# Stress axis : x y z
#
# Youngs Moduli (GPa) = 87.44610 75.08991 43.80273
#
# Poissons Ratio (x) = 0.32615 0.10117
# Poissons Ratio (y) = 0.37982 0.33269
# Poissons Ratio (z) = 0.20198 0.57032
#
# Static dielectric constant tensor:
#      x y z
#    x 1.710150 0.000000 0.000000 
#    y 0.000000 1.732470 0.000000 
#    z 0.000000 0.000000 1.693320 
# 
# From -- ./inp_files/67197.got.cif
#   From: 2010.05.17/outbox.cif.g08.bks.cpg/sg74_34_cif.got.tgz:67197.got - 2010.06.03 17:57:02.
