data_PCOD9536105
_publ_section_title
;
Structure prediction by ZEFSAII (Michael W. Deem and Ramdas Pophale) SiO2 
 PCOD9536105
Probable space group: I M M A
;
_chemical_formula_sum "Si O2"
_cell_formula_units_Z 120
_cell_length_a 9.459582
_cell_length_b 27.496508
_cell_length_c 28.638780
_cell_angle_alpha 90.000000
_cell_angle_beta 90.000000
_cell_angle_gamma 90.000000
_cell_volume 7449.103393
_symmetry_space_group_name_H-M "I M M A"
_symmetry_group_IT_number 74
_symmetry_cell_setting 'orthorhombic'
loop_
_space_group_symop_operation_xyz
x,y,z
-x,1/2-y,z
x,-y,-z
-x,1/2+y,-z
-x,-y,-z
x,1/2+y,-z
-x,y,z
x,1/2-y,z
1/2+x,1/2+y,1/2+z
1/2-x,-y,1/2+z
1/2+x,1/2-y,1/2-z
1/2-x,y,1/2-z
1/2-x,1/2-y,1/2-z
1/2+x,y,1/2-z
1/2-x,1/2+y,1/2+z
1/2+x,-y,1/2+z
loop_
_atom_site_type_symbol
_atom_site_label
_atom_site_fract_x
_atom_site_fract_y
_atom_site_fract_z
Si Si1 0.832276 0.437382 0.200588
Si Si2 0.655715 0.825844 0.547982
Si Si3 0.663663 0.750000 0.796558
Si Si4 0.838624 0.330420 0.157249
Si Si5 0.670129 0.087234 0.936076
Si Si6 0.838769 0.061015 0.026782
Si Si7 0.668903 0.008287 0.616054
Si Si8 0.169413 0.196861 0.539600
O O1 0.750000 0.437451 0.250000
O O2 0.815861 0.386271 0.172560
O O3 0.791727 0.479678 0.163541
O O4 0.000000 0.442436 0.210145
O O5 0.500000 0.809524 0.531883
O O6 0.667628 0.817561 0.602638
O O7 0.661098 0.883974 0.544456
O O8 0.771327 0.805419 0.513072
O O9 0.500000 0.750000 0.788977
O O10 0.750000 0.750000 0.750000
O O11 0.716383 0.701814 0.821686
O O12 0.000000 0.317904 0.172883
O O13 0.500000 0.083966 0.934712
O O14 0.743020 0.056872 0.894656
O O15 0.712393 0.144793 0.937640
O O16 0.730780 0.062287 0.983622
O O17 0.000000 0.051206 0.009995
O O18 0.807864 0.027011 0.071045
O O19 0.500000 0.017867 0.617579
O O20 0.213292 0.250000 0.559638
O O21 0.000000 0.196047 0.539047
#
# Coordination Sequence:
#
# PCOD9536105 Si02
#       8
#    16  16   8  16  16  16  16  16
#     4  10  21  37  56  76  98 127 164 206 254 305
#     4   9  17  30  49  71  92 121 161 201 237 281
#     4  12  26  40  52  68  88 116 156 206 262 310
#     4  10  20  37  56  72  94 122 160 209 255 299
#     4  10  20  31  46  72 101 129 163 203 243 285
#     4   9  16  30  49  68  93 128 162 191 232 286
#     4  10  19  33  51  71  98 131 162 196 242 299
#     4   9  19  34  48  65  98 136 166 202 244 286
#
# _framework density 16.109321000000001
#
# number of rings (size 3 to 8) (size 9 to 14) (size 15 to 20)
#    0.000    2.267    1.333    1.800    0.933    5.600 
#    0.000    0.000    0.000    0.000    0.000    0.000 
#    0.000    0.533    0.000    1.200    0.000    1.867 
#
# Total GULP energy -334182.291565 kJ/mol
# GULP energy per Si atom -5569.704859 kJ/mol
# Density = 1.607266 g / cm^3
# Si number density = 16.109321 Si / 1000 Ang^3
#
#
#
# Elastic Constant Matrix: (Units=GPa)
#
#
# Indices 1 2 3 4 5 6 
#
# 1 55.8214 38.1562 28.5266 0.0000 0.0000 0.0000
# 2 38.1562 105.2986 32.5745 0.0000 0.0000 0.0000
# 3 28.5266 32.5745 41.0828 0.0000 0.0000 0.0000
# 4 0.0000 0.0000 0.0000 14.5678 0.0000 0.0000
# 5 0.0000 0.0000 0.0000 0.0000 23.0279 0.0000
# 6 0.0000 0.0000 0.0000 0.0000 0.0000 23.4836
#
#
#
# Elastic Compliance Matrix: (Units=1/GPa)
#
#
# Indices 1 2 3 4 5 6 
#
# 1 0.030325 -0.005929 -0.016356 0.000000 0.000000 0.000000
# 2 -0.005929 0.013743 -0.006779 0.000000 0.000000 0.000000
# 3 -0.016356 -0.006779 0.041074 0.000000 0.000000 0.000000
# 4 0.000000 0.000000 0.000000 0.068645 0.000000 0.000000
# 5 0.000000 0.000000 0.000000 0.000000 0.043426 0.000000
# 6 0.000000 0.000000 0.000000 0.000000 0.000000 0.042583
#
#
# Mechanical properties :
#
#
# Convention : Reuss Voigt Hill
#
# Bulk Modulus (GPa) = 37.01970 44.52417 40.77194
# Shear Modulus (GPa) = 16.29046 19.07888 17.68467
#
# Velocity S-wave (km/s) = 3.18346 3.44515 3.31689
# Velocity P-wave (km/s) = 6.04506 6.59729 6.32720
#
# Compressibility (1/GPa) = 0.02701264
#
# Stress axis : x y z
#
# Youngs Moduli (GPa) = 32.97559 72.76695 24.34653
#
# Poissons Ratio (x) = 0.43144 0.39821
# Poissons Ratio (y) = 0.19551 0.16506
# Poissons Ratio (z) = 0.53935 0.49332
#
# Static dielectric constant tensor:
#      x y z
#    x 1.536960 0.000000 0.000000 
#    y 0.000000 1.590340 0.000000 
#    z 0.000000 0.000000 1.479520 
# 
# From -- ./inp_files/65039.got.cif
#   From: 2010.05.17/outbox.cif.g08.bks.cpg/sg74_33_cif.got.tgz:65039.got - 2010.06.03 17:57:02.
