data_PCOD9536291
_publ_section_title
;
Structure prediction by ZEFSAII (Michael W. Deem and Ramdas Pophale) SiO2 
 PCOD9536291
Probable space group: I M M A
;
_chemical_formula_sum "Si O2"
_cell_formula_units_Z 64
_cell_length_a 18.113202
_cell_length_b 23.750641
_cell_length_c 7.906754
_cell_angle_alpha 90.000000
_cell_angle_beta 90.000000
_cell_angle_gamma 90.000000
_cell_volume 3401.486821
_symmetry_space_group_name_H-M "I M M A"
_symmetry_group_IT_number 74
_symmetry_cell_setting 'orthorhombic'
loop_
_space_group_symop_operation_xyz
x,y,z
-x,1/2-y,z
x,-y,-z
-x,1/2+y,-z
-x,-y,-z
x,1/2+y,-z
-x,y,z
x,1/2-y,z
1/2+x,1/2+y,1/2+z
1/2-x,-y,1/2+z
1/2+x,1/2-y,1/2-z
1/2-x,y,1/2-z
1/2-x,1/2-y,1/2-z
1/2+x,y,1/2-z
1/2-x,1/2+y,1/2+z
1/2+x,-y,1/2+z
loop_
_atom_site_type_symbol
_atom_site_label
_atom_site_fract_x
_atom_site_fract_y
_atom_site_fract_z
Si Si1 0.087143 0.129427 0.849685
Si Si2 0.780291 0.633329 0.939684
Si Si3 0.414350 0.750000 0.157819
Si Si4 0.225483 0.250000 0.447219
Si Si5 0.185110 0.542531 0.361529
O O1 0.097222 0.191443 0.762526
O O2 0.124772 0.079135 0.739812
O O3 0.000000 0.120767 0.869494
O O4 0.132904 0.127190 0.025536
O O5 0.750000 0.632122 0.750000
O O6 0.759401 0.693440 0.018869
O O7 0.735022 0.587576 0.041044
O O8 0.500000 0.750000 0.106140
O O9 0.360148 0.750000 0.996450
O O10 0.250000 0.250000 0.250000
O O11 0.152831 0.500000 0.500000
O O12 0.250000 0.512454 0.250000
#
# Coordination Sequence:
#
# PCOD9536291 Si02
#       5
#    16  16   8   8  16
#     4  10  21  36  57  85 116 152 188 232 288 341
#     4  10  20  35  56  83 113 147 190 235 277 336
#     4  10  19  35  58  86 121 152 186 234 290 339
#     4  10  19  33  55  88 113 150 194 231 274 337
#     4  10  20  35  58  82 110 149 192 240 279 335
#
# _framework density 18.815301999999999
#
# number of rings (size 3 to 8) (size 9 to 14) (size 15 to 20)
#    0.000    2.000    2.500    1.500    0.000    1.500 
#    0.000    6.250    0.000   25.500    0.000    0.000 
#    0.000    0.000    0.000    0.000    0.000    0.000 
#
# Total GULP energy -178145.858106 kJ/mol
# GULP energy per Si atom -5567.058066 kJ/mol
# Density = 1.877248 g / cm^3
# Si number density = 18.815302 Si / 1000 Ang^3
#
#
#
# Elastic Constant Matrix: (Units=GPa)
#
#
# Indices 1 2 3 4 5 6 
#
# 1 179.7315 32.2790 73.0130 0.0000 0.0000 0.0000
# 2 32.2790 80.4022 21.1274 0.0000 0.0000 0.0000
# 3 73.0130 21.1274 79.5072 0.0000 0.0000 0.0000
# 4 0.0000 0.0000 0.0000 -7.4433 0.0000 0.0000
# 5 0.0000 0.0000 0.0000 0.0000 28.5795 0.0000
# 6 0.0000 0.0000 0.0000 0.0000 0.0000 15.6917
#
#
#
# Elastic Compliance Matrix: (Units=1/GPa)
#
#
# Indices 1 2 3 4 5 6 
#
# 1 0.009053 -0.001559 -0.007899 0.000000 0.000000 0.000000
# 2 -0.001559 0.013640 -0.002193 0.000000 0.000000 0.000000
# 3 -0.007899 -0.002193 0.020414 0.000000 0.000000 0.000000
# 4 0.000000 0.000000 0.000000 -0.134350 0.000000 0.000000
# 5 0.000000 0.000000 0.000000 0.000000 0.034990 0.000000
# 6 0.000000 0.000000 0.000000 0.000000 0.000000 0.063728
#
#
# Mechanical properties :
#
#
# Convention : Reuss Voigt Hill
#
# Bulk Modulus (GPa) = 50.49309 65.83106 58.16208
# Shear Modulus (GPa) = 133.76932 21.58034 77.67483
#
# Velocity S-wave (km/s) = 8.44099 3.39035 6.43214
# Velocity P-wave (km/s) = 11.04060 7.09859 9.28130
#
# Compressibility (1/GPa) = 0.01980469
#
# Stress axis : x y z
#
# Youngs Moduli (GPa) = 110.46495 73.31646 48.98584
#
# Poissons Ratio (x) = 0.11428 0.38694
# Poissons Ratio (y) = 0.17218 0.10743
# Poissons Ratio (z) = 0.87257 0.16078
#
# Static dielectric constant tensor:
#      x y z
#    x 1.639410 0.000000 0.000000 
#    y 0.000000 1.705020 0.000000 
#    z 0.000000 0.000000 1.766710 
# 
# From -- ./inp_files/8848.got.cif
#   From: 2010.05.17/outbox.cif.g08.bks.cpg/sg74_5_cif.got.tgz:8848.got - 2010.06.03 17:57:02.
