data_PCOD9536442
_publ_section_title
;
Structure prediction by ZEFSAII (Michael W. Deem and Ramdas Pophale) SiO2 
 PCOD9536442
Probable space group: I M M A
;
_chemical_formula_sum "Si O2"
_cell_formula_units_Z 96
_cell_length_a 22.230806
_cell_length_b 25.309380
_cell_length_c 9.514974
_cell_angle_alpha 90.000000
_cell_angle_beta 90.000000
_cell_angle_gamma 90.000000
_cell_volume 5353.580299
_symmetry_space_group_name_H-M "I M M A"
_symmetry_group_IT_number 74
_symmetry_cell_setting 'orthorhombic'
loop_
_space_group_symop_operation_xyz
x,y,z
-x,1/2-y,z
x,-y,-z
-x,1/2+y,-z
-x,-y,-z
x,1/2+y,-z
-x,y,z
x,1/2-y,z
1/2+x,1/2+y,1/2+z
1/2-x,-y,1/2+z
1/2+x,1/2-y,1/2-z
1/2-x,y,1/2-z
1/2-x,1/2-y,1/2-z
1/2+x,y,1/2-z
1/2-x,1/2+y,1/2+z
1/2+x,-y,1/2+z
loop_
_atom_site_type_symbol
_atom_site_label
_atom_site_fract_x
_atom_site_fract_y
_atom_site_fract_z
Si Si1 0.322624 0.188102 0.261928
Si Si2 0.144611 0.383252 0.480285
Si Si3 0.571241 0.411348 0.759625
Si Si4 0.618906 0.400974 0.453439
Si Si5 0.431585 0.464086 0.204277
Si Si6 0.754193 0.447998 0.079049
O O1 0.331097 0.250000 0.286541
O O2 0.250000 0.178505 0.250000
O O3 0.354073 0.168099 0.118140
O O4 0.354139 0.151556 0.379765
O O5 0.110982 0.380243 0.626962
O O6 0.111816 0.431610 0.398079
O O7 0.213568 0.401413 0.483428
O O8 0.500000 0.404490 0.783445
O O9 0.589242 0.393847 0.603752
O O10 0.584479 0.474454 0.775851
O O11 0.574121 0.432236 0.350046
O O12 0.677301 0.438174 0.462070
O O13 0.500000 0.461612 0.151395
O O14 0.750000 0.450389 0.250000
O O15 0.732403 0.500000 0.000000
#
# Coordination Sequence:
#
# PCOD9536442 Si02
#       6
#    16  16  16  16  16  16
#     4  10  20  42  65  82 106 141 192 246 294 345
#     4  11  21  36  55  85 116 149 193 236 278 338
#     4  11  23  36  55  84 120 160 190 226 276 335
#     4  11  21  36  55  85 116 149 193 236 278 338
#     4  10  19  34  55  79 115 164 200 221 259 330
#     4  12  22  34  52  86 123 156 182 227 285 341
#
# _framework density 17.931925
#
# number of rings (size 3 to 8) (size 9 to 14) (size 15 to 20)
#    0.000    1.167    5.000    4.000    2.333    2.667 
#    0.000    0.833    0.000   21.000    0.000    0.000 
#    0.000    0.000    0.000    0.000    0.000    0.000 
#
# Total GULP energy -267891.350027 kJ/mol
# GULP energy per Si atom -5581.069792 kJ/mol
# Density = 1.789111 g / cm^3
# Si number density = 17.931925 Si / 1000 Ang^3
#
#
#
# Elastic Constant Matrix: (Units=GPa)
#
#
# Indices 1 2 3 4 5 6 
#
# 1 65.8258 11.4544 19.3400 0.0000 0.0000 0.0000
# 2 11.4544 84.1979 15.6837 0.0000 0.0000 0.0000
# 3 19.3400 15.6837 106.3248 0.0000 0.0000 0.0000
# 4 0.0000 0.0000 0.0000 12.3132 0.0000 0.0000
# 5 0.0000 0.0000 0.0000 0.0000 15.5847 0.0000
# 6 0.0000 0.0000 0.0000 0.0000 0.0000 19.3269
#
#
#
# Elastic Compliance Matrix: (Units=1/GPa)
#
#
# Indices 1 2 3 4 5 6 
#
# 1 0.016285 -0.001711 -0.002710 0.000000 0.000000 0.000000
# 2 -0.001711 0.012392 -0.001517 0.000000 0.000000 0.000000
# 3 -0.002710 -0.001517 0.010122 0.000000 0.000000 0.000000
# 4 0.000000 0.000000 0.000000 0.081214 0.000000 0.000000
# 5 0.000000 0.000000 0.000000 0.000000 0.064166 0.000000
# 6 0.000000 0.000000 0.000000 0.000000 0.000000 0.051741
#
#
# Mechanical properties :
#
#
# Convention : Reuss Voigt Hill
#
# Bulk Modulus (GPa) = 37.14082 38.81164 37.97623
# Shear Modulus (GPa) = 19.47272 23.43631 21.45452
#
# Velocity S-wave (km/s) = 3.29891 3.61911 3.46272
# Velocity P-wave (km/s) = 5.93865 6.25738 6.10010
#
# Compressibility (1/GPa) = 0.02692456
#
# Stress axis : x y z
#
# Youngs Moduli (GPa) = 61.40433 80.69694 98.79673
#
# Poissons Ratio (x) = 0.13805 0.26773
# Poissons Ratio (y) = 0.10505 0.14985
# Poissons Ratio (z) = 0.16640 0.12240
#
# Static dielectric constant tensor:
#      x y z
#    x 1.628200 0.000000 0.000000 
#    y 0.000000 1.592260 0.000000 
#    z 0.000000 0.000000 1.642120 
# 
# From -- ./inp_files/12687.got.cif
#   From: 2010.05.17/outbox.cif.g08.bks.cpg/sg74_7_cif.got.tgz:12687.got - 2010.06.03 17:57:02.
