data_PCOD9536968
_publ_section_title
;
Structure prediction by ZEFSAII (Michael W. Deem and Ramdas Pophale) SiO2 
 PCOD9536968
Probable space group: I M M A
;
_chemical_formula_sum "Si O2"
_cell_formula_units_Z 88
_cell_length_a 22.886739
_cell_length_b 7.422528
_cell_length_c 27.701650
_cell_angle_alpha 90.000000
_cell_angle_beta 90.000000
_cell_angle_gamma 90.000000
_cell_volume 4705.885969
_symmetry_space_group_name_H-M "I M M A"
_symmetry_group_IT_number 74
_symmetry_cell_setting 'orthorhombic'
loop_
_space_group_symop_operation_xyz
x,y,z
-x,1/2-y,z
x,-y,-z
-x,1/2+y,-z
-x,-y,-z
x,1/2+y,-z
-x,y,z
x,1/2-y,z
1/2+x,1/2+y,1/2+z
1/2-x,-y,1/2+z
1/2+x,1/2-y,1/2-z
1/2-x,y,1/2-z
1/2-x,1/2-y,1/2-z
1/2+x,y,1/2-z
1/2-x,1/2+y,1/2+z
1/2+x,-y,1/2+z
loop_
_atom_site_type_symbol
_atom_site_label
_atom_site_fract_x
_atom_site_fract_y
_atom_site_fract_z
Si Si1 0.000000 0.964850 0.441742
Si Si2 0.837658 0.967677 0.125893
Si Si3 0.686630 0.250000 0.298067
Si Si4 0.378845 0.030056 0.889809
Si Si5 0.065492 0.964670 0.052707
Si Si6 0.171658 0.250000 0.313556
Si Si7 0.764936 0.536784 0.444760
O O1 0.941420 0.023799 0.412862
O O2 0.000000 0.750000 0.438254
O O3 0.000000 0.000000 0.500000
O O4 0.836571 0.750000 0.130856
O O5 0.894188 0.025868 0.095737
O O6 0.782944 0.029283 0.093038
O O7 0.835442 0.070298 0.175795
O O8 0.756924 0.250000 0.309819
O O9 0.661928 0.250000 0.243884
O O10 0.378493 0.250000 0.882329
O O11 0.329548 0.979384 0.929431
O O12 0.356560 0.920871 0.842391
O O13 0.061770 0.750000 0.057152
O O14 0.000000 0.040063 0.053300
O O15 0.091946 0.000000 0.000000
O O16 0.750939 0.500000 0.500000
O O17 0.764008 0.750000 0.439279
#
# Coordination Sequence:
#
# PCOD9536968 Si02
#       7
#     8  16   8  16  16   8  16
#     4  10  22  38  62  96 130 172 208 245 307 377
#     4  10  21  37  55  83 118 149 192 250 297 355
#     4  11  24  40  63  92 109 152 213 249 318 352
#     4  10  22  40  59  88 125 160 201 248 301 361
#     4   9  18  32  52  80 114 155 190 224 286 353
#     4  11  24  41  66  87 114 158 201 263 308 357
#     4  10  20  31  51  82 117 156 188 228 292 354
#
# _framework density 18.699985000000002
#
# number of rings (size 3 to 8) (size 9 to 14) (size 15 to 20)
#    0.000    2.000    1.818    1.091    5.091    0.727 
#    0.000    1.818    4.000    0.000    0.000    0.000 
#    0.000    0.000    0.000    0.000    0.000    0.000 
#
# Total GULP energy -245175.550014 kJ/mol
# GULP energy per Si atom -5572.171591 kJ/mol
# Density = 1.865742 g / cm^3
# Si number density = 18.699985 Si / 1000 Ang^3
#
#
#
# Elastic Constant Matrix: (Units=GPa)
#
#
# Indices 1 2 3 4 5 6 
#
# 1 79.4544 22.8751 43.7403 0.0000 0.0000 0.0000
# 2 22.8751 80.1264 35.5625 0.0000 0.0000 0.0000
# 3 43.7403 35.5625 147.2770 0.0000 0.0000 0.0000
# 4 0.0000 0.0000 0.0000 25.4643 0.0000 0.0000
# 5 0.0000 0.0000 0.0000 0.0000 31.4985 0.0000
# 6 0.0000 0.0000 0.0000 0.0000 0.0000 23.1151
#
#
#
# Elastic Compliance Matrix: (Units=1/GPa)
#
#
# Indices 1 2 3 4 5 6 
#
# 1 0.015541 -0.002675 -0.003970 0.000000 0.000000 0.000000
# 2 -0.002675 0.014439 -0.002692 0.000000 0.000000 0.000000
# 3 -0.003970 -0.002692 0.008619 0.000000 0.000000 0.000000
# 4 0.000000 0.000000 0.000000 0.039271 0.000000 0.000000
# 5 0.000000 0.000000 0.000000 0.000000 0.031748 0.000000
# 6 0.000000 0.000000 0.000000 0.000000 0.000000 0.043262
#
#
# Mechanical properties :
#
#
# Convention : Reuss Voigt Hill
#
# Bulk Modulus (GPa) = 50.18687 56.80153 53.49420
# Shear Modulus (GPa) = 28.05926 29.66092 28.86009
#
# Velocity S-wave (km/s) = 3.87783 3.98697 3.93278
# Velocity P-wave (km/s) = 6.85173 7.18580 7.02075
#
# Compressibility (1/GPa) = 0.01992553
#
# Stress axis : x y z
#
# Youngs Moduli (GPa) = 64.34447 69.25805 116.02329
#
# Poissons Ratio (x) = 0.18526 0.46059
# Poissons Ratio (y) = 0.17212 0.31234
# Poissons Ratio (z) = 0.25543 0.18645
#
# Static dielectric constant tensor:
#      x y z
#    x 1.692030 0.000000 0.000000 
#    y 0.000000 1.697700 0.000000 
#    z 0.000000 0.000000 1.686700 
# 
# From -- ./inp_files/54571.got.cif
#   From: 2010.05.17/outbox.cif.g08.bks.cpg/sg74_28_cif.got.tgz:54571.got - 2010.06.03 17:57:02.
