data_PCOD9536576
_publ_section_title
;
Structure prediction by ZEFSAII (Michael W. Deem and Ramdas Pophale) SiO2 
 PCOD9536576
Probable space group: I M M A
;
_chemical_formula_sum "Si O2"
_cell_formula_units_Z 112
_cell_length_a 14.553378
_cell_length_b 28.165266
_cell_length_c 13.804582
_cell_angle_alpha 90.000000
_cell_angle_beta 90.000000
_cell_angle_gamma 90.000000
_cell_volume 5658.494884
_symmetry_space_group_name_H-M "I M M A"
_symmetry_group_IT_number 74
_symmetry_cell_setting 'orthorhombic'
loop_
_space_group_symop_operation_xyz
x,y,z
-x,1/2-y,z
x,-y,-z
-x,1/2+y,-z
-x,-y,-z
x,1/2+y,-z
-x,y,z
x,1/2-y,z
1/2+x,1/2+y,1/2+z
1/2-x,-y,1/2+z
1/2+x,1/2-y,1/2-z
1/2-x,y,1/2-z
1/2-x,1/2-y,1/2-z
1/2+x,y,1/2-z
1/2-x,1/2+y,1/2+z
1/2+x,-y,1/2+z
loop_
_atom_site_type_symbol
_atom_site_label
_atom_site_fract_x
_atom_site_fract_y
_atom_site_fract_z
Si Si1 0.890214 0.572975 0.441921
Si Si2 0.151242 0.802296 0.800489
Si Si3 0.606833 0.304343 0.525282
Si Si4 0.390439 0.555243 0.478834
Si Si5 0.727712 0.621379 0.362026
Si Si6 0.107071 0.091738 0.184330
Si Si7 0.388856 0.524948 0.852598
O O1 0.824907 0.616396 0.416977
O O2 0.867666 0.552983 0.548506
O O3 0.864871 0.529967 0.368261
O O4 0.000000 0.581691 0.436513
O O5 0.108462 0.750000 0.776398
O O6 0.250000 0.801651 0.750000
O O7 0.112216 0.854501 0.775949
O O8 0.149255 0.804197 0.917315
O O9 0.500000 0.320577 0.516629
O O10 0.605705 0.250000 0.558857
O O11 0.665816 0.336406 0.596086
O O12 0.374455 0.500000 0.500000
O O13 0.500000 0.561522 0.462248
O O14 0.332416 0.574973 0.389739
O O15 0.358267 0.584277 0.574837
O O16 0.750000 0.625776 0.250000
O O17 0.146170 0.053935 0.260493
O O18 0.000000 0.079829 0.174011
O O19 0.500000 0.524940 0.847740
#
# Coordination Sequence:
#
# PCOD9536576 Si02
#       7
#    16  16  16  16  16  16  16
#     4   9  20  39  57  80 123 171 210 255 310 377
#     4  10  21  36  58  93 128 160 202 257 318 384
#     4  10  22  45  73  95 124 169 218 269 329 397
#     4  10  23  41  59  88 132 169 210 269 324 380
#     4  12  26  39  61  96 124 159 216 278 329 387
#     4  10  19  34  61  90 118 163 212 255 310 376
#     4   8  17  34  56  81 114 163 216 250 289 366
#
# _framework density 19.793248999999999
#
# number of rings (size 3 to 8) (size 9 to 14) (size 15 to 20)
#    0.000    2.143    1.429    1.714    6.000    2.286 
#    0.000    0.000    0.000    0.429    0.000    0.000 
#    0.000    0.000    0.000    0.000    0.000    0.000 
#
# Total GULP energy -312334.568679 kJ/mol
# GULP energy per Si atom -5577.403012 kJ/mol
# Density = 1.974820 g / cm^3
# Si number density = 19.793249 Si / 1000 Ang^3
#
#
#
# Elastic Constant Matrix: (Units=GPa)
#
#
# Indices 1 2 3 4 5 6 
#
# 1 111.7201 40.3665 57.4463 0.0000 0.0000 0.0000
# 2 40.3665 79.5491 29.9236 0.0000 0.0000 0.0000
# 3 57.4463 29.9236 91.1849 -0.0004 0.0003 -0.0001
# 4 0.0000 0.0000 -0.0004 8.3344 0.0001 -0.0001
# 5 0.0000 0.0000 0.0003 0.0001 20.3293 0.0000
# 6 0.0000 0.0000 -0.0001 -0.0001 0.0000 48.4348
#
#
#
# Elastic Compliance Matrix: (Units=1/GPa)
#
#
# Indices 1 2 3 4 5 6 
#
# 1 0.014516 -0.004479 -0.007675 0.000000 0.000000 0.000000
# 2 -0.004479 0.015723 -0.002338 0.000000 0.000000 0.000000
# 3 -0.007675 -0.002338 0.016569 0.000001 0.000000 0.000000
# 4 0.000000 0.000000 0.000001 0.119984 0.000000 0.000000
# 5 0.000000 0.000000 0.000000 0.000000 0.049190 0.000000
# 6 0.000000 0.000000 0.000000 0.000000 0.000000 0.020646
#
#
# Mechanical properties :
#
#
# Convention : Reuss Voigt Hill
#
# Bulk Modulus (GPa) = 56.10377 59.76965 57.93671
# Shear Modulus (GPa) = 18.41255 25.73423 22.07339
#
# Velocity S-wave (km/s) = 3.05330 3.60967 3.34308
# Velocity P-wave (km/s) = 6.39035 6.90185 6.65102
#
# Compressibility (1/GPa) = 0.01782411
#
# Stress axis : x y z
#
# Youngs Moduli (GPa) = 68.89073 63.60071 60.35257
#
# Poissons Ratio (x) = 0.28485 0.46321
# Poissons Ratio (y) = 0.30855 0.14111
# Poissons Ratio (z) = 0.52874 0.14871
#
# Static dielectric constant tensor:
#      x y z
#    x 1.732230 0.000000 0.000000 
#    y 0.000000 1.743810 0.000000 
#    z 0.000000 0.000000 1.706320 
# 
# From -- ./inp_files/21184.got.cif
#   From: 2010.05.17/outbox.cif.g08.bks.cpg/sg74_11_cif.got.tgz:21184.got - 2010.06.03 17:57:02.
