data_PCOD9536240
_publ_section_title
;
Structure prediction by ZEFSAII (Michael W. Deem and Ramdas Pophale) SiO2 
 PCOD9536240
Probable space group: I M M A
;
_chemical_formula_sum "Si O2"
_cell_formula_units_Z 128
_cell_length_a 26.947632
_cell_length_b 23.759057
_cell_length_c 11.231949
_cell_angle_alpha 90.000000
_cell_angle_beta 90.000000
_cell_angle_gamma 90.000000
_cell_volume 7191.258994
_symmetry_space_group_name_H-M "I M M A"
_symmetry_group_IT_number 74
_symmetry_cell_setting 'orthorhombic'
loop_
_space_group_symop_operation_xyz
x,y,z
-x,1/2-y,z
x,-y,-z
-x,1/2+y,-z
-x,-y,-z
x,1/2+y,-z
-x,y,z
x,1/2-y,z
1/2+x,1/2+y,1/2+z
1/2-x,-y,1/2+z
1/2+x,1/2-y,1/2-z
1/2-x,y,1/2-z
1/2-x,1/2-y,1/2-z
1/2+x,y,1/2-z
1/2-x,1/2+y,1/2+z
1/2+x,-y,1/2+z
loop_
_atom_site_type_symbol
_atom_site_label
_atom_site_fract_x
_atom_site_fract_y
_atom_site_fract_z
Si Si1 0.557783 0.925544 0.110289
Si Si2 0.158134 0.184751 0.962725
Si Si3 0.444086 0.059183 0.160863
Si Si4 0.139982 0.599115 0.827237
Si Si5 0.654595 0.114349 0.747641
Si Si6 0.788787 0.993263 0.138334
Si Si7 0.303362 0.311540 0.184747
Si Si8 0.724455 0.186549 0.912936
O O1 0.500000 0.906501 0.133869
O O2 0.605510 0.903319 0.181075
O O3 0.557575 0.992148 0.139397
O O4 0.568260 0.916320 0.969807
O O5 0.149539 0.250000 0.990709
O O6 0.136611 0.164144 0.838564
O O7 0.217390 0.177350 0.939585
O O8 0.139010 0.142040 0.062571
O O9 0.500000 0.075836 0.187764
O O10 0.410234 0.077198 0.269756
O O11 0.173988 0.545792 0.855374
O O12 0.165601 0.636188 0.725994
O O13 0.679512 0.063461 0.670005
O O14 0.697624 0.140240 0.832413
O O15 0.750000 0.997910 0.250000
O O16 0.768430 0.000000 0.000000
O O17 0.323978 0.250000 0.219386
O O18 0.250000 0.315242 0.250000
O O19 0.298338 0.313389 0.043996
O O20 0.718198 0.250000 0.862153
#
# Coordination Sequence:
#
# PCOD9536240 Si02
#       8
#    16  16  16  16  16  16  16  16
#     4   9  19  38  61  88 117 151 195 243 299 366
#     4  11  23  38  58  80 114 159 202 244 288 346
#     4   9  19  37  61  88 117 151 196 243 294 365
#     4  12  21  36  58  83 120 154 199 242 305 349
#     4  12  22  38  60  84 119 155 202 244 303 352
#     4  12  27  40  55  88 132 170 197 242 303 373
#     4  10  19  33  54  82 114 153 200 242 286 345
#     4  10  21  37  58  85 116 158 206 246 286 346
#
# _framework density 17.799388
#
# number of rings (size 3 to 8) (size 9 to 14) (size 15 to 20)
#    0.000    1.375    3.750    3.750    0.000    2.000 
#    0.000    0.625    0.000    6.000    0.000    8.750 
#    0.000    0.000    0.000    0.000    0.000    0.000 
#
# Total GULP energy -356699.206790 kJ/mol
# GULP energy per Si atom -5573.425106 kJ/mol
# Density = 1.775888 g / cm^3
# Si number density = 17.799388 Si / 1000 Ang^3
#
#
#
# Elastic Constant Matrix: (Units=GPa)
#
#
# Indices 1 2 3 4 5 6 
#
# 1 60.3843 16.9753 46.7187 0.0000 0.0000 0.0000
# 2 16.9753 74.2542 39.6008 0.0000 0.0000 0.0000
# 3 46.7187 39.6008 116.7960 0.0000 0.0000 0.0000
# 4 0.0000 0.0000 0.0000 35.6066 0.0000 0.0000
# 5 0.0000 0.0000 0.0000 0.0000 24.8702 0.0000
# 6 0.0000 0.0000 0.0000 0.0000 0.0000 20.5336
#
#
#
# Elastic Compliance Matrix: (Units=1/GPa)
#
#
# Indices 1 2 3 4 5 6 
#
# 1 0.023995 -0.000448 -0.009446 0.000000 0.000000 0.000000
# 2 -0.000448 0.016448 -0.005398 0.000000 0.000000 0.000000
# 3 -0.009446 -0.005398 0.014171 0.000000 0.000000 0.000000
# 4 0.000000 0.000000 0.000000 0.028085 0.000000 0.000000
# 5 0.000000 0.000000 0.000000 0.000000 0.040209 0.000000
# 6 0.000000 0.000000 0.000000 0.000000 0.000000 0.048701
#
#
# Mechanical properties :
#
#
# Convention : Reuss Voigt Hill
#
# Bulk Modulus (GPa) = 41.61411 50.89156 46.25283
# Shear Modulus (GPa) = 23.78665 26.07805 24.93235
#
# Velocity S-wave (km/s) = 3.65961 3.83183 3.74671
# Velocity P-wave (km/s) = 6.42552 6.94486 6.69023
#
# Compressibility (1/GPa) = 0.02403031
#
# Stress axis : x y z
#
# Youngs Moduli (GPa) = 41.67555 60.79623 70.56827
#
# Poissons Ratio (x) = 0.02722 0.66660
# Poissons Ratio (y) = 0.01866 0.38092
# Poissons Ratio (z) = 0.39368 0.32817
#
# Static dielectric constant tensor:
#      x y z
#    x 1.563310 0.000000 0.000000 
#    y 0.000000 1.462030 0.000000 
#    z 0.000000 0.000000 1.614460 
# 
# From -- ./inp_files/25567.got.cif
#   From: 2010.05.17/outbox.cif.g08.bks.cpg/sg74_13_cif.got.tgz:25567.got - 2010.06.03 17:57:02.
