data_PCOD9536587
_publ_section_title
;
Structure prediction by ZEFSAII (Michael W. Deem and Ramdas Pophale) SiO2 
 PCOD9536587
Probable space group: I M M A
;
_chemical_formula_sum "Si O2"
_cell_formula_units_Z 68
_cell_length_a 28.933510
_cell_length_b 20.273506
_cell_length_c 4.975176
_cell_angle_alpha 90.000000
_cell_angle_beta 90.000000
_cell_angle_gamma 90.000000
_cell_volume 2918.357089
_symmetry_space_group_name_H-M "I M M A"
_symmetry_group_IT_number 74
_symmetry_cell_setting 'orthorhombic'
loop_
_space_group_symop_operation_xyz
x,y,z
-x,1/2-y,z
x,-y,-z
-x,1/2+y,-z
-x,-y,-z
x,1/2+y,-z
-x,y,z
x,1/2-y,z
1/2+x,1/2+y,1/2+z
1/2-x,-y,1/2+z
1/2+x,1/2-y,1/2-z
1/2-x,y,1/2-z
1/2-x,1/2-y,1/2-z
1/2+x,y,1/2-z
1/2-x,1/2+y,1/2+z
1/2+x,-y,1/2+z
loop_
_atom_site_type_symbol
_atom_site_label
_atom_site_fract_x
_atom_site_fract_y
_atom_site_fract_z
Si Si1 0.314259 0.823793 0.152761
Si Si2 0.597627 0.060803 0.314541
Si Si3 0.580386 0.641827 0.180401
Si Si4 0.000000 0.250000 0.615923
Si Si5 0.203247 0.591086 0.835241
O O1 0.301052 0.750000 0.230319
O O2 0.369532 0.827218 0.126446
O O3 0.299250 0.879005 0.367504
O O4 0.296260 0.846656 0.865920
O O5 0.583266 0.121642 0.506954
O O6 0.653727 0.056094 0.287246
O O7 0.582275 0.000000 0.500000
O O8 0.578264 0.078637 0.021235
O O9 0.540110 0.692394 0.124022
O O10 0.250000 0.553125 0.750000
#
# Coordination Sequence:
#
# PCOD9536587 Si02
#       5
#    16  16  16   4  16
#     4  10  19  35  53  82 124 162 197 248 312 371
#     4  10  22  44  64  87 129 173 209 254 316 376
#     4  10  23  39  66  94 123 164 207 261 324 380
#     4  12  24  46  70 102 126 154 212 272 316 398
#     4  10  21  34  55  86 118 159 212 251 294 354
#
# _framework density 23.300781000000001
#
# number of rings (size 3 to 8) (size 9 to 14) (size 15 to 20)
#    0.000    1.882    1.176    2.118    0.000    5.647 
#    0.000   10.588    0.000    0.000    0.000    0.000 
#    0.000    0.000    0.000    0.000    0.000    0.000 
#
# Total GULP energy -189368.328653 kJ/mol
# GULP energy per Si atom -5569.656725 kJ/mol
# Density = 2.324775 g / cm^3
# Si number density = 23.300781 Si / 1000 Ang^3
#
#
#
# Elastic Constant Matrix: (Units=GPa)
#
#
# Indices 1 2 3 4 5 6 
#
# 1 158.6098 28.5877 29.5607 0.0000 0.0000 0.0000
# 2 28.5877 54.5309 6.8745 0.0000 0.0000 0.0000
# 3 29.5607 6.8745 111.4435 0.0000 0.0000 0.0000
# 4 0.0000 0.0000 0.0000 11.6239 0.0000 0.0000
# 5 0.0000 0.0000 0.0000 0.0000 -29.1629 0.0000
# 6 0.0000 0.0000 0.0000 0.0000 0.0000 26.0638
#
#
#
# Elastic Compliance Matrix: (Units=1/GPa)
#
#
# Indices 1 2 3 4 5 6 
#
# 1 0.007271 -0.003597 -0.001707 0.000000 0.000000 0.000000
# 2 -0.003597 0.020261 -0.000296 0.000000 0.000000 0.000000
# 3 -0.001707 -0.000296 0.009444 0.000000 0.000000 0.000000
# 4 0.000000 0.000000 0.000000 0.086029 0.000000 0.000000
# 5 0.000000 0.000000 0.000000 0.000000 -0.034290 0.000000
# 6 0.000000 0.000000 0.000000 0.000000 0.000000 0.038367
#
#
# Mechanical properties :
#
#
# Convention : Reuss Voigt Hill
#
# Bulk Modulus (GPa) = 38.79319 50.51445 44.65382
# Shear Modulus (GPa) = 34.04270 19.00905 26.52588
#
# Velocity S-wave (km/s) = 3.82646 2.85934 3.37770
# Velocity P-wave (km/s) = 6.01726 5.71205 5.86664
#
# Compressibility (1/GPa) = 0.02577772
#
# Stress axis : x y z
#
# Youngs Moduli (GPa) = 137.52965 49.35568 105.88577
#
# Poissons Ratio (x) = 0.17752 0.18073
# Poissons Ratio (y) = 0.49466 0.03132
# Poissons Ratio (z) = 0.23474 0.01460
#
# Static dielectric constant tensor:
#      x y z
#    x 1.898230 0.000000 0.000000 
#    y 0.000000 1.909170 0.000000 
#    z 0.000000 0.000000 1.834100 
# 
# From -- ./inp_files/3214.got.cif
#   From: 2010.05.17/outbox.cif.g08.bks.cpg/sg74_2_cif.got.tgz:3214.got - 2010.06.03 17:57:02.
