data_PCOD9536688
_publ_section_title
;
Structure prediction by ZEFSAII (Michael W. Deem and Ramdas Pophale) SiO2 
 PCOD9536688
Probable space group: I M M A
;
_chemical_formula_sum "Si O2"
_cell_formula_units_Z 96
_cell_length_a 15.272885
_cell_length_b 20.716429
_cell_length_c 14.710379
_cell_angle_alpha 90.000000
_cell_angle_beta 90.000000
_cell_angle_gamma 90.000000
_cell_volume 4654.358586
_symmetry_space_group_name_H-M "I M M A"
_symmetry_group_IT_number 74
_symmetry_cell_setting 'orthorhombic'
loop_
_space_group_symop_operation_xyz
x,y,z
-x,1/2-y,z
x,-y,-z
-x,1/2+y,-z
-x,-y,-z
x,1/2+y,-z
-x,y,z
x,1/2-y,z
1/2+x,1/2+y,1/2+z
1/2-x,-y,1/2+z
1/2+x,1/2-y,1/2-z
1/2-x,y,1/2-z
1/2-x,1/2-y,1/2-z
1/2+x,y,1/2-z
1/2-x,1/2+y,1/2+z
1/2+x,-y,1/2+z
loop_
_atom_site_type_symbol
_atom_site_label
_atom_site_fract_x
_atom_site_fract_y
_atom_site_fract_z
Si Si1 0.097247 0.356714 0.107282
Si Si2 0.598923 0.824718 0.080914
Si Si3 0.349411 0.423116 0.764760
Si Si4 0.402980 0.053749 0.560557
Si Si5 0.796151 0.677693 0.601063
Si Si6 0.601819 0.567972 0.789337
O O1 0.191108 0.322121 0.113085
O O2 0.103503 0.413301 0.182745
O O3 0.000000 0.326331 0.123718
O O4 0.095104 0.385836 0.006569
O O5 0.500000 0.832193 0.042376
O O6 0.607595 0.750000 0.110647
O O7 0.608726 0.873265 0.164895
O O8 0.670888 0.835551 0.002096
O O9 0.250000 0.404852 0.750000
O O10 0.380220 0.425561 0.661067
O O11 0.361534 0.496057 0.802095
O O12 0.500000 0.026054 0.575319
O O13 0.351923 0.000000 0.500000
O O14 0.828643 0.750000 0.625114
O O15 0.840423 0.622139 0.661178
O O16 0.500000 0.570303 0.818779
#
# Coordination Sequence:
#
# PCOD9536688 Si02
#       6
#    16  16  16  16  16  16
#     4  10  21  38  61  93 128 162 207 262 326 399
#     4  10  23  44  67  91 126 173 219 264 318 379
#     4  12  23  38  64  99 130 164 207 262 319 378
#     4  10  19  35  60  87 122 165 199 244 313 381
#     4  11  24  43  63  87 124 171 220 270 329 389
#     4  11  23  39  62  94 128 164 213 267 321 386
#
# _framework density 20.625829
#
# number of rings (size 3 to 8) (size 9 to 14) (size 15 to 20)
#    0.000    1.333    1.667    4.500    0.000    3.667 
#    0.000    4.167    0.000    1.000    0.000    0.000 
#    0.000    0.000    0.000    0.000    0.000    0.000 
#
# Total GULP energy -267581.653309 kJ/mol
# GULP energy per Si atom -5574.617777 kJ/mol
# Density = 2.057888 g / cm^3
# Si number density = 20.625829 Si / 1000 Ang^3
#
#
#
# Elastic Constant Matrix: (Units=GPa)
#
#
# Indices 1 2 3 4 5 6 
#
# 1 74.5268 -7.3821 6.4764 0.0000 0.0000 0.0000
# 2 -7.3821 80.0119 40.3940 0.0000 0.0000 0.0000
# 3 6.4764 40.3940 99.3554 0.0000 0.0000 0.0000
# 4 0.0000 0.0000 0.0000 -7.5318 0.0000 0.0000
# 5 0.0000 0.0000 0.0000 0.0000 33.0195 0.0000
# 6 0.0000 0.0000 0.0000 0.0000 0.0000 24.6378
#
#
#
# Elastic Compliance Matrix: (Units=1/GPa)
#
#
# Indices 1 2 3 4 5 6 
#
# 1 0.013788 0.002172 -0.001782 0.000000 0.000000 0.000000
# 2 0.002172 0.016068 -0.006674 0.000000 0.000000 0.000000
# 3 -0.001782 -0.006674 0.012894 0.000000 0.000000 0.000000
# 4 0.000000 0.000000 0.000000 -0.132770 0.000000 0.000000
# 5 0.000000 0.000000 0.000000 0.000000 0.030285 0.000000
# 6 0.000000 0.000000 0.000000 0.000000 0.000000 0.040588
#
#
# Mechanical properties :
#
#
# Convention : Reuss Voigt Hill
#
# Bulk Modulus (GPa) = 33.13246 36.98563 35.05905
# Shear Modulus (GPa) = 1435.59261 24.31882 729.95571
#
# Velocity S-wave (km/s) = 26.41075 3.43745 18.83274
# Velocity P-wave (km/s) = 30.75932 5.80736 22.13437
#
# Compressibility (1/GPa) = 0.03018188
#
# Stress axis : x y z
#
# Youngs Moduli (GPa) = 72.52731 62.23584 77.55273
#
# Poissons Ratio (x) = -0.13515 0.13817
# Poissons Ratio (y) = -0.15750 0.51760
# Poissons Ratio (z) = 0.12922 0.41537
#
# Static dielectric constant tensor:
#      x y z
#    x 1.760460 0.000000 0.000000 
#    y 0.000000 1.798260 0.000000 
#    z 0.000000 0.000000 1.499750 
# 
# From -- ./inp_files/32358.got.cif
#   From: 2010.05.17/outbox.cif.g08.bks.cpg/sg74_17_cif.got.tgz:32358.got - 2010.06.03 17:57:02.
