data_PCOD9536016
_publ_section_title
;
Structure prediction by ZEFSAII (Michael W. Deem and Ramdas Pophale) SiO2 
 PCOD9536016
Probable space group: I M M A
;
_chemical_formula_sum "Si O2"
_cell_formula_units_Z 116
_cell_length_a 9.129347
_cell_length_b 22.899455
_cell_length_c 28.747593
_cell_angle_alpha 90.000000
_cell_angle_beta 90.000000
_cell_angle_gamma 90.000000
_cell_volume 6009.887585
_symmetry_space_group_name_H-M "I M M A"
_symmetry_group_IT_number 74
_symmetry_cell_setting 'orthorhombic'
loop_
_space_group_symop_operation_xyz
x,y,z
-x,1/2-y,z
x,-y,-z
-x,1/2+y,-z
-x,-y,-z
x,1/2+y,-z
-x,y,z
x,1/2-y,z
1/2+x,1/2+y,1/2+z
1/2-x,-y,1/2+z
1/2+x,1/2-y,1/2-z
1/2-x,y,1/2-z
1/2-x,1/2-y,1/2-z
1/2+x,y,1/2-z
1/2-x,1/2+y,1/2+z
1/2+x,-y,1/2+z
loop_
_atom_site_type_symbol
_atom_site_label
_atom_site_fract_x
_atom_site_fract_y
_atom_site_fract_z
Si Si1 0.823989 0.411942 0.800847
Si Si2 0.675362 0.868378 0.451685
Si Si3 0.173834 0.316769 0.633786
Si Si4 0.828910 0.383176 0.450802
Si Si5 0.000000 0.250000 0.316995
Si Si6 0.159958 0.640683 0.648428
Si Si7 0.164091 0.500604 0.943665
Si Si8 0.327466 0.042828 0.299756
O O1 0.750000 0.408305 0.750000
O O2 0.755206 0.362486 0.833066
O O3 0.793836 0.477929 0.819086
O O4 0.000000 0.405115 0.797691
O O5 0.500000 0.860777 0.451159
O O6 0.757770 0.825044 0.417393
O O7 0.735488 0.865768 0.504217
O O8 0.705763 0.934266 0.432568
O O9 0.196271 0.250000 0.649394
O O10 0.000000 0.328320 0.632783
O O11 0.808290 0.343315 0.405245
O O12 0.775262 0.447339 0.434043
O O13 0.000000 0.384393 0.463694
O O14 0.873890 0.198135 0.321837
O O15 0.274514 0.596168 0.669122
O O16 0.000000 0.609340 0.646629
O O17 0.000000 0.513207 0.925134
O O18 0.153335 0.500000 0.000000
O O19 0.500000 0.045720 0.292678
O O20 0.250000 0.047775 0.250000
#
# Coordination Sequence:
#
# PCOD9536016 Si02
#       8
#    16  16  16  16   4  16  16  16
#     4  10  22  41  66  97 127 160 196 247 308 367
#     4  10  21  37  55  80 118 159 204 256 310 368
#     4  11  25  43  61  86 121 164 214 260 305 364
#     4  10  19  32  53  87 113 156 203 250 305 359
#     4   8  20  44  60  80 124 164 208 240 300 354
#     4   9  20  38  61  83 119 161 202 246 294 360
#     4   8  16  30  48  73 110 147 186 242 303 360
#     4  10  21  38  65  98 128 154 194 245 304 362
#
# _framework density 19.301525999999999
#
# number of rings (size 3 to 8) (size 9 to 14) (size 15 to 20)
#    0.414    1.931    0.000    2.897    1.931    7.172 
#    1.241    0.690    0.000    0.000    0.000    0.000 
#    0.000    0.000    0.000    0.000    0.000    0.000 
#
# Total GULP energy -322887.228550 kJ/mol
# GULP energy per Si atom -5567.021182 kJ/mol
# Density = 1.925760 g / cm^3
# Si number density = 19.301526 Si / 1000 Ang^3
#
#
#
# Elastic Constant Matrix: (Units=GPa)
#
#
# Indices 1 2 3 4 5 6 
#
# 1 86.1615 54.6057 34.0794 0.0000 0.0000 0.0000
# 2 54.6057 90.7181 34.5794 0.0000 0.0000 0.0000
# 3 34.0794 34.5794 54.0274 0.0000 0.0000 0.0000
# 4 0.0000 0.0000 0.0000 13.6312 0.0000 0.0000
# 5 0.0000 0.0000 0.0000 0.0000 25.5072 0.0000
# 6 0.0000 0.0000 0.0000 0.0000 0.0000 26.1053
#
#
#
# Elastic Compliance Matrix: (Units=1/GPa)
#
#
# Indices 1 2 3 4 5 6 
#
# 1 0.020414 -0.009761 -0.006630 0.000000 0.000000 0.000000
# 2 -0.009761 0.019247 -0.006162 0.000000 0.000000 0.000000
# 3 -0.006630 -0.006162 0.026635 0.000000 0.000000 0.000000
# 4 0.000000 0.000000 0.000000 0.073361 0.000000 0.000000
# 5 0.000000 0.000000 0.000000 0.000000 0.039205 0.000000
# 6 0.000000 0.000000 0.000000 0.000000 0.000000 0.038306
#
#
# Mechanical properties :
#
#
# Convention : Reuss Voigt Hill
#
# Bulk Modulus (GPa) = 47.18876 53.04843 50.11859
# Shear Modulus (GPa) = 18.56409 20.22493 19.39451
#
# Velocity S-wave (km/s) = 3.10464 3.24055 3.17332
# Velocity P-wave (km/s) = 6.11171 6.44556 6.28086
#
# Compressibility (1/GPa) = 0.02119149
#
# Stress axis : x y z
#
# Youngs Moduli (GPa) = 48.98502 51.95539 37.54486
#
# Poissons Ratio (x) = 0.50713 0.24891
# Poissons Ratio (y) = 0.47814 0.23135
# Poissons Ratio (z) = 0.32475 0.32014
#
# Static dielectric constant tensor:
#      x y z
#    x 1.655350 0.000000 0.000000 
#    y 0.000000 1.676940 0.000000 
#    z 0.000000 0.000000 1.724710 
# 
# From -- ./inp_files/64844.got.cif
#   From: 2010.05.17/outbox.cif.g08.bks.cpg/sg74_33_cif.got.tgz:64844.got - 2010.06.03 17:57:02.
