data_PCOD9536926
_publ_section_title
;
Structure prediction by ZEFSAII (Michael W. Deem and Ramdas Pophale) SiO2 
 PCOD9536926
Probable space group: I M M A
;
_chemical_formula_sum "Si O2"
_cell_formula_units_Z 88
_cell_length_a 10.884779
_cell_length_b 18.065142
_cell_length_c 21.730585
_cell_angle_alpha 90.000000
_cell_angle_beta 90.000000
_cell_angle_gamma 90.000000
_cell_volume 4272.995282
_symmetry_space_group_name_H-M "I M M A"
_symmetry_group_IT_number 74
_symmetry_cell_setting 'orthorhombic'
loop_
_space_group_symop_operation_xyz
x,y,z
-x,1/2-y,z
x,-y,-z
-x,1/2+y,-z
-x,-y,-z
x,1/2+y,-z
-x,y,z
x,1/2-y,z
1/2+x,1/2+y,1/2+z
1/2-x,-y,1/2+z
1/2+x,1/2-y,1/2-z
1/2-x,y,1/2-z
1/2-x,1/2-y,1/2-z
1/2+x,y,1/2-z
1/2-x,1/2+y,1/2+z
1/2+x,-y,1/2+z
loop_
_atom_site_type_symbol
_atom_site_label
_atom_site_fract_x
_atom_site_fract_y
_atom_site_fract_z
Si Si1 0.500000 0.584185 0.477451
Si Si2 0.846141 0.750000 0.692810
Si Si3 0.143896 0.391078 0.390066
Si Si4 0.721965 0.666809 0.158212
Si Si5 0.857736 0.513530 0.298018
Si Si6 0.248261 0.663061 0.488507
Si Si7 0.500000 0.165298 0.645071
O O1 0.500000 0.500000 0.500000
O O2 0.381317 0.628334 0.498896
O O3 0.500000 0.598640 0.403977
O O4 0.750000 0.750000 0.750000
O O5 0.813539 0.822090 0.651698
O O6 0.000000 0.750000 0.705044
O O7 0.180729 0.468495 0.359479
O O8 0.168860 0.379779 0.461660
O O9 0.000000 0.388801 0.383037
O O10 0.679965 0.750000 0.172829
O O11 0.649609 0.600391 0.188140
O O12 0.867116 0.661315 0.176412
O O13 0.717116 0.656897 0.083836
O O14 0.750000 0.495103 0.250000
O O15 0.000000 0.495133 0.280269
O O16 0.244329 0.750000 0.502800
O O17 0.500000 0.250000 0.615946
#
# Coordination Sequence:
#
# PCOD9536926 Si02
#       7
#     8   8  16  16  16  16   8
#     4  10  20  30  52  88 132 168 200 248 291 369
#     4  10  20  40  64  86 120 166 217 260 304 365
#     4  10  22  40  62  89 123 162 207 258 317 373
#     4   9  20  38  65  92 124 162 204 255 316 387
#     4  11  26  45  63  89 125 163 212 268 312 374
#     4  10  20  38  61  93 131 165 202 252 317 381
#     4   8  16  34  56  82 120 164 198 239 305 362
#
# _framework density 20.594452
#
# number of rings (size 3 to 8) (size 9 to 14) (size 15 to 20)
#    0.000    2.182    0.909    2.455    6.364    1.455 
#    3.273    3.636    0.000    0.000    0.000    0.000 
#    0.000    0.000    0.000    0.000    0.000    0.000 
#
# Total GULP energy -245221.296376 kJ/mol
# GULP energy per Si atom -5573.211281 kJ/mol
# Density = 2.054758 g / cm^3
# Si number density = 20.594452 Si / 1000 Ang^3
#
#
#
# Elastic Constant Matrix: (Units=GPa)
#
#
# Indices 1 2 3 4 5 6 
#
# 1 45.2229 10.3319 13.6013 0.0000 0.0000 0.0000
# 2 10.3319 74.3435 33.7279 0.0000 0.0000 0.0000
# 3 13.6013 33.7279 76.7923 0.0000 0.0000 0.0000
# 4 0.0000 0.0000 0.0000 25.5441 0.0000 0.0000
# 5 0.0000 0.0000 0.0000 0.0000 18.5323 0.0000
# 6 0.0000 0.0000 0.0000 0.0000 0.0000 15.7058
#
#
#
# Elastic Compliance Matrix: (Units=1/GPa)
#
#
# Indices 1 2 3 4 5 6 
#
# 1 0.023532 -0.001723 -0.003411 0.000000 0.000000 0.000000
# 2 -0.001723 0.016924 -0.007128 0.000000 0.000000 0.000000
# 3 -0.003411 -0.007128 0.016757 0.000000 0.000000 0.000000
# 4 0.000000 0.000000 0.000000 0.039148 0.000000 0.000000
# 5 0.000000 0.000000 0.000000 0.000000 0.053960 0.000000
# 6 0.000000 0.000000 0.000000 0.000000 0.000000 0.063671
#
#
# Mechanical properties :
#
#
# Convention : Reuss Voigt Hill
#
# Bulk Modulus (GPa) = 30.59117 34.63120 32.61119
# Shear Modulus (GPa) = 20.04704 21.20295 20.62499
#
# Velocity S-wave (km/s) = 3.12335 3.21214 3.16805
# Velocity P-wave (km/s) = 5.28142 5.53257 5.40846
#
# Compressibility (1/GPa) = 0.03268917
#
# Stress axis : x y z
#
# Youngs Moduli (GPa) = 42.49481 59.08631 59.67610
#
# Poissons Ratio (x) = 0.10179 0.20357
# Poissons Ratio (y) = 0.07321 0.42538
# Poissons Ratio (z) = 0.14496 0.42118
#
# Static dielectric constant tensor:
#      x y z
#    x 1.772160 0.000000 0.000000 
#    y 0.000000 1.796860 0.000000 
#    z 0.000000 0.000000 1.765660 
# 
# From -- ./inp_files/50546.got.cif
#   From: 2010.05.17/outbox.cif.g08.bks.cpg/sg74_26_cif.got.tgz:50546.got - 2010.06.03 17:57:02.
