data_PCOD9536539
_publ_section_title
;
Structure prediction by ZEFSAII (Michael W. Deem and Ramdas Pophale) SiO2 
 PCOD9536539
Probable space group: I M M A
;
_chemical_formula_sum "Si O2"
_cell_formula_units_Z 120
_cell_length_a 25.814667
_cell_length_b 8.669905
_cell_length_c 28.819706
_cell_angle_alpha 90.000000
_cell_angle_beta 90.000000
_cell_angle_gamma 90.000000
_cell_volume 6450.158876
_symmetry_space_group_name_H-M "I M M A"
_symmetry_group_IT_number 74
_symmetry_cell_setting 'orthorhombic'
loop_
_space_group_symop_operation_xyz
x,y,z
-x,1/2-y,z
x,-y,-z
-x,1/2+y,-z
-x,-y,-z
x,1/2+y,-z
-x,y,z
x,1/2-y,z
1/2+x,1/2+y,1/2+z
1/2-x,-y,1/2+z
1/2+x,1/2-y,1/2-z
1/2-x,y,1/2-z
1/2-x,1/2-y,1/2-z
1/2+x,y,1/2-z
1/2-x,1/2+y,1/2+z
1/2+x,-y,1/2+z
loop_
_atom_site_type_symbol
_atom_site_label
_atom_site_fract_x
_atom_site_fract_y
_atom_site_fract_z
Si Si1 0.438273 0.571119 0.145230
Si Si2 0.500000 0.065134 0.552190
Si Si3 0.145370 0.066154 0.294779
Si Si4 0.209586 0.565709 0.050824
Si Si5 0.604744 0.436634 0.402966
Si Si6 0.763049 0.564034 0.638484
Si Si7 0.844117 0.936097 0.809573
Si Si8 0.936818 0.573185 0.548251
O O1 0.500000 0.551088 0.147372
O O2 0.426137 0.750000 0.152355
O O3 0.409886 0.470985 0.183568
O O4 0.421037 0.519118 0.093890
O O5 0.500000 0.250000 0.551153
O O6 0.500000 0.000000 0.500000
O O7 0.448356 0.004089 0.577484
O O8 0.153539 0.250000 0.292105
O O9 0.187700 0.009071 0.332041
O O10 0.150128 0.003233 0.242558
O O11 0.205963 0.750000 0.049540
O O12 0.154350 0.496105 0.067928
O O13 0.251676 0.513086 0.089097
O O14 0.221288 0.500000 0.000000
O O15 0.603870 0.250000 0.405392
O O16 0.615685 0.485346 0.349506
O O17 0.765994 0.750000 0.631812
O O18 0.712664 0.531492 0.670118
O O19 0.848734 0.750000 0.807196
O O20 0.918964 0.500000 0.500000
O O21 0.920202 0.750000 0.552178
O O22 0.000000 0.571350 0.547157
#
# Coordination Sequence:
#
# PCOD9536539 Si02
#       8
#    16   8  16  16  16  16  16  16
#     4  10  21  36  51  71 105 144 180 218 264 320
#     4  12  24  38  56  82 116 154 196 240 287 336
#     4  10  19  34  58  84 107 138 181 228 274 324
#     4  11  21  35  56  82 114 150 187 225 276 335
#     4  10  20  37  58  82 113 149 192 237 281 332
#     4   9  18  34  57  84 112 139 175 224 276 328
#     4   8  16  33  58  84 108 138 178 224 273 327
#     4   9  16  28  49  74  97 124 162 207 254 304
#
# _framework density 18.604194
#
# number of rings (size 3 to 8) (size 9 to 14) (size 15 to 20)
#    0.000    2.267    0.000    4.600    0.000    4.533 
#    1.200    4.000    0.000    7.200    0.000    0.000 
#    0.000    0.000    0.000    0.000    0.000    0.000 
#
# Total GULP energy -334775.832684 kJ/mol
# GULP energy per Si atom -5579.597211 kJ/mol
# Density = 1.856185 g / cm^3
# Si number density = 18.604194 Si / 1000 Ang^3
#
#
#
# Elastic Constant Matrix: (Units=GPa)
#
#
# Indices 1 2 3 4 5 6 
#
# 1 34.5401 26.2006 39.5456 0.0000 0.0000 0.0000
# 2 26.2006 61.8186 37.6449 0.0000 0.0000 0.0000
# 3 39.5456 37.6449 156.5072 0.0000 0.0000 0.0000
# 4 0.0000 0.0000 0.0000 23.7847 0.0000 0.0000
# 5 0.0000 0.0000 0.0000 0.0000 10.2685 0.0000
# 6 0.0000 0.0000 0.0000 0.0000 0.0000 20.8471
#
#
#
# Elastic Compliance Matrix: (Units=1/GPa)
#
#
# Indices 1 2 3 4 5 6 
#
# 1 0.051896 -0.016414 -0.009165 0.000000 0.000000 0.000000
# 2 -0.016414 0.024144 -0.001660 0.000000 0.000000 0.000000
# 3 -0.009165 -0.001660 0.009104 0.000000 0.000000 0.000000
# 4 0.000000 0.000000 0.000000 0.042044 0.000000 0.000000
# 5 0.000000 0.000000 0.000000 0.000000 0.097385 0.000000
# 6 0.000000 0.000000 0.000000 0.000000 0.000000 0.047968
#
#
# Mechanical properties :
#
#
# Convention : Reuss Voigt Hill
#
# Bulk Modulus (GPa) = 32.60867 51.07202 41.84035
# Shear Modulus (GPa) = 14.82619 20.94506 17.88563
#
# Velocity S-wave (km/s) = 2.82605 3.35897 3.10397
# Velocity P-wave (km/s) = 5.31172 6.52342 5.94851
#
# Compressibility (1/GPa) = 0.03066669
#
# Stress axis : x y z
#
# Youngs Moduli (GPa) = 19.26939 41.41815 109.83643
#
# Poissons Ratio (x) = 0.67984 1.00662
# Poissons Ratio (y) = 0.31629 0.18232
# Poissons Ratio (z) = 0.17660 0.06875
#
# Static dielectric constant tensor:
#      x y z
#    x 1.635250 0.000000 0.000000 
#    y 0.000000 1.635750 0.000000 
#    z 0.000000 0.000000 1.647870 
# 
# From -- ./inp_files/69021.got.cif
#   From: 2010.05.17/outbox.cif.g08.bks.cpg/sg74_35_cif.got.tgz:69021.got - 2010.06.03 17:57:02.
