data_PCOD9536097
_publ_section_title
;
Structure prediction by ZEFSAII (Michael W. Deem and Ramdas Pophale) SiO2 
 PCOD9536097
Probable space group: I M M A
;
_chemical_formula_sum "Si O2"
_cell_formula_units_Z 88
_cell_length_a 7.493272
_cell_length_b 18.147334
_cell_length_c 30.529485
_cell_angle_alpha 90.000000
_cell_angle_beta 90.000000
_cell_angle_gamma 90.000000
_cell_volume 4151.488203
_symmetry_space_group_name_H-M "I M M A"
_symmetry_group_IT_number 74
_symmetry_cell_setting 'orthorhombic'
loop_
_space_group_symop_operation_xyz
x,y,z
-x,1/2-y,z
x,-y,-z
-x,1/2+y,-z
-x,-y,-z
x,1/2+y,-z
-x,y,z
x,1/2-y,z
1/2+x,1/2+y,1/2+z
1/2-x,-y,1/2+z
1/2+x,1/2-y,1/2-z
1/2-x,y,1/2-z
1/2-x,1/2-y,1/2-z
1/2+x,y,1/2-z
1/2-x,1/2+y,1/2+z
1/2+x,-y,1/2+z
loop_
_atom_site_type_symbol
_atom_site_label
_atom_site_fract_x
_atom_site_fract_y
_atom_site_fract_z
Si Si1 0.285958 0.039054 0.698622
Si Si2 0.791545 0.101995 0.146945
Si Si3 0.781150 0.165284 0.865670
Si Si4 0.789335 0.750000 0.698384
Si Si5 0.792556 0.160248 0.961488
Si Si6 0.219058 0.336050 0.056816
O O1 0.500000 0.038614 0.694595
O O2 0.250000 0.039639 0.750000
O O3 0.222059 0.110804 0.672421
O O4 0.215483 0.965661 0.674657
O O5 0.781637 0.176733 0.175063
O O6 0.717226 0.118432 0.098668
O O7 0.000000 0.085284 0.139835
O O8 0.726525 0.250000 0.858956
O O9 0.719124 0.139037 0.913991
O O10 0.000000 0.165577 0.866962
O O11 0.750000 0.750000 0.750000
O O12 0.000000 0.750000 0.692278
O O13 0.789248 0.250000 0.961747
O O14 0.000000 0.137241 0.961475
O O15 0.718223 0.137969 0.008810
O O16 0.268394 0.250000 0.062775
O O17 0.000000 0.337069 0.056118
#
# Coordination Sequence:
#
# PCOD9536097 Si02
#       6
#    16  16  16   8  16  16
#     4  10  21  34  49  69  95 129 165 204 251 293
#     4  10  19  33  50  71 100 130 162 201 244 288
#     4   8  14  27  46  69  99 129 158 196 244 295
#     4  12  24  36  52  72  94 126 170 210 247 288
#     4   7  10  18  37  66  96 125 152 183 232 289
#     4   8  12  21  41  67  95 127 156 185 230 282
#
# _framework density 21.197217999999999
#
# number of rings (size 3 to 8) (size 9 to 14) (size 15 to 20)
#    0.000    3.091    0.909    3.545    0.000    2.545 
#    0.000    0.909    0.000    5.455    0.000    1.273 
#    0.000    2.909    0.000    0.000    0.000    0.000 
#
# Total GULP energy -245338.666303 kJ/mol
# GULP energy per Si atom -5575.878780 kJ/mol
# Density = 2.114897 g / cm^3
# Si number density = 21.197218 Si / 1000 Ang^3
#
#
#
# Elastic Constant Matrix: (Units=GPa)
#
#
# Indices 1 2 3 4 5 6 
#
# 1 58.6989 -0.3494 3.7674 0.0000 0.0000 0.0000
# 2 -0.3494 111.1447 113.8587 0.0000 0.0000 0.0000
# 3 3.7674 113.8587 221.8740 0.0000 0.0000 0.0000
# 4 0.0000 0.0000 0.0000 7.2953 0.0000 0.0000
# 5 0.0000 0.0000 0.0000 0.0000 8.9632 0.0000
# 6 0.0000 0.0000 0.0000 0.0000 0.0000 -18.5959
#
#
#
# Elastic Compliance Matrix: (Units=1/GPa)
#
#
# Indices 1 2 3 4 5 6 
#
# 1 0.017083 0.000740 -0.000670 0.000000 0.000000 0.000000
# 2 0.000740 0.019002 -0.009764 0.000000 0.000000 0.000000
# 3 -0.000670 -0.009764 0.009529 0.000000 0.000000 0.000000
# 4 0.000000 0.000000 0.000000 0.137075 0.000000 0.000000
# 5 0.000000 0.000000 0.000000 0.000000 0.111568 0.000000
# 6 0.000000 0.000000 0.000000 0.000000 0.000000 -0.053775
#
#
# Mechanical properties :
#
#
# Convention : Reuss Voigt Hill
#
# Bulk Modulus (GPa) = 38.12887 69.58566 53.85727
# Shear Modulus (GPa) = 18.61431 17.82857 18.22144
#
# Velocity S-wave (km/s) = 2.96657 2.90329 2.93510
# Velocity P-wave (km/s) = 5.45535 6.64362 6.07859
#
# Compressibility (1/GPa) = 0.02622684
#
# Stress axis : x y z
#
# Youngs Moduli (GPa) = 58.53604 52.62713 104.94506
#
# Poissons Ratio (x) = -0.03893 0.07028
# Poissons Ratio (y) = -0.04330 1.02464
# Poissons Ratio (z) = 0.03920 0.51383
#
# Static dielectric constant tensor:
#      x y z
#    x 1.872460 0.000000 0.000000 
#    y 0.000000 1.795410 0.000000 
#    z 0.000000 0.000000 1.779860 
# 
# From -- ./inp_files/70233.got.cif
#   From: 2010.05.17/outbox.cif.g08.bks.cpg/sg74_36_cif.got.tgz:70233.got - 2010.06.03 17:57:02.
