data_PCOD9536564
_publ_section_title
;
Structure prediction by ZEFSAII (Michael W. Deem and Ramdas Pophale) SiO2 
 PCOD9536564
Probable space group: I M M A
;
_chemical_formula_sum "Si O2"
_cell_formula_units_Z 96
_cell_length_a 21.479526
_cell_length_b 27.190777
_cell_length_c 8.876442
_cell_angle_alpha 90.000000
_cell_angle_beta 90.000000
_cell_angle_gamma 90.000000
_cell_volume 5184.241581
_symmetry_space_group_name_H-M "I M M A"
_symmetry_group_IT_number 74
_symmetry_cell_setting 'orthorhombic'
loop_
_space_group_symop_operation_xyz
x,y,z
-x,1/2-y,z
x,-y,-z
-x,1/2+y,-z
-x,-y,-z
x,1/2+y,-z
-x,y,z
x,1/2-y,z
1/2+x,1/2+y,1/2+z
1/2-x,-y,1/2+z
1/2+x,1/2-y,1/2-z
1/2-x,y,1/2-z
1/2-x,1/2-y,1/2-z
1/2+x,y,1/2-z
1/2-x,1/2+y,1/2+z
1/2+x,-y,1/2+z
loop_
_atom_site_type_symbol
_atom_site_label
_atom_site_fract_x
_atom_site_fract_y
_atom_site_fract_z
Si Si1 0.166486 0.442187 0.655475
Si Si2 0.568561 0.091779 0.089054
Si Si3 0.705230 0.305067 0.396244
Si Si4 0.794241 0.904096 0.050897
Si Si5 0.617922 0.530931 0.646897
Si Si6 0.928279 0.306218 0.256908
O O1 0.117760 0.429346 0.527467
O O2 0.167172 0.403643 0.793974
O O3 0.234454 0.437897 0.583131
O O4 0.151125 0.492792 0.739909
O O5 0.500000 0.085159 0.024358
O O6 0.572726 0.062340 0.247213
O O7 0.578865 0.149313 0.125398
O O8 0.713135 0.250000 0.458195
O O9 0.750000 0.308538 0.250000
O O10 0.723686 0.349636 0.503225
O O11 0.631932 0.310971 0.351714
O O12 0.833551 0.930279 0.921497
O O13 0.594230 0.500000 0.500000
O O14 0.924533 0.250000 0.316763
O O15 0.000000 0.311500 0.195347
#
# Coordination Sequence:
#
# PCOD9536564 Si02
#       6
#    16  16  16  16  16  16
#     4  10  23  37  54  81 116 151 189 230 285 349
#     4  11  22  38  58  82 115 152 188 236 290 345
#     4  10  19  34  59  88 114 145 189 241 296 348
#     4  10  21  39  57  84 113 145 189 240 287 339
#     4  10  22  37  56  81 111 147 195 239 283 334
#     4   9  18  34  58  86 112 145 191 236 283 342
#
# _framework density 18.517655000000001
#
# number of rings (size 3 to 8) (size 9 to 14) (size 15 to 20)
#    0.000    2.000    1.667    1.500    0.000    9.667 
#    0.000    5.833    0.000    0.000    0.000    0.000 
#    0.000    0.000    0.000    0.000    0.000    0.000 
#
# Total GULP energy -267485.512015 kJ/mol
# GULP energy per Si atom -5572.614834 kJ/mol
# Density = 1.847551 g / cm^3
# Si number density = 18.517655 Si / 1000 Ang^3
#
#
#
# Elastic Constant Matrix: (Units=GPa)
#
#
# Indices 1 2 3 4 5 6 
#
# 1 71.0111 9.1533 28.2436 0.0000 0.0000 0.0000
# 2 9.1533 92.4746 41.2925 0.0000 0.0000 0.0000
# 3 28.2436 41.2925 64.6758 0.0000 0.0000 0.0000
# 4 0.0000 0.0000 0.0000 17.3700 0.0000 0.0000
# 5 0.0000 0.0000 0.0000 0.0000 12.3498 0.0000
# 6 0.0000 0.0000 0.0000 0.0000 0.0000 57.0201
#
#
#
# Elastic Compliance Matrix: (Units=1/GPa)
#
#
# Indices 1 2 3 4 5 6 
#
# 1 0.017396 0.002336 -0.009088 0.000000 0.000000 0.000000
# 2 0.002336 0.015440 -0.010878 0.000000 0.000000 0.000000
# 3 -0.009088 -0.010878 0.026376 0.000000 0.000000 0.000000
# 4 0.000000 0.000000 0.000000 0.057570 0.000000 0.000000
# 5 0.000000 0.000000 0.000000 0.000000 0.080973 0.000000
# 6 0.000000 0.000000 0.000000 0.000000 0.000000 0.017538
#
#
# Mechanical properties :
#
#
# Convention : Reuss Voigt Hill
#
# Bulk Modulus (GPa) = 41.75098 42.83781 42.29439
# Shear Modulus (GPa) = 19.33966 27.31279 23.32623
#
# Velocity S-wave (km/s) = 3.23521 3.84469 3.55304
# Velocity P-wave (km/s) = 6.04574 6.54924 6.30252
#
# Compressibility (1/GPa) = 0.02395153
#
# Stress axis : x y z
#
# Youngs Moduli (GPa) = 57.48478 64.76765 37.91388
#
# Poissons Ratio (x) = -0.15132 0.34457
# Poissons Ratio (y) = -0.13430 0.41242
# Poissons Ratio (z) = 0.52244 0.70453
#
# Static dielectric constant tensor:
#      x y z
#    x 1.649060 0.000000 0.000000 
#    y 0.000000 1.648570 0.000000 
#    z 0.000000 0.000000 1.633680 
# 
# From -- ./inp_files/12638.got.cif
#   From: 2010.05.17/outbox.cif.g08.bks.cpg/sg74_7_cif.got.tgz:12638.got - 2010.06.03 17:57:02.
