data_PCOD9536227
_publ_section_title
;
Structure prediction by ZEFSAII (Michael W. Deem and Ramdas Pophale) SiO2 
 PCOD9536227
Probable space group: I M M A
;
_chemical_formula_sum "Si O2"
_cell_formula_units_Z 72
_cell_length_a 21.644007
_cell_length_b 16.782650
_cell_length_c 8.677306
_cell_angle_alpha 90.000000
_cell_angle_beta 90.000000
_cell_angle_gamma 90.000000
_cell_volume 3151.977554
_symmetry_space_group_name_H-M "I M M A"
_symmetry_group_IT_number 74
_symmetry_cell_setting 'orthorhombic'
loop_
_space_group_symop_operation_xyz
x,y,z
-x,1/2-y,z
x,-y,-z
-x,1/2+y,-z
-x,-y,-z
x,1/2+y,-z
-x,y,z
x,1/2-y,z
1/2+x,1/2+y,1/2+z
1/2-x,-y,1/2+z
1/2+x,1/2-y,1/2-z
1/2-x,y,1/2-z
1/2-x,1/2-y,1/2-z
1/2+x,y,1/2-z
1/2-x,1/2+y,1/2+z
1/2+x,-y,1/2+z
loop_
_atom_site_type_symbol
_atom_site_label
_atom_site_fract_x
_atom_site_fract_y
_atom_site_fract_z
Si Si1 0.400519 0.418750 0.948111
Si Si2 0.924797 0.579967 0.093572
Si Si3 0.587929 0.750000 0.081666
Si Si4 0.260684 0.582906 0.930644
Si Si5 0.236511 0.750000 0.429221
Si Si6 0.070420 0.750000 0.048076
O O1 0.394614 0.421980 0.762627
O O2 0.432234 0.334600 0.984703
O O3 0.431971 0.500000 0.000000
O O4 0.333605 0.418173 0.028171
O O5 0.904670 0.662143 0.009327
O O6 0.000000 0.584576 0.115567
O O7 0.912031 0.500000 0.000000
O O8 0.662035 0.750000 0.060676
O O9 0.572012 0.750000 0.263703
O O10 0.250000 0.582120 0.750000
O O11 0.234795 0.500000 0.000000
O O12 0.238902 0.667684 0.998910
O O13 0.250000 0.750000 0.250000
O O14 0.000000 0.750000 0.992709
#
# Coordination Sequence:
#
# PCOD9536227 Si02
#       6
#    16  16   8  16   8   8
#     4   9  18  33  51  74 102 136 174 218 269 319
#     4   9  17  31  53  79 106 139 178 219 268 327
#     4   8  16  31  48  67  98 131 167 207 251 316
#     4  10  20  36  55  77 106 140 182 230 278 329
#     4  10  19  33  54  80 107 137 175 221 280 340
#     4   8  14  28  50  73 100 136 173 206 249 312
#
# _framework density 22.842801999999999
#
# number of rings (size 3 to 8) (size 9 to 14) (size 15 to 20)
#    0.000    2.889    0.000    1.000    0.000    0.444 
#    0.000   18.889    0.000    0.000    0.000    0.000 
#    0.000    0.000    0.000    0.000    0.000    0.000 
#
# Total GULP energy -200828.987410 kJ/mol
# GULP energy per Si atom -5578.582984 kJ/mol
# Density = 2.279081 g / cm^3
# Si number density = 22.842802 Si / 1000 Ang^3
#
#
#
# Elastic Constant Matrix: (Units=GPa)
#
#
# Indices 1 2 3 4 5 6 
#
# 1 113.4971 15.4612 21.4706 0.0000 0.0000 0.0000
# 2 15.4612 319.5861 84.8584 0.0000 0.0000 0.0000
# 3 21.4706 84.8584 120.3590 0.0000 0.0000 0.0000
# 4 0.0000 0.0000 0.0000 46.2495 0.0000 0.0000
# 5 0.0000 0.0000 0.0000 0.0000 37.8097 0.0000
# 6 0.0000 0.0000 0.0000 0.0000 0.0000 -49.5145
#
#
#
# Elastic Compliance Matrix: (Units=1/GPa)
#
#
# Indices 1 2 3 4 5 6 
#
# 1 0.009119 -0.000011 -0.001619 0.000000 0.000000 0.000000
# 2 -0.000011 0.003850 -0.002712 0.000000 0.000000 0.000000
# 3 -0.001619 -0.002712 0.010509 0.000000 0.000000 0.000000
# 4 0.000000 0.000000 0.000000 0.021622 0.000000 0.000000
# 5 0.000000 0.000000 0.000000 0.000000 0.026448 0.000000
# 6 0.000000 0.000000 0.000000 0.000000 0.000000 -0.020196
#
#
# Mechanical properties :
#
#
# Convention : Reuss Voigt Hill
#
# Bulk Modulus (GPa) = 67.59798 88.55807 78.07803
# Shear Modulus (GPa) = 76.96180 35.68575 56.32377
#
# Velocity S-wave (km/s) = 5.81077 3.95680 4.97098
# Velocity P-wave (km/s) = 8.64159 7.72836 8.19770
#
# Compressibility (1/GPa) = 0.01479334
#
# Stress axis : x y z
#
# Youngs Moduli (GPa) = 109.66656 259.75623 95.15233
#
# Poissons Ratio (x) = 0.00295 0.15402
# Poissons Ratio (y) = 0.00125 0.25807
# Poissons Ratio (z) = 0.17751 0.70452
#
# Static dielectric constant tensor:
#      x y z
#    x 1.860910 0.000000 0.000000 
#    y 0.000000 1.991250 0.000000 
#    z 0.000000 0.000000 1.767760 
# 
# From -- ./inp_files/15963.got.cif
#   From: 2010.05.17/outbox.cif.g08.bks.cpg/sg74_8_cif.got.tgz:15963.got - 2010.06.03 17:57:02.
