data_PCOD9536667
_publ_section_title
;
Structure prediction by ZEFSAII (Michael W. Deem and Ramdas Pophale) SiO2 
 PCOD9536667
Probable space group: I M M A
;
_chemical_formula_sum "Si O2"
_cell_formula_units_Z 80
_cell_length_a 19.672461
_cell_length_b 12.989678
_cell_length_c 17.035424
_cell_angle_alpha 90.000000
_cell_angle_beta 90.000000
_cell_angle_gamma 90.000000
_cell_volume 4353.214087
_symmetry_space_group_name_H-M "I M M A"
_symmetry_group_IT_number 74
_symmetry_cell_setting 'orthorhombic'
loop_
_space_group_symop_operation_xyz
x,y,z
-x,1/2-y,z
x,-y,-z
-x,1/2+y,-z
-x,-y,-z
x,1/2+y,-z
-x,y,z
x,1/2-y,z
1/2+x,1/2+y,1/2+z
1/2-x,-y,1/2+z
1/2+x,1/2-y,1/2-z
1/2-x,y,1/2-z
1/2-x,1/2-y,1/2-z
1/2+x,y,1/2-z
1/2-x,1/2+y,1/2+z
1/2+x,-y,1/2+z
loop_
_atom_site_type_symbol
_atom_site_label
_atom_site_fract_x
_atom_site_fract_y
_atom_site_fract_z
Si Si1 0.124253 0.047859 0.580658
Si Si2 0.313612 0.750000 0.312858
Si Si3 0.692714 0.358381 0.316461
Si Si4 0.216901 0.553640 0.079730
Si Si5 0.919350 0.133661 0.307350
Si Si6 0.422103 0.750000 0.172613
O O1 0.203172 0.075756 0.565777
O O2 0.091754 0.148980 0.619271
O O3 0.095141 0.000000 0.500000
O O4 0.115479 0.954266 0.641409
O O5 0.250000 0.750000 0.250000
O O6 0.311786 0.651830 0.372115
O O7 0.375837 0.750000 0.251000
O O8 0.695575 0.250000 0.362388
O O9 0.750000 0.351766 0.250000
O O10 0.710340 0.458820 0.362284
O O11 0.619540 0.367048 0.275361
O O12 0.188204 0.500000 0.000000
O O13 0.909195 0.250000 0.340057
O O14 0.000000 0.115643 0.301422
O O15 0.500000 0.750000 0.196981
#
# Coordination Sequence:
#
# PCOD9536667 Si02
#       6
#    16   8  16  16  16   8
#     4  11  23  38  57  87 126 161 200 246 298 364
#     4  12  22  44  68  88 124 169 208 260 306 363
#     4  10  19  35  59  84 113 149 195 244 287 347
#     4  11  23  37  63  92 123 153 201 253 309 355
#     4  10  21  36  56  83 114 155 193 235 293 353
#     4  12  26  42  64  92 123 172 216 251 305 373
#
# _framework density 18.377226
#
# number of rings (size 3 to 8) (size 9 to 14) (size 15 to 20)
#    0.000    1.200    4.000    2.400    2.800    1.600 
#    0.000    0.000    0.000    2.400    0.000    0.000 
#    0.000    0.000    0.000    0.000    0.000    0.000 
#
# Total GULP energy -222825.161461 kJ/mol
# GULP energy per Si atom -5570.629037 kJ/mol
# Density = 1.833540 g / cm^3
# Si number density = 18.377226 Si / 1000 Ang^3
#
#
#
# Elastic Constant Matrix: (Units=GPa)
#
#
# Indices 1 2 3 4 5 6 
#
# 1 66.6426 15.8134 25.9112 0.0000 0.0000 0.0000
# 2 15.8134 141.3810 59.3712 0.0000 0.0000 0.0000
# 3 25.9112 59.3712 85.2543 0.0000 0.0000 0.0000
# 4 0.0000 0.0000 0.0000 28.7369 0.0000 0.0000
# 5 0.0000 0.0000 0.0000 0.0000 12.8508 0.0000
# 6 0.0000 0.0000 0.0000 0.0000 0.0000 38.2495
#
#
#
# Elastic Compliance Matrix: (Units=1/GPa)
#
#
# Indices 1 2 3 4 5 6 
#
# 1 0.017031 0.000380 -0.005441 0.000000 0.000000 0.000000
# 2 0.000380 0.010005 -0.007083 0.000000 0.000000 0.000000
# 3 -0.005441 -0.007083 0.018316 0.000000 0.000000 0.000000
# 4 0.000000 0.000000 0.000000 0.034799 0.000000 0.000000
# 5 0.000000 0.000000 0.000000 0.000000 0.077816 0.000000
# 6 0.000000 0.000000 0.000000 0.000000 0.000000 0.026144
#
#
# Mechanical properties :
#
#
# Convention : Reuss Voigt Hill
#
# Bulk Modulus (GPa) = 47.47447 55.05216 51.26331
# Shear Modulus (GPa) = 23.21056 28.77957 25.99507
#
# Velocity S-wave (km/s) = 3.55774 3.96162 3.76510
# Velocity P-wave (km/s) = 6.53958 7.13777 6.84521
#
# Compressibility (1/GPa) = 0.02106395
#
# Stress axis : x y z
#
# Youngs Moduli (GPa) = 58.71773 99.95011 54.59785
#
# Poissons Ratio (x) = -0.03797 0.29705
# Poissons Ratio (y) = -0.02230 0.38671
# Poissons Ratio (z) = 0.31946 0.70794
#
# Static dielectric constant tensor:
#      x y z
#    x 1.643140 0.000000 0.000000 
#    y 0.000000 1.666110 0.000000 
#    z 0.000000 0.000000 1.935230 
# 
# From -- ./inp_files/45082.got.cif
#   From: 2010.05.17/outbox.cif.g08.bks.cpg/sg74_23_cif.got.tgz:45082.got - 2010.06.03 17:57:02.
