data_PCOD9536508
_publ_section_title
;
Structure prediction by ZEFSAII (Michael W. Deem and Ramdas Pophale) SiO2 
 PCOD9536508
Probable space group: I M M A
;
_chemical_formula_sum "Si O2"
_cell_formula_units_Z 56
_cell_length_a 8.374652
_cell_length_b 18.301467
_cell_length_c 18.537394
_cell_angle_alpha 90.000000
_cell_angle_beta 90.000000
_cell_angle_gamma 90.000000
_cell_volume 2841.197038
_symmetry_space_group_name_H-M "I M M A"
_symmetry_group_IT_number 74
_symmetry_cell_setting 'orthorhombic'
loop_
_space_group_symop_operation_xyz
x,y,z
-x,1/2-y,z
x,-y,-z
-x,1/2+y,-z
-x,-y,-z
x,1/2+y,-z
-x,y,z
x,1/2-y,z
1/2+x,1/2+y,1/2+z
1/2-x,-y,1/2+z
1/2+x,1/2-y,1/2-z
1/2-x,y,1/2-z
1/2-x,1/2-y,1/2-z
1/2+x,y,1/2-z
1/2-x,1/2+y,1/2+z
1/2+x,-y,1/2+z
loop_
_atom_site_type_symbol
_atom_site_label
_atom_site_fract_x
_atom_site_fract_y
_atom_site_fract_z
Si Si1 0.809243 0.666054 0.670105
Si Si2 0.191722 0.250000 0.667208
Si Si3 0.187701 0.036946 0.073063
Si Si4 0.307492 0.407387 0.832148
O O1 0.752580 0.750000 0.658975
O O2 0.750000 0.642242 0.750000
O O3 0.757708 0.611060 0.606876
O O4 0.000000 0.666576 0.672504
O O5 0.250000 0.250000 0.750000
O O6 0.239070 0.328051 0.634526
O O7 0.000000 0.250000 0.669312
O O8 0.000000 0.049286 0.062118
O O9 0.220442 0.974178 0.131113
O O10 0.255952 0.000000 0.000000
O O11 0.500000 0.415975 0.836027
O O12 0.250000 0.405341 0.750000
#
# Coordination Sequence:
#
# PCOD9536508 Si02
#       4
#    16   8  16  16
#     4  10  21  39  65  93 118 150 194 245 297 349
#     4   8  16  30  50  78 106 136 173 218 265 316
#     4  11  24  40  56  80 116 155 194 235 287 346
#     4  10  19  34  57  82 111 145 187 233 279 331
#
# _framework density 19.710001999999999
#
# number of rings (size 3 to 8) (size 9 to 14) (size 15 to 20)
#    0.000    2.000    0.000    3.429    0.000    5.143 
#    2.571    0.000    0.000    0.000    0.000    0.000 
#    0.000    0.000    0.000    0.000    0.000    0.000 
#
# Total GULP energy -156102.746733 kJ/mol
# GULP energy per Si atom -5575.098098 kJ/mol
# Density = 1.966514 g / cm^3
# Si number density = 19.710002 Si / 1000 Ang^3
#
#
#
# Elastic Constant Matrix: (Units=GPa)
#
#
# Indices 1 2 3 4 5 6 
#
# 1 29.4014 9.7138 10.0006 0.0000 0.0000 0.0000
# 2 9.7138 115.5763 51.7723 0.0000 0.0000 0.0000
# 3 10.0006 51.7723 82.8962 0.0000 0.0000 0.0000
# 4 0.0000 0.0000 0.0000 18.4085 0.0000 0.0000
# 5 0.0000 0.0000 0.0000 0.0000 21.2886 0.0000
# 6 0.0000 0.0000 0.0000 0.0000 0.0000 -3.3564
#
#
#
# Elastic Compliance Matrix: (Units=1/GPa)
#
#
# Indices 1 2 3 4 5 6 
#
# 1 0.035650 -0.001485 -0.003373 0.000000 0.000000 0.000000
# 2 -0.001485 0.012075 -0.007362 0.000000 0.000000 0.000000
# 3 -0.003373 -0.007362 0.017068 0.000000 0.000000 0.000000
# 4 0.000000 0.000000 0.000000 0.054323 0.000000 0.000000
# 5 0.000000 0.000000 0.000000 0.000000 0.046974 0.000000
# 6 0.000000 0.000000 0.000000 0.000000 0.000000 -0.297936
#
#
# Mechanical properties :
#
#
# Convention : Reuss Voigt Hill
#
# Bulk Modulus (GPa) = 24.78193 41.20525 32.99359
# Shear Modulus (GPa) = -53.21727 17.69393 -17.76167
#
# Velocity S-wave (km/s) = -5.20180 2.99944 -3.00517
# Velocity P-wave (km/s) = 4.84539 5.73992 2.17588
#
# Compressibility (1/GPa) = 0.04035198
#
# Stress axis : x y z
#
# Youngs Moduli (GPa) = 28.05047 82.81566 58.58836
#
# Poissons Ratio (x) = 0.12300 0.19763
# Poissons Ratio (y) = 0.04166 0.43134
# Poissons Ratio (z) = 0.09462 0.60970
#
# Static dielectric constant tensor:
#      x y z
#    x 1.681770 0.000000 0.000000 
#    y 0.000000 1.744010 0.000000 
#    z 0.000000 0.000000 1.701140 
# 
# From -- ./inp_files/34796.got.cif
#   From: 2010.05.17/outbox.cif.g08.bks.cpg/sg74_18_cif.got.tgz:34796.got - 2010.06.03 17:57:02.
