data_PCOD9536572
_publ_section_title
;
Structure prediction by ZEFSAII (Michael W. Deem and Ramdas Pophale) SiO2 
 PCOD9536572
Probable space group: I M M A
;
_chemical_formula_sum "Si O2"
_cell_formula_units_Z 80
_cell_length_a 11.389430
_cell_length_b 19.201275
_cell_length_c 18.352431
_cell_angle_alpha 90.000000
_cell_angle_beta 90.000000
_cell_angle_gamma 90.000000
_cell_volume 4013.522087
_symmetry_space_group_name_H-M "I M M A"
_symmetry_group_IT_number 74
_symmetry_cell_setting 'orthorhombic'
loop_
_space_group_symop_operation_xyz
x,y,z
-x,1/2-y,z
x,-y,-z
-x,1/2+y,-z
-x,-y,-z
x,1/2+y,-z
-x,y,z
x,1/2-y,z
1/2+x,1/2+y,1/2+z
1/2-x,-y,1/2+z
1/2+x,1/2-y,1/2-z
1/2-x,y,1/2-z
1/2-x,1/2-y,1/2-z
1/2+x,y,1/2-z
1/2-x,1/2+y,1/2+z
1/2+x,-y,1/2+z
loop_
_atom_site_type_symbol
_atom_site_label
_atom_site_fract_x
_atom_site_fract_y
_atom_site_fract_z
Si Si1 0.754401 0.329030 0.829781
Si Si2 0.000000 0.864990 0.109246
Si Si3 0.000000 0.134924 0.067121
Si Si4 0.746073 0.829517 0.884180
Si Si5 0.638186 0.169000 0.968442
Si Si6 0.750000 0.432703 0.250000
Si Si7 0.500000 0.985522 0.686066
O O1 0.706114 0.250000 0.820183
O O2 0.750000 0.361939 0.750000
O O3 0.681539 0.365121 0.893862
O O4 0.884180 0.327039 0.862200
O O5 0.000000 0.937923 0.152020
O O6 0.000000 0.871683 0.021072
O O7 0.882590 0.172492 0.093948
O O8 0.000000 0.064116 0.114421
O O9 0.704999 0.750000 0.869231
O O10 0.725529 0.881155 0.817771
O O11 0.684845 0.860170 0.956296
O O12 0.500000 0.170153 0.968981
O O13 0.681425 0.250000 0.968063
O O14 0.624822 0.471152 0.270851
#
# Coordination Sequence:
#
# PCOD9536572 Si02
#       7
#    16   8   8  16  16   8   8
#     4  10  22  36  55  86 117 147 185 241 304 364
#     4  12  22  38  65  82 111 156 204 243 302 353
#     4  10  20  38  59  89 118 152 196 258 297 358
#     4  10  19  34  60  90 121 155 195 242 315 376
#     4   9  18  32  51  79 118 155 184 224 290 373
#     4  10  23  42  58  86 121 160 204 266 296 348
#     4  10  25  42  62  81 119 160 216 251 294 343
#
# _framework density 19.932615999999999
#
# number of rings (size 3 to 8) (size 9 to 14) (size 15 to 20)
#    0.000    2.000    2.000    1.200    4.200    0.800 
#    0.000    1.000    0.000    0.000    0.000    7.000 
#    0.000    0.000    0.000    0.000    0.000    0.000 
#
# Total GULP energy -222812.122174 kJ/mol
# GULP energy per Si atom -5570.303054 kJ/mol
# Density = 1.988725 g / cm^3
# Si number density = 19.932616 Si / 1000 Ang^3
#
#
#
# Elastic Constant Matrix: (Units=GPa)
#
#
# Indices 1 2 3 4 5 6 
#
# 1 64.1912 8.9562 35.4208 0.0000 0.0000 0.0000
# 2 8.9562 64.8738 27.2885 0.0000 0.0000 0.0000
# 3 35.4208 27.2885 181.4299 0.0000 0.0000 0.0001
# 4 0.0000 0.0000 0.0000 -46.9889 0.0000 0.0000
# 5 0.0000 0.0000 0.0000 0.0000 32.6763 0.0000
# 6 0.0000 0.0000 0.0001 0.0000 0.0000 404.8823
#
#
#
# Elastic Compliance Matrix: (Units=1/GPa)
#
#
# Indices 1 2 3 4 5 6 
#
# 1 0.017526 -0.001046 -0.003264 0.000000 0.000000 0.000000
# 2 -0.001046 0.016518 -0.002280 0.000000 0.000000 0.000000
# 3 -0.003264 -0.002280 0.006492 0.000000 0.000000 0.000000
# 4 0.000000 0.000000 0.000000 -0.021282 0.000000 0.000000
# 5 0.000000 0.000000 0.000000 0.000000 0.030603 0.000000
# 6 0.000000 0.000000 0.000000 0.000000 0.000000 0.002470
#
#
# Mechanical properties :
#
#
# Convention : Reuss Voigt Hill
#
# Bulk Modulus (GPa) = 36.55748 50.42510 43.49129
# Shear Modulus (GPa) = 66.99997 94.03588 80.51793
#
# Velocity S-wave (km/s) = 5.80398 6.87599 6.36261
# Velocity P-wave (km/s) = 7.95583 9.40169 8.70882
#
# Compressibility (1/GPa) = 0.02735418
#
# Stress axis : x y z
#
# Youngs Moduli (GPa) = 57.05932 60.53946 154.03596
#
# Poissons Ratio (x) = 0.06335 0.50280
# Poissons Ratio (y) = 0.05971 0.35123
# Poissons Ratio (z) = 0.18625 0.13804
#
# Static dielectric constant tensor:
#      x y z
#    x 1.687290 0.000000 0.000000 
#    y 0.000000 1.724240 0.000000 
#    z 0.000000 0.000000 1.744640 
# 
# From -- ./inp_files/30763.got.cif
#   From: 2010.05.17/outbox.cif.g08.bks.cpg/sg74_16_cif.got.tgz:30763.got - 2010.06.03 17:57:02.
