data_PCOD9536053
_publ_section_title
;
Structure prediction by ZEFSAII (Michael W. Deem and Ramdas Pophale) SiO2 
 PCOD9536053
Probable space group: I M M A
;
_chemical_formula_sum "Si O2"
_cell_formula_units_Z 80
_cell_length_a 16.316387
_cell_length_b 20.949047
_cell_length_c 12.819274
_cell_angle_alpha 90.000000
_cell_angle_beta 90.000000
_cell_angle_gamma 90.000000
_cell_volume 4381.791403
_symmetry_space_group_name_H-M "I M M A"
_symmetry_group_IT_number 74
_symmetry_cell_setting 'orthorhombic'
loop_
_space_group_symop_operation_xyz
x,y,z
-x,1/2-y,z
x,-y,-z
-x,1/2+y,-z
-x,-y,-z
x,1/2+y,-z
-x,y,z
x,1/2-y,z
1/2+x,1/2+y,1/2+z
1/2-x,-y,1/2+z
1/2+x,1/2-y,1/2-z
1/2-x,y,1/2-z
1/2-x,1/2-y,1/2-z
1/2+x,y,1/2-z
1/2-x,1/2+y,1/2+z
1/2+x,-y,1/2+z
loop_
_atom_site_type_symbol
_atom_site_label
_atom_site_fract_x
_atom_site_fract_y
_atom_site_fract_z
Si Si1 0.158378 0.595876 0.204430
Si Si2 0.405163 0.423229 0.485544
Si Si3 0.902896 0.178753 0.617184
Si Si4 0.347768 0.050794 0.262208
Si Si5 0.597816 0.569225 0.964990
O O1 0.250000 0.598596 0.250000
O O2 0.109653 0.648524 0.269157
O O3 0.126133 0.524057 0.229480
O O4 0.148240 0.604362 0.080558
O O5 0.402124 0.500000 0.500000
O O6 0.500000 0.403304 0.496312
O O7 0.373752 0.413693 0.367960
O O8 0.867768 0.250000 0.608613
O O9 0.868844 0.126626 0.535591
O O10 0.000000 0.183199 0.597630
O O11 0.250000 0.051361 0.250000
O O12 0.385431 0.078214 0.156673
O O13 0.500000 0.566635 0.981837
O O14 0.632562 0.500000 0.000000
#
# Coordination Sequence:
#
# PCOD9536053 Si02
#       5
#    16  16  16  16  16
#     4  10  20  32  52  78 109 143 177 223 273 325
#     4   9  18  31  48  74 109 143 176 217 272 330
#     4  10  21  36  55  79 108 143 182 226 276 329
#     4  10  20  30  51  80 112 142 176 223 274 320
#     4  10  19  32  55  80 106 140 181 224 270 322
#
# _framework density 18.257373999999999
#
# number of rings (size 3 to 8) (size 9 to 14) (size 15 to 20)
#    0.000    2.200    2.000    1.200    2.800    2.800 
#    0.000    0.000    0.000    1.800    0.000    2.800 
#    0.000    0.000    0.000    0.000    0.000    0.000 
#
# Total GULP energy -223017.383077 kJ/mol
# GULP energy per Si atom -5575.434577 kJ/mol
# Density = 1.821582 g / cm^3
# Si number density = 18.257374 Si / 1000 Ang^3
#
#
#
# Elastic Constant Matrix: (Units=GPa)
#
#
# Indices 1 2 3 4 5 6 
#
# 1 33.3498 18.1445 22.8799 0.0000 0.0000 0.0000
# 2 18.1445 95.5662 59.7284 0.0000 0.0000 0.0000
# 3 22.8799 59.7284 173.3743 0.0000 0.0000 0.0000
# 4 0.0000 0.0000 0.0000 2.9085 0.0000 0.0000
# 5 0.0000 0.0000 0.0000 0.0000 26.4424 0.0000
# 6 0.0000 0.0000 0.0000 0.0000 0.0000 0.1293
#
#
#
# Elastic Compliance Matrix: (Units=1/GPa)
#
#
# Indices 1 2 3 4 5 6 
#
# 1 0.034571 -0.004731 -0.002932 0.000000 0.000000 0.000000
# 2 -0.004731 0.013983 -0.004193 0.000000 0.000000 0.000000
# 3 -0.002932 -0.004193 0.007599 0.000000 0.000000 0.000000
# 4 0.000000 0.000000 0.000000 0.343814 0.000000 0.000000
# 5 0.000000 0.000000 0.000000 0.000000 0.037818 0.000000
# 6 0.000000 0.000000 0.000000 0.000000 0.000000 7.734493
#
#
# Mechanical properties :
#
#
# Convention : Reuss Voigt Hill
#
# Bulk Modulus (GPa) = 30.82564 55.97733 43.40148
# Shear Modulus (GPa) = 0.60925 19.33189 9.97057
#
# Velocity S-wave (km/s) = 0.57830 3.25753 2.33944
# Velocity P-wave (km/s) = 4.16731 6.69891 5.57861
#
# Compressibility (1/GPa) = 0.03244053
#
# Stress axis : x y z
#
# Youngs Moduli (GPa) = 28.92604 71.51722 131.59142
#
# Poissons Ratio (x) = 0.33835 0.38588
# Poissons Ratio (y) = 0.13685 0.55173
# Poissons Ratio (z) = 0.08482 0.29985
#
# Static dielectric constant tensor:
#      x y z
#    x 1.664160 0.000000 0.000000 
#    y 0.000000 1.629060 0.000000 
#    z 0.000000 0.000000 1.635900 
# 
# From -- ./inp_files/20509.got.cif
#   From: 2010.05.17/outbox.cif.g08.bks.cpg/sg74_11_cif.got.tgz:20509.got - 2010.06.03 17:57:02.
