data_PCOD9536287
_publ_section_title
;
Structure prediction by ZEFSAII (Michael W. Deem and Ramdas Pophale) SiO2 
 PCOD9536287
Probable space group: I M M A
;
_chemical_formula_sum "Si O2"
_cell_formula_units_Z 72
_cell_length_a 9.396134
_cell_length_b 16.306728
_cell_length_c 23.522333
_cell_angle_alpha 90.000000
_cell_angle_beta 90.000000
_cell_angle_gamma 90.000000
_cell_volume 3604.096599
_symmetry_space_group_name_H-M "I M M A"
_symmetry_group_IT_number 74
_symmetry_cell_setting 'orthorhombic'
loop_
_space_group_symop_operation_xyz
x,y,z
-x,1/2-y,z
x,-y,-z
-x,1/2+y,-z
-x,-y,-z
x,1/2+y,-z
-x,y,z
x,1/2-y,z
1/2+x,1/2+y,1/2+z
1/2-x,-y,1/2+z
1/2+x,1/2-y,1/2-z
1/2-x,y,1/2-z
1/2-x,1/2-y,1/2-z
1/2+x,y,1/2-z
1/2-x,1/2+y,1/2+z
1/2+x,-y,1/2+z
loop_
_atom_site_type_symbol
_atom_site_label
_atom_site_fract_x
_atom_site_fract_y
_atom_site_fract_z
Si Si1 0.831034 0.656844 0.810488
Si Si2 0.830601 0.927843 0.044774
Si Si3 0.327404 0.750000 0.457469
Si Si4 0.159804 0.750000 0.168792
Si Si5 0.750000 0.895665 0.250000
Si Si6 0.836878 0.503952 0.647398
O O1 0.816403 0.750000 0.833153
O O2 0.750000 0.655085 0.750000
O O3 0.756429 0.586237 0.846745
O O4 0.000000 0.640556 0.803362
O O5 0.786905 0.839325 0.019640
O O6 0.000000 0.925127 0.059617
O O7 0.739419 0.948225 0.100331
O O8 0.810258 0.000000 0.000000
O O9 0.500000 0.750000 0.462909
O O10 0.265201 0.750000 0.392308
O O11 0.178781 0.669265 0.206880
O O12 0.000000 0.750000 0.149601
O O13 0.834338 0.955661 0.292226
O O14 0.000000 0.521698 0.632678
#
# Coordination Sequence:
#
# PCOD9536287 Si02
#       6
#    16  16   8   8   8  16
#     4  10  21  37  58  85 119 159 203 248 297 355
#     4  10  22  42  65  87 117 160 212 266 315 369
#     4   9  17  35  63  89 116 159 207 257 314 370
#     4  10  19  33  55  84 124 162 201 246 296 370
#     4  11  22  34  53  88 126 166 203 240 308 379
#     4  12  24  37  60  90 126 163 201 253 310 375
#
# _framework density 19.977267999999999
#
# number of rings (size 3 to 8) (size 9 to 14) (size 15 to 20)
#    0.000    1.556    3.333    2.000    0.000    3.556 
#    2.000    1.667    0.000    0.000    0.000    0.000 
#    0.000    0.000    0.000    0.000    0.000    0.000 
#
# Total GULP energy -200599.479283 kJ/mol
# GULP energy per Si atom -5572.207758 kJ/mol
# Density = 1.993180 g / cm^3
# Si number density = 19.977268 Si / 1000 Ang^3
#
#
#
# Elastic Constant Matrix: (Units=GPa)
#
#
# Indices 1 2 3 4 5 6 
#
# 1 92.0024 52.5653 18.2575 0.0000 0.0000 0.0000
# 2 52.5653 185.7573 29.7901 0.0000 0.0000 0.0000
# 3 18.2575 29.7901 31.0777 0.0000 0.0000 0.0000
# 4 0.0000 0.0000 0.0000 30.8645 0.0000 0.0000
# 5 0.0000 0.0000 0.0000 0.0000 15.5240 0.0000
# 6 0.0000 0.0000 0.0000 0.0000 0.0000 -8.2959
#
#
#
# Elastic Compliance Matrix: (Units=1/GPa)
#
#
# Indices 1 2 3 4 5 6 
#
# 1 0.013614 -0.003037 -0.005087 0.000000 0.000000 0.000000
# 2 -0.003037 0.007039 -0.004963 0.000000 0.000000 0.000000
# 3 -0.005087 -0.004963 0.039923 0.000000 0.000000 0.000000
# 4 0.000000 0.000000 0.000000 0.032400 0.000000 0.000000
# 5 0.000000 0.000000 0.000000 0.000000 0.064416 0.000000
# 6 0.000000 0.000000 0.000000 0.000000 0.000000 -0.120541
#
#
# Mechanical properties :
#
#
# Convention : Reuss Voigt Hill
#
# Bulk Modulus (GPa) = 29.06777 56.67368 42.87073
# Shear Modulus (GPa) = 67.12230 21.50015 44.31123
#
# Velocity S-wave (km/s) = 5.80278 3.28415 4.71476
# Velocity P-wave (km/s) = 7.71222 6.54306 7.15157
#
# Compressibility (1/GPa) = 0.03440236
#
# Stress axis : x y z
#
# Youngs Moduli (GPa) = 73.45531 142.07414 25.04804
#
# Poissons Ratio (x) = 0.43142 0.12742
# Poissons Ratio (y) = 0.22305 0.12431
# Poissons Ratio (z) = 0.37367 0.70512
#
# Static dielectric constant tensor:
#      x y z
#    x 1.679160 0.000000 0.000000 
#    y 0.000000 1.738370 0.000000 
#    z 0.000000 0.000000 1.716950 
# 
# From -- ./inp_files/63698.got.cif
#   From: 2010.05.17/outbox.cif.g08.bks.cpg/sg74_32_cif.got.tgz:63698.got - 2010.06.03 17:57:02.
