data_PCOD9536869
_publ_section_title
;
Structure prediction by ZEFSAII (Michael W. Deem and Ramdas Pophale) SiO2 
 PCOD9536869
Probable space group: I M M A
;
_chemical_formula_sum "Si O2"
_cell_formula_units_Z 96
_cell_length_a 16.926251
_cell_length_b 24.357195
_cell_length_c 11.548480
_cell_angle_alpha 90.000000
_cell_angle_beta 90.000000
_cell_angle_gamma 90.000000
_cell_volume 4761.161097
_symmetry_space_group_name_H-M "I M M A"
_symmetry_group_IT_number 74
_symmetry_cell_setting 'orthorhombic'
loop_
_space_group_symop_operation_xyz
x,y,z
-x,1/2-y,z
x,-y,-z
-x,1/2+y,-z
-x,-y,-z
x,1/2+y,-z
-x,y,z
x,1/2-y,z
1/2+x,1/2+y,1/2+z
1/2-x,-y,1/2+z
1/2+x,1/2-y,1/2-z
1/2-x,y,1/2-z
1/2-x,1/2-y,1/2-z
1/2+x,y,1/2-z
1/2-x,1/2+y,1/2+z
1/2+x,-y,1/2+z
loop_
_atom_site_type_symbol
_atom_site_label
_atom_site_fract_x
_atom_site_fract_y
_atom_site_fract_z
Si Si1 0.593758 0.186508 0.121277
Si Si2 0.089755 0.313024 0.797127
Si Si3 0.168064 0.623018 0.405424
Si Si4 0.351600 0.403027 0.550591
Si Si5 0.656878 0.402622 0.279521
Si Si6 0.154002 0.520966 0.261197
O O1 0.500000 0.187443 0.104983
O O2 0.621678 0.250000 0.122661
O O3 0.615070 0.152210 0.235787
O O4 0.632234 0.151320 0.017920
O O5 0.106703 0.250000 0.822560
O O6 0.148774 0.336917 0.701401
O O7 0.097908 0.351003 0.909021
O O8 0.000000 0.317103 0.751092
O O9 0.260498 0.612930 0.424218
O O10 0.134352 0.564166 0.362380
O O11 0.356149 0.413590 0.415144
O O12 0.372899 0.452314 0.639025
O O13 0.750000 0.396486 0.250000
O O14 0.627586 0.458809 0.218588
O O15 0.250000 0.518553 0.250000
#
# Coordination Sequence:
#
# PCOD9536869 Si02
#       6
#    16  16  16  16  16  16
#     4  11  25  42  59  83 121 165 202 243 298 352
#     4  10  21  36  56  82 115 156 196 243 303 353
#     4  10  19  38  61  90 115 147 197 249 299 350
#     4  10  20  36  59  90 116 150 197 245 294 353
#     4  11  21  39  60  86 118 158 197 240 286 353
#     4   8  18  34  62  90 118 144 187 244 303 351
#
# _framework density 20.163149000000001
#
# number of rings (size 3 to 8) (size 9 to 14) (size 15 to 20)
#    0.000    2.000    1.667    3.000    0.000    5.667 
#    0.000    6.667    0.000    5.000    0.000    0.000 
#    0.000    0.000    0.000    0.000    0.000    0.000 
#
# Total GULP energy -267862.219494 kJ/mol
# GULP energy per Si atom -5580.462906 kJ/mol
# Density = 2.011726 g / cm^3
# Si number density = 20.163149 Si / 1000 Ang^3
#
#
#
# Elastic Constant Matrix: (Units=GPa)
#
#
# Indices 1 2 3 4 5 6 
#
# 1 26.3266 26.5221 6.1844 0.0000 0.0000 0.0000
# 2 26.5221 137.6774 32.7271 0.0000 0.0000 0.0000
# 3 6.1844 32.7271 62.2356 0.0000 0.0000 0.0000
# 4 0.0000 0.0000 0.0000 -0.8086 0.0000 0.0000
# 5 0.0000 0.0000 0.0000 0.0000 21.4833 0.0000
# 6 0.0000 0.0000 0.0000 0.0000 0.0000 29.4533
#
#
#
# Elastic Compliance Matrix: (Units=1/GPa)
#
#
# Indices 1 2 3 4 5 6 
#
# 1 0.047132 -0.009104 0.000104 0.000000 0.000000 0.000000
# 2 -0.009104 0.010060 -0.004385 0.000000 0.000000 0.000000
# 3 0.000104 -0.004385 0.018364 0.000001 0.000000 0.000000
# 4 0.000000 0.000000 0.000001 -1.236711 0.000000 0.000001
# 5 0.000000 0.000000 0.000000 0.000000 0.046548 0.000000
# 6 0.000000 0.000000 0.000000 0.000001 0.000000 0.033952
#
#
# Mechanical properties :
#
#
# Convention : Reuss Voigt Hill
#
# Bulk Modulus (GPa) = 20.49847 39.67853 30.08850
# Shear Modulus (GPa) = -4.81870 20.74601 7.96365
#
# Velocity S-wave (km/s) = -1.54759 3.21114 1.98952
# Velocity P-wave (km/s) = 2.64480 5.78533 4.49805
#
# Compressibility (1/GPa) = 0.04878412
#
# Stress axis : x y z
#
# Youngs Moduli (GPa) = 21.21717 99.40786 54.45537
#
# Poissons Ratio (x) = 0.90502 -0.00566
# Poissons Ratio (y) = 0.19316 0.23880
# Poissons Ratio (z) = -0.00221 0.43593
#
# Static dielectric constant tensor:
#      x y z
#    x 1.714490 0.000000 0.000000 
#    y 0.000000 1.712970 0.000000 
#    z 0.000000 0.000000 1.737230 
# 
# From -- ./inp_files/22494.got.cif
#   From: 2010.05.17/outbox.cif.g08.bks.cpg/sg74_12_cif.got.tgz:22494.got - 2010.06.03 17:57:02.
