data_PCOD9536434
_publ_section_title
;
Structure prediction by ZEFSAII (Michael W. Deem and Ramdas Pophale) SiO2 
 PCOD9536434
Probable space group: I M M A
;
_chemical_formula_sum "Si O2"
_cell_formula_units_Z 88
_cell_length_a 18.158059
_cell_length_b 7.777602
_cell_length_c 28.489757
_cell_angle_alpha 90.000000
_cell_angle_beta 90.000000
_cell_angle_gamma 90.000000
_cell_volume 4023.498866
_symmetry_space_group_name_H-M "I M M A"
_symmetry_group_IT_number 74
_symmetry_cell_setting 'orthorhombic'
loop_
_space_group_symop_operation_xyz
x,y,z
-x,1/2-y,z
x,-y,-z
-x,1/2+y,-z
-x,-y,-z
x,1/2+y,-z
-x,y,z
x,1/2-y,z
1/2+x,1/2+y,1/2+z
1/2-x,-y,1/2+z
1/2+x,1/2-y,1/2-z
1/2-x,y,1/2-z
1/2-x,1/2-y,1/2-z
1/2+x,y,1/2-z
1/2-x,1/2+y,1/2+z
1/2+x,-y,1/2+z
loop_
_atom_site_type_symbol
_atom_site_label
_atom_site_fract_x
_atom_site_fract_y
_atom_site_fract_z
Si Si1 0.000000 0.542528 0.054906
Si Si2 0.088885 0.553728 0.318031
Si Si3 0.581789 0.550387 0.922120
Si Si4 0.764780 0.545583 0.550310
Si Si5 0.413784 0.539764 0.283216
Si Si6 0.136706 0.954694 0.117278
O O1 0.927911 0.478675 0.082951
O O2 0.000000 0.750000 0.057566
O O3 0.000000 0.500000 0.000000
O O4 0.115814 0.750000 0.324051
O O5 0.100635 0.456996 0.366598
O O6 0.114589 0.481218 0.267907
O O7 0.000000 0.561367 0.312789
O O8 0.500000 0.472920 0.929136
O O9 0.576632 0.750000 0.935970
O O10 0.652544 0.470129 0.946960
O O11 0.730906 0.500000 0.500000
O O12 0.769846 0.750000 0.553629
O O13 0.714052 0.485296 0.592589
O O14 0.500000 0.493380 0.289251
O O15 0.411386 0.750000 0.280707
O O16 0.371691 0.479773 0.329606
O O17 0.125498 0.750000 0.120646
#
# Coordination Sequence:
#
# PCOD9536434 Si02
#       6
#     8  16  16  16  16  16
#     4  10  20  32  50  74 100 136 180 220 257 300
#     4   8  14  26  50  82 109 134 169 213 255 300
#     4   9  19  37  58  78 103 135 170 211 263 322
#     4  11  24  40  56  76 103 135 172 218 270 318
#     4   8  13  26  50  79 109 140 176 215 252 294
#     4  10  19  34  55  78 106 142 179 215 259 305
#
# _framework density 21.871511000000002
#
# number of rings (size 3 to 8) (size 9 to 14) (size 15 to 20)
#    0.000    2.727    0.909    2.182    0.000    4.000 
#    0.000    1.818    0.000    6.545    0.000    0.000 
#    0.000    0.000    0.000    0.000    0.000    0.000 
#
# Total GULP energy -245368.686821 kJ/mol
# GULP energy per Si atom -5576.561064 kJ/mol
# Density = 2.182173 g / cm^3
# Si number density = 21.871511 Si / 1000 Ang^3
#
#
#
# Elastic Constant Matrix: (Units=GPa)
#
#
# Indices 1 2 3 4 5 6 
#
# 1 62.8152 -5.5484 6.8853 0.0000 0.0000 0.0000
# 2 -5.5484 26.9373 -11.6005 0.0000 0.0000 0.0000
# 3 6.8853 -11.6005 65.9345 0.0000 0.0000 0.0000
# 4 0.0000 0.0000 0.0000 16.5829 0.0000 0.0000
# 5 0.0000 0.0000 0.0000 0.0000 47.6631 0.0000
# 6 0.0000 0.0000 0.0000 0.0000 0.0000 14.6177
#
#
#
# Elastic Compliance Matrix: (Units=1/GPa)
#
#
# Indices 1 2 3 4 5 6 
#
# 1 0.016302 0.002840 -0.001203 0.000000 0.000000 0.000000
# 2 0.002840 0.040661 0.006857 0.000000 0.000000 0.000000
# 3 -0.001203 0.006857 0.016499 0.000000 0.000000 0.000000
# 4 0.000000 0.000000 0.000000 0.060303 0.000000 0.000000
# 5 0.000000 0.000000 0.000000 0.000000 0.020981 0.000000
# 6 0.000000 0.000000 0.000000 0.000000 0.000000 0.068410
#
#
# Mechanical properties :
#
#
# Convention : Reuss Voigt Hill
#
# Bulk Modulus (GPa) = 11.05565 15.01776 13.03670
# Shear Modulus (GPa) = 21.15796 26.83611 23.99703
#
# Velocity S-wave (km/s) = 3.11364 3.50664 3.31597
# Velocity P-wave (km/s) = 4.24171 4.82459 4.54251
#
# Compressibility (1/GPa) = 0.09045150
#
# Stress axis : x y z
#
# Youngs Moduli (GPa) = 61.34065 24.59339 60.61105
#
# Poissons Ratio (x) = -0.06984 0.07290
# Poissons Ratio (y) = -0.17420 -0.41563
# Poissons Ratio (z) = 0.07378 -0.16865
#
# Static dielectric constant tensor:
#      x y z
#    x 1.818460 0.000000 0.000000 
#    y 0.000000 1.811970 0.000000 
#    z 0.000000 0.000000 1.792240 
# 
# From -- ./inp_files/72986.got.cif
#   From: 2010.05.17/outbox.cif.g08.bks.cpg/sg74_37_cif.got.tgz:72986.got - 2010.06.03 17:57:02.
