data_PCOD9536417
_publ_section_title
;
Structure prediction by ZEFSAII (Michael W. Deem and Ramdas Pophale) SiO2 
 PCOD9536417
Probable space group: I M M A
;
_chemical_formula_sum "Si O2"
_cell_formula_units_Z 96
_cell_length_a 30.142935
_cell_length_b 8.982990
_cell_length_c 20.062399
_cell_angle_alpha 90.000000
_cell_angle_beta 90.000000
_cell_angle_gamma 90.000000
_cell_volume 5432.369681
_symmetry_space_group_name_H-M "I M M A"
_symmetry_group_IT_number 74
_symmetry_cell_setting 'orthorhombic'
loop_
_space_group_symop_operation_xyz
x,y,z
-x,1/2-y,z
x,-y,-z
-x,1/2+y,-z
-x,-y,-z
x,1/2+y,-z
-x,y,z
x,1/2-y,z
1/2+x,1/2+y,1/2+z
1/2-x,-y,1/2+z
1/2+x,1/2-y,1/2-z
1/2-x,y,1/2-z
1/2-x,1/2-y,1/2-z
1/2+x,y,1/2-z
1/2-x,1/2+y,1/2+z
1/2+x,-y,1/2+z
loop_
_atom_site_type_symbol
_atom_site_label
_atom_site_fract_x
_atom_site_fract_y
_atom_site_fract_z
Si Si1 0.448501 0.926812 0.795064
Si Si2 0.168146 0.429161 0.931898
Si Si3 0.733988 0.571673 0.930861
Si Si4 0.445859 0.420983 0.932315
Si Si5 0.621807 0.574724 0.293871
Si Si6 0.708157 0.573326 0.202917
O O1 0.500000 0.970520 0.785993
O O2 0.446543 0.750000 0.801733
O O3 0.432120 0.999151 0.864312
O O4 0.418767 0.982104 0.734557
O O5 0.173634 0.250000 0.937412
O O6 0.216365 0.504059 0.921934
O O7 0.137648 0.460967 0.868376
O O8 0.150173 0.500000 0.000000
O O9 0.735554 0.750000 0.936092
O O10 0.708230 0.518420 0.865261
O O11 0.716912 0.500000 0.000000
O O12 0.500000 0.425127 0.933303
O O13 0.431880 0.250000 0.931531
O O14 0.430634 0.500000 0.000000
O O15 0.610799 0.750000 0.291232
O O16 0.663985 0.550804 0.245727
O O17 0.712660 0.750000 0.187475
O O18 0.750000 0.532861 0.250000
#
# Coordination Sequence:
#
# PCOD9536417 Si02
#       6
#    16  16  16  16  16  16
#     4  10  21  36  54  78 109 142 179 227 277 322
#     4  10  19  34  54  80 109 141 179 221 269 318
#     4  11  21  33  52  78 109 147 187 223 265 316
#     4   9  16  28  49  75 102 133 172 216 262 314
#     4  10  21  36  57  81 108 143 180 220 270 324
#     4  10  19  36  56  77 110 144 174 217 268 319
#
# _framework density 17.671845000000001
#
# number of rings (size 3 to 8) (size 9 to 14) (size 15 to 20)
#    0.000    2.000    1.667    4.000    0.000    5.333 
#    0.000    0.833    0.000    4.500    0.000    0.000 
#    0.000    0.000    0.000    0.000    0.000    0.000 
#
# Total GULP energy -267986.365857 kJ/mol
# GULP energy per Si atom -5583.049289 kJ/mol
# Density = 1.763162 g / cm^3
# Si number density = 17.671845 Si / 1000 Ang^3
#
#
#
# Elastic Constant Matrix: (Units=GPa)
#
#
# Indices 1 2 3 4 5 6 
#
# 1 23.9319 32.4543 26.4677 0.0000 0.0000 0.0000
# 2 32.4543 94.0683 76.4269 0.0000 0.0000 0.0000
# 3 26.4677 76.4269 146.8552 0.0000 0.0000 0.0000
# 4 0.0000 0.0000 0.0000 34.6864 0.0000 0.0000
# 5 0.0000 0.0000 0.0000 0.0000 19.5375 0.0000
# 6 0.0000 0.0000 0.0000 0.0000 0.0000 18.8555
#
#
#
# Elastic Compliance Matrix: (Units=1/GPa)
#
#
# Indices 1 2 3 4 5 6 
#
# 1 0.078525 -0.027017 -0.000093 0.000000 0.000000 0.000000
# 2 -0.027017 0.027713 -0.009553 0.000000 0.000000 0.000000
# 3 -0.000093 -0.009553 0.011798 0.000000 0.000000 0.000000
# 4 0.000000 0.000000 0.000000 0.028830 0.000000 0.000000
# 5 0.000000 0.000000 0.000000 0.000000 0.051184 0.000000
# 6 0.000000 0.000000 0.000000 0.000000 0.000000 0.053035
#
#
# Mechanical properties :
#
#
# Convention : Reuss Voigt Hill
#
# Bulk Modulus (GPa) = 22.36574 59.50588 40.93581
# Shear Modulus (GPa) = 14.73564 23.24963 18.99263
#
# Velocity S-wave (km/s) = 2.89078 3.63110 3.28188
# Velocity P-wave (km/s) = 4.88116 7.16419 6.12990
#
# Compressibility (1/GPa) = 0.04471125
#
# Stress axis : x y z
#
# Youngs Moduli (GPa) = 12.73479 36.08379 84.76052
#
# Poissons Ratio (x) = 0.97486 0.00784
# Poissons Ratio (y) = 0.34405 0.80976
# Poissons Ratio (z) = 0.00118 0.34472
#
# Static dielectric constant tensor:
#      x y z
#    x 1.599900 0.000000 0.000000 
#    y 0.000000 1.592540 0.000000 
#    z 0.000000 0.000000 1.602880 
# 
# From -- ./inp_files/49077.got.cif
#   From: 2010.05.17/outbox.cif.g08.bks.cpg/sg74_25_cif.got.tgz:49077.got - 2010.06.03 17:57:02.
