data_PCOD9536465
_publ_section_title
;
Structure prediction by ZEFSAII (Michael W. Deem and Ramdas Pophale) SiO2 
 PCOD9536465
Probable space group: I M M A
;
_chemical_formula_sum "Si O2"
_cell_formula_units_Z 88
_cell_length_a 20.366925
_cell_length_b 15.199116
_cell_length_c 12.477220
_cell_angle_alpha 90.000000
_cell_angle_beta 90.000000
_cell_angle_gamma 90.000000
_cell_volume 3862.438936
_symmetry_space_group_name_H-M "I M M A"
_symmetry_group_IT_number 74
_symmetry_cell_setting 'orthorhombic'
loop_
_space_group_symop_operation_xyz
x,y,z
-x,1/2-y,z
x,-y,-z
-x,1/2+y,-z
-x,-y,-z
x,1/2+y,-z
-x,y,z
x,1/2-y,z
1/2+x,1/2+y,1/2+z
1/2-x,-y,1/2+z
1/2+x,1/2-y,1/2-z
1/2-x,y,1/2-z
1/2-x,1/2-y,1/2-z
1/2+x,y,1/2-z
1/2-x,1/2+y,1/2+z
1/2+x,-y,1/2+z
loop_
_atom_site_type_symbol
_atom_site_label
_atom_site_fract_x
_atom_site_fract_y
_atom_site_fract_z
Si Si1 0.000000 0.342759 0.744569
Si Si2 0.284779 0.847145 0.954383
Si Si3 0.142217 0.899753 0.960160
Si Si4 0.353933 0.153732 0.819522
Si Si5 0.000000 0.038025 0.258045
Si Si6 0.000000 0.896195 0.971122
Si Si7 0.854116 0.539800 0.719964
O O1 0.067103 0.342655 0.678894
O O2 0.000000 0.439480 0.795330
O O3 0.000000 0.250000 0.807532
O O4 0.296359 0.750000 0.907607
O O5 0.209442 0.854092 0.991044
O O6 0.305708 0.919246 0.867239
O O7 0.327466 0.856864 0.060951
O O8 0.145687 0.907266 0.830926
O O9 0.072484 0.861348 0.000515
O O10 0.144269 0.000000 0.000000
O O11 0.331767 0.250000 0.777221
O O12 0.337336 0.063020 0.758915
O O13 0.000000 0.104833 0.159040
O O14 0.930646 0.044737 0.318442
O O15 0.000000 0.000000 0.000000
#
# Coordination Sequence:
#
# PCOD9536465 Si02
#       7
#     8  16  16  16   8   8  16
#     4   8  14  27  49  77 111 142 163 195 248 311
#     4  11  23  36  52  76 107 143 181 218 257 306
#     4  10  20  36  57  78 102 134 175 220 267 313
#     4   9  18  33  54  82 112 139 170 209 257 315
#     4   8  16  29  49  79 104 133 174 209 250 307
#     4   8  16  32  54  74  95 127 168 218 269 312
#     4  10  19  34  56  79 108 141 174 214 260 310
#
# _framework density 22.783532000000001
#
# number of rings (size 3 to 8) (size 9 to 14) (size 15 to 20)
#    0.000    2.545    0.000    2.182    0.000    2.182 
#    0.000    5.455    0.000   14.182    0.000    0.000 
#    0.000    0.000    0.000    0.000    0.000    0.000 
#
# Total GULP energy -245311.371124 kJ/mol
# GULP energy per Si atom -5575.258435 kJ/mol
# Density = 2.273168 g / cm^3
# Si number density = 22.783532 Si / 1000 Ang^3
#
#
#
# Elastic Constant Matrix: (Units=GPa)
#
#
# Indices 1 2 3 4 5 6 
#
# 1 134.7645 28.0278 37.2381 0.0000 0.0000 0.0000
# 2 28.0278 66.9438 5.5462 0.0000 0.0000 0.0000
# 3 37.2381 5.5462 37.3499 0.0000 0.0000 0.0000
# 4 0.0000 0.0000 0.0000 -2.2931 0.0000 0.0000
# 5 0.0000 0.0000 0.0000 0.0000 14.6420 0.0000
# 6 0.0000 0.0000 0.0000 0.0000 0.0000 7.9637
#
#
#
# Elastic Compliance Matrix: (Units=1/GPa)
#
#
# Indices 1 2 3 4 5 6 
#
# 1 0.011113 -0.003781 -0.010519 0.000000 0.000000 0.000000
# 2 -0.003781 0.016411 0.001333 0.000000 0.000000 0.000000
# 3 -0.010519 0.001333 0.037063 0.000000 0.000000 0.000000
# 4 0.000000 0.000000 0.000000 -0.436096 0.000000 0.000000
# 5 0.000000 0.000000 0.000000 0.000000 0.068297 0.000000
# 6 0.000000 0.000000 0.000000 0.000000 0.000000 0.125569
#
#
# Mechanical properties :
#
#
# Convention : Reuss Voigt Hill
#
# Bulk Modulus (GPa) = 25.87089 42.29805 34.08447
# Shear Modulus (GPa) = -36.01648 15.27895 -10.36877
#
# Velocity S-wave (km/s) = -3.98026 2.59243 -2.13562
# Velocity P-wave (km/s) = 3.12146 5.25037 2.98521
#
# Compressibility (1/GPa) = 0.03865348
#
# Stress axis : x y z
#
# Youngs Moduli (GPa) = 89.98249 60.93607 26.98116
#
# Poissons Ratio (x) = 0.23043 0.28380
# Poissons Ratio (y) = 0.34026 -0.03597
# Poissons Ratio (z) = 0.94648 -0.08124
#
# Static dielectric constant tensor:
#      x y z
#    x 1.877910 0.000000 0.000000 
#    y 0.000000 1.883940 0.000000 
#    z 0.000000 0.000000 1.813900 
# 
# From -- ./inp_files/35207.got.cif
#   From: 2010.05.17/outbox.cif.g08.bks.cpg/sg74_18_cif.got.tgz:35207.got - 2010.06.03 17:57:02.
