data_PCOD9536556
_publ_section_title
;
Structure prediction by ZEFSAII (Michael W. Deem and Ramdas Pophale) SiO2 
 PCOD9536556
Probable space group: I M M A
;
_chemical_formula_sum "Si O2"
_cell_formula_units_Z 100
_cell_length_a 7.699409
_cell_length_b 21.011911
_cell_length_c 29.608325
_cell_angle_alpha 90.000000
_cell_angle_beta 90.000000
_cell_angle_gamma 90.000000
_cell_volume 4790.013994
_symmetry_space_group_name_H-M "I M M A"
_symmetry_group_IT_number 74
_symmetry_cell_setting 'orthorhombic'
loop_
_space_group_symop_operation_xyz
x,y,z
-x,1/2-y,z
x,-y,-z
-x,1/2+y,-z
-x,-y,-z
x,1/2+y,-z
-x,y,z
x,1/2-y,z
1/2+x,1/2+y,1/2+z
1/2-x,-y,1/2+z
1/2+x,1/2-y,1/2-z
1/2-x,y,1/2-z
1/2-x,1/2-y,1/2-z
1/2+x,y,1/2-z
1/2-x,1/2+y,1/2+z
1/2+x,-y,1/2+z
loop_
_atom_site_type_symbol
_atom_site_label
_atom_site_fract_x
_atom_site_fract_y
_atom_site_fract_z
Si Si1 0.000000 0.750000 0.493259
Si Si2 0.711047 0.439814 0.053475
Si Si3 0.199569 0.318157 0.393301
Si Si4 0.789264 0.567224 0.394441
Si Si5 0.292596 0.513107 0.199552
Si Si6 0.197954 0.865202 0.800797
Si Si7 0.196568 0.145406 0.975489
O O1 0.154346 0.805670 0.490282
O O2 0.500000 0.442325 0.052750
O O3 0.774846 0.379903 0.083247
O O4 0.766436 0.503247 0.079053
O O5 0.772355 0.419941 0.003953
O O6 0.281732 0.250000 0.403238
O O7 0.197234 0.331185 0.340066
O O8 0.000000 0.314267 0.409412
O O9 0.736543 0.556958 0.342297
O O10 0.719658 0.626394 0.422965
O O11 0.000000 0.570790 0.395795
O O12 0.500000 0.505347 0.196239
O O13 0.250000 0.536456 0.250000
O O14 0.217832 0.441690 0.195007
O O15 0.250000 0.848366 0.750000
O O16 0.000000 0.847377 0.808346
O O17 0.000000 0.167405 0.983677
#
# Coordination Sequence:
#
# PCOD9536556 Si02
#       7
#     4  16  16  16  16  16  16
#     4  12  26  52  66  90 138 164 212 272 320 386
#     4  10  20  38  63  89 127 172 210 263 318 373
#     4  10  21  36  56  78 107 156 207 253 312 368
#     4  10  20  39  64  93 133 171 209 258 323 382
#     4  10  19  34  58  88 124 161 201 252 315 373
#     4  11  21  34  52  73 107 149 200 260 312 365
#     4  12  26  42  69  97 126 171 218 259 319 385
#
# _framework density 20.876766
#
# number of rings (size 3 to 8) (size 9 to 14) (size 15 to 20)
#    0.000    1.440    3.200    3.600    1.120    5.120 
#    0.000    0.000    0.000    0.000    0.000    0.560 
#    0.000    0.000    0.000    0.000    0.000    0.000 
#
# Total GULP energy -278878.480062 kJ/mol
# GULP energy per Si atom -5577.569601 kJ/mol
# Density = 2.082925 g / cm^3
# Si number density = 20.876766 Si / 1000 Ang^3
#
#
#
# Elastic Constant Matrix: (Units=GPa)
#
#
# Indices 1 2 3 4 5 6 
#
# 1 105.9571 16.7341 8.0484 0.0000 0.0000 0.0000
# 2 16.7341 28.1104 25.3951 0.0000 0.0000 0.0000
# 3 8.0484 25.3951 120.3205 0.0000 0.0000 0.0000
# 4 0.0000 0.0000 0.0000 -697.5426 0.0000 0.0000
# 5 0.0000 0.0000 0.0000 0.0000 22.4972 0.0000
# 6 0.0000 0.0000 0.0000 0.0000 0.0000 7.1098
#
#
#
# Elastic Compliance Matrix: (Units=1/GPa)
#
#
# Indices 1 2 3 4 5 6 
#
# 1 0.010473 -0.006922 0.000760 0.000000 0.000000 0.000000
# 2 -0.006922 0.048529 -0.009780 0.000000 0.000000 0.000000
# 3 0.000760 -0.009780 0.010324 0.000000 0.000000 0.000000
# 4 0.000000 0.000000 0.000000 -0.001434 0.000000 0.000000
# 5 0.000000 0.000000 0.000000 0.000000 0.044450 0.000000
# 6 0.000000 0.000000 0.000000 0.000000 0.000000 0.140650
#
#
# Mechanical properties :
#
#
# Convention : Reuss Voigt Hill
#
# Bulk Modulus (GPa) = 26.70579 39.41592 33.06086
# Shear Modulus (GPa) = 16.81478 -119.97310 -51.57916
#
# Velocity S-wave (km/s) = 2.84109 -7.58894 -4.97595
# Velocity P-wave (km/s) = 4.85616 7.60711 4.14040
#
# Compressibility (1/GPa) = 0.03744507
#
# Stress axis : x y z
#
# Youngs Moduli (GPa) = 95.48204 20.60606 96.85784
#
# Poissons Ratio (x) = 0.14263 -0.07364
# Poissons Ratio (y) = 0.66088 0.94724
# Poissons Ratio (z) = -0.07260 0.20152
#
# Static dielectric constant tensor:
#      x y z
#    x 1.781630 0.000000 0.000000 
#    y 0.000000 1.738550 0.000000 
#    z 0.000000 0.000000 1.814810 
# 
# From -- ./inp_files/70556.got.cif
#   From: 2010.05.17/outbox.cif.g08.bks.cpg/sg74_36_cif.got.tgz:70556.got - 2010.06.03 17:57:02.
