data_PCOD9536149
_publ_section_title
;
Structure prediction by ZEFSAII (Michael W. Deem and Ramdas Pophale) SiO2 
 PCOD9536149
Probable space group: I M M A
;
_chemical_formula_sum "Si O2"
_cell_formula_units_Z 88
_cell_length_a 8.091499
_cell_length_b 32.984285
_cell_length_c 17.053650
_cell_angle_alpha 90.000000
_cell_angle_beta 90.000000
_cell_angle_gamma 90.000000
_cell_volume 4551.488027
_symmetry_space_group_name_H-M "I M M A"
_symmetry_group_IT_number 74
_symmetry_cell_setting 'orthorhombic'
loop_
_space_group_symop_operation_xyz
x,y,z
-x,1/2-y,z
x,-y,-z
-x,1/2+y,-z
-x,-y,-z
x,1/2+y,-z
-x,y,z
x,1/2-y,z
1/2+x,1/2+y,1/2+z
1/2-x,-y,1/2+z
1/2+x,1/2-y,1/2-z
1/2-x,y,1/2-z
1/2-x,1/2-y,1/2-z
1/2+x,y,1/2-z
1/2-x,1/2+y,1/2+z
1/2+x,-y,1/2+z
loop_
_atom_site_type_symbol
_atom_site_label
_atom_site_fract_x
_atom_site_fract_y
_atom_site_fract_z
Si Si1 0.193972 0.646487 0.542373
Si Si2 0.000000 0.296783 0.029533
Si Si3 0.695214 0.079844 0.340616
Si Si4 0.800485 0.508639 0.341129
Si Si5 0.750000 0.146405 0.750000
Si Si6 0.500000 0.297134 0.659347
Si Si7 0.686965 0.592773 0.101318
O O1 0.330591 0.681181 0.556074
O O2 0.207590 0.613592 0.611171
O O3 0.256081 0.622605 0.464310
O O4 0.000000 0.659362 0.532697
O O5 0.000000 0.250000 0.054251
O O6 0.000000 0.297814 0.934414
O O7 0.500000 0.087397 0.346686
O O8 0.750000 0.080655 0.250000
O O9 0.734246 0.034417 0.370496
O O10 0.750000 0.512596 0.250000
O O11 0.735863 0.548649 0.385434
O O12 0.000000 0.507958 0.344438
O O13 0.647768 0.177374 0.696695
O O14 0.679150 0.115927 0.815591
O O15 0.500000 0.250000 0.683921
O O16 0.500000 0.585235 0.073724
#
# Coordination Sequence:
#
# PCOD9536149 Si02
#       7
#    16   8  16  16   8   8  16
#     4  11  23  43  65  94 126 163 210 254 316 376
#     4  11  24  44  66  96 127 161 208 263 318 384
#     4  11  22  40  63  93 123 160 206 254 308 377
#     4  10  19  33  52  84 122 163 212 257 306 358
#     4  12  19  36  56  80 118 160 212 252 311 358
#     4  11  24  38  58  85 120 159 215 272 312 369
#     4  10  21  34  55  83 121 169 207 258 302 361
#
# _framework density 19.334337999999999
#
# number of rings (size 3 to 8) (size 9 to 14) (size 15 to 20)
#    0.000    1.273    4.545    3.545    0.000    1.091 
#    4.909    3.636    0.000    0.545    0.000    0.000 
#    0.000    0.000    0.000    0.000    0.000    0.000 
#
# Total GULP energy -245327.148358 kJ/mol
# GULP energy per Si atom -5575.617008 kJ/mol
# Density = 1.929033 g / cm^3
# Si number density = 19.334338 Si / 1000 Ang^3
#
#
#
# Elastic Constant Matrix: (Units=GPa)
#
#
# Indices 1 2 3 4 5 6 
#
# 1 87.2951 41.5529 5.8799 0.0000 0.0000 0.0000
# 2 41.5529 150.2376 33.2212 -0.0001 0.0000 0.0000
# 3 5.8799 33.2212 40.2377 -0.0001 0.0000 0.0000
# 4 0.0000 -0.0001 -0.0001 27.3879 0.0000 0.0000
# 5 0.0000 0.0000 0.0000 0.0000 16.3444 0.0000
# 6 0.0000 0.0000 0.0000 0.0000 0.0000 16.8070
#
#
#
# Elastic Compliance Matrix: (Units=1/GPa)
#
#
# Indices 1 2 3 4 5 6 
#
# 1 0.013250 -0.003960 0.001333 0.000000 0.000000 0.000000
# 2 -0.003960 0.009326 -0.007121 0.000000 0.000000 0.000000
# 3 0.001333 -0.007121 0.030537 0.000000 0.000000 0.000000
# 4 0.000000 0.000000 0.000000 0.036512 0.000000 0.000000
# 5 0.000000 0.000000 0.000000 0.000000 0.061183 0.000000
# 6 0.000000 0.000000 0.000000 0.000000 0.000000 0.059499
#
#
# Mechanical properties :
#
#
# Convention : Reuss Voigt Hill
#
# Bulk Modulus (GPa) = 29.74633 48.78648 39.26641
# Shear Modulus (GPa) = 20.74610 25.24895 22.99753
#
# Velocity S-wave (km/s) = 3.27925 3.61766 3.45260
# Velocity P-wave (km/s) = 5.45496 6.53742 6.02057
#
# Compressibility (1/GPa) = 0.03361759
#
# Stress axis : x y z
#
# Youngs Moduli (GPa) = 75.46956 107.22824 32.74724
#
# Poissons Ratio (x) = 0.42457 -0.04365
# Poissons Ratio (y) = 0.29882 0.23320
# Poissons Ratio (z) = -0.10059 0.76358
#
# Static dielectric constant tensor:
#      x y z
#    x 1.728550 0.000000 0.000000 
#    y 0.000000 1.677960 0.000000 
#    z 0.000000 0.000000 1.664370 
# 
# From -- ./inp_files/40172.got.cif
#   From: 2010.05.17/outbox.cif.g08.bks.cpg/sg74_21_cif.got.tgz:40172.got - 2010.06.03 17:57:02.
