data_PCOD9536348
_publ_section_title
;
Structure prediction by ZEFSAII (Michael W. Deem and Ramdas Pophale) SiO2 
 PCOD9536348
Probable space group: I M M A
;
_chemical_formula_sum "Si O2"
_cell_formula_units_Z 64
_cell_length_a 16.432671
_cell_length_b 20.692429
_cell_length_c 9.803303
_cell_angle_alpha 90.000000
_cell_angle_beta 90.000000
_cell_angle_gamma 90.000000
_cell_volume 3333.435529
_symmetry_space_group_name_H-M "I M M A"
_symmetry_group_IT_number 74
_symmetry_cell_setting 'orthorhombic'
loop_
_space_group_symop_operation_xyz
x,y,z
-x,1/2-y,z
x,-y,-z
-x,1/2+y,-z
-x,-y,-z
x,1/2+y,-z
-x,y,z
x,1/2-y,z
1/2+x,1/2+y,1/2+z
1/2-x,-y,1/2+z
1/2+x,1/2-y,1/2-z
1/2-x,y,1/2-z
1/2-x,1/2-y,1/2-z
1/2+x,y,1/2-z
1/2-x,1/2+y,1/2+z
1/2+x,-y,1/2+z
loop_
_atom_site_type_symbol
_atom_site_label
_atom_site_fract_x
_atom_site_fract_y
_atom_site_fract_z
Si Si1 0.908563 0.543193 0.785405
Si Si2 0.653516 0.676247 0.207725
Si Si3 0.326685 0.075769 0.022129
Si Si4 0.138884 0.413922 0.932689
O O1 0.854885 0.583083 0.678059
O O2 0.869667 0.474061 0.827412
O O3 0.000000 0.533876 0.731236
O O4 0.912733 0.576808 0.932385
O O5 0.633104 0.750000 0.176345
O O6 0.750000 0.673290 0.250000
O O7 0.615018 0.648007 0.345249
O O8 0.635712 0.627653 0.082672
O O9 0.230972 0.083765 0.990658
O O10 0.347860 0.000000 0.000000
#
# Coordination Sequence:
#
# PCOD9536348 Si02
#       4
#    16  16  16  16
#     4  11  22  34  53  86 118 141 183 240 286 321
#     4   9  19  35  56  84 113 142 183 235 281 328
#     4  11  19  33  59  86 111 145 187 233 277 333
#     4  10  19  33  59  82 110 148 188 227 277 333
#
# _framework density 19.199411999999999
#
# number of rings (size 3 to 8) (size 9 to 14) (size 15 to 20)
#    0.000    1.750    5.000    2.250    0.000    0.500 
#    0.000    1.250    0.000   14.250    0.000    0.000 
#    0.000    0.000    0.000    0.000    0.000    0.000 
#
# Total GULP energy -178227.659274 kJ/mol
# GULP energy per Si atom -5569.614352 kJ/mol
# Density = 1.915571 g / cm^3
# Si number density = 19.199412 Si / 1000 Ang^3
#
#
#
# Elastic Constant Matrix: (Units=GPa)
#
#
# Indices 1 2 3 4 5 6 
#
# 1 59.5597 8.9483 28.3614 0.0000 0.0000 0.0000
# 2 8.9483 101.9111 68.0709 0.0000 0.0000 0.0000
# 3 28.3614 68.0709 128.3560 0.0000 0.0000 0.0000
# 4 0.0000 0.0000 0.0000 31.3664 0.0000 0.0000
# 5 0.0000 0.0000 0.0000 0.0000 6.3761 0.0000
# 6 0.0000 0.0000 0.0000 0.0000 0.0000 -4.2865
#
#
#
# Elastic Compliance Matrix: (Units=1/GPa)
#
#
# Indices 1 2 3 4 5 6 
#
# 1 0.018965 0.001756 -0.005122 0.000000 0.000000 0.000000
# 2 0.001756 0.015358 -0.008532 0.000000 0.000000 0.000000
# 3 -0.005122 -0.008532 0.013448 0.000000 0.000000 0.000000
# 4 0.000000 0.000000 0.000000 0.031881 0.000000 0.000000
# 5 0.000000 0.000000 0.000000 0.000000 0.156835 0.000000
# 6 0.000000 0.000000 0.000000 0.000000 0.000000 -0.233292
#
#
# Mechanical properties :
#
#
# Convention : Reuss Voigt Hill
#
# Bulk Modulus (GPa) = 41.71310 55.62088 48.66699
# Shear Modulus (GPa) = 142.93057 18.98763 80.95910
#
# Velocity S-wave (km/s) = 8.63753 3.14820 6.50069
# Velocity P-wave (km/s) = 11.01132 6.49984 9.04149
#
# Compressibility (1/GPa) = 0.02397328
#
# Stress axis : x y z
#
# Youngs Moduli (GPa) = 52.72892 65.11458 74.36313
#
# Poissons Ratio (x) = -0.11432 0.38086
# Poissons Ratio (y) = -0.09258 0.63450
# Poissons Ratio (z) = 0.27006 0.55559
#
# Static dielectric constant tensor:
#      x y z
#    x 1.721170 0.000000 0.000000 
#    y 0.000000 1.683380 0.000000 
#    z 0.000000 0.000000 1.707620 
# 
# From -- ./inp_files/10219.got.cif
#   From: 2010.05.17/outbox.cif.g08.bks.cpg/sg74_6_cif.got.tgz:10219.got - 2010.06.03 17:57:02.
