data_PCOD9536153
_publ_section_title
;
Structure prediction by ZEFSAII (Michael W. Deem and Ramdas Pophale) SiO2 
 PCOD9536153
Probable space group: I M M A
;
_chemical_formula_sum "Si O2"
_cell_formula_units_Z 116
_cell_length_a 29.284781
_cell_length_b 7.384015
_cell_length_c 24.087220
_cell_angle_alpha 90.000000
_cell_angle_beta 90.000000
_cell_angle_gamma 90.000000
_cell_volume 5208.602681
_symmetry_space_group_name_H-M "I M M A"
_symmetry_group_IT_number 74
_symmetry_cell_setting 'orthorhombic'
loop_
_space_group_symop_operation_xyz
x,y,z
-x,1/2-y,z
x,-y,-z
-x,1/2+y,-z
-x,-y,-z
x,1/2+y,-z
-x,y,z
x,1/2-y,z
1/2+x,1/2+y,1/2+z
1/2-x,-y,1/2+z
1/2+x,1/2-y,1/2-z
1/2-x,y,1/2-z
1/2-x,1/2-y,1/2-z
1/2+x,y,1/2-z
1/2-x,1/2+y,1/2+z
1/2+x,-y,1/2+z
loop_
_atom_site_type_symbol
_atom_site_label
_atom_site_fract_x
_atom_site_fract_y
_atom_site_fract_z
Si Si1 0.614094 0.456503 0.176422
Si Si2 0.359383 0.966986 0.937974
Si Si3 0.255692 0.534262 0.937572
Si Si4 0.073014 0.969606 0.901352
Si Si5 0.051520 0.530873 0.773800
Si Si6 0.327763 0.531591 0.633514
Si Si7 0.698748 0.540539 0.243255
Si Si8 0.500000 0.250000 0.555902
O O1 0.597444 0.250000 0.171580
O O2 0.613124 0.537656 0.115033
O O3 0.585513 0.539992 0.226801
O O4 0.666550 0.453389 0.197143
O O5 0.357027 0.750000 0.931709
O O6 0.307247 0.037791 0.934488
O O7 0.376900 0.000000 0.000000
O O8 0.258183 0.750000 0.929222
O O9 0.218656 0.463649 0.894533
O O10 0.239076 0.500000 0.000000
O O11 0.066675 0.750000 0.909146
O O12 0.059864 0.020291 0.837522
O O13 0.127016 0.014533 0.901458
O O14 0.040236 0.090289 0.938847
O O15 0.056089 0.750000 0.775329
O O16 0.000000 0.483597 0.758752
O O17 0.327460 0.750000 0.635265
O O18 0.326771 0.473153 0.697545
O O19 0.703407 0.750000 0.227533
O O20 0.750000 0.464896 0.250000
#
# Coordination Sequence:
#
# PCOD9536153 Si02
#       8
#    16  16  16  16  16  16  16   4
#     4  10  19  33  53  74  97 136 181 216 261 326
#     4   9  18  32  52  74  99 133 180 223 264 318
#     4   9  18  33  52  76 102 135 176 221 265 309
#     4  10  20  34  52  79 110 140 179 226 269 329
#     4   9  16  30  50  72 102 131 169 221 270 313
#     4  10  20  35  54  75 107 141 177 221 265 320
#     4  11  23  33  45  72 110 145 174 212 266 326
#     4  12  22  32  56  78 108 148 182 216 278 328
#
# _framework density 22.270849999999999
#
# number of rings (size 3 to 8) (size 9 to 14) (size 15 to 20)
#    0.000    2.207    2.069    1.448    0.966    3.310 
#    0.000    2.759    0.000    0.414    0.000    0.483 
#    0.000    0.000    0.000    0.000    0.000    0.000 
#
# Total GULP energy -323358.250164 kJ/mol
# GULP energy per Si atom -5575.142244 kJ/mol
# Density = 2.222016 g / cm^3
# Si number density = 22.270850 Si / 1000 Ang^3
#
#
#
# Elastic Constant Matrix: (Units=GPa)
#
#
# Indices 1 2 3 4 5 6 
#
# 1 43.4262 5.6166 -0.7371 0.0000 0.0000 0.0000
# 2 5.6166 95.9348 -0.6291 0.0000 0.0000 0.0000
# 3 -0.7371 -0.6291 86.9809 0.0000 0.0000 0.0000
# 4 0.0000 0.0000 0.0000 9.3761 0.0000 0.0000
# 5 0.0000 0.0000 0.0000 0.0000 6.5282 0.0000
# 6 0.0000 0.0000 0.0000 0.0000 0.0000 -7.1568
#
#
#
# Elastic Compliance Matrix: (Units=1/GPa)
#
#
# Indices 1 2 3 4 5 6 
#
# 1 0.023206 -0.001357 0.000187 0.000000 0.000000 0.000000
# 2 -0.001357 0.010504 0.000064 0.000000 0.000000 0.000000
# 3 0.000187 0.000064 0.011499 0.000000 0.000000 0.000000
# 4 0.000000 0.000000 0.000000 0.106654 0.000000 0.000000
# 5 0.000000 0.000000 0.000000 0.000000 0.153180 0.000000
# 6 0.000000 0.000000 0.000000 0.000000 0.000000 -0.139727
#
#
# Mechanical properties :
#
#
# Convention : Reuss Voigt Hill
#
# Bulk Modulus (GPa) = 23.25767 26.09364 24.67566
# Shear Modulus (GPa) = 27.49357 16.55561 22.02459
#
# Velocity S-wave (km/s) = 3.51737 2.72945 3.14816
# Velocity P-wave (km/s) = 5.19246 4.65566 4.93137
#
# Compressibility (1/GPa) = 0.04299656
#
# Stress axis : x y z
#
# Youngs Moduli (GPa) = 43.09176 95.20513 86.96544
#
# Poissons Ratio (x) = 0.12923 -0.01625
# Poissons Ratio (y) = 0.05849 -0.00561
# Poissons Ratio (z) = -0.00805 -0.00614
#
# Static dielectric constant tensor:
#      x y z
#    x 1.822620 0.000000 0.000000 
#    y 0.000000 1.863170 0.000000 
#    z 0.000000 0.000000 1.852530 
# 
# From -- ./inp_files/62756.got.cif
#   From: 2010.05.17/outbox.cif.g08.bks.cpg/sg74_32_cif.got.tgz:62756.got - 2010.06.03 17:57:02.
