data_PCOD9536470
_publ_section_title
;
Structure prediction by ZEFSAII (Michael W. Deem and Ramdas Pophale) SiO2 
 PCOD9536470
Probable space group: I M M A
;
_chemical_formula_sum "Si O2"
_cell_formula_units_Z 104
_cell_length_a 18.696525
_cell_length_b 7.507883
_cell_length_c 34.634258
_cell_angle_alpha 90.000000
_cell_angle_beta 90.000000
_cell_angle_gamma 90.000000
_cell_volume 4861.656589
_symmetry_space_group_name_H-M "I M M A"
_symmetry_group_IT_number 74
_symmetry_cell_setting 'orthorhombic'
loop_
_space_group_symop_operation_xyz
x,y,z
-x,1/2-y,z
x,-y,-z
-x,1/2+y,-z
-x,-y,-z
x,1/2+y,-z
-x,y,z
x,1/2-y,z
1/2+x,1/2+y,1/2+z
1/2-x,-y,1/2+z
1/2+x,1/2-y,1/2-z
1/2-x,y,1/2-z
1/2-x,1/2-y,1/2-z
1/2+x,y,1/2-z
1/2-x,1/2+y,1/2+z
1/2+x,-y,1/2+z
loop_
_atom_site_type_symbol
_atom_site_label
_atom_site_fract_x
_atom_site_fract_y
_atom_site_fract_z
Si Si1 0.817471 0.534955 0.831114
Si Si2 0.580093 0.962378 0.100675
Si Si3 0.082387 0.532052 0.760862
Si Si4 0.500000 0.463809 0.545443
Si Si5 0.352524 0.038966 0.580788
Si Si6 0.344941 0.464394 0.181331
Si Si7 0.204887 0.036283 0.545021
O O1 0.815650 0.750000 0.829523
O O2 0.870493 0.474185 0.797350
O O3 0.844192 0.484781 0.873508
O O4 0.736294 0.470588 0.824396
O O5 0.500000 0.034666 0.095716
O O6 0.576218 0.750000 0.094545
O O7 0.639608 0.033385 0.071052
O O8 0.608307 0.990789 0.143979
O O9 0.082496 0.750000 0.760748
O O10 0.118888 0.473139 0.720921
O O11 0.000000 0.475584 0.763305
O O12 0.500000 0.250000 0.551065
O O13 0.500000 0.500000 0.500000
O O14 0.572888 0.534326 0.564646
O O15 0.353379 0.250000 0.572615
O O16 0.281218 0.965995 0.560206
O O17 0.341459 0.250000 0.183703
O O18 0.206258 0.250000 0.550343
O O19 0.195271 0.000000 0.500000
#
# Coordination Sequence:
#
# PCOD9536470 Si02
#       7
#    16  16  16   8  16  16  16
#     4  10  20  33  54  82 109 142 185 226 267 321
#     4  10  21  37  56  79 110 145 180 221 271 325
#     4   9  18  32  51  78 112 145 178 222 272 317
#     4  10  22  38  58  84 112 146 186 230 278 328
#     4  10  21  38  57  80 112 147 180 221 275 326
#     4  10  19  34  56  81 108 142 184 227 269 316
#     4  10  21  37  57  79 107 141 176 218 269 322
#
# _framework density 21.391884000000001
#
# number of rings (size 3 to 8) (size 9 to 14) (size 15 to 20)
#    0.000    2.154    1.538    1.385    1.077    4.923 
#    0.000    0.769    0.000    2.769    0.000    0.000 
#    0.000    0.000    0.000    0.000    0.000    0.000 
#
# Total GULP energy -290634.242424 kJ/mol
# GULP energy per Si atom -5589.120047 kJ/mol
# Density = 2.134320 g / cm^3
# Si number density = 21.391884 Si / 1000 Ang^3
#
#
#
# Elastic Constant Matrix: (Units=GPa)
#
#
# Indices 1 2 3 4 5 6 
#
# 1 243.0543 6.8641 109.7648 0.0000 0.0000 0.0000
# 2 6.8641 53.1573 -21.2138 0.0000 0.0000 0.0000
# 3 109.7648 -21.2138 146.7478 0.0000 0.0000 0.0000
# 4 0.0000 0.0000 0.0000 22.4473 0.0000 0.0000
# 5 0.0000 0.0000 0.0000 0.0000 -16.3703 0.0000
# 6 0.0000 0.0000 0.0000 0.0000 0.0000 2.7223
#
#
#
# Elastic Compliance Matrix: (Units=1/GPa)
#
#
# Indices 1 2 3 4 5 6 
#
# 1 0.006639 -0.003013 -0.005401 0.000000 0.000000 0.000000
# 2 -0.003013 0.021331 0.005337 0.000000 0.000000 0.000000
# 3 -0.005401 0.005337 0.011626 0.000000 0.000000 0.000000
# 4 0.000000 0.000000 0.000000 0.044549 0.000000 0.000000
# 5 0.000000 0.000000 0.000000 0.000000 -0.061086 0.000000
# 6 0.000000 0.000000 0.000000 0.000000 0.000000 0.367340
#
#
# Mechanical properties :
#
#
# Convention : Reuss Voigt Hill
#
# Bulk Modulus (GPa) = 29.90256 70.42109 50.16182
# Shear Modulus (GPa) = 12.26398 24.92947 18.59672
#
# Velocity S-wave (km/s) = 2.39697 3.41746 2.95165
# Velocity P-wave (km/s) = 4.65504 6.96872 5.92589
#
# Compressibility (1/GPa) = 0.03344195
#
# Stress axis : x y z
#
# Youngs Moduli (GPa) = 150.63632 46.88024 86.01586
#
# Poissons Ratio (x) = 0.14123 0.46457
# Poissons Ratio (y) = 0.45381 -0.45906
# Poissons Ratio (z) = 0.81358 -0.25020
#
# Static dielectric constant tensor:
#      x y z
#    x 1.768030 0.000000 0.000000 
#    y 0.000000 1.933690 0.000000 
#    z 0.000000 0.000000 1.697550 
# 
# From -- ./inp_files/67784.got.cif
#   From: 2010.05.17/outbox.cif.g08.bks.cpg/sg74_34_cif.got.tgz:67784.got - 2010.06.03 17:57:02.
