data_PCOD9536637
_publ_section_title
;
Structure prediction by ZEFSAII (Michael W. Deem and Ramdas Pophale) SiO2 
 PCOD9536637
Probable space group: I M M A
;
_chemical_formula_sum "Si O2"
_cell_formula_units_Z 116
_cell_length_a 28.584851
_cell_length_b 8.785697
_cell_length_c 25.652329
_cell_angle_alpha 90.000000
_cell_angle_beta 90.000000
_cell_angle_gamma 90.000000
_cell_volume 6442.270488
_symmetry_space_group_name_H-M "I M M A"
_symmetry_group_IT_number 74
_symmetry_cell_setting 'orthorhombic'
loop_
_space_group_symop_operation_xyz
x,y,z
-x,1/2-y,z
x,-y,-z
-x,1/2+y,-z
-x,-y,-z
x,1/2+y,-z
-x,y,z
x,1/2-y,z
1/2+x,1/2+y,1/2+z
1/2-x,-y,1/2+z
1/2+x,1/2-y,1/2-z
1/2-x,y,1/2-z
1/2-x,1/2-y,1/2-z
1/2+x,y,1/2-z
1/2-x,1/2+y,1/2+z
1/2+x,-y,1/2+z
loop_
_atom_site_type_symbol
_atom_site_label
_atom_site_fract_x
_atom_site_fract_y
_atom_site_fract_z
Si Si1 0.591956 0.917932 0.645330
Si Si2 0.749663 0.566949 0.088272
Si Si3 0.149419 0.568154 0.053582
Si Si4 0.146113 0.433001 0.554810
Si Si5 0.724749 0.566870 0.802903
Si Si6 0.554684 0.067594 0.749262
Si Si7 0.000000 0.250000 0.115965
Si Si8 0.380175 0.067317 0.164287
O O1 0.613502 0.750000 0.656305
O O2 0.541592 0.879548 0.620153
O O3 0.622442 0.009109 0.604191
O O4 0.582120 0.002802 0.699283
O O5 0.749697 0.750000 0.090289
O O6 0.796594 0.517009 0.059575
O O7 0.700785 0.519770 0.062064
O O8 0.749391 0.503089 0.146661
O O9 0.147596 0.750000 0.051233
O O10 0.129831 0.500000 0.000000
O O11 0.129073 0.500000 0.500000
O O12 0.143374 0.250000 0.554521
O O13 0.121056 0.498601 0.606157
O O14 0.727774 0.750000 0.805474
O O15 0.750000 0.516029 0.750000
O O16 0.669779 0.526644 0.808536
O O17 0.500000 0.021786 0.745465
O O18 0.557133 0.250000 0.750063
O O19 0.578652 0.999629 0.800601
O O20 0.383115 0.250000 0.161729
#
# Coordination Sequence:
#
# PCOD9536637 Si02
#       8
#    16  16  16  16  16  16   4  16
#     4  10  20  39  61  80 107 140 181 231 281 340
#     4   9  20  35  52  78 110 149 189 229 272 326
#     4  11  23  38  56  83 114 145 189 233 284 338
#     4  10  19  35  57  81 114 152 193 232 274 325
#     4   9  19  34  50  76 113 149 189 226 274 329
#     4  11  22  38  61  87 116 146 184 233 286 341
#     4   8  20  40  64  80 106 134 196 224 290 346
#     4  10  21  35  55  84 115 151 191 232 277 332
#
# _framework density 18.006074000000002
#
# number of rings (size 3 to 8) (size 9 to 14) (size 15 to 20)
#    0.414    1.655    0.690    2.483    1.931    3.310 
#    0.000    0.345    0.000    0.414    0.000    0.000 
#    0.000    0.000    0.000    0.000    0.000    0.000 
#
# Total GULP energy -323037.462946 kJ/mol
# GULP energy per Si atom -5569.611430 kJ/mol
# Density = 1.796509 g / cm^3
# Si number density = 18.006074 Si / 1000 Ang^3
#
#
#
# Elastic Constant Matrix: (Units=GPa)
#
#
# Indices 1 2 3 4 5 6 
#
# 1 48.6971 27.5566 53.4361 0.0000 0.0000 0.0000
# 2 27.5566 52.5073 47.0135 0.0000 0.0000 0.0000
# 3 53.4361 47.0135 157.7821 0.0000 0.0000 0.0000
# 4 0.0000 0.0000 0.0000 33.7790 0.0000 0.0000
# 5 0.0000 0.0000 0.0000 0.0000 8.7537 0.0000
# 6 0.0000 0.0000 0.0000 0.0000 0.0000 23.6173
#
#
#
# Elastic Compliance Matrix: (Units=1/GPa)
#
#
# Indices 1 2 3 4 5 6 
#
# 1 0.036922 -0.011158 -0.009180 0.000000 0.000000 0.000000
# 2 -0.011158 0.029347 -0.004965 0.000000 0.000000 0.000000
# 3 -0.009180 -0.004965 0.010926 0.000000 0.000000 0.000000
# 4 0.000000 0.000000 0.000000 0.029604 0.000000 0.000000
# 5 0.000000 0.000000 0.000000 0.000000 0.114237 0.000000
# 6 0.000000 0.000000 0.000000 0.000000 0.000000 0.042342
#
#
# Mechanical properties :
#
#
# Convention : Reuss Voigt Hill
#
# Bulk Modulus (GPa) = 37.60970 57.22211 47.41591
# Shear Modulus (GPa) = 15.48718 21.96203 18.72461
#
# Velocity S-wave (km/s) = 2.93594 3.49621 3.22825
# Velocity P-wave (km/s) = 5.69435 6.93875 6.34712
#
# Compressibility (1/GPa) = 0.02658888
#
# Stress axis : x y z
#
# Youngs Moduli (GPa) = 27.08395 34.07536 91.52246
#
# Poissons Ratio (x) = 0.38021 0.84015
# Poissons Ratio (y) = 0.30220 0.45445
# Poissons Ratio (z) = 0.24862 0.16920
#
# Static dielectric constant tensor:
#      x y z
#    x 1.617640 0.000000 0.000000 
#    y 0.000000 1.604870 0.000000 
#    z 0.000000 0.000000 1.602860 
# 
# From -- ./inp_files/62732.got.cif
#   From: 2010.05.17/outbox.cif.g08.bks.cpg/sg74_32_cif.got.tgz:62732.got - 2010.06.03 17:57:02.
