data_PCOD9536207
_publ_section_title
;
Structure prediction by ZEFSAII (Michael W. Deem and Ramdas Pophale) SiO2 
 PCOD9536207
Probable space group: I M M A
;
_chemical_formula_sum "Si O2"
_cell_formula_units_Z 80
_cell_length_a 18.830329
_cell_length_b 8.274766
_cell_length_c 26.569195
_cell_angle_alpha 90.000000
_cell_angle_beta 90.000000
_cell_angle_gamma 90.000000
_cell_volume 4139.920731
_symmetry_space_group_name_H-M "I M M A"
_symmetry_group_IT_number 74
_symmetry_cell_setting 'orthorhombic'
loop_
_space_group_symop_operation_xyz
x,y,z
-x,1/2-y,z
x,-y,-z
-x,1/2+y,-z
-x,-y,-z
x,1/2+y,-z
-x,y,z
x,1/2-y,z
1/2+x,1/2+y,1/2+z
1/2-x,-y,1/2+z
1/2+x,1/2-y,1/2-z
1/2-x,y,1/2-z
1/2-x,1/2-y,1/2-z
1/2+x,y,1/2-z
1/2-x,1/2+y,1/2+z
1/2+x,-y,1/2+z
loop_
_atom_site_type_symbol
_atom_site_label
_atom_site_fract_x
_atom_site_fract_y
_atom_site_fract_z
Si Si1 0.081702 0.552374 0.151806
Si Si2 0.918656 0.054513 0.347481
Si Si3 0.670288 0.056647 0.555378
Si Si4 0.167798 0.056707 0.444610
Si Si5 0.831616 0.054589 0.749721
O O1 0.081818 0.750000 0.151719
O O2 0.120220 0.499015 0.100587
O O3 0.126322 0.499906 0.200502
O O4 0.000000 0.499956 0.154526
O O5 0.919302 0.250000 0.348259
O O6 0.881833 0.998350 0.399244
O O7 0.000000 0.998149 0.343408
O O8 0.872687 0.999711 0.299995
O O9 0.670344 0.250000 0.555635
O O10 0.647388 0.000000 0.500000
O O11 0.751240 0.000140 0.563412
O O12 0.167731 0.250000 0.444533
O O13 0.144906 0.000000 0.500000
O O14 0.830691 0.250000 0.750383
O O15 0.750000 0.998232 0.750000
#
# Coordination Sequence:
#
# PCOD9536207 Si02
#       5
#    16  16  16  16  16
#     4   9  18  32  50  74 105 138 171 212 260 305
#     4  10  22  38  54  77 110 142 172 213 266 316
#     4  10  19  33  54  77 103 135 173 215 257 305
#     4  10  20  35  55  77 104 137 173 214 258 306
#     4  10  20  35  57  82 105 135 179 222 259 309
#
# _framework density 19.324041999999999
#
# number of rings (size 3 to 8) (size 9 to 14) (size 15 to 20)
#    0.000    2.200    0.000    4.200    0.000    5.600 
#    0.000    2.000    0.000    4.200    0.000    0.000 
#    0.000    0.000    0.000    0.000    0.000    0.000 
#
# Total GULP energy -223394.876679 kJ/mol
# GULP energy per Si atom -5584.871917 kJ/mol
# Density = 1.928006 g / cm^3
# Si number density = 19.324042 Si / 1000 Ang^3
#
#
#
# Elastic Constant Matrix: (Units=GPa)
#
#
# Indices 1 2 3 4 5 6 
#
# 1 179.2682 17.1700 147.2855 0.0000 0.0000 0.0000
# 2 17.1700 20.2001 19.7509 0.0000 0.0000 0.0000
# 3 147.2855 19.7509 216.2537 0.0000 0.0000 0.0000
# 4 0.0000 0.0000 0.0000 -16.5707 0.0000 0.0000
# 5 0.0000 0.0000 0.0000 0.0000 12.7240 0.0000
# 6 0.0000 0.0000 0.0000 0.0000 0.0000 -0.7446
#
#
#
# Elastic Compliance Matrix: (Units=1/GPa)
#
#
# Indices 1 2 3 4 5 6 
#
# 1 0.012787 -0.002584 -0.008473 0.000000 0.000000 0.000000
# 2 -0.002584 0.054881 -0.003252 0.000000 0.000000 0.000000
# 3 -0.008473 -0.003252 0.010692 0.000000 0.000000 0.000000
# 4 0.000000 0.000000 0.000000 -0.060347 0.000000 0.000000
# 5 0.000000 0.000000 0.000000 0.000000 0.078592 0.000000
# 6 0.000000 0.000000 0.000000 0.000000 0.000000 -1.343029
#
#
# Mechanical properties :
#
#
# Convention : Reuss Voigt Hill
#
# Bulk Modulus (GPa) = 20.10406 87.12609 53.61507
# Shear Modulus (GPa) = -4.16242 14.51612 5.17685
#
# Velocity S-wave (km/s) = -1.46925 2.74377 1.63853
# Velocity P-wave (km/s) = 2.74736 7.43118 5.60225
#
# Compressibility (1/GPa) = 0.04974119
#
# Stress axis : x y z
#
# Youngs Moduli (GPa) = 78.20395 18.22112 93.52817
#
# Poissons Ratio (x) = 0.04709 0.79246
# Poissons Ratio (y) = 0.20211 0.30418
# Poissons Ratio (z) = 0.66262 0.05926
#
# Static dielectric constant tensor:
#      x y z
#    x 1.650760 0.000000 0.000000 
#    y 0.000000 1.675470 0.000000 
#    z 0.000000 0.000000 1.655720 
# 
# From -- ./inp_files/63906.got.cif
#   From: 2010.05.17/outbox.cif.g08.bks.cpg/sg74_32_cif.got.tgz:63906.got - 2010.06.03 17:57:02.
