data_PCOD9536763
_publ_section_title
;
Structure prediction by ZEFSAII (Michael W. Deem and Ramdas Pophale) SiO2 
 PCOD9536763
Probable space group: I M M A
;
_chemical_formula_sum "Si O2"
_cell_formula_units_Z 116
_cell_length_a 7.785386
_cell_length_b 24.200916
_cell_length_c 28.674506
_cell_angle_alpha 90.000000
_cell_angle_beta 90.000000
_cell_angle_gamma 90.000000
_cell_volume 5402.663251
_symmetry_space_group_name_H-M "I M M A"
_symmetry_group_IT_number 74
_symmetry_cell_setting 'orthorhombic'
loop_
_space_group_symop_operation_xyz
x,y,z
-x,1/2-y,z
x,-y,-z
-x,1/2+y,-z
-x,-y,-z
x,1/2+y,-z
-x,y,z
x,1/2-y,z
1/2+x,1/2+y,1/2+z
1/2-x,-y,1/2+z
1/2+x,1/2-y,1/2-z
1/2-x,y,1/2-z
1/2-x,1/2-y,1/2-z
1/2+x,y,1/2-z
1/2-x,1/2+y,1/2+z
1/2+x,-y,1/2+z
loop_
_atom_site_type_symbol
_atom_site_label
_atom_site_fract_x
_atom_site_fract_y
_atom_site_fract_z
Si Si1 0.293556 0.310890 0.987586
Si Si2 0.201399 0.838430 0.826989
Si Si3 0.704205 0.186868 0.697733
Si Si4 0.204960 0.957189 0.701252
Si Si5 0.297022 0.887763 0.573179
Si Si6 0.794794 0.506051 0.395433
Si Si7 0.794082 0.128171 0.602487
Si Si8 0.500000 0.250000 0.195861
O O1 0.500000 0.307419 0.985097
O O2 0.227035 0.250000 0.000024
O O3 0.227769 0.330370 0.937177
O O4 0.254337 0.355216 0.027236
O O5 0.208547 0.897163 0.801110
O O6 0.258834 0.854456 0.880174
O O7 0.345018 0.797685 0.806762
O O8 0.000000 0.818933 0.826342
O O9 0.500000 0.189844 0.695328
O O10 0.773840 0.250000 0.692440
O O11 0.750000 0.167553 0.750000
O O12 0.761113 0.148970 0.654770
O O13 0.250000 0.984723 0.750000
O O14 0.266911 0.990702 0.656442
O O15 0.000000 0.949976 0.697415
O O16 0.500000 0.888910 0.576714
O O17 0.239470 0.951504 0.574263
O O18 0.726676 0.566411 0.407992
O O19 0.000000 0.511198 0.393476
O O20 0.000000 0.126893 0.597195
#
# Coordination Sequence:
#
# PCOD9536763 Si02
#       8
#    16  16  16  16  16  16  16   4
#     4  10  22  37  59  86 117 158 198 241 296 356
#     4  10  22  38  58  87 118 156 201 253 306 364
#     4  10  21  37  59  86 118 162 202 243 295 352
#     4  10  19  36  60  83 112 154 195 245 305 364
#     4  10  22  38  58  85 116 151 199 250 298 353
#     4   9  20  38  61  85 115 155 195 242 302 357
#     4  10  21  39  60  89 123 155 197 247 295 353
#     4  12  22  36  62  86 118 162 200 248 316 358
#
# _framework density 21.470891999999999
#
# number of rings (size 3 to 8) (size 9 to 14) (size 15 to 20)
#    0.000    2.069    0.690    1.862    2.897    4.414 
#    0.000    4.483    0.000    0.000    0.000    0.000 
#    0.000    0.000    0.000    0.000    0.000    0.000 
#
# Total GULP energy -323278.216749 kJ/mol
# GULP energy per Si atom -5573.762358 kJ/mol
# Density = 2.142202 g / cm^3
# Si number density = 21.470892 Si / 1000 Ang^3
#
#
#
# Elastic Constant Matrix: (Units=GPa)
#
#
# Indices 1 2 3 4 5 6 
#
# 1 56.4299 1.6936 -15.3515 0.0000 0.0000 0.0000
# 2 1.6936 94.0993 37.7928 0.0000 0.0000 0.0000
# 3 -15.3515 37.7928 100.3677 0.0000 0.0000 0.0000
# 4 0.0000 0.0000 0.0000 110.0168 0.0000 0.0000
# 5 0.0000 0.0000 0.0000 0.0000 22.4701 0.0000
# 6 0.0000 0.0000 0.0000 0.0000 0.0000 4.2641
#
#
#
# Elastic Compliance Matrix: (Units=1/GPa)
#
#
# Indices 1 2 3 4 5 6 
#
# 1 0.018733 -0.001753 0.003525 0.000000 0.000000 0.000000
# 2 -0.001753 0.012685 -0.005044 0.000000 0.000000 0.000000
# 3 0.003525 -0.005044 0.012402 0.000000 0.000000 0.000000
# 4 0.000000 0.000000 0.000000 0.009090 0.000000 0.000000
# 5 0.000000 0.000000 0.000000 0.000000 0.044504 0.000000
# 6 0.000000 0.000000 0.000000 0.000000 0.000000 0.234519
#
#
# Mechanical properties :
#
#
# Convention : Reuss Voigt Hill
#
# Bulk Modulus (GPa) = 26.82755 33.24074 30.03415
# Shear Modulus (GPa) = 14.24906 42.46767 28.35837
#
# Velocity S-wave (km/s) = 2.57893 4.45220 3.63820
# Velocity P-wave (km/s) = 4.62491 6.47649 5.62737
#
# Compressibility (1/GPa) = 0.03727511
#
# Stress axis : x y z
#
# Youngs Moduli (GPa) = 53.38245 78.83580 80.63206
#
# Poissons Ratio (x) = 0.13820 -0.28425
# Poissons Ratio (y) = 0.09358 0.40674
# Poissons Ratio (z) = -0.18819 0.39768
#
# Static dielectric constant tensor:
#      x y z
#    x 1.780630 0.000000 0.000000 
#    y 0.000000 2.150890 0.000000 
#    z 0.000000 0.000000 1.810040 
# 
# From -- ./inp_files/64868.got.cif
#   From: 2010.05.17/outbox.cif.g08.bks.cpg/sg74_33_cif.got.tgz:64868.got - 2010.06.03 17:57:02.
