data_PCOD9536155
_publ_section_title
;
Structure prediction by ZEFSAII (Michael W. Deem and Ramdas Pophale) SiO2 
 PCOD9536155
Probable space group: I M M A
;
_chemical_formula_sum "Si O2"
_cell_formula_units_Z 88
_cell_length_a 9.002134
_cell_length_b 31.467590
_cell_length_c 17.958322
_cell_angle_alpha 90.000000
_cell_angle_beta 90.000000
_cell_angle_gamma 90.000000
_cell_volume 5087.151958
_symmetry_space_group_name_H-M "I M M A"
_symmetry_group_IT_number 74
_symmetry_cell_setting 'orthorhombic'
loop_
_space_group_symop_operation_xyz
x,y,z
-x,1/2-y,z
x,-y,-z
-x,1/2+y,-z
-x,-y,-z
x,1/2+y,-z
-x,y,z
x,1/2-y,z
1/2+x,1/2+y,1/2+z
1/2-x,-y,1/2+z
1/2+x,1/2-y,1/2-z
1/2-x,y,1/2-z
1/2-x,1/2-y,1/2-z
1/2+x,y,1/2-z
1/2-x,1/2+y,1/2+z
1/2+x,-y,1/2+z
loop_
_atom_site_type_symbol
_atom_site_label
_atom_site_fract_x
_atom_site_fract_y
_atom_site_fract_z
Si Si1 0.173358 0.129415 0.551795
Si Si2 0.823715 0.750000 0.831121
Si Si3 0.822346 0.547832 0.987038
Si Si4 0.822961 0.583944 0.823539
Si Si5 0.820179 0.298516 0.668344
Si Si6 0.326844 0.166405 0.114468
O O1 0.254604 0.084424 0.539723
O O2 0.228158 0.163586 0.612900
O O3 0.181932 0.152014 0.471260
O O4 0.000000 0.120942 0.567688
O O5 0.750000 0.750000 0.750000
O O6 0.764576 0.708753 0.873089
O O7 0.000000 0.750000 0.824863
O O8 0.793440 0.559481 0.900710
O O9 0.000000 0.548534 0.997875
O O10 0.767436 0.500000 0.000000
O O11 0.750000 0.564148 0.750000
O O12 0.745532 0.629384 0.836369
O O13 0.000000 0.588209 0.814506
O O14 0.782303 0.250000 0.642882
O O15 0.750000 0.304096 0.750000
O O16 0.000000 0.300202 0.673079
O O17 0.500000 0.172307 0.134150
#
# Coordination Sequence:
#
# PCOD9536155 Si02
#       6
#    16   8  16  16  16  16
#     4   9  19  34  55  79 103 135 173 214 261 310
#     4  12  24  36  48  68  99 134 171 208 247 290
#     4   9  19  36  56  77 104 137 171 214 267 316
#     4  10  19  33  53  75 101 131 169 210 253 306
#     4   9  18  33  53  77 107 141 177 217 263 315
#     4  10  20  34  52  73  99 133 170 208 254 299
#
# _framework density 17.298480999999999
#
# number of rings (size 3 to 8) (size 9 to 14) (size 15 to 20)
#    0.000    2.364    0.000    2.455    1.273    2.545 
#    0.000    0.909    0.000    4.364    0.000    0.000 
#    0.000    0.000    0.000    0.000    0.000    0.000 
#
# Total GULP energy -245346.354920 kJ/mol
# GULP energy per Si atom -5576.053521 kJ/mol
# Density = 1.725911 g / cm^3
# Si number density = 17.298481 Si / 1000 Ang^3
#
#
#
# Elastic Constant Matrix: (Units=GPa)
#
#
# Indices 1 2 3 4 5 6 
#
# 1 73.0412 59.9747 38.0106 0.0000 0.0000 0.0000
# 2 59.9747 149.5401 56.6907 0.0000 0.0000 0.0000
# 3 38.0106 56.6907 75.3116 0.0000 0.0000 0.0000
# 4 0.0000 0.0000 0.0000 6.4934 0.0000 0.0000
# 5 0.0000 0.0000 0.0000 0.0000 26.8148 0.0000
# 6 0.0000 0.0000 0.0000 0.0000 0.0000 26.4534
#
#
#
# Elastic Compliance Matrix: (Units=1/GPa)
#
#
# Indices 1 2 3 4 5 6 
#
# 1 0.022395 -0.006572 -0.006356 0.000000 0.000000 0.000000
# 2 -0.006572 0.011286 -0.005179 0.000000 0.000000 0.000000
# 3 -0.006356 -0.005179 0.020384 0.000000 0.000000 0.000000
# 4 0.000000 0.000000 0.000000 0.154002 0.000000 0.000000
# 5 0.000000 0.000000 0.000000 0.000000 0.037293 0.000000
# 6 0.000000 0.000000 0.000000 0.000000 0.000000 0.037802
#
#
# Mechanical properties :
#
#
# Convention : Reuss Voigt Hill
#
# Bulk Modulus (GPa) = 56.01559 67.47165 61.74362
# Shear Modulus (GPa) = 15.36919 21.50013 18.43466
#
# Velocity S-wave (km/s) = 2.98396 3.52929 3.26802
# Velocity P-wave (km/s) = 6.65763 7.46304 7.07181
#
# Compressibility (1/GPa) = 0.01785217
#
# Stress axis : x y z
#
# Youngs Moduli (GPa) = 44.65297 88.60320 49.05768
#
# Poissons Ratio (x) = 0.58233 0.31180
# Poissons Ratio (y) = 0.29347 0.25405
# Poissons Ratio (z) = 0.28380 0.45884
#
# Static dielectric constant tensor:
#      x y z
#    x 1.581100 0.000000 0.000000 
#    y 0.000000 1.597390 0.000000 
#    z 0.000000 0.000000 1.593360 
# 
# From -- ./inp_files/40076.got.cif
#   From: 2010.05.17/outbox.cif.g08.bks.cpg/sg74_21_cif.got.tgz:40076.got - 2010.06.03 17:57:02.
