data_PCOD9536931
_publ_section_title
;
Structure prediction by ZEFSAII (Michael W. Deem and Ramdas Pophale) SiO2 
 PCOD9536931
Probable space group: I M M A
;
_chemical_formula_sum "Si O2"
_cell_formula_units_Z 112
_cell_length_a 28.488859
_cell_length_b 14.786889
_cell_length_c 14.236679
_cell_angle_alpha 90.000000
_cell_angle_beta 90.000000
_cell_angle_gamma 90.000000
_cell_volume 5997.366114
_symmetry_space_group_name_H-M "I M M A"
_symmetry_group_IT_number 74
_symmetry_cell_setting 'orthorhombic'
loop_
_space_group_symop_operation_xyz
x,y,z
-x,1/2-y,z
x,-y,-z
-x,1/2+y,-z
-x,-y,-z
x,1/2+y,-z
-x,y,z
x,1/2-y,z
1/2+x,1/2+y,1/2+z
1/2-x,-y,1/2+z
1/2+x,1/2-y,1/2-z
1/2-x,y,1/2-z
1/2-x,1/2-y,1/2-z
1/2+x,y,1/2-z
1/2-x,1/2+y,1/2+z
1/2+x,-y,1/2+z
loop_
_atom_site_type_symbol
_atom_site_label
_atom_site_fract_x
_atom_site_fract_y
_atom_site_fract_z
Si Si1 0.944980 0.500000 0.258848
Si Si2 0.152327 0.500000 0.302371
Si Si3 0.779006 0.854433 0.387678
Si Si4 0.556612 0.148063 0.397241
Si Si5 0.556612 0.351937 0.602760
Si Si6 0.779006 0.354433 0.387678
Si Si7 0.301703 0.500000 0.389988
O O1 0.902172 0.500000 0.331123
O O2 0.935863 0.414270 0.191497
O O3 0.935863 0.585729 0.191497
O O4 0.000000 0.500000 0.288194
O O5 0.179718 0.587695 0.340567
O O6 0.179719 0.412306 0.340567
O O7 0.158906 0.500000 0.189272
O O8 0.776055 0.750000 0.357194
O O9 0.786530 0.855506 0.500000
O O10 0.731522 0.912446 0.372200
O O11 0.500000 0.152263 0.403816
O O12 0.574540 0.250000 0.384672
O O13 0.573189 0.114509 0.500000
O O14 0.500000 0.347737 0.596184
O O15 0.574540 0.250000 0.615329
O O16 0.776055 0.250000 0.357194
O O17 0.731521 0.412445 0.372200
O O18 0.315552 0.500000 0.500000
#
# Coordination Sequence:
#
# PCOD9536931 Si02
#       7
#    16  16  16  16  16  16  16
#     4  10  20  31  43  64  97 136 173 210 250 287
#     4  11  21  31  51  78 104 136 173 209 245 295
#     4   9  18  35  58  79 100 127 161 207 262 314
#     4   8  14  26  43  59  78 114 166 214 248 281
#     4   8  14  26  43  59  78 114 166 214 248 281
#     4   9  18  35  58  79 100 127 161 207 262 314
#     4   9  19  33  49  78 114 138 159 193 241 301
#
# _framework density 18.674865
#
# number of rings (size 3 to 8) (size 9 to 14) (size 15 to 20)
#    0.000    2.857    0.000    4.286    0.000    6.286 
#    0.000    0.000    0.000    5.143    0.000    2.000 
#    0.000    0.000    0.000    0.000    0.000    0.000 
#
# Total GULP energy -311958.920767 kJ/mol
# GULP energy per Si atom -5570.695014 kJ/mol
# Density = 1.863236 g / cm^3
# Si number density = 18.674865 Si / 1000 Ang^3
#
#
#
# Elastic Constant Matrix: (Units=GPa)
#
#
# Indices 1 2 3 4 5 6 
#
# 1 97.6347 29.7818 28.2385 0.0000 0.0000 0.0000
# 2 29.7818 121.5341 14.8872 0.0000 0.0000 0.0000
# 3 28.2385 14.8872 31.2648 0.0000 0.0000 0.0000
# 4 0.0000 0.0000 0.0000 25.8290 0.0000 0.0000
# 5 0.0000 0.0000 0.0000 0.0000 6.6918 0.0000
# 6 0.0000 0.0000 0.0000 0.0000 0.0000 6.2827
#
#
#
# Elastic Compliance Matrix: (Units=1/GPa)
#
#
# Indices 1 2 3 4 5 6 
#
# 1 0.014327 -0.002045 -0.011967 0.000000 0.000000 0.000000
# 2 -0.002045 0.009030 -0.002453 0.000000 0.000000 0.000000
# 3 -0.011967 -0.002453 0.043961 0.000000 0.000000 0.000000
# 4 0.000000 0.000000 0.000000 0.038716 0.000000 0.000000
# 5 0.000000 0.000000 0.000000 0.000000 0.149438 0.000000
# 6 0.000000 0.000000 0.000000 0.000000 0.000000 0.159167
#
#
# Mechanical properties :
#
#
# Convention : Reuss Voigt Hill
#
# Bulk Modulus (GPa) = 29.07862 44.02761 36.55311
# Shear Modulus (GPa) = 10.89254 19.59577 15.24416
#
# Velocity S-wave (km/s) = 2.41772 3.24282 2.86018
# Velocity P-wave (km/s) = 4.83722 6.13582 5.52480
#
# Compressibility (1/GPa) = 0.03438953
#
# Stress axis : x y z
#
# Youngs Moduli (GPa) = 69.79781 110.74577 22.74744
#
# Poissons Ratio (x) = 0.22648 0.27221
# Poissons Ratio (y) = 0.14274 0.05579
# Poissons Ratio (z) = 0.83524 0.27161
#
# Static dielectric constant tensor:
#      x y z
#    x 1.646240 0.000000 0.000000 
#    y 0.000000 1.682000 0.000000 
#    z 0.000000 0.000000 1.667390 
# 
# From -- ./inp_files/37363.got.cif
#   From: 2010.05.17/outbox.cif.g08.bks.cpg/sg74_19_cif.got.tgz:37363.got - 2010.06.03 17:57:02.
