data_PCOD9536202
_publ_section_title
;
Structure prediction by ZEFSAII (Michael W. Deem and Ramdas Pophale) SiO2 
 PCOD9536202
Probable space group: I M M A
;
_chemical_formula_sum "Si O2"
_cell_formula_units_Z 112
_cell_length_a 18.017781
_cell_length_b 17.243645
_cell_length_c 16.919535
_cell_angle_alpha 90.000000
_cell_angle_beta 90.000000
_cell_angle_gamma 90.000000
_cell_volume 5256.767878
_symmetry_space_group_name_H-M "I M M A"
_symmetry_group_IT_number 74
_symmetry_cell_setting 'orthorhombic'
loop_
_space_group_symop_operation_xyz
x,y,z
-x,1/2-y,z
x,-y,-z
-x,1/2+y,-z
-x,-y,-z
x,1/2+y,-z
-x,y,z
x,1/2-y,z
1/2+x,1/2+y,1/2+z
1/2-x,-y,1/2+z
1/2+x,1/2-y,1/2-z
1/2-x,y,1/2-z
1/2-x,1/2-y,1/2-z
1/2+x,y,1/2-z
1/2-x,1/2+y,1/2+z
1/2+x,-y,1/2+z
loop_
_atom_site_type_symbol
_atom_site_label
_atom_site_fract_x
_atom_site_fract_y
_atom_site_fract_z
Si Si1 0.890833 0.162318 0.144023
Si Si2 0.917411 0.593493 0.345869
Si Si3 0.920561 0.090262 0.309199
Si Si4 0.262524 0.090093 0.158067
Si Si5 0.885990 0.410062 0.983033
Si Si6 0.759178 0.083447 0.598333
Si Si7 0.870853 0.841718 0.178423
O O1 0.911005 0.250000 0.162286
O O2 0.917007 0.107875 0.215582
O O3 0.802063 0.150526 0.141992
O O4 0.915516 0.137341 0.057054
O O5 0.916453 0.501817 0.324811
O O6 0.845116 0.607326 0.400671
O O7 0.903784 0.636524 0.262849
O O8 0.000000 0.612085 0.377014
O O9 0.845614 0.122842 0.347545
O O10 0.000000 0.118932 0.339323
O O11 0.250000 0.067091 0.250000
O O12 0.255263 0.009001 0.112047
O O13 0.795997 0.397991 0.974010
O O14 0.911271 0.383012 0.896200
O O15 0.900411 0.500000 0.000000
O O16 0.713048 0.125482 0.668330
O O17 0.871728 0.750000 0.166644
#
# Coordination Sequence:
#
# PCOD9536202 Si02
#       7
#    16  16  16  16  16  16  16
#     4  11  20  32  50  78 106 133 170 210 255 305
#     4  10  19  34  54  76 105 136 171 212 256 300
#     4   9  19  34  53  75 103 136 171 209 253 303
#     4   9  16  30  52  76  99 126 169 213 253 294
#     4  10  19  33  54  74  98 133 175 212 248 295
#     4   9  18  31  53  76  99 134 174 212 249 297
#     4  10  20  32  50  78 106 133 168 210 255 305
#
# _framework density 21.305868
#
# number of rings (size 3 to 8) (size 9 to 14) (size 15 to 20)
#    0.857    1.429    1.429    4.286    0.000    4.286 
#    0.000    0.714    0.000    5.571    0.000    0.000 
#    0.000    0.000    0.000    0.000    0.000    0.000 
#
# Total GULP energy -312050.228372 kJ/mol
# GULP energy per Si atom -5572.325507 kJ/mol
# Density = 2.125737 g / cm^3
# Si number density = 21.305868 Si / 1000 Ang^3
#
#
#
# Elastic Constant Matrix: (Units=GPa)
#
#
# Indices 1 2 3 4 5 6 
#
# 1 164.2239 17.3944 1.0219 0.0000 0.0000 0.0000
# 2 17.3944 36.0963 0.3541 0.0000 0.0000 0.0000
# 3 1.0219 0.3541 28.0202 0.0000 0.0000 0.0000
# 4 0.0000 0.0000 0.0000 8.4120 0.0000 0.0000
# 5 0.0000 0.0000 0.0000 0.0000 -14.5225 0.0000
# 6 0.0000 0.0000 0.0000 0.0000 0.0000 -7.2471
#
#
#
# Elastic Compliance Matrix: (Units=1/GPa)
#
#
# Indices 1 2 3 4 5 6 
#
# 1 0.006418 -0.003091 -0.000195 0.000000 0.000000 0.000000
# 2 -0.003091 0.029196 -0.000256 0.000000 0.000000 0.000000
# 3 -0.000195 -0.000256 0.035699 0.000000 0.000000 0.000000
# 4 0.000000 0.000000 0.000000 0.118877 0.000000 0.000000
# 5 0.000000 0.000000 0.000000 0.000000 -0.068859 0.000000
# 6 0.000000 0.000000 0.000000 0.000000 0.000000 -0.137987
#
#
# Mechanical properties :
#
#
# Convention : Reuss Voigt Hill
#
# Bulk Modulus (GPa) = 15.56946 29.54235 22.55591
# Shear Modulus (GPa) = 422.38761 11.29983 216.84372
#
# Velocity S-wave (km/s) = 14.09538 2.30546 10.09938
# Velocity P-wave (km/s) = 16.49939 4.58070 12.10811
#
# Compressibility (1/GPa) = 0.06422830
#
# Stress axis : x y z
#
# Youngs Moduli (GPa) = 155.81582 34.25175 28.01209
#
# Poissons Ratio (x) = 0.10586 0.00546
# Poissons Ratio (y) = 0.48159 0.00718
# Poissons Ratio (z) = 0.03038 0.00878
#
# Static dielectric constant tensor:
#      x y z
#    x 1.879630 0.000000 0.000000 
#    y 0.000000 1.709680 0.000000 
#    z 0.000000 0.000000 1.774050 
# 
# From -- ./inp_files/54138.got.cif
#   From: 2010.05.17/outbox.cif.g08.bks.cpg/sg74_28_cif.got.tgz:54138.got - 2010.06.03 17:57:02.
