data_PCOD9536528
_publ_section_title
;
Structure prediction by ZEFSAII (Michael W. Deem and Ramdas Pophale) SiO2 
 PCOD9536528
Probable space group: I M M A
;
_chemical_formula_sum "Si O2"
_cell_formula_units_Z 96
_cell_length_a 8.345754
_cell_length_b 20.634729
_cell_length_c 30.146464
_cell_angle_alpha 90.000000
_cell_angle_beta 90.000000
_cell_angle_gamma 90.000000
_cell_volume 5191.594076
_symmetry_space_group_name_H-M "I M M A"
_symmetry_group_IT_number 74
_symmetry_cell_setting 'orthorhombic'
loop_
_space_group_symop_operation_xyz
x,y,z
-x,1/2-y,z
x,-y,-z
-x,1/2+y,-z
-x,-y,-z
x,1/2+y,-z
-x,y,z
x,1/2-y,z
1/2+x,1/2+y,1/2+z
1/2-x,-y,1/2+z
1/2+x,1/2-y,1/2-z
1/2-x,y,1/2-z
1/2-x,1/2-y,1/2-z
1/2+x,y,1/2-z
1/2-x,1/2+y,1/2+z
1/2+x,-y,1/2+z
loop_
_atom_site_type_symbol
_atom_site_label
_atom_site_fract_x
_atom_site_fract_y
_atom_site_fract_z
Si Si1 0.691671 0.179872 0.699692
Si Si2 0.808743 0.403242 0.462691
Si Si3 0.691395 0.675238 0.622611
Si Si4 0.192848 0.056373 0.554867
Si Si5 0.808844 0.053244 0.652951
Si Si6 0.691915 0.920711 0.800628
O O1 0.500000 0.172291 0.698163
O O2 0.732579 0.250000 0.678861
O O3 0.750000 0.182452 0.750000
O O4 0.775098 0.118083 0.679213
O O5 0.735483 0.360074 0.423750
O O6 0.747061 0.400279 0.513654
O O7 0.784977 0.479512 0.452671
O O8 0.000000 0.391111 0.462013
O O9 0.500000 0.675396 0.626553
O O10 0.748241 0.750000 0.622603
O O11 0.758695 0.634821 0.664393
O O12 0.259361 0.065934 0.603878
O O13 0.000000 0.066749 0.554976
O O14 0.000000 0.043083 0.648100
O O15 0.747759 0.989181 0.678379
O O16 0.500000 0.922946 0.799070
O O17 0.750000 0.911765 0.750000
#
# Coordination Sequence:
#
# PCOD9536528 Si02
#       6
#    16  16  16  16  16  16
#     4  10  21  36  53  75 105 144 186 224 268 324
#     4   9  16  33  59  83 108 141 181 225 271 324
#     4  11  24  40  57  80 114 153 193 238 286 339
#     4   8  15  30  56  86 112 137 174 224 271 322
#     4  10  19  34  57  86 114 143 180 226 278 328
#     4  11  23  39  60  85 113 146 188 239 290 342
#
# _framework density 18.491430000000001
#
# number of rings (size 3 to 8) (size 9 to 14) (size 15 to 20)
#    0.000    2.167    1.667    3.000    0.000    5.333 
#    0.000    3.333    0.000    5.000    0.000    0.000 
#    0.000    0.000    0.000    0.000    0.000    0.000 
#
# Total GULP energy -267438.241940 kJ/mol
# GULP energy per Si atom -5571.630040 kJ/mol
# Density = 1.844934 g / cm^3
# Si number density = 18.491430 Si / 1000 Ang^3
#
#
#
# Elastic Constant Matrix: (Units=GPa)
#
#
# Indices 1 2 3 4 5 6 
#
# 1 21.5302 12.2572 21.9705 0.0000 0.0000 0.0000
# 2 12.2572 103.5304 83.7598 0.0000 0.0000 0.0000
# 3 21.9705 83.7598 171.9336 0.0000 0.0000 0.0000
# 4 0.0000 0.0000 0.0000 27.8607 0.0000 0.0000
# 5 0.0000 0.0000 0.0000 0.0000 24.3284 0.0000
# 6 0.0000 0.0000 0.0000 0.0000 0.0000 29.3343
#
#
#
# Elastic Compliance Matrix: (Units=1/GPa)
#
#
# Indices 1 2 3 4 5 6 
#
# 1 0.053521 -0.001326 -0.006193 0.000000 0.000000 0.000000
# 2 -0.001326 0.015975 -0.007613 0.000000 0.000000 0.000000
# 3 -0.006193 -0.007613 0.010316 0.000000 0.000000 0.000000
# 4 0.000000 0.000000 0.000000 0.035893 0.000000 0.000000
# 5 0.000000 0.000000 0.000000 0.000000 0.041104 0.000000
# 6 0.000000 0.000000 0.000000 0.000000 0.000000 0.034090
#
#
# Mechanical properties :
#
#
# Convention : Reuss Voigt Hill
#
# Bulk Modulus (GPa) = 20.18234 59.21880 39.70057
# Shear Modulus (GPa) = 21.03664 28.23846 24.63755
#
# Velocity S-wave (km/s) = 3.37656 3.91207 3.65413
# Velocity P-wave (km/s) = 5.11269 7.24570 6.27056
#
# Compressibility (1/GPa) = 0.04954827
#
# Stress axis : x y z
#
# Youngs Moduli (GPa) = 18.68419 62.59670 96.93252
#
# Poissons Ratio (x) = 0.08300 0.60033
# Poissons Ratio (y) = 0.02477 0.73796
# Poissons Ratio (z) = 0.11572 0.47656
#
# Static dielectric constant tensor:
#      x y z
#    x 1.647470 0.000000 0.000000 
#    y 0.000000 1.667050 0.000000 
#    z 0.000000 0.000000 1.627820 
# 
# From -- ./inp_files/64360.got.cif
#   From: 2010.05.17/outbox.cif.g08.bks.cpg/sg74_33_cif.got.tgz:64360.got - 2010.06.03 17:57:02.
