data_PCOD9536991
_publ_section_title
;
Structure prediction by ZEFSAII (Michael W. Deem and Ramdas Pophale) SiO2 
 PCOD9536991
Probable space group: I M M A
;
_chemical_formula_sum "Si O2"
_cell_formula_units_Z 104
_cell_length_a 20.825248
_cell_length_b 8.882345
_cell_length_c 32.241123
_cell_angle_alpha 90.000000
_cell_angle_beta 90.000000
_cell_angle_gamma 90.000000
_cell_volume 5963.867416
_symmetry_space_group_name_H-M "I M M A"
_symmetry_group_IT_number 74
_symmetry_cell_setting 'orthorhombic'
loop_
_space_group_symop_operation_xyz
x,y,z
-x,1/2-y,z
x,-y,-z
-x,1/2+y,-z
-x,-y,-z
x,1/2+y,-z
-x,y,z
x,1/2-y,z
1/2+x,1/2+y,1/2+z
1/2-x,-y,1/2+z
1/2+x,1/2-y,1/2-z
1/2-x,y,1/2-z
1/2-x,1/2-y,1/2-z
1/2+x,y,1/2-z
1/2-x,1/2+y,1/2+z
1/2+x,-y,1/2+z
loop_
_atom_site_type_symbol
_atom_site_label
_atom_site_fract_x
_atom_site_fract_y
_atom_site_fract_z
Si Si1 0.926533 0.569222 0.726002
Si Si2 0.735868 0.571308 0.542877
Si Si3 0.682351 0.424453 0.831580
Si Si4 0.690809 0.069090 0.365337
Si Si5 0.073769 0.570766 0.182469
Si Si6 0.861919 0.424442 0.573464
Si Si7 0.500000 0.568367 0.045303
O O1 0.921880 0.750000 0.726733
O O2 0.869937 0.501861 0.697918
O O3 0.919187 0.503688 0.772238
O O4 0.000000 0.529924 0.712044
O O5 0.711433 0.500000 0.500000
O O6 0.731245 0.750000 0.539812
O O7 0.702829 0.523704 0.586459
O O8 0.809736 0.521668 0.549264
O O9 0.691826 0.250000 0.819382
O O10 0.750716 0.507022 0.836938
O O11 0.654054 0.428188 0.878064
O O12 0.690947 0.250000 0.363498
O O13 0.625049 0.002025 0.348169
O O14 0.084183 0.750000 0.185700
O O15 0.000000 0.545438 0.169075
O O16 0.856110 0.250000 0.559497
O O17 0.934177 0.478372 0.566969
O O18 0.500000 0.750000 0.043944
O O19 0.500000 0.500000 0.000000
#
# Coordination Sequence:
#
# PCOD9536991 Si02
#       7
#    16  16  16  16  16  16   8
#     4  10  21  36  54  78 110 147 185 225 269 320
#     4  10  20  34  54  78 105 136 173 215 261 314
#     4  10  20  34  54  78 106 141 183 230 273 316
#     4  10  21  37  57  82 112 142 176 219 268 322
#     4  10  21  38  60  85 110 138 175 217 263 320
#     4   9  19  33  49  69  98 135 176 222 270 316
#     4  10  20  32  44  64  92 128 174 220 268 316
#
# _framework density 17.438348999999999
#
# number of rings (size 3 to 8) (size 9 to 14) (size 15 to 20)
#    0.000    2.154    0.000    2.769    1.077    6.769 
#    0.000    3.077    0.000    0.462    0.000    0.000 
#    0.000    0.000    0.000    0.000    0.000    0.000 
#
# Total GULP energy -290140.098489 kJ/mol
# GULP energy per Si atom -5579.617279 kJ/mol
# Density = 1.739866 g / cm^3
# Si number density = 17.438349 Si / 1000 Ang^3
#
#
#
# Elastic Constant Matrix: (Units=GPa)
#
#
# Indices 1 2 3 4 5 6 
#
# 1 119.7212 57.9890 68.4995 0.0000 0.0000 0.0000
# 2 57.9890 76.0343 47.1349 0.0000 0.0000 0.0000
# 3 68.4995 47.1349 80.2806 0.0000 0.0000 0.0000
# 4 0.0000 0.0000 0.0000 31.5030 0.0000 0.0000
# 5 0.0000 0.0000 0.0000 0.0000 16.4849 0.0000
# 6 0.0000 0.0000 0.0000 0.0000 0.0000 30.0168
#
#
#
# Elastic Compliance Matrix: (Units=1/GPa)
#
#
# Indices 1 2 3 4 5 6 
#
# 1 0.018267 -0.006713 -0.011645 0.000000 0.000000 0.000000
# 2 -0.006713 0.023145 -0.007861 0.000000 0.000000 0.000000
# 3 -0.011645 -0.007861 0.027008 0.000000 0.000000 0.000000
# 4 0.000000 0.000000 0.000000 0.031743 0.000000 0.000000
# 5 0.000000 0.000000 0.000000 0.000000 0.060662 0.000000
# 6 0.000000 0.000000 0.000000 0.000000 0.000000 0.033315
#
#
# Mechanical properties :
#
#
# Convention : Reuss Voigt Hill
#
# Bulk Modulus (GPa) = 62.57172 69.25363 65.91268
# Shear Modulus (GPa) = 19.84874 22.42845 21.13859
#
# Velocity S-wave (km/s) = 3.37742 3.59019 3.48543
# Velocity P-wave (km/s) = 7.15324 7.54888 7.35372
#
# Compressibility (1/GPa) = 0.01598166
#
# Stress axis : x y z
#
# Youngs Moduli (GPa) = 54.74359 43.20604 37.02578
#
# Poissons Ratio (x) = 0.29003 0.43117
# Poissons Ratio (y) = 0.36747 0.29108
# Poissons Ratio (z) = 0.63750 0.33966
#
# Static dielectric constant tensor:
#      x y z
#    x 1.645020 0.000000 0.000000 
#    y 0.000000 1.592160 0.000000 
#    z 0.000000 0.000000 1.579910 
# 
# From -- ./inp_files/68230.got.cif
#   From: 2010.05.17/outbox.cif.g08.bks.cpg/sg74_35_cif.got.tgz:68230.got - 2010.06.03 17:57:02.
