data_PCOD9536563
_publ_section_title
;
Structure prediction by ZEFSAII (Michael W. Deem and Ramdas Pophale) SiO2 
 PCOD9536563
Probable space group: I M M A
;
_chemical_formula_sum "Si O2"
_cell_formula_units_Z 88
_cell_length_a 31.717775
_cell_length_b 20.108696
_cell_length_c 6.631598
_cell_angle_alpha 90.000000
_cell_angle_beta 90.000000
_cell_angle_gamma 90.000000
_cell_volume 4229.653731
_symmetry_space_group_name_H-M "I M M A"
_symmetry_group_IT_number 74
_symmetry_cell_setting 'orthorhombic'
loop_
_space_group_symop_operation_xyz
x,y,z
-x,1/2-y,z
x,-y,-z
-x,1/2+y,-z
-x,-y,-z
x,1/2+y,-z
-x,y,z
x,1/2-y,z
1/2+x,1/2+y,1/2+z
1/2-x,-y,1/2+z
1/2+x,1/2-y,1/2-z
1/2-x,y,1/2-z
1/2-x,1/2-y,1/2-z
1/2+x,y,1/2-z
1/2-x,1/2+y,1/2+z
1/2+x,-y,1/2+z
loop_
_atom_site_type_symbol
_atom_site_label
_atom_site_fract_x
_atom_site_fract_y
_atom_site_fract_z
Si Si1 0.709306 0.568874 0.881841
Si Si2 0.860125 0.898313 0.929083
Si Si3 0.000000 0.168691 0.623629
Si Si4 0.669728 0.172971 0.810956
Si Si5 0.075185 0.000000 0.000000
Si Si6 0.500000 0.521737 0.227460
Si Si7 0.411542 0.826005 0.914982
O O1 0.750000 0.586145 0.750000
O O2 0.671658 0.562555 0.718208
O O3 0.715491 0.500000 0.000000
O O4 0.697468 0.625441 0.045415
O O5 0.892196 0.942573 0.057015
O O6 0.891501 0.862877 0.773496
O O7 0.833808 0.852779 0.082039
O O8 0.042317 0.157032 0.495101
O O9 0.000000 0.250000 0.684926
O O10 0.000000 0.102472 0.767958
O O11 0.683268 0.250000 0.819751
O O12 0.622605 0.169176 0.905299
O O13 0.042319 0.009501 0.179439
O O14 0.500000 0.500000 0.000000
O O15 0.413960 0.750000 0.850718
#
# Coordination Sequence:
#
# PCOD9536563 Si02
#       7
#    16  16   8  16   8   8  16
#     4  11  27  44  69  95 129 164 209 267 328 394
#     4  11  22  40  63  91 124 165 212 262 320 391
#     4  10  19  34  59  87 123 171 220 269 326 373
#     4  10  22  42  68  98 130 171 215 266 328 393
#     4  11  24  36  60  92 120 166 222 256 322 387
#     4  11  23  40  58  85 129 168 212 278 323 380
#     4   9  19  36  58  88 125 166 212 261 315 375
#
# _framework density 20.805485000000001
#
# number of rings (size 3 to 8) (size 9 to 14) (size 15 to 20)
#    0.000    1.636    0.000    3.818    3.818    5.455 
#    0.000    2.727    0.000    5.455    0.000    0.000 
#    0.000    0.000    0.000    0.000    0.000    0.000 
#
# Total GULP energy -245380.891180 kJ/mol
# GULP energy per Si atom -5576.838436 kJ/mol
# Density = 2.075813 g / cm^3
# Si number density = 20.805485 Si / 1000 Ang^3
#
#
#
# Elastic Constant Matrix: (Units=GPa)
#
#
# Indices 1 2 3 4 5 6 
#
# 1 79.6557 22.5370 8.9549 0.0000 0.0000 0.0000
# 2 22.5370 79.9087 18.1299 0.0000 0.0000 0.0000
# 3 8.9549 18.1299 63.6212 0.0000 0.0000 0.0000
# 4 0.0000 0.0000 0.0000 11.8224 0.0000 0.0000
# 5 0.0000 0.0000 0.0000 0.0000 4.0549 0.0000
# 6 0.0000 0.0000 0.0000 0.0000 0.0000 30.5092
#
#
#
# Elastic Compliance Matrix: (Units=1/GPa)
#
#
# Indices 1 2 3 4 5 6 
#
# 1 0.013689 -0.003660 -0.000884 0.000000 0.000000 0.000000
# 2 -0.003660 0.014358 -0.003576 0.000000 0.000000 0.000000
# 3 -0.000884 -0.003576 0.016862 0.000000 0.000000 0.000000
# 4 0.000000 0.000000 0.000000 0.084585 0.000000 0.000000
# 5 0.000000 0.000000 0.000000 0.000000 0.246616 0.000000
# 6 0.000000 0.000000 0.000000 0.000000 0.000000 0.032777
#
#
# Mechanical properties :
#
#
# Convention : Reuss Voigt Hill
#
# Bulk Modulus (GPa) = 34.88223 35.82546 35.35385
# Shear Modulus (GPa) = 11.50261 20.84821 16.17541
#
# Velocity S-wave (km/s) = 2.35386 3.16896 2.79132
# Velocity P-wave (km/s) = 4.91831 5.53591 5.23623
#
# Compressibility (1/GPa) = 0.02866789
#
# Stress axis : x y z
#
# Youngs Moduli (GPa) = 73.05146 69.64749 59.30649
#
# Poissons Ratio (x) = 0.25493 0.05241
# Poissons Ratio (y) = 0.26739 0.21210
# Poissons Ratio (z) = 0.06456 0.24908
#
# Static dielectric constant tensor:
#      x y z
#    x 1.770210 0.000000 0.000000 
#    y 0.000000 1.809210 0.000000 
#    z 0.000000 0.000000 1.756120 
# 
# From -- ./inp_files/5160.got.cif
#   From: 2010.05.17/outbox.cif.g08.bks.cpg/sg74_3_cif.got.tgz:5160.got - 2010.06.03 17:57:02.
