data_PCOD9536015
_publ_section_title
;
Structure prediction by ZEFSAII (Michael W. Deem and Ramdas Pophale) SiO2 
 PCOD9536015
Probable space group: I M M A
;
_chemical_formula_sum "Si O2"
_cell_formula_units_Z 68
_cell_length_a 19.967378
_cell_length_b 7.558299
_cell_length_c 24.341721
_cell_angle_alpha 90.000000
_cell_angle_beta 90.000000
_cell_angle_gamma 90.000000
_cell_volume 3673.638249
_symmetry_space_group_name_H-M "I M M A"
_symmetry_group_IT_number 74
_symmetry_cell_setting 'orthorhombic'
loop_
_space_group_symop_operation_xyz
x,y,z
-x,1/2-y,z
x,-y,-z
-x,1/2+y,-z
-x,-y,-z
x,1/2+y,-z
-x,y,z
x,1/2-y,z
1/2+x,1/2+y,1/2+z
1/2-x,-y,1/2+z
1/2+x,1/2-y,1/2-z
1/2-x,y,1/2-z
1/2-x,1/2-y,1/2-z
1/2+x,y,1/2-z
1/2-x,1/2+y,1/2+z
1/2+x,-y,1/2+z
loop_
_atom_site_type_symbol
_atom_site_label
_atom_site_fract_x
_atom_site_fract_y
_atom_site_fract_z
Si Si1 0.500000 0.250000 0.895951
Si Si2 0.572512 0.750000 0.648589
Si Si3 0.218947 0.750000 0.809970
Si Si4 0.901132 0.544788 0.563365
Si Si5 0.892453 0.545565 0.061684
Si Si6 0.745203 0.457099 0.897218
O O1 0.558030 0.406095 0.900446
O O2 0.500000 0.750000 0.676487
O O3 0.637837 0.750000 0.687135
O O4 0.577911 0.582494 0.607668
O O5 0.250000 0.750000 0.750000
O O6 0.243649 0.579644 0.844247
O O7 0.917825 0.500000 0.500000
O O8 0.917170 0.750000 0.573819
O O9 0.822129 0.515849 0.572550
O O10 0.907330 0.750000 0.073169
O O11 0.812005 0.518891 0.066347
O O12 0.914178 0.500000 0.000000
O O13 0.740596 0.250000 0.883313
#
# Coordination Sequence:
#
# PCOD9536015 Si02
#       6
#     4   8   8  16  16  16
#     4  12  24  34  46  74 116 158 198 228 286 338
#     4  10  22  38  57  84 122 155 186 234 286 343
#     4  10  22  41  67  86 107 143 199 250 294 345
#     4  12  22  33  52  77 113 159 194 234 284 350
#     4  10  19  32  53  84 120 157 193 223 265 337
#     4  10  20  36  58  84 110 145 191 245 292 336
#
# _framework density 18.510259000000001
#
# number of rings (size 3 to 8) (size 9 to 14) (size 15 to 20)
#    0.000    1.412    4.706    1.412    0.000    3.294 
#    0.000    0.000    2.588    0.000    0.000    0.000 
#    0.000    0.000    0.000    0.000    0.000    0.000 
#
# Total GULP energy -189376.017828 kJ/mol
# GULP energy per Si atom -5569.882877 kJ/mol
# Density = 1.846813 g / cm^3
# Si number density = 18.510259 Si / 1000 Ang^3
#
#
#
# Elastic Constant Matrix: (Units=GPa)
#
#
# Indices 1 2 3 4 5 6 
#
# 1 118.4173 30.4996 12.9853 0.0000 0.0000 0.0000
# 2 30.4996 151.2380 20.4932 0.0000 0.0000 0.0000
# 3 12.9853 20.4932 67.6117 0.0000 0.0000 0.0000
# 4 0.0000 0.0000 0.0000 11.1401 0.0000 0.0000
# 5 0.0000 0.0000 0.0000 0.0000 -16.0290 0.0000
# 6 0.0000 0.0000 0.0000 0.0000 0.0000 58.2840
#
#
#
# Elastic Compliance Matrix: (Units=1/GPa)
#
#
# Indices 1 2 3 4 5 6 
#
# 1 0.009004 -0.001649 -0.001229 0.000000 0.000000 0.000000
# 2 -0.001649 0.007197 -0.001865 0.000000 0.000000 0.000000
# 3 -0.001229 -0.001865 0.015592 0.000000 0.000000 0.000000
# 4 0.000000 0.000000 0.000000 0.089766 0.000000 0.000000
# 5 0.000000 0.000000 0.000000 0.000000 -0.062387 0.000000
# 6 0.000000 0.000000 0.000000 0.000000 0.000000 0.017157
#
#
# Mechanical properties :
#
#
# Convention : Reuss Voigt Hill
#
# Bulk Modulus (GPa) = 44.83025 51.69150 48.26088
# Shear Modulus (GPa) = 53.61820 28.89828 41.25824
#
# Velocity S-wave (km/s) = 5.38792 3.95549 4.72629
# Velocity P-wave (km/s) = 7.93586 6.98911 7.47749
#
# Compressibility (1/GPa) = 0.02230636
#
# Stress axis : x y z
#
# Youngs Moduli (GPa) = 111.05784 138.93938 64.13677
#
# Poissons Ratio (x) = 0.22915 0.07885
# Poissons Ratio (y) = 0.18316 0.11960
# Poissons Ratio (z) = 0.13654 0.25909
#
# Static dielectric constant tensor:
#      x y z
#    x 1.679800 0.000000 0.000000 
#    y 0.000000 1.568670 0.000000 
#    z 0.000000 0.000000 1.593890 
# 
# From -- ./inp_files/60618.got.cif
#   From: 2010.05.17/outbox.cif.g08.bks.cpg/sg74_31_cif.got.tgz:60618.got - 2010.06.03 17:57:02.
