data_PCOD9536640
_publ_section_title
;
Structure prediction by ZEFSAII (Michael W. Deem and Ramdas Pophale) SiO2 
 PCOD9536640
Probable space group: I M M A
;
_chemical_formula_sum "Si O2"
_cell_formula_units_Z 64
_cell_length_a 13.595514
_cell_length_b 8.614174
_cell_length_c 28.532341
_cell_angle_alpha 90.000000
_cell_angle_beta 90.000000
_cell_angle_gamma 90.000000
_cell_volume 3341.540099
_symmetry_space_group_name_H-M "I M M A"
_symmetry_group_IT_number 74
_symmetry_cell_setting 'orthorhombic'
loop_
_space_group_symop_operation_xyz
x,y,z
-x,1/2-y,z
x,-y,-z
-x,1/2+y,-z
-x,-y,-z
x,1/2+y,-z
-x,y,z
x,1/2-y,z
1/2+x,1/2+y,1/2+z
1/2-x,-y,1/2+z
1/2+x,1/2-y,1/2-z
1/2-x,y,1/2-z
1/2-x,1/2-y,1/2-z
1/2+x,y,1/2-z
1/2-x,1/2+y,1/2+z
1/2+x,-y,1/2+z
loop_
_atom_site_type_symbol
_atom_site_label
_atom_site_fract_x
_atom_site_fract_y
_atom_site_fract_z
Si Si1 0.807685 0.074790 0.298104
Si Si2 0.000000 0.559046 0.752040
Si Si3 0.000000 0.063593 0.137717
Si Si4 0.610347 0.563725 0.947118
Si Si5 0.290538 0.567704 0.386065
O O1 0.820423 0.250000 0.318568
O O2 0.750000 0.092528 0.250000
O O3 0.908786 0.008280 0.279194
O O4 0.749823 0.971058 0.334337
O O5 0.000000 0.512270 0.806861
O O6 0.000000 0.750000 0.752977
O O7 0.000000 0.250000 0.138189
O O8 0.899821 0.006082 0.113001
O O9 0.500000 0.520546 0.928224
O O10 0.614994 0.750000 0.947524
O O11 0.704736 0.500238 0.919312
O O12 0.614610 0.500000 0.000000
O O13 0.299024 0.750000 0.394298
#
# Coordination Sequence:
#
# PCOD9536640 Si02
#       5
#    16   8   8  16  16
#     4  10  19  35  57  82 114 160 211 252 296 355
#     4   9  18  33  55  80 111 154 207 257 297 347
#     4  11  21  41  64  84 115 164 214 255 300 357
#     4  10  22  43  70  96 122 156 197 246 302 362
#     4  12  25  39  58  91 128 162 201 250 307 364
#
# _framework density 19.152846
#
# number of rings (size 3 to 8) (size 9 to 14) (size 15 to 20)
#    0.000    1.500    2.500    3.375    1.750    2.000 
#    0.000    0.625    0.000    0.000    0.000    0.000 
#    0.000    0.000    0.000    0.000    0.000    0.000 
#
# Total GULP energy -178467.404331 kJ/mol
# GULP energy per Si atom -5577.106385 kJ/mol
# Density = 1.910925 g / cm^3
# Si number density = 19.152846 Si / 1000 Ang^3
#
#
#
# Elastic Constant Matrix: (Units=GPa)
#
#
# Indices 1 2 3 4 5 6 
#
# 1 213.3235 60.4082 56.5330 0.0000 0.0000 0.0000
# 2 60.4082 88.5115 26.8243 0.0000 0.0000 0.0000
# 3 56.5330 26.8243 59.6008 0.0000 0.0000 0.0000
# 4 0.0000 0.0000 0.0000-1391.5654 0.0000 0.0000
# 5 0.0000 0.0000 0.0000 0.0000 32.7506 0.0000
# 6 0.0000 0.0000 0.0000 0.0000 0.0000 105.2836
#
#
#
# Elastic Compliance Matrix: (Units=1/GPa)
#
#
# Indices 1 2 3 4 5 6 
#
# 1 0.006959 -0.003183 -0.005168 0.000000 0.000000 0.000000
# 2 -0.003183 0.014538 -0.003524 0.000000 0.000000 0.000000
# 3 -0.005168 -0.003524 0.023266 0.000000 0.000000 0.000000
# 4 0.000000 0.000000 0.000000 -0.000719 0.000000 0.000000
# 5 0.000000 0.000000 0.000000 0.000000 0.030534 0.000000
# 6 0.000000 0.000000 0.000000 0.000000 0.000000 0.009498
#
#
# Mechanical properties :
#
#
# Convention : Reuss Voigt Hill
#
# Bulk Modulus (GPa) = 47.58888 72.10743 59.84816
# Shear Modulus (GPa) = 43.54234 -236.19488 -96.32627
#
# Velocity S-wave (km/s) = 4.77321 -11.11705 -7.09948
# Velocity P-wave (km/s) = 7.43497 11.27186 5.99066
#
# Compressibility (1/GPa) = 0.02101331
#
# Stress axis : x y z
#
# Youngs Moduli (GPa) = 143.70692 68.78369 42.98076
#
# Poissons Ratio (x) = 0.21894 0.22212
# Poissons Ratio (y) = 0.45742 0.15147
# Poissons Ratio (z) = 0.74266 0.24240
#
# Static dielectric constant tensor:
#      x y z
#    x 1.652930 0.000000 0.000000 
#    y 0.000000 1.669250 0.000000 
#    z 0.000000 0.000000 1.627040 
# 
# From -- ./inp_files/71303.got.cif
#   From: 2010.05.17/outbox.cif.g08.bks.cpg/sg74_36_cif.got.tgz:71303.got - 2010.06.03 17:57:02.
