data_PCOD9536958
_publ_section_title
;
Structure prediction by ZEFSAII (Michael W. Deem and Ramdas Pophale) SiO2 
 PCOD9536958
Probable space group: I M M A
;
_chemical_formula_sum "Si O2"
_cell_formula_units_Z 112
_cell_length_a 17.763496
_cell_length_b 20.008409
_cell_length_c 17.980589
_cell_angle_alpha 90.000000
_cell_angle_beta 90.000000
_cell_angle_gamma 90.000000
_cell_volume 6390.648234
_symmetry_space_group_name_H-M "I M M A"
_symmetry_group_IT_number 74
_symmetry_cell_setting 'orthorhombic'
loop_
_space_group_symop_operation_xyz
x,y,z
-x,1/2-y,z
x,-y,-z
-x,1/2+y,-z
-x,-y,-z
x,1/2+y,-z
-x,y,z
x,1/2-y,z
1/2+x,1/2+y,1/2+z
1/2-x,-y,1/2+z
1/2+x,1/2-y,1/2-z
1/2-x,y,1/2-z
1/2-x,1/2-y,1/2-z
1/2+x,y,1/2-z
1/2-x,1/2+y,1/2+z
1/2+x,-y,1/2+z
loop_
_atom_site_type_symbol
_atom_site_label
_atom_site_fract_x
_atom_site_fract_y
_atom_site_fract_z
Si Si1 0.415955 0.327033 0.404919
Si Si2 0.910405 0.037455 0.811268
Si Si3 0.312579 0.080519 0.987849
Si Si4 0.414455 0.933745 0.147385
Si Si5 0.138117 0.076367 0.971445
Si Si6 0.163803 0.395840 0.224002
Si Si7 0.413982 0.095491 0.124992
O O1 0.500000 0.336893 0.372283
O O2 0.408194 0.250000 0.426514
O O3 0.408128 0.375116 0.475447
O O4 0.354535 0.346903 0.343565
O O5 0.896412 0.076535 0.734095
O O6 0.886920 0.075291 0.885828
O O7 0.000000 0.021944 0.813247
O O8 0.863639 0.968634 0.804843
O O9 0.356822 0.095349 0.911894
O O10 0.225211 0.097120 0.980965
O O11 0.356998 0.110747 0.057975
O O12 0.315300 0.000000 0.000000
O O13 0.500000 0.911857 0.132036
O O14 0.413301 0.014561 0.136116
O O15 0.129717 0.000000 0.000000
O O16 0.250000 0.398779 0.250000
O O17 0.115016 0.377258 0.296517
O O18 0.500000 0.114637 0.108514
#
# Coordination Sequence:
#
# PCOD9536958 Si02
#       7
#    16  16  16  16  16  16  16
#     4  11  24  41  57  75 106 149 191 227 271 326
#     4  10  20  31  49  76 108 142 178 221 272 325
#     4   9  17  27  43  71 103 135 170 214 269 314
#     4   8  15  26  41  66 103 137 168 206 262 326
#     4  11  21  32  54  79 107 136 178 231 275 322
#     4  11  21  32  52  77 109 139 180 224 268 324
#     4   9  16  27  44  65  97 139 176 212 261 320
#
# _framework density 17.525608999999999
#
# number of rings (size 3 to 8) (size 9 to 14) (size 15 to 20)
#    0.000    2.143    1.429    3.857    6.000    2.571 
#    0.000    0.000    0.000    0.000    0.000    2.000 
#    0.000    2.857    0.000    0.571    0.000    0.000 
#
# Total GULP energy -312339.233839 kJ/mol
# GULP energy per Si atom -5577.486319 kJ/mol
# Density = 1.748572 g / cm^3
# Si number density = 17.525609 Si / 1000 Ang^3
#
#
#
# Elastic Constant Matrix: (Units=GPa)
#
#
# Indices 1 2 3 4 5 6 
#
# 1 94.3959 25.0912 50.6806 0.0000 0.0000 0.0000
# 2 25.0912 35.0807 26.3772 0.0000 0.0000 0.0000
# 3 50.6806 26.3772 120.7165 0.0000 0.0000 0.0000
# 4 0.0000 0.0000 0.0000 7.7803 0.0000 0.0000
# 5 0.0000 0.0000 0.0000 0.0000 21.7051 0.0000
# 6 0.0000 0.0000 0.0000 0.0000 0.0000 5.8479
#
#
#
# Elastic Compliance Matrix: (Units=1/GPa)
#
#
# Indices 1 2 3 4 5 6 
#
# 1 0.015056 -0.007199 -0.004748 0.000000 0.000000 0.000000
# 2 -0.007199 0.037552 -0.005183 0.000000 0.000000 0.000000
# 3 -0.004748 -0.005183 0.011410 0.000000 0.000000 0.000000
# 4 0.000000 0.000000 0.000000 0.128530 0.000000 0.000000
# 5 0.000000 0.000000 0.000000 0.000000 0.046072 0.000000
# 6 0.000000 0.000000 0.000000 0.000000 0.000000 0.171001
#
#
# Mechanical properties :
#
#
# Convention : Reuss Voigt Hill
#
# Bulk Modulus (GPa) = 33.60445 50.49901 42.05173
# Shear Modulus (GPa) = 11.01807 16.93628 13.97717
#
# Velocity S-wave (km/s) = 2.51008 3.11203 2.82712
# Velocity P-wave (km/s) = 5.25516 6.46451 5.89095
#
# Compressibility (1/GPa) = 0.02975796
#
# Stress axis : x y z
#
# Youngs Moduli (GPa) = 66.41661 26.63001 87.64388
#
# Poissons Ratio (x) = 0.19171 0.41615
# Poissons Ratio (y) = 0.47812 0.45425
# Poissons Ratio (z) = 0.31536 0.13802
#
# Static dielectric constant tensor:
#      x y z
#    x 1.612530 0.000000 0.000000 
#    y 0.000000 1.563050 0.000000 
#    z 0.000000 0.000000 1.609750 
# 
# From -- ./inp_files/44384.got.cif
#   From: 2010.05.17/outbox.cif.g08.bks.cpg/sg74_23_cif.got.tgz:44384.got - 2010.06.03 17:57:02.
