data_PCOD9536021
_publ_section_title
;
Structure prediction by ZEFSAII (Michael W. Deem and Ramdas Pophale) SiO2 
 PCOD9536021
Probable space group: I M M A
;
_chemical_formula_sum "Si O2"
_cell_formula_units_Z 64
_cell_length_a 31.819079
_cell_length_b 7.784129
_cell_length_c 14.879571
_cell_angle_alpha 90.000000
_cell_angle_beta 90.000000
_cell_angle_gamma 90.000000
_cell_volume 3685.428920
_symmetry_space_group_name_H-M "I M M A"
_symmetry_group_IT_number 74
_symmetry_cell_setting 'orthorhombic'
loop_
_space_group_symop_operation_xyz
x,y,z
-x,1/2-y,z
x,-y,-z
-x,1/2+y,-z
-x,-y,-z
x,1/2+y,-z
-x,y,z
x,1/2-y,z
1/2+x,1/2+y,1/2+z
1/2-x,-y,1/2+z
1/2+x,1/2-y,1/2-z
1/2-x,y,1/2-z
1/2-x,1/2-y,1/2-z
1/2+x,y,1/2-z
1/2-x,1/2+y,1/2+z
1/2+x,-y,1/2+z
loop_
_atom_site_type_symbol
_atom_site_label
_atom_site_fract_x
_atom_site_fract_y
_atom_site_fract_z
Si Si1 0.047644 0.455645 0.895734
Si Si2 0.629942 0.945926 0.705912
Si Si3 0.310214 0.250000 0.665655
Si Si4 0.717832 0.250000 0.874155
Si Si5 0.154801 0.451439 0.407792
O O1 0.049230 0.250000 0.886015
O O2 0.083563 0.534295 0.833872
O O3 0.000000 0.513794 0.875120
O O4 0.055838 0.500000 0.000000
O O5 0.644607 0.750000 0.693273
O O6 0.631433 0.983489 0.813132
O O7 0.660584 0.082298 0.657805
O O8 0.293057 0.250000 0.768003
O O9 0.267512 0.250000 0.608693
O O10 0.694674 0.421058 0.908378
O O11 0.130929 0.500000 0.500000
O O12 0.165665 0.250000 0.409061
#
# Coordination Sequence:
#
# PCOD9536021 Si02
#       5
#    16  16   8   8  16
#     4  10  20  35  57  81 107 138 172 214 261 317
#     4  10  20  34  55  81 107 138 176 218 264 314
#     4   9  18  34  51  74 103 138 174 217 268 304
#     4   9  18  32  52  72 103 138 175 223 260 303
#     4  10  19  32  54  79 105 140 182 220 257 309
#
# _framework density 17.365684999999999
#
# number of rings (size 3 to 8) (size 9 to 14) (size 15 to 20)
#    0.000    2.250    2.500    0.750    0.000    2.500 
#    0.000    6.250    0.000    0.750    0.000    0.000 
#    0.000    0.000    0.000    0.000    0.000    0.000 
#
# Total GULP energy -178284.038979 kJ/mol
# GULP energy per Si atom -5571.376218 kJ/mol
# Density = 1.732616 g / cm^3
# Si number density = 17.365685 Si / 1000 Ang^3
#
#
#
# Elastic Constant Matrix: (Units=GPa)
#
#
# Indices 1 2 3 4 5 6 
#
# 1 113.4677 46.9175 60.3118 0.0000 0.0000 0.0000
# 2 46.9175 106.5411 34.0047 0.0000 0.0000 0.0000
# 3 60.3118 34.0047 67.1985 0.0000 0.0000 0.0000
# 4 0.0000 0.0000 0.0000 25.1205 0.0000 0.0000
# 5 0.0000 0.0000 0.0000 0.0000 19.6127 0.0000
# 6 0.0000 0.0000 0.0000 0.0000 0.0000 2.7396
#
#
#
# Elastic Compliance Matrix: (Units=1/GPa)
#
#
# Indices 1 2 3 4 5 6 
#
# 1 0.017754 -0.003259 -0.014285 0.000000 0.000000 0.000000
# 2 -0.003259 0.011792 -0.003042 0.000000 0.000000 0.000000
# 3 -0.014285 -0.003042 0.029242 0.000000 0.000000 0.000000
# 4 0.000000 0.000000 0.000000 0.039808 0.000000 0.000000
# 5 0.000000 0.000000 0.000000 0.000000 0.050987 0.000000
# 6 0.000000 0.000000 0.000000 0.000000 0.000000 0.365021
#
#
# Mechanical properties :
#
#
# Convention : Reuss Voigt Hill
#
# Bulk Modulus (GPa) = 56.76938 63.29725 60.03331
# Shear Modulus (GPa) = 8.90237 19.22611 14.06424
#
# Velocity S-wave (km/s) = 2.26662 3.33097 2.84894
# Velocity P-wave (km/s) = 6.29377 7.16398 6.74293
#
# Compressibility (1/GPa) = 0.01761513
#
# Stress axis : x y z
#
# Youngs Moduli (GPa) = 56.32688 84.80207 34.19747
#
# Poissons Ratio (x) = 0.27635 0.48851
# Poissons Ratio (y) = 0.18356 0.10404
# Poissons Ratio (z) = 0.80463 0.25801
#
# Static dielectric constant tensor:
#      x y z
#    x 1.573890 0.000000 0.000000 
#    y 0.000000 1.611280 0.000000 
#    z 0.000000 0.000000 1.617300 
# 
# From -- ./inp_files/36974.got.cif
#   From: 2010.05.17/outbox.cif.g08.bks.cpg/sg74_19_cif.got.tgz:36974.got - 2010.06.03 17:57:02.
