data_PCOD9536450
_publ_section_title
;
Structure prediction by ZEFSAII (Michael W. Deem and Ramdas Pophale) SiO2 
 PCOD9536450
Probable space group: I M M A
;
_chemical_formula_sum "Si O2"
_cell_formula_units_Z 96
_cell_length_a 17.662502
_cell_length_b 13.885316
_cell_length_c 21.583570
_cell_angle_alpha 90.000000
_cell_angle_beta 90.000000
_cell_angle_gamma 90.000000
_cell_volume 5293.358059
_symmetry_space_group_name_H-M "I M M A"
_symmetry_group_IT_number 74
_symmetry_cell_setting 'orthorhombic'
loop_
_space_group_symop_operation_xyz
x,y,z
-x,1/2-y,z
x,-y,-z
-x,1/2+y,-z
-x,-y,-z
x,1/2+y,-z
-x,y,z
x,1/2-y,z
1/2+x,1/2+y,1/2+z
1/2-x,-y,1/2+z
1/2+x,1/2-y,1/2-z
1/2-x,y,1/2-z
1/2-x,1/2-y,1/2-z
1/2+x,y,1/2-z
1/2-x,1/2+y,1/2+z
1/2+x,-y,1/2+z
loop_
_atom_site_type_symbol
_atom_site_label
_atom_site_fract_x
_atom_site_fract_y
_atom_site_fract_z
Si Si1 0.210776 0.452657 0.600837
Si Si2 0.418065 0.137953 0.464727
Si Si3 0.086479 0.140874 0.184800
Si Si4 0.752422 0.635750 0.525647
Si Si5 0.411149 0.637399 0.190968
Si Si6 0.322797 0.047629 0.706313
O O1 0.206786 0.389033 0.538781
O O2 0.215727 0.564006 0.578425
O O3 0.140615 0.426682 0.645290
O O4 0.288162 0.430270 0.638952
O O5 0.500000 0.098432 0.485086
O O6 0.419569 0.250000 0.482213
O O7 0.415850 0.133310 0.389933
O O8 0.335430 0.104963 0.485102
O O9 0.109754 0.250000 0.200325
O O10 0.000000 0.126267 0.206743
O O11 0.141313 0.058249 0.207629
O O12 0.755501 0.750000 0.540444
O O13 0.500000 0.616528 0.184691
O O14 0.397946 0.750000 0.176871
O O15 0.383505 0.616963 0.261333
O O16 0.250000 0.051252 0.750000
#
# Coordination Sequence:
#
# PCOD9536450 Si02
#       6
#    16  16  16  16  16  16
#     4  10  21  35  56  85 108 140 184 222 269 323
#     4   8  14  26  46  70 101 143 177 203 249 311
#     4   9  16  28  47  72 106 144 176 210 256 312
#     4  10  19  34  55  81 115 148 180 222 272 324
#     4  10  22  41  61  78 103 141 181 225 275 322
#     4  10  20  33  53  80 107 137 178 226 270 317
#
# _framework density 18.135935
#
# number of rings (size 3 to 8) (size 9 to 14) (size 15 to 20)
#    0.000    2.500    1.667    2.000    0.000    4.000 
#    0.000    7.500    0.000    4.500    0.000    0.000 
#    0.000    0.000    0.000    0.000    0.000    0.000 
#
# Total GULP energy -267211.262119 kJ/mol
# GULP energy per Si atom -5566.901294 kJ/mol
# Density = 1.809466 g / cm^3
# Si number density = 18.135935 Si / 1000 Ang^3
#
#
#
# Elastic Constant Matrix: (Units=GPa)
#
#
# Indices 1 2 3 4 5 6 
#
# 1 73.3740 41.8442 22.5350 0.0000 0.0000 0.0000
# 2 41.8442 99.6487 26.3402 0.0000 0.0000 0.0000
# 3 22.5350 26.3402 65.4347 0.0000 0.0000 0.0000
# 4 0.0000 0.0000 0.0000 20.3585 0.0000 0.0000
# 5 0.0000 0.0000 0.0000 0.0000 32.8852 0.0000
# 6 0.0000 0.0000 0.0000 0.0000 0.0000 24.8147
#
#
#
# Elastic Compliance Matrix: (Units=1/GPa)
#
#
# Indices 1 2 3 4 5 6 
#
# 1 0.018674 -0.006873 -0.003664 0.000000 0.000000 0.000000
# 2 -0.006873 0.013760 -0.003172 0.000000 0.000000 0.000000
# 3 -0.003664 -0.003172 0.017821 0.000000 0.000000 0.000000
# 4 0.000000 0.000000 0.000000 0.049120 0.000000 0.000000
# 5 0.000000 0.000000 0.000000 0.000000 0.030409 0.000000
# 6 0.000000 0.000000 0.000000 0.000000 0.000000 0.040299
#
#
# Mechanical properties :
#
#
# Convention : Reuss Voigt Hill
#
# Bulk Modulus (GPa) = 43.78992 46.65514 45.22253
# Shear Modulus (GPa) = 24.37691 25.46088 24.91889
#
# Velocity S-wave (km/s) = 3.67020 3.75092 3.71078
# Velocity P-wave (km/s) = 6.49295 6.67385 6.58402
#
# Compressibility (1/GPa) = 0.02283631
#
# Stress axis : x y z
#
# Youngs Moduli (GPa) = 53.55128 72.67610 56.11285
#
# Poissons Ratio (x) = 0.49949 0.20562
# Poissons Ratio (y) = 0.36805 0.17799
# Poissons Ratio (z) = 0.19624 0.23052
#
# Static dielectric constant tensor:
#      x y z
#    x 1.622220 0.000000 0.000000 
#    y 0.000000 1.631080 0.000000 
#    z 0.000000 0.000000 1.635180 
# 
# From -- ./inp_files/51828.got.cif
#   From: 2010.05.17/outbox.cif.g08.bks.cpg/sg74_26_cif.got.tgz:51828.got - 2010.06.03 17:57:02.
