data_PCOD9536133
_publ_section_title
;
Structure prediction by ZEFSAII (Michael W. Deem and Ramdas Pophale) SiO2 
 PCOD9536133
Probable space group: I M M A
;
_chemical_formula_sum "Si O2"
_cell_formula_units_Z 80
_cell_length_a 26.320262
_cell_length_b 14.370470
_cell_length_c 9.435825
_cell_angle_alpha 90.000000
_cell_angle_beta 90.000000
_cell_angle_gamma 90.000000
_cell_volume 3568.954886
_symmetry_space_group_name_H-M "I M M A"
_symmetry_group_IT_number 74
_symmetry_cell_setting 'orthorhombic'
loop_
_space_group_symop_operation_xyz
x,y,z
-x,1/2-y,z
x,-y,-z
-x,1/2+y,-z
-x,-y,-z
x,1/2+y,-z
-x,y,z
x,1/2-y,z
1/2+x,1/2+y,1/2+z
1/2-x,-y,1/2+z
1/2+x,1/2-y,1/2-z
1/2-x,y,1/2-z
1/2-x,1/2-y,1/2-z
1/2+x,y,1/2-z
1/2-x,1/2+y,1/2+z
1/2+x,-y,1/2+z
loop_
_atom_site_type_symbol
_atom_site_label
_atom_site_fract_x
_atom_site_fract_y
_atom_site_fract_z
Si Si1 0.000000 0.636913 0.105658
Si Si2 0.000000 0.101299 0.565438
Si Si3 0.899574 0.856962 0.598620
Si Si4 0.693155 0.363239 0.584678
Si Si5 0.691964 0.136143 0.909225
Si Si6 0.094960 0.136181 0.086089
O O1 0.000000 0.750000 0.114561
O O2 0.000000 0.602585 0.266053
O O3 0.049647 0.607932 0.017892
O O4 0.051452 0.144085 0.502051
O O5 0.000000 0.000000 0.500000
O O6 0.885718 0.750000 0.628220
O O7 0.851473 0.896714 0.515435
O O8 0.911517 0.898456 0.752850
O O9 0.692567 0.250000 0.585709
O O10 0.682519 0.393203 0.746606
O O11 0.750796 0.390612 0.548280
O O12 0.649312 0.392009 0.477214
O O13 0.690557 0.250000 0.906963
O O14 0.092682 0.250000 0.086175
#
# Coordination Sequence:
#
# PCOD9536133 Si02
#       6
#     8   8  16  16  16  16
#     4  10  19  34  55  76  99 134 171 204 244 300
#     4  12  25  38  52  72  96 128 167 210 256 302
#     4  10  19  33  52  75 101 130 164 208 254 299
#     4   8  13  23  39  69 107 136 162 197 241 290
#     4   8  14  24  43  70 103 136 164 197 241 288
#     4   9  17  28  48  77 107 133 163 203 249 296
#
# _framework density 22.415524000000001
#
# number of rings (size 3 to 8) (size 9 to 14) (size 15 to 20)
#    0.000    2.800    0.000    3.900    0.000    5.600 
#    0.000    6.000    0.000    0.000    0.000   11.200 
#    0.000    0.000    0.000    0.000    0.000    0.000 
#
# Total GULP energy -223467.696698 kJ/mol
# GULP energy per Si atom -5586.692417 kJ/mol
# Density = 2.236451 g / cm^3
# Si number density = 22.415524 Si / 1000 Ang^3
#
#
#
# Elastic Constant Matrix: (Units=GPa)
#
#
# Indices 1 2 3 4 5 6 
#
# 1 174.1809 -6.6376 139.0080 0.0000 0.0000 0.0000
# 2 -6.6376 66.9065 8.0967 0.0000 0.0000 0.0000
# 3 139.0080 8.0967 208.9241 0.0000 0.0000 0.0000
# 4 0.0000 0.0000 0.0000 3.3873 0.0000 0.0000
# 5 0.0000 0.0000 0.0000 0.0000 55.5454 0.0000
# 6 0.0000 0.0000 0.0000 0.0000 0.0000 -61.1669
#
#
#
# Elastic Compliance Matrix: (Units=1/GPa)
#
#
# Indices 1 2 3 4 5 6 
#
# 1 0.012575 0.002271 -0.008455 0.000000 0.000000 0.000000
# 2 0.002271 0.015427 -0.002109 0.000000 0.000000 0.000000
# 3 -0.008455 -0.002109 0.010494 0.000000 0.000000 0.000000
# 4 0.000000 0.000000 0.000000 0.295225 0.000000 0.000000
# 5 0.000000 0.000000 0.000000 0.000000 0.018003 0.000000
# 6 0.000000 0.000000 0.000000 0.000000 0.000000 -0.016349
#
#
# Mechanical properties :
#
#
# Convention : Reuss Voigt Hill
#
# Bulk Modulus (GPa) = 45.64167 81.21620 63.42893
# Shear Modulus (GPa) = 13.91733 20.18944 17.05339
#
# Velocity S-wave (km/s) = 2.49445 3.00441 2.76122
# Velocity P-wave (km/s) = 5.35744 6.95313 6.20678
#
# Compressibility (1/GPa) = 0.02190980
#
# Stress axis : x y z
#
# Youngs Moduli (GPa) = 79.52044 64.82272 95.29499
#
# Poissons Ratio (x) = -0.14720 0.80572
# Poissons Ratio (y) = -0.18057 0.20095
# Poissons Ratio (z) = 0.67235 0.13669
#
# Static dielectric constant tensor:
#      x y z
#    x 1.801030 0.000000 0.000000 
#    y 0.000000 1.955650 0.000000 
#    z 0.000000 0.000000 1.788150 
# 
# From -- ./inp_files/13668.got.cif
#   From: 2010.05.17/outbox.cif.g08.bks.cpg/sg74_7_cif.got.tgz:13668.got - 2010.06.03 17:57:02.
