data_PCOD9536653
_publ_section_title
;
Structure prediction by ZEFSAII (Michael W. Deem and Ramdas Pophale) SiO2 
 PCOD9536653
Probable space group: I M M A
;
_chemical_formula_sum "Si O2"
_cell_formula_units_Z 116
_cell_length_a 26.494578
_cell_length_b 7.884565
_cell_length_c 26.707405
_cell_angle_alpha 90.000000
_cell_angle_beta 90.000000
_cell_angle_gamma 90.000000
_cell_volume 5579.129429
_symmetry_space_group_name_H-M "I M M A"
_symmetry_group_IT_number 74
_symmetry_cell_setting 'orthorhombic'
loop_
_space_group_symop_operation_xyz
x,y,z
-x,1/2-y,z
x,-y,-z
-x,1/2+y,-z
-x,-y,-z
x,1/2+y,-z
-x,y,z
x,1/2-y,z
1/2+x,1/2+y,1/2+z
1/2-x,-y,1/2+z
1/2+x,1/2-y,1/2-z
1/2-x,y,1/2-z
1/2-x,1/2-y,1/2-z
1/2+x,y,1/2-z
1/2-x,1/2+y,1/2+z
1/2+x,-y,1/2+z
loop_
_atom_site_type_symbol
_atom_site_label
_atom_site_fract_x
_atom_site_fract_y
_atom_site_fract_z
Si Si1 0.347634 0.048950 0.285827
Si Si2 0.860849 0.553960 0.327495
Si Si3 0.553708 0.553213 0.661760
Si Si4 0.000000 0.250000 0.553028
Si Si5 0.689413 0.549623 0.552808
Si Si6 0.751792 0.453894 0.154863
Si Si7 0.945625 0.939537 0.596269
Si Si8 0.075280 0.557935 0.054945
O O1 0.344803 0.250000 0.297062
O O2 0.394644 0.975743 0.317183
O O3 0.292752 0.985172 0.303806
O O4 0.360387 0.023500 0.228056
O O5 0.875754 0.750000 0.324214
O O6 0.802691 0.537317 0.343677
O O7 0.899271 0.468116 0.366455
O O8 0.500000 0.476248 0.677664
O O9 0.553373 0.750000 0.677867
O O10 0.556660 0.548313 0.601830
O O11 0.956261 0.402972 0.559127
O O12 0.714095 0.500000 0.500000
O O13 0.677865 0.750000 0.552601
O O14 0.722453 0.515010 0.601303
O O15 0.636116 0.454983 0.555458
O O16 0.743968 0.250000 0.161257
O O17 0.941923 0.750000 0.573006
O O18 0.000000 0.940961 0.625382
O O19 0.059703 0.750000 0.063343
O O20 0.059089 0.500000 0.000000
#
# Coordination Sequence:
#
# PCOD9536653 Si02
#       8
#    16  16  16   4  16  16  16  16
#     4  10  21  38  54  72 103 143 187 228 283 346
#     4  12  23  35  52  80 112 143 191 236 274 330
#     4  10  21  39  59  78 103 136 182 234 286 343
#     4   8  14  32  52  78 106 136 184 224 262 318
#     4  10  19  35  58  83 109 140 179 222 277 341
#     4  10  21  37  56  77 107 143 182 225 276 341
#     4   9  17  32  53  75 107 143 177 224 272 315
#     4  11  21  34  56  79 105 136 176 224 284 343
#
# _framework density 20.791774
#
# number of rings (size 3 to 8) (size 9 to 14) (size 15 to 20)
#    0.414    1.379    2.069    4.138    0.000    4.966 
#    0.000    1.379    0.000    0.000    0.000    0.000 
#    0.000    0.552    0.000    3.034    0.000    5.379 
#
# Total GULP energy -322962.069663 kJ/mol
# GULP energy per Si atom -5568.311546 kJ/mol
# Density = 2.074445 g / cm^3
# Si number density = 20.791774 Si / 1000 Ang^3
#
#
#
# Elastic Constant Matrix: (Units=GPa)
#
#
# Indices 1 2 3 4 5 6 
#
# 1 99.6680 15.9524 7.7219 0.0000 0.0000 0.0000
# 2 15.9524 73.7623 0.4532 0.0000 0.0000 0.0000
# 3 7.7219 0.4532 29.9472 0.0000 0.0000 0.0000
# 4 0.0000 0.0000 0.0000 17.6673 0.0000 0.0000
# 5 0.0000 0.0000 0.0000 0.0000 25.4018 0.0000
# 6 0.0000 0.0000 0.0000 0.0000 0.0000 6.5031
#
#
#
# Elastic Compliance Matrix: (Units=1/GPa)
#
#
# Indices 1 2 3 4 5 6 
#
# 1 0.010607 -0.002277 -0.002701 0.000000 0.000000 0.000000
# 2 -0.002277 0.014047 0.000375 0.000000 0.000000 0.000000
# 3 -0.002701 0.000375 0.034083 0.000000 0.000000 0.000000
# 4 0.000000 0.000000 0.000000 0.056602 0.000000 0.000000
# 5 0.000000 0.000000 0.000000 0.000000 0.039367 0.000000
# 6 0.000000 0.000000 0.000000 0.000000 0.000000 0.153773
#
#
# Mechanical properties :
#
#
# Convention : Reuss Voigt Hill
#
# Bulk Modulus (GPa) = 20.18956 27.95916 24.07436
# Shear Modulus (GPa) = 14.96130 21.86443 18.41287
#
# Velocity S-wave (km/s) = 2.68540 3.24634 2.97911
# Velocity P-wave (km/s) = 4.39848 5.24672 4.84121
#
# Compressibility (1/GPa) = 0.04953056
#
# Stress axis : x y z
#
# Youngs Moduli (GPa) = 94.27696 71.18819 29.34029
#
# Poissons Ratio (x) = 0.16212 0.07924
# Poissons Ratio (y) = 0.21470 -0.01099
# Poissons Ratio (z) = 0.25460 -0.02667
#
# Static dielectric constant tensor:
#      x y z
#    x 1.771290 0.000000 0.000000 
#    y 0.000000 1.783670 0.000000 
#    z 0.000000 0.000000 1.749980 
# 
# From -- ./inp_files/68741.got.cif
#   From: 2010.05.17/outbox.cif.g08.bks.cpg/sg74_35_cif.got.tgz:68741.got - 2010.06.03 17:57:02.
