data_PCOD9536209
_publ_section_title
;
Structure prediction by ZEFSAII (Michael W. Deem and Ramdas Pophale) SiO2 
 PCOD9536209
Probable space group: I M M A
;
_chemical_formula_sum "Si O2"
_cell_formula_units_Z 112
_cell_length_a 18.449369
_cell_length_b 19.252371
_cell_length_c 18.997478
_cell_angle_alpha 90.000000
_cell_angle_beta 90.000000
_cell_angle_gamma 90.000000
_cell_volume 6747.792038
_symmetry_space_group_name_H-M "I M M A"
_symmetry_group_IT_number 74
_symmetry_cell_setting 'orthorhombic'
loop_
_space_group_symop_operation_xyz
x,y,z
-x,1/2-y,z
x,-y,-z
-x,1/2+y,-z
-x,-y,-z
x,1/2+y,-z
-x,y,z
x,1/2-y,z
1/2+x,1/2+y,1/2+z
1/2-x,-y,1/2+z
1/2+x,1/2-y,1/2-z
1/2-x,y,1/2-z
1/2-x,1/2-y,1/2-z
1/2+x,y,1/2-z
1/2-x,1/2+y,1/2+z
1/2+x,-y,1/2+z
loop_
_atom_site_type_symbol
_atom_site_label
_atom_site_fract_x
_atom_site_fract_y
_atom_site_fract_z
Si Si1 0.710181 0.332331 0.584230
Si Si2 0.780139 0.421101 0.473633
Si Si3 0.081925 0.328819 0.480514
Si Si4 0.917631 0.826504 0.689873
Si Si5 0.683991 0.896531 0.194127
Si Si6 0.306356 0.054923 0.186280
Si Si7 0.083174 0.666449 0.192836
O O1 0.708632 0.250000 0.571959
O O2 0.719457 0.375784 0.513068
O O3 0.780518 0.352490 0.631384
O O4 0.638964 0.352404 0.629832
O O5 0.777123 0.500000 0.500000
O O6 0.856782 0.385351 0.495116
O O7 0.774925 0.420225 0.388950
O O8 0.100520 0.250000 0.504547
O O9 0.079368 0.325819 0.395352
O O10 0.000000 0.345317 0.505137
O O11 0.889820 0.750000 0.711743
O O12 0.868588 0.891481 0.708474
O O13 0.000000 0.833790 0.715360
O O14 0.750000 0.898806 0.250000
O O15 0.616881 0.863035 0.235016
O O16 0.667491 0.975874 0.173663
O O17 0.250000 0.053678 0.250000
O O18 0.084658 0.750000 0.197086
O O19 0.000000 0.644328 0.181649
#
# Coordination Sequence:
#
# PCOD9536209 Si02
#       7
#    16  16  16  16  16  16  16
#     4  10  19  33  54  77 105 142 178 214 264 318
#     4  11  20  32  50  75 102 139 176 215 258 309
#     4   8  15  29  47  67  95 129 165 203 245 300
#     4   8  15  29  48  68  93 128 167 206 252 301
#     4   9  17  31  50  76 104 137 169 208 261 315
#     4  10  20  33  51  75 103 134 171 219 264 308
#     4   9  18  33  55  82 110 141 178 218 261 317
#
# _framework density 16.598022
#
# number of rings (size 3 to 8) (size 9 to 14) (size 15 to 20)
#    0.000    2.714    1.429    1.714    0.000    3.429 
#    0.000    0.714    0.000    3.857    0.000    2.000 
#    0.000    0.000    0.000    0.000    0.000    0.000 
#
# Total GULP energy -311753.538821 kJ/mol
# GULP energy per Si atom -5567.027479 kJ/mol
# Density = 1.656024 g / cm^3
# Si number density = 16.598022 Si / 1000 Ang^3
#
#
#
# Elastic Constant Matrix: (Units=GPa)
#
#
# Indices 1 2 3 4 5 6 
#
# 1 87.6611 42.0949 33.6975 0.0000 0.0000 0.0000
# 2 42.0949 79.4674 23.4513 0.0000 0.0000 0.0000
# 3 33.6975 23.4513 71.5644 0.0000 0.0000 0.0000
# 4 0.0000 0.0000 0.0000 13.1715 0.0000 0.0000
# 5 0.0000 0.0000 0.0000 0.0000 16.3597 0.0000
# 6 0.0000 0.0000 0.0000 0.0000 0.0000 20.0681
#
#
#
# Elastic Compliance Matrix: (Units=1/GPa)
#
#
# Indices 1 2 3 4 5 6 
#
# 1 0.017135 -0.007412 -0.005639 0.000000 0.000000 0.000000
# 2 -0.007412 0.017137 -0.002126 0.000000 0.000000 0.000000
# 3 -0.005639 -0.002126 0.017325 0.000000 0.000000 0.000000
# 4 0.000000 0.000000 0.000000 0.075922 0.000000 0.000000
# 5 0.000000 0.000000 0.000000 0.000000 0.061126 0.000000
# 6 0.000000 0.000000 0.000000 0.000000 0.000000 0.049830
#
#
# Mechanical properties :
#
#
# Convention : Reuss Voigt Hill
#
# Bulk Modulus (GPa) = 47.07400 48.57559 47.82479
# Shear Modulus (GPa) = 18.12183 19.21649 18.66916
#
# Velocity S-wave (km/s) = 3.30783 3.40628 3.35742
# Velocity P-wave (km/s) = 6.55834 6.69326 6.62614
#
# Compressibility (1/GPa) = 0.02124315
#
# Stress axis : x y z
#
# Youngs Moduli (GPa) = 58.36108 58.35174 57.71897
#
# Poissons Ratio (x) = 0.43252 0.32549
# Poissons Ratio (y) = 0.43259 0.12269
# Poissons Ratio (z) = 0.32911 0.12403
#
# Static dielectric constant tensor:
#      x y z
#    x 1.561200 0.000000 0.000000 
#    y 0.000000 1.569440 0.000000 
#    z 0.000000 0.000000 1.570770 
# 
# From -- ./inp_files/53262.got.cif
#   From: 2010.05.17/outbox.cif.g08.bks.cpg/sg74_27_cif.got.tgz:53262.got - 2010.06.03 17:57:02.
