data_PCOD9536838
_publ_section_title
;
Structure prediction by ZEFSAII (Michael W. Deem and Ramdas Pophale) SiO2 
 PCOD9536838
Probable space group: I M M A
;
_chemical_formula_sum "Si O2"
_cell_formula_units_Z 80
_cell_length_a 14.102193
_cell_length_b 17.576860
_cell_length_c 15.464641
_cell_angle_alpha 90.000000
_cell_angle_beta 90.000000
_cell_angle_gamma 90.000000
_cell_volume 3833.255701
_symmetry_space_group_name_H-M "I M M A"
_symmetry_group_IT_number 74
_symmetry_cell_setting 'orthorhombic'
loop_
_space_group_symop_operation_xyz
x,y,z
-x,1/2-y,z
x,-y,-z
-x,1/2+y,-z
-x,-y,-z
x,1/2+y,-z
-x,y,z
x,1/2-y,z
1/2+x,1/2+y,1/2+z
1/2-x,-y,1/2+z
1/2+x,1/2-y,1/2-z
1/2-x,y,1/2-z
1/2-x,1/2-y,1/2-z
1/2+x,y,1/2-z
1/2-x,1/2+y,1/2+z
1/2+x,-y,1/2+z
loop_
_atom_site_type_symbol
_atom_site_label
_atom_site_fract_x
_atom_site_fract_y
_atom_site_fract_z
Si Si1 0.786326 0.838105 0.626767
Si Si2 0.605152 0.660112 0.391891
Si Si3 0.797141 0.916495 0.458534
Si Si4 0.605021 0.098148 0.289024
Si Si5 0.639408 0.429225 0.770874
O O1 0.760732 0.750000 0.630279
O O2 0.829017 0.860921 0.535022
O O3 0.689839 0.886455 0.643455
O O4 0.858327 0.858015 0.703723
O O5 0.500000 0.641642 0.427238
O O6 0.622290 0.750000 0.403276
O O7 0.691995 0.612558 0.431381
O O8 0.603576 0.638048 0.290243
O O9 0.863404 0.917397 0.373592
O O10 0.793237 0.000000 0.500000
O O11 0.500000 0.122716 0.316819
O O12 0.600655 0.009829 0.261842
O O13 0.750000 0.435468 0.750000
#
# Coordination Sequence:
#
# PCOD9536838 Si02
#       5
#    16  16  16  16  16
#     4  11  23  39  59  90 123 154 199 250 296 358
#     4  10  22  38  58  89 122 152 196 249 299 357
#     4  11  21  38  62  84 118 158 195 245 299 352
#     4  11  21  39  63  86 117 160 201 244 298 354
#     4  10  19  37  62  84 115 154 198 237 289 351
#
# _framework density 20.869989
#
# number of rings (size 3 to 8) (size 9 to 14) (size 15 to 20)
#    0.000    1.400    4.000    3.600    0.000    7.200 
#    0.000    3.000    0.000    0.000    0.000    0.000 
#    0.000    0.000    0.000    0.000    0.000    0.000 
#
# Total GULP energy -223291.561229 kJ/mol
# GULP energy per Si atom -5582.289031 kJ/mol
# Density = 2.082249 g / cm^3
# Si number density = 20.869989 Si / 1000 Ang^3
#
#
#
# Elastic Constant Matrix: (Units=GPa)
#
#
# Indices 1 2 3 4 5 6 
#
# 1 45.0404 -3.8668 -34.8341 0.0000 0.0000 0.0000
# 2 -3.8668 35.6879 -4.2814 -0.0001 0.0000 0.0000
# 3 -34.8341 -4.2814 76.6082 -0.0001 0.0000 0.0000
# 4 0.0000 -0.0001 -0.0001 -13.0050 0.0000 0.0000
# 5 0.0000 0.0000 0.0000 0.0000 14.2031 0.0000
# 6 0.0000 0.0000 0.0000 0.0000 0.0000 -22.8833
#
#
#
# Elastic Compliance Matrix: (Units=1/GPa)
#
#
# Indices 1 2 3 4 5 6 
#
# 1 0.035401 0.005806 0.016421 0.000000 0.000000 0.000000
# 2 0.005806 0.029162 0.004270 0.000000 0.000000 0.000000
# 3 0.016421 0.004270 0.020759 0.000000 0.000000 0.000000
# 4 0.000000 0.000000 0.000000 -0.076893 0.000000 0.000000
# 5 0.000000 0.000000 0.000000 0.000000 0.070407 0.000000
# 6 0.000000 0.000000 0.000000 0.000000 0.000000 -0.043700
#
#
# Mechanical properties :
#
#
# Convention : Reuss Voigt Hill
#
# Bulk Modulus (GPa) = 7.22981 7.93019 7.58000
# Shear Modulus (GPa) = 177.00916 9.01754 93.01335
#
# Velocity S-wave (km/s) = 9.21951 2.08091 6.68317
# Velocity P-wave (km/s) = 10.80760 3.09542 7.94940
#
# Compressibility (1/GPa) = 0.13831619
#
# Stress axis : x y z
#
# Youngs Moduli (GPa) = 28.24772 34.29117 48.17191
#
# Poissons Ratio (x) = -0.19909 -0.79105
# Poissons Ratio (y) = -0.16400 -0.20568
# Poissons Ratio (z) = -0.46387 -0.14641
#
# Static dielectric constant tensor:
#      x y z
#    x 1.761070 0.000000 0.000000 
#    y 0.000000 1.731320 0.000000 
#    z 0.000000 0.000000 1.801910 
# 
# From -- ./inp_files/42706.got.cif
#   From: 2010.05.17/outbox.cif.g08.bks.cpg/sg74_22_cif.got.tgz:42706.got - 2010.06.03 17:57:02.
