data_PCOD9536203
_publ_section_title
;
Structure prediction by ZEFSAII (Michael W. Deem and Ramdas Pophale) SiO2 
 PCOD9536203
Probable space group: I M M A
;
_chemical_formula_sum "Si O2"
_cell_formula_units_Z 96
_cell_length_a 28.294846
_cell_length_b 8.879464
_cell_length_c 19.590006
_cell_angle_alpha 90.000000
_cell_angle_beta 90.000000
_cell_angle_gamma 90.000000
_cell_volume 4921.853179
_symmetry_space_group_name_H-M "I M M A"
_symmetry_group_IT_number 74
_symmetry_cell_setting 'orthorhombic'
loop_
_space_group_symop_operation_xyz
x,y,z
-x,1/2-y,z
x,-y,-z
-x,1/2+y,-z
-x,-y,-z
x,1/2+y,-z
-x,y,z
x,1/2-y,z
1/2+x,1/2+y,1/2+z
1/2-x,-y,1/2+z
1/2+x,1/2-y,1/2-z
1/2-x,y,1/2-z
1/2-x,1/2-y,1/2-z
1/2+x,y,1/2-z
1/2-x,1/2+y,1/2+z
1/2+x,-y,1/2+z
loop_
_atom_site_type_symbol
_atom_site_label
_atom_site_fract_x
_atom_site_fract_y
_atom_site_fract_z
Si Si1 0.406848 0.427705 0.570179
Si Si2 0.445892 0.933327 0.855817
Si Si3 0.649704 0.932946 0.926248
Si Si4 0.194770 0.577327 0.935361
Si Si5 0.227900 0.424242 0.318858
Si Si6 0.556428 0.080438 0.295561
O O1 0.426249 0.500000 0.500000
O O2 0.409472 0.250000 0.564420
O O3 0.352912 0.484758 0.576055
O O4 0.431043 0.483763 0.639059
O O5 0.500000 0.983927 0.870090
O O6 0.447380 0.750000 0.853545
O O7 0.404456 0.975024 0.907706
O O8 0.430256 0.980401 0.779218
O O9 0.653599 0.750000 0.929480
O O10 0.683780 0.984028 0.863560
O O11 0.662315 0.000000 0.000000
O O12 0.182287 0.750000 0.951387
O O13 0.228901 0.576751 0.871591
O O14 0.219396 0.500000 0.000000
O O15 0.214730 0.250000 0.301259
O O16 0.250000 0.494680 0.250000
O O17 0.500000 0.092650 0.292015
O O18 0.576500 0.250000 0.304170
#
# Coordination Sequence:
#
# PCOD9536203 Si02
#       6
#    16  16  16  16  16  16
#     4  11  22  35  52  76 106 141 183 223 274 330
#     4   8  16  32  56  84 110 142 184 225 270 326
#     4  10  20  35  57  83 114 147 182 227 272 326
#     4  10  19  33  54  75 103 138 178 223 268 318
#     4   9  19  33  53  82 106 138 186 228 268 318
#     4   9  18  34  56  80 105 137 180 229 278 325
#
# _framework density 19.504847999999999
#
# number of rings (size 3 to 8) (size 9 to 14) (size 15 to 20)
#    0.000    2.500    0.000    4.500    2.333    1.000 
#    0.000    1.667    0.000    3.500    0.000    0.000 
#    0.000    0.000    0.000    0.000    0.000    0.000 
#
# Total GULP energy -267484.583821 kJ/mol
# GULP energy per Si atom -5572.595496 kJ/mol
# Density = 1.946045 g / cm^3
# Si number density = 19.504848 Si / 1000 Ang^3
#
#
#
# Elastic Constant Matrix: (Units=GPa)
#
#
# Indices 1 2 3 4 5 6 
#
# 1 54.4117 9.7534 55.7493 0.0000 0.0000 0.0000
# 2 9.7534 61.8690 26.9073 0.0000 0.0000 0.0000
# 3 55.7493 26.9073 119.0626 0.0000 0.0000 0.0000
# 4 0.0000 0.0000 0.0000 14.7614 0.0000 0.0000
# 5 0.0000 0.0000 0.0000 0.0000 33.7130 0.0000
# 6 0.0000 0.0000 0.0000 0.0000 0.0000 12.1979
#
#
#
# Elastic Compliance Matrix: (Units=1/GPa)
#
#
# Indices 1 2 3 4 5 6 
#
# 1 0.035508 0.001811 -0.017035 0.000000 0.000000 0.000000
# 2 0.001811 0.018017 -0.004920 0.000000 0.000000 0.000000
# 3 -0.017035 -0.004920 0.017487 0.000000 0.000000 0.000000
# 4 0.000000 0.000000 0.000000 0.067744 0.000000 0.000000
# 5 0.000000 0.000000 0.000000 0.000000 0.029662 0.000000
# 6 0.000000 0.000000 0.000000 0.000000 0.000000 0.081982
#
#
# Mechanical properties :
#
#
# Convention : Reuss Voigt Hill
#
# Bulk Modulus (GPa) = 32.54732 46.68480 39.61606
# Shear Modulus (GPa) = 16.61515 21.66334 19.13925
#
# Velocity S-wave (km/s) = 2.92181 3.33628 3.13590
# Velocity P-wave (km/s) = 5.30147 6.23121 5.78505
#
# Compressibility (1/GPa) = 0.03072449
#
# Stress axis : x y z
#
# Youngs Moduli (GPa) = 28.16274 55.50211 57.18420
#
# Poissons Ratio (x) = -0.10052 0.97415
# Poissons Ratio (y) = -0.05101 0.28134
# Poissons Ratio (z) = 0.47976 0.27306
#
# Static dielectric constant tensor:
#      x y z
#    x 1.705750 0.000000 0.000000 
#    y 0.000000 1.689690 0.000000 
#    z 0.000000 0.000000 1.739530 
# 
# From -- ./inp_files/55081.got.cif
#   From: 2010.05.17/outbox.cif.g08.bks.cpg/sg74_28_cif.got.tgz:55081.got - 2010.06.03 17:57:02.
