data_PCOD9536175
_publ_section_title
;
Structure prediction by ZEFSAII (Michael W. Deem and Ramdas Pophale) SiO2 
 PCOD9536175
Probable space group: I M M A
;
_chemical_formula_sum "Si O2"
_cell_formula_units_Z 116
_cell_length_a 18.424911
_cell_length_b 14.149106
_cell_length_c 24.974345
_cell_angle_alpha 90.000000
_cell_angle_beta 90.000000
_cell_angle_gamma 90.000000
_cell_volume 6510.712313
_symmetry_space_group_name_H-M "I M M A"
_symmetry_group_IT_number 74
_symmetry_cell_setting 'orthorhombic'
loop_
_space_group_symop_operation_xyz
x,y,z
-x,1/2-y,z
x,-y,-z
-x,1/2+y,-z
-x,-y,-z
x,1/2+y,-z
-x,y,z
x,1/2-y,z
1/2+x,1/2+y,1/2+z
1/2-x,-y,1/2+z
1/2+x,1/2-y,1/2-z
1/2-x,y,1/2-z
1/2-x,1/2-y,1/2-z
1/2+x,y,1/2-z
1/2-x,1/2+y,1/2+z
1/2+x,-y,1/2+z
loop_
_atom_site_type_symbol
_atom_site_label
_atom_site_fract_x
_atom_site_fract_y
_atom_site_fract_z
Si Si1 0.307371 0.489653 0.592389
Si Si2 0.587477 0.857886 0.204061
Si Si3 0.500000 0.500000 0.000000
Si Si4 0.614783 0.360702 0.035284
Si Si5 0.149179 0.529867 0.639845
Si Si6 0.084941 0.031607 0.811358
Si Si7 0.084306 0.859955 0.734697
Si Si8 0.214505 0.858742 0.992086
O O1 0.231521 0.511650 0.622205
O O2 0.366766 0.464034 0.636233
O O3 0.322784 0.581099 0.555175
O O4 0.299027 0.406384 0.549196
O O5 0.500000 0.860317 0.202141
O O6 0.611781 0.750000 0.196740
O O7 0.616256 0.930844 0.159874
O O8 0.607940 0.898439 0.262861
O O9 0.563167 0.417231 0.995779
O O10 0.596177 0.250000 0.041906
O O11 0.608156 0.419147 0.090792
O O12 0.698772 0.365842 0.018179
O O13 0.138065 0.600770 0.689594
O O14 0.092056 0.926828 0.785985
O O15 0.000000 0.049304 0.822449
O O16 0.095508 0.750000 0.745483
O O17 0.000000 0.873105 0.715965
O O18 0.193249 0.750000 0.990686
#
# Coordination Sequence:
#
# PCOD9536175 Si02
#       8
#    16  16   4  16  16  16  16  16
#     4  10  20  35  57  80  99 135 179 221 267 320
#     4   9  19  35  51  75 112 149 177 212 262 313
#     4  12  22  32  48  78 108 136 184 236 260 296
#     4  10  21  36  53  73 104 143 179 220 270 314
#     4  10  19  33  53  77 104 138 182 225 256 309
#     4   9  19  36  56  77 106 139 170 212 269 330
#     4   9  18  32  50  76 111 145 174 209 259 317
#     4   9  20  40  56  72 104 139 171 217 274 322
#
# _framework density 17.816790000000001
#
# number of rings (size 3 to 8) (size 9 to 14) (size 15 to 20)
#    0.000    2.483    0.000    3.517    1.931    4.414 
#    0.000    4.138    0.000    0.828    0.000    0.000 
#    0.000    0.000    0.000    0.000    0.000    0.000 
#
# Total GULP energy -322911.438954 kJ/mol
# GULP energy per Si atom -5567.438603 kJ/mol
# Density = 1.777624 g / cm^3
# Si number density = 17.816790 Si / 1000 Ang^3
#
#
#
# Elastic Constant Matrix: (Units=GPa)
#
#
# Indices 1 2 3 4 5 6 
#
# 1 22.6729 26.8210 32.3682 0.0000 0.0000 0.0000
# 2 26.8210 160.9164 53.5334 0.0000 0.0000 0.0000
# 3 32.3682 53.5334 91.9402 0.0000 0.0000 0.0000
# 4 0.0000 0.0000 0.0000 8.2822 0.0000 0.0000
# 5 0.0000 0.0000 0.0000 0.0000 42.9526 0.0000
# 6 0.0000 0.0000 0.0000 0.0000 0.0000 18.5920
#
#
#
# Elastic Compliance Matrix: (Units=1/GPa)
#
#
# Indices 1 2 3 4 5 6 
#
# 1 0.092701 -0.005697 -0.029319 0.000000 0.000000 0.000000
# 2 -0.005697 0.008058 -0.002686 0.000000 0.000000 0.000000
# 3 -0.029319 -0.002686 0.022762 0.000000 0.000000 0.000000
# 4 0.000000 0.000000 0.000000 0.120741 0.000000 0.000000
# 5 0.000000 0.000000 0.000000 0.000000 0.023281 0.000000
# 6 0.000000 0.000000 0.000000 0.000000 0.000000 0.053787
#
#
# Mechanical properties :
#
#
# Convention : Reuss Voigt Hill
#
# Bulk Modulus (GPa) = 20.78260 55.66385 38.22323
# Shear Modulus (GPa) = 12.11322 24.81916 18.46619
#
# Velocity S-wave (km/s) = 2.61027 3.73637 3.22289
# Velocity P-wave (km/s) = 4.55792 7.06570 5.94553
#
# Compressibility (1/GPa) = 0.04811716
#
# Stress axis : x y z
#
# Youngs Moduli (GPa) = 10.78738 124.10736 43.93233
#
# Poissons Ratio (x) = 0.70709 1.28803
# Poissons Ratio (y) = 0.06146 0.11799
# Poissons Ratio (z) = 0.31627 0.33333
#
# Static dielectric constant tensor:
#      x y z
#    x 1.599460 0.000000 0.000000 
#    y 0.000000 1.615240 0.000000 
#    z 0.000000 0.000000 1.612990 
# 
# From -- ./inp_files/61045.got.cif
#   From: 2010.05.17/outbox.cif.g08.bks.cpg/sg74_31_cif.got.tgz:61045.got - 2010.06.03 17:57:02.
