data_PCOD9536141
_publ_section_title
;
Structure prediction by ZEFSAII (Michael W. Deem and Ramdas Pophale) SiO2 
 PCOD9536141
Probable space group: I M M A
;
_chemical_formula_sum "Si O2"
_cell_formula_units_Z 56
_cell_length_a 13.933495
_cell_length_b 19.526317
_cell_length_c 12.266125
_cell_angle_alpha 90.000000
_cell_angle_beta 90.000000
_cell_angle_gamma 90.000000
_cell_volume 3337.242670
_symmetry_space_group_name_H-M "I M M A"
_symmetry_group_IT_number 74
_symmetry_cell_setting 'orthorhombic'
loop_
_space_group_symop_operation_xyz
x,y,z
-x,1/2-y,z
x,-y,-z
-x,1/2+y,-z
-x,-y,-z
x,1/2+y,-z
-x,y,z
x,1/2-y,z
1/2+x,1/2+y,1/2+z
1/2-x,-y,1/2+z
1/2+x,1/2-y,1/2-z
1/2-x,y,1/2-z
1/2-x,1/2-y,1/2-z
1/2+x,y,1/2-z
1/2-x,1/2+y,1/2+z
1/2+x,-y,1/2+z
loop_
_atom_site_type_symbol
_atom_site_label
_atom_site_fract_x
_atom_site_fract_y
_atom_site_fract_z
Si Si1 0.723495 0.421571 0.486228
Si Si2 0.385434 0.328423 0.656882
Si Si3 0.386550 0.935113 0.152517
Si Si4 0.750000 0.550289 0.750000
O O1 0.686122 0.500000 0.500000
O O2 0.663512 0.369521 0.558805
O O3 0.829447 0.423509 0.540314
O O4 0.724290 0.407764 0.357907
O O5 0.500000 0.328616 0.640194
O O6 0.352575 0.250000 0.663727
O O7 0.368343 0.370570 0.768033
O O8 0.500000 0.944522 0.138541
O O9 0.335998 0.999601 0.212068
#
# Coordination Sequence:
#
# PCOD9536141 Si02
#       4
#    16  16  16   8
#     4  10  19  34  51  77 107 139 174 217 256 315
#     4  10  20  34  55  81 105 135 175 221 269 309
#     4  10  19  33  52  78 106 134 173 221 264 305
#     4  10  20  34  50  78 106 140 180 208 258 320
#
# _framework density 16.78032
#
# number of rings (size 3 to 8) (size 9 to 14) (size 15 to 20)
#    0.000    2.000    5.714    0.000    0.000    9.143 
#    0.000    0.714    0.000    0.000    0.000    4.000 
#    0.000    0.000    0.000    0.000    0.000    0.000 
#
# Total GULP energy -156140.967567 kJ/mol
# GULP energy per Si atom -5576.463127 kJ/mol
# Density = 1.674213 g / cm^3
# Si number density = 16.780320 Si / 1000 Ang^3
#
#
#
# Elastic Constant Matrix: (Units=GPa)
#
#
# Indices 1 2 3 4 5 6 
#
# 1 62.0709 17.0755 21.5223 0.0000 0.0000 0.0000
# 2 17.0755 69.5844 18.5005 0.0000 0.0000 0.0000
# 3 21.5223 18.5005 127.0497 0.0000 0.0000 0.0000
# 4 0.0000 0.0000 0.0000 14.3417 0.0000 0.0000
# 5 0.0000 0.0000 0.0000 0.0000 12.6880 0.0000
# 6 0.0000 0.0000 0.0000 0.0000 0.0000 23.2902
#
#
#
# Elastic Compliance Matrix: (Units=1/GPa)
#
#
# Indices 1 2 3 4 5 6 
#
# 1 0.018012 -0.003754 -0.002505 0.000000 0.000000 0.000000
# 2 -0.003754 0.015732 -0.001655 0.000000 0.000000 0.000000
# 3 -0.002505 -0.001655 0.008536 0.000000 0.000000 0.000000
# 4 0.000000 0.000000 0.000000 0.069727 0.000000 0.000000
# 5 0.000000 0.000000 0.000000 0.000000 0.078815 0.000000
# 6 0.000000 0.000000 0.000000 0.000000 0.000000 0.042937
#
#
# Mechanical properties :
#
#
# Convention : Reuss Voigt Hill
#
# Bulk Modulus (GPa) = 37.80275 41.43352 39.61814
# Shear Modulus (GPa) = 19.34960 23.50441 21.42700
#
# Velocity S-wave (km/s) = 3.39944 3.74667 3.57727
# Velocity P-wave (km/s) = 6.16321 6.59258 6.38150
#
# Compressibility (1/GPa) = 0.02645310
#
# Stress axis : x y z
#
# Youngs Moduli (GPa) = 55.51929 63.56369 117.14820
#
# Poissons Ratio (x) = 0.23862 0.29340
# Poissons Ratio (y) = 0.20842 0.19387
# Poissons Ratio (z) = 0.13905 0.10519
#
# Static dielectric constant tensor:
#      x y z
#    x 1.581980 0.000000 0.000000 
#    y 0.000000 1.564400 0.000000 
#    z 0.000000 0.000000 1.577710 
# 
# From -- ./inp_files/19786.got.cif
#   From: 2010.05.17/outbox.cif.g08.bks.cpg/sg74_10_cif.got.tgz:19786.got - 2010.06.03 17:57:02.
