data_PCOD9536093
_publ_section_title
;
Structure prediction by ZEFSAII (Michael W. Deem and Ramdas Pophale) SiO2 
 PCOD9536093
Probable space group: I M M A
;
_chemical_formula_sum "Si O2"
_cell_formula_units_Z 116
_cell_length_a 8.109498
_cell_length_b 27.040021
_cell_length_c 28.541061
_cell_angle_alpha 90.000000
_cell_angle_beta 90.000000
_cell_angle_gamma 90.000000
_cell_volume 6258.512289
_symmetry_space_group_name_H-M "I M M A"
_symmetry_group_IT_number 74
_symmetry_cell_setting 'orthorhombic'
loop_
_space_group_symop_operation_xyz
x,y,z
-x,1/2-y,z
x,-y,-z
-x,1/2+y,-z
-x,-y,-z
x,1/2+y,-z
-x,y,z
x,1/2-y,z
1/2+x,1/2+y,1/2+z
1/2-x,-y,1/2+z
1/2+x,1/2-y,1/2-z
1/2-x,y,1/2-z
1/2-x,1/2-y,1/2-z
1/2+x,y,1/2-z
1/2-x,1/2+y,1/2+z
1/2+x,-y,1/2+z
loop_
_atom_site_type_symbol
_atom_site_label
_atom_site_fract_x
_atom_site_fract_y
_atom_site_fract_z
Si Si1 0.695036 0.095171 0.651338
Si Si2 0.697481 0.460929 0.560352
Si Si3 0.808894 0.439847 0.392989
Si Si4 0.695923 0.803516 0.195983
Si Si5 0.315935 0.803546 0.045671
Si Si6 0.193687 0.610654 0.980961
Si Si7 0.803931 0.507083 0.697221
Si Si8 0.000000 0.750000 0.082003
O O1 0.500000 0.094631 0.655963
O O2 0.736165 0.082566 0.597622
O O3 0.755328 0.147835 0.668463
O O4 0.758347 0.048781 0.681881
O O5 0.500000 0.471735 0.562592
O O6 0.791563 0.508345 0.579073
O O7 0.735705 0.439454 0.509680
O O8 0.727337 0.399313 0.426530
O O9 0.736805 0.454668 0.342071
O O10 0.000000 0.426694 0.388067
O O11 0.500000 0.800603 0.194930
O O12 0.765319 0.750000 0.179164
O O13 0.750000 0.808901 0.250000
O O14 0.500000 0.809927 0.068564
O O15 0.323559 0.750000 0.020534
O O16 0.287560 0.845750 0.007480
O O17 0.150690 0.793327 0.076974
O O18 0.000000 0.619373 0.988058
O O19 0.750000 0.516759 0.750000
O O20 0.000000 0.510364 0.694751
#
# Coordination Sequence:
#
# PCOD9536093 Si02
#       8
#    16  16  16  16  16  16  16   4
#     4  10  19  33  50  68  90 120 158 196 241 295
#     4   9  20  34  48  67  94 130 167 202 240 290
#     4  10  21  33  47  72 100 126 162 205 245 292
#     4  10  20  33  49  68  89 115 149 197 251 303
#     4   9  17  30  49  72  97 128 167 208 247 291
#     4  11  19  32  51  71  99 135 169 205 247 292
#     4  10  20  34  51  70  95 124 156 196 240 288
#     4   8  14  32  48  70  98 128 160 216 244 290
#
# _framework density 18.534756000000002
#
# number of rings (size 3 to 8) (size 9 to 14) (size 15 to 20)
#    0.414    1.793    0.690    2.897    0.000    5.793 
#    0.000    0.690    0.000    4.138    0.000    0.000 
#    0.000    0.552    0.000    3.034    0.000    5.241 
#
# Total GULP energy -322945.784349 kJ/mol
# GULP energy per Si atom -5568.030765 kJ/mol
# Density = 1.849257 g / cm^3
# Si number density = 18.534756 Si / 1000 Ang^3
#
#
#
# Elastic Constant Matrix: (Units=GPa)
#
#
# Indices 1 2 3 4 5 6 
#
# 1 61.9367 11.4875 19.8184 0.0000 0.0000 0.0000
# 2 11.4875 30.9193 17.4037 0.0000 0.0000 0.0000
# 3 19.8184 17.4037 102.4275 0.0000 0.0000 0.0000
# 4 0.0000 0.0000 0.0000 11.6102 0.0000 0.0000
# 5 0.0000 0.0000 0.0000 0.0000 5.6440 0.0000
# 6 0.0000 0.0000 0.0000 0.0000 0.0000 28.5772
#
#
#
# Elastic Compliance Matrix: (Units=1/GPa)
#
#
# Indices 1 2 3 4 5 6 
#
# 1 0.017939 -0.005209 -0.002586 0.000000 0.000000 0.000000
# 2 -0.005209 0.037275 -0.005326 0.000000 0.000000 0.000000
# 3 -0.002586 -0.005326 0.011168 0.000000 0.000000 0.000000
# 4 0.000000 0.000000 0.000000 0.086131 0.000000 0.000000
# 5 0.000000 0.000000 0.000000 0.000000 0.177181 0.000000
# 6 0.000000 0.000000 0.000000 0.000000 0.000000 0.034993
#
#
# Mechanical properties :
#
#
# Convention : Reuss Voigt Hill
#
# Bulk Modulus (GPa) = 24.91223 32.52253 28.71738
# Shear Modulus (GPa) = 12.36678 18.93788 15.65233
#
# Velocity S-wave (km/s) = 2.58586 3.19995 2.90916
# Velocity P-wave (km/s) = 4.73134 5.58908 5.17800
#
# Compressibility (1/GPa) = 0.04014093
#
# Stress axis : x y z
#
# Youngs Moduli (GPa) = 55.74408 26.82740 89.53989
#
# Poissons Ratio (x) = 0.13976 0.23154
# Poissons Ratio (y) = 0.29040 0.47685
# Poissons Ratio (z) = 0.14415 0.14287
#
# Static dielectric constant tensor:
#      x y z
#    x 1.670830 0.000000 0.000000 
#    y 0.000000 1.693040 0.000000 
#    z 0.000000 0.000000 1.687520 
# 
# From -- ./inp_files/65062.got.cif
#   From: 2010.05.17/outbox.cif.g08.bks.cpg/sg74_33_cif.got.tgz:65062.got - 2010.06.03 17:57:02.
