data_PCOD9536997
_publ_section_title
;
Structure prediction by ZEFSAII (Michael W. Deem and Ramdas Pophale) SiO2 
 PCOD9536997
Probable space group: I M M A
;
_chemical_formula_sum "Si O2"
_cell_formula_units_Z 80
_cell_length_a 8.966057
_cell_length_b 29.883947
_cell_length_c 14.687782
_cell_angle_alpha 90.000000
_cell_angle_beta 90.000000
_cell_angle_gamma 90.000000
_cell_volume 3935.461526
_symmetry_space_group_name_H-M "I M M A"
_symmetry_group_IT_number 74
_symmetry_cell_setting 'orthorhombic'
loop_
_space_group_symop_operation_xyz
x,y,z
-x,1/2-y,z
x,-y,-z
-x,1/2+y,-z
-x,-y,-z
x,1/2+y,-z
-x,y,z
x,1/2-y,z
1/2+x,1/2+y,1/2+z
1/2-x,-y,1/2+z
1/2+x,1/2-y,1/2-z
1/2-x,y,1/2-z
1/2-x,1/2-y,1/2-z
1/2+x,y,1/2-z
1/2-x,1/2+y,1/2+z
1/2+x,-y,1/2+z
loop_
_atom_site_type_symbol
_atom_site_label
_atom_site_fract_x
_atom_site_fract_y
_atom_site_fract_z
Si Si1 0.332786 0.802867 0.160835
Si Si2 0.823383 0.929134 0.342277
Si Si3 0.821893 0.198950 0.032567
Si Si4 0.831395 0.018328 0.103454
Si Si5 0.178773 0.392802 0.455886
O O1 0.500000 0.822022 0.146355
O O2 0.352884 0.750000 0.175683
O O3 0.250000 0.819769 0.250000
O O4 0.230289 0.805268 0.072256
O O5 0.750000 0.911687 0.250000
O O6 0.783885 0.903476 0.436777
O O7 0.000000 0.928552 0.333914
O O8 0.767104 0.980104 0.351144
O O9 0.779665 0.250000 0.062106
O O10 0.741566 0.155500 0.074448
O O11 0.000000 0.195045 0.040313
O O12 0.000000 0.020589 0.140352
O O13 0.754048 0.066587 0.099183
O O14 0.841847 0.000000 0.000000
O O15 0.000000 0.394086 0.447920
#
# Coordination Sequence:
#
# PCOD9536997 Si02
#       5
#    16  16  16  16  16
#     4   9  16  26  39  53  71  99 137 181 228 273
#     4  10  20  33  50  73  99 126 158 197 240 287
#     4  10  20  32  45  62  86 118 158 202 242 280
#     4   9  17  31  51  72  95 124 156 192 238 291
#     4  10  20  33  49  69  95 128 164 201 242 289
#
# _framework density 20.327985000000002
#
# number of rings (size 3 to 8) (size 9 to 14) (size 15 to 20)
#    0.000    2.400    0.000    3.000    0.000    9.200 
#    0.000    2.000    0.000    0.000    0.000    0.000 
#    0.000    0.800    0.000    3.000    0.000    4.600 
#
# Total GULP energy -223097.098713 kJ/mol
# GULP energy per Si atom -5577.427468 kJ/mol
# Density = 2.028172 g / cm^3
# Si number density = 20.327985 Si / 1000 Ang^3
#
#
#
# Elastic Constant Matrix: (Units=GPa)
#
#
# Indices 1 2 3 4 5 6 
#
# 1 93.8477 65.8941 3.6810 0.0000 0.0000 0.0000
# 2 65.8941 211.6494 8.4694 0.0000 0.0000 0.0000
# 3 3.6810 8.4694 5.8755 -0.0003 0.0000 0.0000
# 4 0.0000 0.0000 -0.0003 -19.0758 0.0000 0.0000
# 5 0.0000 0.0000 0.0000 0.0000 15.8544 0.0000
# 6 0.0000 0.0000 0.0000 0.0000 0.0000 16.4862
#
#
#
# Elastic Compliance Matrix: (Units=1/GPa)
#
#
# Indices 1 2 3 4 5 6 
#
# 1 0.013673 -0.004154 -0.002579 0.000000 0.000000 0.000000
# 2 -0.004154 0.006276 -0.006444 0.000000 0.000000 0.000000
# 3 -0.002579 -0.006444 0.181104 -0.000003 0.000000 0.000000
# 4 0.000000 0.000000 -0.000003 -0.052422 0.000000 0.000000
# 5 0.000000 0.000000 0.000000 0.000000 0.063074 0.000000
# 6 0.000000 0.000000 0.000000 0.000000 0.000000 0.060657
#
#
# Mechanical properties :
#
#
# Convention : Reuss Voigt Hill
#
# Bulk Modulus (GPa) = 5.72410 51.94018 28.83214
# Shear Modulus (GPa) = 14.00762 18.20817 16.10789
#
# Velocity S-wave (km/s) = 2.62788 2.99610 2.81801
# Velocity P-wave (km/s) = 3.46838 6.12988 4.98021
#
# Compressibility (1/GPa) = 0.17470003
#
# Stress axis : x y z
#
# Youngs Moduli (GPa) = 73.13558 159.33988 5.52168
#
# Poissons Ratio (x) = 0.66186 0.01424
# Poissons Ratio (y) = 0.30379 0.03558
# Poissons Ratio (z) = 0.18859 1.02683
#
# Static dielectric constant tensor:
#      x y z
#    x 1.681480 0.000000 0.000000 
#    y 0.000000 1.781990 0.000000 
#    z 0.000000 0.000000 1.722580 
# 
# From -- ./inp_files/39970.got.cif
#   From: 2010.05.17/outbox.cif.g08.bks.cpg/sg74_20_cif.got.tgz:39970.got - 2010.06.03 17:57:02.
