data_PCOD9536142
_publ_section_title
;
Structure prediction by ZEFSAII (Michael W. Deem and Ramdas Pophale) SiO2 
 PCOD9536142
Probable space group: I M M A
;
_chemical_formula_sum "Si O2"
_cell_formula_units_Z 116
_cell_length_a 7.938094
_cell_length_b 27.226995
_cell_length_c 27.672638
_cell_angle_alpha 90.000000
_cell_angle_beta 90.000000
_cell_angle_gamma 90.000000
_cell_volume 5980.899583
_symmetry_space_group_name_H-M "I M M A"
_symmetry_group_IT_number 74
_symmetry_cell_setting 'orthorhombic'
loop_
_space_group_symop_operation_xyz
x,y,z
-x,1/2-y,z
x,-y,-z
-x,1/2+y,-z
-x,-y,-z
x,1/2+y,-z
-x,y,z
x,1/2-y,z
1/2+x,1/2+y,1/2+z
1/2-x,-y,1/2+z
1/2+x,1/2-y,1/2-z
1/2-x,y,1/2-z
1/2-x,1/2-y,1/2-z
1/2+x,y,1/2-z
1/2-x,1/2+y,1/2+z
1/2+x,-y,1/2+z
loop_
_atom_site_type_symbol
_atom_site_label
_atom_site_fract_x
_atom_site_fract_y
_atom_site_fract_z
Si Si1 0.304338 0.323039 0.815911
Si Si2 0.296192 0.805329 0.070455
Si Si3 0.694829 0.466672 0.199195
Si Si4 0.803975 0.425804 0.828325
Si Si5 0.698490 0.067898 0.400388
Si Si6 0.703770 0.961290 0.433053
Si Si7 0.500000 0.750000 0.288070
Si Si8 0.696894 0.117118 0.007529
O O1 0.500000 0.305451 0.808342
O O2 0.264783 0.318627 0.873669
O O3 0.295573 0.381024 0.804778
O O4 0.152204 0.292512 0.792386
O O5 0.500000 0.805499 0.066498
O O6 0.234663 0.750000 0.062539
O O7 0.230350 0.842294 0.029498
O O8 0.500000 0.478973 0.200830
O O9 0.750000 0.444385 0.250000
O O10 0.786283 0.519321 0.192528
O O11 0.726767 0.432033 0.153188
O O12 0.749552 0.432101 0.884316
O O13 0.000000 0.412329 0.827483
O O14 0.500000 0.062161 0.393832
O O15 0.730083 0.110480 0.438994
O O16 0.761729 0.016797 0.424167
O O17 0.500000 0.961393 0.437622
O O18 0.776514 0.933627 0.478677
O O19 0.500000 0.126587 0.013346
#
# Coordination Sequence:
#
# PCOD9536142 Si02
#       8
#    16  16  16  16  16  16   4  16
#     4  11  20  33  50  72 104 139 180 228 273 319
#     4   9  18  32  47  66  99 140 184 225 264 309
#     4  11  22  38  59  81 105 132 166 211 263 318
#     4  10  19  33  52  78 107 136 172 217 265 315
#     4  10  21  36  49  70 101 136 171 211 257 313
#     4   9  18  30  46  65  98 139 173 207 253 304
#     4  12  22  32  48  74 102 138 184 232 280 314
#     4  11  20  29  46  70  99 137 179 216 257 305
#
# _framework density 19.395076
#
# number of rings (size 3 to 8) (size 9 to 14) (size 15 to 20)
#    0.000    1.793    2.759    3.931    0.000    4.414 
#    1.241    0.000    0.000    0.000    0.000    0.483 
#    0.000    0.552    0.000    1.517    0.000    2.207 
#
# Total GULP energy -323419.588627 kJ/mol
# GULP energy per Si atom -5576.199804 kJ/mol
# Density = 1.935093 g / cm^3
# Si number density = 19.395076 Si / 1000 Ang^3
#
#
#
# Elastic Constant Matrix: (Units=GPa)
#
#
# Indices 1 2 3 4 5 6 
#
# 1 73.1295 12.2195 21.0612 0.0000 0.0000 0.0000
# 2 12.2195 41.5429 39.3760 0.0000 0.0000 0.0000
# 3 21.0612 39.3760 127.1981 0.0000 0.0000 0.0000
# 4 0.0000 0.0000 0.0000 -2.3567 0.0000 0.0000
# 5 0.0000 0.0000 0.0000 0.0000 26.2923 0.0000
# 6 0.0000 0.0000 0.0000 0.0000 0.0000 -19.4593
#
#
#
# Elastic Compliance Matrix: (Units=1/GPa)
#
#
# Indices 1 2 3 4 5 6 
#
# 1 0.014591 -0.002833 -0.001539 0.000000 0.000000 0.000000
# 2 -0.002833 0.034618 -0.010247 0.000000 0.000000 0.000000
# 3 -0.001539 -0.010247 0.011289 0.000000 0.000000 0.000000
# 4 0.000000 0.000000 0.000000 -0.424313 0.000000 0.000000
# 5 0.000000 0.000000 0.000000 0.000000 0.038034 0.000000
# 6 0.000000 0.000000 0.000000 0.000000 0.000000 -0.051389
#
#
# Mechanical properties :
#
#
# Convention : Reuss Voigt Hill
#
# Bulk Modulus (GPa) = 31.99115 43.02045 37.50580
# Shear Modulus (GPa) = -14.81424 12.17617 -1.31904
#
# Velocity S-wave (km/s) = -2.76672 2.50831 -0.82557
# Velocity P-wave (km/s) = 2.51475 5.53336 4.29779
#
# Compressibility (1/GPa) = 0.03125865
#
# Stress axis : x y z
#
# Youngs Moduli (GPa) = 68.53543 28.88697 88.58374
#
# Poissons Ratio (x) = 0.08184 0.13632
# Poissons Ratio (y) = 0.19418 0.90774
# Poissons Ratio (z) = 0.10547 0.29601
#
# Static dielectric constant tensor:
#      x y z
#    x 1.687980 0.000000 0.000000 
#    y 0.000000 1.694970 0.000000 
#    z 0.000000 0.000000 1.742090 
# 
# From -- ./inp_files/65314.got.cif
#   From: 2010.05.17/outbox.cif.g08.bks.cpg/sg74_33_cif.got.tgz:65314.got - 2010.06.03 17:57:02.
