data_PCOD9536914
_publ_section_title
;
Structure prediction by ZEFSAII (Michael W. Deem and Ramdas Pophale) SiO2 
 PCOD9536914
Probable space group: I M M A
;
_chemical_formula_sum "Si O2"
_cell_formula_units_Z 104
_cell_length_a 8.244184
_cell_length_b 20.095347
_cell_length_c 25.719972
_cell_angle_alpha 90.000000
_cell_angle_beta 90.000000
_cell_angle_gamma 90.000000
_cell_volume 4261.021028
_symmetry_space_group_name_H-M "I M M A"
_symmetry_group_IT_number 74
_symmetry_cell_setting 'orthorhombic'
loop_
_space_group_symop_operation_xyz
x,y,z
-x,1/2-y,z
x,-y,-z
-x,1/2+y,-z
-x,-y,-z
x,1/2+y,-z
-x,y,z
x,1/2-y,z
1/2+x,1/2+y,1/2+z
1/2-x,-y,1/2+z
1/2+x,1/2-y,1/2-z
1/2-x,y,1/2-z
1/2-x,1/2-y,1/2-z
1/2+x,y,1/2-z
1/2-x,1/2+y,1/2+z
1/2+x,-y,1/2+z
loop_
_atom_site_type_symbol
_atom_site_label
_atom_site_fract_x
_atom_site_fract_y
_atom_site_fract_z
Si Si1 0.324129 0.651731 0.445741
Si Si2 0.000000 0.009313 0.559801
Si Si3 0.310191 0.176370 0.676741
Si Si4 0.500000 0.331382 0.117705
Si Si5 0.833600 0.001244 0.909203
Si Si6 0.500000 0.352965 0.993579
Si Si7 0.809611 0.669252 0.808590
Si Si8 0.813643 0.462878 0.695725
O O1 0.500000 0.673492 0.464900
O O2 0.304997 0.673756 0.386048
O O3 0.332443 0.570746 0.441288
O O4 0.175280 0.675198 0.479798
O O5 0.159937 0.973896 0.578735
O O6 0.000000 0.090132 0.556580
O O7 0.000000 0.000000 0.500000
O O8 0.500000 0.164769 0.690730
O O9 0.260952 0.250000 0.692885
O O10 0.198286 0.117278 0.696556
O O11 0.500000 0.250000 0.117118
O O12 0.500000 0.353557 0.056810
O O13 0.665378 0.351013 0.150654
O O14 0.813769 0.018140 0.848794
O O15 0.000000 0.965032 0.920963
O O16 0.814290 0.750000 0.810243
O O17 0.750000 0.650998 0.750000
O O18 0.000000 0.647019 0.817311
O O19 0.750000 0.489514 0.750000
O O20 0.000000 0.481300 0.683672
#
# Coordination Sequence:
#
# PCOD9536914 Si02
#       8
#    16   8  16   8  16   8  16  16
#     4   8  16  30  47  63  87 127 165 203 249 299
#     4  10  20  36  58  82 104 134 170 209 260 308
#     4   9  18  31  44  61  87 127 180 226 262 305
#     4  10  20  30  42  70 104 132 168 207 242 283
#     4   9  17  33  53  76 103 126 159 205 250 307
#     4  10  20  32  48  72 104 132 164 208 254 299
#     4   9  15  26  45  66  92 126 164 204 238 275
#     4  11  20  31  47  70  99 132 170 215 266 314
#
# _framework density 24.407295000000001
#
# number of rings (size 3 to 8) (size 9 to 14) (size 15 to 20)
#    0.000    2.615    1.538    2.308    3.231    2.154 
#    0.000    0.000    0.000    0.000    0.000    1.077 
#    0.000    0.000    0.000    0.000    0.000    0.000 
#
# Total GULP energy -289772.210753 kJ/mol
# GULP energy per Si atom -5572.542514 kJ/mol
# Density = 2.435174 g / cm^3
# Si number density = 24.407295 Si / 1000 Ang^3
#
#
#
# Elastic Constant Matrix: (Units=GPa)
#
#
# Indices 1 2 3 4 5 6 
#
# 1 257.0516 17.8206 92.7552 0.0000 0.0000 0.0000
# 2 17.8206 55.1388 6.6124 0.0000 0.0000 0.0000
# 3 92.7552 6.6124 115.2211 0.0000 0.0000 0.0000
# 4 0.0000 0.0000 0.0000 48.7527 0.0000 0.0000
# 5 0.0000 0.0000 0.0000 0.0000 34.9302 0.0000
# 6 0.0000 0.0000 0.0000 0.0000 0.0000 -109.3845
#
#
#
# Elastic Compliance Matrix: (Units=1/GPa)
#
#
# Indices 1 2 3 4 5 6 
#
# 1 0.005570 -0.001271 -0.004411 0.000000 0.000000 0.000000
# 2 -0.001271 0.018552 -0.000041 0.000000 0.000000 0.000000
# 3 -0.004411 -0.000041 0.012232 0.000000 0.000000 0.000000
# 4 0.000000 0.000000 0.000000 0.020512 0.000000 0.000000
# 5 0.000000 0.000000 0.000000 0.000000 0.028629 0.000000
# 6 0.000000 0.000000 0.000000 0.000000 0.000000 -0.009142
#
#
# Mechanical properties :
#
#
# Convention : Reuss Voigt Hill
#
# Bulk Modulus (GPa) = 40.14924 73.53200 56.84062
# Shear Modulus (GPa) = 52.02800 15.54123 33.78461
#
# Velocity S-wave (km/s) = 4.62200 2.52612 3.72452
# Velocity P-wave (km/s) = 6.70591 6.22100 6.46800
#
# Compressibility (1/GPa) = 0.02490707
#
# Stress axis : x y z
#
# Youngs Moduli (GPa) = 179.52958 53.90292 81.75046
#
# Poissons Ratio (x) = 0.06852 0.36061
# Poissons Ratio (y) = 0.22823 0.00338
# Poissons Ratio (z) = 0.79192 0.00223
#
# Static dielectric constant tensor:
#      x y z
#    x 1.970610 0.000000 0.000000 
#    y 0.000000 1.971040 0.000000 
#    z 0.000000 0.000000 1.925200 
# 
# From -- ./inp_files/57655.got.cif
#   From: 2010.05.17/outbox.cif.g08.bks.cpg/sg74_29_cif.got.tgz:57655.got - 2010.06.03 17:57:02.
