data_PCOD9536893
_publ_section_title
;
Structure prediction by ZEFSAII (Michael W. Deem and Ramdas Pophale) SiO2 
 PCOD9536893
Probable space group: I M M A
;
_chemical_formula_sum "Si O2"
_cell_formula_units_Z 120
_cell_length_a 20.512745
_cell_length_b 20.052234
_cell_length_c 15.943213
_cell_angle_alpha 90.000000
_cell_angle_beta 90.000000
_cell_angle_gamma 90.000000
_cell_volume 6557.863813
_symmetry_space_group_name_H-M "I M M A"
_symmetry_group_IT_number 74
_symmetry_cell_setting 'orthorhombic'
loop_
_space_group_symop_operation_xyz
x,y,z
-x,1/2-y,z
x,-y,-z
-x,1/2+y,-z
-x,-y,-z
x,1/2+y,-z
-x,y,z
x,1/2-y,z
1/2+x,1/2+y,1/2+z
1/2-x,-y,1/2+z
1/2+x,1/2-y,1/2-z
1/2-x,y,1/2-z
1/2-x,1/2-y,1/2-z
1/2+x,y,1/2-z
1/2-x,1/2+y,1/2+z
1/2+x,-y,1/2+z
loop_
_atom_site_type_symbol
_atom_site_label
_atom_site_fract_x
_atom_site_fract_y
_atom_site_fract_z
Si Si1 0.822173 0.042531 0.624724
Si Si2 0.925170 0.457581 0.773458
Si Si3 0.076599 0.902426 0.847809
Si Si4 0.183974 0.102430 0.445852
Si Si5 0.323099 0.172408 0.467230
Si Si6 0.750000 0.869192 0.250000
Si Si7 0.372495 0.676684 0.342020
Si Si8 0.075295 0.829559 0.668422
O O1 0.880950 0.041034 0.690857
O O2 0.838326 0.081142 0.539112
O O3 0.765744 0.082794 0.672020
O O4 0.802980 0.967350 0.601784
O O5 0.906881 0.519941 0.832427
O O6 0.915805 0.387106 0.819525
O O7 0.000000 0.467917 0.749785
O O8 0.124348 0.868810 0.914012
O O9 0.084292 0.865313 0.758240
O O10 0.000000 0.896910 0.871954
O O11 0.250897 0.143364 0.453168
O O12 0.127760 0.141608 0.396470
O O13 0.324672 0.250000 0.441615
O O14 0.343108 0.169443 0.564903
O O15 0.687349 0.827336 0.276152
O O16 0.403851 0.750000 0.336114
O O17 0.083250 0.750000 0.677530
O O18 0.000000 0.842423 0.642140
#
# Coordination Sequence:
#
# PCOD9536893 Si02
#       8
#    16  16  16  16  16   8  16  16
#     4  10  22  35  61  89 119 156 196 248 306 352
#     4  10  22  41  63  89 119 157 207 256 302 365
#     4  10  22  41  63  87 120 164 210 251 305 369
#     4  11  22  37  58  95 124 157 201 255 302 360
#     4  11  24  39  59  91 128 161 201 254 307 364
#     4  10  19  40  58  84 111 158 194 234 293 362
#     4  10  22  39  61  86 117 159 199 248 310 364
#     4  10  21  39  61  85 121 168 209 250 305 366
#
# _framework density 18.298642000000001
#
# number of rings (size 3 to 8) (size 9 to 14) (size 15 to 20)
#    0.000    1.733    2.667    1.000    3.733    3.200 
#    0.000    6.000    0.000    0.000    0.000    0.000 
#    0.000    0.000    0.000    0.000    0.000    0.000 
#
# Total GULP energy -334941.418550 kJ/mol
# GULP energy per Si atom -5582.356976 kJ/mol
# Density = 1.825699 g / cm^3
# Si number density = 18.298642 Si / 1000 Ang^3
#
#
#
# Elastic Constant Matrix: (Units=GPa)
#
#
# Indices 1 2 3 4 5 6 
#
# 1 52.2507 35.8582 20.9240 0.0000 0.0000 0.0000
# 2 35.8582 139.1179 46.6440 0.0000 0.0000 0.0000
# 3 20.9240 46.6440 62.0580 0.0000 0.0000 0.0000
# 4 0.0000 0.0000 0.0000 23.4282 0.0000 0.0000
# 5 0.0000 0.0000 0.0000 0.0000 13.7462 0.0000
# 6 0.0000 0.0000 0.0000 0.0000 0.0000 21.6131
#
#
#
# Elastic Compliance Matrix: (Units=1/GPa)
#
#
# Indices 1 2 3 4 5 6 
#
# 1 0.024212 -0.004684 -0.004643 0.000000 0.000000 0.000000
# 2 -0.004684 0.010516 -0.006325 0.000000 0.000000 0.000000
# 3 -0.004643 -0.006325 0.022433 0.000000 0.000000 0.000000
# 4 0.000000 0.000000 0.000000 0.042684 0.000000 0.000000
# 5 0.000000 0.000000 0.000000 0.000000 0.072748 0.000000
# 6 0.000000 0.000000 0.000000 0.000000 0.000000 0.046268
#
#
# Mechanical properties :
#
#
# Convention : Reuss Voigt Hill
#
# Bulk Modulus (GPa) = 38.67278 51.14211 44.90745
# Shear Modulus (GPa) = 19.32111 21.75750 20.53930
#
# Velocity S-wave (km/s) = 3.25295 3.45196 3.35393
# Velocity P-wave (km/s) = 5.94046 6.62550 6.29231
#
# Compressibility (1/GPa) = 0.02585798
#
# Stress axis : x y z
#
# Youngs Moduli (GPa) = 41.30117 95.09238 44.57667
#
# Poissons Ratio (x) = 0.44542 0.20697
# Poissons Ratio (y) = 0.19346 0.28194
# Poissons Ratio (z) = 0.19176 0.60144
#
# Static dielectric constant tensor:
#      x y z
#    x 1.605860 0.000000 0.000000 
#    y 0.000000 1.641640 0.000000 
#    z 0.000000 0.000000 1.607550 
# 
# From -- ./inp_files/35719.got.cif
#   From: 2010.05.17/outbox.cif.g08.bks.cpg/sg74_18_cif.got.tgz:35719.got - 2010.06.03 17:57:02.
