data_PCOD9536617
_publ_section_title
;
Structure prediction by ZEFSAII (Michael W. Deem and Ramdas Pophale) SiO2 
 PCOD9536617
Probable space group: I M M A
;
_chemical_formula_sum "Si O2"
_cell_formula_units_Z 112
_cell_length_a 17.998762
_cell_length_b 18.328862
_cell_length_c 18.921982
_cell_angle_alpha 90.000000
_cell_angle_beta 90.000000
_cell_angle_gamma 90.000000
_cell_volume 6242.301782
_symmetry_space_group_name_H-M "I M M A"
_symmetry_group_IT_number 74
_symmetry_cell_setting 'orthorhombic'
loop_
_space_group_symop_operation_xyz
x,y,z
-x,1/2-y,z
x,-y,-z
-x,1/2+y,-z
-x,-y,-z
x,1/2+y,-z
-x,y,z
x,1/2-y,z
1/2+x,1/2+y,1/2+z
1/2-x,-y,1/2+z
1/2+x,1/2-y,1/2-z
1/2-x,y,1/2-z
1/2-x,1/2-y,1/2-z
1/2+x,y,1/2-z
1/2-x,1/2+y,1/2+z
1/2+x,-y,1/2+z
loop_
_atom_site_type_symbol
_atom_site_label
_atom_site_fract_x
_atom_site_fract_y
_atom_site_fract_z
Si Si1 0.713409 0.021910 0.417357
Si Si2 0.664921 0.666064 0.755052
Si Si3 0.198159 0.166189 0.413062
Si Si4 0.418675 0.165431 0.844332
Si Si5 0.183285 0.948901 0.304342
Si Si6 0.917151 0.914706 0.492050
Si Si7 0.412682 0.466427 0.303584
O O1 0.735583 0.107408 0.412069
O O2 0.639276 0.009458 0.369909
O O3 0.706805 0.000000 0.500000
O O4 0.781067 0.978942 0.377343
O O5 0.665849 0.750000 0.731266
O O6 0.750000 0.637073 0.750000
O O7 0.653606 0.663562 0.839015
O O8 0.608225 0.617634 0.711875
O O9 0.221557 0.250000 0.423811
O O10 0.142299 0.136587 0.471411
O O11 0.500000 0.159233 0.808367
O O12 0.410023 0.250000 0.864329
O O13 0.348276 0.132983 0.804633
O O14 0.421118 0.112322 0.911805
O O15 0.250000 0.955830 0.250000
O O16 0.116842 0.995338 0.268783
O O17 0.000000 0.905209 0.523073
O O18 0.898672 0.000000 0.500000
O O19 0.500000 0.478024 0.314444
#
# Coordination Sequence:
#
# PCOD9536617 Si02
#       7
#    16  16  16  16  16  16  16
#     4  11  22  38  58  83 111 146 191 236 281 333
#     4  10  19  35  56  80 112 147 187 229 274 330
#     4  11  20  32  55  80 110 147 182 228 279 329
#     4  10  20  34  52  76 109 143 174 217 274 330
#     4  10  20  37  58  81 106 140 185 232 280 332
#     4  10  21  34  49  74 110 148 181 216 265 329
#     4  11  22  37  58  82 113 150 188 232 283 339
#
# _framework density 17.9421
#
# number of rings (size 3 to 8) (size 9 to 14) (size 15 to 20)
#    0.000    1.571    2.857    3.429    0.000    2.286 
#    0.000    1.429    0.000    1.286    0.000    0.000 
#    0.000    0.000    0.000    0.000    0.000    0.000 
#
# Total GULP energy -312079.513564 kJ/mol
# GULP energy per Si atom -5572.848456 kJ/mol
# Density = 1.790126 g / cm^3
# Si number density = 17.942100 Si / 1000 Ang^3
#
#
#
# Elastic Constant Matrix: (Units=GPa)
#
#
# Indices 1 2 3 4 5 6 
#
# 1 106.1733 26.7125 28.3129 0.0000 0.0000 0.0000
# 2 26.7125 99.5491 10.4242 0.0000 0.0000 0.0000
# 3 28.3129 10.4242 70.7304 0.0000 0.0000 0.0000
# 4 0.0000 0.0000 0.0000 18.8823 0.0000 0.0000
# 5 0.0000 0.0000 0.0000 0.0000 11.4443 0.0000
# 6 0.0000 0.0000 0.0000 0.0000 0.0000 21.0805
#
#
#
# Elastic Compliance Matrix: (Units=1/GPa)
#
#
# Indices 1 2 3 4 5 6 
#
# 1 0.011154 -0.002565 -0.004087 0.000000 0.000000 0.000000
# 2 -0.002565 0.010793 -0.000564 0.000000 0.000000 0.000000
# 3 -0.004087 -0.000564 0.015857 0.000000 0.000000 0.000000
# 4 0.000000 0.000000 0.000000 0.052960 0.000000 0.000000
# 5 0.000000 0.000000 0.000000 0.000000 0.087380 0.000000
# 6 0.000000 0.000000 0.000000 0.000000 0.000000 0.047437
#
#
# Mechanical properties :
#
#
# Convention : Reuss Voigt Hill
#
# Bulk Modulus (GPa) = 42.78559 45.26131 44.02345
# Shear Modulus (GPa) = 20.17737 24.34829 22.26283
#
# Velocity S-wave (km/s) = 3.35712 3.68781 3.52634
# Velocity P-wave (km/s) = 6.23901 6.58896 6.41637
#
# Compressibility (1/GPa) = 0.02337236
#
# Stress axis : x y z
#
# Youngs Moduli (GPa) = 89.65637 92.65594 63.06288
#
# Poissons Ratio (x) = 0.23766 0.25772
# Poissons Ratio (y) = 0.22997 0.03556
# Poissons Ratio (z) = 0.36640 0.05224
#
# Static dielectric constant tensor:
#      x y z
#    x 1.648930 0.000000 0.000000 
#    y 0.000000 1.643940 0.000000 
#    z 0.000000 0.000000 1.683360 
# 
# From -- ./inp_files/53257.got.cif
#   From: 2010.05.17/outbox.cif.g08.bks.cpg/sg74_27_cif.got.tgz:53257.got - 2010.06.03 17:57:02.
