data_PCOD9536981
_publ_section_title
;
Structure prediction by ZEFSAII (Michael W. Deem and Ramdas Pophale) SiO2 
 PCOD9536981
Probable space group: I M M A
;
_chemical_formula_sum "Si O2"
_cell_formula_units_Z 88
_cell_length_a 9.082414
_cell_length_b 27.313196
_cell_length_c 27.699931
_cell_angle_alpha 90.000000
_cell_angle_beta 90.000000
_cell_angle_gamma 90.000000
_cell_volume 6871.515062
_symmetry_space_group_name_H-M "I M M A"
_symmetry_group_IT_number 74
_symmetry_cell_setting 'orthorhombic'
loop_
_space_group_symop_operation_xyz
x,y,z
-x,1/2-y,z
x,-y,-z
-x,1/2+y,-z
-x,-y,-z
x,1/2+y,-z
-x,y,z
x,1/2-y,z
1/2+x,1/2+y,1/2+z
1/2-x,-y,1/2+z
1/2+x,1/2-y,1/2-z
1/2-x,y,1/2-z
1/2-x,1/2-y,1/2-z
1/2+x,y,1/2-z
1/2-x,1/2+y,1/2+z
1/2+x,-y,1/2+z
loop_
_atom_site_type_symbol
_atom_site_label
_atom_site_fract_x
_atom_site_fract_y
_atom_site_fract_z
Si Si1 0.168912 0.449187 0.530911
Si Si2 0.823623 0.250000 0.197781
Si Si3 0.178146 0.147540 0.148231
Si Si4 0.169053 0.000389 0.113653
Si Si5 0.831599 0.601333 0.948627
Si Si6 0.176514 0.053599 0.301803
O O1 0.173040 0.500000 0.500000
O O2 0.264769 0.459410 0.578405
O O3 0.232960 0.408153 0.495218
O O4 0.000000 0.439828 0.543503
O O5 0.750000 0.250000 0.250000
O O6 0.785200 0.299338 0.168926
O O7 0.000000 0.250000 0.203862
O O8 0.215465 0.140612 0.091633
O O9 0.261153 0.105427 0.178109
O O10 0.000000 0.139633 0.152332
O O11 0.168815 0.050415 0.081777
O O12 0.267904 0.013188 0.159788
O O13 0.000000 0.990484 0.127132
O O14 0.000000 0.610813 0.963312
O O15 0.250000 0.044991 0.250000
O O16 0.000000 0.054858 0.298951
#
# Coordination Sequence:
#
# PCOD9536981 Si02
#       6
#    16   8  16  16  16  16
#     4   9  15  22  34  53  73  90 109 134 166 205
#     4  10  20  32  44  56  70  90 118 154 193 232
#     4   9  18  31  43  55  70  89 116 150 189 228
#     4   9  16  26  38  52  70  91 114 139 170 207
#     4   8  14  24  37  51  68  89 110 136 173 215
#     4  11  20  29  40  53  70  92 119 150 183 217
#
# _framework density 12.806490999999999
#
# number of rings (size 3 to 8) (size 9 to 14) (size 15 to 20)
#    0.000    2.727    0.000    4.364    0.000    8.727 
#    0.000    0.000    0.000    0.000    0.000    0.000 
#    0.000    0.000    0.000    0.000    0.000    0.000 
#
# Total GULP energy -245024.717715 kJ/mol
# GULP energy per Si atom -5568.743584 kJ/mol
# Density = 1.277734 g / cm^3
# Si number density = 12.806491 Si / 1000 Ang^3
#
#
#
# Elastic Constant Matrix: (Units=GPa)
#
#
# Indices 1 2 3 4 5 6 
#
# 1 79.3565 24.8653 50.3448 0.0000 0.0000 0.0000
# 2 24.8653 38.9058 44.2475 0.0000 0.0000 0.0000
# 3 50.3448 44.2475 86.4723 0.0000 0.0000 0.0000
# 4 0.0000 0.0000 0.0000 21.2441 0.0000 0.0000
# 5 0.0000 0.0000 0.0000 0.0000 23.4912 0.0000
# 6 0.0000 0.0000 0.0000 0.0000 0.0000 9.8948
#
#
#
# Elastic Compliance Matrix: (Units=1/GPa)
#
#
# Indices 1 2 3 4 5 6 
#
# 1 0.020002 0.001102 -0.012209 0.000000 0.000000 0.000000
# 2 0.001102 0.061544 -0.032133 0.000000 0.000000 0.000000
# 3 -0.012209 -0.032133 0.035115 0.000000 0.000000 0.000000
# 4 0.000000 0.000000 0.000000 0.047072 0.000000 0.000000
# 5 0.000000 0.000000 0.000000 0.000000 0.042569 0.000000
# 6 0.000000 0.000000 0.000000 0.000000 0.000000 0.101063
#
#
# Mechanical properties :
#
#
# Convention : Reuss Voigt Hill
#
# Bulk Modulus (GPa) = 33.13466 49.29442 41.21454
# Shear Modulus (GPa) = 12.37915 16.61116 14.49515
#
# Velocity S-wave (km/s) = 3.11244 3.60542 3.36796
# Velocity P-wave (km/s) = 6.23265 7.47712 6.88307
#
# Compressibility (1/GPa) = 0.03017988
#
# Stress axis : x y z
#
# Youngs Moduli (GPa) = 49.99601 16.24852 28.47791
#
# Poissons Ratio (x) = -0.01790 0.34768
# Poissons Ratio (y) = -0.05508 0.91509
# Poissons Ratio (z) = 0.61039 0.52212
#
# Static dielectric constant tensor:
#      x y z
#    x 1.431310 0.000000 0.000000 
#    y 0.000000 1.399130 0.000000 
#    z 0.000000 0.000000 1.420050 
# 
# From -- ./inp_files/49464.got.cif
#   From: 2010.05.17/outbox.cif.g08.bks.cpg/sg74_25_cif.got.tgz:49464.got - 2010.06.03 17:57:02.
