data_PCOD9536037
_publ_section_title
;
Structure prediction by ZEFSAII (Michael W. Deem and Ramdas Pophale) SiO2 
 PCOD9536037
Probable space group: I M M A
;
_chemical_formula_sum "Si O2"
_cell_formula_units_Z 116
_cell_length_a 9.757108
_cell_length_b 22.532613
_cell_length_c 29.406971
_cell_angle_alpha 90.000000
_cell_angle_beta 90.000000
_cell_angle_gamma 90.000000
_cell_volume 6465.214870
_symmetry_space_group_name_H-M "I M M A"
_symmetry_group_IT_number 74
_symmetry_cell_setting 'orthorhombic'
loop_
_space_group_symop_operation_xyz
x,y,z
-x,1/2-y,z
x,-y,-z
-x,1/2+y,-z
-x,-y,-z
x,1/2+y,-z
-x,y,z
x,1/2-y,z
1/2+x,1/2+y,1/2+z
1/2-x,-y,1/2+z
1/2+x,1/2-y,1/2-z
1/2-x,y,1/2-z
1/2-x,1/2-y,1/2-z
1/2+x,y,1/2-z
1/2-x,1/2+y,1/2+z
1/2+x,-y,1/2+z
loop_
_atom_site_type_symbol
_atom_site_label
_atom_site_fract_x
_atom_site_fract_y
_atom_site_fract_z
Si Si1 0.159727 0.971130 0.450065
Si Si2 0.153305 0.681947 0.145243
Si Si3 0.337498 0.099579 0.795548
Si Si4 0.157227 0.681540 0.942865
Si Si5 0.238996 0.838844 0.045570
Si Si6 0.660521 0.041078 0.206023
Si Si7 0.500000 0.750000 0.045128
Si Si8 0.834856 0.083698 0.392215
O O1 0.236094 0.909091 0.449797
O O2 0.000000 0.959105 0.439672
O O3 0.167497 0.000000 0.500000
O O4 0.208123 0.021437 0.415242
O O5 0.177921 0.750000 0.159928
O O6 0.268788 0.639044 0.165364
O O7 0.159733 0.680314 0.090728
O O8 0.000000 0.664082 0.160270
O O9 0.500000 0.111827 0.790434
O O10 0.250000 0.112209 0.750000
O O11 0.322246 0.029183 0.804896
O O12 0.192680 0.750000 0.932829
O O13 0.258521 0.636705 0.917590
O O14 0.000000 0.670615 0.929190
O O15 0.169208 0.673043 0.997168
O O16 0.379828 0.801772 0.045080
O O17 0.500000 0.049652 0.216214
O O18 0.750000 0.055134 0.250000
O O19 0.695223 0.078526 0.161230
O O20 0.000000 0.089029 0.398298
#
# Coordination Sequence:
#
# PCOD9536037 Si02
#       8
#    16  16  16  16  16  16   4  16
#     4  10  19  32  54  82 117 150 183 240 292 333
#     4  11  24  39  55  76 111 152 195 243 295 339
#     4  10  21  38  62  85 112 144 187 236 292 351
#     4  11  24  40  57  80 118 157 192 235 289 345
#     4  12  22  37  57  84 116 153 205 243 285 340
#     4   9  19  37  60  89 117 147 183 234 288 346
#     4  12  24  32  60  92 110 152 220 244 284 340
#     4  10  21  37  59  88 116 150 193 235 287 340
#
# _framework density 17.942173
#
# number of rings (size 3 to 8) (size 9 to 14) (size 15 to 20)
#    0.000    1.517    3.448    1.655    1.931    4.138 
#    0.000    3.448    0.000    0.414    0.000    0.000 
#    0.000    0.000    0.000    0.000    0.000    0.000 
#
# Total GULP energy -323297.734270 kJ/mol
# GULP energy per Si atom -5574.098867 kJ/mol
# Density = 1.790134 g / cm^3
# Si number density = 17.942173 Si / 1000 Ang^3
#
#
#
# Elastic Constant Matrix: (Units=GPa)
#
#
# Indices 1 2 3 4 5 6 
#
# 1 75.3592 40.8675 40.0328 0.0000 0.0000 0.0000
# 2 40.8675 98.4280 33.2071 0.0000 0.0000 -0.0001
# 3 40.0328 33.2071 93.2924 0.0000 0.0000 0.0000
# 4 0.0000 0.0000 0.0000 9.7588 0.0000 0.0000
# 5 0.0000 0.0000 0.0000 0.0000 10.9698 0.0000
# 6 0.0000 -0.0001 0.0000 0.0000 0.0000 -184.6792
#
#
#
# Elastic Compliance Matrix: (Units=1/GPa)
#
#
# Indices 1 2 3 4 5 6 
#
# 1 0.020000 -0.006147 -0.006394 0.000000 0.000000 0.000000
# 2 -0.006147 0.013435 -0.002145 0.000000 0.000000 0.000000
# 3 -0.006394 -0.002145 0.014226 0.000000 0.000000 0.000000
# 4 0.000000 0.000000 0.000000 0.102472 0.000000 0.000000
# 5 0.000000 0.000000 0.000000 0.000000 0.091159 0.000000
# 6 0.000000 0.000000 0.000000 0.000000 0.000000 -0.005415
#
#
# Mechanical properties :
#
#
# Convention : Reuss Voigt Hill
#
# Bulk Modulus (GPa) = 54.67402 55.03272 54.85337
# Shear Modulus (GPa) = 18.42663 -22.59199 -2.08268
#
# Velocity S-wave (km/s) = 3.20816 -3.55231 -1.07856
# Velocity P-wave (km/s) = 6.65294 3.73010 5.39329
#
# Compressibility (1/GPa) = 0.01829022
#
# Stress axis : x y z
#
# Youngs Moduli (GPa) = 49.99997 74.43026 70.29263
#
# Poissons Ratio (x) = 0.45750 0.44947
# Poissons Ratio (y) = 0.30734 0.15075
# Poissons Ratio (z) = 0.31972 0.15963
#
# Static dielectric constant tensor:
#      x y z
#    x 1.608860 0.000000 0.000000 
#    y 0.000000 1.599200 0.000000 
#    z 0.000000 0.000000 1.620040 
# 
# From -- ./inp_files/64891.got.cif
#   From: 2010.05.17/outbox.cif.g08.bks.cpg/sg74_33_cif.got.tgz:64891.got - 2010.06.03 17:57:02.
