data_PCOD9536761
_publ_section_title
;
Structure prediction by ZEFSAII (Michael W. Deem and Ramdas Pophale) SiO2 
 PCOD9536761
Probable space group: I M M A
;
_chemical_formula_sum "Si O2"
_cell_formula_units_Z 96
_cell_length_a 19.285270
_cell_length_b 18.989276
_cell_length_c 13.326886
_cell_angle_alpha 90.000000
_cell_angle_beta 90.000000
_cell_angle_gamma 90.000000
_cell_volume 4880.483098
_symmetry_space_group_name_H-M "I M M A"
_symmetry_group_IT_number 74
_symmetry_cell_setting 'orthorhombic'
loop_
_space_group_symop_operation_xyz
x,y,z
-x,1/2-y,z
x,-y,-z
-x,1/2+y,-z
-x,-y,-z
x,1/2+y,-z
-x,y,z
x,1/2-y,z
1/2+x,1/2+y,1/2+z
1/2-x,-y,1/2+z
1/2+x,1/2-y,1/2-z
1/2-x,y,1/2-z
1/2-x,1/2-y,1/2-z
1/2+x,y,1/2-z
1/2-x,1/2+y,1/2+z
1/2+x,-y,1/2+z
loop_
_atom_site_type_symbol
_atom_site_label
_atom_site_fract_x
_atom_site_fract_y
_atom_site_fract_z
Si Si1 0.581091 0.948467 0.407875
Si Si2 0.156492 0.668291 0.423687
Si Si3 0.681801 0.332526 0.527473
Si Si4 0.082769 0.611813 0.620428
Si Si5 0.176619 0.334749 0.206075
Si Si6 0.081311 0.458561 0.678975
O O1 0.500000 0.929958 0.420797
O O2 0.629513 0.880737 0.412213
O O3 0.588871 0.979082 0.296064
O O4 0.599388 0.000000 0.500000
O O5 0.144753 0.750000 0.393936
O O6 0.238589 0.657942 0.439749
O O7 0.119044 0.653249 0.530067
O O8 0.125863 0.609409 0.349741
O O9 0.665568 0.250000 0.537599
O O10 0.673213 0.352896 0.410622
O O11 0.114756 0.638670 0.724614
O O12 0.098486 0.528275 0.615531
O O13 0.000000 0.620518 0.617325
O O14 0.177292 0.250000 0.212206
O O15 0.250000 0.360912 0.250000
O O16 0.000000 0.441830 0.661425
#
# Coordination Sequence:
#
# PCOD9536761 Si02
#       6
#    16  16  16  16  16  16
#     4  10  22  42  64  87 117 156 202 252 307 363
#     4  11  23  40  60  88 126 164 202 246 303 370
#     4  10  22  39  60  87 121 158 200 252 302 358
#     4  11  22  38  61  90 122 159 205 253 303 365
#     4  10  19  36  59  86 122 159 196 245 303 355
#     4  10  23  41  60  87 123 157 198 256 308 358
#
# _framework density 19.670183999999999
#
# number of rings (size 3 to 8) (size 9 to 14) (size 15 to 20)
#    0.000    1.667    1.667    2.500    0.000    8.667 
#    3.000    5.000    0.000    0.000    0.000    0.000 
#    0.000    0.000    0.000    0.000    0.000    0.000 
#
# Total GULP energy -268142.584837 kJ/mol
# GULP energy per Si atom -5586.303851 kJ/mol
# Density = 1.962541 g / cm^3
# Si number density = 19.670184 Si / 1000 Ang^3
#
#
#
# Elastic Constant Matrix: (Units=GPa)
#
#
# Indices 1 2 3 4 5 6 
#
# 1 46.0740 22.6334 2.1077 0.0000 0.0000 0.0000
# 2 22.6334 36.6411 2.5569 0.0000 0.0000 0.0000
# 3 2.1077 2.5569 31.0020 0.0000 0.0000 0.0000
# 4 0.0000 0.0000 0.0000 35.5593 0.0000 0.0000
# 5 0.0000 0.0000 0.0000 0.0000 43.8704 0.0000
# 6 0.0000 0.0000 0.0000 0.0000 0.0000 33.6920
#
#
#
# Elastic Compliance Matrix: (Units=1/GPa)
#
#
# Indices 1 2 3 4 5 6 
#
# 1 0.031168 -0.019215 -0.000534 0.000000 0.000000 0.000000
# 2 -0.019215 0.039296 -0.001935 0.000000 0.000000 0.000000
# 3 -0.000534 -0.001935 0.032452 0.000000 0.000000 0.000000
# 4 0.000000 0.000000 0.000000 0.028122 0.000000 0.000000
# 5 0.000000 0.000000 0.000000 0.000000 0.022794 0.000000
# 6 0.000000 0.000000 0.000000 0.000000 0.000000 0.029681
#
#
# Mechanical properties :
#
#
# Convention : Reuss Voigt Hill
#
# Bulk Modulus (GPa) = 16.79324 18.70145 17.74734
# Shear Modulus (GPa) = 20.26499 28.38561 24.32530
#
# Velocity S-wave (km/s) = 3.21322 3.80291 3.52043
# Velocity P-wave (km/s) = 4.72465 5.36758 5.05634
#
# Compressibility (1/GPa) = 0.05954777
#
# Stress axis : x y z
#
# Youngs Moduli (GPa) = 32.08415 25.44770 30.81488
#
# Poissons Ratio (x) = 0.48899 0.01646
# Poissons Ratio (y) = 0.61651 0.05961
# Poissons Ratio (z) = 0.01714 0.04923
#
# Static dielectric constant tensor:
#      x y z
#    x 1.652830 0.000000 0.000000 
#    y 0.000000 1.673020 0.000000 
#    z 0.000000 0.000000 1.722120 
# 
# From -- ./inp_files/35242.got.cif
#   From: 2010.05.17/outbox.cif.g08.bks.cpg/sg74_18_cif.got.tgz:35242.got - 2010.06.03 17:57:02.
