data_PCOD9536163
_publ_section_title
;
Structure prediction by ZEFSAII (Michael W. Deem and Ramdas Pophale) SiO2 
 PCOD9536163
Probable space group: I M M A
;
_chemical_formula_sum "Si O2"
_cell_formula_units_Z 64
_cell_length_a 21.744791
_cell_length_b 8.576409
_cell_length_c 18.779527
_cell_angle_alpha 90.000000
_cell_angle_beta 90.000000
_cell_angle_gamma 90.000000
_cell_volume 3502.235704
_symmetry_space_group_name_H-M "I M M A"
_symmetry_group_IT_number 74
_symmetry_cell_setting 'orthorhombic'
loop_
_space_group_symop_operation_xyz
x,y,z
-x,1/2-y,z
x,-y,-z
-x,1/2+y,-z
-x,-y,-z
x,1/2+y,-z
-x,y,z
x,1/2-y,z
1/2+x,1/2+y,1/2+z
1/2-x,-y,1/2+z
1/2+x,1/2-y,1/2-z
1/2-x,y,1/2-z
1/2-x,1/2-y,1/2-z
1/2+x,y,1/2-z
1/2-x,1/2+y,1/2+z
1/2+x,-y,1/2+z
loop_
_atom_site_type_symbol
_atom_site_label
_atom_site_fract_x
_atom_site_fract_y
_atom_site_fract_z
Si Si1 0.119666 0.563237 0.419373
Si Si2 0.500000 0.561597 0.168856
Si Si3 0.747423 0.436875 0.080954
Si Si4 0.000000 0.438750 0.171537
Si Si5 0.382697 0.061800 0.419498
O O1 0.113933 0.500000 0.500000
O O2 0.120795 0.750000 0.422749
O O3 0.061165 0.511585 0.373481
O O4 0.184674 0.505069 0.387568
O O5 0.500000 0.750000 0.170444
O O6 0.500000 0.498729 0.248454
O O7 0.742860 0.250000 0.080349
O O8 0.814813 0.482033 0.109806
O O9 0.748277 0.500000 0.000000
O O10 0.939066 0.491154 0.129155
O O11 0.000000 0.250000 0.172171
O O12 0.384154 0.250000 0.423032
O O13 0.389236 0.000000 0.500000
#
# Coordination Sequence:
#
# PCOD9536163 Si02
#       5
#    16   8  16   8  16
#     4  10  19  33  53  76 100 126 162 204 246 295
#     4  10  23  38  50  70 100 132 167 206 246 292
#     4   9  16  28  48  75 103 127 157 199 245 290
#     4  10  21  36  52  72 100 134 171 206 242 288
#     4   9  18  32  52  78 103 129 164 204 244 290
#
# _framework density 18.274042999999999
#
# number of rings (size 3 to 8) (size 9 to 14) (size 15 to 20)
#    0.000    2.500    0.000    3.750    0.000    4.000 
#    0.000    1.250    0.000    7.500    0.000    0.000 
#    0.000    0.000    0.000    0.000    0.000    0.000 
#
# Total GULP energy -178385.320153 kJ/mol
# GULP energy per Si atom -5574.541255 kJ/mol
# Density = 1.823245 g / cm^3
# Si number density = 18.274043 Si / 1000 Ang^3
#
#
#
# Elastic Constant Matrix: (Units=GPa)
#
#
# Indices 1 2 3 4 5 6 
#
# 1 238.5369 40.9115 87.4397 0.0000 0.0000 0.0000
# 2 40.9115 28.8754 16.2358 0.0000 0.0000 0.0000
# 3 87.4397 16.2358 80.1247 0.0000 0.0000 0.0000
# 4 0.0000 0.0000 0.0000 24.8268 0.0000 0.0000
# 5 0.0000 0.0000 0.0000 0.0000 -1.2808 0.0000
# 6 0.0000 0.0000 0.0000 0.0000 0.0000 10.7862
#
#
#
# Elastic Compliance Matrix: (Units=1/GPa)
#
#
# Indices 1 2 3 4 5 6 
#
# 1 0.008191 -0.007425 -0.007434 0.000000 0.000000 0.000000
# 2 -0.007425 0.045815 -0.001181 0.000000 0.000000 0.000000
# 3 -0.007434 -0.001181 0.020832 0.000000 0.000000 0.000000
# 4 0.000000 0.000000 0.000000 0.040279 0.000000 0.000000
# 5 0.000000 0.000000 0.000000 0.000000 -0.780783 0.000000
# 6 0.000000 0.000000 0.000000 0.000000 0.000000 0.092711
#
#
# Mechanical properties :
#
#
# Convention : Reuss Voigt Hill
#
# Bulk Modulus (GPa) = 23.38683 70.74566 47.06624
# Shear Modulus (GPa) = -9.49449 20.39644 5.45097
#
# Velocity S-wave (km/s) = -2.28186 3.34450 1.72898
# Velocity P-wave (km/s) = 2.42551 7.32885 5.45871
#
# Compressibility (1/GPa) = 0.04275910
#
# Stress axis : x y z
#
# Youngs Moduli (GPa) = 122.08933 21.82671 48.00197
#
# Poissons Ratio (x) = 0.16206 0.35685
# Poissons Ratio (y) = 0.90651 0.05668
# Poissons Ratio (z) = 0.90761 0.02577
#
# Static dielectric constant tensor:
#      x y z
#    x 1.692480 0.000000 0.000000 
#    y 0.000000 1.623780 0.000000 
#    z 0.000000 0.000000 1.562520 
# 
# From -- ./inp_files/35992.got.cif
#   From: 2010.05.17/outbox.cif.g08.bks.cpg/sg74_18_cif.got.tgz:35992.got - 2010.06.03 17:57:02.
