data_PCOD9536290
_publ_section_title
;
Structure prediction by ZEFSAII (Michael W. Deem and Ramdas Pophale) SiO2 
 PCOD9536290
Probable space group: I M M A
;
_chemical_formula_sum "Si O2"
_cell_formula_units_Z 48
_cell_length_a 21.359142
_cell_length_b 11.379242
_cell_length_c 7.212384
_cell_angle_alpha 90.000000
_cell_angle_beta 90.000000
_cell_angle_gamma 90.000000
_cell_volume 1752.976031
_symmetry_space_group_name_H-M "I M M A"
_symmetry_group_IT_number 74
_symmetry_cell_setting 'orthorhombic'
loop_
_space_group_symop_operation_xyz
x,y,z
-x,1/2-y,z
x,-y,-z
-x,1/2+y,-z
-x,-y,-z
x,1/2+y,-z
-x,y,z
x,1/2-y,z
1/2+x,1/2+y,1/2+z
1/2-x,-y,1/2+z
1/2+x,1/2-y,1/2-z
1/2-x,y,1/2-z
1/2-x,1/2-y,1/2-z
1/2+x,y,1/2-z
1/2-x,1/2+y,1/2+z
1/2+x,-y,1/2+z
loop_
_atom_site_type_symbol
_atom_site_label
_atom_site_fract_x
_atom_site_fract_y
_atom_site_fract_z
Si Si1 0.729748 0.250000 0.541428
Si Si2 0.098240 0.250000 0.780614
Si Si3 0.106821 0.000673 0.277877
Si Si4 0.428357 0.250000 0.134300
Si Si5 0.219379 0.000000 0.000000
O O1 0.750000 0.250000 0.750000
O O2 0.654419 0.250000 0.568237
O O3 0.751894 0.374985 0.466224
O O4 0.113794 0.250000 0.554915
O O5 0.071064 0.117246 0.790670
O O6 0.081108 0.131649 0.247469
O O7 0.109725 0.000000 0.500000
O O8 0.173535 0.987292 0.177301
O O9 0.500000 0.250000 0.064691
#
# Coordination Sequence:
#
# PCOD9536290 Si02
#       5
#     8   8  16   8   8
#     4  10  21  41  60  93 124 153 211 255 303 380
#     4   8  18  34  54  78 113 149 187 246 284 349
#     4   9  18  34  58  83 111 153 196 240 296 358
#     4  10  19  33  55  86 117 154 202 248 298 362
#     4  10  20  40  65  82 120 162 191 252 314 354
#
# _framework density 27.382007000000002
#
# number of rings (size 3 to 8) (size 9 to 14) (size 15 to 20)
#    0.000    2.667    0.000    1.000    0.000    6.000 
#   24.000    1.667    0.000   20.000    0.000    0.000 
#    0.000    0.000    0.000    0.000    0.000    0.000 
#
# Total GULP energy -133815.337735 kJ/mol
# GULP energy per Si atom -5575.639072 kJ/mol
# Density = 2.731968 g / cm^3
# Si number density = 27.382007 Si / 1000 Ang^3
#
#
#
# Elastic Constant Matrix: (Units=GPa)
#
#
# Indices 1 2 3 4 5 6 
#
# 1 63.3347 27.6342 9.6293 0.0000 0.0000 0.0000
# 2 27.6342 371.0844 9.6018 0.0000 0.0000 0.0000
# 3 9.6293 9.6018 104.3333 0.0000 0.0000 0.0000
# 4 0.0000 0.0000 0.0000 34.2838 0.0000 0.0000
# 5 0.0000 0.0000 0.0000 0.0000 -6.8361 0.0000
# 6 0.0000 0.0000 0.0000 0.0000 0.0000 -134.3133
#
#
#
# Elastic Compliance Matrix: (Units=1/GPa)
#
#
# Indices 1 2 3 4 5 6 
#
# 1 0.016525 -0.001194 -0.001415 0.000000 0.000000 0.000000
# 2 -0.001194 0.002788 -0.000146 0.000000 0.000000 0.000000
# 3 -0.001415 -0.000146 0.009729 0.000000 0.000000 0.000000
# 4 0.000000 0.000000 0.000000 0.029168 0.000000 0.000000
# 5 0.000000 0.000000 0.000000 0.000000 -0.146282 0.000000
# 6 0.000000 0.000000 0.000000 0.000000 0.000000 -0.007445
#
#
# Mechanical properties :
#
#
# Convention : Reuss Voigt Hill
#
# Bulk Modulus (GPa) = 42.49841 70.27588 56.38714
# Shear Modulus (GPa) = -60.85508 11.41936 -24.71786
#
# Velocity S-wave (km/s) = -4.71940 2.04437 -3.00776
# Velocity P-wave (km/s) = 3.76068 5.59404 2.92836
#
# Compressibility (1/GPa) = 0.02353029
#
# Stress axis : x y z
#
# Youngs Moduli (GPa) = 60.51338 358.74356 102.78809
#
# Poissons Ratio (x) = 0.42834 0.14547
# Poissons Ratio (y) = 0.07225 0.01504
# Poissons Ratio (z) = 0.08564 0.05250
#
# Static dielectric constant tensor:
#      x y z
#    x 2.212450 0.000000 0.000000 
#    y 0.000000 2.246030 0.000000 
#    z 0.000000 0.000000 2.085760 
# 
# From -- ./inp_files/4799.got.cif
#   From: 2010.05.17/outbox.cif.g08.bks.cpg/sg74_3_cif.got.tgz:4799.got - 2010.06.03 17:57:02.
