data_PCOD9536742
_publ_section_title
;
Structure prediction by ZEFSAII (Michael W. Deem and Ramdas Pophale) SiO2 
 PCOD9536742
Probable space group: I M M A
;
_chemical_formula_sum "Si O2"
_cell_formula_units_Z 104
_cell_length_a 16.840040
_cell_length_b 24.699797
_cell_length_c 12.225893
_cell_angle_alpha 90.000000
_cell_angle_beta 90.000000
_cell_angle_gamma 90.000000
_cell_volume 5085.306026
_symmetry_space_group_name_H-M "I M M A"
_symmetry_group_IT_number 74
_symmetry_cell_setting 'orthorhombic'
loop_
_space_group_symop_operation_xyz
x,y,z
-x,1/2-y,z
x,-y,-z
-x,1/2+y,-z
-x,-y,-z
x,1/2+y,-z
-x,y,z
x,1/2-y,z
1/2+x,1/2+y,1/2+z
1/2-x,-y,1/2+z
1/2+x,1/2-y,1/2-z
1/2-x,y,1/2-z
1/2-x,1/2-y,1/2-z
1/2+x,y,1/2-z
1/2-x,1/2+y,1/2+z
1/2+x,-y,1/2+z
loop_
_atom_site_type_symbol
_atom_site_label
_atom_site_fract_x
_atom_site_fract_y
_atom_site_fract_z
Si Si1 0.831658 0.152764 0.518709
Si Si2 0.835643 0.585659 0.271814
Si Si3 0.407253 0.813065 0.611880
Si Si4 0.500000 0.944077 0.207917
Si Si5 0.500000 0.149884 0.956590
Si Si6 0.165090 0.896074 0.721462
Si Si7 0.330590 0.810594 0.382725
Si Si8 0.000000 0.941324 0.646657
O O1 0.838159 0.100276 0.599250
O O2 0.822827 0.133569 0.394996
O O3 0.756535 0.185196 0.562369
O O4 0.917492 0.180662 0.530828
O O5 0.750000 0.559769 0.250000
O O6 0.914314 0.554222 0.234832
O O7 0.836085 0.642926 0.207394
O O8 0.500000 0.822567 0.635959
O O9 0.389337 0.750000 0.634831
O O10 0.354547 0.851898 0.685773
O O11 0.390186 0.821248 0.483263
O O12 0.500000 0.884054 0.155500
O O13 0.500000 0.994530 0.125048
O O14 0.500000 0.102408 0.049014
O O15 0.250000 0.923009 0.750000
O O16 0.083412 0.929910 0.708985
O O17 0.343171 0.750000 0.339201
#
# Coordination Sequence:
#
# PCOD9536742 Si02
#       8
#    16  16  16   8   8  16  16   8
#     4   9  18  33  53  80 110 144 177 221 275 325
#     4   9  20  36  56  81 110 145 179 230 280 326
#     4  10  21  36  55  79 109 149 189 220 262 329
#     4  10  19  36  58  80 106 143 187 229 281 338
#     4   8  17  34  55  78 108 142 183 218 280 336
#     4  11  20  35  57  82 113 147 181 230 277 325
#     4  10  20  35  57  82 109 147 190 225 268 331
#     4  10  21  34  56  84 108 141 185 235 281 327
#
# _framework density 20.451080999999999
#
# number of rings (size 3 to 8) (size 9 to 14) (size 15 to 20)
#    0.000    2.308    2.308    0.231    1.077    4.308 
#    0.000    0.385    0.000    6.462    0.000    0.000 
#    0.000    0.000    0.000    0.000    0.000    0.000 
#
# Total GULP energy -289691.841332 kJ/mol
# GULP energy per Si atom -5570.996949 kJ/mol
# Density = 2.040453 g / cm^3
# Si number density = 20.451081 Si / 1000 Ang^3
#
#
#
# Elastic Constant Matrix: (Units=GPa)
#
#
# Indices 1 2 3 4 5 6 
#
# 1 162.3196 19.5934 16.7997 0.0000 0.0000 0.0000
# 2 19.5934 60.9434 18.2096 0.0000 0.0000 0.0000
# 3 16.7997 18.2096 49.2893 0.0000 0.0000 0.0000
# 4 0.0000 0.0000 0.0000 7.7755 0.0000 0.0000
# 5 0.0000 0.0000 0.0000 0.0000 29.1610 0.0000
# 6 0.0000 0.0000 0.0000 0.0000 0.0000 -13.7719
#
#
#
# Elastic Compliance Matrix: (Units=1/GPa)
#
#
# Indices 1 2 3 4 5 6 
#
# 1 0.006524 -0.001611 -0.001628 0.000000 0.000000 0.000000
# 2 -0.001611 0.018842 -0.006412 0.000000 0.000000 0.000000
# 3 -0.001628 -0.006412 0.023212 0.000000 0.000000 0.000000
# 4 0.000000 0.000000 0.000000 0.128609 0.000000 0.000000
# 5 0.000000 0.000000 0.000000 0.000000 0.034292 0.000000
# 6 0.000000 0.000000 0.000000 0.000000 0.000000 -0.072612
#
#
# Mechanical properties :
#
#
# Convention : Reuss Voigt Hill
#
# Bulk Modulus (GPa) = 34.15809 42.41753 38.28781
# Shear Modulus (GPa) = 29.77440 19.16288 24.46864
#
# Velocity S-wave (km/s) = 3.81974 3.06438 3.46272
# Velocity P-wave (km/s) = 6.01602 5.77119 5.89488
#
# Compressibility (1/GPa) = 0.02927564
#
# Stress axis : x y z
#
# Youngs Moduli (GPa) = 153.28810 53.07152 43.08045
#
# Poissons Ratio (x) = 0.08549 0.07015
# Poissons Ratio (y) = 0.24692 0.27624
# Poissons Ratio (z) = 0.24962 0.34031
#
# Static dielectric constant tensor:
#      x y z
#    x 1.839040 0.000000 0.000000 
#    y 0.000000 1.703280 0.000000 
#    z 0.000000 0.000000 1.717590 
# 
# From -- ./inp_files/22810.got.cif
#   From: 2010.05.17/outbox.cif.g08.bks.cpg/sg74_12_cif.got.tgz:22810.got - 2010.06.03 17:57:02.
