data_PCOD9536826
_publ_section_title
;
Structure prediction by ZEFSAII (Michael W. Deem and Ramdas Pophale) SiO2 
 PCOD9536826
Probable space group: I M M A
;
_chemical_formula_sum "Si O2"
_cell_formula_units_Z 96
_cell_length_a 19.718656
_cell_length_b 16.621471
_cell_length_c 15.360877
_cell_angle_alpha 90.000000
_cell_angle_beta 90.000000
_cell_angle_gamma 90.000000
_cell_volume 5034.574577
_symmetry_space_group_name_H-M "I M M A"
_symmetry_group_IT_number 74
_symmetry_cell_setting 'orthorhombic'
loop_
_space_group_symop_operation_xyz
x,y,z
-x,1/2-y,z
x,-y,-z
-x,1/2+y,-z
-x,-y,-z
x,1/2+y,-z
-x,y,z
x,1/2-y,z
1/2+x,1/2+y,1/2+z
1/2-x,-y,1/2+z
1/2+x,1/2-y,1/2-z
1/2-x,y,1/2-z
1/2-x,1/2-y,1/2-z
1/2+x,y,1/2-z
1/2-x,1/2+y,1/2+z
1/2+x,-y,1/2+z
loop_
_atom_site_type_symbol
_atom_site_label
_atom_site_fract_x
_atom_site_fract_y
_atom_site_fract_z
Si Si1 0.315428 0.151931 0.985477
Si Si2 0.921763 0.421244 0.856712
Si Si3 0.660965 0.842715 0.510527
Si Si4 0.578080 0.111693 0.326509
Si Si5 0.422265 0.152597 0.129029
Si Si6 0.175352 0.346995 0.713897
O O1 0.317121 0.250000 0.986633
O O2 0.330740 0.127135 0.886509
O O3 0.238679 0.128548 0.009599
O O4 0.370253 0.123559 0.055653
O O5 0.920551 0.517193 0.847461
O O6 0.881367 0.383858 0.775802
O O7 0.000000 0.394616 0.858591
O O8 0.884015 0.393788 0.944101
O O9 0.660859 0.750000 0.479245
O O10 0.627969 0.846922 0.605493
O O11 0.500000 0.140482 0.337387
O O12 0.596993 0.125720 0.226188
O O13 0.500000 0.126675 0.112382
O O14 0.421629 0.250000 0.128395
O O15 0.170564 0.250000 0.717233
O O16 0.250000 0.368832 0.750000
#
# Coordination Sequence:
#
# PCOD9536826 Si02
#       6
#    16  16  16  16  16  16
#     4   9  19  35  57  85 114 142 180 238 287 323
#     4  11  23  38  56  83 116 148 187 233 282 341
#     4  11  21  36  58  84 113 147 190 235 284 341
#     4  10  22  39  55  78 117 153 184 235 289 331
#     4   9  18  36  60  83 110 149 194 234 279 336
#     4  10  19  37  60  81 111 148 184 228 281 332
#
# _framework density 19.068145999999999
#
# number of rings (size 3 to 8) (size 9 to 14) (size 15 to 20)
#    0.000    2.000    1.667    2.000    0.000    5.667 
#    3.000    5.000    0.000    3.000    0.000    0.000 
#    0.000    0.000    0.000    0.000    0.000    0.000 
#
# Total GULP energy -268100.765386 kJ/mol
# GULP energy per Si atom -5585.432612 kJ/mol
# Density = 1.902475 g / cm^3
# Si number density = 19.068146 Si / 1000 Ang^3
#
#
#
# Elastic Constant Matrix: (Units=GPa)
#
#
# Indices 1 2 3 4 5 6 
#
# 1 138.7530 23.7467 97.6311 0.0000 0.0000 0.0000
# 2 23.7467 22.2034 17.6387 0.0000 0.0000 0.0000
# 3 97.6311 17.6387 159.0033 0.0000 0.0000 0.0000
# 4 0.0000 0.0000 0.0000 -19.0809 0.0000 0.0000
# 5 0.0000 0.0000 0.0000 0.0000 42.0816 0.0000
# 6 0.0000 0.0000 0.0000 0.0000 0.0000 10.0369
#
#
#
# Elastic Compliance Matrix: (Units=1/GPa)
#
#
# Indices 1 2 3 4 5 6 
#
# 1 0.014171 -0.009040 -0.007699 0.000000 0.000000 0.000000
# 2 -0.009040 0.055158 -0.000568 0.000000 0.000000 0.000000
# 3 -0.007699 -0.000568 0.011079 0.000000 0.000000 0.000000
# 4 0.000000 0.000000 0.000000 -0.052408 0.000000 0.000000
# 5 0.000000 0.000000 0.000000 0.000000 0.023763 0.000000
# 6 0.000000 0.000000 0.000000 0.000000 0.000000 0.099632
#
#
# Mechanical properties :
#
#
# Convention : Reuss Voigt Hill
#
# Bulk Modulus (GPa) = 21.83653 66.44365 44.14009
# Shear Modulus (GPa) = 24.84175 18.67040 21.75607
#
# Velocity S-wave (km/s) = 3.61333 3.13252 3.38148
# Velocity P-wave (km/s) = 5.37447 6.92853 6.20038
#
# Compressibility (1/GPa) = 0.04579482
#
# Stress axis : x y z
#
# Youngs Moduli (GPa) = 70.56580 18.12976 90.25918
#
# Poissons Ratio (x) = 0.16390 0.69486
# Poissons Ratio (y) = 0.63794 0.05126
# Poissons Ratio (z) = 0.54325 0.01030
#
# Static dielectric constant tensor:
#      x y z
#    x 1.647150 0.000000 0.000000 
#    y 0.000000 1.663870 0.000000 
#    z 0.000000 0.000000 1.639980 
# 
# From -- ./inp_files/35244.got.cif
#   From: 2010.05.17/outbox.cif.g08.bks.cpg/sg74_18_cif.got.tgz:35244.got - 2010.06.03 17:57:02.
