data_PCOD9536029
_publ_section_title
;
Structure prediction by ZEFSAII (Michael W. Deem and Ramdas Pophale) SiO2 
 PCOD9536029
Probable space group: I M M A
;
_chemical_formula_sum "Si O2"
_cell_formula_units_Z 76
_cell_length_a 28.637992
_cell_length_b 15.047005
_cell_length_c 10.534322
_cell_angle_alpha 90.000000
_cell_angle_beta 90.000000
_cell_angle_gamma 90.000000
_cell_volume 4539.407992
_symmetry_space_group_name_H-M "I M M A"
_symmetry_group_IT_number 74
_symmetry_cell_setting 'orthorhombic'
loop_
_space_group_symop_operation_xyz
x,y,z
-x,1/2-y,z
x,-y,-z
-x,1/2+y,-z
-x,-y,-z
x,1/2+y,-z
-x,y,z
x,1/2-y,z
1/2+x,1/2+y,1/2+z
1/2-x,-y,1/2+z
1/2+x,1/2-y,1/2-z
1/2-x,y,1/2-z
1/2-x,1/2-y,1/2-z
1/2+x,y,1/2-z
1/2-x,1/2+y,1/2+z
1/2+x,-y,1/2+z
loop_
_atom_site_type_symbol
_atom_site_label
_atom_site_fract_x
_atom_site_fract_y
_atom_site_fract_z
Si Si1 0.316206 0.350996 0.286511
Si Si2 0.392837 0.250000 0.692544
Si Si3 0.101258 0.394820 0.028250
Si Si4 0.500000 0.250000 0.701999
Si Si5 0.772592 0.902246 0.547263
Si Si6 0.294663 0.750000 0.153694
Si Si7 0.500000 0.106112 0.483024
O O1 0.315732 0.250000 0.240333
O O2 0.361523 0.370504 0.366827
O O3 0.272966 0.363523 0.382451
O O4 0.309850 0.409603 0.161459
O O5 0.390674 0.335579 0.597999
O O6 0.445747 0.250000 0.755840
O O7 0.345762 0.250000 0.778267
O O8 0.104080 0.500000 0.000000
O O9 0.049383 0.371767 0.078110
O O10 0.500000 0.161889 0.613685
O O11 0.788886 0.836475 0.436426
O O12 0.761153 0.000000 0.500000
O O13 0.250000 0.750000 0.250000
O O14 0.500000 0.000000 0.500000
#
# Coordination Sequence:
#
# PCOD9536029 Si02
#       7
#    16   8  16   4  16   8   8
#     4  11  20  39  55  72 105 141 172 214 255 307
#     4  10  20  33  54  80 110 137 172 219 257 308
#     4  10  19  32  54  81 106 137 172 210 264 308
#     4   8  16  32  50  74 104 142 170 202 266 308
#     4  11  24  38  54  75 104 140 175 210 257 310
#     4  12  24  36  53  81 111 133 174 221 257 307
#     4   8  16  30  48  77 108 128 166 219 255 301
#
# _framework density 16.742270999999999
#
# number of rings (size 3 to 8) (size 9 to 14) (size 15 to 20)
#    0.000    1.684    3.158    2.526    5.895    0.000 
#    0.000    0.000    0.000    1.263    0.000    1.474 
#    0.000    0.000    0.000    0.000    0.000    0.000 
#
# Total GULP energy -211609.467781 kJ/mol
# GULP energy per Si atom -5568.670205 kJ/mol
# Density = 1.670417 g / cm^3
# Si number density = 16.742271 Si / 1000 Ang^3
#
#
#
# Elastic Constant Matrix: (Units=GPa)
#
#
# Indices 1 2 3 4 5 6 
#
# 1 138.6911 -2.6034 52.0997 0.0000 0.0000 0.0000
# 2 -2.6034 75.6519 9.6482 0.0000 0.0000 0.0000
# 3 52.0997 9.6482 64.4654 0.0000 0.0000 0.0000
# 4 0.0000 0.0000 0.0000 6.8145 0.0000 0.0000
# 5 0.0000 0.0000 0.0000 0.0000 24.5123 0.0000
# 6 0.0000 0.0000 0.0000 0.0000 0.0000 19.5423
#
#
#
# Elastic Compliance Matrix: (Units=1/GPa)
#
#
# Indices 1 2 3 4 5 6 
#
# 1 0.010512 0.001473 -0.008716 0.000000 0.000000 0.000000
# 2 0.001473 0.013682 -0.003238 0.000000 0.000000 0.000000
# 3 -0.008716 -0.003238 0.023041 0.000000 0.000000 0.000000
# 4 0.000000 0.000000 0.000000 0.146745 0.000000 0.000000
# 5 0.000000 0.000000 0.000000 0.000000 0.040796 0.000000
# 6 0.000000 0.000000 0.000000 0.000000 0.000000 0.051171
#
#
# Mechanical properties :
#
#
# Convention : Reuss Voigt Hill
#
# Bulk Modulus (GPa) = 38.06217 44.12192 41.09205
# Shear Modulus (GPa) = 15.83945 24.81810 20.32878
#
# Velocity S-wave (km/s) = 3.07917 3.85432 3.48834
# Velocity P-wave (km/s) = 5.95191 6.79842 6.38920
#
# Compressibility (1/GPa) = 0.02627280
#
# Stress axis : x y z
#
# Youngs Moduli (GPa) = 95.12739 73.08795 43.40050
#
# Poissons Ratio (x) = -0.10769 0.37829
# Poissons Ratio (y) = -0.14016 0.14055
# Poissons Ratio (z) = 0.82916 0.23669
#
# Static dielectric constant tensor:
#      x y z
#    x 1.612790 0.000000 0.000000 
#    y 0.000000 1.569050 0.000000 
#    z 0.000000 0.000000 1.532500 
# 
# From -- ./inp_files/26126.got.cif
#   From: 2010.05.17/outbox.cif.g08.bks.cpg/sg74_14_cif.got.tgz:26126.got - 2010.06.03 17:57:02.
