data_PCOD9536748
_publ_section_title
;
Structure prediction by ZEFSAII (Michael W. Deem and Ramdas Pophale) SiO2 
 PCOD9536748
Probable space group: I M M A
;
_chemical_formula_sum "Si O2"
_cell_formula_units_Z 112
_cell_length_a 28.142645
_cell_length_b 14.183430
_cell_length_c 14.015103
_cell_angle_alpha 90.000000
_cell_angle_beta 90.000000
_cell_angle_gamma 90.000000
_cell_volume 5594.257797
_symmetry_space_group_name_H-M "I M M A"
_symmetry_group_IT_number 74
_symmetry_cell_setting 'orthorhombic'
loop_
_space_group_symop_operation_xyz
x,y,z
-x,1/2-y,z
x,-y,-z
-x,1/2+y,-z
-x,-y,-z
x,1/2+y,-z
-x,y,z
x,1/2-y,z
1/2+x,1/2+y,1/2+z
1/2-x,-y,1/2+z
1/2+x,1/2-y,1/2-z
1/2-x,y,1/2-z
1/2-x,1/2-y,1/2-z
1/2+x,y,1/2-z
1/2-x,1/2+y,1/2+z
1/2+x,-y,1/2+z
loop_
_atom_site_type_symbol
_atom_site_label
_atom_site_fract_x
_atom_site_fract_y
_atom_site_fract_z
Si Si1 0.314815 0.135592 0.918164
Si Si2 0.380913 0.970832 0.403563
Si Si3 0.854420 0.137630 0.375103
Si Si4 0.099981 0.362192 0.720069
Si Si5 0.552355 0.518406 0.887512
Si Si6 0.823783 0.639632 0.825254
Si Si7 0.212966 0.637947 0.025701
O O1 0.313219 0.250000 0.917583
O O2 0.349537 0.109498 0.831210
O O3 0.260219 0.104026 0.920540
O O4 0.336074 0.107610 0.020880
O O5 0.403245 0.902458 0.326246
O O6 0.332956 0.916779 0.437507
O O7 0.407834 0.000000 0.500000
O O8 0.365176 0.067780 0.354027
O O9 0.862151 0.250000 0.380113
O O10 0.904292 0.085622 0.357701
O O11 0.817526 0.121642 0.287646
O O12 0.096322 0.250000 0.716465
O O13 0.060820 0.417088 0.660120
O O14 0.500000 0.555890 0.863716
O O15 0.555010 0.500000 0.000000
O O16 0.837220 0.750000 0.833041
O O17 0.785163 0.626399 0.910066
O O18 0.207339 0.750000 0.043664
#
# Coordination Sequence:
#
# PCOD9536748 Si02
#       7
#    16  16  16  16  16  16  16
#     4   9  19  34  54  80 120 159 200 249 287 337
#     4  10  20  36  55  84 113 150 201 244 298 354
#     4  10  19  36  58  83 115 158 199 242 296 348
#     4  11  22  39  61  87 119 161 201 248 306 361
#     4  11  23  39  61  91 123 152 189 242 297 365
#     4   9  18  33  53  76 112 152 194 242 288 342
#     4   9  18  34  52  81 116 154 200 247 291 337
#
# _framework density 20.020530000000001
#
# number of rings (size 3 to 8) (size 9 to 14) (size 15 to 20)
#    0.000    2.143    2.857    0.429    0.000    2.286 
#    7.714    9.286    0.000    0.429    0.000    0.000 
#    0.000    0.000    0.000    0.000    0.000    0.000 
#
# Total GULP energy -312191.492163 kJ/mol
# GULP energy per Si atom -5574.848074 kJ/mol
# Density = 1.997496 g / cm^3
# Si number density = 20.020530 Si / 1000 Ang^3
#
#
#
# Elastic Constant Matrix: (Units=GPa)
#
#
# Indices 1 2 3 4 5 6 
#
# 1 42.2923 1.5606 14.1889 0.0000 0.0000 0.0000
# 2 1.5606 72.4687 27.1316 0.0000 0.0000 0.0000
# 3 14.1889 27.1316 111.9198 0.0000 0.0000 0.0000
# 4 0.0000 0.0000 0.0000 29.4031 0.0000 0.0000
# 5 0.0000 0.0000 0.0000 0.0000 -27.6135 0.0000
# 6 0.0000 0.0000 0.0000 0.0000 0.0000 17.0470
#
#
#
# Elastic Compliance Matrix: (Units=1/GPa)
#
#
# Indices 1 2 3 4 5 6 
#
# 1 0.024728 0.000705 -0.003306 0.000000 0.000000 0.000000
# 2 0.000705 0.015197 -0.003773 0.000000 0.000000 0.000000
# 3 -0.003306 -0.003773 0.010269 0.000000 0.000000 0.000000
# 4 0.000000 0.000000 0.000000 0.034010 0.000000 0.000000
# 5 0.000000 0.000000 0.000000 0.000000 -0.036214 0.000000
# 6 0.000000 0.000000 0.000000 0.000000 0.000000 0.058661
#
#
# Mechanical properties :
#
#
# Convention : Reuss Voigt Hill
#
# Bulk Modulus (GPa) = 26.70561 34.71589 30.71075
# Shear Modulus (GPa) = 37.91309 16.02063 26.96686
#
# Velocity S-wave (km/s) = 4.35640 2.83187 3.67408
# Velocity P-wave (km/s) = 6.21871 5.29815 5.77680
#
# Compressibility (1/GPa) = 0.03744532
#
# Stress axis : x y z
#
# Youngs Moduli (GPa) = 40.43984 65.80424 97.38213
#
# Poissons Ratio (x) = -0.04640 0.32194
# Poissons Ratio (y) = -0.02852 0.36746
# Poissons Ratio (z) = 0.13369 0.24830
#
# Static dielectric constant tensor:
#      x y z
#    x 1.691210 0.000000 0.000000 
#    y 0.000000 1.720610 0.000000 
#    z 0.000000 0.000000 1.766660 
# 
# From -- ./inp_files/27229.got.cif
#   From: 2010.05.17/outbox.cif.g08.bks.cpg/sg74_14_cif.got.tgz:27229.got - 2010.06.03 17:57:02.
