data_PCOD9536924
_publ_section_title
;
Structure prediction by ZEFSAII (Michael W. Deem and Ramdas Pophale) SiO2 
 PCOD9536924
Probable space group: I M M A
;
_chemical_formula_sum "Si O2"
_cell_formula_units_Z 72
_cell_length_a 7.440799
_cell_length_b 22.452161
_cell_length_c 23.585277
_cell_angle_alpha 90.000000
_cell_angle_beta 90.000000
_cell_angle_gamma 90.000000
_cell_volume 3940.203950
_symmetry_space_group_name_H-M "I M M A"
_symmetry_group_IT_number 74
_symmetry_cell_setting 'orthorhombic'
loop_
_space_group_symop_operation_xyz
x,y,z
-x,1/2-y,z
x,-y,-z
-x,1/2+y,-z
-x,-y,-z
x,1/2+y,-z
-x,y,z
x,1/2-y,z
1/2+x,1/2+y,1/2+z
1/2-x,-y,1/2+z
1/2+x,1/2-y,1/2-z
1/2-x,y,1/2-z
1/2-x,1/2-y,1/2-z
1/2+x,y,1/2-z
1/2-x,1/2+y,1/2+z
1/2+x,-y,1/2+z
loop_
_atom_site_type_symbol
_atom_site_label
_atom_site_fract_x
_atom_site_fract_y
_atom_site_fract_z
Si Si1 0.786076 0.471923 0.314833
Si Si2 0.281457 0.862545 0.891059
Si Si3 0.286886 0.250000 0.183623
Si Si4 0.000000 0.179078 0.886808
Si Si5 0.500000 0.321757 0.479421
Si Si6 0.786415 0.391459 0.684320
O O1 0.750000 0.452578 0.250000
O O2 0.724938 0.423968 0.360752
O O3 0.722135 0.539701 0.322139
O O4 0.000000 0.474400 0.320310
O O5 0.500000 0.861914 0.898145
O O6 0.225568 0.809374 0.848274
O O7 0.174360 0.849336 0.948421
O O8 0.500000 0.250000 0.177204
O O9 0.250000 0.250000 0.250000
O O10 0.172657 0.150081 0.856669
O O11 0.000000 0.250000 0.878924
O O12 0.000000 0.166397 0.953784
O O13 0.500000 0.250000 0.471160
O O14 0.750000 0.375512 0.750000
O O15 0.000000 0.388229 0.673935
#
# Coordination Sequence:
#
# PCOD9536924 Si02
#       6
#    16  16   8   8   8  16
#     4   9  19  33  57  89 121 158 199 238 301 365
#     4  10  21  37  54  83 118 161 205 252 294 344
#     4  10  20  30  50  80 116 154 198 254 301 331
#     4  11  26  43  63  95 115 151 210 242 298 379
#     4  11  24  41  61  79 115 170 210 249 298 348
#     4  10  20  40  65  92 127 155 179 241 308 365
#
# _framework density 18.273166
#
# number of rings (size 3 to 8) (size 9 to 14) (size 15 to 20)
#    0.000    2.000    2.222    0.667    4.667    1.778 
#    0.000    4.444    0.000    4.000    0.000    0.000 
#    0.000    0.000    0.000    0.000    0.000    0.000 
#
# Total GULP energy -200930.336917 kJ/mol
# GULP energy per Si atom -5581.398248 kJ/mol
# Density = 1.823158 g / cm^3
# Si number density = 18.273166 Si / 1000 Ang^3
#
#
#
# Elastic Constant Matrix: (Units=GPa)
#
#
# Indices 1 2 3 4 5 6 
#
# 1 104.1083 45.6600 58.4763 0.0000 0.0000 0.0000
# 2 45.6600 100.6392 96.2154 0.0000 0.0000 0.0000
# 3 58.4763 96.2154 160.0450 0.0000 0.0000 0.0000
# 4 0.0000 0.0000 0.0000 20.8237 0.0000 0.0000
# 5 0.0000 0.0000 0.0000 0.0000 27.8166 0.0000
# 6 0.0000 0.0000 0.0000 0.0000 0.0000 19.8424
#
#
#
# Elastic Compliance Matrix: (Units=1/GPa)
#
#
# Indices 1 2 3 4 5 6 
#
# 1 0.012474 -0.003062 -0.002717 0.000000 0.000000 0.000000
# 2 -0.003062 0.024118 -0.013380 0.000000 0.000000 0.000000
# 3 -0.002717 -0.013380 0.015285 0.000000 0.000000 0.000000
# 4 0.000000 0.000000 0.000000 0.048022 0.000000 0.000000
# 5 0.000000 0.000000 0.000000 0.000000 0.035950 0.000000
# 6 0.000000 0.000000 0.000000 0.000000 0.000000 0.050397
#
#
# Mechanical properties :
#
#
# Convention : Reuss Voigt Hill
#
# Bulk Modulus (GPa) = 73.75473 85.05509 79.40491
# Shear Modulus (GPa) = 21.82599 24.65926 23.24263
#
# Velocity S-wave (km/s) = 3.45980 3.67751 3.57032
# Velocity P-wave (km/s) = 7.51067 8.04236 7.78106
#
# Compressibility (1/GPa) = 0.01355845
#
# Stress axis : x y z
#
# Youngs Moduli (GPa) = 80.16378 41.46289 65.42404
#
# Poissons Ratio (x) = 0.12697 0.17775
# Poissons Ratio (y) = 0.24547 0.87540
# Poissons Ratio (z) = 0.21780 0.55479
#
# Static dielectric constant tensor:
#      x y z
#    x 1.664650 0.000000 0.000000 
#    y 0.000000 1.641320 0.000000 
#    z 0.000000 0.000000 1.652720 
# 
# From -- ./inp_files/48436.got.cif
#   From: 2010.05.17/outbox.cif.g08.bks.cpg/sg74_25_cif.got.tgz:48436.got - 2010.06.03 17:57:02.
