data_PCOD9536462
_publ_section_title
;
Structure prediction by ZEFSAII (Michael W. Deem and Ramdas Pophale) SiO2 
 PCOD9536462
Probable space group: I M M A
;
_chemical_formula_sum "Si O2"
_cell_formula_units_Z 80
_cell_length_a 16.892347
_cell_length_b 23.093526
_cell_length_c 11.743757
_cell_angle_alpha 90.000000
_cell_angle_beta 90.000000
_cell_angle_gamma 90.000000
_cell_volume 4581.284874
_symmetry_space_group_name_H-M "I M M A"
_symmetry_group_IT_number 74
_symmetry_cell_setting 'orthorhombic'
loop_
_space_group_symop_operation_xyz
x,y,z
-x,1/2-y,z
x,-y,-z
-x,1/2+y,-z
-x,-y,-z
x,1/2+y,-z
-x,y,z
x,1/2-y,z
1/2+x,1/2+y,1/2+z
1/2-x,-y,1/2+z
1/2+x,1/2-y,1/2-z
1/2-x,y,1/2-z
1/2-x,1/2-y,1/2-z
1/2+x,y,1/2-z
1/2-x,1/2+y,1/2+z
1/2+x,-y,1/2+z
loop_
_atom_site_type_symbol
_atom_site_label
_atom_site_fract_x
_atom_site_fract_y
_atom_site_fract_z
Si Si1 0.805868 0.058843 0.549466
Si Si2 0.406753 0.318627 0.539567
Si Si3 0.089096 0.393532 0.741122
Si Si4 0.794317 0.121549 0.140067
Si Si5 0.643496 0.498715 0.629843
O O1 0.856259 0.099250 0.631598
O O2 0.771083 0.096477 0.446889
O O3 0.846064 0.000000 0.500000
O O4 0.729360 0.032723 0.616442
O O5 0.500000 0.332667 0.519885
O O6 0.399818 0.250000 0.555425
O O7 0.382808 0.352292 0.655456
O O8 0.353008 0.339164 0.434239
O O9 0.091040 0.458059 0.793523
O O10 0.000000 0.375895 0.711507
O O11 0.750000 0.146698 0.250000
O O12 0.842464 0.063178 0.174410
O O13 0.612545 0.500000 0.500000
#
# Coordination Sequence:
#
# PCOD9536462 Si02
#       5
#    16  16  16  16  16
#     4   9  18  33  52  76 111 137 164 213 273 317
#     4  10  22  38  54  77 108 141 183 235 274 303
#     4  11  20  32  53  78 108 143 175 217 276 330
#     4  10  19  34  56  79 102 142 182 215 268 326
#     4   9  16  30  52  75 104 134 166 214 268 324
#
# _framework density 17.462351000000002
#
# number of rings (size 3 to 8) (size 9 to 14) (size 15 to 20)
#    0.000    2.600    4.000    3.000    0.000    2.000 
#    0.000    3.000    0.000    0.000    0.000    2.800 
#    0.000    0.000    0.000    0.000    0.000    0.000 
#
# Total GULP energy -222859.007713 kJ/mol
# GULP energy per Si atom -5571.475193 kJ/mol
# Density = 1.742261 g / cm^3
# Si number density = 17.462351 Si / 1000 Ang^3
#
#
#
# Elastic Constant Matrix: (Units=GPa)
#
#
# Indices 1 2 3 4 5 6 
#
# 1 46.6264 31.0012 44.9079 0.0000 0.0000 0.0000
# 2 31.0012 68.5185 39.8457 0.0000 0.0000 0.0000
# 3 44.9079 39.8457 96.6238 0.0000 0.0000 0.0000
# 4 0.0000 0.0000 0.0000 11.6800 0.0000 0.0000
# 5 0.0000 0.0000 0.0000 0.0000 24.5408 0.0000
# 6 0.0000 0.0000 0.0000 0.0000 0.0000 10.7172
#
#
#
# Elastic Compliance Matrix: (Units=1/GPa)
#
#
# Indices 1 2 3 4 5 6 
#
# 1 0.043930 -0.010527 -0.016076 0.000000 0.000000 0.000000
# 2 -0.010527 0.021721 -0.004065 0.000000 0.000000 0.000000
# 3 -0.016076 -0.004065 0.019497 0.000000 0.000000 0.000000
# 4 0.000000 0.000000 0.000000 0.085616 0.000000 0.000000
# 5 0.000000 0.000000 0.000000 0.000000 0.040748 0.000000
# 6 0.000000 0.000000 0.000000 0.000000 0.000000 0.093308
#
#
# Mechanical properties :
#
#
# Convention : Reuss Voigt Hill
#
# Bulk Modulus (GPa) = 41.99471 49.25315 45.62393
# Shear Modulus (GPa) = 13.36555 15.78854 14.57705
#
# Velocity S-wave (km/s) = 2.76957 3.01017 2.89237
# Velocity P-wave (km/s) = 5.85904 6.35201 6.11050
#
# Compressibility (1/GPa) = 0.02381253
#
# Stress axis : x y z
#
# Youngs Moduli (GPa) = 22.76331 46.03750 51.28904
#
# Poissons Ratio (x) = 0.48466 0.82453
# Poissons Ratio (y) = 0.23964 0.20847
# Poissons Ratio (z) = 0.36595 0.18713
#
# Static dielectric constant tensor:
#      x y z
#    x 1.631220 0.000000 0.000000 
#    y 0.000000 1.590650 0.000000 
#    z 0.000000 0.000000 1.630430 
# 
# From -- ./inp_files/20521.got.cif
#   From: 2010.05.17/outbox.cif.g08.bks.cpg/sg74_11_cif.got.tgz:20521.got - 2010.06.03 17:57:02.
