data_PCOD9536229
_publ_section_title
;
Structure prediction by ZEFSAII (Michael W. Deem and Ramdas Pophale) SiO2 
 PCOD9536229
Probable space group: I M M A
;
_chemical_formula_sum "Si O2"
_cell_formula_units_Z 96
_cell_length_a 8.024722
_cell_length_b 22.716423
_cell_length_c 25.733968
_cell_angle_alpha 90.000000
_cell_angle_beta 90.000000
_cell_angle_gamma 90.000000
_cell_volume 4691.121699
_symmetry_space_group_name_H-M "I M M A"
_symmetry_group_IT_number 74
_symmetry_cell_setting 'orthorhombic'
loop_
_space_group_symop_operation_xyz
x,y,z
-x,1/2-y,z
x,-y,-z
-x,1/2+y,-z
-x,-y,-z
x,1/2+y,-z
-x,y,z
x,1/2-y,z
1/2+x,1/2+y,1/2+z
1/2-x,-y,1/2+z
1/2+x,1/2-y,1/2-z
1/2-x,y,1/2-z
1/2-x,1/2-y,1/2-z
1/2+x,y,1/2-z
1/2-x,1/2+y,1/2+z
1/2+x,-y,1/2+z
loop_
_atom_site_type_symbol
_atom_site_label
_atom_site_fract_x
_atom_site_fract_y
_atom_site_fract_z
Si Si1 0.298680 0.149415 0.693035
Si Si2 0.299336 0.750000 0.385425
Si Si3 0.797860 0.250000 0.493845
Si Si4 0.193517 0.652482 0.585672
Si Si5 0.802407 0.111132 0.306703
Si Si6 0.300723 0.020736 0.664854
Si Si7 0.799919 0.974557 0.944701
O O1 0.500000 0.147371 0.690204
O O2 0.250000 0.171876 0.750000
O O3 0.240624 0.192554 0.646927
O O4 0.234652 0.082149 0.687153
O O5 0.500000 0.750000 0.382431
O O6 0.256074 0.750000 0.446245
O O7 0.737487 0.194776 0.458988
O O8 0.000000 0.250000 0.495822
O O9 0.268769 0.647416 0.643906
O O10 0.207816 0.586111 0.565731
O O11 0.000000 0.669891 0.591515
O O12 0.750000 0.131884 0.250000
O O13 0.000000 0.114941 0.310321
O O14 0.759240 0.041667 0.312601
O O15 0.500000 0.020503 0.671852
O O16 0.264359 0.017640 0.603314
O O17 0.000000 0.963430 0.944201
O O18 0.753586 0.000000 0.000000
#
# Coordination Sequence:
#
# PCOD9536229 Si02
#       7
#    16   8   8  16  16  16  16
#     4  10  21  36  54  77 107 140 178 222 267 315
#     4  10  23  39  57  79 103 138 180 228 273 316
#     4  10  22  41  60  79 106 142 183 224 267 320
#     4   9  20  37  55  77 107 142 178 219 267 315
#     4  10  19  33  54  80 109 140 174 215 264 318
#     4   9  18  32  50  77 110 141 175 215 262 317
#     4   9  18  31  52  79 109 142 176 217 265 317
#
# _framework density 20.464189999999999
#
# number of rings (size 3 to 8) (size 9 to 14) (size 15 to 20)
#    0.000    2.500    0.000    1.250    2.333    4.333 
#    0.000    0.417    0.000    0.000    0.000    0.000 
#    0.000    0.000    0.000    0.000    0.000    0.000 
#
# Total GULP energy -267652.937154 kJ/mol
# GULP energy per Si atom -5576.102857 kJ/mol
# Density = 2.041761 g / cm^3
# Si number density = 20.464190 Si / 1000 Ang^3
#
#
#
# Elastic Constant Matrix: (Units=GPa)
#
#
# Indices 1 2 3 4 5 6 
#
# 1 11.3609 8.4553 13.8565 0.0000 0.0000 0.0000
# 2 8.4553 70.5874 57.6553 0.0000 0.0000 0.0000
# 3 13.8565 57.6553 193.6184 0.0000 0.0000 0.0000
# 4 0.0000 0.0000 0.0000 19.6800 0.0000 0.0000
# 5 0.0000 0.0000 0.0000 0.0000 25.0468 0.0000
# 6 0.0000 0.0000 0.0000 0.0000 0.0000 13.4633
#
#
#
# Elastic Compliance Matrix: (Units=1/GPa)
#
#
# Indices 1 2 3 4 5 6 
#
# 1 0.099816 -0.008089 -0.004735 0.000000 0.000000 0.000000
# 2 -0.008089 0.019376 -0.005191 0.000000 0.000000 0.000000
# 3 -0.004735 -0.005191 0.007049 0.000000 0.000000 0.000000
# 4 0.000000 0.000000 0.000000 0.050813 0.000000 0.000000
# 5 0.000000 0.000000 0.000000 0.000000 0.039925 0.000000
# 6 0.000000 0.000000 0.000000 0.000000 0.000000 0.074276
#
#
# Mechanical properties :
#
#
# Convention : Reuss Voigt Hill
#
# Bulk Modulus (GPa) = 11.08501 48.38898 29.73700
# Shear Modulus (GPa) = 13.99169 24.67801 19.33485
#
# Velocity S-wave (km/s) = 2.61763 3.47639 3.07712
# Velocity P-wave (km/s) = 3.81635 6.30958 5.21418
#
# Compressibility (1/GPa) = 0.09021189
#
# Stress axis : x y z
#
# Youngs Moduli (GPa) = 10.01842 51.61149 141.85779
#
# Poissons Ratio (x) = 0.41750 0.67164
# Poissons Ratio (y) = 0.08104 0.73634
# Poissons Ratio (z) = 0.04743 0.26790
#
# Static dielectric constant tensor:
#      x y z
#    x 1.741950 0.000000 0.000000 
#    y 0.000000 1.725630 0.000000 
#    z 0.000000 0.000000 1.751540 
# 
# From -- ./inp_files/57356.got.cif
#   From: 2010.05.17/outbox.cif.g08.bks.cpg/sg74_29_cif.got.tgz:57356.got - 2010.06.03 17:57:02.
