data_PCOD9536107
_publ_section_title
;
Structure prediction by ZEFSAII (Michael W. Deem and Ramdas Pophale) SiO2 
 PCOD9536107
Probable space group: I M M A
;
_chemical_formula_sum "Si O2"
_cell_formula_units_Z 88
_cell_length_a 22.832442
_cell_length_b 8.882140
_cell_length_c 25.336319
_cell_angle_alpha 90.000000
_cell_angle_beta 90.000000
_cell_angle_gamma 90.000000
_cell_volume 5138.229471
_symmetry_space_group_name_H-M "I M M A"
_symmetry_group_IT_number 74
_symmetry_cell_setting 'orthorhombic'
loop_
_space_group_symop_operation_xyz
x,y,z
-x,1/2-y,z
x,-y,-z
-x,1/2+y,-z
-x,-y,-z
x,1/2+y,-z
-x,y,z
x,1/2-y,z
1/2+x,1/2+y,1/2+z
1/2-x,-y,1/2+z
1/2+x,1/2-y,1/2-z
1/2-x,y,1/2-z
1/2-x,1/2-y,1/2-z
1/2+x,y,1/2-z
1/2-x,1/2+y,1/2+z
1/2+x,-y,1/2+z
loop_
_atom_site_type_symbol
_atom_site_label
_atom_site_fract_x
_atom_site_fract_y
_atom_site_fract_z
Si Si1 0.283497 0.927316 0.635490
Si Si2 0.000000 0.429968 0.941607
Si Si3 0.373994 0.569371 0.441869
Si Si4 0.319749 0.920091 0.262487
Si Si5 0.569388 0.930529 0.942348
Si Si6 0.344910 0.568992 0.145666
O O1 0.275280 0.750000 0.631725
O O2 0.321506 0.994423 0.588802
O O3 0.319753 0.968577 0.688472
O O4 0.220088 0.006073 0.634739
O O5 0.937623 0.469360 0.916492
O O6 0.000000 0.250000 0.947961
O O7 0.000000 0.500000 0.000000
O O8 0.374739 0.500000 0.500000
O O9 0.367824 0.750000 0.443419
O O10 0.337785 0.750000 0.277991
O O11 0.250000 0.912177 0.250000
O O12 0.352823 0.964065 0.208557
O O13 0.500000 0.962200 0.933421
O O14 0.577065 0.750000 0.944251
O O15 0.608891 0.998595 0.895281
O O16 0.584635 0.000000 0.000000
O O17 0.345129 0.750000 0.140573
#
# Coordination Sequence:
#
# PCOD9536107 Si02
#       6
#    16   8  16  16  16  16
#     4  11  21  32  50  78 108 138 172 213 263 312
#     4   8  16  30  50  70  90 124 164 202 241 290
#     4  10  19  33  51  73 101 132 170 211 256 306
#     4   8  16  32  52  74 100 132 169 207 251 304
#     4  10  21  37  57  81 109 141 177 218 264 318
#     4  10  20  35  56  79 104 136 174 215 260 311
#
# _framework density 17.126521
#
# number of rings (size 3 to 8) (size 9 to 14) (size 15 to 20)
#    0.000    2.364    0.000    4.364    0.000    6.545 
#    0.000    3.636    2.000    0.000    0.000    0.000 
#    0.000    0.000    0.000    0.000    0.000    0.000 
#
# Total GULP energy -245056.222236 kJ/mol
# GULP energy per Si atom -5569.459596 kJ/mol
# Density = 1.708754 g / cm^3
# Si number density = 17.126521 Si / 1000 Ang^3
#
#
#
# Elastic Constant Matrix: (Units=GPa)
#
#
# Indices 1 2 3 4 5 6 
#
# 1 76.4367 39.8354 56.2242 0.0000 0.0000 0.0000
# 2 39.8354 73.6869 51.2657 0.0000 0.0000 0.0000
# 3 56.2242 51.2657 97.0247 0.0000 0.0000 0.0000
# 4 0.0000 0.0000 0.0000 28.6161 0.0000 0.0000
# 5 0.0000 0.0000 0.0000 0.0000 20.9914 0.0000
# 6 0.0000 0.0000 0.0000 0.0000 0.0000 47.7490
#
#
#
# Elastic Compliance Matrix: (Units=1/GPa)
#
#
# Indices 1 2 3 4 5 6 
#
# 1 0.024007 -0.005218 -0.011155 0.000000 0.000000 0.000000
# 2 -0.005218 0.022594 -0.008914 0.000000 0.000000 0.000000
# 3 -0.011155 -0.008914 0.021481 0.000000 0.000000 0.000000
# 4 0.000000 0.000000 0.000000 0.034945 0.000000 0.000000
# 5 0.000000 0.000000 0.000000 0.000000 0.047639 0.000000
# 6 0.000000 0.000000 0.000000 0.000000 0.000000 0.020943
#
#
# Mechanical properties :
#
#
# Convention : Reuss Voigt Hill
#
# Bulk Modulus (GPa) = 57.11749 60.19986 58.65867
# Shear Modulus (GPa) = 21.92814 26.12618 24.02716
#
# Velocity S-wave (km/s) = 3.58210 3.90998 3.74962
# Velocity P-wave (km/s) = 7.10853 7.45723 7.28497
#
# Compressibility (1/GPa) = 0.01750777
#
# Stress axis : x y z
#
# Youngs Moduli (GPa) = 41.65455 44.26048 46.55315
#
# Poissons Ratio (x) = 0.23093 0.51929
# Poissons Ratio (y) = 0.21734 0.41499
# Poissons Ratio (z) = 0.46465 0.39456
#
# Static dielectric constant tensor:
#      x y z
#    x 1.581920 0.000000 0.000000 
#    y 0.000000 1.574740 0.000000 
#    z 0.000000 0.000000 1.231870 
# 
# From -- ./inp_files/68108.got.cif
#   From: 2010.05.17/outbox.cif.g08.bks.cpg/sg74_35_cif.got.tgz:68108.got - 2010.06.03 17:57:02.
