data_PCOD9536738
_publ_section_title
;
Structure prediction by ZEFSAII (Michael W. Deem and Ramdas Pophale) SiO2 
 PCOD9536738
Probable space group: I M M A
;
_chemical_formula_sum "Si O2"
_cell_formula_units_Z 100
_cell_length_a 14.524981
_cell_length_b 9.477243
_cell_length_c 34.139428
_cell_angle_alpha 90.000000
_cell_angle_beta 90.000000
_cell_angle_gamma 90.000000
_cell_volume 4699.523542
_symmetry_space_group_name_H-M "I M M A"
_symmetry_group_IT_number 74
_symmetry_cell_setting 'orthorhombic'
loop_
_space_group_symop_operation_xyz
x,y,z
-x,1/2-y,z
x,-y,-z
-x,1/2+y,-z
-x,-y,-z
x,1/2+y,-z
-x,y,z
x,1/2-y,z
1/2+x,1/2+y,1/2+z
1/2-x,-y,1/2+z
1/2+x,1/2-y,1/2-z
1/2-x,y,1/2-z
1/2-x,1/2-y,1/2-z
1/2+x,y,1/2-z
1/2-x,1/2+y,1/2+z
1/2+x,-y,1/2+z
loop_
_atom_site_type_symbol
_atom_site_label
_atom_site_fract_x
_atom_site_fract_y
_atom_site_fract_z
Si Si1 0.889068 0.082251 0.640215
Si Si2 0.839851 0.582007 0.036341
Si Si3 0.386909 0.090131 0.303494
Si Si4 0.000000 0.250000 0.458124
Si Si5 0.891660 0.406091 0.875353
Si Si6 0.677380 0.907073 0.933248
Si Si7 0.887706 0.411746 0.728728
O O1 0.872175 0.250000 0.633780
O O2 0.860755 0.045958 0.684726
O O3 0.000000 0.062554 0.637362
O O4 0.842598 0.984296 0.607860
O O5 0.837679 0.750000 0.029491
O O6 0.882965 0.555920 0.079145
O O7 0.740117 0.511910 0.042182
O O8 0.884434 0.500000 0.000000
O O9 0.500000 0.091615 0.303304
O O10 0.355095 0.250000 0.302397
O O11 0.355604 0.013489 0.343179
O O12 0.357280 0.006471 0.264825
O O13 0.918635 0.129296 0.453957
O O14 0.849841 0.250000 0.870144
O O15 0.000000 0.395001 0.867226
O O16 0.721471 0.750000 0.927756
O O17 0.859779 0.250000 0.735169
O O18 0.000000 0.413408 0.728728
#
# Coordination Sequence:
#
# PCOD9536738 Si02
#       7
#    16  16  16   4  16  16  16
#     4   9  15  26  47  75 107 144 190 234 273 322
#     4  11  24  41  62  86 112 144 179 222 281 335
#     4   9  16  26  43  73 109 143 185 231 272 317
#     4   8  20  36  60  84 112 150 194 220 274 326
#     4   9  19  37  60  83 110 146 185 224 270 333
#     4  10  19  36  57  80 114 145 186 226 272 328
#     4   8  14  23  39  67 104 146 186 228 273 318
#
# _framework density 21.278752999999998
#
# number of rings (size 3 to 8) (size 9 to 14) (size 15 to 20)
#    0.480    2.240    0.800    2.400    0.000    4.160 
#    0.000    2.000    0.000    0.960    0.000    6.720 
#    0.000    0.000    0.000    0.000    0.000    0.000 
#
# Total GULP energy -278450.095050 kJ/mol
# GULP energy per Si atom -5569.001901 kJ/mol
# Density = 2.123032 g / cm^3
# Si number density = 21.278753 Si / 1000 Ang^3
#
#
#
# Elastic Constant Matrix: (Units=GPa)
#
#
# Indices 1 2 3 4 5 6 
#
# 1 46.1836 8.7507 10.1014 0.0000 0.0000 0.0000
# 2 8.7507 87.0068 83.9895 0.0000 0.0000 0.0000
# 3 10.1014 83.9895 130.2158 0.0000 0.0000 0.0000
# 4 0.0000 0.0000 0.0000 26.0635 0.0000 0.0000
# 5 0.0000 0.0000 0.0000 0.0000 21.3241 0.0000
# 6 0.0000 0.0000 0.0000 0.0000 0.0000 3.9120
#
#
#
# Elastic Compliance Matrix: (Units=1/GPa)
#
#
# Indices 1 2 3 4 5 6 
#
# 1 0.022101 -0.001505 -0.000744 0.000000 0.000000 0.000000
# 2 -0.001505 0.030559 -0.019594 0.000000 0.000000 0.000000
# 3 -0.000744 -0.019594 0.020375 0.000000 0.000000 0.000000
# 4 0.000000 0.000000 0.000000 0.038368 0.000000 0.000000
# 5 0.000000 0.000000 0.000000 0.000000 0.046895 0.000000
# 6 0.000000 0.000000 0.000000 0.000000 0.000000 0.255626
#
#
# Mechanical properties :
#
#
# Convention : Reuss Voigt Hill
#
# Bulk Modulus (GPa) = 34.07152 52.12104 43.09628
# Shear Modulus (GPa) = 10.69763 20.96422 15.83092
#
# Velocity S-wave (km/s) = 2.24461 3.14222 2.73056
# Velocity P-wave (km/s) = 4.77121 6.14104 5.49895
#
# Compressibility (1/GPa) = 0.02935003
#
# Stress axis : x y z
#
# Youngs Moduli (GPa) = 45.24780 32.72331 49.07856
#
# Poissons Ratio (x) = 0.04923 0.03651
# Poissons Ratio (y) = 0.06808 0.96165
# Poissons Ratio (z) = 0.03366 0.64118
#
# Static dielectric constant tensor:
#      x y z
#    x 1.822320 0.000000 0.000000 
#    y 0.000000 1.739850 0.000000 
#    z 0.000000 0.000000 1.770890 
# 
# From -- ./inp_files/73429.got.cif
#   From: 2010.05.17/outbox.cif.g08.bks.cpg/sg74_37_cif.got.tgz:73429.got - 2010.06.03 17:57:02.
