data_PCOD9536057
_publ_section_title
;
Structure prediction by ZEFSAII (Michael W. Deem and Ramdas Pophale) SiO2 
 PCOD9536057
Probable space group: I M M A
;
_chemical_formula_sum "Si O2"
_cell_formula_units_Z 112
_cell_length_a 14.780892
_cell_length_b 36.194644
_cell_length_c 9.648662
_cell_angle_alpha 90.000000
_cell_angle_beta 90.000000
_cell_angle_gamma 90.000000
_cell_volume 5161.929231
_symmetry_space_group_name_H-M "I M M A"
_symmetry_group_IT_number 74
_symmetry_cell_setting 'orthorhombic'
loop_
_space_group_symop_operation_xyz
x,y,z
-x,1/2-y,z
x,-y,-z
-x,1/2+y,-z
-x,-y,-z
x,1/2+y,-z
-x,y,z
x,1/2-y,z
1/2+x,1/2+y,1/2+z
1/2-x,-y,1/2+z
1/2+x,1/2-y,1/2-z
1/2-x,y,1/2-z
1/2-x,1/2-y,1/2-z
1/2+x,y,1/2-z
1/2-x,1/2+y,1/2+z
1/2+x,-y,1/2+z
loop_
_atom_site_type_symbol
_atom_site_label
_atom_site_fract_x
_atom_site_fract_y
_atom_site_fract_z
Si Si1 0.601964 0.289834 0.433627
Si Si2 0.270113 0.532287 0.907854
Si Si3 0.609435 0.290896 0.867113
Si Si4 0.110109 0.850183 0.141035
Si Si5 0.840281 0.816348 0.659751
Si Si6 0.395470 0.600141 0.826134
Si Si7 0.105791 0.422301 0.004701
O O1 0.500000 0.287281 0.491889
O O2 0.646276 0.250000 0.454280
O O3 0.642286 0.324650 0.513246
O O4 0.593664 0.298469 0.272334
O O5 0.250000 0.520027 0.750000
O O6 0.332881 0.568451 0.890810
O O7 0.176738 0.544683 0.981810
O O8 0.312248 0.500000 0.000000
O O9 0.500000 0.292820 0.882633
O O10 0.629930 0.250000 0.807228
O O11 0.636733 0.325932 0.773430
O O12 0.653753 0.295213 0.016620
O O13 0.000000 0.852670 0.140937
O O14 0.137687 0.892035 0.108200
O O15 0.750000 0.813417 0.750000
O O16 0.863467 0.859081 0.634570
O O17 0.500000 0.595177 0.866202
O O18 0.390689 0.596509 0.658249
O O19 0.000000 0.432466 0.981202
#
# Coordination Sequence:
#
# PCOD9536057 Si02
#       7
#    16  16  16  16  16  16  16
#     4  10  19  32  55  83 110 150 204 254 297 353
#     4  10  22  41  64  93 131 164 196 247 309 374
#     4  10  21  37  56  83 123 166 206 257 315 363
#     4   9  17  33  58  85 116 158 208 254 298 355
#     4  12  23  36  57  83 117 158 203 256 313 372
#     4  10  20  38  66  92 116 157 211 262 311 363
#     4   9  17  34  64  95 125 165 210 251 299 367
#
# _framework density 21.697313999999999
#
# number of rings (size 3 to 8) (size 9 to 14) (size 15 to 20)
#    0.000    2.000    1.429    3.429    0.000    4.571 
#    2.571    0.714    0.000    1.714    0.000    0.000 
#    0.000    0.000    0.000    0.000    0.000    0.000 
#
# Total GULP energy -312627.997287 kJ/mol
# GULP energy per Si atom -5582.642809 kJ/mol
# Density = 2.164793 g / cm^3
# Si number density = 21.697314 Si / 1000 Ang^3
#
#
#
# Elastic Constant Matrix: (Units=GPa)
#
#
# Indices 1 2 3 4 5 6 
#
# 1 81.4578 19.3332 13.0887 -0.0030 0.0011 0.0006
# 2 19.3332 79.0918 27.4979 0.0022 0.0018 -0.0009
# 3 13.0887 27.4979 84.2688 0.0029 -0.0111 0.0029
# 4 -0.0030 0.0022 0.0029 10.4743 0.0035 0.0051
# 5 0.0011 0.0018 -0.0111 0.0035 -67.1244 -0.0042
# 6 0.0006 -0.0009 0.0029 0.0051 -0.0042 27.5276
#
#
#
# Elastic Compliance Matrix: (Units=1/GPa)
#
#
# Indices 1 2 3 4 5 6 
#
# 1 0.013125 -0.002819 -0.001119 0.000005 0.000000 0.000000
# 2 -0.002819 0.014867 -0.004413 -0.000003 0.000001 0.000001
# 3 -0.001119 -0.004413 0.013481 -0.000003 -0.000002 -0.000002
# 4 0.000005 -0.000003 -0.000003 0.095472 0.000005 -0.000018
# 5 0.000000 0.000001 -0.000002 0.000005 -0.014898 -0.000002
# 6 0.000000 0.000001 -0.000002 -0.000018 -0.000002 0.036327
#
#
# Mechanical properties :
#
#
# Convention : Reuss Voigt Hill
#
# Bulk Modulus (GPa) = 40.37119 40.51756 40.44438
# Shear Modulus (GPa) = 27.27260 6.50206 16.88733
#
# Velocity S-wave (km/s) = 3.54921 1.73298 2.79285
# Velocity P-wave (km/s) = 5.95338 4.76643 5.39266
#
# Compressibility (1/GPa) = 0.02477014
#
# Stress axis : x y z
#
# Youngs Moduli (GPa) = 76.18939 67.26247 74.18022
#
# Poissons Ratio (x) = 0.18964 0.08298
# Poissons Ratio (y) = 0.21481 0.32739
# Poissons Ratio (z) = 0.08523 0.29686
#
# Static dielectric constant tensor:
#      x y z
#    x 2.034080 0.000000 0.000000 
#    y 0.000000 1.773610 0.000000 
#    z 0.000000 0.000000 1.789250 
# 
# From -- ./inp_files/21171.got.cif
#   From: 2010.05.17/outbox.cif.g08.bks.cpg/sg74_11_cif.got.tgz:21171.got - 2010.06.03 17:57:02.
