data_PCOD9536715
_publ_section_title
;
Structure prediction by ZEFSAII (Michael W. Deem and Ramdas Pophale) SiO2 
 PCOD9536715
Probable space group: I M M A
;
_chemical_formula_sum "Si O2"
_cell_formula_units_Z 88
_cell_length_a 14.790470
_cell_length_b 20.180758
_cell_length_c 12.966737
_cell_angle_alpha 90.000000
_cell_angle_beta 90.000000
_cell_angle_gamma 90.000000
_cell_volume 3870.349209
_symmetry_space_group_name_H-M "I M M A"
_symmetry_group_IT_number 74
_symmetry_cell_setting 'orthorhombic'
loop_
_space_group_symop_operation_xyz
x,y,z
-x,1/2-y,z
x,-y,-z
-x,1/2+y,-z
-x,-y,-z
x,1/2+y,-z
-x,y,z
x,1/2-y,z
1/2+x,1/2+y,1/2+z
1/2-x,-y,1/2+z
1/2+x,1/2-y,1/2-z
1/2-x,y,1/2-z
1/2-x,1/2-y,1/2-z
1/2+x,y,1/2-z
1/2-x,1/2+y,1/2+z
1/2+x,-y,1/2+z
loop_
_atom_site_type_symbol
_atom_site_label
_atom_site_fract_x
_atom_site_fract_y
_atom_site_fract_z
Si Si1 0.111413 0.250000 0.160086
Si Si2 0.889481 0.379426 0.539327
Si Si3 0.888896 0.250000 0.925018
Si Si4 0.892095 0.634405 0.691282
Si Si5 0.744553 0.500000 0.000000
Si Si6 0.101910 0.354699 0.764390
Si Si7 0.341129 0.497512 0.704673
O O1 0.142277 0.185873 0.224160
O O2 0.000000 0.250000 0.160107
O O3 0.143208 0.250000 0.042599
O O4 0.870660 0.347651 0.427241
O O5 0.824869 0.443398 0.535772
O O6 0.864911 0.344867 0.647242
O O7 0.000000 0.393608 0.542829
O O8 0.857372 0.186576 0.858520
O O9 0.000000 0.250000 0.934786
O O10 0.866154 0.559754 0.724234
O O11 0.000000 0.636271 0.697150
O O12 0.812164 0.521407 0.908405
O O13 0.097693 0.432846 0.791492
O O14 0.000000 0.329513 0.758800
O O15 0.250000 0.467483 0.750000
#
# Coordination Sequence:
#
# PCOD9536715 Si02
#       7
#     8  16   8  16   8  16  16
#     4   9  20  39  60  83 119 157 194 238 289 348
#     4  10  19  35  62  88 116 151 196 246 290 340
#     4   9  20  39  60  83 119 157 194 238 289 348
#     4  10  21  39  62  89 116 153 198 242 291 345
#     4  12  23  36  55  86 128 156 190 236 301 342
#     4  10  21  39  62  89 116 153 198 242 291 345
#     4  12  23  37  59  87 124 155 194 238 293 351
#
# _framework density 22.736965999999999
#
# number of rings (size 3 to 8) (size 9 to 14) (size 15 to 20)
#    0.000    1.636    3.636    0.818    2.545    3.636 
#    0.000    5.455    0.000    0.000    0.000    0.000 
#    0.000    0.000    0.000    0.000    0.000    0.000 
#
# Total GULP energy -245288.496900 kJ/mol
# GULP energy per Si atom -5574.738566 kJ/mol
# Density = 2.268522 g / cm^3
# Si number density = 22.736966 Si / 1000 Ang^3
#
#
#
# Elastic Constant Matrix: (Units=GPa)
#
#
# Indices 1 2 3 4 5 6 
#
# 1 41.5449 11.4548 31.3488 0.0000 0.0000 0.0000
# 2 11.4548 107.7433 71.6419 0.0000 0.0000 0.0000
# 3 31.3488 71.6419 216.9733 0.0000 0.0000 0.0001
# 4 0.0000 0.0000 0.0000 36.4628 0.0000 0.0000
# 5 0.0000 0.0000 0.0000 0.0000 25.0269 0.0000
# 6 0.0000 0.0000 0.0001 0.0000 0.0000 202.9192
#
#
#
# Elastic Compliance Matrix: (Units=1/GPa)
#
#
# Indices 1 2 3 4 5 6 
#
# 1 0.027026 -0.000355 -0.003788 0.000000 0.000000 0.000000
# 2 -0.000355 0.011897 -0.003877 0.000000 0.000000 0.000000
# 3 -0.003788 -0.003877 0.006436 0.000000 0.000000 0.000000
# 4 0.000000 0.000000 0.000000 0.027425 0.000000 0.000000
# 5 0.000000 0.000000 0.000000 0.000000 0.039957 0.000000
# 6 0.000000 0.000000 0.000000 0.000000 0.000000 0.004928
#
#
# Mechanical properties :
#
#
# Convention : Reuss Voigt Hill
#
# Bulk Modulus (GPa) = 34.10571 66.12804 50.11687
# Shear Modulus (GPa) = 34.84755 69.66951 52.25853
#
# Velocity S-wave (km/s) = 3.91914 5.54148 4.79936
# Velocity P-wave (km/s) = 5.95921 8.37204 7.26648
#
# Compressibility (1/GPa) = 0.02932061
#
# Stress axis : x y z
#
# Youngs Moduli (GPa) = 37.00112 84.05509 155.37018
#
# Poissons Ratio (x) = 0.02982 0.58849
# Poissons Ratio (y) = 0.01313 0.60237
# Poissons Ratio (z) = 0.14015 0.32588
#
# Static dielectric constant tensor:
#      x y z
#    x 1.840010 0.000000 0.000000 
#    y 0.000000 1.857590 0.000000 
#    z 0.000000 0.000000 1.891480 
# 
# From -- ./inp_files/22248.got.cif
#   From: 2010.05.17/outbox.cif.g08.bks.cpg/sg74_12_cif.got.tgz:22248.got - 2010.06.03 17:57:02.
