data_PCOD9536383
_publ_section_title
;
Structure prediction by ZEFSAII (Michael W. Deem and Ramdas Pophale) SiO2 
 PCOD9536383
Probable space group: I M M A
;
_chemical_formula_sum "Si O2"
_cell_formula_units_Z 104
_cell_length_a 19.531232
_cell_length_b 9.549904
_cell_length_c 30.720135
_cell_angle_alpha 90.000000
_cell_angle_beta 90.000000
_cell_angle_gamma 90.000000
_cell_volume 5729.962300
_symmetry_space_group_name_H-M "I M M A"
_symmetry_group_IT_number 74
_symmetry_cell_setting 'orthorhombic'
loop_
_space_group_symop_operation_xyz
x,y,z
-x,1/2-y,z
x,-y,-z
-x,1/2+y,-z
-x,-y,-z
x,1/2+y,-z
-x,y,z
x,1/2-y,z
1/2+x,1/2+y,1/2+z
1/2-x,-y,1/2+z
1/2+x,1/2-y,1/2-z
1/2-x,y,1/2-z
1/2-x,1/2-y,1/2-z
1/2+x,y,1/2-z
1/2-x,1/2+y,1/2+z
1/2+x,-y,1/2+z
loop_
_atom_site_type_symbol
_atom_site_label
_atom_site_fract_x
_atom_site_fract_y
_atom_site_fract_z
Si Si1 0.578140 0.592358 0.428313
Si Si2 0.830480 0.085489 0.239558
Si Si3 0.920078 0.085979 0.692770
Si Si4 0.681566 0.000000 0.500000
Si Si5 0.423819 0.580421 0.897822
Si Si6 0.779428 0.913274 0.576564
Si Si7 0.662682 0.081205 0.361760
O O1 0.500000 0.561608 0.441504
O O2 0.580525 0.750000 0.410630
O O3 0.629928 0.585017 0.469043
O O4 0.604321 0.486226 0.391638
O O5 0.849307 0.250000 0.245877
O O6 0.750000 0.073654 0.250000
O O7 0.841916 0.048201 0.188993
O O8 0.873397 0.987088 0.271202
O O9 0.902751 0.250000 0.686016
O O10 0.000000 0.079517 0.706018
O O11 0.914499 0.996907 0.648313
O O12 0.732795 0.072854 0.466062
O O13 0.500000 0.543491 0.914730
O O14 0.423655 0.750000 0.892199
O O15 0.357464 0.535097 0.925837
O O16 0.786252 0.750000 0.585916
O O17 0.734170 0.971450 0.616634
O O18 0.660132 0.250000 0.365811
#
# Coordination Sequence:
#
# PCOD9536383 Si02
#       7
#    16  16  16   8  16  16  16
#     4  10  21  36  54  76 102 133 170 212 256 303
#     4  10  20  35  55  78 104 137 179 222 260 304
#     4  10  21  35  51  75 107 140 174 214 260 308
#     4  10  19  34  53  76 104 134 166 204 253 310
#     4   9  17  32  55  78 100 132 173 212 251 299
#     4   9  17  32  53  75 100 130 166 208 251 299
#     4   9  19  34  52  74 101 134 170 209 254 301
#
# _framework density 18.150207000000002
#
# number of rings (size 3 to 8) (size 9 to 14) (size 15 to 20)
#    0.000    2.462    0.000    2.077    0.000    5.846 
#    0.000   10.385    0.000    0.000    0.000    0.000 
#    0.000    0.000    0.000    0.000    0.000    0.000 
#
# Total GULP energy -289564.450985 kJ/mol
# GULP energy per Si atom -5568.547134 kJ/mol
# Density = 1.810890 g / cm^3
# Si number density = 18.150207 Si / 1000 Ang^3
#
#
#
# Elastic Constant Matrix: (Units=GPa)
#
#
# Indices 1 2 3 4 5 6 
#
# 1 140.0970 26.4834 43.0247 0.0000 0.0000 0.0000
# 2 26.4834 25.9875 8.7639 0.0000 0.0000 0.0000
# 3 43.0247 8.7639 51.4933 0.0000 0.0000 0.0000
# 4 0.0000 0.0000 0.0000 -0.8680 0.0000 0.0000
# 5 0.0000 0.0000 0.0000 0.0000 19.5261 0.0000
# 6 0.0000 0.0000 0.0000 0.0000 0.0000 -124.8168
#
#
#
# Elastic Compliance Matrix: (Units=1/GPa)
#
#
# Indices 1 2 3 4 5 6 
#
# 1 0.011216 -0.008773 -0.007878 0.000000 0.000000 0.000000
# 2 -0.008773 0.047685 -0.000786 0.000000 0.000000 0.000000
# 3 -0.007878 -0.000786 0.026136 0.000000 0.000000 0.000000
# 4 0.000000 0.000000 0.000000 -1.152115 0.000000 0.000000
# 5 0.000000 0.000000 0.000000 0.000000 0.051214 0.000000
# 6 0.000000 0.000000 0.000000 0.000000 0.000000 -0.008012
#
#
# Mechanical properties :
#
#
# Convention : Reuss Voigt Hill
#
# Bulk Modulus (GPa) = 19.93462 41.56909 30.75185
# Shear Modulus (GPa) = -5.14255 -11.94469 -8.54362
#
# Velocity S-wave (km/s) = -1.68507 -2.56813 -2.17196
# Velocity P-wave (km/s) = 2.68719 3.76282 3.26954
#
# Compressibility (1/GPa) = 0.05016399
#
# Stress axis : x y z
#
# Youngs Moduli (GPa) = 89.16028 20.97074 38.26110
#
# Poissons Ratio (x) = 0.18398 0.30142
# Poissons Ratio (y) = 0.78221 0.03006
# Poissons Ratio (z) = 0.70241 0.01647
#
# Static dielectric constant tensor:
#      x y z
#    x 1.662520 0.000000 0.000000 
#    y 0.000000 1.618550 0.000000 
#    z 0.000000 0.000000 1.606630 
# 
# From -- ./inp_files/73373.got.cif
#   From: 2010.05.17/outbox.cif.g08.bks.cpg/sg74_37_cif.got.tgz:73373.got - 2010.06.03 17:57:02.
