data_PCOD9536081
_publ_section_title
;
Structure prediction by ZEFSAII (Michael W. Deem and Ramdas Pophale) SiO2 
 PCOD9536081
Probable space group: I M M A
;
_chemical_formula_sum "Si O2"
_cell_formula_units_Z 88
_cell_length_a 16.150612
_cell_length_b 22.199318
_cell_length_c 14.272295
_cell_angle_alpha 90.000000
_cell_angle_beta 90.000000
_cell_angle_gamma 90.000000
_cell_volume 5117.082630
_symmetry_space_group_name_H-M "I M M A"
_symmetry_group_IT_number 74
_symmetry_cell_setting 'orthorhombic'
loop_
_space_group_symop_operation_xyz
x,y,z
-x,1/2-y,z
x,-y,-z
-x,1/2+y,-z
-x,-y,-z
x,1/2+y,-z
-x,y,z
x,1/2-y,z
1/2+x,1/2+y,1/2+z
1/2-x,-y,1/2+z
1/2+x,1/2-y,1/2-z
1/2-x,y,1/2-z
1/2-x,1/2-y,1/2-z
1/2+x,y,1/2-z
1/2-x,1/2+y,1/2+z
1/2+x,-y,1/2+z
loop_
_atom_site_type_symbol
_atom_site_label
_atom_site_fract_x
_atom_site_fract_y
_atom_site_fract_z
Si Si1 0.840758 0.960145 0.748058
Si Si2 0.332524 0.750000 0.681874
Si Si3 0.094903 0.750000 0.625035
Si Si4 0.500000 0.068696 0.959092
Si Si5 0.341614 0.375287 0.429100
Si Si6 0.000000 0.544401 0.247329
Si Si7 0.000000 0.428462 0.966986
Si Si8 0.342034 0.878485 0.938094
O O1 0.750000 0.990171 0.750000
O O2 0.845889 0.918888 0.839444
O O3 0.845333 0.917455 0.657330
O O4 0.917568 0.004113 0.748990
O O5 0.250000 0.750000 0.750000
O O6 0.402106 0.750000 0.762121
O O7 0.340179 0.691416 0.616406
O O8 0.139940 0.809610 0.588704
O O9 0.000000 0.750000 0.593362
O O10 0.500000 0.076795 0.847394
O O11 0.416293 0.098315 0.998148
O O12 0.500000 0.000000 0.000000
O O13 0.418851 0.394730 0.492481
O O14 0.251407 0.384660 0.476190
O O15 0.000000 0.575044 0.145709
O O16 0.000000 0.500000 0.000000
#
# Coordination Sequence:
#
# PCOD9536081 Si02
#       8
#    16   8   8   8  16   8   8  16
#     4  10  19  32  59  88 119 155 192 244 305 369
#     4  12  20  36  62 102 131 159 188 261 324 384
#     4  12  22  32  60  93 132 154 185 235 319 383
#     4  12  24  37  59  85 113 155 208 261 307 356
#     4  11  22  37  60  90 130 161 198 243 310 390
#     4  12  24  42  54  78 122 154 214 260 288 350
#     4  12  26  41  59  83 121 177 218 247 299 372
#     4  11  21  37  57  93 124 155 191 245 320 377
#
# _framework density 17.197299000000001
#
# number of rings (size 3 to 8) (size 9 to 14) (size 15 to 20)
#    0.000    0.727    8.182    0.545    1.273    2.182 
#    0.000    0.000    0.000    2.182    0.000    2.545 
#    0.000    0.000    0.000    0.000    0.000    0.000 
#
# Total GULP energy -245506.884594 kJ/mol
# GULP energy per Si atom -5579.701923 kJ/mol
# Density = 1.715816 g / cm^3
# Si number density = 17.197299 Si / 1000 Ang^3
#
#
#
# Elastic Constant Matrix: (Units=GPa)
#
#
# Indices 1 2 3 4 5 6 
#
# 1 194.2678 63.9680 72.6054 0.0000 0.0000 0.0000
# 2 63.9680 74.3725 38.2043 0.0000 0.0000 0.0000
# 3 72.6054 38.2043 110.7021 0.0000 0.0000 0.0000
# 4 0.0000 0.0000 0.0000 25.7923 0.0000 0.0000
# 5 0.0000 0.0000 0.0000 0.0000 6.6353 0.0000
# 6 0.0000 0.0000 0.0000 0.0000 0.0000 54.8361
#
#
#
# Elastic Compliance Matrix: (Units=1/GPa)
#
#
# Indices 1 2 3 4 5 6 
#
# 1 0.008203 -0.005217 -0.003580 0.000000 0.000000 0.000000
# 2 -0.005217 0.019661 -0.003364 0.000000 0.000000 0.000000
# 3 -0.003580 -0.003364 0.012542 0.000000 0.000000 0.000000
# 4 0.000000 0.000000 0.000000 0.038771 0.000000 0.000000
# 5 0.000000 0.000000 0.000000 0.000000 0.150709 0.000000
# 6 0.000000 0.000000 0.000000 0.000000 0.000000 0.018236
#
#
# Mechanical properties :
#
#
# Convention : Reuss Voigt Hill
#
# Bulk Modulus (GPa) = 62.16801 80.98863 71.57832
# Shear Modulus (GPa) = 17.99828 31.09039 24.54433
#
# Velocity S-wave (km/s) = 3.23859 4.25651 3.78196
# Velocity P-wave (km/s) = 7.08611 8.44708 7.79635
#
# Compressibility (1/GPa) = 0.01608544
#
# Stress axis : x y z
#
# Youngs Moduli (GPa) = 121.90380 50.86330 79.73232
#
# Poissons Ratio (x) = 0.26534 0.28543
# Poissons Ratio (y) = 0.63593 0.26819
# Poissons Ratio (z) = 0.43640 0.17108
#
# Static dielectric constant tensor:
#      x y z
#    x 1.662830 0.000000 0.000000 
#    y 0.000000 1.572440 0.000000 
#    z 0.000000 0.000000 1.570210 
# 
# From -- ./inp_files/32280.got.cif
#   From: 2010.05.17/outbox.cif.g08.bks.cpg/sg74_17_cif.got.tgz:32280.got - 2010.06.03 17:57:02.
