data_PCOD9536807
_publ_section_title
;
Structure prediction by ZEFSAII (Michael W. Deem and Ramdas Pophale) SiO2 
 PCOD9536807
Probable space group: I M M A
;
_chemical_formula_sum "Si O2"
_cell_formula_units_Z 64
_cell_length_a 15.992065
_cell_length_b 18.109467
_cell_length_c 10.589908
_cell_angle_alpha 90.000000
_cell_angle_beta 90.000000
_cell_angle_gamma 90.000000
_cell_volume 3066.919676
_symmetry_space_group_name_H-M "I M M A"
_symmetry_group_IT_number 74
_symmetry_cell_setting 'orthorhombic'
loop_
_space_group_symop_operation_xyz
x,y,z
-x,1/2-y,z
x,-y,-z
-x,1/2+y,-z
-x,-y,-z
x,1/2+y,-z
-x,y,z
x,1/2-y,z
1/2+x,1/2+y,1/2+z
1/2-x,-y,1/2+z
1/2+x,1/2-y,1/2-z
1/2-x,y,1/2-z
1/2-x,1/2-y,1/2-z
1/2+x,y,1/2-z
1/2-x,1/2+y,1/2+z
1/2+x,-y,1/2+z
loop_
_atom_site_type_symbol
_atom_site_label
_atom_site_fract_x
_atom_site_fract_y
_atom_site_fract_z
Si Si1 0.590743 0.088852 0.497976
Si Si2 0.649994 0.163086 0.749639
Si Si3 0.904080 0.662339 0.535913
Si Si4 0.758800 0.940133 0.611595
O O1 0.500000 0.116129 0.452275
O O2 0.607244 0.117302 0.639020
O O3 0.674232 0.105634 0.419178
O O4 0.587596 0.000000 0.500000
O O5 0.635806 0.250000 0.724086
O O6 0.750000 0.151386 0.750000
O O7 0.613309 0.146898 0.887478
O O8 0.890618 0.750000 0.554512
O O9 0.837941 0.613341 0.609906
O O10 0.000000 0.644811 0.566262
O O11 0.750000 0.975092 0.750000
O O12 0.768570 0.000000 0.500000
#
# Coordination Sequence:
#
# PCOD9536807 Si02
#       4
#    16  16  16  16
#     4  10  22  37  58  89 130 171 212 263 319 378
#     4  10  19  36  65  98 131 170 217 268 324 386
#     4  10  22  41  67  98 132 170 217 271 325 387
#     4  11  26  43  66  95 134 174 218 267 325 387
#
# _framework density 20.867843000000001
#
# number of rings (size 3 to 8) (size 9 to 14) (size 15 to 20)
#    0.000    1.750    2.500    0.750    7.000    3.500 
#    0.000    0.000    0.000    0.000    0.000    0.000 
#    0.000    0.000    0.000    0.000    0.000    0.000 
#
# Total GULP energy -178808.899719 kJ/mol
# GULP energy per Si atom -5587.778116 kJ/mol
# Density = 2.082035 g / cm^3
# Si number density = 20.867843 Si / 1000 Ang^3
#
#
#
# Elastic Constant Matrix: (Units=GPa)
#
#
# Indices 1 2 3 4 5 6 
#
# 1 154.4387 40.5624 28.5341 0.0000 0.0000 0.0000
# 2 40.5624 58.5409 49.0801 0.0000 0.0000 0.0000
# 3 28.5341 49.0801 105.2238 0.0000 0.0000 0.0000
# 4 0.0000 0.0000 0.0000 33.2152 0.0000 0.0000
# 5 0.0000 0.0000 0.0000 0.0000 16.6095 0.0000
# 6 0.0000 0.0000 0.0000 0.0000 0.0000 15.4471
#
#
#
# Elastic Compliance Matrix: (Units=1/GPa)
#
#
# Indices 1 2 3 4 5 6 
#
# 1 0.007945 -0.006074 0.000679 0.000000 0.000000 0.000000
# 2 -0.006074 0.032695 -0.013603 0.000000 0.000000 0.000000
# 3 0.000679 -0.013603 0.015665 0.000000 0.000000 0.000000
# 4 0.000000 0.000000 0.000000 0.030107 0.000000 0.000000
# 5 0.000000 0.000000 0.000000 0.000000 0.060206 0.000000
# 6 0.000000 0.000000 0.000000 0.000000 0.000000 0.064737
#
#
# Mechanical properties :
#
#
# Convention : Reuss Voigt Hill
#
# Bulk Modulus (GPa) = 54.62123 61.61739 58.11931
# Shear Modulus (GPa) = 19.57294 26.38949 22.98122
#
# Velocity S-wave (km/s) = 3.06592 3.55998 3.32215
# Velocity P-wave (km/s) = 6.22614 6.81832 6.52895
#
# Compressibility (1/GPa) = 0.01830790
#
# Stress axis : x y z
#
# Youngs Moduli (GPa) = 125.86606 30.58540 63.83852
#
# Poissons Ratio (x) = 0.18577 -0.04332
# Poissons Ratio (y) = 0.76450 0.86841
# Poissons Ratio (z) = -0.08541 0.41606
#
# Static dielectric constant tensor:
#      x y z
#    x 1.784810 0.000000 0.000000 
#    y 0.000000 1.737020 0.000000 
#    z 0.000000 0.000000 1.741980 
# 
# From -- ./inp_files/13286.got.cif
#   From: 2010.05.17/outbox.cif.g08.bks.cpg/sg74_7_cif.got.tgz:13286.got - 2010.06.03 17:57:02.
