data_PCOD9536894
_publ_section_title
;
Structure prediction by ZEFSAII (Michael W. Deem and Ramdas Pophale) SiO2 
 PCOD9536894
Probable space group: I M M A
;
_chemical_formula_sum "Si O2"
_cell_formula_units_Z 120
_cell_length_a 15.406005
_cell_length_b 29.338278
_cell_length_c 13.663521
_cell_angle_alpha 90.000000
_cell_angle_beta 90.000000
_cell_angle_gamma 90.000000
_cell_volume 6175.715524
_symmetry_space_group_name_H-M "I M M A"
_symmetry_group_IT_number 74
_symmetry_cell_setting 'orthorhombic'
loop_
_space_group_symop_operation_xyz
x,y,z
-x,1/2-y,z
x,-y,-z
-x,1/2+y,-z
-x,-y,-z
x,1/2+y,-z
-x,y,z
x,1/2-y,z
1/2+x,1/2+y,1/2+z
1/2-x,-y,1/2+z
1/2+x,1/2-y,1/2-z
1/2-x,y,1/2-z
1/2-x,1/2-y,1/2-z
1/2+x,y,1/2-z
1/2-x,1/2+y,1/2+z
1/2+x,-y,1/2+z
loop_
_atom_site_type_symbol
_atom_site_label
_atom_site_fract_x
_atom_site_fract_y
_atom_site_fract_z
Si Si1 0.818382 0.544787 0.062135
Si Si2 0.750000 0.845970 0.250000
Si Si3 0.772316 0.802310 0.039467
Si Si4 0.900855 0.995085 0.256726
Si Si5 0.601634 0.376380 0.442746
Si Si6 0.598626 0.342731 0.039471
Si Si7 0.894910 0.596549 0.722308
Si Si8 0.856551 0.410174 0.625745
O O1 0.849054 0.526193 0.166679
O O2 0.734357 0.575665 0.077376
O O3 0.799109 0.500000 0.000000
O O4 0.885607 0.577472 0.006111
O O5 0.769542 0.816607 0.153858
O O6 0.830173 0.878589 0.281697
O O7 0.798460 0.750000 0.028440
O O8 0.838303 0.836791 0.986523
O O9 0.675115 0.809457 0.995997
O O10 0.899012 0.956948 0.340229
O O11 0.000000 0.002171 0.223551
O O12 0.865423 0.044134 0.290634
O O13 0.500000 0.363828 0.443521
O O14 0.628661 0.387499 0.331148
O O15 0.500000 0.324479 0.053648
O O16 0.630746 0.368852 0.137033
O O17 0.594289 0.380514 0.953622
O O18 0.000000 0.595871 0.716428
#
# Coordination Sequence:
#
# PCOD9536894 Si02
#       8
#    16   8  16  16  16  16  16  16
#     4  12  22  35  56  90 128 166 207 249 297 353
#     4  10  19  40  62  84 122 156 186 248 309 354
#     4  11  24  43  67  94 119 151 200 255 315 377
#     4  11  21  33  54  83 119 164 213 250 291 357
#     4  11  22  41  64  88 126 164 201 252 307 359
#     4  10  22  42  64  85 120 160 201 253 310 364
#     4   9  21  38  57  86 121 162 207 253 297 350
#     4  11  21  37  55  88 123 164 204 246 300 357
#
# _framework density 19.430947
#
# number of rings (size 3 to 8) (size 9 to 14) (size 15 to 20)
#    0.000    1.333    5.333    1.000    1.867    1.600 
#    2.400    6.000    0.000    5.600    0.000    0.000 
#    0.000    0.000    0.000    0.000    0.000    0.000 
#
# Total GULP energy -335034.098055 kJ/mol
# GULP energy per Si atom -5583.901634 kJ/mol
# Density = 1.938672 g / cm^3
# Si number density = 19.430947 Si / 1000 Ang^3
#
#
#
# Elastic Constant Matrix: (Units=GPa)
#
#
# Indices 1 2 3 4 5 6 
#
# 1 63.8591 9.3448 3.6598 0.0000 0.0000 0.0000
# 2 9.3448 92.5181 31.8863 0.0000 0.0000 0.0000
# 3 3.6598 31.8863 70.5172 0.0000 0.0000 -0.0001
# 4 0.0000 0.0000 0.0000 18.6684 0.0000 0.0000
# 5 0.0000 0.0000 0.0000 0.0000 17.5258 0.0000
# 6 0.0000 0.0000 -0.0001 0.0000 0.0000 20.1981
#
#
#
# Elastic Compliance Matrix: (Units=1/GPa)
#
#
# Indices 1 2 3 4 5 6 
#
# 1 0.015895 -0.001565 -0.000117 0.000000 0.000000 0.000000
# 2 -0.001565 0.012958 -0.005778 0.000000 0.000000 0.000000
# 3 -0.000117 -0.005778 0.016800 0.000000 0.000000 0.000000
# 4 0.000000 0.000000 0.000000 0.053566 0.000000 0.000000
# 5 0.000000 0.000000 0.000000 0.000000 0.057059 0.000000
# 6 0.000000 0.000000 0.000000 0.000000 0.000000 0.049510
#
#
# Mechanical properties :
#
#
# Convention : Reuss Voigt Hill
#
# Bulk Modulus (GPa) = 32.53917 35.18623 33.86270
# Shear Modulus (GPa) = 21.64942 23.41204 22.53073
#
# Velocity S-wave (km/s) = 3.34154 3.47491 3.40888
# Velocity P-wave (km/s) = 5.62764 5.85215 5.74099
#
# Compressibility (1/GPa) = 0.03073219
#
# Stress axis : x y z
#
# Youngs Moduli (GPa) = 62.91198 77.17098 59.52451
#
# Poissons Ratio (x) = 0.12078 0.00698
# Poissons Ratio (y) = 0.09846 0.34394
# Poissons Ratio (z) = 0.00738 0.44591
#
# Static dielectric constant tensor:
#      x y z
#    x 1.690790 0.000000 0.000000 
#    y 0.000000 1.661290 0.000000 
#    z 0.000000 0.000000 1.680590 
# 
# From -- ./inp_files/33217.got.cif
#   From: 2010.05.17/outbox.cif.g08.bks.cpg/sg74_17_cif.got.tgz:33217.got - 2010.06.03 17:57:02.
