data_PCOD9536484
_publ_section_title
;
Structure prediction by ZEFSAII (Michael W. Deem and Ramdas Pophale) SiO2 
 PCOD9536484
Probable space group: I M M A
;
_chemical_formula_sum "Si O2"
_cell_formula_units_Z 72
_cell_length_a 8.089415
_cell_length_b 27.728734
_cell_length_c 17.133723
_cell_angle_alpha 90.000000
_cell_angle_beta 90.000000
_cell_angle_gamma 90.000000
_cell_volume 3843.252329
_symmetry_space_group_name_H-M "I M M A"
_symmetry_group_IT_number 74
_symmetry_cell_setting 'orthorhombic'
loop_
_space_group_symop_operation_xyz
x,y,z
-x,1/2-y,z
x,-y,-z
-x,1/2+y,-z
-x,-y,-z
x,1/2+y,-z
-x,y,z
x,1/2-y,z
1/2+x,1/2+y,1/2+z
1/2-x,-y,1/2+z
1/2+x,1/2-y,1/2-z
1/2-x,y,1/2-z
1/2-x,1/2-y,1/2-z
1/2+x,y,1/2-z
1/2-x,1/2+y,1/2+z
1/2+x,-y,1/2+z
loop_
_atom_site_type_symbol
_atom_site_label
_atom_site_fract_x
_atom_site_fract_y
_atom_site_fract_z
Si Si1 0.750000 0.372850 0.250000
Si Si2 0.000000 0.805985 0.659516
Si Si3 0.500000 0.694289 0.028354
Si Si4 0.700756 0.875633 0.455502
Si Si5 0.314011 0.562711 0.603059
Si Si6 0.197255 0.462942 0.839294
O O1 0.647963 0.336188 0.196679
O O2 0.677164 0.408914 0.315071
O O3 0.000000 0.806886 0.566281
O O4 0.000000 0.750000 0.684115
O O5 0.500000 0.750000 0.053020
O O6 0.330331 0.667840 0.054427
O O7 0.500000 0.863981 0.458308
O O8 0.753212 0.902509 0.536089
O O9 0.730089 0.914866 0.387879
O O10 0.500000 0.552788 0.573912
O O11 0.231234 0.511169 0.619523
O O12 0.250000 0.459851 0.750000
O O13 0.000000 0.469469 0.838664
#
# Coordination Sequence:
#
# PCOD9536484 Si02
#       6
#     8   8   8  16  16  16
#     4  12  19  34  54  80 116 154 195 236 292 338
#     4  11  24  38  53  81 115 155 210 253 287 342
#     4  11  24  42  64  90 115 152 211 263 302 354
#     4  10  22  41  61  88 122 161 197 246 305 361
#     4  10  19  34  56  82 122 160 193 234 289 352
#     4  10  21  36  58  90 121 156 195 242 300 369
#
# _framework density 18.734134000000001
#
# number of rings (size 3 to 8) (size 9 to 14) (size 15 to 20)
#    0.000    1.556    4.444    1.000    1.556    3.111 
#    2.000    1.111    0.000    0.667    0.000    0.000 
#    0.000    0.000    0.000    0.000    0.000    0.000 
#
# Total GULP energy -200500.417091 kJ/mol
# GULP energy per Si atom -5569.456030 kJ/mol
# Density = 1.869149 g / cm^3
# Si number density = 18.734134 Si / 1000 Ang^3
#
#
#
# Elastic Constant Matrix: (Units=GPa)
#
#
# Indices 1 2 3 4 5 6 
#
# 1 64.1739 69.5051 14.4491 0.0000 0.0000 0.0000
# 2 69.5051 157.4717 37.1523 0.0000 0.0000 0.0000
# 3 14.4491 37.1523 42.0031 0.0000 0.0000 0.0000
# 4 0.0000 0.0000 0.0000 19.7086 0.0000 0.0000
# 5 0.0000 0.0000 0.0000 0.0000 -17.4705 0.0000
# 6 0.0000 0.0000 0.0000 0.0000 0.0000 55.7172
#
#
#
# Elastic Compliance Matrix: (Units=1/GPa)
#
#
# Indices 1 2 3 4 5 6 
#
# 1 0.029957 -0.013637 0.001757 0.000000 0.000000 0.000000
# 2 -0.013637 0.014233 -0.007898 0.000000 0.000000 0.000000
# 3 0.001757 -0.007898 0.030189 0.000000 0.000000 0.000000
# 4 0.000000 0.000000 0.000000 0.050739 0.000000 0.000000
# 5 0.000000 0.000000 0.000000 0.000000 -0.057239 0.000000
# 6 0.000000 0.000000 0.000000 0.000000 0.000000 0.017948
#
#
# Mechanical properties :
#
#
# Convention : Reuss Voigt Hill
#
# Bulk Modulus (GPa) = 28.71677 56.20684 42.46181
# Shear Modulus (GPa) = 36.49886 21.09386 28.79636
#
# Velocity S-wave (km/s) = 4.41869 3.35917 3.92485
# Velocity P-wave (km/s) = 6.43389 6.71661 6.57677
#
# Compressibility (1/GPa) = 0.03482285
#
# Stress axis : x y z
#
# Youngs Moduli (GPa) = 33.38136 70.26030 33.12429
#
# Poissons Ratio (x) = 0.95813 -0.05819
# Poissons Ratio (y) = 0.45522 0.26162
# Poissons Ratio (z) = -0.05865 0.55492
#
# Static dielectric constant tensor:
#      x y z
#    x 1.725570 0.000000 0.000000 
#    y 0.000000 1.653210 0.000000 
#    z 0.000000 0.000000 1.624170 
# 
# From -- ./inp_files/29223.got.cif
#   From: 2010.05.17/outbox.cif.g08.bks.cpg/sg74_15_cif.got.tgz:29223.got - 2010.06.03 17:57:02.
