data_PCOD9536225
_publ_section_title
;
Structure prediction by ZEFSAII (Michael W. Deem and Ramdas Pophale) SiO2 
 PCOD9536225
Probable space group: I M M A
;
_chemical_formula_sum "Si O2"
_cell_formula_units_Z 104
_cell_length_a 28.586669
_cell_length_b 8.390121
_cell_length_c 23.453069
_cell_angle_alpha 90.000000
_cell_angle_beta 90.000000
_cell_angle_gamma 90.000000
_cell_volume 5625.115685
_symmetry_space_group_name_H-M "I M M A"
_symmetry_group_IT_number 74
_symmetry_cell_setting 'orthorhombic'
loop_
_space_group_symop_operation_xyz
x,y,z
-x,1/2-y,z
x,-y,-z
-x,1/2+y,-z
-x,-y,-z
x,1/2+y,-z
-x,y,z
x,1/2-y,z
1/2+x,1/2+y,1/2+z
1/2-x,-y,1/2+z
1/2+x,1/2-y,1/2-z
1/2-x,y,1/2-z
1/2-x,1/2-y,1/2-z
1/2+x,y,1/2-z
1/2-x,1/2+y,1/2+z
1/2+x,-y,1/2+z
loop_
_atom_site_type_symbol
_atom_site_label
_atom_site_fract_x
_atom_site_fract_y
_atom_site_fract_z
Si Si1 0.302446 0.439330 0.738137
Si Si2 0.183359 0.938278 0.642991
Si Si3 0.101361 0.442226 0.565224
Si Si4 0.000000 0.441155 0.565084
Si Si5 0.355223 0.440694 0.624613
Si Si6 0.446611 0.059206 0.435662
Si Si7 0.233168 0.441099 0.062098
O O1 0.297403 0.250000 0.728825
O O2 0.250000 0.506323 0.750000
O O3 0.326770 0.473029 0.798163
O O4 0.332027 0.501205 0.684193
O O5 0.187650 0.750000 0.653686
O O6 0.230947 0.994971 0.611590
O O7 0.142024 0.974298 0.599607
O O8 0.103309 0.500000 0.500000
O O9 0.106286 0.250000 0.567179
O O10 0.050108 0.489481 0.589575
O O11 0.000000 0.500000 0.500000
O O12 0.000000 0.250000 0.563888
O O13 0.357436 0.250000 0.626896
O O14 0.406349 0.502181 0.607344
O O15 0.317887 0.492681 0.576737
O O16 0.500000 0.005835 0.421734
O O17 0.446231 0.250000 0.436381
O O18 0.436202 0.000000 0.500000
O O19 0.232395 0.250000 0.062068
O O20 0.248808 0.500000 0.000000
#
# Coordination Sequence:
#
# PCOD9536225 Si02
#       7
#    16  16  16   8  16  16  16
#     4  10  21  39  60  81 107 145 188 228 273 326
#     4  11  23  36  54  80 109 145 185 228 276 326
#     4  10  19  33  54  79 110 142 179 224 275 331
#     4   8  16  30  50  76 102 136 174 214 263 318
#     4  11  22  37  60  85 112 147 188 233 280 333
#     4  10  21  38  61  89 121 154 188 232 286 344
#     4  11  23  36  52  78 113 148 182 222 272 328
#
# _framework density 18.488509000000001
#
# number of rings (size 3 to 8) (size 9 to 14) (size 15 to 20)
#    0.000    1.692    1.538    3.231    0.000    6.154 
#    0.000    0.000    1.692    0.000    0.000    0.000 
#    0.000    0.000    0.000    0.000    0.000    0.000 
#
# Total GULP energy -290148.525095 kJ/mol
# GULP energy per Si atom -5579.779329 kJ/mol
# Density = 1.844643 g / cm^3
# Si number density = 18.488509 Si / 1000 Ang^3
#
#
#
# Elastic Constant Matrix: (Units=GPa)
#
#
# Indices 1 2 3 4 5 6 
#
# 1 124.5669 17.3287 43.5475 0.0000 0.0000 0.0000
# 2 17.3287 28.9644 9.7247 0.0000 0.0000 0.0000
# 3 43.5475 9.7247 94.1091 0.0000 0.0000 0.0000
# 4 0.0000 0.0000 0.0000 23.7529 0.0000 0.0000
# 5 0.0000 0.0000 0.0000 0.0000 17.4372 0.0000
# 6 0.0000 0.0000 0.0000 0.0000 0.0000 23.7011
#
#
#
# Elastic Compliance Matrix: (Units=1/GPa)
#
#
# Indices 1 2 3 4 5 6 
#
# 1 0.010149 -0.004657 -0.004215 0.000000 0.000000 0.000000
# 2 -0.004657 0.037903 -0.001762 0.000000 0.000000 0.000000
# 3 -0.004215 -0.001762 0.012759 0.000000 0.000000 0.000000
# 4 0.000000 0.000000 0.000000 0.042100 0.000000 0.000000
# 5 0.000000 0.000000 0.000000 0.000000 0.057349 0.000000
# 6 0.000000 0.000000 0.000000 0.000000 0.000000 0.042192
#
#
# Mechanical properties :
#
#
# Convention : Reuss Voigt Hill
#
# Bulk Modulus (GPa) = 25.28901 43.20471 34.24686
# Shear Modulus (GPa) = 21.10596 24.78087 22.94342
#
# Velocity S-wave (km/s) = 3.38238 3.66504 3.52654
# Velocity P-wave (km/s) = 5.38163 6.42877 5.92837
#
# Compressibility (1/GPa) = 0.03954287
#
# Stress axis : x y z
#
# Youngs Moduli (GPa) = 98.52974 26.38335 78.37894
#
# Poissons Ratio (x) = 0.12286 0.33038
# Poissons Ratio (y) = 0.45883 0.13809
# Poissons Ratio (z) = 0.41532 0.04648
#
# Static dielectric constant tensor:
#      x y z
#    x 1.675670 0.000000 0.000000 
#    y 0.000000 1.640590 0.000000 
#    z 0.000000 0.000000 1.637660 
# 
# From -- ./inp_files/62345.got.cif
#   From: 2010.05.17/outbox.cif.g08.bks.cpg/sg74_32_cif.got.tgz:62345.got - 2010.06.03 17:57:02.
