data_PCOD9536190
_publ_section_title
;
Structure prediction by ZEFSAII (Michael W. Deem and Ramdas Pophale) SiO2 
 PCOD9536190
Probable space group: I M M A
;
_chemical_formula_sum "Si O2"
_cell_formula_units_Z 72
_cell_length_a 16.017967
_cell_length_b 7.756286
_cell_length_c 27.151820
_cell_angle_alpha 90.000000
_cell_angle_beta 90.000000
_cell_angle_gamma 90.000000
_cell_volume 3373.340303
_symmetry_space_group_name_H-M "I M M A"
_symmetry_group_IT_number 74
_symmetry_cell_setting 'orthorhombic'
loop_
_space_group_symop_operation_xyz
x,y,z
-x,1/2-y,z
x,-y,-z
-x,1/2+y,-z
-x,-y,-z
x,1/2+y,-z
-x,y,z
x,1/2-y,z
1/2+x,1/2+y,1/2+z
1/2-x,-y,1/2+z
1/2+x,1/2-y,1/2-z
1/2-x,y,1/2-z
1/2-x,1/2-y,1/2-z
1/2+x,y,1/2-z
1/2-x,1/2+y,1/2+z
1/2+x,-y,1/2+z
loop_
_atom_site_type_symbol
_atom_site_label
_atom_site_fract_x
_atom_site_fract_y
_atom_site_fract_z
Si Si1 0.000000 0.550828 0.736038
Si Si2 0.000000 0.445916 0.626090
Si Si3 0.673518 0.960836 0.604175
Si Si4 0.828444 0.538659 0.782056
Si Si5 0.653722 0.455724 0.056841
Si Si6 0.500000 0.957227 0.557310
O O1 0.000000 0.549589 0.676934
O O2 0.085157 0.476400 0.758121
O O3 0.000000 0.750000 0.752519
O O4 0.081022 0.478459 0.592551
O O5 0.000000 0.250000 0.642677
O O6 0.673255 0.750000 0.602508
O O7 0.679696 0.011782 0.661131
O O8 0.754994 0.019230 0.574059
O O9 0.585723 0.021191 0.581759
O O10 0.828027 0.750000 0.780871
O O11 0.750000 0.480726 0.750000
O O12 0.653343 0.250000 0.061448
O O13 0.637846 0.500000 0.000000
O O14 0.500000 0.750000 0.563136
O O15 0.500000 0.000000 0.500000
#
# Coordination Sequence:
#
# PCOD9536190 Si02
#       6
#     8   8  16  16  16   8
#     4  10  19  33  57  84 109 140 181 228 273 320
#     4  12  25  40  57  79 110 146 185 230 282 337
#     4   9  18  32  54  84 115 145 179 223 269 318
#     4   9  16  28  50  80 108 135 174 220 263 310
#     4  11  22  38  59  83 112 146 186 229 276 328
#     4  10  19  33  53  79 111 144 179 218 263 313
#
# _framework density 21.343828999999999
#
# number of rings (size 3 to 8) (size 9 to 14) (size 15 to 20)
#    0.000    2.000    0.000    4.667    0.000    6.222 
#    0.000    1.111    0.000   10.000    0.000    0.000 
#    0.000    0.000    0.000    0.000    0.000    0.000 
#
# Total GULP energy -201226.933059 kJ/mol
# GULP energy per Si atom -5589.637029 kJ/mol
# Density = 2.129525 g / cm^3
# Si number density = 21.343829 Si / 1000 Ang^3
#
#
#
# Elastic Constant Matrix: (Units=GPa)
#
#
# Indices 1 2 3 4 5 6 
#
# 1 99.9776 5.3703 0.0854 0.0000 0.0000 0.0000
# 2 5.3703 35.7330 -16.4192 0.0000 0.0000 0.0000
# 3 0.0854 -16.4192 76.2356 0.0000 0.0000 0.0000
# 4 0.0000 0.0000 0.0000 18.1268 0.0000 0.0000
# 5 0.0000 0.0000 0.0000 0.0000 46.9433 0.0000
# 6 0.0000 0.0000 0.0000 0.0000 0.0000 -15.6657
#
#
#
# Elastic Compliance Matrix: (Units=1/GPa)
#
#
# Indices 1 2 3 4 5 6 
#
# 1 0.010093 -0.001689 -0.000375 0.000000 0.000000 0.000000
# 2 -0.001689 0.031342 0.006752 0.000000 0.000000 0.000000
# 3 -0.000375 0.006752 0.014572 0.000000 0.000000 0.000000
# 4 0.000000 0.000000 0.000000 0.055167 0.000000 0.000000
# 5 0.000000 0.000000 0.000000 0.000000 0.021302 0.000000
# 6 0.000000 0.000000 0.000000 0.000000 0.000000 -0.063834
#
#
# Mechanical properties :
#
#
# Convention : Reuss Voigt Hill
#
# Bulk Modulus (GPa) = 15.29465 21.11325 18.20395
# Shear Modulus (GPa) = 61.68175 24.74152 43.21164
#
# Velocity S-wave (km/s) = 5.38162 3.40838 4.50438
# Velocity P-wave (km/s) = 6.76736 5.04012 5.96657
#
# Compressibility (1/GPa) = 0.06538234
#
# Stress axis : x y z
#
# Youngs Moduli (GPa) = 99.07557 31.90627 68.62529
#
# Poissons Ratio (x) = 0.05390 0.02574
# Poissons Ratio (y) = 0.16737 -0.46337
# Poissons Ratio (z) = 0.03717 -0.21543
#
# Static dielectric constant tensor:
#      x y z
#    x 1.759580 0.000000 0.000000 
#    y 0.000000 1.796860 0.000000 
#    z 0.000000 0.000000 2.149570 
# 
# From -- ./inp_files/63654.got.cif
#   From: 2010.05.17/outbox.cif.g08.bks.cpg/sg74_32_cif.got.tgz:63654.got - 2010.06.03 17:57:02.
