data_PCOD9536027
_publ_section_title
;
Structure prediction by ZEFSAII (Michael W. Deem and Ramdas Pophale) SiO2 
 PCOD9536027
Probable space group: I M M A
;
_chemical_formula_sum "Si O2"
_cell_formula_units_Z 96
_cell_length_a 21.400709
_cell_length_b 14.861710
_cell_length_c 13.031168
_cell_angle_alpha 90.000000
_cell_angle_beta 90.000000
_cell_angle_gamma 90.000000
_cell_volume 4144.577720
_symmetry_space_group_name_H-M "I M M A"
_symmetry_group_IT_number 74
_symmetry_cell_setting 'orthorhombic'
loop_
_space_group_symop_operation_xyz
x,y,z
-x,1/2-y,z
x,-y,-z
-x,1/2+y,-z
-x,-y,-z
x,1/2+y,-z
-x,y,z
x,1/2-y,z
1/2+x,1/2+y,1/2+z
1/2-x,-y,1/2+z
1/2+x,1/2-y,1/2-z
1/2-x,y,1/2-z
1/2-x,1/2-y,1/2-z
1/2+x,y,1/2-z
1/2-x,1/2+y,1/2+z
1/2+x,-y,1/2+z
loop_
_atom_site_type_symbol
_atom_site_label
_atom_site_fract_x
_atom_site_fract_y
_atom_site_fract_z
Si Si1 0.384077 0.144543 0.126285
Si Si2 0.396338 0.859942 0.097070
Si Si3 0.742208 0.090039 0.865800
Si Si4 0.500000 0.360343 0.505867
Si Si5 0.263415 0.383937 0.411488
Si Si6 0.000000 0.640637 0.239560
Si Si7 0.400247 0.647463 0.656225
O O1 0.399209 0.250000 0.131402
O O2 0.307774 0.140894 0.118788
O O3 0.407804 0.102331 0.232341
O O4 0.413505 0.112948 0.019200
O O5 0.387829 0.750000 0.097016
O O6 0.331304 0.908378 0.116091
O O7 0.441447 0.883212 0.189547
O O8 0.750000 0.124280 0.750000
O O9 0.766491 0.989050 0.880665
O O10 0.769190 0.137964 0.966928
O O11 0.500000 0.250000 0.514288
O O12 0.500000 0.393502 0.623182
O O13 0.439395 0.389878 0.439497
O O14 0.325861 0.347045 0.361123
O O15 0.000000 0.750000 0.234305
O O16 0.423308 0.750000 0.663841
#
# Coordination Sequence:
#
# PCOD9536027 Si02
#       7
#    16  16  16   8  16   8  16
#     4   9  17  31  53  82 108 134 179 227 273 324
#     4   9  19  34  54  80 107 140 181 224 268 320
#     4  10  21  34  52  77 106 142 179 224 274 323
#     4   9  20  33  49  81 114 146 184 222 267 322
#     4  10  20  34  53  78 108 143 179 224 277 328
#     4   9  18  35  55  75 111 150 181 222 271 324
#     4  10  19  32  54  80 111 146 181 223 270 323
#
# _framework density 23.162794999999999
#
# number of rings (size 3 to 8) (size 9 to 14) (size 15 to 20)
#    0.000    2.500    0.000    2.000    2.333    3.000 
#    0.000    3.333    0.000   14.000    0.000    0.000 
#    0.000    0.000    0.000    0.000    0.000    0.000 
#
# Total GULP energy -267598.890203 kJ/mol
# GULP energy per Si atom -5574.976879 kJ/mol
# Density = 2.311008 g / cm^3
# Si number density = 23.162795 Si / 1000 Ang^3
#
#
#
# Elastic Constant Matrix: (Units=GPa)
#
#
# Indices 1 2 3 4 5 6 
#
# 1 52.1861 12.4071 57.8488 0.0000 0.0000 0.0000
# 2 12.4071 47.3271 -0.7082 0.0000 0.0000 0.0000
# 3 57.8488 -0.7082 261.7846 0.0000 0.0000 0.0000
# 4 0.0000 0.0000 0.0000 -1.0605 0.0000 0.0000
# 5 0.0000 0.0000 0.0000 0.0000 47.3437 0.0000
# 6 0.0000 0.0000 0.0000 0.0000 0.0000 17.1032
#
#
#
# Elastic Compliance Matrix: (Units=1/GPa)
#
#
# Indices 1 2 3 4 5 6 
#
# 1 0.027726 -0.007360 -0.006147 0.000000 0.000000 0.000000
# 2 -0.007360 0.023084 0.001689 0.000000 0.000000 0.000000
# 3 -0.006147 0.001689 0.005183 0.000000 0.000000 0.000000
# 4 0.000000 0.000000 0.000000 -0.942966 0.000000 0.000000
# 5 0.000000 0.000000 0.000000 0.000000 0.021122 0.000000
# 6 0.000000 0.000000 0.000000 0.000000 0.000000 0.058468
#
#
# Mechanical properties :
#
#
# Convention : Reuss Voigt Hill
#
# Bulk Modulus (GPa) = 30.90561 55.59922 43.25242
# Shear Modulus (GPa) = -6.46864 32.12729 12.82933
#
# Velocity S-wave (km/s) = -1.67295 3.72831 2.35601
# Velocity P-wave (km/s) = 3.10485 6.52607 5.11027
#
# Compressibility (1/GPa) = 0.03235658
#
# Stress axis : x y z
#
# Youngs Moduli (GPa) = 36.06741 43.31926 192.94580
#
# Poissons Ratio (x) = 0.31885 1.18599
# Poissons Ratio (y) = 0.26547 -0.32588
# Poissons Ratio (z) = 0.22170 -0.07316
#
# Static dielectric constant tensor:
#      x y z
#    x 1.844820 0.000000 0.000000 
#    y 0.000000 1.872540 0.000000 
#    z 0.000000 0.000000 1.953280 
# 
# From -- ./inp_files/25225.got.cif
#   From: 2010.05.17/outbox.cif.g08.bks.cpg/sg74_13_cif.got.tgz:25225.got - 2010.06.03 17:57:02.
