data_PCOD9536309
_publ_section_title
;
Structure prediction by ZEFSAII (Michael W. Deem and Ramdas Pophale) SiO2 
 PCOD9536309
Probable space group: I M M A
;
_chemical_formula_sum "Si O2"
_cell_formula_units_Z 96
_cell_length_a 14.450636
_cell_length_b 11.212560
_cell_length_c 24.533000
_cell_angle_alpha 90.000000
_cell_angle_beta 90.000000
_cell_angle_gamma 90.000000
_cell_volume 3975.048213
_symmetry_space_group_name_H-M "I M M A"
_symmetry_group_IT_number 74
_symmetry_cell_setting 'orthorhombic'
loop_
_space_group_symop_operation_xyz
x,y,z
-x,1/2-y,z
x,-y,-z
-x,1/2+y,-z
-x,-y,-z
x,1/2+y,-z
-x,y,z
x,1/2-y,z
1/2+x,1/2+y,1/2+z
1/2-x,-y,1/2+z
1/2+x,1/2-y,1/2-z
1/2-x,y,1/2-z
1/2-x,1/2-y,1/2-z
1/2+x,y,1/2-z
1/2-x,1/2+y,1/2+z
1/2+x,-y,1/2+z
loop_
_atom_site_type_symbol
_atom_site_label
_atom_site_fract_x
_atom_site_fract_y
_atom_site_fract_z
Si Si1 0.386968 0.250000 0.790839
Si Si2 0.145860 0.379227 0.025032
Si Si3 0.142546 0.610755 0.534033
Si Si4 0.113393 0.250000 0.838625
Si Si5 0.612469 0.119630 0.258973
Si Si6 0.887712 0.002645 0.650686
Si Si7 0.888644 0.001008 0.133497
O O1 0.500000 0.250000 0.788132
O O2 0.358009 0.250000 0.726158
O O3 0.360028 0.366988 0.825922
O O4 0.105302 0.250000 0.011691
O O5 0.253909 0.376868 0.010421
O O6 0.142304 0.403713 0.089597
O O7 0.104169 0.500000 0.000000
O O8 0.098792 0.500000 0.500000
O O9 0.106379 0.750000 0.534375
O O10 0.146221 0.554281 0.594554
O O11 0.142486 0.365468 0.873047
O O12 0.000000 0.250000 0.836272
O O13 0.500000 0.117143 0.258480
O O14 0.642967 0.250000 0.274889
O O15 0.641020 0.085410 0.199028
O O16 0.641678 0.030266 0.305474
O O17 0.000000 0.005454 0.646419
O O18 0.000000 0.003735 0.131779
#
# Coordination Sequence:
#
# PCOD9536309 Si02
#       7
#     8  16  16   8  16  16  16
#     4   9  16  30  53  85 119 149 179 218 271 326
#     4  10  23  42  60  79 107 145 187 231 281 333
#     4  10  23  42  60  79 107 145 187 231 281 333
#     4   9  16  30  53  85 119 149 179 218 271 326
#     4   9  16  27  48  78 109 141 174 213 266 326
#     4  10  19  33  56  84 114 144 181 226 272 325
#     4  10  19  33  56  84 114 144 181 226 272 325
#
# _framework density 24.150652000000001
#
# number of rings (size 3 to 8) (size 9 to 14) (size 15 to 20)
#    0.000    2.333    1.667    1.000    2.333    2.667 
#    0.000    0.833    0.000    4.000    0.000    0.000 
#    0.000    0.000    0.000    0.000    0.000    0.000 
#
# Total GULP energy -267833.336795 kJ/mol
# GULP energy per Si atom -5579.861183 kJ/mol
# Density = 2.409568 g / cm^3
# Si number density = 24.150652 Si / 1000 Ang^3
#
#
#
# Elastic Constant Matrix: (Units=GPa)
#
#
# Indices 1 2 3 4 5 6 
#
# 1 82.8504 -2.5697 -20.6239 0.0000 0.0000 0.0000
# 2 -2.5697 199.5817 35.5445 0.0000 0.0000 0.0000
# 3 -20.6239 35.5445 82.8436 0.0000 0.0000 0.0000
# 4 0.0000 0.0000 0.0000 35.8429 0.0000 0.0000
# 5 0.0000 0.0000 0.0000 0.0000 16.5122 0.0000
# 6 0.0000 0.0000 0.0000 0.0000 0.0000 -11.4376
#
#
#
# Elastic Compliance Matrix: (Units=1/GPa)
#
#
# Indices 1 2 3 4 5 6 
#
# 1 0.012903 -0.000440 0.003401 0.000000 0.000000 0.000000
# 2 -0.000440 0.005440 -0.002443 0.000000 0.000000 0.000000
# 3 0.003401 -0.002443 0.013966 0.000000 0.000000 0.000000
# 4 0.000000 0.000000 0.000000 0.027900 0.000000 0.000000
# 5 0.000000 0.000000 0.000000 0.000000 0.060561 0.000000
# 6 0.000000 0.000000 0.000000 0.000000 0.000000 -0.087431
#
#
# Mechanical properties :
#
#
# Convention : Reuss Voigt Hill
#
# Bulk Modulus (GPa) = 29.99015 43.33083 36.66049
# Shear Modulus (GPa) = 115.16016 31.71182 73.43599
#
# Velocity S-wave (km/s) = 6.91286 3.62758 5.52028
# Velocity P-wave (km/s) = 8.72707 5.96042 7.47290
#
# Compressibility (1/GPa) = 0.03334429
#
# Stress axis : x y z
#
# Youngs Moduli (GPa) = 77.50221 183.82382 71.60276
#
# Poissons Ratio (x) = 0.08080 -0.24350
# Poissons Ratio (y) = 0.03406 0.17496
# Poissons Ratio (z) = -0.26357 0.44917
#
# Static dielectric constant tensor:
#      x y z
#    x 1.984540 0.000000 0.000000 
#    y 0.000000 2.001090 0.000000 
#    z 0.000000 0.000000 1.868870 
# 
# From -- ./inp_files/60823.got.cif
#   From: 2010.05.17/outbox.cif.g08.bks.cpg/sg74_31_cif.got.tgz:60823.got - 2010.06.03 17:57:02.
