data_PCOD9536373
_publ_section_title
;
Structure prediction by ZEFSAII (Michael W. Deem and Ramdas Pophale) SiO2 
 PCOD9536373
Probable space group: I M M A
;
_chemical_formula_sum "Si O2"
_cell_formula_units_Z 88
_cell_length_a 19.638845
_cell_length_b 25.113361
_cell_length_c 9.233234
_cell_angle_alpha 90.000000
_cell_angle_beta 90.000000
_cell_angle_gamma 90.000000
_cell_volume 4553.807040
_symmetry_space_group_name_H-M "I M M A"
_symmetry_group_IT_number 74
_symmetry_cell_setting 'orthorhombic'
loop_
_space_group_symop_operation_xyz
x,y,z
-x,1/2-y,z
x,-y,-z
-x,1/2+y,-z
-x,-y,-z
x,1/2+y,-z
-x,y,z
x,1/2-y,z
1/2+x,1/2+y,1/2+z
1/2-x,-y,1/2+z
1/2+x,1/2-y,1/2-z
1/2-x,y,1/2-z
1/2-x,1/2-y,1/2-z
1/2+x,y,1/2-z
1/2-x,1/2+y,1/2+z
1/2+x,-y,1/2+z
loop_
_atom_site_type_symbol
_atom_site_label
_atom_site_fract_x
_atom_site_fract_y
_atom_site_fract_z
Si Si1 0.921113 0.864992 0.374286
Si Si2 0.682263 0.310304 0.654092
Si Si3 0.815171 0.500000 0.000000
Si Si4 0.579721 0.099811 0.180524
Si Si5 0.076672 0.017430 0.750226
Si Si6 0.202471 0.888303 0.886188
O O1 0.876046 0.833871 0.258775
O O2 0.897252 0.865917 0.541672
O O3 0.919921 0.927203 0.332167
O O4 0.000000 0.847303 0.369997
O O5 0.664996 0.250000 0.609220
O O6 0.750000 0.309041 0.750000
O O7 0.698681 0.347360 0.517273
O O8 0.864776 0.517540 0.129941
O O9 0.776604 0.447176 0.054414
O O10 0.500000 0.111304 0.205445
O O11 0.626567 0.108676 0.319298
O O12 0.584957 0.036006 0.155667
O O13 0.000000 0.013682 0.814493
O O14 0.250000 0.874317 0.750000
#
# Coordination Sequence:
#
# PCOD9536373 Si02
#       6
#    16  16   8  16  16  16
#     4  10  19  36  61  89 120 153 192 244 289 340
#     4  11  25  44  64  83 110 155 207 253 295 349
#     4  10  19  34  52  88 121 152 184 234 294 354
#     4   9  19  35  58  90 125 158 191 227 285 360
#     4   9  16  29  54  86 121 157 188 223 279 350
#     4  11  23  40  59  88 119 156 198 246 301 357
#
# _framework density 19.324490000000001
#
# number of rings (size 3 to 8) (size 9 to 14) (size 15 to 20)
#    0.000    2.000    1.818    1.909    0.000    5.091 
#    6.545    0.909    0.000    1.091    0.000    0.000 
#    0.000    0.000    0.000    0.000    0.000    0.000 
#
# Total GULP energy -245484.605333 kJ/mol
# GULP energy per Si atom -5579.195576 kJ/mol
# Density = 1.928051 g / cm^3
# Si number density = 19.324490 Si / 1000 Ang^3
#
#
#
# Elastic Constant Matrix: (Units=GPa)
#
#
# Indices 1 2 3 4 5 6 
#
# 1 42.7659 29.1691 26.0119 0.0000 0.0000 0.0000
# 2 29.1691 100.8176 56.2801 0.0000 0.0000 0.0000
# 3 26.0119 56.2801 94.6105 0.0000 0.0000 0.0000
# 4 0.0000 0.0000 0.0000 21.2463 0.0000 0.0000
# 5 0.0000 0.0000 0.0000 0.0000 27.4486 0.0000
# 6 0.0000 0.0000 0.0000 0.0000 0.0000 18.8550
#
#
#
# Elastic Compliance Matrix: (Units=1/GPa)
#
#
# Indices 1 2 3 4 5 6 
#
# 1 0.030461 -0.006195 -0.004690 0.000000 0.000000 0.000000
# 2 -0.006195 0.016110 -0.007880 0.000000 0.000000 0.000000
# 3 -0.004690 -0.007880 0.016547 0.000000 0.000000 0.000000
# 4 0.000000 0.000000 0.000000 0.047067 0.000000 0.000000
# 5 0.000000 0.000000 0.000000 0.000000 0.036432 0.000000
# 6 0.000000 0.000000 0.000000 0.000000 0.000000 0.053036
#
#
# Mechanical properties :
#
#
# Convention : Reuss Voigt Hill
#
# Bulk Modulus (GPa) = 39.08066 51.23513 45.15790
# Shear Modulus (GPa) = 20.34901 21.95883 21.15392
#
# Velocity S-wave (km/s) = 3.24854 3.37459 3.31217
# Velocity P-wave (km/s) = 5.85986 6.46177 6.16816
#
# Compressibility (1/GPa) = 0.02558810
#
# Stress axis : x y z
#
# Youngs Moduli (GPa) = 32.82879 62.07208 60.43563
#
# Poissons Ratio (x) = 0.38455 0.28342
# Poissons Ratio (y) = 0.20338 0.47624
# Poissons Ratio (z) = 0.15395 0.48913
#
# Static dielectric constant tensor:
#      x y z
#    x 1.694900 0.000000 0.000000 
#    y 0.000000 1.671790 0.000000 
#    z 0.000000 0.000000 1.683690 
# 
# From -- ./inp_files/12472.got.cif
#   From: 2010.05.17/outbox.cif.g08.bks.cpg/sg74_7_cif.got.tgz:12472.got - 2010.06.03 17:57:02.
