data_PCOD9536586
_publ_section_title
;
Structure prediction by ZEFSAII (Michael W. Deem and Ramdas Pophale) SiO2 
 PCOD9536586
Probable space group: I M M A
;
_chemical_formula_sum "Si O2"
_cell_formula_units_Z 96
_cell_length_a 30.175744
_cell_length_b 8.993154
_cell_length_c 19.354894
_cell_angle_alpha 90.000000
_cell_angle_beta 90.000000
_cell_angle_gamma 90.000000
_cell_volume 5252.436544
_symmetry_space_group_name_H-M "I M M A"
_symmetry_group_IT_number 74
_symmetry_cell_setting 'orthorhombic'
loop_
_space_group_symop_operation_xyz
x,y,z
-x,1/2-y,z
x,-y,-z
-x,1/2+y,-z
-x,-y,-z
x,1/2+y,-z
-x,y,z
x,1/2-y,z
1/2+x,1/2+y,1/2+z
1/2-x,-y,1/2+z
1/2+x,1/2-y,1/2-z
1/2-x,y,1/2-z
1/2-x,1/2-y,1/2-z
1/2+x,y,1/2-z
1/2-x,1/2+y,1/2+z
1/2+x,-y,1/2+z
loop_
_atom_site_type_symbol
_atom_site_label
_atom_site_fract_x
_atom_site_fract_y
_atom_site_fract_z
Si Si1 0.764330 0.919051 0.329589
Si Si2 0.899444 0.069401 0.821140
Si Si3 0.000000 0.585222 0.676208
Si Si4 0.179923 0.571023 0.075783
Si Si5 0.143553 0.928178 0.682936
Si Si6 0.080076 0.579588 0.569841
Si Si7 0.500000 0.575239 0.314772
O O1 0.777407 0.750000 0.350768
O O2 0.750000 0.909361 0.250000
O O3 0.723220 0.966954 0.377811
O O4 0.805625 0.028590 0.326237
O O5 0.899506 0.250000 0.814198
O O6 0.864406 0.029341 0.881250
O O7 0.950497 0.020262 0.836566
O O8 0.880070 0.001439 0.749763
O O9 0.958482 0.575841 0.626144
O O10 0.000000 0.750000 0.710178
O O11 0.000000 0.459278 0.733214
O O12 0.179652 0.750000 0.069342
O O13 0.181358 0.500000 0.000000
O O14 0.137447 0.750000 0.688129
O O15 0.121022 0.984464 0.612256
O O16 0.067721 0.500000 0.500000
O O17 0.089552 0.750000 0.552058
O O18 0.500000 0.750000 0.330104
#
# Coordination Sequence:
#
# PCOD9536586 Si02
#       7
#    16  16   8  16  16  16   8
#     4  10  20  38  61  84 113 152 191 230 280 336
#     4  10  20  38  60  86 117 151 192 237 287 347
#     4  10  19  35  53  75 111 145 183 237 289 338
#     4  10  22  40  62  86 118 154 190 234 288 347
#     4  11  22  35  56  86 115 148 191 240 286 334
#     4  10  22  36  51  74 109 150 188 231 284 335
#     4  10  20  33  60  91 110 143 196 243 282 340
#
# _framework density 18.277232999999999
#
# number of rings (size 3 to 8) (size 9 to 14) (size 15 to 20)
#    0.000    1.833    3.333    0.750    0.000    4.333 
#    0.000    3.750    0.000    0.000    0.000    0.000 
#    0.000    0.000    0.000    0.000    0.000    0.000 
#
# Total GULP energy -267455.333465 kJ/mol
# GULP energy per Si atom -5571.986114 kJ/mol
# Density = 1.823563 g / cm^3
# Si number density = 18.277233 Si / 1000 Ang^3
#
#
#
# Elastic Constant Matrix: (Units=GPa)
#
#
# Indices 1 2 3 4 5 6 
#
# 1 124.8601 19.3954 27.5191 0.0000 0.0000 0.0000
# 2 19.3954 14.4684 11.0499 0.0000 0.0000 0.0000
# 3 27.5191 11.0499 59.1744 0.0000 0.0000 0.0000
# 4 0.0000 0.0000 0.0000 27.3800 0.0000 0.0000
# 5 0.0000 0.0000 0.0000 0.0000 -10.1266 0.0000
# 6 0.0000 0.0000 0.0000 0.0000 0.0000 5.5668
#
#
#
# Elastic Compliance Matrix: (Units=1/GPa)
#
#
# Indices 1 2 3 4 5 6 
#
# 1 0.010452 -0.012012 -0.002618 0.000000 0.000000 0.000000
# 2 -0.012012 0.094417 -0.012045 0.000000 0.000000 0.000000
# 3 -0.002618 -0.012045 0.020366 0.000000 0.000000 0.000000
# 4 0.000000 0.000000 0.000000 0.036523 0.000000 0.000000
# 5 0.000000 0.000000 0.000000 0.000000 -0.098750 0.000000
# 6 0.000000 0.000000 0.000000 0.000000 0.000000 0.179637
#
#
# Mechanical properties :
#
#
# Convention : Reuss Voigt Hill
#
# Bulk Modulus (GPa) = 13.91086 34.93686 24.42386
# Shear Modulus (GPa) = 15.62718 13.93326 14.78022
#
# Velocity S-wave (km/s) = 2.92722 2.76403 2.84679
# Velocity P-wave (km/s) = 4.36491 5.41691 4.91911
#
# Compressibility (1/GPa) = 0.07188629
#
# Stress axis : x y z
#
# Youngs Moduli (GPa) = 95.67768 10.59127 49.10214
#
# Poissons Ratio (x) = 0.12722 0.12853
# Poissons Ratio (y) = 1.14926 0.59143
# Poissons Ratio (z) = 0.25044 0.12757
#
# Static dielectric constant tensor:
#      x y z
#    x 1.529780 0.000000 0.000000 
#    y 0.000000 1.636780 0.000000 
#    z 0.000000 0.000000 1.597860 
# 
# From -- ./inp_files/37797.got.cif
#   From: 2010.05.17/outbox.cif.g08.bks.cpg/sg74_19_cif.got.tgz:37797.got - 2010.06.03 17:57:02.
