data_PCOD9536792
_publ_section_title
;
Structure prediction by ZEFSAII (Michael W. Deem and Ramdas Pophale) SiO2 
 PCOD9536792
Probable space group: I M M A
;
_chemical_formula_sum "Si O2"
_cell_formula_units_Z 116
_cell_length_a 27.714891
_cell_length_b 7.500967
_cell_length_c 23.333173
_cell_angle_alpha 90.000000
_cell_angle_beta 90.000000
_cell_angle_gamma 90.000000
_cell_volume 4850.697934
_symmetry_space_group_name_H-M "I M M A"
_symmetry_group_IT_number 74
_symmetry_cell_setting 'orthorhombic'
loop_
_space_group_symop_operation_xyz
x,y,z
-x,1/2-y,z
x,-y,-z
-x,1/2+y,-z
-x,-y,-z
x,1/2+y,-z
-x,y,z
x,1/2-y,z
1/2+x,1/2+y,1/2+z
1/2-x,-y,1/2+z
1/2+x,1/2-y,1/2-z
1/2-x,y,1/2-z
1/2-x,1/2-y,1/2-z
1/2+x,y,1/2-z
1/2-x,1/2+y,1/2+z
1/2+x,-y,1/2+z
loop_
_atom_site_type_symbol
_atom_site_label
_atom_site_fract_x
_atom_site_fract_y
_atom_site_fract_z
Si Si1 0.000000 0.250000 0.946261
Si Si2 0.375221 0.538891 0.063132
Si Si3 0.921154 0.042845 0.087421
Si Si4 0.302783 0.546165 0.246052
Si Si5 0.945439 0.967580 0.337138
Si Si6 0.810838 0.962501 0.933951
Si Si7 0.284358 0.543906 0.876032
Si Si8 0.404013 0.967252 0.285535
O O1 0.041966 0.407117 0.940715
O O2 0.371849 0.750000 0.069581
O O3 0.409452 0.468495 0.113569
O O4 0.321334 0.466084 0.071541
O O5 0.394196 0.500000 0.000000
O O6 0.927123 0.250000 0.068848
O O7 0.865781 0.980172 0.077218
O O8 0.927558 0.034299 0.156311
O O9 0.298485 0.750000 0.266360
O O10 0.250000 0.461426 0.250000
O O11 0.310745 0.547208 0.177718
O O12 0.348430 0.469393 0.278997
O O13 0.944160 0.750000 0.337523
O O14 0.929812 0.021057 0.273226
O O15 0.000000 0.022842 0.348691
O O16 0.811156 0.750000 0.925892
O O17 0.767912 0.032151 0.893230
O O18 0.798695 0.000000 0.000000
O O19 0.278566 0.750000 0.860421
O O20 0.404157 0.750000 0.287748
#
# Coordination Sequence:
#
# PCOD9536792 Si02
#       8
#     4  16  16  16  16  16  16  16
#     4  12  26  48  74 102 132 184 220 274 342 408
#     4  11  22  39  59  86 122 161 212 268 322 387
#     4  11  25  45  70 103 137 171 225 278 334 402
#     4  10  20  34  56  90 131 170 215 258 317 391
#     4   9  19  35  59  86 118 164 217 268 323 387
#     4  10  24  43  67  96 131 170 219 271 331 405
#     4  11  22  38  60  93 129 171 214 264 329 390
#     4  10  19  36  62  93 129 176 218 267 330 398
#
# _framework density 23.914083000000002
#
# number of rings (size 3 to 8) (size 9 to 14) (size 15 to 20)
#    0.000    1.655    2.069    2.276    1.931    3.310 
#    0.000    0.345    0.000    2.897    0.000    0.000 
#    0.000    0.000    0.000    0.000    0.000    0.000 
#
# Total GULP energy -323970.429352 kJ/mol
# GULP energy per Si atom -5585.697058 kJ/mol
# Density = 2.385965 g / cm^3
# Si number density = 23.914083 Si / 1000 Ang^3
#
#
#
# Elastic Constant Matrix: (Units=GPa)
#
#
# Indices 1 2 3 4 5 6 
#
# 1 137.7596 36.3578 25.1243 0.0000 0.0000 0.0000
# 2 36.3578 105.6499 13.8838 0.0000 0.0000 0.0000
# 3 25.1243 13.8838 113.2162 0.0000 0.0000 0.0000
# 4 0.0000 0.0000 0.0000 25.1899 0.0000 0.0000
# 5 0.0000 0.0000 0.0000 0.0000 -2.0074 0.0000
# 6 0.0000 0.0000 0.0000 0.0000 0.0000 -0.2557
#
#
#
# Elastic Compliance Matrix: (Units=1/GPa)
#
#
# Indices 1 2 3 4 5 6 
#
# 1 0.008228 -0.002634 -0.001503 0.000000 0.000000 0.000000
# 2 -0.002634 0.010464 -0.000699 0.000000 0.000000 0.000000
# 3 -0.001503 -0.000699 0.009252 0.000000 0.000000 0.000000
# 4 0.000000 0.000000 0.000000 0.039698 0.000000 0.000000
# 5 0.000000 0.000000 0.000000 0.000000 -0.498145 0.000000
# 6 0.000000 0.000000 0.000000 0.000000 0.000000 -3.910400
#
#
# Mechanical properties :
#
#
# Convention : Reuss Voigt Hill
#
# Bulk Modulus (GPa) = 54.72758 56.37304 55.55031
# Shear Modulus (GPa) = -1.15603 23.33600 11.08998
#
# Velocity S-wave (km/s) = -0.69603 3.12721 2.15581
# Velocity P-wave (km/s) = 4.72110 6.05505 5.42920
#
# Compressibility (1/GPa) = 0.01827232
#
# Stress axis : x y z
#
# Youngs Moduli (GPa) = 121.53126 95.57008 108.08642
#
# Poissons Ratio (x) = 0.25175 0.16245
# Poissons Ratio (y) = 0.32013 0.07551
# Poissons Ratio (z) = 0.18266 0.06676
#
# Static dielectric constant tensor:
#      x y z
#    x 1.909100 0.000000 0.000000 
#    y 0.000000 1.928890 0.000000 
#    z 0.000000 0.000000 1.954840 
# 
# From -- ./inp_files/62419.got.cif
#   From: 2010.05.17/outbox.cif.g08.bks.cpg/sg74_32_cif.got.tgz:62419.got - 2010.06.03 17:57:02.
