data_PCOD9536305
_publ_section_title
;
Structure prediction by ZEFSAII (Michael W. Deem and Ramdas Pophale) SiO2 
 PCOD9536305
Probable space group: I M M A
;
_chemical_formula_sum "Si O2"
_cell_formula_units_Z 80
_cell_length_a 29.470688
_cell_length_b 16.635757
_cell_length_c 8.779980
_cell_angle_alpha 90.000000
_cell_angle_beta 90.000000
_cell_angle_gamma 90.000000
_cell_volume 4304.536247
_symmetry_space_group_name_H-M "I M M A"
_symmetry_group_IT_number 74
_symmetry_cell_setting 'orthorhombic'
loop_
_space_group_symop_operation_xyz
x,y,z
-x,1/2-y,z
x,-y,-z
-x,1/2+y,-z
-x,-y,-z
x,1/2+y,-z
-x,y,z
x,1/2-y,z
1/2+x,1/2+y,1/2+z
1/2-x,-y,1/2+z
1/2+x,1/2-y,1/2-z
1/2-x,y,1/2-z
1/2-x,1/2-y,1/2-z
1/2+x,y,1/2-z
1/2-x,1/2+y,1/2+z
1/2+x,-y,1/2+z
loop_
_atom_site_type_symbol
_atom_site_label
_atom_site_fract_x
_atom_site_fract_y
_atom_site_fract_z
Si Si1 0.795305 0.847659 0.335477
Si Si2 0.053425 0.012562 0.679148
Si Si3 0.392044 0.657400 0.308715
Si Si4 0.699357 0.345180 0.185398
Si Si5 0.876927 0.076148 0.109162
O O1 0.791823 0.750000 0.338854
O O2 0.750000 0.877499 0.250000
O O3 0.841556 0.867139 0.247684
O O4 0.799731 0.873787 0.510393
O O5 0.071809 0.099558 0.729924
O O6 0.000000 0.004647 0.709111
O O7 0.061522 0.000000 0.500000
O O8 0.082762 0.950954 0.779488
O O9 0.399044 0.750000 0.268942
O O10 0.392373 0.643812 0.489727
O O11 0.686729 0.250000 0.187798
O O12 0.750000 0.351379 0.250000
O O13 0.664879 0.394084 0.290174
O O14 0.865938 0.000000 0.000000
#
# Coordination Sequence:
#
# PCOD9536305 Si02
#       5
#    16  16  16  16  16
#     4   9  17  30  51  80 112 143 176 217 266 318
#     4  10  22  41  61  80 108 146 184 227 283 339
#     4  10  20  35  58  85 112 145 186 231 276 326
#     4  10  19  33  56  83 112 146 184 226 270 318
#     4  10  21  36  55  81 112 147 183 224 274 331
#
# _framework density 18.585045000000001
#
# number of rings (size 3 to 8) (size 9 to 14) (size 15 to 20)
#    0.000    2.200    0.000    3.000    0.000    7.200 
#    0.000   10.000    0.000    4.200    0.000    0.000 
#    0.000    0.000    0.000    0.000    0.000    0.200 
#
# Total GULP energy -223329.284448 kJ/mol
# GULP energy per Si atom -5583.232111 kJ/mol
# Density = 1.854274 g / cm^3
# Si number density = 18.585045 Si / 1000 Ang^3
#
#
#
# Elastic Constant Matrix: (Units=GPa)
#
#
# Indices 1 2 3 4 5 6 
#
# 1 126.4835 50.0723 94.2330 0.0000 0.0000 0.0000
# 2 50.0723 36.1490 40.2482 0.0000 0.0000 0.0000
# 3 94.2330 40.2482 153.4005 0.0000 0.0000 0.0000
# 4 0.0000 0.0000 0.0000 18.0910 0.0000 0.0000
# 5 0.0000 0.0000 0.0000 0.0000 33.7972 0.0000
# 6 0.0000 0.0000 0.0000 0.0000 0.0000 19.7163
#
#
#
# Elastic Compliance Matrix: (Units=1/GPa)
#
#
# Indices 1 2 3 4 5 6 
#
# 1 0.022995 -0.022779 -0.008149 0.000000 0.000000 0.000000
# 2 -0.022779 0.061644 -0.002181 0.000000 0.000000 0.000000
# 3 -0.008149 -0.002181 0.012097 0.000000 0.000000 0.000000
# 4 0.000000 0.000000 0.000000 0.055276 0.000000 0.000000
# 5 0.000000 0.000000 0.000000 0.000000 0.029588 0.000000
# 6 0.000000 0.000000 0.000000 0.000000 0.000000 0.050719
#
#
# Mechanical properties :
#
#
# Convention : Reuss Voigt Hill
#
# Bulk Modulus (GPa) = 32.76717 76.12667 54.44692
# Shear Modulus (GPa) = 16.19640 23.08620 19.64130
#
# Velocity S-wave (km/s) = 2.95528 3.52830 3.25442
# Velocity P-wave (km/s) = 5.41425 7.59267 6.59404
#
# Compressibility (1/GPa) = 0.03051835
#
# Stress axis : x y z
#
# Youngs Moduli (GPa) = 43.48715 16.22223 82.66421
#
# Poissons Ratio (x) = 0.36952 0.67366
# Poissons Ratio (y) = 0.99059 0.18027
# Poissons Ratio (z) = 0.35439 0.03538
#
# Static dielectric constant tensor:
#      x y z
#    x 1.603680 0.000000 0.000000 
#    y 0.000000 1.662660 0.000000 
#    z 0.000000 0.000000 1.639540 
# 
# From -- ./inp_files/10920.got.cif
#   From: 2010.05.17/outbox.cif.g08.bks.cpg/sg74_6_cif.got.tgz:10920.got - 2010.06.03 17:57:02.
