data_PCOD9536855
_publ_section_title
;
Structure prediction by ZEFSAII (Michael W. Deem and Ramdas Pophale) SiO2 
 PCOD9536855
Probable space group: I M M A
;
_chemical_formula_sum "Si O2"
_cell_formula_units_Z 80
_cell_length_a 20.263648
_cell_length_b 16.107736
_cell_length_c 11.252603
_cell_angle_alpha 90.000000
_cell_angle_beta 90.000000
_cell_angle_gamma 90.000000
_cell_volume 3672.866412
_symmetry_space_group_name_H-M "I M M A"
_symmetry_group_IT_number 74
_symmetry_cell_setting 'orthorhombic'
loop_
_space_group_symop_operation_xyz
x,y,z
-x,1/2-y,z
x,-y,-z
-x,1/2+y,-z
-x,-y,-z
x,1/2+y,-z
-x,y,z
x,1/2-y,z
1/2+x,1/2+y,1/2+z
1/2-x,-y,1/2+z
1/2+x,1/2-y,1/2-z
1/2-x,y,1/2-z
1/2-x,1/2-y,1/2-z
1/2+x,y,1/2-z
1/2-x,1/2+y,1/2+z
1/2+x,-y,1/2+z
loop_
_atom_site_type_symbol
_atom_site_label
_atom_site_fract_x
_atom_site_fract_y
_atom_site_fract_z
Si Si1 0.146294 0.582423 0.748096
Si Si2 0.422413 0.840561 0.947510
Si Si3 0.259824 0.406393 0.450905
Si Si4 0.223404 0.250000 0.885664
Si Si5 0.576292 0.922484 0.178332
Si Si6 0.573909 0.250000 0.679663
O O1 0.088140 0.634331 0.687991
O O2 0.203151 0.597080 0.649427
O O3 0.172936 0.607115 0.875584
O O4 0.122911 0.487233 0.744397
O O5 0.500000 0.835887 0.972290
O O6 0.392795 0.750000 0.969515
O O7 0.398926 0.907514 0.043866
O O8 0.260480 0.500000 0.500000
O O9 0.253415 0.333843 0.547425
O O10 0.250000 0.250000 0.750000
O O11 0.143153 0.250000 0.889197
O O12 0.500000 0.953029 0.176646
O O13 0.576299 0.832832 0.239941
O O14 0.500000 0.250000 0.621894
#
# Coordination Sequence:
#
# PCOD9536855 Si02
#       6
#    16  16  16   8  16   8
#     4  11  24  39  67  90 140 168 216 282 344 401
#     4  10  20  34  58  95 132 169 219 275 334 397
#     4  11  27  46  65 101 133 177 235 281 340 419
#     4  12  30  47  78  97 136 191 239 284 356 427
#     4  10  19  37  65 101 136 177 225 286 349 408
#     4  10  22  42  70 101 133 172 235 291 338 407
#
# _framework density 21.781351999999998
#
# number of rings (size 3 to 8) (size 9 to 14) (size 15 to 20)
#    0.000    1.400    1.000    3.600   11.200    2.400 
#    0.000    2.000    0.000    5.400    0.000    0.000 
#    0.000    0.000    0.000    0.000    0.000    0.000 
#
# Total GULP energy -223438.513903 kJ/mol
# GULP energy per Si atom -5585.962848 kJ/mol
# Density = 2.173178 g / cm^3
# Si number density = 21.781352 Si / 1000 Ang^3
#
#
#
# Elastic Constant Matrix: (Units=GPa)
#
#
# Indices 1 2 3 4 5 6 
#
# 1 70.8474 27.5695 17.5805 0.0000 0.0000 0.0000
# 2 27.5695 132.5506 55.2856 0.0000 0.0000 0.0000
# 3 17.5805 55.2856 92.4333 0.0000 0.0000 0.0000
# 4 0.0000 0.0000 0.0000 8.5392 0.0000 0.0000
# 5 0.0000 0.0000 0.0000 0.0000 42.6069 0.0000
# 6 0.0000 0.0000 0.0000 0.0000 0.0000 32.5397
#
#
#
# Elastic Compliance Matrix: (Units=1/GPa)
#
#
# Indices 1 2 3 4 5 6 
#
# 1 0.015485 -0.002655 -0.001357 0.000000 0.000000 0.000000
# 2 -0.002655 0.010507 -0.005779 0.000000 0.000000 0.000000
# 3 -0.001357 -0.005779 0.014534 0.000000 0.000000 0.000000
# 4 0.000000 0.000000 0.000000 0.117108 0.000000 0.000000
# 5 0.000000 0.000000 0.000000 0.000000 0.023470 0.000000
# 6 0.000000 0.000000 0.000000 0.000000 0.000000 0.030732
#
#
# Mechanical properties :
#
#
# Convention : Reuss Voigt Hill
#
# Bulk Modulus (GPa) = 47.75014 55.18918 51.46966
# Shear Modulus (GPa) = 20.97328 29.76353 25.36841
#
# Velocity S-wave (km/s) = 3.10643 3.70059 3.41645
# Velocity P-wave (km/s) = 5.90226 6.60696 6.26453
#
# Compressibility (1/GPa) = 0.02094235
#
# Stress axis : x y z
#
# Youngs Moduli (GPa) = 64.58008 95.17485 68.80612
#
# Poissons Ratio (x) = 0.25264 0.09340
# Poissons Ratio (y) = 0.17143 0.39766
# Poissons Ratio (z) = 0.08766 0.55006
#
# Static dielectric constant tensor:
#      x y z
#    x 1.916100 0.000000 0.000000 
#    y 0.000000 1.820550 0.000000 
#    z 0.000000 0.000000 1.775870 
# 
# From -- ./inp_files/23603.got.cif
#   From: 2010.05.17/outbox.cif.g08.bks.cpg/sg74_12_cif.got.tgz:23603.got - 2010.06.03 17:57:02.
