data_PCOD9536969
_publ_section_title
;
Structure prediction by ZEFSAII (Michael W. Deem and Ramdas Pophale) SiO2 
 PCOD9536969
Probable space group: I M M A
;
_chemical_formula_sum "Si O2"
_cell_formula_units_Z 116
_cell_length_a 19.618183
_cell_length_b 22.400731
_cell_length_c 14.254167
_cell_angle_alpha 90.000000
_cell_angle_beta 90.000000
_cell_angle_gamma 90.000000
_cell_volume 6264.159608
_symmetry_space_group_name_H-M "I M M A"
_symmetry_group_IT_number 74
_symmetry_cell_setting 'orthorhombic'
loop_
_space_group_symop_operation_xyz
x,y,z
-x,1/2-y,z
x,-y,-z
-x,1/2+y,-z
-x,-y,-z
x,1/2+y,-z
-x,y,z
x,1/2-y,z
1/2+x,1/2+y,1/2+z
1/2-x,-y,1/2+z
1/2+x,1/2-y,1/2-z
1/2-x,y,1/2-z
1/2-x,1/2-y,1/2-z
1/2+x,y,1/2-z
1/2-x,1/2+y,1/2+z
1/2+x,-y,1/2+z
loop_
_atom_site_type_symbol
_atom_site_label
_atom_site_fract_x
_atom_site_fract_y
_atom_site_fract_z
Si Si1 0.105195 0.841727 0.621202
Si Si2 0.757710 0.818582 0.942642
Si Si3 0.395291 0.184958 0.337155
Si Si4 0.196966 0.938013 0.048112
Si Si5 0.078863 0.017269 0.392008
Si Si6 0.177332 0.500529 0.771271
Si Si7 0.500000 0.750000 0.954768
Si Si8 0.575677 0.563325 0.582312
O O1 0.183488 0.829094 0.598951
O O2 0.090591 0.821657 0.727515
O O3 0.089257 0.911671 0.615647
O O4 0.058911 0.802302 0.553662
O O5 0.761552 0.750000 0.981847
O O6 0.815079 0.820857 0.861590
O O7 0.772898 0.875847 0.009980
O O8 0.417324 0.250000 0.368572
O O9 0.429457 0.132516 0.393324
O O10 0.199007 0.946630 0.159562
O O11 0.117892 0.939440 0.014150
O O12 0.226200 0.000000 0.000000
O O13 0.134411 0.988179 0.322297
O O14 0.000000 0.002945 0.366182
O O15 0.089430 0.000000 0.500000
O O16 0.250000 0.531912 0.750000
O O17 0.126114 0.538209 0.837116
O O18 0.500000 0.537145 0.584833
#
# Coordination Sequence:
#
# PCOD9536969 Si02
#       8
#    16  16  16  16  16  16   4  16
#     4  12  22  34  56  79 121 160 198 247 296 363
#     4  10  21  37  58  86 116 159 198 253 298 366
#     4  10  20  31  51  82 119 152 197 227 292 365
#     4   9  22  38  58  90 118 153 204 242 305 359
#     4  11  26  41  58  87 121 160 203 251 306 366
#     4  11  24  37  59  85 112 156 192 252 304 351
#     4  12  24  36  48  92 112 168 212 234 304 372
#     4  10  21  35  56  83 120 157 193 236 292 359
#
# _framework density 18.518048
#
# number of rings (size 3 to 8) (size 9 to 14) (size 15 to 20)
#    0.000    1.517    3.448    0.828    8.690    4.414 
#    0.000    0.000    0.000    0.414    1.793    0.000 
#    0.000    0.000    0.000    0.000    0.000    0.000 
#
# Total GULP energy -322937.771906 kJ/mol
# GULP energy per Si atom -5567.892619 kJ/mol
# Density = 1.847590 g / cm^3
# Si number density = 18.518048 Si / 1000 Ang^3
#
#
#
# Elastic Constant Matrix: (Units=GPa)
#
#
# Indices 1 2 3 4 5 6 
#
# 1 125.7199 0.2207 23.9551 0.0000 0.0000 0.0000
# 2 0.2207 94.5157 24.2570 0.0000 0.0000 0.0000
# 3 23.9551 24.2570 69.9331 0.0000 0.0000 0.0000
# 4 0.0000 0.0000 0.0000 22.8640 0.0000 0.0000
# 5 0.0000 0.0000 0.0000 0.0000 1.5925 0.0000
# 6 0.0000 0.0000 0.0000 0.0000 0.0000 21.2384
#
#
#
# Elastic Compliance Matrix: (Units=1/GPa)
#
#
# Indices 1 2 3 4 5 6 
#
# 1 0.008565 0.000805 -0.003213 0.000000 0.000000 0.000000
# 2 0.000805 0.011690 -0.004330 0.000000 0.000000 0.000000
# 3 -0.003213 -0.004330 0.016902 0.000000 0.000000 0.000000
# 4 0.000000 0.000000 0.000000 0.043737 0.000000 0.000000
# 5 0.000000 0.000000 0.000000 0.000000 0.627935 0.000000
# 6 0.000000 0.000000 0.000000 0.000000 0.000000 0.047084
#
#
# Mechanical properties :
#
#
# Convention : Reuss Voigt Hill
#
# Bulk Modulus (GPa) = 42.23092 43.00381 42.61736
# Shear Modulus (GPa) = 6.43266 25.25472 15.84369
#
# Velocity S-wave (km/s) = 1.86582 3.69696 2.92820
# Velocity P-wave (km/s) = 5.24371 6.44177 5.87337
#
# Compressibility (1/GPa) = 0.02367933
#
# Stress axis : x y z
#
# Youngs Moduli (GPa) = 116.75451 85.54518 59.16470
#
# Poissons Ratio (x) = -0.06883 0.19009
# Poissons Ratio (y) = -0.09394 0.25620
# Poissons Ratio (z) = 0.37513 0.37044
#
# Static dielectric constant tensor:
#      x y z
#    x 1.701590 0.000000 0.000000 
#    y 0.000000 1.681550 0.000000 
#    z 0.000000 0.000000 1.641850 
# 
# From -- ./inp_files/34515.got.cif
#   From: 2010.05.17/outbox.cif.g08.bks.cpg/sg74_18_cif.got.tgz:34515.got - 2010.06.03 17:57:02.
