data_PCOD9536788
_publ_section_title
;
Structure prediction by ZEFSAII (Michael W. Deem and Ramdas Pophale) SiO2 
 PCOD9536788
Probable space group: I M M A
;
_chemical_formula_sum "Si O2"
_cell_formula_units_Z 88
_cell_length_a 13.970350
_cell_length_b 16.003701
_cell_length_c 18.612022
_cell_angle_alpha 90.000000
_cell_angle_beta 90.000000
_cell_angle_gamma 90.000000
_cell_volume 4161.225706
_symmetry_space_group_name_H-M "I M M A"
_symmetry_group_IT_number 74
_symmetry_cell_setting 'orthorhombic'
loop_
_space_group_symop_operation_xyz
x,y,z
-x,1/2-y,z
x,-y,-z
-x,1/2+y,-z
-x,-y,-z
x,1/2+y,-z
-x,y,z
x,1/2-y,z
1/2+x,1/2+y,1/2+z
1/2-x,-y,1/2+z
1/2+x,1/2-y,1/2-z
1/2-x,y,1/2-z
1/2-x,1/2-y,1/2-z
1/2+x,y,1/2-z
1/2-x,1/2+y,1/2+z
1/2+x,-y,1/2+z
loop_
_atom_site_type_symbol
_atom_site_label
_atom_site_fract_x
_atom_site_fract_y
_atom_site_fract_z
Si Si1 0.240361 0.403209 0.013068
Si Si2 0.750000 0.871125 0.750000
Si Si3 0.762662 0.344153 0.851701
Si Si4 0.887642 0.427542 0.734340
Si Si5 0.110480 0.151608 0.135650
Si Si6 0.387122 0.099699 0.141498
O O1 0.154391 0.361898 0.057629
O O2 0.334244 0.399374 0.064666
O O3 0.219372 0.500000 0.000000
O O4 0.248011 0.361801 0.935644
O O5 0.824542 0.902625 0.810760
O O6 0.670654 0.837782 0.806367
O O7 0.798133 0.250000 0.840170
O O8 0.830189 0.409985 0.808682
O O9 0.658955 0.356614 0.815841
O O10 0.872127 0.511684 0.685376
O O11 0.000000 0.421429 0.746963
O O12 0.120772 0.250000 0.154780
O O13 0.000000 0.128687 0.141201
O O14 0.500000 0.115061 0.136275
#
# Coordination Sequence:
#
# PCOD9536788 Si02
#       6
#    16   8  16  16  16  16
#     4  11  23  40  61  86 123 161 205 251 305 360
#     4  10  19  36  62  90 121 154 200 244 301 354
#     4  11  23  39  60  89 124 161 203 253 308 368
#     4  10  21  38  62  89 120 158 202 252 307 365
#     4  10  22  39  60  87 119 156 196 243 302 362
#     4  10  21  37  62  93 124 158 203 255 307 361
#
# _framework density 21.147615999999999
#
# number of rings (size 3 to 8) (size 9 to 14) (size 15 to 20)
#    0.000    1.636    1.818    3.545    2.545    3.636 
#    0.000    0.000    0.000   10.364    0.000    0.000 
#    0.000    0.000    0.000    0.000    0.000    0.000 
#
# Total GULP energy -244987.406925 kJ/mol
# GULP energy per Si atom -5567.895612 kJ/mol
# Density = 2.109948 g / cm^3
# Si number density = 21.147616 Si / 1000 Ang^3
#
#
#
# Elastic Constant Matrix: (Units=GPa)
#
#
# Indices 1 2 3 4 5 6 
#
# 1 177.0469 46.3214 67.8496 0.0000 0.0000 0.0000
# 2 46.3214 97.8371 32.8497 0.0000 0.0000 0.0000
# 3 67.8496 32.8497 181.3613 0.0000 0.0000 0.0000
# 4 0.0000 0.0000 0.0000 24.6063 0.0000 0.0000
# 5 0.0000 0.0000 0.0000 0.0000 12.5339 0.0000
# 6 0.0000 0.0000 0.0000 0.0000 0.0000 27.0374
#
#
#
# Elastic Compliance Matrix: (Units=1/GPa)
#
#
# Indices 1 2 3 4 5 6 
#
# 1 0.007191 -0.002663 -0.002208 0.000000 0.000000 0.000000
# 2 -0.002663 0.011869 -0.001153 0.000000 0.000000 0.000000
# 3 -0.002208 -0.001153 0.006549 0.000000 0.000000 0.000000
# 4 0.000000 0.000000 0.000000 0.040640 0.000000 0.000000
# 5 0.000000 0.000000 0.000000 0.000000 0.079783 0.000000
# 6 0.000000 0.000000 0.000000 0.000000 0.000000 0.036986
#
#
# Mechanical properties :
#
#
# Convention : Reuss Voigt Hill
#
# Bulk Modulus (GPa) = 73.74728 83.36516 78.55622
# Shear Modulus (GPa) = 25.05160 33.45049 29.25105
#
# Velocity S-wave (km/s) = 3.44555 3.98145 3.72315
# Velocity P-wave (km/s) = 7.12582 7.78730 7.46390
#
# Compressibility (1/GPa) = 0.01355982
#
# Stress axis : x y z
#
# Youngs Moduli (GPa) = 139.05917 84.25060 152.70003
#
# Poissons Ratio (x) = 0.22439 0.33715
# Poissons Ratio (y) = 0.37037 0.17614
# Poissons Ratio (z) = 0.30703 0.09718
#
# Static dielectric constant tensor:
#      x y z
#    x 1.743100 0.000000 0.000000 
#    y 0.000000 1.997690 0.000000 
#    z 0.000000 0.000000 1.759730 
# 
# From -- ./inp_files/42813.got.cif
#   From: 2010.05.17/outbox.cif.g08.bks.cpg/sg74_22_cif.got.tgz:42813.got - 2010.06.03 17:57:02.
