data_PCOD9536734
_publ_section_title
;
Structure prediction by ZEFSAII (Michael W. Deem and Ramdas Pophale) SiO2 
 PCOD9536734
Probable space group: I M M A
;
_chemical_formula_sum "Si O2"
_cell_formula_units_Z 84
_cell_length_a 15.109920
_cell_length_b 15.377112
_cell_length_c 18.113703
_cell_angle_alpha 90.000000
_cell_angle_beta 90.000000
_cell_angle_gamma 90.000000
_cell_volume 4208.663322
_symmetry_space_group_name_H-M "I M M A"
_symmetry_group_IT_number 74
_symmetry_cell_setting 'orthorhombic'
loop_
_space_group_symop_operation_xyz
x,y,z
-x,1/2-y,z
x,-y,-z
-x,1/2+y,-z
-x,-y,-z
x,1/2+y,-z
-x,y,z
x,1/2-y,z
1/2+x,1/2+y,1/2+z
1/2-x,-y,1/2+z
1/2+x,1/2-y,1/2-z
1/2-x,y,1/2-z
1/2-x,1/2-y,1/2-z
1/2+x,y,1/2-z
1/2-x,1/2+y,1/2+z
1/2+x,-y,1/2+z
loop_
_atom_site_type_symbol
_atom_site_label
_atom_site_fract_x
_atom_site_fract_y
_atom_site_fract_z
Si Si1 0.711995 0.144425 0.583459
Si Si2 0.500000 0.750000 0.757542
Si Si3 0.151936 0.390903 0.224045
Si Si4 0.102718 0.644143 0.940168
Si Si5 0.397746 0.585612 0.275414
Si Si6 0.596851 0.351414 0.886890
O O1 0.713762 0.250000 0.583758
O O2 0.654496 0.116868 0.513142
O O3 0.665496 0.115568 0.658947
O O4 0.813017 0.111531 0.579350
O O5 0.577655 0.825312 0.752521
O O6 0.250000 0.367312 0.250000
O O7 0.145690 0.389422 0.134956
O O8 0.128670 0.488518 0.247984
O O9 0.103594 0.750000 0.935966
O O10 0.000000 0.617429 0.942448
O O11 0.500000 0.587242 0.300961
O O12 0.391722 0.642809 0.201656
O O13 0.500000 0.390468 0.904590
O O14 0.593408 0.250000 0.908051
#
# Coordination Sequence:
#
# PCOD9536734 Si02
#       6
#    16   4  16  16  16  16
#     4  10  20  33  55  83 116 153 188 217 270 335
#     4  12  22  44  60  84 110 138 184 234 286 336
#     4  12  23  39  64  83 109 143 183 231 288 335
#     4  10  19  36  56  80 111 143 179 230 281 328
#     4  11  21  35  54  86 116 144 187 233 272 323
#     4   9  18  33  54  78 117 156 186 223 267 318
#
# _framework density 19.958832000000001
#
# number of rings (size 3 to 8) (size 9 to 14) (size 15 to 20)
#    0.000    1.524    2.857    3.143    0.000    4.190 
#    0.000    1.905    2.095    0.000    0.000    4.000 
#    0.000    0.000    0.000    0.000    0.000    0.000 
#
# Total GULP energy -234033.494126 kJ/mol
# GULP energy per Si atom -5572.226051 kJ/mol
# Density = 1.991340 g / cm^3
# Si number density = 19.958832 Si / 1000 Ang^3
#
#
#
# Elastic Constant Matrix: (Units=GPa)
#
#
# Indices 1 2 3 4 5 6 
#
# 1 205.2912 14.9304 54.1420 0.0000 0.0000 0.0000
# 2 14.9304 40.5373 -3.8174 0.0000 0.0000 0.0000
# 3 54.1420 -3.8174 42.1860 0.0000 0.0000 0.0000
# 4 0.0000 0.0000 0.0000 1.7109 0.0000 0.0000
# 5 0.0000 0.0000 0.0000 0.0000 -1.9162 0.0000
# 6 0.0000 0.0000 0.0000 0.0000 0.0000 22.0213
#
#
#
# Elastic Compliance Matrix: (Units=1/GPa)
#
#
# Indices 1 2 3 4 5 6 
#
# 1 0.007935 -0.003915 -0.010538 0.000000 0.000000 0.000000
# 2 -0.003915 0.026812 0.007451 0.000000 0.000000 0.000000
# 3 -0.010538 0.007451 0.037904 0.000000 0.000000 0.000000
# 4 0.000000 0.000000 0.000000 0.584472 -0.000002 0.000000
# 5 0.000000 0.000000 0.000000 -0.000002 -0.521854 0.000000
# 6 0.000000 0.000000 0.000000 0.000000 0.000000 0.045411
#
#
# Mechanical properties :
#
#
# Convention : Reuss Voigt Hill
#
# Bulk Modulus (GPa) = 17.05143 46.50274 31.77708
# Shear Modulus (GPa) = 23.33898 19.21384 21.27641
#
# Velocity S-wave (km/s) = 3.42329 3.10606 3.26853
# Velocity P-wave (km/s) = 4.91804 6.01776 5.49548
#
# Compressibility (1/GPa) = 0.05864612
#
# Stress axis : x y z
#
# Youngs Moduli (GPa) = 126.02110 37.29642 26.38251
#
# Poissons Ratio (x) = 0.14602 0.27803
# Poissons Ratio (y) = 0.49338 -0.19657
# Poissons Ratio (z) = 1.32806 -0.27789
#
# Static dielectric constant tensor:
#      x y z
#    x 1.726130 0.000000 0.000000 
#    y 0.000000 1.712140 0.000000 
#    z 0.000000 0.000000 1.671030 
# 
# From -- ./inp_files/51757.got.cif
#   From: 2010.05.17/outbox.cif.g08.bks.cpg/sg74_26_cif.got.tgz:51757.got - 2010.06.03 17:57:02.
