data_PCOD9536643
_publ_section_title
;
Structure prediction by ZEFSAII (Michael W. Deem and Ramdas Pophale) SiO2 
 PCOD9536643
Probable space group: I M M A
;
_chemical_formula_sum "Si O2"
_cell_formula_units_Z 104
_cell_length_a 21.995627
_cell_length_b 8.713261
_cell_length_c 27.293209
_cell_angle_alpha 90.000000
_cell_angle_beta 90.000000
_cell_angle_gamma 90.000000
_cell_volume 5230.842822
_symmetry_space_group_name_H-M "I M M A"
_symmetry_group_IT_number 74
_symmetry_cell_setting 'orthorhombic'
loop_
_space_group_symop_operation_xyz
x,y,z
-x,1/2-y,z
x,-y,-z
-x,1/2+y,-z
-x,-y,-z
x,1/2+y,-z
-x,y,z
x,1/2-y,z
1/2+x,1/2+y,1/2+z
1/2-x,-y,1/2+z
1/2+x,1/2-y,1/2-z
1/2-x,y,1/2-z
1/2-x,1/2-y,1/2-z
1/2+x,y,1/2-z
1/2-x,1/2+y,1/2+z
1/2+x,-y,1/2+z
loop_
_atom_site_type_symbol
_atom_site_label
_atom_site_fract_x
_atom_site_fract_y
_atom_site_fract_z
Si Si1 0.387711 0.935026 0.378966
Si Si2 0.500000 0.933867 0.446388
Si Si3 0.210814 0.431161 0.051990
Si Si4 0.571669 0.568881 0.946246
Si Si5 0.680324 0.932694 0.104787
Si Si6 0.192977 0.937095 0.283737
Si Si7 0.430064 0.063026 0.730267
O O1 0.380617 0.750000 0.378809
O O2 0.441165 0.980022 0.415925
O O3 0.408583 0.979550 0.324641
O O4 0.328112 0.007420 0.402224
O O5 0.500000 0.750000 0.448903
O O6 0.500000 0.000000 0.500000
O O7 0.206932 0.250000 0.048947
O O8 0.278572 0.486417 0.064004
O O9 0.189779 0.500000 0.000000
O O10 0.500000 0.549175 0.937121
O O11 0.585577 0.750000 0.945917
O O12 0.611710 0.481184 0.906482
O O13 0.584580 0.500000 0.000000
O O14 0.687748 0.750000 0.100897
O O15 0.699558 0.980981 0.159525
O O16 0.193237 0.750000 0.281837
O O17 0.250000 0.987884 0.250000
O O18 0.126159 0.986462 0.264622
O O19 0.500000 0.011338 0.739810
O O20 0.431963 0.250000 0.732000
#
# Coordination Sequence:
#
# PCOD9536643 Si02
#       7
#    16   8  16  16  16  16  16
#     4  10  19  35  57  83 114 148 190 234 284 335
#     4  10  20  32  50  78 110 146 184 228 279 330
#     4  12  25  40  58  82 113 152 194 237 288 345
#     4  10  21  38  60  86 118 155 191 230 281 344
#     4  11  22  37  59  87 117 149 189 241 292 343
#     4   9  18  32  53  84 116 147 188 241 296 342
#     4   9  16  30  55  85 116 150 190 238 288 340
#
# _framework density 19.882072999999998
#
# number of rings (size 3 to 8) (size 9 to 14) (size 15 to 20)
#    0.000    1.846    0.769    4.154    0.000    5.846 
#    0.000    1.538    0.000    8.308    0.000    0.000 
#    0.000    0.000    0.000    0.000    0.000    0.000 
#
# Total GULP energy -290355.073088 kJ/mol
# GULP energy per Si atom -5583.751406 kJ/mol
# Density = 1.983682 g / cm^3
# Si number density = 19.882073 Si / 1000 Ang^3
#
#
#
# Elastic Constant Matrix: (Units=GPa)
#
#
# Indices 1 2 3 4 5 6 
#
# 1 95.0902 17.9428 31.3816 0.0000 0.0000 0.0000
# 2 17.9428 25.3981 11.8166 0.0000 0.0000 0.0000
# 3 31.3816 11.8166 68.2645 0.0000 0.0000 0.0000
# 4 0.0000 0.0000 0.0000 16.8701 0.0000 0.0000
# 5 0.0000 0.0000 0.0000 0.0000 33.4221 0.0000
# 6 0.0000 0.0000 0.0000 0.0000 0.0000 10.6824
#
#
#
# Elastic Compliance Matrix: (Units=1/GPa)
#
#
# Indices 1 2 3 4 5 6 
#
# 1 0.013521 -0.007243 -0.004962 0.000000 0.000000 0.000000
# 2 -0.007243 0.046702 -0.004754 0.000000 0.000000 0.000000
# 3 -0.004962 -0.004754 0.017753 0.000000 0.000000 0.000000
# 4 0.000000 0.000000 0.000000 0.059277 0.000000 0.000000
# 5 0.000000 0.000000 0.000000 0.000000 0.029920 0.000000
# 6 0.000000 0.000000 0.000000 0.000000 0.000000 0.093612
#
#
# Mechanical properties :
#
#
# Convention : Reuss Voigt Hill
#
# Bulk Modulus (GPa) = 22.69798 34.55942 28.62870
# Shear Modulus (GPa) = 16.16091 20.70236 18.43164
#
# Velocity S-wave (km/s) = 2.85412 3.23035 3.04805
# Velocity P-wave (km/s) = 4.72255 5.59763 5.17861
#
# Compressibility (1/GPa) = 0.04405678
#
# Stress axis : x y z
#
# Youngs Moduli (GPa) = 73.96158 21.41235 56.32918
#
# Poissons Ratio (x) = 0.15510 0.27949
# Poissons Ratio (y) = 0.53573 0.26781
# Poissons Ratio (z) = 0.36697 0.10180
#
# Static dielectric constant tensor:
#      x y z
#    x 1.781840 0.000000 0.000000 
#    y 0.000000 1.673970 0.000000 
#    z 0.000000 0.000000 1.700000 
# 
# From -- ./inp_files/68233.got.cif
#   From: 2010.05.17/outbox.cif.g08.bks.cpg/sg74_35_cif.got.tgz:68233.got - 2010.06.03 17:57:02.
