data_PCOD9536500
_publ_section_title
;
Structure prediction by ZEFSAII (Michael W. Deem and Ramdas Pophale) SiO2 
 PCOD9536500
Probable space group: I M M A
;
_chemical_formula_sum "Si O2"
_cell_formula_units_Z 96
_cell_length_a 30.616761
_cell_length_b 7.669727
_cell_length_c 19.577810
_cell_angle_alpha 90.000000
_cell_angle_beta 90.000000
_cell_angle_gamma 90.000000
_cell_volume 4597.304386
_symmetry_space_group_name_H-M "I M M A"
_symmetry_group_IT_number 74
_symmetry_cell_setting 'orthorhombic'
loop_
_space_group_symop_operation_xyz
x,y,z
-x,1/2-y,z
x,-y,-z
-x,1/2+y,-z
-x,-y,-z
x,1/2+y,-z
-x,y,z
x,1/2-y,z
1/2+x,1/2+y,1/2+z
1/2-x,-y,1/2+z
1/2+x,1/2-y,1/2-z
1/2-x,y,1/2-z
1/2-x,1/2-y,1/2-z
1/2+x,y,1/2-z
1/2-x,1/2+y,1/2+z
1/2+x,-y,1/2+z
loop_
_atom_site_type_symbol
_atom_site_label
_atom_site_fract_x
_atom_site_fract_y
_atom_site_fract_z
Si Si1 0.827092 0.457254 0.424720
Si Si2 0.297661 0.459096 0.771608
Si Si3 0.950564 0.540102 0.079713
Si Si4 0.621546 0.051328 0.683509
Si Si5 0.546804 0.961793 0.781548
Si Si6 0.926299 0.458116 0.427388
O O1 0.807444 0.500000 0.500000
O O2 0.829335 0.250000 0.422337
O O3 0.806262 0.509903 0.352248
O O4 0.876728 0.530113 0.425481
O O5 0.298427 0.250000 0.763321
O O6 0.250000 0.524443 0.750000
O O7 0.335217 0.527525 0.719343
O O8 0.951242 0.750000 0.089338
O O9 0.909086 0.471856 0.123451
O O10 0.000000 0.475143 0.097053
O O11 0.944140 0.500000 0.000000
O O12 0.632359 0.250000 0.662368
O O13 0.586788 0.049697 0.744663
O O14 0.500000 0.011809 0.752084
O O15 0.551100 0.750000 0.776401
O O16 0.548779 0.013764 0.860403
O O17 0.946408 0.500000 0.500000
O O18 0.923222 0.250000 0.423174
#
# Coordination Sequence:
#
# PCOD9536500 Si02
#       6
#    16  16  16  16  16  16
#     4  10  19  34  57  81 107 141 183 226 269 323
#     4  10  21  37  57  82 111 143 180 228 283 334
#     4   9  18  33  53  78 106 136 172 212 259 321
#     4  10  20  35  55  77 105 139 176 220 268 321
#     4  10  20  33  49  73 106 140 175 217 263 311
#     4   9  18  31  47  70 100 135 174 215 255 301
#
# _framework density 20.881802
#
# number of rings (size 3 to 8) (size 9 to 14) (size 15 to 20)
#    0.000    2.333    1.667    1.000    0.000    3.667 
#    0.000    2.500    0.000    2.000    0.000    0.000 
#    0.000    0.000    0.000    0.000    0.000    0.000 
#
# Total GULP energy -267465.975881 kJ/mol
# GULP energy per Si atom -5572.207831 kJ/mol
# Density = 2.083427 g / cm^3
# Si number density = 20.881802 Si / 1000 Ang^3
#
#
#
# Elastic Constant Matrix: (Units=GPa)
#
#
# Indices 1 2 3 4 5 6 
#
# 1 147.2192 8.0168 78.1178 0.0000 0.0000 0.0000
# 2 8.0168 40.7968 -5.7398 0.0000 0.0000 0.0000
# 3 78.1178 -5.7398 163.9729 0.0000 0.0000 0.0000
# 4 0.0000 0.0000 0.0000 27.2818 0.0000 0.0000
# 5 0.0000 0.0000 0.0000 0.0000 33.0857 0.0000
# 6 0.0000 0.0000 0.0000 0.0000 0.0000 43.8127
#
#
#
# Elastic Compliance Matrix: (Units=1/GPa)
#
#
# Indices 1 2 3 4 5 6 
#
# 1 0.009332 -0.002472 -0.004532 0.000000 0.000000 0.000000
# 2 -0.002472 0.025288 0.002063 0.000000 0.000000 0.000000
# 3 -0.004532 0.002063 0.008330 0.000000 0.000000 0.000000
# 4 0.000000 0.000000 0.000000 0.036654 0.000000 0.000000
# 5 0.000000 0.000000 0.000000 0.000000 0.030225 0.000000
# 6 0.000000 0.000000 0.000000 0.000000 0.000000 0.022824
#
#
# Mechanical properties :
#
#
# Convention : Reuss Voigt Hill
#
# Bulk Modulus (GPa) = 30.24146 56.97539 43.60843
# Shear Modulus (GPa) = 32.56093 38.94232 35.75162
#
# Velocity S-wave (km/s) = 3.95308 4.32313 4.14224
# Velocity P-wave (km/s) = 5.94554 7.22933 6.61863
#
# Compressibility (1/GPa) = 0.03306719
#
# Stress axis : x y z
#
# Youngs Moduli (GPa) = 107.15603 39.54511 120.04733
#
# Poissons Ratio (x) = 0.09774 0.54411
# Poissons Ratio (y) = 0.26484 -0.24761
# Poissons Ratio (z) = 0.48568 -0.08157
#
# Static dielectric constant tensor:
#      x y z
#    x 1.751980 0.000000 0.000000 
#    y 0.000000 1.787890 0.000000 
#    z 0.000000 0.000000 1.775560 
# 
# From -- ./inp_files/55107.got.cif
#   From: 2010.05.17/outbox.cif.g08.bks.cpg/sg74_28_cif.got.tgz:55107.got - 2010.06.03 17:57:02.
