data_PCOD9536323
_publ_section_title
;
Structure prediction by ZEFSAII (Michael W. Deem and Ramdas Pophale) SiO2 
 PCOD9536323
Probable space group: I M M A
;
_chemical_formula_sum "Si O2"
_cell_formula_units_Z 80
_cell_length_a 13.716247
_cell_length_b 26.501260
_cell_length_c 9.455527
_cell_angle_alpha 90.000000
_cell_angle_beta 90.000000
_cell_angle_gamma 90.000000
_cell_volume 3437.063527
_symmetry_space_group_name_H-M "I M M A"
_symmetry_group_IT_number 74
_symmetry_cell_setting 'orthorhombic'
loop_
_space_group_symop_operation_xyz
x,y,z
-x,1/2-y,z
x,-y,-z
-x,1/2+y,-z
-x,-y,-z
x,1/2+y,-z
-x,y,z
x,1/2-y,z
1/2+x,1/2+y,1/2+z
1/2-x,-y,1/2+z
1/2+x,1/2-y,1/2-z
1/2-x,y,1/2-z
1/2-x,1/2-y,1/2-z
1/2+x,y,1/2-z
1/2-x,1/2+y,1/2+z
1/2+x,-y,1/2+z
loop_
_atom_site_type_symbol
_atom_site_label
_atom_site_fract_x
_atom_site_fract_y
_atom_site_fract_z
Si Si1 0.194513 0.195458 0.977153
Si Si2 0.606642 0.674857 0.172171
Si Si3 0.108080 0.952499 0.636057
Si Si4 0.826040 0.417728 0.058763
Si Si5 0.865521 0.560402 0.249595
O O1 0.176342 0.250000 0.045959
O O2 0.307723 0.190950 0.931991
O O3 0.136129 0.193599 0.828605
O O4 0.171062 0.143151 0.053602
O O5 0.500000 0.692098 0.130717
O O6 0.605544 0.614300 0.189065
O O7 0.124737 0.935026 0.797784
O O8 0.211361 0.935602 0.564606
O O9 0.000000 0.934278 0.589849
O O10 0.102785 0.013109 0.657355
O O11 0.881802 0.439101 0.920206
O O12 0.750000 0.559301 0.250000
#
# Coordination Sequence:
#
# PCOD9536323 Si02
#       5
#    16  16  16  16  16
#     4  10  21  37  57  82 113 152 193 240 292 335
#     4  10  19  33  56  89 122 148 181 230 290 356
#     4  11  24  39  60  86 116 158 196 234 280 332
#     4  10  22  40  60  80 119 152 193 242 278 344
#     4  11  19  37  60  88 122 151 181 227 286 352
#
# _framework density 23.275680999999999
#
# number of rings (size 3 to 8) (size 9 to 14) (size 15 to 20)
#    0.000    1.600    6.000    2.400    0.000    7.200 
#    0.000    3.000    0.000    1.200    0.000    0.000 
#    0.000    0.000    0.000    0.000    0.000    0.000 
#
# Total GULP energy -223548.454331 kJ/mol
# GULP energy per Si atom -5588.711358 kJ/mol
# Density = 2.322270 g / cm^3
# Si number density = 23.275681 Si / 1000 Ang^3
#
#
#
# Elastic Constant Matrix: (Units=GPa)
#
#
# Indices 1 2 3 4 5 6 
#
# 1 105.5398 -3.9380 -5.7777 0.0003 0.0001 0.0000
# 2 -3.9380 164.4767 7.9710 0.0006 0.0000 0.0001
# 3 -5.7777 7.9710 58.6134 -0.0009 0.0000 0.0006
# 4 0.0003 0.0006 -0.0009 -0.6527 0.0001 0.0003
# 5 0.0001 0.0000 0.0000 0.0001 1.5829 0.0001
# 6 0.0000 0.0001 0.0006 0.0003 0.0001 -22.9768
#
#
#
# Elastic Compliance Matrix: (Units=1/GPa)
#
#
# Indices 1 2 3 4 5 6 
#
# 1 0.009532 0.000184 0.000915 0.000003 0.000000 0.000000
# 2 0.000184 0.006124 -0.000815 0.000006 0.000000 0.000000
# 3 0.000915 -0.000815 0.017262 -0.000023 0.000000 0.000000
# 4 0.000003 0.000006 -0.000023 -1.532039 0.000065 -0.000017
# 5 0.000000 0.000000 0.000000 0.000065 0.631758 0.000003
# 6 0.000000 0.000000 0.000000 -0.000017 0.000003 -0.043522
#
#
# Mechanical properties :
#
#
# Convention : Reuss Voigt Hill
#
# Bulk Modulus (GPa) = 29.86380 36.12672 32.99526
# Shear Modulus (GPa) = -5.55376 17.61564 6.03094
#
# Velocity S-wave (km/s) = -1.54637 2.75403 1.61143
# Velocity P-wave (km/s) = 3.10966 5.06634 4.20344
#
# Compressibility (1/GPa) = 0.03348536
#
# Stress axis : x y z
#
# Youngs Moduli (GPa) = 104.90942 163.29807 57.93105
#
# Poissons Ratio (x) = -0.03003 -0.05298
# Poissons Ratio (y) = -0.01929 0.04719
# Poissons Ratio (z) = -0.09595 0.13303
#
# Static dielectric constant tensor:
#      x y z
#    x 1.872780 0.000000 0.000000 
#    y 0.000000 1.918780 0.000000 
#    z 0.000000 0.000000 1.911220 
# 
# From -- ./inp_files/20808.got.cif
#   From: 2010.05.17/outbox.cif.g08.bks.cpg/sg74_11_cif.got.tgz:20808.got - 2010.06.03 17:57:02.
