data_PCOD9536902
_publ_section_title
;
Structure prediction by ZEFSAII (Michael W. Deem and Ramdas Pophale) SiO2 
 PCOD9536902
Probable space group: I M M A
;
_chemical_formula_sum "Si O2"
_cell_formula_units_Z 88
_cell_length_a 10.205753
_cell_length_b 33.133708
_cell_length_c 16.121456
_cell_angle_alpha 90.000000
_cell_angle_beta 90.000000
_cell_angle_gamma 90.000000
_cell_volume 5451.541923
_symmetry_space_group_name_H-M "I M M A"
_symmetry_group_IT_number 74
_symmetry_cell_setting 'orthorhombic'
loop_
_space_group_symop_operation_xyz
x,y,z
-x,1/2-y,z
x,-y,-z
-x,1/2+y,-z
-x,-y,-z
x,1/2+y,-z
-x,y,z
x,1/2-y,z
1/2+x,1/2+y,1/2+z
1/2-x,-y,1/2+z
1/2+x,1/2-y,1/2-z
1/2-x,y,1/2-z
1/2-x,1/2-y,1/2-z
1/2+x,y,1/2-z
1/2-x,1/2+y,1/2+z
1/2+x,-y,1/2+z
loop_
_atom_site_type_symbol
_atom_site_label
_atom_site_fract_x
_atom_site_fract_y
_atom_site_fract_z
Si Si1 0.250000 0.904814 0.750000
Si Si2 0.500000 0.201998 0.318587
Si Si3 0.351814 0.084971 0.514364
Si Si4 0.650273 0.526071 0.086123
Si Si5 0.500000 0.797585 0.881826
Si Si6 0.637860 0.971072 0.649113
Si Si7 0.755447 0.345584 0.101985
O O1 0.357620 0.935510 0.715968
O O2 0.289647 0.877052 0.826570
O O3 0.500000 0.250000 0.335086
O O4 0.500000 0.196800 0.218821
O O5 0.372508 0.180648 0.357752
O O6 0.500000 0.087675 0.548979
O O7 0.237635 0.065930 0.570544
O O8 0.359811 0.052937 0.438194
O O9 0.309241 0.127319 0.473266
O O10 0.500000 0.533537 0.110344
O O11 0.734620 0.498845 0.149078
O O12 0.645529 0.500000 0.000000
O O13 0.500000 0.750000 0.897105
O O14 0.369117 0.818091 0.916827
O O15 0.500000 0.993893 0.653984
#
# Coordination Sequence:
#
# PCOD9536902 Si02
#       7
#     8   8  16  16   8  16  16
#     4  10  20  28  43  62  82 106 144 182 211 242
#     4  11  20  34  46  58  81 111 141 174 221 271
#     4   9  17  29  45  59  76 101 131 168 209 252
#     4   9  17  29  41  61  79  98 124 162 210 253
#     4  11  22  32  44  60  83 111 137 176 227 267
#     4   9  18  29  42  56  79 107 132 163 209 254
#     4  11  20  31  45  63  81 105 142 182 216 258
#
# _framework density 16.142223000000001
#
# number of rings (size 3 to 8) (size 9 to 14) (size 15 to 20)
#    0.000    2.182    2.727    1.091    3.818    4.364 
#    3.273    0.000    0.000    0.000    0.000    0.000 
#    0.000    0.000    0.000    0.000    0.000    0.000 
#
# Total GULP energy -245139.675236 kJ/mol
# GULP energy per Si atom -5571.356255 kJ/mol
# Density = 1.610548 g / cm^3
# Si number density = 16.142223 Si / 1000 Ang^3
#
#
#
# Elastic Constant Matrix: (Units=GPa)
#
#
# Indices 1 2 3 4 5 6 
#
# 1 165.8750 63.0997 16.4474 0.0000 0.0000 0.0000
# 2 63.0997 91.9781 18.8394 0.0000 0.0000 0.0000
# 3 16.4474 18.8394 10.9962 0.0001 0.0000 0.0001
# 4 0.0000 0.0000 0.0001 24.0159 0.0000 0.0000
# 5 0.0000 0.0000 0.0000 0.0000 0.7191 0.0000
# 6 0.0000 0.0000 0.0001 0.0000 0.0000 14.7616
#
#
#
# Elastic Compliance Matrix: (Units=1/GPa)
#
#
# Indices 1 2 3 4 5 6 
#
# 1 0.008275 -0.004840 -0.004085 0.000000 0.000000 0.000000
# 2 -0.004840 0.019581 -0.026308 0.000000 0.000001 0.000000
# 3 -0.004085 -0.026308 0.142123 0.000000 -0.000003 -0.000001
# 4 0.000000 0.000000 0.000000 0.041639 0.000001 0.000000
# 5 0.000000 0.000001 -0.000003 0.000001 1.390637 -0.000001
# 6 0.000000 0.000000 -0.000001 0.000000 -0.000001 0.067743
#
#
# Mechanical properties :
#
#
# Convention : Reuss Voigt Hill
#
# Bulk Modulus (GPa) = 10.04891 51.73581 30.89236
# Shear Modulus (GPa) = 2.81907 19.26352 11.04129
#
# Velocity S-wave (km/s) = 1.32295 3.45825 2.61818
# Velocity P-wave (km/s) = 2.92785 6.93294 5.32156
#
# Compressibility (1/GPa) = 0.09951325
#
# Stress axis : x y z
#
# Youngs Moduli (GPa) = 120.84782 51.06935 7.03616
#
# Poissons Ratio (x) = 0.24719 0.02874
# Poissons Ratio (y) = 0.58493 0.18511
# Poissons Ratio (z) = 0.49361 1.34354
#
# Static dielectric constant tensor:
#      x y z
#    x 1.580070 0.000000 0.000000 
#    y 0.000000 1.536440 0.000000 
#    z 0.000000 0.000000 1.542720 
# 
# From -- ./inp_files/49540.got.cif
#   From: 2010.05.17/outbox.cif.g08.bks.cpg/sg74_25_cif.got.tgz:49540.got - 2010.06.03 17:57:02.
