data_PCOD9536276
_publ_section_title
;
Structure prediction by ZEFSAII (Michael W. Deem and Ramdas Pophale) SiO2 
 PCOD9536276
Probable space group: I M M A
;
_chemical_formula_sum "Si O2"
_cell_formula_units_Z 112
_cell_length_a 14.159278
_cell_length_b 31.944986
_cell_length_c 11.866905
_cell_angle_alpha 90.000000
_cell_angle_beta 90.000000
_cell_angle_gamma 90.000000
_cell_volume 5367.613994
_symmetry_space_group_name_H-M "I M M A"
_symmetry_group_IT_number 74
_symmetry_cell_setting 'orthorhombic'
loop_
_space_group_symop_operation_xyz
x,y,z
-x,1/2-y,z
x,-y,-z
-x,1/2+y,-z
-x,-y,-z
x,1/2+y,-z
-x,y,z
x,1/2-y,z
1/2+x,1/2+y,1/2+z
1/2-x,-y,1/2+z
1/2+x,1/2-y,1/2-z
1/2-x,y,1/2-z
1/2-x,1/2-y,1/2-z
1/2+x,y,1/2-z
1/2-x,1/2+y,1/2+z
1/2+x,-y,1/2+z
loop_
_atom_site_type_symbol
_atom_site_label
_atom_site_fract_x
_atom_site_fract_y
_atom_site_fract_z
Si Si1 0.110115 0.839598 0.528110
Si Si2 0.114939 0.047325 0.118390
Si Si3 0.889829 0.865380 0.785739
Si Si4 0.115242 0.545633 0.141676
Si Si5 0.704102 0.296313 0.441067
Si Si6 0.893639 0.883293 0.310244
Si Si7 0.645543 0.296443 0.696150
O O1 0.112626 0.858506 0.652549
O O2 0.185038 0.802182 0.531352
O O3 0.147609 0.871537 0.432166
O O4 0.000000 0.828645 0.502796
O O5 0.144126 0.088215 0.185255
O O6 0.000000 0.046184 0.118545
O O7 0.144541 0.002199 0.166389
O O8 0.144428 0.052745 0.987998
O O9 0.830882 0.831176 0.854458
O O10 0.000000 0.861303 0.821497
O O11 0.147300 0.581287 0.228399
O O12 0.000000 0.547201 0.141230
O O13 0.686208 0.250000 0.395086
O O14 0.651965 0.300365 0.561235
O O15 0.897322 0.838786 0.245804
O O16 0.000000 0.897646 0.335551
O O17 0.605674 0.250000 0.722278
O O18 0.750000 0.296223 0.750000
#
# Coordination Sequence:
#
# PCOD9536276 Si02
#       7
#    16  16  16  16  16  16  16
#     4  10  22  38  55  79 112 153 196 235 281 344
#     4   8  14  28  51  81 113 142 178 224 277 336
#     4  10  21  37  57  83 114 150 190 237 290 341
#     4   8  14  26  50  83 111 138 179 228 277 337
#     4  11  23  39  60  83 109 148 195 243 295 343
#     4  10  19  33  55  83 113 147 188 232 283 343
#     4  10  20  35  53  76 107 140 178 226 284 341
#
# _framework density 20.865881999999999
#
# number of rings (size 3 to 8) (size 9 to 14) (size 15 to 20)
#    0.000    2.429    1.429    2.143    0.000    3.714 
#    0.000    5.000    0.000    6.000    3.714    0.000 
#    0.000    0.000    0.000    0.000    0.000    0.000 
#
# Total GULP energy -312311.483000 kJ/mol
# GULP energy per Si atom -5576.990768 kJ/mol
# Density = 2.081839 g / cm^3
# Si number density = 20.865882 Si / 1000 Ang^3
#
#
#
# Elastic Constant Matrix: (Units=GPa)
#
#
# Indices 1 2 3 4 5 6 
#
# 1 59.5928 18.4353 12.3725 0.0002 -0.0001 0.0000
# 2 18.4353 135.6536 70.1383 0.0007 0.0005 0.0000
# 3 12.3725 70.1383 98.1210 -0.0007 -0.0018 -0.0001
# 4 0.0002 0.0007 -0.0007 -8.7937 -0.0005 -0.0001
# 5 -0.0001 0.0005 -0.0018 -0.0005 8.2943 0.0000
# 6 0.0000 0.0000 -0.0001 -0.0001 0.0000 20.3604
#
#
#
# Elastic Compliance Matrix: (Units=1/GPa)
#
#
# Indices 1 2 3 4 5 6 
#
# 1 0.017557 -0.001969 -0.000806 0.000000 0.000000 0.000000
# 2 -0.001969 0.011914 -0.008268 0.000002 -0.000002 0.000000
# 3 -0.000806 -0.008268 0.016203 -0.000002 0.000004 0.000000
# 4 0.000000 0.000002 -0.000002 -0.113717 -0.000007 0.000000
# 5 0.000000 -0.000002 0.000004 -0.000007 0.120565 0.000000
# 6 0.000000 0.000000 0.000000 0.000000 0.000000 0.049115
#
#
# Mechanical properties :
#
#
# Convention : Reuss Voigt Hill
#
# Bulk Modulus (GPa) = 42.39524 55.02885 48.71204
# Shear Modulus (GPa) = 37.99742 16.80026 27.39884
#
# Velocity S-wave (km/s) = 4.27198 2.84060 3.62759
# Velocity P-wave (km/s) = 6.68545 6.09825 6.39859
#
# Compressibility (1/GPa) = 0.02358756
#
# Stress axis : x y z
#
# Youngs Moduli (GPa) = 56.95695 83.93251 61.71533
#
# Poissons Ratio (x) = 0.16527 0.04976
# Poissons Ratio (y) = 0.11216 0.51028
# Poissons Ratio (z) = 0.04592 0.69397
#
# Static dielectric constant tensor:
#      x y z
#    x 1.810660 0.000000 0.000000 
#    y 0.000000 1.741680 0.000000 
#    z 0.000000 0.000000 1.729460 
# 
# From -- ./inp_files/21142.got.cif
#   From: 2010.05.17/outbox.cif.g08.bks.cpg/sg74_11_cif.got.tgz:21142.got - 2010.06.03 17:57:02.
