data_PCOD9536951
_publ_section_title
;
Structure prediction by ZEFSAII (Michael W. Deem and Ramdas Pophale) SiO2 
 PCOD9536951
Probable space group: I M M A
;
_chemical_formula_sum "Si O2"
_cell_formula_units_Z 112
_cell_length_a 18.434471
_cell_length_b 17.963292
_cell_length_c 18.762766
_cell_angle_alpha 90.000000
_cell_angle_beta 90.000000
_cell_angle_gamma 90.000000
_cell_volume 6213.173359
_symmetry_space_group_name_H-M "I M M A"
_symmetry_group_IT_number 74
_symmetry_cell_setting 'orthorhombic'
loop_
_space_group_symop_operation_xyz
x,y,z
-x,1/2-y,z
x,-y,-z
-x,1/2+y,-z
-x,-y,-z
x,1/2+y,-z
-x,y,z
x,1/2-y,z
1/2+x,1/2+y,1/2+z
1/2-x,-y,1/2+z
1/2+x,1/2-y,1/2-z
1/2-x,y,1/2-z
1/2-x,1/2-y,1/2-z
1/2+x,y,1/2-z
1/2-x,1/2+y,1/2+z
1/2+x,-y,1/2+z
loop_
_atom_site_type_symbol
_atom_site_label
_atom_site_fract_x
_atom_site_fract_y
_atom_site_fract_z
Si Si1 0.665131 0.666341 0.751685
Si Si2 0.416013 0.667932 0.601977
Si Si3 0.414373 0.554632 0.855593
Si Si4 0.728069 0.470341 0.833187
Si Si5 0.582940 0.665415 0.987139
Si Si6 0.698671 0.069778 0.448370
Si Si7 0.273639 0.664398 0.063931
O O1 0.661722 0.750000 0.782224
O O2 0.750000 0.645814 0.750000
O O3 0.632529 0.669154 0.672779
O O4 0.614448 0.611876 0.796078
O O5 0.500000 0.657558 0.619662
O O6 0.408717 0.750000 0.567574
O O7 0.382243 0.600872 0.558100
O O8 0.500000 0.537147 0.848063
O O9 0.357248 0.487562 0.847041
O O10 0.404832 0.600044 0.929665
O O11 0.750000 0.468117 0.750000
O O12 0.768782 0.537937 0.874820
O O13 0.747330 0.393687 0.874312
O O14 0.500000 0.658820 0.011291
O O15 0.591380 0.750000 0.956271
O O16 0.640268 0.660114 0.050262
O O17 0.742046 0.135738 0.487912
O O18 0.703653 0.000000 0.500000
O O19 0.253054 0.750000 0.077556
#
# Coordination Sequence:
#
# PCOD9536951 Si02
#       7
#    16  16  16  16  16  16  16
#     4  10  20  31  47  73 108 151 187 217 262 323
#     4  10  20  33  50  74 105 140 180 222 265 322
#     4  11  20  31  51  78 114 151 181 222 274 333
#     4  11  23  38  55  82 114 144 186 233 280 333
#     4   9  18  31  51  82 116 148 184 225 270 330
#     4  10  20  36  57  80 107 139 178 229 283 332
#     4  10  21  38  60  80 107 148 189 231 276 330
#
# _framework density 18.026215000000001
#
# number of rings (size 3 to 8) (size 9 to 14) (size 15 to 20)
#    0.000    1.857    1.429    3.429    0.000    2.571 
#    0.000    1.429    0.000    1.286    0.000    0.000 
#    0.000    2.286    0.000    0.000    0.000    0.000 
#
# Total GULP energy -312148.002578 kJ/mol
# GULP energy per Si atom -5574.071475 kJ/mol
# Density = 1.798519 g / cm^3
# Si number density = 18.026215 Si / 1000 Ang^3
#
#
#
# Elastic Constant Matrix: (Units=GPa)
#
#
# Indices 1 2 3 4 5 6 
#
# 1 96.1077 27.8456 14.3713 0.0000 0.0000 0.0000
# 2 27.8456 101.5593 35.4224 0.0000 0.0000 0.0000
# 3 14.3713 35.4224 65.1622 0.0000 0.0000 0.0000
# 4 0.0000 0.0000 0.0000 8.4644 0.0000 0.0000
# 5 0.0000 0.0000 0.0000 0.0000 17.5533 0.0000
# 6 0.0000 0.0000 0.0000 0.0000 0.0000 13.1536
#
#
#
# Elastic Compliance Matrix: (Units=1/GPa)
#
#
# Indices 1 2 3 4 5 6 
#
# 1 0.011356 -0.002764 -0.001002 0.000000 0.000000 0.000000
# 2 -0.002764 0.012823 -0.006361 0.000000 0.000000 0.000000
# 3 -0.001002 -0.006361 0.019025 0.000000 0.000000 0.000000
# 4 0.000000 0.000000 0.000000 0.118142 0.000000 0.000000
# 5 0.000000 0.000000 0.000000 0.000000 0.056969 0.000000
# 6 0.000000 0.000000 0.000000 0.000000 0.000000 0.076025
#
#
# Mechanical properties :
#
#
# Convention : Reuss Voigt Hill
#
# Bulk Modulus (GPa) = 43.57329 46.45643 45.01486
# Shear Modulus (GPa) = 15.51622 20.18026 17.84824
#
# Velocity S-wave (km/s) = 2.93705 3.34952 3.15004
# Velocity P-wave (km/s) = 5.97715 6.38643 6.18518
#
# Compressibility (1/GPa) = 0.02294984
#
# Stress axis : x y z
#
# Youngs Moduli (GPa) = 88.06189 77.98527 52.56201
#
# Poissons Ratio (x) = 0.21556 0.05266
# Poissons Ratio (y) = 0.24341 0.33435
# Poissons Ratio (z) = 0.08823 0.49606
#
# Static dielectric constant tensor:
#      x y z
#    x 1.622950 0.000000 0.000000 
#    y 0.000000 1.662140 0.000000 
#    z 0.000000 0.000000 1.628470 
# 
# From -- ./inp_files/53256.got.cif
#   From: 2010.05.17/outbox.cif.g08.bks.cpg/sg74_27_cif.got.tgz:53256.got - 2010.06.03 17:57:02.
