data_PCOD9536735
_publ_section_title
;
Structure prediction by ZEFSAII (Michael W. Deem and Ramdas Pophale) SiO2 
 PCOD9536735
Probable space group: I M M A
;
_chemical_formula_sum "Si O2"
_cell_formula_units_Z 116
_cell_length_a 7.901522
_cell_length_b 28.759024
_cell_length_c 23.361303
_cell_angle_alpha 90.000000
_cell_angle_beta 90.000000
_cell_angle_gamma 90.000000
_cell_volume 5308.623915
_symmetry_space_group_name_H-M "I M M A"
_symmetry_group_IT_number 74
_symmetry_cell_setting 'orthorhombic'
loop_
_space_group_symop_operation_xyz
x,y,z
-x,1/2-y,z
x,-y,-z
-x,1/2+y,-z
-x,-y,-z
x,1/2+y,-z
-x,y,z
x,1/2-y,z
1/2+x,1/2+y,1/2+z
1/2-x,-y,1/2+z
1/2+x,1/2-y,1/2-z
1/2-x,y,1/2-z
1/2-x,1/2-y,1/2-z
1/2+x,y,1/2-z
1/2-x,1/2+y,1/2+z
1/2+x,-y,1/2+z
loop_
_atom_site_type_symbol
_atom_site_label
_atom_site_fract_x
_atom_site_fract_y
_atom_site_fract_z
Si Si1 0.797452 0.988354 0.813827
Si Si2 0.309432 0.319595 0.839009
Si Si3 0.695744 0.948726 0.009393
Si Si4 0.198739 0.918451 0.128770
Si Si5 0.000000 0.750000 0.194172
Si Si6 0.699711 0.696502 0.466849
Si Si7 0.303313 0.627729 0.565355
Si Si8 0.694331 0.381709 0.185798
O O1 0.750000 0.003666 0.750000
O O2 0.738660 0.030208 0.853945
O O3 0.000000 0.982874 0.819854
O O4 0.720374 0.937364 0.820668
O O5 0.500000 0.306802 0.818471
O O6 0.284455 0.375483 0.838605
O O7 0.153776 0.290646 0.811740
O O8 0.296000 0.309476 0.907233
O O9 0.500000 0.954028 0.025538
O O10 0.710099 0.919751 0.951220
O O11 0.778912 0.918529 0.060104
O O12 0.771100 0.000000 0.000000
O O13 0.000000 0.915639 0.142007
O O14 0.500000 0.686638 0.454148
O O15 0.710113 0.750000 0.483746
O O16 0.758123 0.665723 0.519913
O O17 0.500000 0.619235 0.554082
O O18 0.285229 0.640580 0.631432
O O19 0.500000 0.370320 0.180153
O O20 0.750000 0.369595 0.250000
#
# Coordination Sequence:
#
# PCOD9536735 Si02
#       8
#    16  16  16  16   4  16  16  16
#     4  10  21  37  60  84 115 151 195 240 288 340
#     4  12  22  35  59  84 116 157 192 241 294 351
#     4  11  23  35  50  77 114 156 197 235 282 350
#     4  11  22  37  54  81 120 154 191 242 290 349
#     4  12  22  40  56  82 124 144 206 240 292 354
#     4  10  19  36  56  81 117 150 189 240 289 350
#     4  11  22  35  56  81 112 150 189 231 291 350
#     4  11  22  38  59  81 111 146 193 246 287 341
#
# _framework density 21.851236
#
# number of rings (size 3 to 8) (size 9 to 14) (size 15 to 20)
#    0.000    1.103    3.448    4.759    0.000    6.069 
#    0.000    0.000    0.000    0.414    0.000    0.483 
#    0.000    0.000    0.000    0.000    0.000    0.000 
#
# Total GULP energy -323626.868109 kJ/mol
# GULP energy per Si atom -5579.773588 kJ/mol
# Density = 2.180150 g / cm^3
# Si number density = 21.851236 Si / 1000 Ang^3
#
#
#
# Elastic Constant Matrix: (Units=GPa)
#
#
# Indices 1 2 3 4 5 6 
#
# 1 98.0218 15.3629 -0.5732 0.0000 0.0000 0.0000
# 2 15.3629 38.1623 -0.4978 0.0000 0.0000 0.0000
# 3 -0.5732 -0.4978 85.7087 -0.0001 0.0000 0.0000
# 4 0.0000 0.0000 -0.0001 -31.1653 0.0000 0.0000
# 5 0.0000 0.0000 0.0000 0.0000 24.1039 0.0000
# 6 0.0000 0.0000 0.0000 0.0000 0.0000 -8.8338
#
#
#
# Elastic Compliance Matrix: (Units=1/GPa)
#
#
# Indices 1 2 3 4 5 6 
#
# 1 0.010889 -0.004383 0.000047 0.000000 0.000000 0.000000
# 2 -0.004383 0.027970 0.000133 0.000000 0.000000 0.000000
# 3 0.000047 0.000133 0.011669 0.000000 0.000000 0.000000
# 4 0.000000 0.000000 0.000000 -0.032087 0.000000 0.000000
# 5 0.000000 0.000000 0.000000 0.000000 0.041487 0.000000
# 6 0.000000 0.000000 0.000000 0.000000 0.000000 -0.113202
#
#
# Mechanical properties :
#
#
# Convention : Reuss Voigt Hill
#
# Bulk Modulus (GPa) = 23.74017 27.83072 25.78544
# Shear Modulus (GPa) = -162.18964 10.66101 -75.76431
#
# Velocity S-wave (km/s) = -8.62471 2.21122 -5.89475
# Velocity P-wave (km/s) = 9.39642 4.39129 5.87407
#
# Compressibility (1/GPa) = 0.04212271
#
# Stress axis : x y z
#
# Youngs Moduli (GPa) = 91.83561 35.75255 85.70065
#
# Poissons Ratio (x) = 0.15670 -0.00406
# Poissons Ratio (y) = 0.40251 -0.01141
# Poissons Ratio (z) = -0.00435 -0.00476
#
# Static dielectric constant tensor:
#      x y z
#    x 1.791720 0.000000 0.000000 
#    y 0.000000 1.810240 0.000000 
#    z 0.000000 0.000000 2.028630 
# 
# From -- ./inp_files/65366.got.cif
#   From: 2010.05.17/outbox.cif.g08.bks.cpg/sg74_33_cif.got.tgz:65366.got - 2010.06.03 17:57:02.
