data_PCOD9536505
_publ_section_title
;
Structure prediction by ZEFSAII (Michael W. Deem and Ramdas Pophale) SiO2 
 PCOD9536505
Probable space group: I M M A
;
_chemical_formula_sum "Si O2"
_cell_formula_units_Z 104
_cell_length_a 7.710649
_cell_length_b 21.277086
_cell_length_c 29.213033
_cell_angle_alpha 90.000000
_cell_angle_beta 90.000000
_cell_angle_gamma 90.000000
_cell_volume 4792.694339
_symmetry_space_group_name_H-M "I M M A"
_symmetry_group_IT_number 74
_symmetry_cell_setting 'orthorhombic'
loop_
_space_group_symop_operation_xyz
x,y,z
-x,1/2-y,z
x,-y,-z
-x,1/2+y,-z
-x,-y,-z
x,1/2+y,-z
-x,y,z
x,1/2-y,z
1/2+x,1/2+y,1/2+z
1/2-x,-y,1/2+z
1/2+x,1/2-y,1/2-z
1/2-x,y,1/2-z
1/2-x,1/2-y,1/2-z
1/2+x,y,1/2-z
1/2-x,1/2+y,1/2+z
1/2+x,-y,1/2+z
loop_
_atom_site_type_symbol
_atom_site_label
_atom_site_fract_x
_atom_site_fract_y
_atom_site_fract_z
Si Si1 0.800632 0.939755 0.943504
Si Si2 0.208552 0.250000 0.695941
Si Si3 0.287057 0.372469 0.860371
Si Si4 0.207848 0.990383 0.302182
Si Si5 0.297274 0.817243 0.604353
Si Si6 0.792889 0.866846 0.698049
Si Si7 0.199726 0.578818 0.454567
O O1 0.721223 0.881032 0.916538
O O2 0.000000 0.949825 0.929286
O O3 0.706537 0.006210 0.937678
O O4 0.796547 0.921860 0.997225
O O5 0.250000 0.250000 0.750000
O O6 0.269667 0.312175 0.668843
O O7 0.000000 0.250000 0.692956
O O8 0.500000 0.372720 0.860537
O O9 0.227257 0.436110 0.835365
O O10 0.234068 0.377549 0.913458
O O11 0.250000 0.972927 0.250000
O O12 0.000000 0.992928 0.306885
O O13 0.272898 0.061356 0.309530
O O14 0.500000 0.817410 0.590859
O O15 0.221714 0.750000 0.590026
O O16 0.284976 0.823962 0.658839
O O17 0.750000 0.849076 0.750000
O O18 0.000000 0.866113 0.692999
O O19 0.000000 0.594920 0.464171
#
# Coordination Sequence:
#
# PCOD9536505 Si02
#       7
#    16   8  16  16  16  16  16
#     4  10  20  36  57  82 109 137 172 219 274 323
#     4  10  20  36  54  74 106 146 186 224 267 320
#     4   9  18  32  51  75 104 139 175 217 265 313
#     4   9  17  30  48  73 102 132 168 212 261 306
#     4  10  22  39  56  75 104 142 178 212 259 315
#     4  10  20  34  54  79 107 137 175 220 264 311
#     4  10  19  34  57  82 107 137 176 220 270 322
#
# _framework density 21.699693
#
# number of rings (size 3 to 8) (size 9 to 14) (size 15 to 20)
#    0.000    2.308    0.000    3.692    0.000    3.692 
#    1.385    3.077    0.000    0.000    0.000    0.000 
#    0.000    0.000    0.000    0.000    0.000    0.000 
#
# Total GULP energy -290376.359462 kJ/mol
# GULP energy per Si atom -5584.160759 kJ/mol
# Density = 2.165030 g / cm^3
# Si number density = 21.699693 Si / 1000 Ang^3
#
#
#
# Elastic Constant Matrix: (Units=GPa)
#
#
# Indices 1 2 3 4 5 6 
#
# 1 44.4278 -6.3131 -10.0063 0.0000 0.0000 0.0000
# 2 -6.3131 61.7865 52.9251 0.0000 0.0000 0.0000
# 3 -10.0063 52.9251 90.9701 0.0000 0.0000 0.0000
# 4 0.0000 0.0000 0.0000 62.7992 0.0000 0.0000
# 5 0.0000 0.0000 0.0000 0.0000 21.5966 0.0000
# 6 0.0000 0.0000 0.0000 0.0000 0.0000 8.2177
#
#
#
# Elastic Compliance Matrix: (Units=1/GPa)
#
#
# Indices 1 2 3 4 5 6 
#
# 1 0.023084 0.000366 0.002326 0.000000 0.000000 0.000000
# 2 0.000366 0.032269 -0.018733 0.000000 0.000000 0.000000
# 3 0.002326 -0.018733 0.022147 0.000000 0.000000 0.000000
# 4 0.000000 0.000000 0.000000 0.015924 0.000000 0.000000
# 5 0.000000 0.000000 0.000000 0.000000 0.046304 0.000000
# 6 0.000000 0.000000 0.000000 0.000000 0.000000 0.121689
#
#
# Mechanical properties :
#
#
# Convention : Reuss Voigt Hill
#
# Bulk Modulus (GPa) = 22.01750 30.04397 26.03074
# Shear Modulus (GPa) = 16.20024 29.22793 22.71409
#
# Velocity S-wave (km/s) = 2.73530 3.67403 3.23886
# Velocity P-wave (km/s) = 4.48824 5.64566 5.09989
#
# Compressibility (1/GPa) = 0.04541841
#
# Stress axis : x y z
#
# Youngs Moduli (GPa) = 43.31940 30.98989 45.15254
#
# Poissons Ratio (x) = -0.01135 -0.10503
# Poissons Ratio (y) = -0.01586 0.84585
# Poissons Ratio (z) = -0.10077 0.58054
#
# Static dielectric constant tensor:
#      x y z
#    x 1.780510 0.000000 0.000000 
#    y 0.000000 1.803490 0.000000 
#    z 0.000000 0.000000 1.779100 
# 
# From -- ./inp_files/70614.got.cif
#   From: 2010.05.17/outbox.cif.g08.bks.cpg/sg74_36_cif.got.tgz:70614.got - 2010.06.03 17:57:02.
