data_PCOD9536028
_publ_section_title
;
Structure prediction by ZEFSAII (Michael W. Deem and Ramdas Pophale) SiO2 
 PCOD9536028
Probable space group: I M M A
;
_chemical_formula_sum "Si O2"
_cell_formula_units_Z 76
_cell_length_a 14.577186
_cell_length_b 13.538431
_cell_length_c 21.003396
_cell_angle_alpha 90.000000
_cell_angle_beta 90.000000
_cell_angle_gamma 90.000000
_cell_volume 4145.066972
_symmetry_space_group_name_H-M "I M M A"
_symmetry_group_IT_number 74
_symmetry_cell_setting 'orthorhombic'
loop_
_space_group_symop_operation_xyz
x,y,z
-x,1/2-y,z
x,-y,-z
-x,1/2+y,-z
-x,-y,-z
x,1/2+y,-z
-x,y,z
x,1/2-y,z
1/2+x,1/2+y,1/2+z
1/2-x,-y,1/2+z
1/2+x,1/2-y,1/2-z
1/2-x,y,1/2-z
1/2-x,1/2-y,1/2-z
1/2+x,y,1/2-z
1/2-x,1/2+y,1/2+z
1/2+x,-y,1/2+z
loop_
_atom_site_type_symbol
_atom_site_label
_atom_site_fract_x
_atom_site_fract_y
_atom_site_fract_z
Si Si1 0.296912 0.532108 0.679725
Si Si2 0.837149 0.932715 0.407570
Si Si3 0.500000 0.035264 0.270532
Si Si4 0.000000 0.750000 0.767965
Si Si5 0.500000 0.856689 0.173952
Si Si6 0.107262 0.638568 0.539392
Si Si7 0.702331 0.250000 0.319452
O O1 0.250000 0.523453 0.750000
O O2 0.254406 0.451325 0.632842
O O3 0.406003 0.527673 0.689862
O O4 0.274854 0.642636 0.653113
O O5 0.831213 0.884416 0.477196
O O6 0.909893 0.868958 0.368734
O O7 0.878907 0.043399 0.416260
O O8 0.500000 0.142854 0.234928
O O9 0.500000 0.946798 0.221832
O O10 0.092786 0.750000 0.808612
O O11 0.500000 0.750000 0.205845
O O12 0.123736 0.750000 0.564125
O O13 0.000000 0.635624 0.518961
O O14 0.750000 0.250000 0.250000
#
# Coordination Sequence:
#
# PCOD9536028 Si02
#       7
#    16  16   8   4   8  16   8
#     4  10  19  32  54  80 114 144 186 223 274 339
#     4  11  20  35  54  81 110 148 182 223 275 330
#     4  10  20  38  51  82 118 150 185 226 274 330
#     4   8  16  32  52  66 106 152 172 220 272 310
#     4  12  22  35  55  80 117 155 185 224 267 336
#     4  10  20  36  56  80 108 141 182 232 283 330
#     4   8  16  28  44  74 106 140 170 220 267 312
#
# _framework density 18.335046999999999
#
# number of rings (size 3 to 8) (size 9 to 14) (size 15 to 20)
#    0.000    1.895    4.211    1.263    1.474    0.000 
#    1.895    3.158    0.000    2.526    0.000    1.474 
#    0.000    0.000    0.000    0.000    0.000    0.000 
#
# Total GULP energy -211717.662993 kJ/mol
# GULP energy per Si atom -5571.517447 kJ/mol
# Density = 1.829332 g / cm^3
# Si number density = 18.335047 Si / 1000 Ang^3
#
#
#
# Elastic Constant Matrix: (Units=GPa)
#
#
# Indices 1 2 3 4 5 6 
#
# 1 101.4007 6.6858 16.0948 0.0000 0.0000 0.0000
# 2 6.6858 105.3853 13.3492 0.0000 0.0000 0.0000
# 3 16.0948 13.3492 18.3085 0.0000 0.0000 0.0000
# 4 0.0000 0.0000 0.0000 23.5977 0.0000 0.0000
# 5 0.0000 0.0000 0.0000 0.0000 -30.2288 0.0000
# 6 0.0000 0.0000 0.0000 0.0000 0.0000 20.5290
#
#
#
# Elastic Compliance Matrix: (Units=1/GPa)
#
#
# Indices 1 2 3 4 5 6 
#
# 1 0.011496 0.000607 -0.010549 0.000000 0.000000 0.000000
# 2 0.000607 0.010487 -0.008180 0.000000 0.000000 0.000000
# 3 -0.010549 -0.008180 0.069856 0.000000 0.000000 0.000000
# 4 0.000000 0.000000 0.000000 0.042377 0.000000 0.000000
# 5 0.000000 0.000000 0.000000 0.000000 -0.033081 0.000000
# 6 0.000000 0.000000 0.000000 0.000000 0.000000 0.048712
#
#
# Mechanical properties :
#
#
# Convention : Reuss Voigt Hill
#
# Bulk Modulus (GPa) = 17.98671 33.03934 25.51302
# Shear Modulus (GPa) = 24.43539 15.37723 19.90631
#
# Velocity S-wave (km/s) = 3.65460 2.89914 3.29857
# Velocity P-wave (km/s) = 5.25732 5.40977 5.33409
#
# Compressibility (1/GPa) = 0.05559660
#
# Stress axis : x y z
#
# Youngs Moduli (GPa) = 86.98549 95.35989 14.31510
#
# Poissons Ratio (x) = -0.05787 0.15100
# Poissons Ratio (y) = -0.05279 0.11709
# Poissons Ratio (z) = 0.91757 0.78000
#
# Static dielectric constant tensor:
#      x y z
#    x 1.639910 0.000000 0.000000 
#    y 0.000000 1.668070 0.000000 
#    z 0.000000 0.000000 1.637920 
# 
# From -- ./inp_files/51698.got.cif
#   From: 2010.05.17/outbox.cif.g08.bks.cpg/sg74_26_cif.got.tgz:51698.got - 2010.06.03 17:57:02.
