data_PCOD9536833
_publ_section_title
;
Structure prediction by ZEFSAII (Michael W. Deem and Ramdas Pophale) SiO2 
 PCOD9536833
Probable space group: I M M A
;
_chemical_formula_sum "Si O2"
_cell_formula_units_Z 88
_cell_length_a 30.126568
_cell_length_b 14.378250
_cell_length_c 11.564396
_cell_angle_alpha 90.000000
_cell_angle_beta 90.000000
_cell_angle_gamma 90.000000
_cell_volume 5009.318496
_symmetry_space_group_name_H-M "I M M A"
_symmetry_group_IT_number 74
_symmetry_cell_setting 'orthorhombic'
loop_
_space_group_symop_operation_xyz
x,y,z
-x,1/2-y,z
x,-y,-z
-x,1/2+y,-z
-x,-y,-z
x,1/2+y,-z
-x,y,z
x,1/2-y,z
1/2+x,1/2+y,1/2+z
1/2-x,-y,1/2+z
1/2+x,1/2-y,1/2-z
1/2-x,y,1/2-z
1/2-x,1/2-y,1/2-z
1/2+x,y,1/2-z
1/2-x,1/2+y,1/2+z
1/2+x,-y,1/2+z
loop_
_atom_site_type_symbol
_atom_site_label
_atom_site_fract_x
_atom_site_fract_y
_atom_site_fract_z
Si Si1 0.390691 0.601082 0.746217
Si Si2 0.178071 0.897792 0.543824
Si Si3 0.552375 0.750000 0.878521
Si Si4 0.380845 0.250000 0.913885
Si Si5 0.249931 0.250000 0.111504
Si Si6 0.353459 0.750000 0.568215
Si Si7 0.550521 0.454239 0.627500
Si Si8 0.086966 0.250000 0.849193
O O1 0.351420 0.594703 0.839738
O O2 0.428968 0.661899 0.807770
O O3 0.371999 0.660891 0.638869
O O4 0.412701 0.505611 0.705285
O O5 0.148397 0.839081 0.452724
O O6 0.221942 0.838648 0.569352
O O7 0.188006 0.000000 0.500000
O O8 0.500000 0.750000 0.886998
O O9 0.576157 0.750000 0.002948
O O10 0.395097 0.250000 0.781593
O O11 0.250000 0.250000 0.250000
O O12 0.199531 0.250000 0.070052
O O13 0.372967 0.750000 0.440528
O O14 0.553947 0.500000 0.500000
O O15 0.500000 0.471608 0.668462
O O16 0.559551 0.344254 0.627272
#
# Coordination Sequence:
#
# PCOD9536833 Si02
#       8
#    16  16   8   8   8   8  16   8
#     4  10  19  37  61  86 118 154 200 244 295 350
#     4  10  20  39  63  89 117 156 197 238 310 353
#     4   9  18  33  60  91 115 155 206 247 283 342
#     4   9  21  38  59  82 124 159 189 247 291 354
#     4  11  20  40  63  91 120 146 199 259 293 363
#     4  11  21  38  61  88 112 157 203 246 293 358
#     4  11  23  37  55  85 120 156 196 240 292 354
#     4  12  23  41  58  81 121 163 194 242 304 349
#
# _framework density 17.567260999999998
#
# number of rings (size 3 to 8) (size 9 to 14) (size 15 to 20)
#    0.000    1.636    3.636    3.000    0.000    0.727 
#    3.273    1.818    0.000    6.000    0.000    0.000 
#    0.000    0.000    0.000    0.000    0.000    0.000 
#
# Total GULP energy -245655.623106 kJ/mol
# GULP energy per Si atom -5583.082343 kJ/mol
# Density = 1.752728 g / cm^3
# Si number density = 17.567261 Si / 1000 Ang^3
#
#
#
# Elastic Constant Matrix: (Units=GPa)
#
#
# Indices 1 2 3 4 5 6 
#
# 1 144.3278 51.0825 47.8663 0.0000 0.0000 0.0000
# 2 51.0825 143.9950 37.2739 0.0000 0.0000 0.0000
# 3 47.8663 37.2739 95.9113 0.0000 0.0000 0.0000
# 4 0.0000 0.0000 0.0000 15.6023 0.0000 0.0000
# 5 0.0000 0.0000 0.0000 0.0000 13.0751 0.0000
# 6 0.0000 0.0000 0.0000 0.0000 0.0000 11.2749
#
#
#
# Elastic Compliance Matrix: (Units=1/GPa)
#
#
# Indices 1 2 3 4 5 6 
#
# 1 0.008905 -0.002233 -0.003576 0.000000 0.000000 0.000000
# 2 -0.002233 0.008282 -0.002104 0.000000 0.000000 0.000000
# 3 -0.003576 -0.002104 0.013029 0.000000 0.000000 0.000000
# 4 0.000000 0.000000 0.000000 0.064093 0.000000 0.000000
# 5 0.000000 0.000000 0.000000 0.000000 0.076481 0.000000
# 6 0.000000 0.000000 0.000000 0.000000 0.000000 0.088692
#
#
# Mechanical properties :
#
#
# Convention : Reuss Voigt Hill
#
# Bulk Modulus (GPa) = 69.50050 72.96439 71.23244
# Shear Modulus (GPa) = 17.85039 24.52455 21.18747
#
# Velocity S-wave (km/s) = 3.19112 3.74041 3.47663
# Velocity P-wave (km/s) = 7.29562 7.76394 7.53342
#
# Compressibility (1/GPa) = 0.01438839
#
# Stress axis : x y z
#
# Youngs Moduli (GPa) = 112.29327 120.74994 76.75323
#
# Poissons Ratio (x) = 0.26968 0.27450
# Poissons Ratio (y) = 0.25080 0.16148
# Poissons Ratio (z) = 0.40160 0.25404
#
# Static dielectric constant tensor:
#      x y z
#    x 1.570700 0.000000 0.000000 
#    y 0.000000 1.596040 0.000000 
#    z 0.000000 0.000000 1.585200 
# 
# From -- ./inp_files/27034.got.cif
#   From: 2010.05.17/outbox.cif.g08.bks.cpg/sg74_14_cif.got.tgz:27034.got - 2010.06.03 17:57:02.
