data_PCOD9536834
_publ_section_title
;
Structure prediction by ZEFSAII (Michael W. Deem and Ramdas Pophale) SiO2 
 PCOD9536834
Probable space group: I M M A
;
_chemical_formula_sum "Si O2"
_cell_formula_units_Z 68
_cell_length_a 14.733462
_cell_length_b 21.296920
_cell_length_c 12.074413
_cell_angle_alpha 90.000000
_cell_angle_beta 90.000000
_cell_angle_gamma 90.000000
_cell_volume 3788.677453
_symmetry_space_group_name_H-M "I M M A"
_symmetry_group_IT_number 74
_symmetry_cell_setting 'orthorhombic'
loop_
_space_group_symop_operation_xyz
x,y,z
-x,1/2-y,z
x,-y,-z
-x,1/2+y,-z
-x,-y,-z
x,1/2+y,-z
-x,y,z
x,1/2-y,z
1/2+x,1/2+y,1/2+z
1/2-x,-y,1/2+z
1/2+x,1/2-y,1/2-z
1/2-x,y,1/2-z
1/2-x,1/2-y,1/2-z
1/2+x,y,1/2-z
1/2-x,1/2+y,1/2+z
1/2+x,-y,1/2+z
loop_
_atom_site_type_symbol
_atom_site_label
_atom_site_fract_x
_atom_site_fract_y
_atom_site_fract_z
Si Si1 0.663457 0.109494 0.388082
Si Si2 0.500000 0.750000 0.838962
Si Si3 0.000000 0.873106 0.509099
Si Si4 0.500000 0.929328 0.460099
Si Si5 0.000000 0.445164 0.699410
Si Si6 0.639846 0.055515 0.151244
Si Si7 0.167757 0.750000 0.831407
O O1 0.591329 0.096428 0.483531
O O2 0.623846 0.094021 0.265646
O O3 0.754393 0.065815 0.382566
O O4 0.677866 0.184280 0.395158
O O5 0.582363 0.750000 0.751499
O O6 0.500000 0.691582 0.923884
O O7 0.000000 0.883478 0.377768
O O8 0.914129 0.911269 0.553973
O O9 0.500000 0.927426 0.328027
O O10 0.500000 0.000000 0.500000
O O11 0.089132 0.488953 0.672691
O O12 0.250000 0.750000 0.750000
#
# Coordination Sequence:
#
# PCOD9536834 Si02
#       7
#    16   4   8   8   8  16   8
#     4  11  21  36  60  94 117 149 191 244 310 350
#     4  12  20  34  62  86 114 158 196 242 292 348
#     4  11  21  38  57  85 118 155 203 244 287 341
#     4  12  23  39  56  80 125 159 196 244 287 355
#     4  11  24  41  57  85 126 164 195 241 284 359
#     4  10  19  37  61  89 118 146 193 248 300 351
#     4  12  20  36  61  91 123 141 188 255 304 350
#
# _framework density 17.948217
#
# number of rings (size 3 to 8) (size 9 to 14) (size 15 to 20)
#    0.000    0.941    7.059    2.824    0.000    1.882 
#    0.000    1.176    0.000    0.000    0.000    4.941 
#    0.000    0.000    0.000    0.000    0.000    0.000 
#
# Total GULP energy -189287.477850 kJ/mol
# GULP energy per Si atom -5567.278760 kJ/mol
# Density = 1.790737 g / cm^3
# Si number density = 17.948217 Si / 1000 Ang^3
#
#
#
# Elastic Constant Matrix: (Units=GPa)
#
#
# Indices 1 2 3 4 5 6 
#
# 1 133.5614 38.7833 54.8321 0.0000 0.0000 0.0000
# 2 38.7833 42.2000 -3.1341 0.0000 0.0000 0.0000
# 3 54.8321 -3.1341 98.7017 0.0000 0.0000 0.0000
# 4 0.0000 0.0000 0.0000 20.4828 0.0000 0.0000
# 5 0.0000 0.0000 0.0000 0.0000 1.4125 0.0000
# 6 0.0000 0.0000 0.0000 0.0000 0.0000 10.3137
#
#
#
# Elastic Compliance Matrix: (Units=1/GPa)
#
#
# Indices 1 2 3 4 5 6 
#
# 1 0.015602 -0.015018 -0.009145 0.000000 0.000000 0.000000
# 2 -0.015018 0.038209 0.009556 0.000000 0.000000 0.000000
# 3 -0.009145 0.009556 0.015515 0.000000 0.000000 0.000000
# 4 0.000000 0.000000 0.000000 0.048821 0.000000 0.000000
# 5 0.000000 0.000000 0.000000 0.000000 0.707971 0.000000
# 6 0.000000 0.000000 0.000000 0.000000 0.000000 0.096958
#
#
# Mechanical properties :
#
#
# Convention : Reuss Voigt Hill
#
# Bulk Modulus (GPa) = 24.92934 50.60287 37.76610
# Shear Modulus (GPa) = 5.17780 18.70724 11.94252
#
# Velocity S-wave (km/s) = 1.70033 3.23195 2.58231
# Velocity P-wave (km/s) = 4.21599 6.49480 5.47526
#
# Compressibility (1/GPa) = 0.04011338
#
# Stress axis : x y z
#
# Youngs Moduli (GPa) = 64.09296 26.17205 64.45350
#
# Poissons Ratio (x) = 0.39306 0.58940
# Poissons Ratio (y) = 0.96256 -0.61594
# Poissons Ratio (z) = 0.58610 -0.25011
#
# Static dielectric constant tensor:
#      x y z
#    x 1.742110 0.000000 0.000000 
#    y 0.000000 1.619750 0.000000 
#    z 0.000000 0.000000 1.492560 
# 
# From -- ./inp_files/20270.got.cif
#   From: 2010.05.17/outbox.cif.g08.bks.cpg/sg74_11_cif.got.tgz:20270.got - 2010.06.03 17:57:02.
