data_PCOD9536865
_publ_section_title
;
Structure prediction by ZEFSAII (Michael W. Deem and Ramdas Pophale) SiO2 
 PCOD9536865
Probable space group: I M M A
;
_chemical_formula_sum "Si O2"
_cell_formula_units_Z 96
_cell_length_a 25.410205
_cell_length_b 17.507288
_cell_length_c 11.353208
_cell_angle_alpha 90.000000
_cell_angle_beta 90.000000
_cell_angle_gamma 90.000000
_cell_volume 5050.630993
_symmetry_space_group_name_H-M "I M M A"
_symmetry_group_IT_number 74
_symmetry_cell_setting 'orthorhombic'
loop_
_space_group_symop_operation_xyz
x,y,z
-x,1/2-y,z
x,-y,-z
-x,1/2+y,-z
-x,-y,-z
x,1/2+y,-z
-x,y,z
x,1/2-y,z
1/2+x,1/2+y,1/2+z
1/2-x,-y,1/2+z
1/2+x,1/2-y,1/2-z
1/2-x,y,1/2-z
1/2-x,1/2-y,1/2-z
1/2+x,y,1/2-z
1/2-x,1/2+y,1/2+z
1/2+x,-y,1/2+z
loop_
_atom_site_type_symbol
_atom_site_label
_atom_site_fract_x
_atom_site_fract_y
_atom_site_fract_z
Si Si1 0.885761 0.945957 0.171811
Si Si2 0.849852 0.601357 0.936398
Si Si3 0.938725 0.539256 0.626256
Si Si4 0.227965 0.910785 0.534904
Si Si5 0.693583 0.160839 0.804850
Si Si6 0.352663 0.162104 0.191787
O O1 0.851165 0.888910 0.246886
O O2 0.853090 0.019799 0.129534
O O3 0.928083 0.982143 0.262094
O O4 0.891368 0.903343 0.044619
O O5 0.789489 0.609872 0.976035
O O6 0.860092 0.660625 0.832957
O O7 0.926847 0.500000 0.500000
O O8 0.900614 0.611870 0.640753
O O9 0.000000 0.560603 0.626606
O O10 0.196954 0.860158 0.440681
O O11 0.200179 0.885228 0.656041
O O12 0.221540 0.000000 0.500000
O O13 0.685311 0.250000 0.784512
O O14 0.750000 0.139017 0.750000
O O15 0.350080 0.250000 0.152430
#
# Coordination Sequence:
#
# PCOD9536865 Si02
#       6
#    16  16  16  16  16  16
#     4  10  19  38  56  82 113 151 197 242 288 339
#     4  10  20  35  55  81 116 158 198 227 282 347
#     4  10  22  42  68  90 109 145 201 259 311 364
#     4  12  20  34  55  79 116 163 201 241 277 344
#     4  11  21  31  49  79 114 151 187 226 284 346
#     4  11  24  37  55  87 123 155 196 249 306 364
#
# _framework density 19.007525999999999
#
# number of rings (size 3 to 8) (size 9 to 14) (size 15 to 20)
#    0.000    1.333    3.333    4.500    0.000    3.000 
#    0.000    6.667    0.000    1.500    0.000    0.000 
#    0.000    0.000    0.000    0.000    0.000    0.000 
#
# Total GULP energy -267537.396002 kJ/mol
# GULP energy per Si atom -5573.695750 kJ/mol
# Density = 1.896426 g / cm^3
# Si number density = 19.007526 Si / 1000 Ang^3
#
#
#
# Elastic Constant Matrix: (Units=GPa)
#
#
# Indices 1 2 3 4 5 6 
#
# 1 60.8832 35.4607 20.7531 0.0000 0.0000 0.0000
# 2 35.4607 63.5986 15.4645 0.0000 0.0000 0.0000
# 3 20.7531 15.4645 102.5959 0.0000 0.0000 0.0000
# 4 0.0000 0.0000 0.0000 7.2954 0.0000 0.0000
# 5 0.0000 0.0000 0.0000 0.0000 25.1695 0.0000
# 6 0.0000 0.0000 0.0000 0.0000 0.0000 7.2778
#
#
#
# Elastic Compliance Matrix: (Units=1/GPa)
#
#
# Indices 1 2 3 4 5 6 
#
# 1 0.025238 -0.013319 -0.003098 0.000000 0.000000 0.000000
# 2 -0.013319 0.023351 -0.000826 0.000000 0.000000 0.000000
# 3 -0.003098 -0.000826 0.010498 0.000000 0.000000 0.000000
# 4 0.000000 0.000000 0.000000 0.137072 0.000000 0.000000
# 5 0.000000 0.000000 0.000000 0.000000 0.039731 0.000000
# 6 0.000000 0.000000 0.000000 0.000000 0.000000 0.137404
#
#
# Mechanical properties :
#
#
# Convention : Reuss Voigt Hill
#
# Bulk Modulus (GPa) = 40.64590 41.15938 40.90264
# Shear Modulus (GPa) = 12.01985 18.30851 15.16418
#
# Velocity S-wave (km/s) = 2.51743 3.10695 2.82760
# Velocity P-wave (km/s) = 5.46630 5.87981 5.67682
#
# Compressibility (1/GPa) = 0.02460273
#
# Stress axis : x y z
#
# Youngs Moduli (GPa) = 39.62252 42.82554 95.25628
#
# Poissons Ratio (x) = 0.57039 0.29507
# Poissons Ratio (y) = 0.52773 0.07864
# Poissons Ratio (z) = 0.12273 0.03535
#
# Static dielectric constant tensor:
#      x y z
#    x 1.628310 0.000000 0.000000 
#    y 0.000000 1.653390 0.000000 
#    z 0.000000 0.000000 1.787820 
# 
# From -- ./inp_files/25182.got.cif
#   From: 2010.05.17/outbox.cif.g08.bks.cpg/sg74_13_cif.got.tgz:25182.got - 2010.06.03 17:57:02.
