data_PCOD9536938
_publ_section_title
;
Structure prediction by ZEFSAII (Michael W. Deem and Ramdas Pophale) SiO2 
 PCOD9536938
Probable space group: I M M A
;
_chemical_formula_sum "Si O2"
_cell_formula_units_Z 80
_cell_length_a 9.305985
_cell_length_b 24.888045
_cell_length_c 19.723065
_cell_angle_alpha 90.000000
_cell_angle_beta 90.000000
_cell_angle_gamma 90.000000
_cell_volume 4568.015170
_symmetry_space_group_name_H-M "I M M A"
_symmetry_group_IT_number 74
_symmetry_cell_setting 'orthorhombic'
loop_
_space_group_symop_operation_xyz
x,y,z
-x,1/2-y,z
x,-y,-z
-x,1/2+y,-z
-x,-y,-z
x,1/2+y,-z
-x,y,z
x,1/2-y,z
1/2+x,1/2+y,1/2+z
1/2-x,-y,1/2+z
1/2+x,1/2-y,1/2-z
1/2-x,y,1/2-z
1/2-x,1/2-y,1/2-z
1/2+x,y,1/2-z
1/2-x,1/2+y,1/2+z
1/2+x,-y,1/2+z
loop_
_atom_site_type_symbol
_atom_site_label
_atom_site_fract_x
_atom_site_fract_y
_atom_site_fract_z
Si Si1 0.838763 0.615261 0.536259
Si Si2 0.327189 0.921600 0.817111
Si Si3 0.838307 0.472174 0.854868
Si Si4 0.827305 0.142369 0.902698
Si Si5 0.827161 0.750000 0.178123
Si Si6 0.251031 0.500000 0.500000
O O1 0.788740 0.611888 0.614600
O O2 0.741050 0.640722 0.477742
O O3 0.840982 0.552364 0.515772
O O4 0.000000 0.637475 0.533851
O O5 0.500000 0.922188 0.811645
O O6 0.250000 0.899760 0.750000
O O7 0.267005 0.982617 0.825547
O O8 0.785231 0.410513 0.858336
O O9 0.000000 0.475509 0.825716
O O10 0.843797 0.487356 0.934305
O O11 0.788721 0.196645 0.863929
O O12 0.000000 0.139095 0.909350
O O13 0.750000 0.750000 0.250000
O O14 0.000000 0.750000 0.187219
#
# Coordination Sequence:
#
# PCOD9536938 Si02
#       6
#    16  16  16  16   8   8
#     4   9  17  29  47  70  95 124 161 199 237 283
#     4  10  20  31  44  67 100 135 165 197 236 282
#     4   9  16  27  44  66  92 124 160 196 233 278
#     4   9  19  34  52  72  95 125 162 202 245 290
#     4  10  22  40  56  74  99 126 159 200 245 290
#     4   8  14  24  42  66  92 122 154 190 232 278
#
# _framework density 17.513076000000002
#
# number of rings (size 3 to 8) (size 9 to 14) (size 15 to 20)
#    0.000    2.800    0.000    1.200    0.000   12.000 
#    0.000    2.000    0.000    0.000    0.000    0.700 
#    0.000    0.000    0.000    0.000    0.000    0.000 
#
# Total GULP energy -222668.687304 kJ/mol
# GULP energy per Si atom -5566.717183 kJ/mol
# Density = 1.747322 g / cm^3
# Si number density = 17.513076 Si / 1000 Ang^3
#
#
#
# Elastic Constant Matrix: (Units=GPa)
#
#
# Indices 1 2 3 4 5 6 
#
# 1 50.7719 18.1128 35.8428 0.0000 0.0000 0.0000
# 2 18.1128 68.2426 35.6939 0.0000 0.0000 0.0000
# 3 35.8428 35.6939 123.8159 0.0000 0.0000 0.0000
# 4 0.0000 0.0000 0.0000 22.0808 0.0000 0.0000
# 5 0.0000 0.0000 0.0000 0.0000 24.4248 0.0000
# 6 0.0000 0.0000 0.0000 0.0000 0.0000 -15.2643
#
#
#
# Elastic Compliance Matrix: (Units=1/GPa)
#
#
# Indices 1 2 3 4 5 6 
#
# 1 0.025412 -0.003411 -0.006373 0.000000 0.000000 0.000000
# 2 -0.003411 0.017713 -0.004119 0.000000 0.000000 0.000000
# 3 -0.006373 -0.004119 0.011109 0.000000 0.000000 0.000000
# 4 0.000000 0.000000 0.000000 0.045288 0.000000 0.000000
# 5 0.000000 0.000000 0.000000 0.000000 0.040942 0.000000
# 6 0.000000 0.000000 0.000000 0.000000 0.000000 -0.065512
#
#
# Mechanical properties :
#
#
# Convention : Reuss Voigt Hill
#
# Bulk Modulus (GPa) = 37.83921 46.90327 42.37124
# Shear Modulus (GPa) = 44.81568 16.46030 30.63799
#
# Velocity S-wave (km/s) = 5.06413 3.06908 4.18716
# Velocity P-wave (km/s) = 7.47309 6.27686 6.90094
#
# Compressibility (1/GPa) = 0.02642762
#
# Stress axis : x y z
#
# Youngs Moduli (GPa) = 39.35150 56.45424 90.01892
#
# Poissons Ratio (x) = 0.19259 0.57368
# Poissons Ratio (y) = 0.13425 0.37078
# Poissons Ratio (z) = 0.25078 0.23253
#
# Static dielectric constant tensor:
#      x y z
#    x 1.616520 0.000000 0.000000 
#    y 0.000000 1.595790 0.000000 
#    z 0.000000 0.000000 1.626970 
# 
# From -- ./inp_files/48612.got.cif
#   From: 2010.05.17/outbox.cif.g08.bks.cpg/sg74_25_cif.got.tgz:48612.got - 2010.06.03 17:57:02.
