data_PCOD9536366
_publ_section_title
;
Structure prediction by ZEFSAII (Michael W. Deem and Ramdas Pophale) SiO2 
 PCOD9536366
Probable space group: I M M A
;
_chemical_formula_sum "Si O2"
_cell_formula_units_Z 104
_cell_length_a 7.403013
_cell_length_b 22.574409
_cell_length_c 27.386287
_cell_angle_alpha 90.000000
_cell_angle_beta 90.000000
_cell_angle_gamma 90.000000
_cell_volume 4576.759128
_symmetry_space_group_name_H-M "I M M A"
_symmetry_group_IT_number 74
_symmetry_cell_setting 'orthorhombic'
loop_
_space_group_symop_operation_xyz
x,y,z
-x,1/2-y,z
x,-y,-z
-x,1/2+y,-z
-x,-y,-z
x,1/2+y,-z
-x,y,z
x,1/2-y,z
1/2+x,1/2+y,1/2+z
1/2-x,-y,1/2+z
1/2+x,1/2-y,1/2-z
1/2-x,y,1/2-z
1/2-x,1/2-y,1/2-z
1/2+x,y,1/2-z
1/2-x,1/2+y,1/2+z
1/2+x,-y,1/2+z
loop_
_atom_site_type_symbol
_atom_site_label
_atom_site_fract_x
_atom_site_fract_y
_atom_site_fract_z
Si Si1 0.706210 0.642927 0.124649
Si Si2 0.716144 0.543968 0.194283
Si Si3 0.779975 0.058086 0.469519
Si Si4 0.784042 0.183947 0.306142
Si Si5 0.720580 0.069928 0.141239
Si Si6 0.220679 0.182684 0.518645
Si Si7 0.713916 0.250000 0.692674
O O1 0.500000 0.626201 0.111737
O O2 0.790495 0.587293 0.152426
O O3 0.780336 0.669328 0.074460
O O4 0.706641 0.693342 0.165590
O O5 0.500000 0.545342 0.189376
O O6 0.750000 0.561771 0.250000
O O7 0.778252 0.478167 0.181215
O O8 0.725019 0.052459 0.413166
O O9 0.724600 0.123437 0.489036
O O10 0.000000 0.057891 0.471580
O O11 0.720878 0.000000 0.500000
O O12 0.711219 0.250000 0.313538
O O13 0.750000 0.166693 0.250000
O O14 0.715614 0.134420 0.342731
O O15 0.000000 0.186830 0.312216
O O16 0.500000 0.070849 0.141266
O O17 0.278377 0.250000 0.504475
O O18 0.000000 0.184470 0.516915
O O19 0.500000 0.250000 0.684734
O O20 0.750000 0.250000 0.750000
#
# Coordination Sequence:
#
# PCOD9536366 Si02
#       7
#    16  16  16  16  16  16   8
#     4  10  19  34  52  72 101 132 165 205 249 295
#     4  10  20  32  49  71  98 133 167 206 252 296
#     4   9  16  26  42  67  98 128 159 198 246 299
#     4   9  17  29  46  68  97 132 164 199 243 292
#     4   9  17  29  44  67 100 132 163 202 251 299
#     4   9  16  27  46  70  97 129 162 198 245 295
#     4  12  24  36  52  74 100 132 168 206 249 292
#
# _framework density 22.723503000000001
#
# number of rings (size 3 to 8) (size 9 to 14) (size 15 to 20)
#    0.000    2.462    0.769    2.538    0.000    6.154 
#    0.000    3.077    0.000    0.000    0.000    2.154 
#    0.000    5.538    0.000    0.000    0.000    0.000 
#
# Total GULP energy -290270.425528 kJ/mol
# GULP energy per Si atom -5582.123568 kJ/mol
# Density = 2.267178 g / cm^3
# Si number density = 22.723503 Si / 1000 Ang^3
#
#
#
# Elastic Constant Matrix: (Units=GPa)
#
#
# Indices 1 2 3 4 5 6 
#
# 1 81.1047 0.0624 -7.8504 0.0000 0.0000 0.0000
# 2 0.0624 137.0950 37.0856 0.0000 0.0000 0.0000
# 3 -7.8504 37.0856 36.6387 0.0000 0.0000 0.0000
# 4 0.0000 0.0000 0.0000 35.9722 0.0000 0.0000
# 5 0.0000 0.0000 0.0000 0.0000 7.4053 0.0000
# 6 0.0000 0.0000 0.0000 0.0000 0.0000 -3.5592
#
#
#
# Elastic Compliance Matrix: (Units=1/GPa)
#
#
# Indices 1 2 3 4 5 6 
#
# 1 0.012694 -0.001021 0.003753 0.000000 0.000000 0.000000
# 2 -0.001021 0.010127 -0.010469 0.000000 0.000000 0.000000
# 3 0.003753 -0.010469 0.038694 0.000000 0.000000 0.000000
# 4 0.000000 0.000000 0.000000 0.027799 0.000000 0.000000
# 5 0.000000 0.000000 0.000000 0.000000 0.135038 0.000000
# 6 0.000000 0.000000 0.000000 0.000000 0.000000 -0.280965
#
#
# Mechanical properties :
#
#
# Convention : Reuss Voigt Hill
#
# Bulk Modulus (GPa) = 21.71947 34.82594 28.27270
# Shear Modulus (GPa) = -193.85212 22.99974 -85.42619
#
# Velocity S-wave (km/s) = -9.24631 3.18489 -6.13803
# Velocity P-wave (km/s) = 10.21829 5.37438 6.14530
#
# Compressibility (1/GPa) = 0.04604165
#
# Stress axis : x y z
#
# Youngs Moduli (GPa) = 78.77841 98.74947 25.84350
#
# Poissons Ratio (x) = 0.10084 -0.09700
# Poissons Ratio (y) = 0.08044 0.27055
# Poissons Ratio (z) = -0.29569 1.03380
#
# Static dielectric constant tensor:
#      x y z
#    x 1.980490 0.000000 0.000000 
#    y 0.000000 1.860440 0.000000 
#    z 0.000000 0.000000 1.819080 
# 
# From -- ./inp_files/64804.got.cif
#   From: 2010.05.17/outbox.cif.g08.bks.cpg/sg74_33_cif.got.tgz:64804.got - 2010.06.03 17:57:02.
