data_PCOD9536567
_publ_section_title
;
Structure prediction by ZEFSAII (Michael W. Deem and Ramdas Pophale) SiO2 
 PCOD9536567
Probable space group: I M M A
;
_chemical_formula_sum "Si O2"
_cell_formula_units_Z 96
_cell_length_a 21.328992
_cell_length_b 14.173074
_cell_length_c 14.535789
_cell_angle_alpha 90.000000
_cell_angle_beta 90.000000
_cell_angle_gamma 90.000000
_cell_volume 4394.130959
_symmetry_space_group_name_H-M "I M M A"
_symmetry_group_IT_number 74
_symmetry_cell_setting 'orthorhombic'
loop_
_space_group_symop_operation_xyz
x,y,z
-x,1/2-y,z
x,-y,-z
-x,1/2+y,-z
-x,-y,-z
x,1/2+y,-z
-x,y,z
x,1/2-y,z
1/2+x,1/2+y,1/2+z
1/2-x,-y,1/2+z
1/2+x,1/2-y,1/2-z
1/2-x,y,1/2-z
1/2-x,1/2-y,1/2-z
1/2+x,y,1/2-z
1/2-x,1/2+y,1/2+z
1/2+x,-y,1/2+z
loop_
_atom_site_type_symbol
_atom_site_label
_atom_site_fract_x
_atom_site_fract_y
_atom_site_fract_z
Si Si1 0.694240 0.638360 0.312095
Si Si2 0.676521 0.141693 0.484032
Si Si3 0.569158 0.934832 0.860891
Si Si4 0.070980 0.136641 0.154461
Si Si5 0.813873 0.109290 0.479269
Si Si6 0.894328 0.146877 0.646616
O O1 0.709402 0.750000 0.324028
O O2 0.750000 0.594992 0.250000
O O3 0.684493 0.598382 0.413986
O O4 0.632671 0.634668 0.249117
O O5 0.656089 0.250000 0.499334
O O6 0.624134 0.102929 0.415883
O O7 0.747021 0.143617 0.443888
O O8 0.500000 0.901275 0.890288
O O9 0.576095 0.913587 0.752956
O O10 0.626368 0.884354 0.912639
O O11 0.572727 0.048097 0.877835
O O12 0.078129 0.250000 0.169605
O O13 0.000000 0.121109 0.119346
O O14 0.835375 0.151572 0.576567
O O15 0.804983 0.000000 0.500000
O O16 0.925885 0.250000 0.639962
#
# Coordination Sequence:
#
# PCOD9536567 Si02
#       6
#    16  16  16  16  16  16
#     4   9  16  30  55  85 118 154 187 232 295 356
#     4  10  19  34  59  90 120 150 194 248 295 350
#     4  10  23  42  58  80 117 159 204 253 301 355
#     4   9  20  40  62  83 115 162 205 243 296 354
#     4  10  21  34  55  86 118 153 193 243 298 360
#     4  10  20  36  59  88 118 151 192 241 303 368
#
# _framework density 21.847324
#
# number of rings (size 3 to 8) (size 9 to 14) (size 15 to 20)
#    0.000    2.333    1.667    0.500    0.000    6.667 
#    0.000    2.500    0.000    5.500    0.000    0.000 
#    0.000    0.000    0.000    0.000    0.000    0.000 
#
# Total GULP energy -267744.304752 kJ/mol
# GULP energy per Si atom -5578.006349 kJ/mol
# Density = 2.179760 g / cm^3
# Si number density = 21.847324 Si / 1000 Ang^3
#
#
#
# Elastic Constant Matrix: (Units=GPa)
#
#
# Indices 1 2 3 4 5 6 
#
# 1 136.4780 15.0481 75.6218 0.0000 0.0000 0.0000
# 2 15.0481 67.7405 11.2449 0.0000 0.0000 0.0000
# 3 75.6218 11.2449 96.9026 0.0000 0.0000 0.0000
# 4 0.0000 0.0000 0.0000 17.0945 0.0000 0.0000
# 5 0.0000 0.0000 0.0000 0.0000 30.0213 0.0000
# 6 0.0000 0.0000 0.0000 0.0000 0.0000 8.5773
#
#
#
# Elastic Compliance Matrix: (Units=1/GPa)
#
#
# Indices 1 2 3 4 5 6 
#
# 1 0.013009 -0.001228 -0.010009 0.000000 0.000000 0.000000
# 2 -0.001228 0.015168 -0.000802 0.000000 0.000000 0.000000
# 3 -0.010009 -0.000802 0.018224 0.000000 0.000000 0.000000
# 4 0.000000 0.000000 0.000000 0.058498 0.000000 0.000000
# 5 0.000000 0.000000 0.000000 0.000000 0.033310 0.000000
# 6 0.000000 0.000000 0.000000 0.000000 0.000000 0.116587
#
#
# Mechanical properties :
#
#
# Convention : Reuss Voigt Hill
#
# Bulk Modulus (GPa) = 44.79841 56.10563 50.45202
# Shear Modulus (GPa) = 17.46326 24.41904 20.94115
#
# Velocity S-wave (km/s) = 2.83031 3.34685 3.09936
# Velocity P-wave (km/s) = 5.58844 6.37744 5.99593
#
# Compressibility (1/GPa) = 0.02232222
#
# Stress axis : x y z
#
# Youngs Moduli (GPa) = 76.87133 65.92770 54.87310
#
# Poissons Ratio (x) = 0.08098 0.54924
# Poissons Ratio (y) = 0.09442 0.04399
# Poissons Ratio (z) = 0.76943 0.05285
#
# Static dielectric constant tensor:
#      x y z
#    x 1.828280 0.000000 0.000000 
#    y 0.000000 1.846140 0.000000 
#    z 0.000000 0.000000 1.800320 
# 
# From -- ./inp_files/32356.got.cif
#   From: 2010.05.17/outbox.cif.g08.bks.cpg/sg74_17_cif.got.tgz:32356.got - 2010.06.03 17:57:02.
