data_PCOD9536011
_publ_section_title
;
Structure prediction by ZEFSAII (Michael W. Deem and Ramdas Pophale) SiO2 
 PCOD9536011
Probable space group: I M M A
;
_chemical_formula_sum "Si O2"
_cell_formula_units_Z 92
_cell_length_a 7.554959
_cell_length_b 31.747041
_cell_length_c 17.295486
_cell_angle_alpha 90.000000
_cell_angle_beta 90.000000
_cell_angle_gamma 90.000000
_cell_volume 4148.280689
_symmetry_space_group_name_H-M "I M M A"
_symmetry_group_IT_number 74
_symmetry_cell_setting 'orthorhombic'
loop_
_space_group_symop_operation_xyz
x,y,z
-x,1/2-y,z
x,-y,-z
-x,1/2+y,-z
-x,-y,-z
x,1/2+y,-z
-x,y,z
x,1/2-y,z
1/2+x,1/2+y,1/2+z
1/2-x,-y,1/2+z
1/2+x,1/2-y,1/2-z
1/2-x,y,1/2-z
1/2-x,1/2-y,1/2-z
1/2+x,y,1/2-z
1/2-x,1/2+y,1/2+z
1/2+x,-y,1/2+z
loop_
_atom_site_type_symbol
_atom_site_label
_atom_site_fract_x
_atom_site_fract_y
_atom_site_fract_z
Si Si1 0.500000 0.250000 0.665515
Si Si2 0.709448 0.409883 0.341234
Si Si3 0.212323 0.498313 0.841969
Si Si4 0.788841 0.592268 0.158945
Si Si5 0.794597 0.314922 0.611155
Si Si6 0.712114 0.750000 0.839097
Si Si7 0.711113 0.172858 0.063146
O O1 0.657588 0.286948 0.659561
O O2 0.500000 0.413633 0.343783
O O3 0.750000 0.401175 0.250000
O O4 0.782679 0.455833 0.366349
O O5 0.756614 0.372638 0.399667
O O6 0.250000 0.498077 0.750000
O O7 0.276295 0.453074 0.873492
O O8 0.000000 0.497754 0.853173
O O9 0.750000 0.590739 0.250000
O O10 0.707190 0.635562 0.130492
O O11 0.000000 0.594896 0.146227
O O12 0.727313 0.314843 0.522320
O O13 0.000000 0.300219 0.617712
O O14 0.500000 0.750000 0.848997
O O15 0.750000 0.750000 0.750000
O O16 0.782133 0.792004 0.878751
O O17 0.500000 0.176471 0.057595
#
# Coordination Sequence:
#
# PCOD9536011 Si02
#       7
#     4  16  16  16  16   8  16
#     4  12  24  44  68  88 116 158 198 244 302 374
#     4  10  19  32  53  83 120 160 203 251 306 358
#     4   8  16  30  52  83 117 156 198 243 295 358
#     4  10  19  37  64  92 123 158 200 248 303 366
#     4  11  24  43  66  92 122 159 206 251 304 369
#     4  10  21  38  55  79 108 145 195 243 298 347
#     4  10  22  39  57  80 116 158 199 254 305 358
#
# _framework density 22.177862999999999
#
# number of rings (size 3 to 8) (size 9 to 14) (size 15 to 20)
#    0.000    2.087    0.870    2.348    1.217    4.870 
#    1.565    1.304    0.000    5.217    0.000    0.000 
#    0.000    0.000    0.000    0.000    0.000    0.000 
#
# Total GULP energy -256082.614287 kJ/mol
# GULP energy per Si atom -5567.013354 kJ/mol
# Density = 2.212739 g / cm^3
# Si number density = 22.177863 Si / 1000 Ang^3
#
#
#
# Elastic Constant Matrix: (Units=GPa)
#
#
# Indices 1 2 3 4 5 6 
#
# 1 97.1191 17.5573 -2.2868 0.0000 0.0000 0.0000
# 2 17.5573 157.9226 3.8263 0.0001 0.0000 0.0000
# 3 -2.2868 3.8263 17.4238 0.0002 0.0000 0.0000
# 4 0.0000 0.0001 0.0002 -209.7806 0.0000 0.0000
# 5 0.0000 0.0000 0.0000 0.0000 14.0055 0.0000
# 6 0.0000 0.0000 0.0000 0.0000 0.0000 47.1201
#
#
#
# Elastic Compliance Matrix: (Units=1/GPa)
#
#
# Indices 1 2 3 4 5 6 
#
# 1 0.010555 -0.001213 0.001652 0.000000 0.000000 0.000000
# 2 -0.001213 0.006506 -0.001588 0.000000 0.000000 0.000000
# 3 0.001652 -0.001588 0.057958 0.000000 0.000000 0.000000
# 4 0.000000 0.000000 0.000000 -0.004767 0.000000 0.000000
# 5 0.000000 0.000000 0.000000 0.000000 0.071400 0.000000
# 6 0.000000 0.000000 0.000000 0.000000 0.000000 0.021222
#
#
# Mechanical properties :
#
#
# Convention : Reuss Voigt Hill
#
# Bulk Modulus (GPa) = 13.75149 34.51768 24.13459
# Shear Modulus (GPa) = 26.39725 -12.83976 6.77875
#
# Velocity S-wave (km/s) = 3.45375 -2.40874 1.75019
# Velocity P-wave (km/s) = 4.70303 2.80389 3.87171
#
# Compressibility (1/GPa) = 0.07271941
#
# Stress axis : x y z
#
# Youngs Moduli (GPa) = 94.74267 153.71371 17.25382
#
# Poissons Ratio (x) = 0.18653 -0.02850
# Poissons Ratio (y) = 0.11497 0.02740
# Poissons Ratio (z) = -0.15649 0.24408
#
# Static dielectric constant tensor:
#      x y z
#    x 1.806590 0.000000 0.000000 
#    y 0.000000 1.893540 0.000000 
#    z 0.000000 0.000000 1.817790 
# 
# From -- ./inp_files/49525.got.cif
#   From: 2010.05.17/outbox.cif.g08.bks.cpg/sg74_25_cif.got.tgz:49525.got - 2010.06.03 17:57:02.
