data_PCOD9536672
_publ_section_title
;
Structure prediction by ZEFSAII (Michael W. Deem and Ramdas Pophale) SiO2 
 PCOD9536672
Probable space group: I M M A
;
_chemical_formula_sum "Si O2"
_cell_formula_units_Z 72
_cell_length_a 14.306416
_cell_length_b 14.935968
_cell_length_c 20.162656
_cell_angle_alpha 90.000000
_cell_angle_beta 90.000000
_cell_angle_gamma 90.000000
_cell_volume 4308.359793
_symmetry_space_group_name_H-M "I M M A"
_symmetry_group_IT_number 74
_symmetry_cell_setting 'orthorhombic'
loop_
_space_group_symop_operation_xyz
x,y,z
-x,1/2-y,z
x,-y,-z
-x,1/2+y,-z
-x,-y,-z
x,1/2+y,-z
-x,y,z
x,1/2-y,z
1/2+x,1/2+y,1/2+z
1/2-x,-y,1/2+z
1/2+x,1/2-y,1/2-z
1/2-x,y,1/2-z
1/2-x,1/2-y,1/2-z
1/2+x,y,1/2-z
1/2-x,1/2+y,1/2+z
1/2+x,-y,1/2+z
loop_
_atom_site_type_symbol
_atom_site_label
_atom_site_fract_x
_atom_site_fract_y
_atom_site_fract_z
Si Si1 0.000000 0.928390 0.762178
Si Si2 0.290550 0.750000 0.876255
Si Si3 0.000000 0.750000 0.674037
Si Si4 0.500000 0.444739 0.864346
Si Si5 0.297297 0.451166 0.929408
Si Si6 0.797430 0.932562 0.819915
Si Si7 0.500000 0.750000 0.091942
Si Si8 0.699747 0.250000 0.968130
O O1 0.000000 0.837514 0.719620
O O2 0.092742 0.929689 0.806219
O O3 0.000000 0.006631 0.706481
O O4 0.402722 0.750000 0.865874
O O5 0.245367 0.662692 0.842638
O O6 0.273477 0.750000 0.954854
O O7 0.404340 0.466690 0.903926
O O8 0.500000 0.337279 0.862347
O O9 0.231350 0.497252 0.875735
O O10 0.273180 0.345830 0.936802
O O11 0.288153 0.500000 0.000000
O O12 0.750000 0.956832 0.750000
O O13 0.588460 0.750000 0.043758
#
# Coordination Sequence:
#
# PCOD9536672 Si02
#       8
#     8   8   4   8  16  16   4   8
#     4  12  24  38  58  89 124 155 205 242 302 356
#     4  12  21  36  62  91 130 156 194 243 307 361
#     4  12  21  32  58  96 128 157 184 244 300 377
#     4  10  19  35  59  89 122 155 193 245 299 363
#     4  11  21  38  61  88 123 159 199 244 301 358
#     4  12  23  40  60  88 122 164 198 247 298 360
#     4   8  19  34  54  90 126 147 192 244 302 361
#     4  10  21  36  58  91 123 155 196 245 302 359
#
# _framework density 16.711696
#
# number of rings (size 3 to 8) (size 9 to 14) (size 15 to 20)
#    0.000    0.889    6.667    1.667    0.000    0.000 
#    0.000    2.222    0.000    0.000    0.000    0.000 
#    0.000    0.000    0.000    0.000    0.000    0.000 
#
# Total GULP energy -200954.396683 kJ/mol
# GULP energy per Si atom -5582.066575 kJ/mol
# Density = 1.667366 g / cm^3
# Si number density = 16.711696 Si / 1000 Ang^3
#
#
#
# Elastic Constant Matrix: (Units=GPa)
#
#
# Indices 1 2 3 4 5 6 
#
# 1 111.9502 32.8961 51.1059 0.0000 0.0000 0.0000
# 2 32.8961 97.5849 58.9792 0.0000 0.0000 0.0000
# 3 51.1059 58.9792 111.0603 0.0000 0.0000 0.0000
# 4 0.0000 0.0000 0.0000 4.5667 0.0000 0.0000
# 5 0.0000 0.0000 0.0000 0.0000 34.2035 0.0000
# 6 0.0000 0.0000 0.0000 0.0000 0.0000 -49.9692
#
#
#
# Elastic Compliance Matrix: (Units=1/GPa)
#
#
# Indices 1 2 3 4 5 6 
#
# 1 0.011372 -0.000988 -0.004708 0.000000 0.000000 0.000000
# 2 -0.000988 0.015177 -0.007605 0.000000 0.000000 0.000000
# 3 -0.004708 -0.007605 0.015210 0.000000 0.000000 0.000000
# 4 0.000000 0.000000 0.000000 0.218975 0.000000 0.000000
# 5 0.000000 0.000000 0.000000 0.000000 0.029237 0.000000
# 6 0.000000 0.000000 0.000000 0.000000 0.000000 -0.020012
#
#
# Mechanical properties :
#
#
# Convention : Reuss Voigt Hill
#
# Bulk Modulus (GPa) = 65.98190 67.39531 66.68860
# Shear Modulus (GPa) = 16.57751 9.60115 13.08933
#
# Velocity S-wave (km/s) = 3.15297 2.39951 2.80169
# Velocity P-wave (km/s) = 7.26795 6.93489 7.10337
#
# Compressibility (1/GPa) = 0.01515567
#
# Stress axis : x y z
#
# Youngs Moduli (GPa) = 87.93312 65.88902 65.74789
#
# Poissons Ratio (x) = 0.06509 0.30957
# Poissons Ratio (y) = 0.08687 0.50003
# Poissons Ratio (z) = 0.41403 0.50110
#
# Static dielectric constant tensor:
#      x y z
#    x 1.556070 0.000000 0.000000 
#    y 0.000000 1.585150 0.000000 
#    z 0.000000 0.000000 1.533360 
# 
# From -- ./inp_files/42577.got.cif
#   From: 2010.05.17/outbox.cif.g08.bks.cpg/sg74_22_cif.got.tgz:42577.got - 2010.06.03 17:57:02.
