data_PCOD9536998
_publ_section_title
;
Structure prediction by ZEFSAII (Michael W. Deem and Ramdas Pophale) SiO2 
 PCOD9536998
Probable space group: I M M A
;
_chemical_formula_sum "Si O2"
_cell_formula_units_Z 112
_cell_length_a 14.960756
_cell_length_b 14.188728
_cell_length_c 31.081318
_cell_angle_alpha 90.000000
_cell_angle_beta 90.000000
_cell_angle_gamma 90.000000
_cell_volume 6597.758729
_symmetry_space_group_name_H-M "I M M A"
_symmetry_group_IT_number 74
_symmetry_cell_setting 'orthorhombic'
loop_
_space_group_symop_operation_xyz
x,y,z
-x,1/2-y,z
x,-y,-z
-x,1/2+y,-z
-x,-y,-z
x,1/2+y,-z
-x,y,z
x,1/2-y,z
1/2+x,1/2+y,1/2+z
1/2-x,-y,1/2+z
1/2+x,1/2-y,1/2-z
1/2-x,y,1/2-z
1/2-x,1/2-y,1/2-z
1/2+x,y,1/2-z
1/2-x,1/2+y,1/2+z
1/2+x,-y,1/2+z
loop_
_atom_site_type_symbol
_atom_site_label
_atom_site_fract_x
_atom_site_fract_y
_atom_site_fract_z
Si Si1 0.897196 0.362044 0.770210
Si Si2 0.098475 0.049198 0.676035
Si Si3 0.666170 0.144626 0.311196
Si Si4 0.891991 0.355348 0.026374
Si Si5 0.392520 0.054985 0.565165
Si Si6 0.626129 0.644896 0.783902
Si Si7 0.202962 0.951233 0.150372
O O1 0.887473 0.250000 0.768877
O O2 0.883810 0.401751 0.722272
O O3 0.831053 0.403747 0.805580
O O4 0.000000 0.384839 0.782582
O O5 0.189462 0.058462 0.648817
O O6 0.000000 0.081562 0.660122
O O7 0.091334 0.939020 0.687507
O O8 0.642203 0.250000 0.326822
O O9 0.612722 0.124805 0.266933
O O10 0.768380 0.147038 0.294596
O O11 0.666888 0.059072 0.344263
O O12 0.859027 0.250000 0.037578
O O13 0.864141 0.446958 0.053846
O O14 0.000000 0.353397 0.029633
O O15 0.871947 0.382055 0.976758
O O16 0.500000 0.056144 0.571017
O O17 0.343479 0.088531 0.607983
O O18 0.593956 0.750000 0.792622
#
# Coordination Sequence:
#
# PCOD9536998 Si02
#       7
#    16  16  16  16  16  16  16
#     4  10  21  35  49  65  88 122 164 206 245 283
#     4  10  20  32  45  63  90 128 171 204 233 270
#     4   8  14  24  40  62  86 114 148 188 235 277
#     4   8  15  31  52  71  95 122 142 169 219 285
#     4   9  18  30  47  73  98 119 146 179 221 281
#     4   8  13  25  43  59  79 112 155 197 234 272
#     4  11  19  30  48  69  96 125 154 199 242 271
#
# _framework density 16.975462
#
# number of rings (size 3 to 8) (size 9 to 14) (size 15 to 20)
#    0.000    2.857    1.429    2.571    0.000    2.571 
#    0.000    1.429    0.000    1.286    0.000    2.000 
#    0.000    1.143    0.000    0.000    0.000    0.000 
#
# Total GULP energy -311750.264854 kJ/mol
# GULP energy per Si atom -5566.969015 kJ/mol
# Density = 1.693682 g / cm^3
# Si number density = 16.975462 Si / 1000 Ang^3
#
#
#
# Elastic Constant Matrix: (Units=GPa)
#
#
# Indices 1 2 3 4 5 6 
#
# 1 61.3610 7.0386 16.2834 0.0000 0.0000 0.0000
# 2 7.0386 38.7082 -6.0644 0.0000 0.0000 0.0000
# 3 16.2834 -6.0644 32.8697 0.0000 0.0000 0.0000
# 4 0.0000 0.0000 0.0000 4.8340 0.0000 0.0000
# 5 0.0000 0.0000 0.0000 0.0000 8.0631 0.0000
# 6 0.0000 0.0000 0.0000 0.0000 0.0000 10.3912
#
#
#
# Elastic Compliance Matrix: (Units=1/GPa)
#
#
# Indices 1 2 3 4 5 6 
#
# 1 0.019759 -0.005279 -0.010762 0.000000 0.000000 0.000000
# 2 -0.005279 0.028014 0.007784 0.000000 0.000000 0.000000
# 3 -0.010762 0.007784 0.037191 0.000000 0.000000 0.000000
# 4 0.000000 0.000000 0.000000 0.206866 0.000000 0.000000
# 5 0.000000 0.000000 0.000000 0.000000 0.124022 0.000000
# 6 0.000000 0.000000 0.000000 0.000000 0.000000 0.096235
#
#
# Mechanical properties :
#
#
# Convention : Reuss Voigt Hill
#
# Bulk Modulus (GPa) = 14.60965 18.60603 16.60784
# Shear Modulus (GPa) = 9.06754 12.36974 10.71864
#
# Velocity S-wave (km/s) = 2.31369 2.70234 2.51553
# Velocity P-wave (km/s) = 3.97021 4.55206 4.27105
#
# Compressibility (1/GPa) = 0.06844789
#
# Stress axis : x y z
#
# Youngs Moduli (GPa) = 50.61102 35.69685 26.88836
#
# Poissons Ratio (x) = 0.18844 0.28938
# Poissons Ratio (y) = 0.26717 -0.20929
# Poissons Ratio (z) = 0.54469 -0.27785
#
# Static dielectric constant tensor:
#      x y z
#    x 1.520540 0.000000 0.000000 
#    y 0.000000 1.623240 0.000000 
#    z 0.000000 0.000000 1.550990 
# 
# From -- ./inp_files/72706.got.cif
#   From: 2010.05.17/outbox.cif.g08.bks.cpg/sg74_37_cif.got.tgz:72706.got - 2010.06.03 17:57:02.
