data_PCOD9536193
_publ_section_title
;
Structure prediction by ZEFSAII (Michael W. Deem and Ramdas Pophale) SiO2 
 PCOD9536193
Probable space group: I M M A
;
_chemical_formula_sum "Si O2"
_cell_formula_units_Z 72
_cell_length_a 11.056915
_cell_length_b 15.521605
_cell_length_c 20.533159
_cell_angle_alpha 90.000000
_cell_angle_beta 90.000000
_cell_angle_gamma 90.000000
_cell_volume 3523.922660
_symmetry_space_group_name_H-M "I M M A"
_symmetry_group_IT_number 74
_symmetry_cell_setting 'orthorhombic'
loop_
_space_group_symop_operation_xyz
x,y,z
-x,1/2-y,z
x,-y,-z
-x,1/2+y,-z
-x,-y,-z
x,1/2+y,-z
-x,y,z
x,1/2-y,z
1/2+x,1/2+y,1/2+z
1/2-x,-y,1/2+z
1/2+x,1/2-y,1/2-z
1/2-x,y,1/2-z
1/2-x,1/2-y,1/2-z
1/2+x,y,1/2-z
1/2-x,1/2+y,1/2+z
1/2+x,-y,1/2+z
loop_
_atom_site_type_symbol
_atom_site_label
_atom_site_fract_x
_atom_site_fract_y
_atom_site_fract_z
Si Si1 0.500000 0.351454 0.855073
Si Si2 0.750000 0.034328 0.250000
Si Si3 0.360559 0.932272 0.371132
Si Si4 0.292862 0.849275 0.036962
Si Si5 0.000000 0.037650 0.303216
Si Si6 0.638882 0.750000 0.301307
Si Si7 0.500000 0.083796 0.045927
O O1 0.500000 0.250000 0.839330
O O2 0.615167 0.360416 0.901967
O O3 0.500000 0.430119 0.802593
O O4 0.715167 0.984071 0.316979
O O5 0.879157 0.073675 0.269749
O O6 0.500000 0.960957 0.371278
O O7 0.306967 0.919903 0.443664
O O8 0.353053 0.835240 0.343705
O O9 0.250735 0.750000 0.033651
O O10 0.377799 0.867031 0.974934
O O11 0.000000 0.059130 0.379235
O O12 0.500000 0.750000 0.278533
O O13 0.750000 0.750000 0.250000
O O14 0.500000 0.000000 0.000000
#
# Coordination Sequence:
#
# PCOD9536193 Si02
#       7
#     8   8  16  16   8   8   8
#     4   9  17  30  47  73 104 139 175 221 259 303
#     4  12  22  35  48  80 109 156 198 230 260 334
#     4  11  20  31  46  72 113 149 180 222 275 326
#     4  10  19  33  53  81 106 134 184 234 277 326
#     4  12  23  38  56  76 114 149 200 232 277 326
#     4  10  20  30  38  64 104 150 188 202 249 313
#     4  11  19  37  57  76 103 151 188 233 278 327
#
# _framework density 20.431775999999999
#
# number of rings (size 3 to 8) (size 9 to 14) (size 15 to 20)
#    0.000    1.333    7.778    1.000    0.000    0.000 
#    6.000    0.000    2.444    2.000    0.000    3.111 
#    0.000    0.000    0.000    0.000    0.000    0.000 
#
# Total GULP energy -200628.254105 kJ/mol
# GULP energy per Si atom -5573.007058 kJ/mol
# Density = 2.038527 g / cm^3
# Si number density = 20.431776 Si / 1000 Ang^3
#
#
#
# Elastic Constant Matrix: (Units=GPa)
#
#
# Indices 1 2 3 4 5 6 
#
# 1 150.2182 7.2067 40.5990 0.0000 0.0000 0.0000
# 2 7.2067 15.9151 14.4167 0.0000 0.0000 0.0000
# 3 40.5990 14.4167 82.1565 0.0000 0.0000 0.0000
# 4 0.0000 0.0000 0.0000 -0.2424 0.0000 0.0000
# 5 0.0000 0.0000 0.0000 0.0000 1.6976 0.0000
# 6 0.0000 0.0000 0.0000 0.0000 0.0000 10.9898
#
#
#
# Elastic Compliance Matrix: (Units=1/GPa)
#
#
# Indices 1 2 3 4 5 6 
#
# 1 0.007683 -0.000047 -0.003788 0.000000 0.000000 0.000000
# 2 -0.000047 0.074709 -0.013086 0.000000 0.000000 0.000000
# 3 -0.003788 -0.013086 0.016340 0.000000 0.000000 0.000000
# 4 0.000000 0.000000 0.000000 -4.125716 0.000000 0.000000
# 5 0.000000 0.000000 0.000000 0.000000 0.589073 0.000000
# 6 0.000000 0.000000 0.000000 0.000000 0.000000 0.090993
#
#
# Mechanical properties :
#
#
# Convention : Reuss Voigt Hill
#
# Bulk Modulus (GPa) = 15.41113 41.41497 28.41305
# Shear Modulus (GPa) = -1.51909 14.89350 6.68720
#
# Velocity S-wave (km/s) = -0.86320 2.70281 1.81109
# Velocity P-wave (km/s) = 2.56235 5.48217 4.27901
#
# Compressibility (1/GPa) = 0.06488816
#
# Stress axis : x y z
#
# Youngs Moduli (GPa) = 130.15499 13.38525 61.19794
#
# Poissons Ratio (x) = 0.00063 0.23185
# Poissons Ratio (y) = 0.00616 0.80087
# Poissons Ratio (z) = 0.49309 0.17517
#
# Static dielectric constant tensor:
#      x y z
#    x 1.860490 0.000000 0.000000 
#    y 0.000000 1.750260 0.000000 
#    z 0.000000 0.000000 1.788460 
# 
# From -- ./inp_files/50409.got.cif
#   From: 2010.05.17/outbox.cif.g08.bks.cpg/sg74_26_cif.got.tgz:50409.got - 2010.06.03 17:57:02.
