data_PCOD9536713
_publ_section_title
;
Structure prediction by ZEFSAII (Michael W. Deem and Ramdas Pophale) SiO2 
 PCOD9536713
Probable space group: I M M A
;
_chemical_formula_sum "Si O2"
_cell_formula_units_Z 80
_cell_length_a 11.561463
_cell_length_b 11.134340
_cell_length_c 28.537134
_cell_angle_alpha 90.000000
_cell_angle_beta 90.000000
_cell_angle_gamma 90.000000
_cell_volume 3673.564141
_symmetry_space_group_name_H-M "I M M A"
_symmetry_group_IT_number 74
_symmetry_cell_setting 'orthorhombic'
loop_
_space_group_symop_operation_xyz
x,y,z
-x,1/2-y,z
x,-y,-z
-x,1/2+y,-z
-x,-y,-z
x,1/2+y,-z
-x,y,z
x,1/2-y,z
1/2+x,1/2+y,1/2+z
1/2-x,-y,1/2+z
1/2+x,1/2-y,1/2-z
1/2-x,y,1/2-z
1/2-x,1/2-y,1/2-z
1/2+x,y,1/2-z
1/2-x,1/2+y,1/2+z
1/2+x,-y,1/2+z
loop_
_atom_site_type_symbol
_atom_site_label
_atom_site_fract_x
_atom_site_fract_y
_atom_site_fract_z
Si Si1 0.637916 0.250000 0.605815
Si Si2 0.756636 0.387561 0.142239
Si Si3 0.751212 0.034297 0.550136
Si Si4 0.868355 0.750000 0.209358
Si Si5 0.000000 0.111108 0.361631
Si Si6 0.500000 0.611785 0.067134
Si Si7 0.631888 0.017129 0.271449
O O1 0.500000 0.250000 0.604118
O O2 0.682929 0.135534 0.577832
O O3 0.693217 0.250000 0.658656
O O4 0.792729 0.250000 0.145840
O O5 0.745460 0.426624 0.088060
O O6 0.625155 0.398622 0.162511
O O7 0.845017 0.465053 0.172910
O O8 0.879935 0.087696 0.540769
O O9 0.700725 0.000000 0.500000
O O10 0.860518 0.873865 0.237629
O O11 0.000000 0.750000 0.193942
O O12 0.000000 0.250000 0.381637
O O13 0.000000 0.993274 0.394173
O O14 0.500000 0.750000 0.084269
O O15 0.500000 0.057364 0.260354
O O16 0.750000 0.073342 0.250000
#
# Coordination Sequence:
#
# PCOD9536713 Si02
#       7
#     8  16  16   8   8   8  16
#     4  11  22  40  64  90 126 171 213 263 319 375
#     4  10  22  40  63  91 130 173 215 263 321 386
#     4  11  23  39  64  95 131 170 216 265 322 383
#     4   9  19  41  67  93 129 167 206 261 331 392
#     4   8  18  37  59  88 131 176 212 260 323 389
#     4  10  19  35  61  96 126 164 218 276 324 379
#     4  11  24  42  68  97 130 168 214 267 330 394
#
# _framework density 21.777215999999999
#
# number of rings (size 3 to 8) (size 9 to 14) (size 15 to 20)
#    0.000    1.800    3.000    0.600    2.800    1.200 
#    0.000    1.000    2.200    0.000    0.000    0.000 
#    0.000    0.000    0.000    0.000    0.000    0.000 
#
# Total GULP energy -222674.052547 kJ/mol
# GULP energy per Si atom -5566.851314 kJ/mol
# Density = 2.172765 g / cm^3
# Si number density = 21.777216 Si / 1000 Ang^3
#
#
#
# Elastic Constant Matrix: (Units=GPa)
#
#
# Indices 1 2 3 4 5 6 
#
# 1 108.4674 11.5410 32.5633 0.0000 0.0000 0.0000
# 2 11.5410 65.9138 -24.8705 0.0000 0.0000 0.0000
# 3 32.5633 -24.8705 50.5651 0.0000 0.0000 0.0000
# 4 0.0000 0.0000 0.0000 34.2320 0.0000 0.0000
# 5 0.0000 0.0000 0.0000 0.0000 -98.6273 0.0000
# 6 0.0000 0.0000 0.0000 0.0000 0.0000 9.7156
#
#
#
# Elastic Compliance Matrix: (Units=1/GPa)
#
#
# Indices 1 2 3 4 5 6 
#
# 1 0.013633 -0.006999 -0.012222 0.000000 0.000000 0.000000
# 2 -0.006999 0.022221 0.015437 0.000000 0.000000 0.000000
# 3 -0.012222 0.015437 0.035240 0.000000 0.000000 0.000000
# 4 0.000000 0.000000 0.000000 0.029212 0.000000 0.000000
# 5 0.000000 0.000000 0.000000 0.000000 -0.010139 0.000000
# 6 0.000000 0.000000 0.000000 0.000000 0.000000 0.102927
#
#
# Mechanical properties :
#
#
# Convention : Reuss Voigt Hill
#
# Bulk Modulus (GPa) = 15.74153 29.26821 22.50487
# Shear Modulus (GPa) = 22.53901 2.77823 12.65862
#
# Velocity S-wave (km/s) = 3.22060 1.13072 2.41359
# Velocity P-wave (km/s) = 4.59062 3.89534 4.25720
#
# Compressibility (1/GPa) = 0.06352623
#
# Stress axis : x y z
#
# Youngs Moduli (GPa) = 73.35046 45.00200 28.37711
#
# Poissons Ratio (x) = 0.31495 0.34682
# Poissons Ratio (y) = 0.51335 -0.43804
# Poissons Ratio (z) = 0.89648 -0.69468
#
# Static dielectric constant tensor:
#      x y z
#    x 1.830860 0.000000 0.000000 
#    y 0.000000 1.923960 0.000000 
#    z 0.000000 0.000000 1.839820 
# 
# From -- ./inp_files/71579.got.cif
#   From: 2010.05.17/outbox.cif.g08.bks.cpg/sg74_36_cif.got.tgz:71579.got - 2010.06.03 17:57:02.
