data_PCOD9536850
_publ_section_title
;
Structure prediction by ZEFSAII (Michael W. Deem and Ramdas Pophale) SiO2 
 PCOD9536850
Probable space group: I M M A
;
_chemical_formula_sum "Si O2"
_cell_formula_units_Z 72
_cell_length_a 17.293483
_cell_length_b 15.918867
_cell_length_c 13.453894
_cell_angle_alpha 90.000000
_cell_angle_beta 90.000000
_cell_angle_gamma 90.000000
_cell_volume 3703.758211
_symmetry_space_group_name_H-M "I M M A"
_symmetry_group_IT_number 74
_symmetry_cell_setting 'orthorhombic'
loop_
_space_group_symop_operation_xyz
x,y,z
-x,1/2-y,z
x,-y,-z
-x,1/2+y,-z
-x,-y,-z
x,1/2+y,-z
-x,y,z
x,1/2-y,z
1/2+x,1/2+y,1/2+z
1/2-x,-y,1/2+z
1/2+x,1/2-y,1/2-z
1/2-x,y,1/2-z
1/2-x,1/2-y,1/2-z
1/2+x,y,1/2-z
1/2-x,1/2+y,1/2+z
1/2+x,-y,1/2+z
loop_
_atom_site_type_symbol
_atom_site_label
_atom_site_fract_x
_atom_site_fract_y
_atom_site_fract_z
Si Si1 0.298521 0.079741 0.336774
Si Si2 0.587551 0.347932 0.494880
Si Si3 0.813004 0.000000 0.500000
Si Si4 0.909100 0.433360 0.794487
Si Si5 0.407465 0.154189 0.909578
O O1 0.250000 0.124091 0.250000
O O2 0.352117 0.134460 0.408307
O O3 0.241291 0.028808 0.409321
O O4 0.355148 0.013538 0.282965
O O5 0.500000 0.372389 0.464071
O O6 0.587173 0.250000 0.519685
O O7 0.606064 0.397756 0.595460
O O8 0.864185 0.080683 0.530947
O O9 0.894241 0.366580 0.707172
O O10 0.000000 0.455025 0.788653
O O11 0.500000 0.148936 0.926874
O O12 0.382584 0.250000 0.932266
#
# Coordination Sequence:
#
# PCOD9536850 Si02
#       5
#    16  16   8  16  16
#     4  12  23  38  57  86 122 160 198 245 304 359
#     4  10  21  38  61  88 118 156 202 250 302 361
#     4  12  23  40  61  90 126 164 198 244 307 362
#     4  10  19  37  64  90 117 151 195 249 303 359
#     4  10  22  41  65  92 121 157 203 251 300 360
#
# _framework density 19.439713999999999
#
# number of rings (size 3 to 8) (size 9 to 14) (size 15 to 20)
#    0.000    1.333    4.444    1.667    0.000    5.778 
#    0.000    1.111    0.000    2.667    0.000    0.000 
#    0.000    0.000    0.000    0.000    0.000    0.000 
#
# Total GULP energy -201023.533697 kJ/mol
# GULP energy per Si atom -5583.987047 kJ/mol
# Density = 1.939547 g / cm^3
# Si number density = 19.439714 Si / 1000 Ang^3
#
#
#
# Elastic Constant Matrix: (Units=GPa)
#
#
# Indices 1 2 3 4 5 6 
#
# 1 59.9260 26.0157 42.0985 0.0000 0.0000 0.0000
# 2 26.0157 46.2869 10.5879 0.0000 0.0000 0.0000
# 3 42.0985 10.5879 69.9657 0.0000 0.0000 0.0000
# 4 0.0000 0.0000 0.0000 28.4555 0.0000 0.0000
# 5 0.0000 0.0000 0.0000 0.0000 1598.4337 0.0000
# 6 0.0000 0.0000 0.0000 0.0000 0.0000 7.3486
#
#
#
# Elastic Compliance Matrix: (Units=1/GPa)
#
#
# Indices 1 2 3 4 5 6 
#
# 1 0.038523 -0.016936 -0.020616 0.000000 0.000000 0.000000
# 2 -0.016936 0.029825 0.005677 0.000000 0.000000 0.000000
# 3 -0.020616 0.005677 0.025838 0.000000 0.000000 0.000000
# 4 0.000000 0.000000 0.000000 0.035143 0.000000 0.000000
# 5 0.000000 0.000000 0.000000 0.000000 0.000626 0.000000
# 6 0.000000 0.000000 0.000000 0.000000 0.000000 0.136081
#
#
# Mechanical properties :
#
#
# Convention : Reuss Voigt Hill
#
# Bulk Modulus (GPa) = 32.85639 37.06474 34.96056
# Shear Modulus (GPa) = 14.70887 333.34599 174.02743
#
# Velocity S-wave (km/s) = 2.75369 13.10912 9.47185
# Velocity P-wave (km/s) = 5.20085 15.75563 11.73219
#
# Compressibility (1/GPa) = 0.03043548
#
# Stress axis : x y z
#
# Youngs Moduli (GPa) = 25.95866 33.52930 38.70199
#
# Poissons Ratio (x) = 0.56785 0.79789
# Poissons Ratio (y) = 0.43963 -0.21971
# Poissons Ratio (z) = 0.53517 -0.19035
#
# Static dielectric constant tensor:
#      x y z
#    x 1.688910 0.000000 0.000000 
#    y 0.000000 1.651630 0.000000 
#    z 0.000000 0.000000 1.681940 
# 
# From -- ./inp_files/21851.got.cif
#   From: 2010.05.17/outbox.cif.g08.bks.cpg/sg74_11_cif.got.tgz:21851.got - 2010.06.03 17:57:02.
