data_PCOD9536374
_publ_section_title
;
Structure prediction by ZEFSAII (Michael W. Deem and Ramdas Pophale) SiO2 
 PCOD9536374
Probable space group: I M M A
;
_chemical_formula_sum "Si O2"
_cell_formula_units_Z 100
_cell_length_a 7.449385
_cell_length_b 21.490906
_cell_length_c 29.945779
_cell_angle_alpha 90.000000
_cell_angle_beta 90.000000
_cell_angle_gamma 90.000000
_cell_volume 4794.140525
_symmetry_space_group_name_H-M "I M M A"
_symmetry_group_IT_number 74
_symmetry_cell_setting 'orthorhombic'
loop_
_space_group_symop_operation_xyz
x,y,z
-x,1/2-y,z
x,-y,-z
-x,1/2+y,-z
-x,-y,-z
x,1/2+y,-z
-x,y,z
x,1/2-y,z
1/2+x,1/2+y,1/2+z
1/2-x,-y,1/2+z
1/2+x,1/2-y,1/2-z
1/2-x,y,1/2-z
1/2-x,1/2-y,1/2-z
1/2+x,y,1/2-z
1/2-x,1/2+y,1/2+z
1/2+x,-y,1/2+z
loop_
_atom_site_type_symbol
_atom_site_label
_atom_site_fract_x
_atom_site_fract_y
_atom_site_fract_z
Si Si1 0.793506 0.682044 0.105360
Si Si2 0.500000 0.250000 0.488802
Si Si3 0.281197 0.557272 0.892048
Si Si4 0.704514 0.059725 0.947111
Si Si5 0.214267 0.508993 0.700298
Si Si6 0.780951 0.638928 0.528003
Si Si7 0.213441 0.865898 0.300143
O O1 0.716588 0.750000 0.094317
O O2 0.706275 0.622347 0.082792
O O3 0.789867 0.672453 0.158650
O O4 0.000000 0.682412 0.090014
O O5 0.659163 0.303969 0.486333
O O6 0.500000 0.555550 0.890952
O O7 0.214495 0.495998 0.918533
O O8 0.219630 0.549905 0.841056
O O9 0.237745 0.617146 0.921626
O O10 0.500000 0.040391 0.954637
O O11 0.770627 0.081687 0.995136
O O12 0.250000 0.532842 0.750000
O O13 0.282047 0.437473 0.697388
O O14 0.000000 0.504054 0.696107
O O15 0.000000 0.648599 0.523858
O O16 0.250000 0.842802 0.250000
O O17 0.000000 0.866343 0.306572
#
# Coordination Sequence:
#
# PCOD9536374 Si02
#       7
#    16   4  16  16  16  16  16
#     4  11  24  36  49  73 108 151 198 248 296 345
#     4  12  26  44  62  90 130 156 208 252 290 376
#     4   9  17  37  62  88 121 154 197 245 302 359
#     4  10  20  37  60  84 114 157 200 249 298 350
#     4   9  17  31  53  82 117 148 182 238 296 353
#     4  10  23  41  65  90 122 163 201 246 306 358
#     4  10  19  34  53  73 101 141 191 240 297 349
#
# _framework density 20.858795000000001
#
# number of rings (size 3 to 8) (size 9 to 14) (size 15 to 20)
#    0.000    2.080    1.600    1.680    2.240    4.160 
#    2.880    0.800    0.000    0.000    0.000    0.560 
#    0.000    0.000    0.000    0.000    0.000    0.000 
#
# Total GULP energy -278655.277412 kJ/mol
# GULP energy per Si atom -5573.105548 kJ/mol
# Density = 2.081132 g / cm^3
# Si number density = 20.858795 Si / 1000 Ang^3
#
#
#
# Elastic Constant Matrix: (Units=GPa)
#
#
# Indices 1 2 3 4 5 6 
#
# 1 83.4537 7.6938 3.4689 0.0000 0.0000 0.0000
# 2 7.6938 25.2805 23.3051 0.0000 0.0000 0.0000
# 3 3.4689 23.3051 120.5873 0.0000 0.0000 0.0000
# 4 0.0000 0.0000 0.0000 -30.5412 0.0000 0.0000
# 5 0.0000 0.0000 0.0000 0.0000 17.3680 0.0000
# 6 0.0000 0.0000 0.0000 0.0000 0.0000 43.1497
#
#
#
# Elastic Compliance Matrix: (Units=1/GPa)
#
#
# Indices 1 2 3 4 5 6 
#
# 1 0.012349 -0.004174 0.000452 0.000000 0.000000 0.000000
# 2 -0.004174 0.049542 -0.009455 0.000000 0.000000 0.000000
# 3 0.000452 -0.009455 0.010107 0.000000 0.000000 0.000000
# 4 0.000000 0.000000 0.000000 -0.032743 0.000000 0.000000
# 5 0.000000 0.000000 0.000000 0.000000 0.057577 0.000000
# 6 0.000000 0.000000 0.000000 0.000000 0.000000 0.023175
#
#
# Mechanical properties :
#
#
# Convention : Reuss Voigt Hill
#
# Bulk Modulus (GPa) = 21.90911 33.13968 27.52440
# Shear Modulus (GPa) = 30.94496 18.98556 24.96526
#
# Velocity S-wave (km/s) = 3.85586 3.02022 3.46333
# Velocity P-wave (km/s) = 5.50907 5.29947 5.40529
#
# Compressibility (1/GPa) = 0.04564311
#
# Stress axis : x y z
#
# Youngs Moduli (GPa) = 80.97967 20.18472 98.94143
#
# Poissons Ratio (x) = 0.08426 -0.04467
# Poissons Ratio (y) = 0.33804 0.93546
# Poissons Ratio (z) = -0.03656 0.19084
#
# Static dielectric constant tensor:
#      x y z
#    x 1.813600 0.000000 0.000000 
#    y 0.000000 1.726560 0.000000 
#    z 0.000000 0.000000 1.798310 
# 
# From -- ./inp_files/70566.got.cif
#   From: 2010.05.17/outbox.cif.g08.bks.cpg/sg74_36_cif.got.tgz:70566.got - 2010.06.03 17:57:02.
