data_PCOD9536395
_publ_section_title
;
Structure prediction by ZEFSAII (Michael W. Deem and Ramdas Pophale) SiO2 
 PCOD9536395
Probable space group: I M M A
;
_chemical_formula_sum "Si O2"
_cell_formula_units_Z 64
_cell_length_a 14.923166
_cell_length_b 7.913902
_cell_length_c 29.676183
_cell_angle_alpha 90.000000
_cell_angle_beta 90.000000
_cell_angle_gamma 90.000000
_cell_volume 3504.771257
_symmetry_space_group_name_H-M "I M M A"
_symmetry_group_IT_number 74
_symmetry_cell_setting 'orthorhombic'
loop_
_space_group_symop_operation_xyz
x,y,z
-x,1/2-y,z
x,-y,-z
-x,1/2+y,-z
-x,-y,-z
x,1/2+y,-z
-x,y,z
x,1/2-y,z
1/2+x,1/2+y,1/2+z
1/2-x,-y,1/2+z
1/2+x,1/2-y,1/2-z
1/2-x,y,1/2-z
1/2-x,1/2-y,1/2-z
1/2+x,y,1/2-z
1/2-x,1/2+y,1/2+z
1/2+x,-y,1/2+z
loop_
_atom_site_type_symbol
_atom_site_label
_atom_site_fract_x
_atom_site_fract_y
_atom_site_fract_z
Si Si1 0.601092 0.750000 0.259165
Si Si2 0.599480 0.546827 0.947609
Si Si3 0.235413 0.948863 0.885288
Si Si4 0.673193 0.929832 0.787744
Si Si5 0.109220 0.750000 0.138152
O O1 0.500000 0.750000 0.272693
O O2 0.618789 0.588936 0.228580
O O3 0.644591 0.750000 0.309106
O O4 0.500000 0.484973 0.932590
O O5 0.597981 0.750000 0.943554
O O6 0.686251 0.492082 0.919474
O O7 0.608784 0.500000 0.000000
O O8 0.211134 0.750000 0.894372
O O9 0.281773 0.950051 0.836158
O O10 0.153381 0.081050 0.883442
O O11 0.623410 0.750000 0.787485
O O12 0.750000 0.920743 0.750000
O O13 0.000000 0.750000 0.134119
#
# Coordination Sequence:
#
# PCOD9536395 Si02
#       5
#     8  16  16  16   8
#     4  11  22  34  50  77 113 147 186 241 285 326
#     4   9  19  36  58  88 119 144 177 225 280 346
#     4  10  21  37  59  83 111 153 190 231 286 338
#     4  10  19  34  54  75 106 144 188 233 278 335
#     4  11  23  37  56  82 113 149 197 245 279 324
#
# _framework density 18.260819999999999
#
# number of rings (size 3 to 8) (size 9 to 14) (size 15 to 20)
#    0.000    2.000    2.500    1.125    1.750    2.000 
#    0.000    5.000    0.000    0.750    0.000    0.000 
#    0.000    0.000    0.000    0.000    0.000    0.000 
#
# Total GULP energy -178163.483704 kJ/mol
# GULP energy per Si atom -5567.608866 kJ/mol
# Density = 1.821926 g / cm^3
# Si number density = 18.260820 Si / 1000 Ang^3
#
#
#
# Elastic Constant Matrix: (Units=GPa)
#
#
# Indices 1 2 3 4 5 6 
#
# 1 99.3357 64.5754 42.5161 0.0000 0.0000 0.0000
# 2 64.5754 120.0036 19.0850 0.0000 0.0000 0.0000
# 3 42.5161 19.0850 60.8810 0.0000 0.0000 0.0000
# 4 0.0000 0.0000 0.0000 29.3674 0.0000 0.0000
# 5 0.0000 0.0000 0.0000 0.0000 13.2275 0.0000
# 6 0.0000 0.0000 0.0000 0.0000 0.0000 110.9845
#
#
#
# Elastic Compliance Matrix: (Units=1/GPa)
#
#
# Indices 1 2 3 4 5 6 
#
# 1 0.021454 -0.009643 -0.011960 0.000000 0.000000 0.000000
# 2 -0.009643 0.013104 0.002626 0.000000 0.000000 0.000000
# 3 -0.011960 0.002626 0.023954 0.000000 0.000000 0.000000
# 4 0.000000 0.000000 0.000000 0.034051 0.000000 0.000000
# 5 0.000000 0.000000 0.000000 0.000000 0.075600 0.000000
# 6 0.000000 0.000000 0.000000 0.000000 0.000000 0.009010
#
#
# Mechanical properties :
#
#
# Convention : Reuss Voigt Hill
#
# Bulk Modulus (GPa) = 48.63801 59.17480 53.90641
# Shear Modulus (GPa) = 22.52453 40.98547 31.75500
#
# Velocity S-wave (km/s) = 3.51592 4.74270 4.17462
# Velocity P-wave (km/s) = 6.57079 7.90358 7.26780
#
# Compressibility (1/GPa) = 0.02056005
#
# Stress axis : x y z
#
# Youngs Moduli (GPa) = 46.61125 76.31094 41.74625
#
# Poissons Ratio (x) = 0.73584 0.49927
# Poissons Ratio (y) = 0.44946 -0.10963
# Poissons Ratio (z) = 0.55745 -0.20039
#
# Static dielectric constant tensor:
#      x y z
#    x 1.633290 0.000000 0.000000 
#    y 0.000000 1.688770 0.000000 
#    z 0.000000 0.000000 1.624880 
# 
# From -- ./inp_files/66644.got.cif
#   From: 2010.05.17/outbox.cif.g08.bks.cpg/sg74_34_cif.got.tgz:66644.got - 2010.06.03 17:57:02.
