data_PCOD9536647
_publ_section_title
;
Structure prediction by ZEFSAII (Michael W. Deem and Ramdas Pophale) SiO2 
 PCOD9536647
Probable space group: I M M A
;
_chemical_formula_sum "Si O2"
_cell_formula_units_Z 88
_cell_length_a 14.587994
_cell_length_b 17.644179
_cell_length_c 16.792094
_cell_angle_alpha 90.000000
_cell_angle_beta 90.000000
_cell_angle_gamma 90.000000
_cell_volume 4322.170430
_symmetry_space_group_name_H-M "I M M A"
_symmetry_group_IT_number 74
_symmetry_cell_setting 'orthorhombic'
loop_
_space_group_symop_operation_xyz
x,y,z
-x,1/2-y,z
x,-y,-z
-x,1/2+y,-z
-x,-y,-z
x,1/2+y,-z
-x,y,z
x,1/2-y,z
1/2+x,1/2+y,1/2+z
1/2-x,-y,1/2+z
1/2+x,1/2-y,1/2-z
1/2-x,y,1/2-z
1/2-x,1/2-y,1/2-z
1/2+x,y,1/2-z
1/2-x,1/2+y,1/2+z
1/2+x,-y,1/2+z
loop_
_atom_site_type_symbol
_atom_site_label
_atom_site_fract_x
_atom_site_fract_y
_atom_site_fract_z
Si Si1 0.394855 0.341366 0.144007
Si Si2 0.750000 0.932314 0.750000
Si Si3 0.099166 0.456469 0.807984
Si Si4 0.210367 0.840334 0.489133
Si Si5 0.661551 0.836631 0.191601
Si Si6 0.100080 0.910543 0.017070
O O1 0.500000 0.363467 0.160618
O O2 0.388212 0.250000 0.152772
O O3 0.320409 0.382118 0.199251
O O4 0.366798 0.360889 0.053161
O O5 0.815645 0.986797 0.802414
O O6 0.101551 0.400955 0.732635
O O7 0.105043 0.405391 0.887108
O O8 0.000000 0.496328 0.812329
O O9 0.219430 0.750000 0.489151
O O10 0.186231 0.860660 0.398242
O O11 0.308419 0.873278 0.515440
O O12 0.624804 0.750000 0.189494
O O13 0.750000 0.834551 0.250000
O O14 0.000000 0.881143 0.990538
O O15 0.102221 0.000000 0.000000
#
# Coordination Sequence:
#
# PCOD9536647 Si02
#       6
#    16   8  16  16  16  16
#     4  10  23  42  64  90 116 148 193 242 299 363
#     4  12  21  40  63  84 116 152 192 248 297 356
#     4  11  22  35  56  86 117 156 203 247 292 347
#     4  10  20  36  59  84 117 154 192 245 298 347
#     4  10  19  35  57  85 120 163 205 242 289 347
#     4  10  20  34  52  78 114 155 197 241 291 347
#
# _framework density 20.360140999999999
#
# number of rings (size 3 to 8) (size 9 to 14) (size 15 to 20)
#    0.000    1.636    2.727    1.909    0.000    1.455 
#    0.000    4.545    0.000    8.182    0.000    0.000 
#    0.000    0.000    0.000    0.000    0.000    0.000 
#
# Total GULP energy -245519.779070 kJ/mol
# GULP energy per Si atom -5579.994979 kJ/mol
# Density = 2.031380 g / cm^3
# Si number density = 20.360141 Si / 1000 Ang^3
#
#
#
# Elastic Constant Matrix: (Units=GPa)
#
#
# Indices 1 2 3 4 5 6 
#
# 1 151.2615 36.1923 29.7858 0.0000 0.0000 0.0000
# 2 36.1923 28.1015 22.8883 0.0000 0.0000 0.0000
# 3 29.7858 22.8883 61.7715 0.0000 0.0000 0.0000
# 4 0.0000 0.0000 0.0000 24.1592 0.0000 0.0000
# 5 0.0000 0.0000 0.0000 0.0000 21.7073 0.0000
# 6 0.0000 0.0000 0.0000 0.0000 0.0000 8.2028
#
#
#
# Elastic Compliance Matrix: (Units=1/GPa)
#
#
# Indices 1 2 3 4 5 6 
#
# 1 0.009556 -0.012252 -0.000068 0.000000 0.000000 0.000000
# 2 -0.012252 0.066675 -0.018797 0.000000 0.000000 0.000000
# 3 -0.000068 -0.018797 0.023187 0.000000 0.000000 0.000000
# 4 0.000000 0.000000 0.000000 0.041392 0.000000 0.000000
# 5 0.000000 0.000000 0.000000 0.000000 0.046067 0.000000
# 6 0.000000 0.000000 0.000000 0.000000 0.000000 0.121910
#
#
# Mechanical properties :
#
#
# Convention : Reuss Voigt Hill
#
# Bulk Modulus (GPa) = 26.89423 46.54081 36.71752
# Shear Modulus (GPa) = 13.04068 20.96505 17.00287
#
# Velocity S-wave (km/s) = 2.53356 3.21239 2.89295
# Velocity P-wave (km/s) = 4.66867 6.05539 5.40667
#
# Compressibility (1/GPa) = 0.03718270
#
# Stress axis : x y z
#
# Youngs Moduli (GPa) = 104.64672 14.99822 43.12844
#
# Poissons Ratio (x) = 0.18375 0.00294
# Poissons Ratio (y) = 1.28210 0.81070
# Poissons Ratio (z) = 0.00713 0.28193
#
# Static dielectric constant tensor:
#      x y z
#    x 1.744470 0.000000 0.000000 
#    y 0.000000 1.712080 0.000000 
#    z 0.000000 0.000000 1.763490 
# 
# From -- ./inp_files/42814.got.cif
#   From: 2010.05.17/outbox.cif.g08.bks.cpg/sg74_22_cif.got.tgz:42814.got - 2010.06.03 17:57:02.
