data_PCOD9536381
_publ_section_title
;
Structure prediction by ZEFSAII (Michael W. Deem and Ramdas Pophale) SiO2 
 PCOD9536381
Probable space group: I M M A
;
_chemical_formula_sum "Si O2"
_cell_formula_units_Z 96
_cell_length_a 8.312151
_cell_length_b 20.563316
_cell_length_c 30.932405
_cell_angle_alpha 90.000000
_cell_angle_beta 90.000000
_cell_angle_gamma 90.000000
_cell_volume 5287.133316
_symmetry_space_group_name_H-M "I M M A"
_symmetry_group_IT_number 74
_symmetry_cell_setting 'orthorhombic'
loop_
_space_group_symop_operation_xyz
x,y,z
-x,1/2-y,z
x,-y,-z
-x,1/2+y,-z
-x,-y,-z
x,1/2+y,-z
-x,y,z
x,1/2-y,z
1/2+x,1/2+y,1/2+z
1/2-x,-y,1/2+z
1/2+x,1/2-y,1/2-z
1/2-x,y,1/2-z
1/2-x,1/2-y,1/2-z
1/2+x,y,1/2-z
1/2-x,1/2+y,1/2+z
1/2+x,-y,1/2+z
loop_
_atom_site_type_symbol
_atom_site_label
_atom_site_fract_x
_atom_site_fract_y
_atom_site_fract_z
Si Si1 0.192268 0.538762 0.200732
Si Si2 0.306109 0.539385 0.042770
Si Si3 0.306001 0.545710 0.875973
Si Si4 0.805280 0.677849 0.582658
Si Si5 0.305512 0.319570 0.699974
Si Si6 0.807752 0.322622 0.983776
O O1 0.250000 0.531612 0.250000
O O2 0.251521 0.482601 0.169432
O O3 0.249514 0.610038 0.183245
O O4 0.000000 0.539316 0.200968
O O5 0.500000 0.536955 0.042105
O O6 0.249446 0.501823 0.085444
O O7 0.249676 0.500000 0.000000
O O8 0.256039 0.614503 0.041109
O O9 0.500000 0.545888 0.876734
O O10 0.250723 0.618393 0.887681
O O11 0.755802 0.750000 0.597260
O O12 0.744057 0.668851 0.533776
O O13 0.000000 0.676172 0.580784
O O14 0.500000 0.319428 0.698650
O O15 0.250476 0.250000 0.680766
O O16 0.250000 0.319171 0.750000
O O17 0.750942 0.250000 0.970185
O O18 0.000000 0.322875 0.981180
#
# Coordination Sequence:
#
# PCOD9536381 Si02
#       6
#    16  16  16  16  16  16
#     4  10  20  34  53  76 103 136 172 212 262 310
#     4  10  19  34  53  75 103 138 175 212 256 309
#     4  10  20  34  53  78 105 132 170 216 259 310
#     4   9  17  32  54  76 100 134 173 212 256 310
#     4   8  14  26  45  68  92 120 157 199 241 288
#     4  10  20  32  48  74 107 141 176 216 260 305
#
# _framework density 18.157288000000001
#
# number of rings (size 3 to 8) (size 9 to 14) (size 15 to 20)
#    0.000    2.500    1.667    1.000    0.000    3.333 
#    0.000    0.833    0.000    3.500    0.000    0.000 
#    0.000    0.000    0.000    0.000    0.000    0.000 
#
# Total GULP energy -267496.646844 kJ/mol
# GULP energy per Si atom -5572.846809 kJ/mol
# Density = 1.811596 g / cm^3
# Si number density = 18.157288 Si / 1000 Ang^3
#
#
#
# Elastic Constant Matrix: (Units=GPa)
#
#
# Indices 1 2 3 4 5 6 
#
# 1 6.3324 23.7366 10.6652 0.0000 0.0000 0.0000
# 2 23.7366 176.3020 61.8286 0.0000 0.0000 0.0000
# 3 10.6652 61.8286 62.8024 0.0000 0.0000 0.0000
# 4 0.0000 0.0000 0.0000 24.7505 0.0000 0.0000
# 5 0.0000 0.0000 0.0000 0.0000 17.2234 0.0000
# 6 0.0000 0.0000 0.0000 0.0000 0.0000 12.4495
#
#
#
# Elastic Compliance Matrix: (Units=1/GPa)
#
#
# Indices 1 2 3 4 5 6 
#
# 1 0.332961 -0.038181 -0.018955 0.000000 0.000000 0.000000
# 2 -0.038181 0.013041 -0.006355 0.000000 0.000000 0.000000
# 3 -0.018955 -0.006355 0.025399 0.000000 0.000000 0.000000
# 4 0.000000 0.000000 0.000000 0.040403 0.000000 0.000000
# 5 0.000000 0.000000 0.000000 0.000000 0.058060 0.000000
# 6 0.000000 0.000000 0.000000 0.000000 0.000000 0.080325
#
#
# Mechanical properties :
#
#
# Convention : Reuss Voigt Hill
#
# Bulk Modulus (GPa) = 4.09135 48.65530 26.37332
# Shear Modulus (GPa) = 6.59070 20.83178 13.71124
#
# Velocity S-wave (km/s) = 1.90727 3.39085 2.75096
# Velocity P-wave (km/s) = 2.66616 6.49502 4.96456
#
# Compressibility (1/GPa) = 0.24441827
#
# Stress axis : x y z
#
# Youngs Moduli (GPa) = 3.00336 76.67890 39.37231
#
# Poissons Ratio (x) = 2.92769 0.74630
# Poissons Ratio (y) = 0.11467 0.25022
# Poissons Ratio (z) = 0.05693 0.48731
#
# Static dielectric constant tensor:
#      x y z
#    x 1.650900 0.000000 0.000000 
#    y 0.000000 1.678810 0.000000 
#    z 0.000000 0.000000 1.536310 
# 
# From -- ./inp_files/64306.got.cif
#   From: 2010.05.17/outbox.cif.g08.bks.cpg/sg74_33_cif.got.tgz:64306.got - 2010.06.03 17:57:02.
