data_PCOD9536915
_publ_section_title
;
Structure prediction by ZEFSAII (Michael W. Deem and Ramdas Pophale) SiO2 
 PCOD9536915
Probable space group: I M M A
;
_chemical_formula_sum "Si O2"
_cell_formula_units_Z 104
_cell_length_a 21.133266
_cell_length_b 8.561785
_cell_length_c 32.564275
_cell_angle_alpha 90.000000
_cell_angle_beta 90.000000
_cell_angle_gamma 90.000000
_cell_volume 5892.130416
_symmetry_space_group_name_H-M "I M M A"
_symmetry_group_IT_number 74
_symmetry_cell_setting 'orthorhombic'
loop_
_space_group_symop_operation_xyz
x,y,z
-x,1/2-y,z
x,-y,-z
-x,1/2+y,-z
-x,-y,-z
x,1/2+y,-z
-x,y,z
x,1/2-y,z
1/2+x,1/2+y,1/2+z
1/2-x,-y,1/2+z
1/2+x,1/2-y,1/2-z
1/2-x,y,1/2-z
1/2-x,1/2-y,1/2-z
1/2+x,y,1/2-z
1/2-x,1/2+y,1/2+z
1/2+x,-y,1/2+z
loop_
_atom_site_type_symbol
_atom_site_label
_atom_site_fract_x
_atom_site_fract_y
_atom_site_fract_z
Si Si1 0.571853 0.562946 0.678525
Si Si2 0.236737 0.566106 0.955829
Si Si3 0.319593 0.565890 0.168422
Si Si4 0.864432 0.065925 0.575166
Si Si5 0.690858 0.437740 0.631002
Si Si6 0.500000 0.938594 0.045826
Si Si7 0.428233 0.939339 0.229225
O O1 0.500000 0.522100 0.665752
O O2 0.576651 0.750000 0.680365
O O3 0.624839 0.496615 0.648514
O O4 0.581062 0.494354 0.724171
O O5 0.227007 0.750000 0.955159
O O6 0.310936 0.526144 0.949384
O O7 0.203923 0.492291 0.915560
O O8 0.216310 0.500000 0.000000
O O9 0.312194 0.750000 0.178593
O O10 0.350347 0.554582 0.123388
O O11 0.248559 0.503282 0.160617
O O12 0.370268 0.501694 0.200992
O O13 0.858666 0.250000 0.563990
O O14 0.934974 0.009874 0.566573
O O15 0.693324 0.250000 0.631323
O O16 0.500000 0.750000 0.046733
O O17 0.500000 0.000000 0.000000
O O18 0.500000 0.987872 0.216326
O O19 0.427626 0.750000 0.227800
#
# Coordination Sequence:
#
# PCOD9536915 Si02
#       7
#    16  16  16  16  16   8  16
#     4  10  21  37  55  77 107 140 173 212 260 315
#     4  11  21  35  55  78 105 137 173 213 260 314
#     4   8  16  30  49  75 103 132 174 224 267 306
#     4   9  18  32  48  70  99 136 178 224 273 317
#     4  10  20  36  57  81 108 136 173 218 263 315
#     4  10  20  30  44  64  92 130 176 226 274 320
#     4   9  17  30  51  76 102 139 184 223 260 309
#
# _framework density 17.650660999999999
#
# number of rings (size 3 to 8) (size 9 to 14) (size 15 to 20)
#    0.000    2.462    0.000    3.692    1.077    3.385 
#    0.000    6.923    0.000    0.462    0.000    0.000 
#    0.000    0.000    0.000    0.000    0.000    0.000 
#
# Total GULP energy -289895.677088 kJ/mol
# GULP energy per Si atom -5574.916867 kJ/mol
# Density = 1.761049 g / cm^3
# Si number density = 17.650661 Si / 1000 Ang^3
#
#
#
# Elastic Constant Matrix: (Units=GPa)
#
#
# Indices 1 2 3 4 5 6 
#
# 1 139.3491 30.7283 74.4557 0.0000 0.0000 0.0000
# 2 30.7283 36.2152 21.9465 0.0000 0.0000 0.0000
# 3 74.4557 21.9465 76.1611 0.0000 0.0000 0.0000
# 4 0.0000 0.0000 0.0000 23.7829 0.0000 0.0000
# 5 0.0000 0.0000 0.0000 0.0000 16.0800 0.0000
# 6 0.0000 0.0000 0.0000 0.0000 0.0000 20.6478
#
#
#
# Elastic Compliance Matrix: (Units=1/GPa)
#
#
# Indices 1 2 3 4 5 6 
#
# 1 0.015703 -0.004871 -0.013947 0.000000 0.000000 0.000000
# 2 -0.004871 0.034966 -0.005313 0.000000 0.000000 0.000000
# 3 -0.013947 -0.005313 0.028296 0.000000 0.000000 0.000000
# 4 0.000000 0.000000 0.000000 0.042047 0.000000 0.000000
# 5 0.000000 0.000000 0.000000 0.000000 0.062189 0.000000
# 6 0.000000 0.000000 0.000000 0.000000 0.000000 0.048431
#
#
# Mechanical properties :
#
#
# Convention : Reuss Voigt Hill
#
# Bulk Modulus (GPa) = 32.57270 56.22071 44.39671
# Shear Modulus (GPa) = 17.23366 20.40846 18.82106
#
# Velocity S-wave (km/s) = 3.12809 3.40405 3.26898
# Velocity P-wave (km/s) = 5.61612 6.88267 6.28140
#
# Compressibility (1/GPa) = 0.03070055
#
# Stress axis : x y z
#
# Youngs Moduli (GPa) = 63.68375 28.59917 35.34057
#
# Poissons Ratio (x) = 0.13932 0.49290
# Poissons Ratio (y) = 0.31023 0.18778
# Poissons Ratio (z) = 0.88821 0.15196
#
# Static dielectric constant tensor:
#      x y z
#    x 1.604670 0.000000 0.000000 
#    y 0.000000 1.604760 0.000000 
#    z 0.000000 0.000000 1.576310 
# 
# From -- ./inp_files/73392.got.cif
#   From: 2010.05.17/outbox.cif.g08.bks.cpg/sg74_37_cif.got.tgz:73392.got - 2010.06.03 17:57:02.
