data_PCOD9536717
_publ_section_title
;
Structure prediction by ZEFSAII (Michael W. Deem and Ramdas Pophale) SiO2 
 PCOD9536717
Probable space group: I M M A
;
_chemical_formula_sum "Si O2"
_cell_formula_units_Z 104
_cell_length_a 22.124023
_cell_length_b 15.625217
_cell_length_c 17.228789
_cell_angle_alpha 90.000000
_cell_angle_beta 90.000000
_cell_angle_gamma 90.000000
_cell_volume 5955.865903
_symmetry_space_group_name_H-M "I M M A"
_symmetry_group_IT_number 74
_symmetry_cell_setting 'orthorhombic'
loop_
_space_group_symop_operation_xyz
x,y,z
-x,1/2-y,z
x,-y,-z
-x,1/2+y,-z
-x,-y,-z
x,1/2+y,-z
-x,y,z
x,1/2-y,z
1/2+x,1/2+y,1/2+z
1/2-x,-y,1/2+z
1/2+x,1/2-y,1/2-z
1/2-x,y,1/2-z
1/2-x,1/2-y,1/2-z
1/2+x,y,1/2-z
1/2-x,1/2+y,1/2+z
1/2+x,-y,1/2+z
loop_
_atom_site_type_symbol
_atom_site_label
_atom_site_fract_x
_atom_site_fract_y
_atom_site_fract_z
Si Si1 0.569748 0.853241 0.137698
Si Si2 0.428030 0.901495 0.315871
Si Si3 0.869738 0.250000 0.087920
Si Si4 0.748431 0.250000 0.500000
Si Si5 0.928030 0.598505 0.815871
Si Si6 0.569748 0.146759 0.137698
Si Si7 0.869738 0.250000 0.912080
Si Si8 0.657814 0.404129 0.000000
O O1 0.500000 0.876418 0.119519
O O2 0.573848 0.750000 0.136412
O O3 0.583104 0.885046 0.224552
O O4 0.615208 0.890128 0.074725
O O5 0.500000 0.887650 0.327838
O O6 0.391782 0.833255 0.366277
O O7 0.413997 0.000000 0.334936
O O8 0.797731 0.250000 0.072797
O O9 0.891782 0.333255 0.133723
O O10 0.895645 0.250000 1.000000
O O11 0.702269 0.250000 0.572797
O O12 0.790493 0.332831 0.500000
O O13 0.916896 0.614955 0.724552
O O14 0.000000 0.612349 0.827838
O O15 0.500000 0.123582 0.119519
O O16 0.573848 0.250000 0.136412
O O17 0.615208 0.109872 0.074725
O O18 0.682552 0.500000 0.000000
#
# Coordination Sequence:
#
# PCOD9536717 Si02
#       8
#    16  16   8   8  16  16   8  16
#     4  10  19  35  62  92 125 154 180 225 288 355
#     4  10  20  36  61  94 123 146 181 232 294 357
#     4  10  23  41  61  78 112 159 192 248 292 336
#     4  10  26  44  56  78 110 156 210 252 278 320
#     4  10  20  36  61  94 123 146 181 232 294 357
#     4  10  19  35  62  92 125 154 180 225 288 355
#     4  10  23  41  61  78 112 159 192 248 292 336
#     4  12  23  39  61  85 118 157 198 234 280 337
#
# _framework density 17.461777000000001
#
# number of rings (size 3 to 8) (size 9 to 14) (size 15 to 20)
#    0.462    1.231    3.077    1.846    0.000    6.769 
#    0.000    4.615    0.000    3.692    0.000    0.000 
#    0.000    0.000    0.000    0.000    0.000    0.000 
#
# Total GULP energy -290277.935152 kJ/mol
# GULP energy per Si atom -5582.267984 kJ/mol
# Density = 1.742203 g / cm^3
# Si number density = 17.461777 Si / 1000 Ang^3
#
#
#
# Elastic Constant Matrix: (Units=GPa)
#
#
# Indices 1 2 3 4 5 6 
#
# 1 100.7930 84.8036 75.3443 0.0000 0.0000 0.0000
# 2 84.8036 160.5681 69.9650 0.0000 0.0000 0.0000
# 3 75.3443 69.9650 102.0260 0.0000 0.0000 0.0000
# 4 0.0000 0.0000 0.0000 -37.9828 0.0000 0.0000
# 5 0.0000 0.0000 0.0000 0.0000 -28.7342 0.0000
# 6 0.0000 0.0000 0.0000 0.0000 0.0000 9.4891
#
#
#
# Elastic Compliance Matrix: (Units=1/GPa)
#
#
# Indices 1 2 3 4 5 6 
#
# 1 0.028248 -0.008314 -0.015160 0.000000 0.000000 0.000000
# 2 -0.008314 0.011329 -0.001629 0.000000 0.000000 0.000000
# 3 -0.015160 -0.001629 0.022114 0.000000 0.000000 0.000000
# 4 0.000000 0.000000 0.000000 -0.026328 0.000000 0.000000
# 5 0.000000 0.000000 0.000000 0.000000 -0.034802 0.000000
# 6 0.000000 0.000000 0.000000 0.000000 0.000000 0.105384
#
#
# Mechanical properties :
#
#
# Convention : Reuss Voigt Hill
#
# Bulk Modulus (GPa) = 87.06538 91.51254 89.28896
# Shear Modulus (GPa) = 31.25417 -2.56063 14.34677
#
# Velocity S-wave (km/s) = 4.23527 -1.21227 2.86948
# Velocity P-wave (km/s) = 8.59566 7.11067 7.88819
#
# Compressibility (1/GPa) = 0.01148562
#
# Stress axis : x y z
#
# Youngs Moduli (GPa) = 35.40050 88.27210 45.22066
#
# Poissons Ratio (x) = 0.73386 0.68553
# Poissons Ratio (y) = 0.29431 0.07367
# Poissons Ratio (z) = 0.53666 0.14381
#
# Static dielectric constant tensor:
#      x y z
#    x 1.569520 0.000000 0.000000 
#    y 0.000000 1.594420 0.000000 
#    z 0.000000 0.000000 1.574980 
# 
# From -- ./inp_files/46143.got.cif
#   From: 2010.05.17/outbox.cif.g08.bks.cpg/sg74_24_cif.got.tgz:46143.got - 2010.06.03 17:57:02.
