data_PCOD9536254
_publ_section_title
;
Structure prediction by ZEFSAII (Michael W. Deem and Ramdas Pophale) SiO2 
 PCOD9536254
Probable space group: I M M A
;
_chemical_formula_sum "Si O2"
_cell_formula_units_Z 64
_cell_length_a 9.736098
_cell_length_b 17.620059
_cell_length_c 19.232339
_cell_angle_alpha 90.000000
_cell_angle_beta 90.000000
_cell_angle_gamma 90.000000
_cell_volume 3299.319702
_symmetry_space_group_name_H-M "I M M A"
_symmetry_group_IT_number 74
_symmetry_cell_setting 'orthorhombic'
loop_
_space_group_symop_operation_xyz
x,y,z
-x,1/2-y,z
x,-y,-z
-x,1/2+y,-z
-x,-y,-z
x,1/2+y,-z
-x,y,z
x,1/2-y,z
1/2+x,1/2+y,1/2+z
1/2-x,-y,1/2+z
1/2+x,1/2-y,1/2-z
1/2-x,y,1/2-z
1/2-x,1/2-y,1/2-z
1/2+x,y,1/2-z
1/2-x,1/2+y,1/2+z
1/2+x,-y,1/2+z
loop_
_atom_site_type_symbol
_atom_site_label
_atom_site_fract_x
_atom_site_fract_y
_atom_site_fract_z
Si Si1 0.348189 0.161387 0.191006
Si Si2 0.161323 0.598964 0.918858
Si Si3 0.836286 0.547787 0.179574
Si Si4 0.665797 0.163278 0.566328
O O1 0.500000 0.126575 0.189713
O O2 0.364100 0.250000 0.207132
O O3 0.250000 0.127814 0.250000
O O4 0.265525 0.154013 0.120294
O O5 0.179926 0.519825 0.877719
O O6 0.000000 0.620110 0.909722
O O7 0.193766 0.608655 0.000170
O O8 0.750000 0.539011 0.250000
O O9 0.790656 0.623147 0.137575
O O10 0.000000 0.551061 0.195058
O O11 0.500000 0.166769 0.569375
O O12 0.715548 0.250000 0.556702
#
# Coordination Sequence:
#
# PCOD9536254 Si02
#       4
#    16  16  16  16
#     4  10  20  32  47  71 105 143 181 220 263 316
#     4  10  19  33  55  80 106 136 174 222 273 322
#     4  10  21  36  55  81 111 143 181 224 269 320
#     4   9  18  34  57  82 107 140 183 227 270 319
#
# _framework density 19.397939999999998
#
# number of rings (size 3 to 8) (size 9 to 14) (size 15 to 20)
#    0.000    2.250    0.000    3.000    0.000    9.000 
#    0.000    1.250    0.000    4.500    0.000    0.000 
#    0.000    0.000    0.000    0.000    0.000    0.000 
#
# Total GULP energy -178247.669208 kJ/mol
# GULP energy per Si atom -5570.239663 kJ/mol
# Density = 1.935379 g / cm^3
# Si number density = 19.397940 Si / 1000 Ang^3
#
#
#
# Elastic Constant Matrix: (Units=GPa)
#
#
# Indices 1 2 3 4 5 6 
#
# 1 75.1266 30.8154 57.6783 0.0000 0.0000 0.0000
# 2 30.8154 75.9826 63.8377 0.0000 0.0000 0.0000
# 3 57.6783 63.8377 147.1704 0.0000 0.0000 0.0000
# 4 0.0000 0.0000 0.0000 28.6149 0.0000 0.0000
# 5 0.0000 0.0000 0.0000 0.0000 25.8401 0.0000
# 6 0.0000 0.0000 0.0000 0.0000 0.0000 -66.3201
#
#
#
# Elastic Compliance Matrix: (Units=1/GPa)
#
#
# Indices 1 2 3 4 5 6 
#
# 1 0.019295 -0.002316 -0.006558 0.000000 0.000000 0.000000
# 2 -0.002316 0.020985 -0.008195 0.000000 0.000000 0.000000
# 3 -0.006558 -0.008195 0.012920 0.000000 0.000000 0.000000
# 4 0.000000 0.000000 0.000000 0.034947 0.000000 0.000000
# 5 0.000000 0.000000 0.000000 0.000000 0.038700 0.000000
# 6 0.000000 0.000000 0.000000 0.000000 0.000000 -0.015078
#
#
# Mechanical properties :
#
#
# Convention : Reuss Voigt Hill
#
# Bulk Modulus (GPa) = 52.45739 66.99359 59.72549
# Shear Modulus (GPa) = 32.83858 7.35687 20.09772
#
# Velocity S-wave (km/s) = 4.11894 1.94957 3.22230
# Velocity P-wave (km/s) = 7.05141 6.29914 6.68586
#
# Compressibility (1/GPa) = 0.01906309
#
# Stress axis : x y z
#
# Youngs Moduli (GPa) = 51.82591 47.65222 77.40179
#
# Poissons Ratio (x) = 0.11036 0.50757
# Poissons Ratio (y) = 0.12003 0.63431
# Poissons Ratio (z) = 0.33985 0.39051
#
# Static dielectric constant tensor:
#      x y z
#    x 1.679630 0.000000 0.000000 
#    y 0.000000 1.755680 0.000000 
#    z 0.000000 0.000000 1.707390 
# 
# From -- ./inp_files/39058.got.cif
#   From: 2010.05.17/outbox.cif.g08.bks.cpg/sg74_20_cif.got.tgz:39058.got - 2010.06.03 17:57:02.
