data_PCOD9536122
_publ_section_title
;
Structure prediction by ZEFSAII (Michael W. Deem and Ramdas Pophale) SiO2 
 PCOD9536122
Probable space group: I M M A
;
_chemical_formula_sum "Si O2"
_cell_formula_units_Z 120
_cell_length_a 7.694106
_cell_length_b 27.621181
_cell_length_c 29.100844
_cell_angle_alpha 90.000000
_cell_angle_beta 90.000000
_cell_angle_gamma 90.000000
_cell_volume 6184.519936
_symmetry_space_group_name_H-M "I M M A"
_symmetry_group_IT_number 74
_symmetry_cell_setting 'orthorhombic'
loop_
_space_group_symop_operation_xyz
x,y,z
-x,1/2-y,z
x,-y,-z
-x,1/2+y,-z
-x,-y,-z
x,1/2+y,-z
-x,y,z
x,1/2-y,z
1/2+x,1/2+y,1/2+z
1/2-x,-y,1/2+z
1/2+x,1/2-y,1/2-z
1/2-x,y,1/2-z
1/2-x,1/2-y,1/2-z
1/2+x,y,1/2-z
1/2-x,1/2+y,1/2+z
1/2+x,-y,1/2+z
loop_
_atom_site_type_symbol
_atom_site_label
_atom_site_fract_x
_atom_site_fract_y
_atom_site_fract_z
Si Si1 0.208551 0.458022 0.302801
Si Si2 0.791597 0.600029 0.610992
Si Si3 0.207860 0.158674 0.862447
Si Si4 0.790871 0.307383 0.958994
Si Si5 0.790951 0.950310 0.359319
Si Si6 0.291500 0.695417 0.560459
Si Si7 0.790742 0.750000 0.196302
Si Si8 0.287654 0.508562 0.947952
O O1 0.250000 0.449916 0.250000
O O2 0.271884 0.417889 0.339224
O O3 0.271325 0.509690 0.322718
O O4 0.000000 0.458846 0.306064
O O5 0.747235 0.654103 0.596786
O O6 0.731984 0.560266 0.573350
O O7 0.000000 0.596692 0.611324
O O8 0.278237 0.165466 0.914338
O O9 0.240163 0.104017 0.847406
O O10 0.274074 0.201519 0.829519
O O11 0.000000 0.165277 0.864826
O O12 0.761794 0.250000 0.952331
O O13 0.000000 0.314524 0.959989
O O14 0.724195 0.319942 0.009760
O O15 0.000000 0.952083 0.359897
O O16 0.733334 0.968370 0.410142
O O17 0.500000 0.698594 0.556824
O O18 0.228076 0.750000 0.570539
O O19 0.750000 0.750000 0.250000
O O20 0.000000 0.750000 0.192405
O O21 0.500000 0.508148 0.948924
O O22 0.227520 0.500000 0.000000
#
# Coordination Sequence:
#
# PCOD9536122 Si02
#       8
#    16  16  16  16  16  16   8  16
#     4   9  19  36  55  75  99 129 165 206 252 299
#     4   9  18  32  51  76 103 131 167 206 244 293
#     4  10  19  33  52  71  94 128 169 209 253 303
#     4   8  14  28  48  67  93 131 169 201 236 285
#     4   9  19  33  49  73 101 127 162 207 251 294
#     4   9  18  31  49  75 106 139 169 199 241 291
#     4  10  22  38  54  70  92 128 170 214 265 310
#     4   8  15  29  47  68  99 137 165 190 240 302
#
# _framework density 19.403283999999999
#
# number of rings (size 3 to 8) (size 9 to 14) (size 15 to 20)
#    0.000    3.067    0.667    2.400    1.867    2.400 
#    0.000    4.667    0.000    2.000    0.000    0.000 
#    0.000    0.000    0.000    0.000    0.000    0.000 
#
# Total GULP energy -334462.711708 kJ/mol
# GULP energy per Si atom -5574.378528 kJ/mol
# Density = 1.935912 g / cm^3
# Si number density = 19.403284 Si / 1000 Ang^3
#
#
#
# Elastic Constant Matrix: (Units=GPa)
#
#
# Indices 1 2 3 4 5 6 
#
# 1 30.1024 5.4180 9.6208 0.0000 0.0000 0.0000
# 2 5.4180 147.9724 100.1054 0.0000 0.0000 0.0000
# 3 9.6208 100.1054 166.2561 0.0000 0.0000 0.0000
# 4 0.0000 0.0000 0.0000 15.5916 0.0000 0.0000
# 5 0.0000 0.0000 0.0000 0.0000 15.3246 0.0000
# 6 0.0000 0.0000 0.0000 0.0000 0.0000 19.7750
#
#
#
# Elastic Compliance Matrix: (Units=1/GPa)
#
#
# Indices 1 2 3 4 5 6 
#
# 1 0.033848 0.000145 -0.002046 0.000000 0.000000 0.000000
# 2 0.000145 0.011403 -0.006875 0.000000 0.000000 0.000000
# 3 -0.002046 -0.006875 0.010272 0.000000 0.000000 0.000000
# 4 0.000000 0.000000 0.000000 0.064137 0.000000 0.000000
# 5 0.000000 0.000000 0.000000 0.000000 0.065255 0.000000
# 6 0.000000 0.000000 0.000000 0.000000 0.000000 0.050569
#
#
# Mechanical properties :
#
#
# Convention : Reuss Voigt Hill
#
# Bulk Modulus (GPa) = 26.33497 63.84657 45.09077
# Shear Modulus (GPa) = 18.81871 25.41737 22.11804
#
# Velocity S-wave (km/s) = 3.11766 3.62325 3.37992
# Velocity P-wave (km/s) = 5.15379 7.10496 6.20653
#
# Compressibility (1/GPa) = 0.03797233
#
# Stress axis : x y z
#
# Youngs Moduli (GPa) = 29.54407 87.69260 97.34737
#
# Poissons Ratio (x) = -0.01269 0.19915
# Poissons Ratio (y) = -0.00427 0.66922
# Poissons Ratio (z) = 0.06044 0.60285
#
# Static dielectric constant tensor:
#      x y z
#    x 1.733300 0.000000 0.000000 
#    y 0.000000 1.674790 0.000000 
#    z 0.000000 0.000000 1.687810 
# 
# From -- ./inp_files/65049.got.cif
#   From: 2010.05.17/outbox.cif.g08.bks.cpg/sg74_33_cif.got.tgz:65049.got - 2010.06.03 17:57:02.
