data_PCOD9536379
_publ_section_title
;
Structure prediction by ZEFSAII (Michael W. Deem and Ramdas Pophale) SiO2 
 PCOD9536379
Probable space group: I M M A
;
_chemical_formula_sum "Si O2"
_cell_formula_units_Z 88
_cell_length_a 19.217018
_cell_length_b 9.354750
_cell_length_c 26.208913
_cell_angle_alpha 90.000000
_cell_angle_beta 90.000000
_cell_angle_gamma 90.000000
_cell_volume 4711.586751
_symmetry_space_group_name_H-M "I M M A"
_symmetry_group_IT_number 74
_symmetry_cell_setting 'orthorhombic'
loop_
_space_group_symop_operation_xyz
x,y,z
-x,1/2-y,z
x,-y,-z
-x,1/2+y,-z
-x,-y,-z
x,1/2+y,-z
-x,y,z
x,1/2-y,z
1/2+x,1/2+y,1/2+z
1/2-x,-y,1/2+z
1/2+x,1/2-y,1/2-z
1/2-x,y,1/2-z
1/2-x,1/2-y,1/2-z
1/2+x,y,1/2-z
1/2-x,1/2+y,1/2+z
1/2+x,-y,1/2+z
loop_
_atom_site_type_symbol
_atom_site_label
_atom_site_fract_x
_atom_site_fract_y
_atom_site_fract_z
Si Si1 0.920571 0.906125 0.078837
Si Si2 0.081196 0.918730 0.254895
Si Si3 0.688328 0.500000 0.500000
Si Si4 0.922272 0.922864 0.636837
Si Si5 0.778619 0.918676 0.596745
Si Si6 0.347186 0.578320 0.663484
O O1 0.915816 0.750000 0.104955
O O2 0.000000 0.924394 0.061512
O O3 0.899162 0.028987 0.118257
O O4 0.865965 0.906056 0.032559
O O5 0.096741 0.750000 0.259256
O O6 0.000000 0.931911 0.238335
O O7 0.086576 0.998330 0.309114
O O8 0.129390 0.998206 0.214182
O O9 0.739227 0.440831 0.456461
O O10 0.919821 0.750000 0.644100
O O11 0.857670 0.970299 0.601676
O O12 0.000000 0.956705 0.617255
O O13 0.781772 0.750000 0.604391
O O14 0.728002 0.971733 0.642017
O O15 0.348295 0.750000 0.669802
#
# Coordination Sequence:
#
# PCOD9536379 Si02
#       6
#    16  16   8  16  16  16
#     4  10  20  33  50  74 105 140 178 216 249 288
#     4  10  20  34  52  76 108 140 170 208 251 296
#     4  10  19  34  53  74 102 138 170 208 261 314
#     4   9  18  35  58  78  98 130 171 211 254 307
#     4   9  19  35  53  75 102 132 169 214 258 302
#     4  10  20  33  51  76 107 141 174 207 247 298
#
# _framework density 18.67736
#
# number of rings (size 3 to 8) (size 9 to 14) (size 15 to 20)
#    0.000    2.364    0.000    2.455    0.000    5.091 
#    0.000    9.545    0.000    0.000    0.000    0.000 
#    0.000    0.000    0.000    0.000    0.000    0.000 
#
# Total GULP energy -245044.302006 kJ/mol
# GULP energy per Si atom -5569.188682 kJ/mol
# Density = 1.863485 g / cm^3
# Si number density = 18.677360 Si / 1000 Ang^3
#
#
#
# Elastic Constant Matrix: (Units=GPa)
#
#
# Indices 1 2 3 4 5 6 
#
# 1 157.7705 21.0451 48.4969 0.0000 0.0000 0.0000
# 2 21.0451 36.8803 -3.0984 0.0000 0.0000 0.0000
# 3 48.4969 -3.0984 31.5013 0.0000 0.0000 0.0000
# 4 0.0000 0.0000 0.0000 16.0061 0.0000 0.0000
# 5 0.0000 0.0000 0.0000 0.0000 17.8280 0.0000
# 6 0.0000 0.0000 0.0000 0.0000 0.0000 -1.5343
#
#
#
# Elastic Compliance Matrix: (Units=1/GPa)
#
#
# Indices 1 2 3 4 5 6 
#
# 1 0.015411 -0.010877 -0.024796 0.000000 0.000000 0.000000
# 2 -0.010877 0.035018 0.020190 0.000000 0.000000 0.000000
# 3 -0.024796 0.020190 0.071904 0.000000 0.000000 0.000000
# 4 0.000000 0.000000 0.000000 0.062476 0.000000 0.000000
# 5 0.000000 0.000000 0.000000 0.000000 0.056091 0.000000
# 6 0.000000 0.000000 0.000000 0.000000 0.000000 -0.651752
#
#
# Mechanical properties :
#
#
# Convention : Reuss Voigt Hill
#
# Bulk Modulus (GPa) = 10.94482 39.89326 25.41904
# Shear Modulus (GPa) = -14.30904 17.10718 1.39907
#
# Velocity S-wave (km/s) = -2.77088 3.02972 0.86643
# Velocity P-wave (km/s) = 2.08912 5.80038 3.82623
#
# Compressibility (1/GPa) = 0.09136744
#
# Stress axis : x y z
#
# Youngs Moduli (GPa) = 64.88796 28.55682 13.90740
#
# Poissons Ratio (x) = 0.31062 0.34484
# Poissons Ratio (y) = 0.70580 -0.28079
# Poissons Ratio (z) = 1.60894 -0.57656
#
# Static dielectric constant tensor:
#      x y z
#    x 1.694170 0.000000 0.000000 
#    y 0.000000 1.648030 0.000000 
#    z 0.000000 0.000000 1.645100 
# 
# From -- ./inp_files/72970.got.cif
#   From: 2010.05.17/outbox.cif.g08.bks.cpg/sg74_37_cif.got.tgz:72970.got - 2010.06.03 17:57:02.
