data_PCOD9536255
_publ_section_title
;
Structure prediction by ZEFSAII (Michael W. Deem and Ramdas Pophale) SiO2 
 PCOD9536255
Probable space group: I M M A
;
_chemical_formula_sum "Si O2"
_cell_formula_units_Z 64
_cell_length_a 10.499140
_cell_length_b 12.493870
_cell_length_c 27.338041
_cell_angle_alpha 90.000000
_cell_angle_beta 90.000000
_cell_angle_gamma 90.000000
_cell_volume 3586.064528
_symmetry_space_group_name_H-M "I M M A"
_symmetry_group_IT_number 74
_symmetry_cell_setting 'orthorhombic'
loop_
_space_group_symop_operation_xyz
x,y,z
-x,1/2-y,z
x,-y,-z
-x,1/2+y,-z
-x,-y,-z
x,1/2+y,-z
-x,y,z
x,1/2-y,z
1/2+x,1/2+y,1/2+z
1/2-x,-y,1/2+z
1/2+x,1/2-y,1/2-z
1/2-x,y,1/2-z
1/2-x,1/2-y,1/2-z
1/2+x,y,1/2-z
1/2-x,1/2+y,1/2+z
1/2+x,-y,1/2+z
loop_
_atom_site_type_symbol
_atom_site_label
_atom_site_fract_x
_atom_site_fract_y
_atom_site_fract_z
Si Si1 0.000000 0.621344 0.791283
Si Si2 0.000000 0.566086 0.680041
Si Si3 0.229814 0.127658 0.136791
Si Si4 0.000000 0.128788 0.609499
Si Si5 0.000000 0.871801 0.020680
Si Si6 0.255093 0.453944 0.946214
O O1 0.124994 0.595075 0.822995
O O2 0.000000 0.750000 0.783077
O O3 0.000000 0.568232 0.738355
O O4 0.870907 0.620182 0.659883
O O5 0.000000 0.449468 0.655790
O O6 0.202912 0.250000 0.122903
O O7 0.222368 0.052135 0.089830
O O8 0.876471 0.103314 0.576943
O O9 0.000000 0.250000 0.625423
O O10 0.132512 0.878165 0.049430
O O11 0.000000 0.750000 0.996080
O O12 0.000000 0.000000 0.000000
O O13 0.285473 0.500000 0.000000
#
# Coordination Sequence:
#
# PCOD9536255 Si02
#       6
#     8   8  16   8   8  16
#     4  10  19  33  55  80 107 138 170 216 279 336
#     4  10  20  34  54  78 107 139 176 224 279 332
#     4  10  20  33  53  83 112 140 177 220 271 333
#     4  10  21  37  55  76 105 143 188 228 268 323
#     4  10  21  36  55  78 106 144 188 228 271 319
#     4  10  21  36  55  81 112 147 183 222 270 321
#
# _framework density 17.846862999999999
#
# number of rings (size 3 to 8) (size 9 to 14) (size 15 to 20)
#    0.000    2.000    0.000    3.750    0.000    7.000 
#    0.000    1.250    0.000   15.000    0.000    0.000 
#    0.000    0.000    0.000    0.000    0.000    0.000 
#
# Total GULP energy -178332.997906 kJ/mol
# GULP energy per Si atom -5572.906185 kJ/mol
# Density = 1.780624 g / cm^3
# Si number density = 17.846863 Si / 1000 Ang^3
#
#
#
# Elastic Constant Matrix: (Units=GPa)
#
#
# Indices 1 2 3 4 5 6 
#
# 1 106.9826 35.2945 38.8015 0.0000 0.0000 0.0000
# 2 35.2945 106.6170 46.6007 0.0000 0.0000 0.0000
# 3 38.8015 46.6007 117.7460 0.0000 0.0000 0.0000
# 4 0.0000 0.0000 0.0000 4.8828 0.0000 0.0000
# 5 0.0000 0.0000 0.0000 0.0000 18.7281 0.0000
# 6 0.0000 0.0000 0.0000 0.0000 0.0000 2.2379
#
#
#
# Elastic Compliance Matrix: (Units=1/GPa)
#
#
# Indices 1 2 3 4 5 6 
#
# 1 0.011150 -0.002521 -0.002676 0.000000 0.000000 0.000000
# 2 -0.002521 0.011911 -0.003883 0.000000 0.000000 0.000000
# 3 -0.002676 -0.003883 0.010912 0.000000 0.000000 0.000000
# 4 0.000000 0.000000 0.000000 0.204803 0.000000 0.000000
# 5 0.000000 0.000000 0.000000 0.000000 0.053396 0.000000
# 6 0.000000 0.000000 0.000000 0.000000 0.000000 0.446849
#
#
# Mechanical properties :
#
#
# Convention : Reuss Voigt Hill
#
# Bulk Modulus (GPa) = 63.24746 63.63768 63.44257
# Shear Modulus (GPa) = 6.55779 19.21302 12.88540
#
# Velocity S-wave (km/s) = 1.91897 3.28464 2.68992
# Velocity P-wave (km/s) = 6.35813 7.07956 6.72852
#
# Compressibility (1/GPa) = 0.01581091
#
# Stress axis : x y z
#
# Youngs Moduli (GPa) = 89.68781 83.95358 91.64417
#
# Poissons Ratio (x) = 0.21166 0.24528
# Poissons Ratio (y) = 0.22612 0.35589
# Poissons Ratio (z) = 0.24004 0.32602
#
# Static dielectric constant tensor:
#      x y z
#    x 1.625770 0.000000 0.000000 
#    y 0.000000 1.629950 0.000000 
#    z 0.000000 0.000000 1.579320 
# 
# From -- ./inp_files/58285.got.cif
#   From: 2010.05.17/outbox.cif.g08.bks.cpg/sg74_30_cif.got.tgz:58285.got - 2010.06.03 17:57:02.
