data_PCOD9536408
_publ_section_title
;
Structure prediction by ZEFSAII (Michael W. Deem and Ramdas Pophale) SiO2 
 PCOD9536408
Probable space group: I M M A
;
_chemical_formula_sum "Si O2"
_cell_formula_units_Z 64
_cell_length_a 8.260985
_cell_length_b 13.744005
_cell_length_c 28.746804
_cell_angle_alpha 90.000000
_cell_angle_beta 90.000000
_cell_angle_gamma 90.000000
_cell_volume 3263.883930
_symmetry_space_group_name_H-M "I M M A"
_symmetry_group_IT_number 74
_symmetry_cell_setting 'orthorhombic'
loop_
_space_group_symop_operation_xyz
x,y,z
-x,1/2-y,z
x,-y,-z
-x,1/2+y,-z
-x,-y,-z
x,1/2+y,-z
-x,y,z
x,1/2-y,z
1/2+x,1/2+y,1/2+z
1/2-x,-y,1/2+z
1/2+x,1/2-y,1/2-z
1/2-x,y,1/2-z
1/2-x,1/2-y,1/2-z
1/2+x,y,1/2-z
1/2-x,1/2+y,1/2+z
1/2+x,-y,1/2+z
loop_
_atom_site_type_symbol
_atom_site_label
_atom_site_fract_x
_atom_site_fract_y
_atom_site_fract_z
Si Si1 0.800245 0.750000 0.999517
Si Si2 0.188015 0.958196 0.636712
Si Si3 0.315810 0.442165 0.547783
Si Si4 0.804008 0.358320 0.696507
Si Si5 0.191930 0.250000 0.108737
O O1 0.746112 0.750000 0.945415
O O2 0.000000 0.750000 0.998289
O O3 0.747474 0.841005 0.030045
O O4 0.260076 0.849590 0.634798
O O5 0.000000 0.947141 0.648134
O O6 0.212434 0.001156 0.585182
O O7 0.255467 0.045284 0.669441
O O8 0.328790 0.500000 0.500000
O O9 0.500000 0.431222 0.566473
O O10 0.751485 0.250000 0.678825
O O11 0.750000 0.364257 0.750000
O O12 0.000000 0.359094 0.694042
O O13 0.000000 0.250000 0.104564
#
# Coordination Sequence:
#
# PCOD9536408 Si02
#       5
#     8  16  16  16   8
#     4   9  18  33  51  74 107 148 195 242 273 308
#     4  11  23  37  56  86 119 148 185 236 292 342
#     4  10  19  34  54  77 110 153 198 235 271 323
#     4   9  20  40  63  86 115 146 180 229 286 342
#     4  11  21  39  60  78 111 156 199 236 274 330
#
# _framework density 19.608540000000001
#
# number of rings (size 3 to 8) (size 9 to 14) (size 15 to 20)
#    0.000    2.000    2.500    1.125    1.750    2.500 
#    0.000    0.625    0.000    0.000    0.000    0.000 
#    0.000    0.000    0.000    0.000    0.000    0.000 
#
# Total GULP energy -178304.548719 kJ/mol
# GULP energy per Si atom -5572.017147 kJ/mol
# Density = 1.956391 g / cm^3
# Si number density = 19.608540 Si / 1000 Ang^3
#
#
#
# Elastic Constant Matrix: (Units=GPa)
#
#
# Indices 1 2 3 4 5 6 
#
# 1 13.1856 22.0872 0.8795 0.0000 0.0000 0.0000
# 2 22.0872 217.7357 55.6093 0.0000 0.0000 0.0000
# 3 0.8795 55.6093 55.1536 0.0000 0.0000 0.0000
# 4 0.0000 0.0000 0.0000 30.4767 0.0000 0.0000
# 5 0.0000 0.0000 0.0000 0.0000 -80.0604 0.0000
# 6 0.0000 0.0000 0.0000 0.0000 0.0000 13.7079
#
#
#
# Elastic Compliance Matrix: (Units=1/GPa)
#
#
# Indices 1 2 3 4 5 6 
#
# 1 0.096233 -0.012620 0.011189 0.000000 0.000000 0.000000
# 2 -0.012620 0.007840 -0.007704 0.000000 0.000000 0.000000
# 3 0.011189 -0.007704 0.025720 0.000000 0.000000 0.000000
# 4 0.000000 0.000000 0.000000 0.032812 0.000000 0.000000
# 5 0.000000 0.000000 0.000000 0.000000 -0.012491 0.000000
# 6 0.000000 0.000000 0.000000 0.000000 0.000000 0.072950
#
#
# Mechanical properties :
#
#
# Convention : Reuss Voigt Hill
#
# Bulk Modulus (GPa) = 8.96656 49.24744 29.10700
# Shear Modulus (GPa) = 17.95270 6.65812 12.30541
#
# Velocity S-wave (km/s) = 3.02910 1.84469 2.50782
# Velocity P-wave (km/s) = 4.10081 5.45041 4.82305
#
# Compressibility (1/GPa) = 0.11152550
#
# Stress axis : x y z
#
# Youngs Moduli (GPa) = 10.39142 127.54358 38.87965
#
# Poissons Ratio (x) = 1.60956 -0.43504
# Poissons Ratio (y) = 0.13114 0.29953
# Poissons Ratio (z) = -0.11627 0.98260
#
# Static dielectric constant tensor:
#      x y z
#    x 1.717270 0.000000 0.000000 
#    y 0.000000 1.687440 0.000000 
#    z 0.000000 0.000000 1.752730 
# 
# From -- ./inp_files/69802.got.cif
#   From: 2010.05.17/outbox.cif.g08.bks.cpg/sg74_35_cif.got.tgz:69802.got - 2010.06.03 17:57:02.
