data_PCOD9536744
_publ_section_title
;
Structure prediction by ZEFSAII (Michael W. Deem and Ramdas Pophale) SiO2 
 PCOD9536744
Probable space group: I M M A
;
_chemical_formula_sum "Si O2"
_cell_formula_units_Z 88
_cell_length_a 7.816163
_cell_length_b 18.609532
_cell_length_c 29.963322
_cell_angle_alpha 90.000000
_cell_angle_beta 90.000000
_cell_angle_gamma 90.000000
_cell_volume 4358.319061
_symmetry_space_group_name_H-M "I M M A"
_symmetry_group_IT_number 74
_symmetry_cell_setting 'orthorhombic'
loop_
_space_group_symop_operation_xyz
x,y,z
-x,1/2-y,z
x,-y,-z
-x,1/2+y,-z
-x,-y,-z
x,1/2+y,-z
-x,y,z
x,1/2-y,z
1/2+x,1/2+y,1/2+z
1/2-x,-y,1/2+z
1/2+x,1/2-y,1/2-z
1/2-x,y,1/2-z
1/2-x,1/2-y,1/2-z
1/2+x,y,1/2-z
1/2-x,1/2+y,1/2+z
1/2+x,-y,1/2+z
loop_
_atom_site_type_symbol
_atom_site_label
_atom_site_fract_x
_atom_site_fract_y
_atom_site_fract_z
Si Si1 0.706517 0.094903 0.455738
Si Si2 0.293655 0.750000 0.301510
Si Si3 0.791291 0.572622 0.053046
Si Si4 0.203653 0.330343 0.364812
Si Si5 0.295988 0.541417 0.802085
Si Si6 0.205406 0.892255 0.150223
O O1 0.500000 0.098398 0.454743
O O2 0.763732 0.109235 0.506669
O O3 0.770621 0.144054 0.415740
O O4 0.755807 0.011743 0.447183
O O5 0.500000 0.750000 0.305649
O O6 0.250000 0.750000 0.250000
O O7 0.227660 0.822678 0.324213
O O8 0.729418 0.604600 0.099485
O O9 0.000000 0.574300 0.052691
O O10 0.274137 0.250000 0.357974
O O11 0.273418 0.391790 0.331516
O O12 0.000000 0.326863 0.357092
O O13 0.500000 0.542993 0.805280
O O14 0.250000 0.546090 0.750000
O O15 0.239851 0.466165 0.823809
O O16 0.000000 0.885913 0.147552
#
# Coordination Sequence:
#
# PCOD9536744 Si02
#       6
#    16   8  16  16  16  16
#     4   9  16  31  55  83 108 139 179 219 264 317
#     4  10  22  36  54  78 106 144 180 218 271 320
#     4   8  15  29  54  83 111 137 171 220 266 309
#     4  10  22  39  55  76 112 149 181 225 277 327
#     4  11  23  38  58  82 105 138 182 227 277 330
#     4  10  19  36  58  81 111 144 179 221 270 324
#
# _framework density 20.191269999999999
#
# number of rings (size 3 to 8) (size 9 to 14) (size 15 to 20)
#    0.000    2.364    1.818    2.182    0.000    3.636 
#    1.636    2.727    0.000    0.000    0.000    0.000 
#    0.000    0.000    0.000    0.000    0.000    0.000 
#
# Total GULP energy -245528.614959 kJ/mol
# GULP energy per Si atom -5580.195795 kJ/mol
# Density = 2.014531 g / cm^3
# Si number density = 20.191270 Si / 1000 Ang^3
#
#
#
# Elastic Constant Matrix: (Units=GPa)
#
#
# Indices 1 2 3 4 5 6 
#
# 1 23.9701 6.2138 -0.4184 0.0000 0.0000 0.0000
# 2 6.2138 160.4345 109.5781 0.0000 0.0000 0.0000
# 3 -0.4184 109.5781 202.7562 0.0000 0.0000 0.0000
# 4 0.0000 0.0000 0.0000 24.1875 0.0000 0.0000
# 5 0.0000 0.0000 0.0000 0.0000 23.3453 0.0000
# 6 0.0000 0.0000 0.0000 0.0000 0.0000 17.0820
#
#
#
# Elastic Compliance Matrix: (Units=1/GPa)
#
#
# Indices 1 2 3 4 5 6 
#
# 1 0.042446 -0.002701 0.001547 0.000000 0.000000 0.000000
# 2 -0.002701 0.010052 -0.005438 0.000000 0.000000 0.000000
# 3 0.001547 -0.005438 0.007874 0.000000 0.000000 0.000000
# 4 0.000000 0.000000 0.000000 0.041344 0.000000 0.000000
# 5 0.000000 0.000000 0.000000 0.000000 0.042835 0.000000
# 6 0.000000 0.000000 0.000000 0.000000 0.000000 0.058541
#
#
# Mechanical properties :
#
#
# Convention : Reuss Voigt Hill
#
# Bulk Modulus (GPa) = 21.19152 68.65645 44.92398
# Shear Modulus (GPa) = 21.55129 31.04211 26.29670
#
# Velocity S-wave (km/s) = 3.27059 3.92523 3.61277
# Velocity P-wave (km/s) = 4.97800 7.39054 6.30082
#
# Compressibility (1/GPa) = 0.04718870
#
# Stress axis : x y z
#
# Youngs Moduli (GPa) = 23.55946 99.48358 126.99736
#
# Poissons Ratio (x) = 0.26868 -0.19649
# Poissons Ratio (y) = 0.06363 0.69062
# Poissons Ratio (z) = -0.03645 0.54100
#
# Static dielectric constant tensor:
#      x y z
#    x 1.750350 0.000000 0.000000 
#    y 0.000000 1.705350 0.000000 
#    z 0.000000 0.000000 1.701920 
# 
# From -- ./inp_files/70202.got.cif
#   From: 2010.05.17/outbox.cif.g08.bks.cpg/sg74_36_cif.got.tgz:70202.got - 2010.06.03 17:57:02.
