data_PCOD9536692
_publ_section_title
;
Structure prediction by ZEFSAII (Michael W. Deem and Ramdas Pophale) SiO2 
 PCOD9536692
Probable space group: I M M A
;
_chemical_formula_sum "Si O2"
_cell_formula_units_Z 116
_cell_length_a 7.594743
_cell_length_b 23.745355
_cell_length_c 27.758601
_cell_angle_alpha 90.000000
_cell_angle_beta 90.000000
_cell_angle_gamma 90.000000
_cell_volume 5005.982459
_symmetry_space_group_name_H-M "I M M A"
_symmetry_group_IT_number 74
_symmetry_cell_setting 'orthorhombic'
loop_
_space_group_symop_operation_xyz
x,y,z
-x,1/2-y,z
x,-y,-z
-x,1/2+y,-z
-x,-y,-z
x,1/2+y,-z
-x,y,z
x,1/2-y,z
1/2+x,1/2+y,1/2+z
1/2-x,-y,1/2+z
1/2+x,1/2-y,1/2-z
1/2-x,y,1/2-z
1/2-x,1/2-y,1/2-z
1/2+x,y,1/2-z
1/2-x,1/2+y,1/2+z
1/2+x,-y,1/2+z
loop_
_atom_site_type_symbol
_atom_site_label
_atom_site_fract_x
_atom_site_fract_y
_atom_site_fract_z
Si Si1 0.500000 0.750000 0.677973
Si Si2 0.715354 0.688291 0.535791
Si Si3 0.702048 0.846669 0.804814
Si Si4 0.796976 0.656356 0.069199
Si Si5 0.709723 0.089089 0.395430
Si Si6 0.790787 0.465519 0.594944
Si Si7 0.210562 0.931865 0.301018
Si Si8 0.704059 0.311092 0.824385
O O1 0.344192 0.700521 0.679596
O O2 0.500000 0.686095 0.535163
O O3 0.765173 0.750000 0.553774
O O4 0.774325 0.679756 0.480865
O O5 0.776276 0.638886 0.570188
O O6 0.500000 0.825373 0.804605
O O7 0.750000 0.862844 0.750000
O O8 0.714315 0.898194 0.842552
O O9 0.788256 0.588298 0.068094
O O10 0.707635 0.677836 0.117977
O O11 0.000000 0.673909 0.073380
O O12 0.500000 0.093065 0.391533
O O13 0.751960 0.029098 0.419116
O O14 0.726125 0.461098 0.650444
O O15 0.000000 0.457020 0.593236
O O16 0.250000 0.959032 0.250000
O O17 0.284407 0.867821 0.302409
O O18 0.000000 0.928333 0.305318
O O19 0.500000 0.308982 0.809492
O O20 0.783937 0.250000 0.813605
#
# Coordination Sequence:
#
# PCOD9536692 Si02
#       8
#     4  16  16  16  16  16  16  16
#     4  12  24  44  66  98 128 172 218 262 320 370
#     4   9  20  37  60  89 125 158 189 238 306 371
#     4  12  25  42  66  97 129 170 217 261 316 382
#     4  10  19  35  60  89 113 150 202 247 294 353
#     4  11  23  41  64  91 123 160 204 255 315 370
#     4  10  22  41  60  81 115 157 199 251 304 366
#     4   9  19  34  53  78 107 145 190 237 296 350
#     4   9  18  33  52  77 115 156 187 229 289 354
#
# _framework density 23.172274000000002
#
# number of rings (size 3 to 8) (size 9 to 14) (size 15 to 20)
#    0.000    1.931    1.379    2.897    0.966    4.966 
#    0.000    6.897    0.000    3.310    0.000    0.000 
#    0.000    0.000    0.000    0.000    0.000    0.000 
#
# Total GULP energy -323572.155364 kJ/mol
# GULP energy per Si atom -5578.830265 kJ/mol
# Density = 2.311953 g / cm^3
# Si number density = 23.172274 Si / 1000 Ang^3
#
#
#
# Elastic Constant Matrix: (Units=GPa)
#
#
# Indices 1 2 3 4 5 6 
#
# 1 105.0262 -7.7056 -2.4451 0.0000 0.0000 0.0000
# 2 -7.7056 102.2693 9.0128 0.0000 0.0000 0.0000
# 3 -2.4451 9.0128 35.2518 0.0000 0.0000 0.0000
# 4 0.0000 0.0000 0.0000 -19.7957 0.0000 0.0000
# 5 0.0000 0.0000 0.0000 0.0000 11.4110 0.0000
# 6 0.0000 0.0000 0.0000 0.0000 0.0000 -13.0871
#
#
#
# Elastic Compliance Matrix: (Units=1/GPa)
#
#
# Indices 1 2 3 4 5 6 
#
# 1 0.009583 0.000679 0.000491 0.000000 0.000000 0.000000
# 2 0.000679 0.010052 -0.002523 0.000000 0.000000 0.000000
# 3 0.000491 -0.002523 0.029046 0.000000 0.000000 0.000000
# 4 0.000000 0.000000 0.000000 -0.050516 0.000000 0.000000
# 5 0.000000 0.000000 0.000000 0.000000 0.087635 0.000000
# 6 0.000000 0.000000 0.000000 0.000000 0.000000 -0.076411
#
#
# Mechanical properties :
#
#
# Convention : Reuss Voigt Hill
#
# Bulk Modulus (GPa) = 21.75103 26.69681 24.22392
# Shear Modulus (GPa) = 182.35487 11.95132 97.15310
#
# Velocity S-wave (km/s) = 8.88066 2.27350 6.48209
# Velocity P-wave (km/s) = 10.70336 4.29392 8.15474
#
# Compressibility (1/GPa) = 0.04597483
#
# Stress axis : x y z
#
# Youngs Moduli (GPa) = 104.35508 99.48691 34.42764
#
# Poissons Ratio (x) = -0.06753 -0.01691
# Poissons Ratio (y) = -0.07083 0.08685
# Poissons Ratio (z) = -0.05125 0.25098
#
# Static dielectric constant tensor:
#      x y z
#    x 1.886360 0.000000 0.000000 
#    y 0.000000 1.883560 0.000000 
#    z 0.000000 0.000000 1.872150 
# 
# From -- ./inp_files/64861.got.cif
#   From: 2010.05.17/outbox.cif.g08.bks.cpg/sg74_33_cif.got.tgz:64861.got - 2010.06.03 17:57:02.
