data_PCOD9536086
_publ_section_title
;
Structure prediction by ZEFSAII (Michael W. Deem and Ramdas Pophale) SiO2 
 PCOD9536086
Probable space group: I M M A
;
_chemical_formula_sum "Si O2"
_cell_formula_units_Z 44
_cell_length_a 7.268477
_cell_length_b 32.298438
_cell_length_c 7.012997
_cell_angle_alpha 90.000000
_cell_angle_beta 90.000000
_cell_angle_gamma 90.000000
_cell_volume 1646.374358
_symmetry_space_group_name_H-M "I M M A"
_symmetry_group_IT_number 74
_symmetry_cell_setting 'orthorhombic'
loop_
_space_group_symop_operation_xyz
x,y,z
-x,1/2-y,z
x,-y,-z
-x,1/2+y,-z
-x,-y,-z
x,1/2+y,-z
-x,y,z
x,1/2-y,z
1/2+x,1/2+y,1/2+z
1/2-x,-y,1/2+z
1/2+x,1/2-y,1/2-z
1/2-x,y,1/2-z
1/2-x,1/2-y,1/2-z
1/2+x,y,1/2-z
1/2-x,1/2+y,1/2+z
1/2+x,-y,1/2+z
loop_
_atom_site_type_symbol
_atom_site_label
_atom_site_fract_x
_atom_site_fract_y
_atom_site_fract_z
Si Si1 0.500000 0.000000 0.500000
Si Si2 0.719479 0.250000 0.978652
Si Si3 0.281898 0.070593 0.980038
Si Si4 0.781487 0.661305 0.477910
O O1 0.340464 0.033931 0.443216
O O2 0.500000 0.250000 0.010172
O O3 0.750000 0.250000 0.750000
O O4 0.793620 0.294409 0.047344
O O5 0.500000 0.065950 0.011190
O O6 0.250000 0.068648 0.750000
O O7 0.215690 0.116361 0.042973
O O8 0.750000 0.661364 0.250000
O O9 0.000000 0.661373 0.510252
#
# Coordination Sequence:
#
# PCOD9536086 Si02
#       4
#     4   8  16  16
#     4  12  22  32  52  66  88 128 166 204 240 282
#     4   8  12  20  32  54  80 112 146 171 208 259
#     4  10  19  33  48  68  93 124 162 199 238 278
#     4   8  14  22  37  56  83 115 147 181 215 266
#
# _framework density 26.725390999999998
#
# number of rings (size 3 to 8) (size 9 to 14) (size 15 to 20)
#    0.000    2.909    1.818    0.545    2.545    0.000 
#    0.000    0.000    0.000    0.000    0.000    0.000 
#    0.000    0.000    0.000    6.545    0.000    5.818 
#
# Total GULP energy -122479.634819 kJ/mol
# GULP energy per Si atom -5567.256128 kJ/mol
# Density = 2.666456 g / cm^3
# Si number density = 26.725391 Si / 1000 Ang^3
#
#
#
# Elastic Constant Matrix: (Units=GPa)
#
#
# Indices 1 2 3 4 5 6 
#
# 1 203.8152 115.1183 -4.8161 -0.0011 0.0000 0.0080
# 2 115.1183 338.3002 -0.4726 -0.0054 -0.0006 -0.0344
# 3 -4.8161 -0.4726 126.2991 -0.0078 0.0000 -0.0355
# 4 -0.0011 -0.0054 -0.0078 -26.0047 -0.0010 0.0135
# 5 0.0000 -0.0006 0.0000 -0.0010 6.1318 -0.0220
# 6 0.0080 -0.0344 -0.0355 0.0135 -0.0220-1261.6367
#
#
#
# Elastic Compliance Matrix: (Units=1/GPa)
#
#
# Indices 1 2 3 4 5 6 
#
# 1 0.006080 -0.002069 0.000224 0.000000 0.000000 0.000000
# 2 -0.002069 0.003660 -0.000065 -0.000001 0.000000 0.000000
# 3 0.000224 -0.000065 0.007926 -0.000002 0.000000 0.000000
# 4 0.000000 -0.000001 -0.000002 -0.038455 -0.000006 0.000000
# 5 0.000000 0.000000 0.000000 -0.000006 0.163084 -0.000003
# 6 0.000000 0.000000 0.000000 0.000000 -0.000003 -0.000793
#
#
# Mechanical properties :
#
#
# Convention : Reuss Voigt Hill
#
# Bulk Modulus (GPa) = 72.22066 98.67487 85.44777
# Shear Modulus (GPa) = 33.34718 -219.06295 -92.85789
#
# Velocity S-wave (km/s) = 3.53621 -9.06345 -5.90090
# Velocity P-wave (km/s) = 6.61475 8.51623 3.79283
#
# Compressibility (1/GPa) = 0.01384645
#
# Stress axis : x y z
#
# Youngs Moduli (GPa) = 164.47064 273.23930 126.16677
#
# Poissons Ratio (x) = 0.56524 -0.02828
# Poissons Ratio (y) = 0.34023 0.00822
# Poissons Ratio (z) = -0.03686 0.01781
#
# Static dielectric constant tensor:
#      x y z
#    x 1.930470 0.000000 -0.000040 
#    y 0.000000 2.118520 -0.000030 
#    z -0.000040 -0.000030 3.309330 
# 
# From -- ./inp_files/6081.got.cif
#   From: 2010.05.17/outbox.cif.g08.bks.cpg/sg74_4_cif.got.tgz:6081.got - 2010.06.03 17:57:02.
