data_PCOD9536268
_publ_section_title
;
Structure prediction by ZEFSAII (Michael W. Deem and Ramdas Pophale) SiO2 
 PCOD9536268
Probable space group: I M M A
;
_chemical_formula_sum "Si O2"
_cell_formula_units_Z 120
_cell_length_a 25.439633
_cell_length_b 9.221064
_cell_length_c 28.177831
_cell_angle_alpha 90.000000
_cell_angle_beta 90.000000
_cell_angle_gamma 90.000000
_cell_volume 6609.969235
_symmetry_space_group_name_H-M "I M M A"
_symmetry_group_IT_number 74
_symmetry_cell_setting 'orthorhombic'
loop_
_space_group_symop_operation_xyz
x,y,z
-x,1/2-y,z
x,-y,-z
-x,1/2+y,-z
-x,-y,-z
x,1/2+y,-z
-x,y,z
x,1/2-y,z
1/2+x,1/2+y,1/2+z
1/2-x,-y,1/2+z
1/2+x,1/2-y,1/2-z
1/2-x,y,1/2-z
1/2-x,1/2-y,1/2-z
1/2+x,y,1/2-z
1/2-x,1/2+y,1/2+z
1/2+x,-y,1/2+z
loop_
_atom_site_type_symbol
_atom_site_label
_atom_site_fract_x
_atom_site_fract_y
_atom_site_fract_z
Si Si1 0.439452 0.579593 0.141054
Si Si2 0.500000 0.075614 0.550780
Si Si3 0.154348 0.921500 0.291469
Si Si4 0.216422 0.576686 0.050733
Si Si5 0.606733 0.577748 0.394535
Si Si6 0.766739 0.581763 0.637593
Si Si7 0.845061 0.917011 0.808262
Si Si8 0.935778 0.583581 0.546943
O O1 0.500000 0.539128 0.149843
O O2 0.438072 0.750000 0.128291
O O3 0.403767 0.559567 0.186855
O O4 0.418999 0.491201 0.095762
O O5 0.500000 0.250000 0.544578
O O6 0.447171 0.036970 0.579427
O O7 0.500000 0.000000 0.500000
O O8 0.166234 0.750000 0.288866
O O9 0.192287 0.999495 0.329027
O O10 0.158277 0.994302 0.240287
O O11 0.224840 0.750000 0.047593
O O12 0.157270 0.553018 0.071448
O O13 0.255444 0.503332 0.088850
O O14 0.221203 0.500000 0.000000
O O15 0.605416 0.750000 0.384140
O O16 0.616187 0.490609 0.346196
O O17 0.781438 0.750000 0.629311
O O18 0.711801 0.581127 0.666451
O O19 0.859191 0.750000 0.798821
O O20 0.917844 0.500000 0.500000
O O21 0.919628 0.750000 0.545248
O O22 0.000000 0.578424 0.546845
#
# Coordination Sequence:
#
# PCOD9536268 Si02
#       8
#    16   8  16  16  16  16  16  16
#     4   9  19  36  54  74 103 137 173 210 253 311
#     4  10  20  34  54  82 116 154 194 236 281 328
#     4  11  22  36  57  82 107 139 178 222 273 326
#     4  10  19  33  55  82 113 148 185 224 274 332
#     4   9  19  35  54  79 111 149 191 233 275 327
#     4  10  21  37  57  81 109 140 177 224 274 325
#     4  10  21  37  57  80 107 140 180 226 277 327
#     4   9  16  27  47  73  98 127 163 204 248 293
#
# _framework density 18.154395999999998
#
# number of rings (size 3 to 8) (size 9 to 14) (size 15 to 20)
#    0.000    2.267    0.000    2.800    0.000    6.933 
#    1.200    0.667    0.000    3.200    0.000    0.000 
#    0.000    0.000    0.000    0.000    0.000    0.000 
#
# Total GULP energy -334934.071359 kJ/mol
# GULP energy per Si atom -5582.234523 kJ/mol
# Density = 1.811308 g / cm^3
# Si number density = 18.154396 Si / 1000 Ang^3
#
#
#
# Elastic Constant Matrix: (Units=GPa)
#
#
# Indices 1 2 3 4 5 6 
#
# 1 55.6376 45.2714 47.4826 0.0000 0.0000 0.0000
# 2 45.2714 119.7162 95.5716 0.0000 0.0000 0.0000
# 3 47.4826 95.5716 152.4092 0.0000 0.0000 0.0000
# 4 0.0000 0.0000 0.0000 40.3063 0.0000 0.0000
# 5 0.0000 0.0000 0.0000 0.0000 15.9213 0.0000
# 6 0.0000 0.0000 0.0000 0.0000 0.0000 19.0164
#
#
#
# Elastic Compliance Matrix: (Units=1/GPa)
#
#
# Indices 1 2 3 4 5 6 
#
# 1 0.027153 -0.007038 -0.004046 0.000000 0.000000 0.000000
# 2 -0.007038 0.018551 -0.009440 0.000000 0.000000 0.000000
# 3 -0.004046 -0.009440 0.013741 0.000000 0.000000 0.000000
# 4 0.000000 0.000000 0.000000 0.024810 0.000000 0.000000
# 5 0.000000 0.000000 0.000000 0.000000 0.062809 0.000000
# 6 0.000000 0.000000 0.000000 0.000000 0.000000 0.052586
#
#
# Mechanical properties :
#
#
# Convention : Reuss Voigt Hill
#
# Bulk Modulus (GPa) = 54.35654 78.26824 66.31239
# Shear Modulus (GPa) = 20.25677 24.34462 22.30070
#
# Velocity S-wave (km/s) = 3.34399 3.66591 3.50864
# Velocity P-wave (km/s) = 6.70194 7.81823 7.28150
#
# Compressibility (1/GPa) = 0.01839705
#
# Stress axis : x y z
#
# Youngs Moduli (GPa) = 36.82790 53.90660 72.77313
#
# Poissons Ratio (x) = 0.37940 0.29445
# Poissons Ratio (y) = 0.25920 0.68697
# Poissons Ratio (z) = 0.14901 0.50887
#
# Static dielectric constant tensor:
#      x y z
#    x 1.627050 0.000000 0.000000 
#    y 0.000000 1.612190 0.000000 
#    z 0.000000 0.000000 1.582750 
# 
# From -- ./inp_files/69019.got.cif
#   From: 2010.05.17/outbox.cif.g08.bks.cpg/sg74_35_cif.got.tgz:69019.got - 2010.06.03 17:57:02.
