data_PCOD9536151
_publ_section_title
;
Structure prediction by ZEFSAII (Michael W. Deem and Ramdas Pophale) SiO2 
 PCOD9536151
Probable space group: I M M A
;
_chemical_formula_sum "Si O2"
_cell_formula_units_Z 72
_cell_length_a 22.380819
_cell_length_b 17.948278
_cell_length_c 10.896023
_cell_angle_alpha 90.000000
_cell_angle_beta 90.000000
_cell_angle_gamma 90.000000
_cell_volume 4376.901508
_symmetry_space_group_name_H-M "I M M A"
_symmetry_group_IT_number 74
_symmetry_cell_setting 'orthorhombic'
loop_
_space_group_symop_operation_xyz
x,y,z
-x,1/2-y,z
x,-y,-z
-x,1/2+y,-z
-x,-y,-z
x,1/2+y,-z
-x,y,z
x,1/2-y,z
1/2+x,1/2+y,1/2+z
1/2-x,-y,1/2+z
1/2+x,1/2-y,1/2-z
1/2-x,y,1/2-z
1/2-x,1/2-y,1/2-z
1/2+x,y,1/2-z
1/2-x,1/2+y,1/2+z
1/2+x,-y,1/2+z
loop_
_atom_site_type_symbol
_atom_site_label
_atom_site_fract_x
_atom_site_fract_y
_atom_site_fract_z
Si Si1 0.801821 0.000000 0.500000
Si Si2 0.000000 0.008259 0.798939
Si Si3 0.630574 0.331790 0.426576
Si Si4 0.867930 0.473668 0.254674
Si Si5 0.000000 0.376292 0.000579
Si Si6 0.711380 0.606331 0.363248
O O1 0.839803 0.033690 0.388644
O O2 0.759764 0.063501 0.554857
O O3 0.000000 0.088123 0.865430
O O4 0.937545 0.994763 0.732153
O O5 0.000000 0.945958 0.905727
O O6 0.642077 0.250000 0.372015
O O7 0.638987 0.400415 0.331226
O O8 0.561824 0.335444 0.471875
O O9 0.672536 0.343657 0.545399
O O10 0.832999 0.542143 0.189598
O O11 0.750000 0.639717 0.250000
#
# Coordination Sequence:
#
# PCOD9536151 Si02
#       6
#     8   8  16  16   8  16
#     4  10  20  33  54  71 104 136 174 212 256 298
#     4   9  16  29  56  75 101 124 178 223 244 300
#     4  11  20  32  52  79 108 133 167 214 269 315
#     4  10  19  34  53  79 100 136 179 218 256 296
#     4   9  17  30  48  79 101 132 163 214 265 300
#     4  10  19  33  53  73 102 139 176 211 248 307
#
# _framework density 16.449992999999999
#
# number of rings (size 3 to 8) (size 9 to 14) (size 15 to 20)
#    0.000    2.000    4.444    0.333    0.000    0.889 
#    0.000    2.222    0.000    1.333    0.000    0.000 
#    0.000    0.000    0.000    0.000    0.000    0.000 
#
# Total GULP energy -200520.852501 kJ/mol
# GULP energy per Si atom -5570.023681 kJ/mol
# Density = 1.641255 g / cm^3
# Si number density = 16.449993 Si / 1000 Ang^3
#
#
#
# Elastic Constant Matrix: (Units=GPa)
#
#
# Indices 1 2 3 4 5 6 
#
# 1 120.8875 17.6059 50.2749 0.0000 0.0000 0.0000
# 2 17.6059 55.7159 13.0900 0.0000 0.0000 0.0000
# 3 50.2749 13.0900 72.9490 0.0000 0.0000 0.0000
# 4 0.0000 0.0000 0.0000 9.1114 0.0000 0.0000
# 5 0.0000 0.0000 0.0000 0.0000 69.8622 0.0000
# 6 0.0000 0.0000 0.0000 0.0000 0.0000 -19.4033
#
#
#
# Elastic Compliance Matrix: (Units=1/GPa)
#
#
# Indices 1 2 3 4 5 6 
#
# 1 0.011784 -0.001896 -0.007781 0.000000 0.000000 0.000000
# 2 -0.001896 0.019043 -0.002111 0.000000 0.000000 0.000000
# 3 -0.007781 -0.002111 0.019450 0.000000 0.000000 0.000000
# 4 0.000000 0.000000 0.000000 0.109752 0.000000 0.000000
# 5 0.000000 0.000000 0.000000 0.000000 0.014314 0.000000
# 6 0.000000 0.000000 0.000000 0.000000 0.000000 -0.051538
#
#
# Mechanical properties :
#
#
# Convention : Reuss Voigt Hill
#
# Bulk Modulus (GPa) = 37.45062 45.72152 41.58607
# Shear Modulus (GPa) = 32.19954 23.15282 27.67618
#
# Velocity S-wave (km/s) = 4.42907 3.75569 4.10621
# Velocity P-wave (km/s) = 6.99795 6.83093 6.91494
#
# Compressibility (1/GPa) = 0.02670183
#
# Stress axis : x y z
#
# Youngs Moduli (GPa) = 84.85822 52.51245 51.41461
#
# Poissons Ratio (x) = 0.09954 0.40008
# Poissons Ratio (y) = 0.16086 0.10852
# Poissons Ratio (z) = 0.66031 0.11084
#
# Static dielectric constant tensor:
#      x y z
#    x 1.567080 0.000000 0.000000 
#    y 0.000000 1.560110 0.000000 
#    z 0.000000 0.000000 1.543060 
# 
# From -- ./inp_files/22057.got.cif
#   From: 2010.05.17/outbox.cif.g08.bks.cpg/sg74_12_cif.got.tgz:22057.got - 2010.06.03 17:57:02.
