data_PCOD9536204
_publ_section_title
;
Structure prediction by ZEFSAII (Michael W. Deem and Ramdas Pophale) SiO2 
 PCOD9536204
Probable space group: I M M A
;
_chemical_formula_sum "Si O2"
_cell_formula_units_Z 112
_cell_length_a 28.255772
_cell_length_b 14.925620
_cell_length_c 14.196673
_cell_angle_alpha 90.000000
_cell_angle_beta 90.000000
_cell_angle_gamma 90.000000
_cell_volume 5987.232691
_symmetry_space_group_name_H-M "I M M A"
_symmetry_group_IT_number 74
_symmetry_cell_setting 'orthorhombic'
loop_
_space_group_symop_operation_xyz
x,y,z
-x,1/2-y,z
x,-y,-z
-x,1/2+y,-z
-x,-y,-z
x,1/2+y,-z
-x,y,z
x,1/2-y,z
1/2+x,1/2+y,1/2+z
1/2-x,-y,1/2+z
1/2+x,1/2-y,1/2-z
1/2-x,y,1/2-z
1/2-x,1/2-y,1/2-z
1/2+x,y,1/2-z
1/2-x,1/2+y,1/2+z
1/2+x,-y,1/2+z
loop_
_atom_site_type_symbol
_atom_site_label
_atom_site_fract_x
_atom_site_fract_y
_atom_site_fract_z
Si Si1 0.303498 0.357881 0.764299
Si Si2 0.621428 0.956575 0.358433
Si Si3 0.903052 0.149301 0.370038
Si Si4 0.945923 0.529688 0.323146
Si Si5 0.945933 0.853505 0.999870
Si Si6 0.875212 0.151390 0.156062
Si Si7 0.629496 0.356574 0.930761
O O1 0.302993 0.250000 0.762067
O O2 0.250000 0.389985 0.750000
O O3 0.337994 0.393089 0.682655
O O4 0.327212 0.386298 0.863959
O O5 0.582847 0.967863 0.274724
O O6 0.591360 0.911901 0.441688
O O7 0.644252 0.054888 0.375966
O O8 0.922047 0.250000 0.384878
O O9 0.877435 0.149920 0.268814
O O10 0.868460 0.127791 0.457447
O O11 0.941137 0.070802 0.363201
O O12 0.917131 0.594524 0.392391
O O13 0.000000 0.555866 0.310703
O O14 0.944162 0.750000 0.033551
O O15 0.927378 0.851825 0.892270
O O16 0.000000 0.884939 0.007064
O O17 0.855512 0.250000 0.127126
O O18 0.624813 0.250000 0.916788
#
# Coordination Sequence:
#
# PCOD9536204 Si02
#       7
#    16  16  16  16  16  16  16
#     4   9  18  34  57  84 108 129 164 218 274 327
#     4  10  19  33  54  76 102 134 170 215 271 322
#     4   9  18  32  48  67  96 134 174 211 245 285
#     4  10  20  31  45  70 103 136 170 207 248 301
#     4  10  20  33  51  77 108 142 179 218 264 320
#     4   9  19  33  49  70  99 136 175 213 249 295
#     4   9  18  32  50  73 101 133 167 207 257 306
#
# _framework density 18.706472000000002
#
# number of rings (size 3 to 8) (size 9 to 14) (size 15 to 20)
#    0.000    2.571    0.000    1.714    0.000    5.714 
#    0.000    4.286    0.000   10.714    0.000    8.000 
#    0.000    0.000    0.000    0.000    0.000    0.000 
#
# Total GULP energy -311758.514143 kJ/mol
# GULP energy per Si atom -5567.116324 kJ/mol
# Density = 1.866390 g / cm^3
# Si number density = 18.706472 Si / 1000 Ang^3
#
#
#
# Elastic Constant Matrix: (Units=GPa)
#
#
# Indices 1 2 3 4 5 6 
#
# 1 93.1716 17.9104 29.8446 0.0000 0.0000 0.0000
# 2 17.9104 47.4621 23.5277 0.0000 0.0000 0.0000
# 3 29.8446 23.5277 89.8703 0.0000 0.0000 0.0000
# 4 0.0000 0.0000 0.0000 25.1575 0.0000 0.0000
# 5 0.0000 0.0000 0.0000 0.0000 9.5456 0.0000
# 6 0.0000 0.0000 0.0000 0.0000 0.0000 14.6495
#
#
#
# Elastic Compliance Matrix: (Units=1/GPa)
#
#
# Indices 1 2 3 4 5 6 
#
# 1 0.012377 -0.003026 -0.003318 0.000000 0.000000 0.000000
# 2 -0.003026 0.024951 -0.005527 0.000000 0.000000 0.000000
# 3 -0.003318 -0.005527 0.013676 0.000000 0.000000 0.000000
# 4 0.000000 0.000000 0.000000 0.039750 0.000000 0.000000
# 5 0.000000 0.000000 0.000000 0.000000 0.104760 0.000000
# 6 0.000000 0.000000 0.000000 0.000000 0.000000 0.068262
#
#
# Mechanical properties :
#
#
# Convention : Reuss Voigt Hill
#
# Bulk Modulus (GPa) = 36.68105 41.45216 39.06660
# Shear Modulus (GPa) = 16.85736 20.48526 18.67131
#
# Velocity S-wave (km/s) = 3.00517 3.31280 3.16273
# Velocity P-wave (km/s) = 5.62963 6.06962 5.85376
#
# Compressibility (1/GPa) = 0.02726203
#
# Stress axis : x y z
#
# Youngs Moduli (GPa) = 80.79219 40.07807 73.12028
#
# Poissons Ratio (x) = 0.12127 0.24263
# Poissons Ratio (y) = 0.24447 0.40416
# Poissons Ratio (z) = 0.26808 0.22152
#
# Static dielectric constant tensor:
#      x y z
#    x 1.589660 0.000000 0.000000 
#    y 0.000000 1.717320 0.000000 
#    z 0.000000 0.000000 1.690440 
# 
# From -- ./inp_files/37399.got.cif
#   From: 2010.05.17/outbox.cif.g08.bks.cpg/sg74_19_cif.got.tgz:37399.got - 2010.06.03 17:57:02.
