data_PCOD9536171
_publ_section_title
;
Structure prediction by ZEFSAII (Michael W. Deem and Ramdas Pophale) SiO2 
 PCOD9536171
Probable space group: I M M A
;
_chemical_formula_sum "Si O2"
_cell_formula_units_Z 88
_cell_length_a 7.706569
_cell_length_b 25.097643
_cell_length_c 20.768227
_cell_angle_alpha 90.000000
_cell_angle_beta 90.000000
_cell_angle_gamma 90.000000
_cell_volume 4016.922295
_symmetry_space_group_name_H-M "I M M A"
_symmetry_group_IT_number 74
_symmetry_cell_setting 'orthorhombic'
loop_
_space_group_symop_operation_xyz
x,y,z
-x,1/2-y,z
x,-y,-z
-x,1/2+y,-z
-x,-y,-z
x,1/2+y,-z
-x,y,z
x,1/2-y,z
1/2+x,1/2+y,1/2+z
1/2-x,-y,1/2+z
1/2+x,1/2-y,1/2-z
1/2-x,y,1/2-z
1/2-x,1/2-y,1/2-z
1/2+x,y,1/2-z
1/2-x,1/2+y,1/2+z
1/2+x,-y,1/2+z
loop_
_atom_site_type_symbol
_atom_site_label
_atom_site_fract_x
_atom_site_fract_y
_atom_site_fract_z
Si Si1 0.198695 0.354149 0.593889
Si Si2 0.711964 0.472198 0.933451
Si Si3 0.794368 0.451584 0.317368
Si Si4 0.790380 0.250000 0.673227
Si Si5 0.693502 0.668681 0.679521
Si Si6 0.300670 0.687715 0.540615
O O1 0.276702 0.413772 0.588842
O O2 0.272275 0.304551 0.636566
O O3 0.201891 0.337164 0.519068
O O4 0.000000 0.360397 0.616622
O O5 0.500000 0.467696 0.938294
O O6 0.755071 0.513225 0.877348
O O7 0.770613 0.500000 0.000000
O O8 0.750000 0.479205 0.250000
O O9 0.699060 0.395172 0.317349
O O10 0.000000 0.440642 0.320115
O O11 0.750000 0.250000 0.750000
O O12 0.000000 0.250000 0.665958
O O13 0.500000 0.689207 0.671366
O O14 0.750000 0.687508 0.750000
O O15 0.782078 0.681357 0.611506
O O16 0.500000 0.666017 0.540652
O O17 0.310488 0.750000 0.527805
#
# Coordination Sequence:
#
# PCOD9536171 Si02
#       6
#    16  16  16   8  16  16
#     4  10  20  37  58  82 109 140 185 229 273 331
#     4   9  18  32  53  80 108 139 177 222 269 321
#     4  10  19  33  53  76 104 140 176 216 265 316
#     4  10  22  38  58  84 111 144 185 234 279 330
#     4  10  20  34  52  76 107 143 180 220 263 314
#     4  10  21  36  54  77 107 140 175 219 273 324
#
# _framework density 21.907319999999999
#
# number of rings (size 3 to 8) (size 9 to 14) (size 15 to 20)
#    0.000    2.182    0.909    3.273    0.000    4.727 
#    0.000    1.818    0.000    4.909    0.000    0.000 
#    0.000    0.000    0.000    0.000    0.000    0.000 
#
# Total GULP energy -245242.539172 kJ/mol
# GULP energy per Si atom -5573.694072 kJ/mol
# Density = 2.185746 g / cm^3
# Si number density = 21.907320 Si / 1000 Ang^3
#
#
#
# Elastic Constant Matrix: (Units=GPa)
#
#
# Indices 1 2 3 4 5 6 
#
# 1 41.4570 9.8697 5.7907 0.0000 0.0000 0.0000
# 2 9.8697 140.8122 60.6776 0.0000 0.0000 0.0000
# 3 5.7907 60.6776 139.1066 0.0000 -0.0001 0.0000
# 4 0.0000 0.0000 0.0000 34.2306 0.0000 0.0000
# 5 0.0000 0.0000 -0.0001 0.0000 -17.7373 0.0000
# 6 0.0000 0.0000 0.0000 0.0000 0.0000 -11.0011
#
#
#
# Elastic Compliance Matrix: (Units=1/GPa)
#
#
# Indices 1 2 3 4 5 6 
#
# 1 0.024543 -0.001576 -0.000334 0.000000 0.000000 0.000000
# 2 -0.001576 0.008847 -0.003793 0.000000 0.000000 0.000000
# 3 -0.000334 -0.003793 0.008857 0.000000 0.000000 0.000000
# 4 0.000000 0.000000 0.000000 0.029214 0.000000 0.000000
# 5 0.000000 0.000000 0.000000 0.000000 -0.056378 0.000000
# 6 0.000000 0.000000 0.000000 0.000000 0.000000 -0.090900
#
#
# Mechanical properties :
#
#
# Convention : Reuss Voigt Hill
#
# Bulk Modulus (GPa) = 32.42551 52.67244 42.54897
# Shear Modulus (GPa) = -92.37091 17.43427 -37.46832
#
# Velocity S-wave (km/s) = -6.50046 2.82409 -4.14008
# Velocity P-wave (km/s) = 6.44266 5.89317 1.84098
#
# Compressibility (1/GPa) = 0.03083992
#
# Stress axis : x y z
#
# Youngs Moduli (GPa) = 40.74424 113.03640 112.90195
#
# Poissons Ratio (x) = 0.17818 0.03772
# Poissons Ratio (y) = 0.06423 0.42827
# Poissons Ratio (z) = 0.01361 0.42878
#
# Static dielectric constant tensor:
#      x y z
#    x 1.833510 0.000000 0.000000 
#    y 0.000000 1.820960 0.000000 
#    z 0.000000 0.000000 1.832250 
# 
# From -- ./inp_files/48724.got.cif
#   From: 2010.05.17/outbox.cif.g08.bks.cpg/sg74_25_cif.got.tgz:48724.got - 2010.06.03 17:57:02.
