data_PCOD9536665
_publ_section_title
;
Structure prediction by ZEFSAII (Michael W. Deem and Ramdas Pophale) SiO2 
 PCOD9536665
Probable space group: I M M A
;
_chemical_formula_sum "Si O2"
_cell_formula_units_Z 72
_cell_length_a 16.155990
_cell_length_b 26.467881
_cell_length_c 9.560040
_cell_angle_alpha 90.000000
_cell_angle_beta 90.000000
_cell_angle_gamma 90.000000
_cell_volume 4088.014791
_symmetry_space_group_name_H-M "I M M A"
_symmetry_group_IT_number 74
_symmetry_cell_setting 'orthorhombic'
loop_
_space_group_symop_operation_xyz
x,y,z
-x,1/2-y,z
x,-y,-z
-x,1/2+y,-z
-x,-y,-z
x,1/2+y,-z
-x,y,z
x,1/2-y,z
1/2+x,1/2+y,1/2+z
1/2-x,-y,1/2+z
1/2+x,1/2-y,1/2-z
1/2-x,y,1/2-z
1/2-x,1/2-y,1/2-z
1/2+x,y,1/2-z
1/2-x,1/2+y,1/2+z
1/2+x,-y,1/2+z
loop_
_atom_site_type_symbol
_atom_site_label
_atom_site_fract_x
_atom_site_fract_y
_atom_site_fract_z
Si Si1 0.093027 0.520685 0.841385
Si Si2 0.760411 0.360048 0.593536
Si Si3 0.337281 0.631927 0.670666
Si Si4 0.250000 0.959631 0.250000
Si Si5 0.596283 0.809189 0.924297
O O1 0.112068 0.580220 0.840167
O O2 0.167533 0.492537 0.762384
O O3 0.000000 0.511192 0.786189
O O4 0.095273 0.500000 0.000000
O O5 0.750000 0.338650 0.750000
O O6 0.688601 0.348296 0.482272
O O7 0.757779 0.420661 0.619637
O O8 0.845227 0.341143 0.526476
O O9 0.250000 0.621117 0.750000
O O10 0.384164 0.671708 0.767814
O O11 0.500000 0.816637 0.955560
O O12 0.616439 0.750000 0.936651
#
# Coordination Sequence:
#
# PCOD9536665 Si02
#       5
#    16  16  16   8  16
#     4  11  20  32  55  83 116 156 193 236 291 344
#     4   9  20  37  58  84 112 154 188 241 285 349
#     4  10  19  35  59  82 113 151 195 241 279 345
#     4  10  20  36  53  86 119 152 194 240 288 346
#     4  10  22  40  60  84 115 149 194 250 299 342
#
# _framework density 17.612459999999999
#
# number of rings (size 3 to 8) (size 9 to 14) (size 15 to 20)
#    0.667    1.333    3.333    0.667    0.000    5.333 
#    0.000    2.222    0.000    7.333    0.000    0.000 
#    0.000    0.000    0.000    0.000    0.000    0.000 
#
# Total GULP energy -200583.634354 kJ/mol
# GULP energy per Si atom -5571.767621 kJ/mol
# Density = 1.757237 g / cm^3
# Si number density = 17.612460 Si / 1000 Ang^3
#
#
#
# Elastic Constant Matrix: (Units=GPa)
#
#
# Indices 1 2 3 4 5 6 
#
# 1 113.8289 44.2771 29.1179 -0.0001 -0.0002 -0.0001
# 2 44.2771 55.8723 15.6558 -0.0002 0.0001 0.0000
# 3 29.1179 15.6558 95.9072 -0.0010 0.0016 0.0001
# 4 -0.0001 -0.0002 -0.0010 19.2949 0.0002 0.0001
# 5 -0.0002 0.0001 0.0016 0.0002 17.8513 0.0000
# 6 -0.0001 0.0000 0.0001 0.0001 0.0000 29.1204
#
#
#
# Elastic Compliance Matrix: (Units=1/GPa)
#
#
# Indices 1 2 3 4 5 6 
#
# 1 0.013212 -0.009794 -0.002412 0.000000 0.000000 0.000000
# 2 -0.009794 0.026016 -0.001273 0.000000 0.000000 0.000000
# 3 -0.002412 -0.001273 0.011367 0.000001 -0.000001 0.000000
# 4 0.000000 0.000000 0.000001 0.051827 -0.000001 0.000000
# 5 0.000000 0.000000 -0.000001 -0.000001 0.056018 0.000000
# 6 0.000000 0.000000 0.000000 0.000000 0.000000 0.034340
#
#
# Mechanical properties :
#
#
# Convention : Reuss Voigt Hill
#
# Bulk Modulus (GPa) = 42.30919 49.30111 45.80515
# Shear Modulus (GPa) = 21.96649 25.02380 23.49515
#
# Velocity S-wave (km/s) = 3.53542 3.77344 3.65637
# Velocity P-wave (km/s) = 6.38279 6.85843 6.62488
#
# Compressibility (1/GPa) = 0.02363553
#
# Stress axis : x y z
#
# Youngs Moduli (GPa) = 75.68921 38.43747 87.97374
#
# Poissons Ratio (x) = 0.37646 0.21223
# Poissons Ratio (y) = 0.74131 0.11202
# Poissons Ratio (z) = 0.18259 0.04894
#
# Static dielectric constant tensor:
#      x y z
#    x 1.587630 0.000000 0.000000 
#    y 0.000000 1.579210 0.000000 
#    z 0.000000 0.000000 1.618520 
# 
# From -- ./inp_files/9334.got.cif
#   From: 2010.05.17/outbox.cif.g08.bks.cpg/sg74_5_cif.got.tgz:9334.got - 2010.06.03 17:57:02.
