data_PCOD9536071
_publ_section_title
;
Structure prediction by ZEFSAII (Michael W. Deem and Ramdas Pophale) SiO2 
 PCOD9536071
Probable space group: I M M A
;
_chemical_formula_sum "Si O2"
_cell_formula_units_Z 112
_cell_length_a 22.952080
_cell_length_b 20.523502
_cell_length_c 12.245117
_cell_angle_alpha 90.000000
_cell_angle_beta 90.000000
_cell_angle_gamma 90.000000
_cell_volume 5768.148811
_symmetry_space_group_name_H-M "I M M A"
_symmetry_group_IT_number 74
_symmetry_cell_setting 'orthorhombic'
loop_
_space_group_symop_operation_xyz
x,y,z
-x,1/2-y,z
x,-y,-z
-x,1/2+y,-z
-x,-y,-z
x,1/2+y,-z
-x,y,z
x,1/2-y,z
1/2+x,1/2+y,1/2+z
1/2-x,-y,1/2+z
1/2+x,1/2-y,1/2-z
1/2-x,y,1/2-z
1/2-x,1/2-y,1/2-z
1/2+x,y,1/2-z
1/2-x,1/2+y,1/2+z
1/2+x,-y,1/2+z
loop_
_atom_site_type_symbol
_atom_site_label
_atom_site_fract_x
_atom_site_fract_y
_atom_site_fract_z
Si Si1 0.767398 0.671830 0.949629
Si Si2 0.565335 0.622537 0.277282
Si Si3 0.365677 0.173001 0.063393
Si Si4 0.434047 0.929700 0.522294
Si Si5 0.192484 0.827946 0.184801
Si Si6 0.067576 0.063372 0.558888
Si Si7 0.875602 0.826691 0.816703
O O1 0.763163 0.750000 0.958828
O O2 0.701272 0.649516 0.942791
O O3 0.807770 0.660739 0.845191
O O4 0.799791 0.648326 0.059623
O O5 0.500000 0.652793 0.253831
O O6 0.563431 0.602597 0.403188
O O7 0.628293 0.657511 0.267932
O O8 0.569861 0.563662 0.190178
O O9 0.368563 0.250000 0.036099
O O10 0.386433 0.165625 0.188515
O O11 0.402485 0.128764 0.983099
O O12 0.500000 0.943486 0.561163
O O13 0.408326 0.878580 0.608131
O O14 0.404549 0.000000 0.500000
O O15 0.196713 0.750000 0.183334
O O16 0.250000 0.851997 0.250000
O O17 0.000000 0.067029 0.526538
O O18 0.093278 0.000000 0.500000
O O19 0.887750 0.750000 0.845633
#
# Coordination Sequence:
#
# PCOD9536071 Si02
#       7
#    16  16  16  16  16  16  16
#     4   9  17  33  55  83 118 153 191 233 290 355
#     4  10  21  38  59  83 112 155 203 243 294 359
#     4  10  21  37  61  88 116 153 198 246 294 353
#     4  10  22  38  59  86 120 160 198 241 298 363
#     4  10  19  32  56  86 118 154 191 241 300 356
#     4  10  23  41  60  81 113 154 196 245 299 358
#     4  10  20  36  60  89 120 154 194 244 295 349
#
# _framework density 19.416975000000001
#
# number of rings (size 3 to 8) (size 9 to 14) (size 15 to 20)
#    0.000    2.143    1.429    1.286    2.000    4.857 
#    0.000    5.000    0.000    0.000    0.000    0.000 
#    0.000    0.000    0.000    0.000    0.000    0.000 
#
# Total GULP energy -311740.782305 kJ/mol
# GULP energy per Si atom -5566.799684 kJ/mol
# Density = 1.937278 g / cm^3
# Si number density = 19.416975 Si / 1000 Ang^3
#
#
#
# Elastic Constant Matrix: (Units=GPa)
#
#
# Indices 1 2 3 4 5 6 
#
# 1 84.9242 26.8395 16.9664 0.0000 0.0000 0.0000
# 2 26.8395 52.6973 19.4830 0.0000 0.0000 0.0000
# 3 16.9664 19.4830 60.0405 0.0000 0.0000 0.0000
# 4 0.0000 0.0000 0.0000 19.1882 0.0000 0.0000
# 5 0.0000 0.0000 0.0000 0.0000 19.0517 0.0000
# 6 0.0000 0.0000 0.0000 0.0000 0.0000 90.6403
#
#
#
# Elastic Compliance Matrix: (Units=1/GPa)
#
#
# Indices 1 2 3 4 5 6 
#
# 1 0.014222 -0.006542 -0.001896 0.000000 0.000000 0.000000
# 2 -0.006542 0.024573 -0.006125 0.000000 0.000000 0.000000
# 3 -0.001896 -0.006125 0.019179 0.000000 0.000000 0.000000
# 4 0.000000 0.000000 0.000000 0.052115 0.000000 0.000000
# 5 0.000000 0.000000 0.000000 0.000000 0.052489 0.000000
# 6 0.000000 0.000000 0.000000 0.000000 0.000000 0.011033
#
#
# Mechanical properties :
#
#
# Convention : Reuss Voigt Hill
#
# Bulk Modulus (GPa) = 34.66593 36.02664 35.34629
# Shear Modulus (GPa) = 23.54578 34.73424 29.14001
#
# Velocity S-wave (km/s) = 3.48607 4.23408 3.87815
# Velocity P-wave (km/s) = 5.83916 6.51903 6.18844
#
# Compressibility (1/GPa) = 0.02884676
#
# Stress axis : x y z
#
# Youngs Moduli (GPa) = 70.31546 40.69506 52.14115
#
# Poissons Ratio (x) = 0.26624 0.09885
# Poissons Ratio (y) = 0.46003 0.31937
# Poissons Ratio (z) = 0.13330 0.24926
#
# Static dielectric constant tensor:
#      x y z
#    x 1.725230 0.000000 0.000000 
#    y 0.000000 1.671410 0.000000 
#    z 0.000000 0.000000 1.706810 
# 
# From -- ./inp_files/25380.got.cif
#   From: 2010.05.17/outbox.cif.g08.bks.cpg/sg74_13_cif.got.tgz:25380.got - 2010.06.03 17:57:02.
