data_PCOD9536079
_publ_section_title
;
Structure prediction by ZEFSAII (Michael W. Deem and Ramdas Pophale) SiO2 
 PCOD9536079
Probable space group: I M M A
;
_chemical_formula_sum "Si O2"
_cell_formula_units_Z 128
_cell_length_a 23.539784
_cell_length_b 25.849759
_cell_length_c 11.128796
_cell_angle_alpha 90.000000
_cell_angle_beta 90.000000
_cell_angle_gamma 90.000000
_cell_volume 6771.847252
_symmetry_space_group_name_H-M "I M M A"
_symmetry_group_IT_number 74
_symmetry_cell_setting 'orthorhombic'
loop_
_space_group_symop_operation_xyz
x,y,z
-x,1/2-y,z
x,-y,-z
-x,1/2+y,-z
-x,-y,-z
x,1/2+y,-z
-x,y,z
x,1/2-y,z
1/2+x,1/2+y,1/2+z
1/2-x,-y,1/2+z
1/2+x,1/2-y,1/2-z
1/2-x,y,1/2-z
1/2-x,1/2-y,1/2-z
1/2+x,y,1/2-z
1/2-x,1/2+y,1/2+z
1/2+x,-y,1/2+z
loop_
_atom_site_type_symbol
_atom_site_label
_atom_site_fract_x
_atom_site_fract_y
_atom_site_fract_z
Si Si1 0.237666 0.593691 0.019702
Si Si2 0.210121 0.806117 0.364867
Si Si3 0.129109 0.044822 0.854134
Si Si4 0.350566 0.574946 0.679456
Si Si5 0.592611 0.810219 0.279163
Si Si6 0.567136 0.624692 0.507243
Si Si7 0.063208 0.907225 0.360147
Si Si8 0.356700 0.556255 0.962067
O O1 0.262913 0.649478 0.053691
O O2 0.188647 0.573132 0.110942
O O3 0.206657 0.591347 0.890621
O O4 0.294178 0.559495 0.020658
O O5 0.208270 0.750000 0.426614
O O6 0.250000 0.803174 0.250000
O O7 0.150419 0.814966 0.298014
O O8 0.105780 0.059380 0.723294
O O9 0.136921 0.983831 0.864910
O O10 0.081037 0.071273 0.936840
O O11 0.398406 0.614735 0.630095
O O12 0.348614 0.568895 0.822052
O O13 0.500000 0.929746 0.126878
O O14 0.575533 0.750000 0.279016
O O15 0.593173 0.831750 0.416720
O O16 0.556994 0.852717 0.207658
O O17 0.500000 0.632906 0.521131
O O18 0.097769 0.903731 0.483523
O O19 0.379718 0.500000 0.000000
#
# Coordination Sequence:
#
# PCOD9536079 Si02
#       8
#    16  16  16  16  16  16  16  16
#     4  11  22  36  62  85 123 157 197 257 304 364
#     4  10  19  32  57  90 120 150 186 240 313 374
#     4  10  20  38  56  86 117 156 199 245 309 363
#     4  11  23  39  55  84 121 165 208 243 304 360
#     4  10  20  38  63  92 120 151 199 258 318 370
#     4  10  21  36  57  86 118 155 199 255 306 361
#     4  11  23  39  59  88 123 158 203 256 305 363
#     4  12  24  40  58  85 119 166 212 250 296 366
#
# _framework density 18.901785
#
# number of rings (size 3 to 8) (size 9 to 14) (size 15 to 20)
#    0.000    1.375    2.500    6.375    0.000    3.250 
#    0.000    0.000    0.000    3.750    0.000    1.750 
#    0.000    0.000    0.000    0.000    0.000    0.000 
#
# Total GULP energy -356443.751173 kJ/mol
# GULP energy per Si atom -5569.433612 kJ/mol
# Density = 1.885876 g / cm^3
# Si number density = 18.901785 Si / 1000 Ang^3
#
#
#
# Elastic Constant Matrix: (Units=GPa)
#
#
# Indices 1 2 3 4 5 6 
#
# 1 102.6134 36.2342 49.2019 0.0000 0.0000 0.0000
# 2 36.2342 115.6549 32.6190 0.0000 0.0000 0.0000
# 3 49.2019 32.6190 79.6278 0.0000 0.0000 0.0000
# 4 0.0000 0.0000 0.0000 28.5445 0.0000 0.0000
# 5 0.0000 0.0000 0.0000 0.0000 -11.1334 0.0000
# 6 0.0000 0.0000 0.0000 0.0000 0.0000 73.9736
#
#
#
# Elastic Compliance Matrix: (Units=1/GPa)
#
#
# Indices 1 2 3 4 5 6 
#
# 1 0.014350 -0.002256 -0.007943 0.000000 0.000000 0.000000
# 2 -0.002256 0.010130 -0.002756 0.000000 0.000000 0.000000
# 3 -0.007943 -0.002756 0.018595 0.000000 0.000000 0.000000
# 4 0.000000 0.000000 0.000000 0.035033 0.000000 0.000000
# 5 0.000000 0.000000 0.000000 0.000000 -0.089820 0.000000
# 6 0.000000 0.000000 0.000000 0.000000 0.000000 0.013518
#
#
# Mechanical properties :
#
#
# Convention : Reuss Voigt Hill
#
# Bulk Modulus (GPa) = 58.25257 59.33403 58.79330
# Shear Modulus (GPa) = 149.52273 30.26634 89.89453
#
# Velocity S-wave (km/s) = 8.90375 4.00589 6.90377
# Velocity P-wave (km/s) = 11.68708 7.27015 9.73250
#
# Compressibility (1/GPa) = 0.01716662
#
# Stress axis : x y z
#
# Youngs Moduli (GPa) = 69.68419 98.71254 53.77655
#
# Poissons Ratio (x) = 0.22266 0.42715
# Poissons Ratio (y) = 0.15719 0.14821
# Poissons Ratio (z) = 0.55351 0.27206
#
# Static dielectric constant tensor:
#      x y z
#    x 1.786190 0.000000 0.000000 
#    y 0.000000 1.728200 0.000000 
#    z 0.000000 0.000000 1.732010 
# 
# From -- ./inp_files/25585.got.cif
#   From: 2010.05.17/outbox.cif.g08.bks.cpg/sg74_13_cif.got.tgz:25585.got - 2010.06.03 17:57:02.
