data_PCOD9536895
_publ_section_title
;
Structure prediction by ZEFSAII (Michael W. Deem and Ramdas Pophale) SiO2 
 PCOD9536895
Probable space group: I M M A
;
_chemical_formula_sum "Si O2"
_cell_formula_units_Z 72
_cell_length_a 23.400672
_cell_length_b 25.614544
_cell_length_c 5.825132
_cell_angle_alpha 90.000000
_cell_angle_beta 90.000000
_cell_angle_gamma 90.000000
_cell_volume 3491.569806
_symmetry_space_group_name_H-M "I M M A"
_symmetry_group_IT_number 74
_symmetry_cell_setting 'orthorhombic'
loop_
_space_group_symop_operation_xyz
x,y,z
-x,1/2-y,z
x,-y,-z
-x,1/2+y,-z
-x,-y,-z
x,1/2+y,-z
-x,y,z
x,1/2-y,z
1/2+x,1/2+y,1/2+z
1/2-x,-y,1/2+z
1/2+x,1/2-y,1/2-z
1/2-x,y,1/2-z
1/2-x,1/2-y,1/2-z
1/2+x,y,1/2-z
1/2-x,1/2+y,1/2+z
1/2+x,-y,1/2+z
loop_
_atom_site_type_symbol
_atom_site_label
_atom_site_fract_x
_atom_site_fract_y
_atom_site_fract_z
Si Si1 0.250000 0.414715 0.750000
Si Si2 0.594646 0.750000 0.295158
Si Si3 0.674639 0.365228 0.131892
Si Si4 0.861359 0.442294 0.974572
Si Si5 0.842550 0.750000 0.711151
Si Si6 0.435881 0.135848 0.815075
O O1 0.224476 0.378878 0.547531
O O2 0.305401 0.448048 0.685959
O O3 0.621085 0.750000 0.551410
O O4 0.562755 0.694909 0.278568
O O5 0.632488 0.750000 0.055130
O O6 0.665790 0.412051 0.310090
O O7 0.685632 0.307208 0.226299
O O8 0.612176 0.363379 0.011711
O O9 0.885592 0.500000 0.000000
O O10 0.908565 0.403753 0.868684
O O11 0.500000 0.120777 0.885350
#
# Coordination Sequence:
#
# PCOD9536895 Si02
#       6
#     8   8  16  16   8  16
#     4  10  24  39  64  92 126 169 224 278 332 394
#     4  10  19  40  64 101 131 177 219 274 324 400
#     4  10  22  42  63  96 132 171 223 273 335 397
#     4  11  24  41  64  92 127 169 222 276 330 391
#     4  10  20  39  70  94 140 172 218 271 339 400
#     4  10  22  40  64  95 132 171 217 268 330 399
#
# _framework density 20.621098
#
# number of rings (size 3 to 8) (size 9 to 14) (size 15 to 20)
#    0.000    1.778    2.222    1.000    3.111    4.444 
#    0.000    5.556    0.000    0.000    0.000    0.000 
#    0.000    0.000    0.000    0.000    0.000    0.000 
#
# Total GULP energy -200411.259050 kJ/mol
# GULP energy per Si atom -5566.979418 kJ/mol
# Density = 2.057416 g / cm^3
# Si number density = 20.621098 Si / 1000 Ang^3
#
#
#
# Elastic Constant Matrix: (Units=GPa)
#
#
# Indices 1 2 3 4 5 6 
#
# 1 126.7361 21.8689 19.9777 0.0000 0.0000 0.0000
# 2 21.8689 157.4807 29.2107 0.0000 0.0000 0.0000
# 3 19.9777 29.2107 53.1991 0.0000 0.0000 0.0000
# 4 0.0000 0.0000 0.0000 58.4528 0.0000 0.0000
# 5 0.0000 0.0000 0.0000 0.0000 11.5920 0.0000
# 6 0.0000 0.0000 0.0000 0.0000 0.0000 10.3650
#
#
#
# Elastic Compliance Matrix: (Units=1/GPa)
#
#
# Indices 1 2 3 4 5 6 
#
# 1 0.008446 -0.000651 -0.002814 0.000000 0.000000 0.000000
# 2 -0.000651 0.007120 -0.003665 0.000000 0.000000 0.000000
# 3 -0.002814 -0.003665 0.021867 0.000000 0.000000 0.000000
# 4 0.000000 0.000000 0.000000 0.017108 0.000000 0.000000
# 5 0.000000 0.000000 0.000000 0.000000 0.086267 0.000000
# 6 0.000000 0.000000 0.000000 0.000000 0.000000 0.096479
#
#
# Mechanical properties :
#
#
# Convention : Reuss Voigt Hill
#
# Bulk Modulus (GPa) = 43.15498 53.28117 48.21808
# Shear Modulus (GPa) = 19.28481 33.83918 26.56199
#
# Velocity S-wave (km/s) = 3.06142 4.05532 3.59290
# Velocity P-wave (km/s) = 5.78527 6.91533 6.37539
#
# Compressibility (1/GPa) = 0.02317230
#
# Stress axis : x y z
#
# Youngs Moduli (GPa) = 118.39404 140.44518 45.73161
#
# Poissons Ratio (x) = 0.09141 0.12871
# Poissons Ratio (y) = 0.07706 0.16761
# Poissons Ratio (z) = 0.33321 0.51476
#
# Static dielectric constant tensor:
#      x y z
#    x 1.722950 0.000000 0.000000 
#    y 0.000000 1.740440 0.000000 
#    z 0.000000 0.000000 1.832450 
# 
# From -- ./inp_files/3768.got.cif
#   From: 2010.05.17/outbox.cif.g08.bks.cpg/sg74_2_cif.got.tgz:3768.got - 2010.06.03 17:57:02.
