data_PCOD9536629
_publ_section_title
;
Structure prediction by ZEFSAII (Michael W. Deem and Ramdas Pophale) SiO2 
 PCOD9536629
Probable space group: I M M A
;
_chemical_formula_sum "Si O2"
_cell_formula_units_Z 80
_cell_length_a 20.427965
_cell_length_b 16.318197
_cell_length_c 12.630648
_cell_angle_alpha 90.000000
_cell_angle_beta 90.000000
_cell_angle_gamma 90.000000
_cell_volume 4210.395656
_symmetry_space_group_name_H-M "I M M A"
_symmetry_group_IT_number 74
_symmetry_cell_setting 'orthorhombic'
loop_
_space_group_symop_operation_xyz
x,y,z
-x,1/2-y,z
x,-y,-z
-x,1/2+y,-z
-x,-y,-z
x,1/2+y,-z
-x,y,z
x,1/2-y,z
1/2+x,1/2+y,1/2+z
1/2-x,-y,1/2+z
1/2+x,1/2-y,1/2-z
1/2-x,y,1/2-z
1/2-x,1/2-y,1/2-z
1/2+x,y,1/2-z
1/2-x,1/2+y,1/2+z
1/2+x,-y,1/2+z
loop_
_atom_site_type_symbol
_atom_site_label
_atom_site_fract_x
_atom_site_fract_y
_atom_site_fract_z
Si Si1 0.640841 0.403752 0.965545
Si Si2 0.500000 0.593953 0.956381
Si Si3 0.000000 0.152551 0.216945
Si Si4 0.783071 0.343102 0.985940
Si Si5 0.320806 0.925088 0.270431
Si Si6 0.606501 0.053501 0.403801
O O1 0.706813 0.361337 0.007900
O O2 0.649812 0.394084 0.839345
O O3 0.644700 0.500000 0.000000
O O4 0.569925 0.371839 0.002595
O O5 0.500000 0.606075 0.829999
O O6 0.500000 0.500000 0.000000
O O7 0.938797 0.121562 0.147911
O O8 0.000000 0.250000 0.233339
O O9 0.798336 0.250000 0.012241
O O10 0.802047 0.360264 0.862394
O O11 0.828295 0.405278 0.049858
O O12 0.250000 0.966485 0.250000
O O13 0.372005 0.988995 0.315930
O O14 0.576730 0.000000 0.500000
#
# Coordination Sequence:
#
# PCOD9536629 Si02
#       6
#    16   8   8  16  16  16
#     4  10  19  35  57  79 107 143 186 230 270 326
#     4  10  22  39  58  79 110 153 194 228 274 340
#     4  12  25  39  56  83 118 147 181 238 294 328
#     4  10  20  34  55  83 112 142 178 227 282 329
#     4   9  18  33  57  84 107 138 184 229 269 323
#     4  10  20  37  59  81 107 145 189 225 272 340
#
# _framework density 19.000589999999999
#
# number of rings (size 3 to 8) (size 9 to 14) (size 15 to 20)
#    0.000    2.000    0.000    6.300    0.000    4.400 
#    0.000    1.000    0.000    4.800    0.000    0.000 
#    0.000    0.000    0.000    0.000    0.000    0.000 
#
# Total GULP energy -222968.552162 kJ/mol
# GULP energy per Si atom -5574.213804 kJ/mol
# Density = 1.895734 g / cm^3
# Si number density = 19.000590 Si / 1000 Ang^3
#
#
#
# Elastic Constant Matrix: (Units=GPa)
#
#
# Indices 1 2 3 4 5 6 
#
# 1 123.6798 13.1477 46.7872 0.0000 0.0000 0.0000
# 2 13.1477 64.5876 4.6493 0.0000 0.0000 0.0000
# 3 46.7872 4.6493 82.0160 0.0000 0.0000 0.0000
# 4 0.0000 0.0000 0.0000 12.9028 0.0000 0.0000
# 5 0.0000 0.0000 0.0000 0.0000 14.7981 0.0000
# 6 0.0000 0.0000 0.0000 0.0000 0.0000 -96.9432
#
#
#
# Elastic Compliance Matrix: (Units=1/GPa)
#
#
# Indices 1 2 3 4 5 6 
#
# 1 0.010496 -0.001713 -0.005890 0.000000 0.000000 0.000000
# 2 -0.001713 0.015826 0.000080 0.000000 0.000000 0.000000
# 3 -0.005890 0.000080 0.015548 0.000000 0.000000 0.000000
# 4 0.000000 0.000000 0.000000 0.077503 0.000000 0.000000
# 5 0.000000 0.000000 0.000000 0.000000 0.067576 0.000000
# 6 0.000000 0.000000 0.000000 0.000000 0.000000 -0.010315
#
#
# Mechanical properties :
#
#
# Convention : Reuss Voigt Hill
#
# Bulk Modulus (GPa) = 37.28042 44.38354 40.83198
# Shear Modulus (GPa) = 24.92266 -0.13517 12.39374
#
# Velocity S-wave (km/s) = 3.62564 -0.26701 2.55675
# Velocity P-wave (km/s) = 6.09838 4.82853 5.50022
#
# Compressibility (1/GPa) = 0.02682374
#
# Stress axis : x y z
#
# Youngs Moduli (GPa) = 95.27690 63.18831 64.31510
#
# Poissons Ratio (x) = 0.10821 0.37884
# Poissons Ratio (y) = 0.16317 -0.00513
# Poissons Ratio (z) = 0.56121 -0.00504
#
# Static dielectric constant tensor:
#      x y z
#    x 1.668250 0.000000 0.000000 
#    y 0.000000 1.634040 0.000000 
#    z 0.000000 0.000000 1.686950 
# 
# From -- ./inp_files/22119.got.cif
#   From: 2010.05.17/outbox.cif.g08.bks.cpg/sg74_12_cif.got.tgz:22119.got - 2010.06.03 17:57:02.
