data_PCOD9536728
_publ_section_title
;
Structure prediction by ZEFSAII (Michael W. Deem and Ramdas Pophale) SiO2 
 PCOD9536728
Probable space group: I M M A
;
_chemical_formula_sum "Si O2"
_cell_formula_units_Z 104
_cell_length_a 29.047270
_cell_length_b 7.679510
_cell_length_c 23.506819
_cell_angle_alpha 90.000000
_cell_angle_beta 90.000000
_cell_angle_gamma 90.000000
_cell_volume 5243.637916
_symmetry_space_group_name_H-M "I M M A"
_symmetry_group_IT_number 74
_symmetry_cell_setting 'orthorhombic'
loop_
_space_group_symop_operation_xyz
x,y,z
-x,1/2-y,z
x,-y,-z
-x,1/2+y,-z
-x,-y,-z
x,1/2+y,-z
-x,y,z
x,1/2-y,z
1/2+x,1/2+y,1/2+z
1/2-x,-y,1/2+z
1/2+x,1/2-y,1/2-z
1/2-x,y,1/2-z
1/2-x,1/2-y,1/2-z
1/2+x,y,1/2-z
1/2-x,1/2+y,1/2+z
1/2+x,-y,1/2+z
loop_
_atom_site_type_symbol
_atom_site_label
_atom_site_fract_x
_atom_site_fract_y
_atom_site_fract_z
Si Si1 0.000000 0.041033 0.067284
Si Si2 0.200403 0.449653 0.734212
Si Si3 0.236408 0.043443 0.564387
Si Si4 0.098829 0.040432 0.066435
Si Si5 0.551983 0.540438 0.066561
Si Si6 0.354625 0.462800 0.876037
Si Si7 0.819708 0.045587 0.144361
O O1 0.049201 0.974603 0.088268
O O2 0.000000 0.250000 0.074116
O O3 0.000000 0.000000 0.000000
O O4 0.210699 0.250000 0.716152
O O5 0.250000 0.534106 0.750000
O O6 0.167665 0.520521 0.684355
O O7 0.176802 0.452849 0.795379
O O8 0.237687 0.250000 0.570295
O O9 0.184340 0.985497 0.578005
O O10 0.250187 0.000000 0.500000
O O11 0.271154 0.972702 0.611923
O O12 0.098642 0.250000 0.070903
O O13 0.141749 0.974906 0.101750
O O14 0.103600 0.000000 0.000000
O O15 0.500000 0.476057 0.080285
O O16 0.550940 0.750000 0.071958
O O17 0.594733 0.476027 0.104963
O O18 0.560772 0.500000 0.000000
O O19 0.357131 0.250000 0.874723
O O20 0.827248 0.250000 0.154906
#
# Coordination Sequence:
#
# PCOD9536728 Si02
#       7
#     8  16  16  16  16  16  16
#     4   8  14  28  48  68  90 122 156 190 231 284
#     4  10  19  36  56  71  92 133 175 208 247 296
#     4  11  21  34  50  73 104 136 167 202 247 301
#     4   9  18  31  49  72  98 126 159 197 244 293
#     4   9  17  31  53  80 107 134 165 208 259 310
#     4   9  18  33  53  74  99 133 173 207 248 303
#     4  11  22  34  49  74 102 130 166 209 252 296
#
# _framework density 19.833559999999999
#
# number of rings (size 3 to 8) (size 9 to 14) (size 15 to 20)
#    0.000    2.308    1.538    1.846    0.000    2.769 
#    0.000    1.538    1.692    0.000    0.000    0.000 
#    0.000    0.000    0.000    0.000    0.000    0.000 
#
# Total GULP energy -289888.544096 kJ/mol
# GULP energy per Si atom -5574.779694 kJ/mol
# Density = 1.978842 g / cm^3
# Si number density = 19.833560 Si / 1000 Ang^3
#
#
#
# Elastic Constant Matrix: (Units=GPa)
#
#
# Indices 1 2 3 4 5 6 
#
# 1 161.2997 3.3712 56.8678 0.0000 0.0000 0.0000
# 2 3.3712 40.8408 -1.1234 0.0000 0.0000 0.0000
# 3 56.8678 -1.1234 106.1069 0.0000 0.0000 0.0000
# 4 0.0000 0.0000 0.0000 16.4800 0.0000 0.0000
# 5 0.0000 0.0000 0.0000 0.0000 17.3456 0.0000
# 6 0.0000 0.0000 0.0000 0.0000 0.0000 10.9349
#
#
#
# Elastic Compliance Matrix: (Units=1/GPa)
#
#
# Indices 1 2 3 4 5 6 
#
# 1 0.007667 -0.000746 -0.004117 0.000000 0.000000 0.000000
# 2 -0.000746 0.024565 0.000660 0.000000 0.000000 0.000000
# 3 -0.004117 0.000660 0.011638 0.000000 0.000000 0.000000
# 4 0.000000 0.000000 0.000000 0.060679 0.000000 0.000000
# 5 0.000000 0.000000 0.000000 0.000000 0.057651 0.000000
# 6 0.000000 0.000000 0.000000 0.000000 0.000000 0.091451
#
#
# Mechanical properties :
#
#
# Convention : Reuss Voigt Hill
#
# Bulk Modulus (GPa) = 28.19788 47.38649 37.79218
# Shear Modulus (GPa) = 18.25629 25.56090 21.90859
#
# Velocity S-wave (km/s) = 3.03722 3.59384 3.32719
# Velocity P-wave (km/s) = 5.15245 6.41598 5.81862
#
# Compressibility (1/GPa) = 0.03546366
#
# Stress axis : x y z
#
# Youngs Moduli (GPa) = 130.43495 40.70820 85.92654
#
# Poissons Ratio (x) = 0.03037 0.35374
# Poissons Ratio (y) = 0.09731 -0.05671
# Poissons Ratio (z) = 0.53698 -0.02687
#
# Static dielectric constant tensor:
#      x y z
#    x 1.761810 0.000000 0.000000 
#    y 0.000000 1.757170 0.000000 
#    z 0.000000 0.000000 1.789730 
# 
# From -- ./inp_files/57858.got.cif
#   From: 2010.05.17/outbox.cif.g08.bks.cpg/sg74_29_cif.got.tgz:57858.got - 2010.06.03 17:57:02.
