data_PCOD9536239
_publ_section_title
;
Structure prediction by ZEFSAII (Michael W. Deem and Ramdas Pophale) SiO2 
 PCOD9536239
Probable space group: I M M A
;
_chemical_formula_sum "Si O2"
_cell_formula_units_Z 104
_cell_length_a 25.620302
_cell_length_b 9.797431
_cell_length_c 19.534014
_cell_angle_alpha 90.000000
_cell_angle_beta 90.000000
_cell_angle_gamma 90.000000
_cell_volume 4903.294211
_symmetry_space_group_name_H-M "I M M A"
_symmetry_group_IT_number 74
_symmetry_cell_setting 'orthorhombic'
loop_
_space_group_symop_operation_xyz
x,y,z
-x,1/2-y,z
x,-y,-z
-x,1/2+y,-z
-x,-y,-z
x,1/2+y,-z
-x,y,z
x,1/2-y,z
1/2+x,1/2+y,1/2+z
1/2-x,-y,1/2+z
1/2+x,1/2-y,1/2-z
1/2-x,y,1/2-z
1/2-x,1/2-y,1/2-z
1/2+x,y,1/2-z
1/2-x,1/2+y,1/2+z
1/2+x,-y,1/2+z
loop_
_atom_site_type_symbol
_atom_site_label
_atom_site_fract_x
_atom_site_fract_y
_atom_site_fract_z
Si Si1 0.940991 0.410892 0.569536
Si Si2 0.780863 0.500000 0.500000
Si Si3 0.299996 0.402621 0.612474
Si Si4 0.080848 0.091134 0.935025
Si Si5 0.673117 0.407373 0.263444
Si Si6 0.648694 0.094973 0.118208
Si Si7 0.556274 0.906462 0.691670
O O1 0.940657 0.500000 0.500000
O O2 0.930291 0.250000 0.556992
O O3 0.896617 0.482799 0.613938
O O4 0.000000 0.420211 0.597916
O O5 0.743592 0.572553 0.444932
O O6 0.818523 0.411044 0.451827
O O7 0.294639 0.250000 0.639597
O O8 0.356379 0.414169 0.575426
O O9 0.302439 0.502774 0.677093
O O10 0.065954 0.250000 0.941328
O O11 0.058282 0.016829 0.868428
O O12 0.066477 0.000000 0.000000
O O13 0.685913 0.250000 0.277792
O O14 0.684654 0.436052 0.184153
O O15 0.609915 0.423587 0.267440
O O16 0.628407 0.250000 0.127182
O O17 0.500000 0.918600 0.728015
O O18 0.558765 0.750000 0.664047
#
# Coordination Sequence:
#
# PCOD9536239 Si02
#       7
#    16   8  16  16  16  16  16
#     4  10  21  38  62  92 128 169 210 253 304 363
#     4  12  24  40  63  94 125 158 206 262 310 374
#     4  10  22  40  62  88 117 160 208 254 311 372
#     4  10  19  33  54  82 114 151 195 243 295 353
#     4   9  21  41  63  88 122 162 204 252 306 369
#     4  11  24  41  64  96 129 164 205 255 311 367
#     4   9  18  34  56  82 113 151 195 242 293 350
#
# _framework density 21.210231
#
# number of rings (size 3 to 8) (size 9 to 14) (size 15 to 20)
#    0.000    2.000    1.538    1.385    0.000    5.846 
#    0.000    3.846    0.000    0.000    0.000    0.000 
#    0.000    0.000    0.000    0.000    0.000    0.000 
#
# Total GULP energy -290236.812710 kJ/mol
# GULP energy per Si atom -5581.477167 kJ/mol
# Density = 2.116196 g / cm^3
# Si number density = 21.210231 Si / 1000 Ang^3
#
#
#
# Elastic Constant Matrix: (Units=GPa)
#
#
# Indices 1 2 3 4 5 6 
#
# 1 112.8391 51.1907 22.3693 0.0000 0.0000 0.0000
# 2 51.1907 144.7567 73.2080 0.0000 0.0000 0.0000
# 3 22.3693 73.2080 121.3550 0.0000 0.0000 0.0000
# 4 0.0000 0.0000 0.0000 31.8944 0.0000 0.0000
# 5 0.0000 0.0000 0.0000 0.0000 7.0800 0.0000
# 6 0.0000 0.0000 0.0000 0.0000 0.0000 10.1196
#
#
#
# Elastic Compliance Matrix: (Units=1/GPa)
#
#
# Indices 1 2 3 4 5 6 
#
# 1 0.010572 -0.003962 0.000441 0.000000 0.000000 0.000000
# 2 -0.003962 0.011426 -0.006162 0.000000 0.000000 0.000000
# 3 0.000441 -0.006162 0.011876 0.000000 0.000000 0.000000
# 4 0.000000 0.000000 0.000000 0.031353 0.000000 0.000000
# 5 0.000000 0.000000 0.000000 0.000000 0.141242 0.000000
# 6 0.000000 0.000000 0.000000 0.000000 0.000000 0.098818
#
#
# Mechanical properties :
#
#
# Convention : Reuss Voigt Hill
#
# Bulk Modulus (GPa) = 68.92580 74.72077 71.82328
# Shear Modulus (GPa) = 15.17499 25.29765 20.23632
#
# Velocity S-wave (km/s) = 2.67770 3.45731 3.09217
# Velocity P-wave (km/s) = 6.49054 7.15838 6.83263
#
# Compressibility (1/GPa) = 0.01450836
#
# Stress axis : x y z
#
# Youngs Moduli (GPa) = 94.58949 87.52273 84.20067
#
# Poissons Ratio (x) = 0.34674 -0.03715
# Poissons Ratio (y) = 0.37474 0.51887
# Poissons Ratio (z) = -0.04173 0.53934
#
# Static dielectric constant tensor:
#      x y z
#    x 1.823010 0.000000 0.000000 
#    y 0.000000 1.723390 0.000000 
#    z 0.000000 0.000000 1.733410 
# 
# From -- ./inp_files/55277.got.cif
#   From: 2010.05.17/outbox.cif.g08.bks.cpg/sg74_28_cif.got.tgz:55277.got - 2010.06.03 17:57:02.
