data_PCOD9536362
_publ_section_title
;
Structure prediction by ZEFSAII (Michael W. Deem and Ramdas Pophale) SiO2 
 PCOD9536362
Probable space group: I M M A
;
_chemical_formula_sum "Si O2"
_cell_formula_units_Z 104
_cell_length_a 22.958146
_cell_length_b 8.817050
_cell_length_c 31.054205
_cell_angle_alpha 90.000000
_cell_angle_beta 90.000000
_cell_angle_gamma 90.000000
_cell_volume 6286.089102
_symmetry_space_group_name_H-M "I M M A"
_symmetry_group_IT_number 74
_symmetry_cell_setting 'orthorhombic'
loop_
_space_group_symop_operation_xyz
x,y,z
-x,1/2-y,z
x,-y,-z
-x,1/2+y,-z
-x,-y,-z
x,1/2+y,-z
-x,y,z
x,1/2-y,z
1/2+x,1/2+y,1/2+z
1/2-x,-y,1/2+z
1/2+x,1/2-y,1/2-z
1/2-x,y,1/2-z
1/2-x,1/2-y,1/2-z
1/2+x,y,1/2-z
1/2-x,1/2+y,1/2+z
1/2+x,-y,1/2+z
loop_
_atom_site_type_symbol
_atom_site_label
_atom_site_fract_x
_atom_site_fract_y
_atom_site_fract_z
Si Si1 0.570675 0.073305 0.283792
Si Si2 0.432260 0.931897 0.194938
Si Si3 0.282539 0.067896 0.953711
Si Si4 0.392224 0.565930 0.101785
Si Si5 0.648445 0.432106 0.546758
Si Si6 0.931646 0.933670 0.879026
Si Si7 0.500000 0.067937 0.048089
O O1 0.500000 0.063262 0.284189
O O2 0.586007 0.250000 0.280722
O O3 0.588576 0.016150 0.331092
O O4 0.590861 0.991494 0.240527
O O5 0.500000 0.981018 0.190358
O O6 0.431991 0.750000 0.196477
O O7 0.399300 0.979476 0.151655
O O8 0.283579 0.250000 0.957146
O O9 0.330108 0.023549 0.918411
O O10 0.215857 0.023287 0.944176
O O11 0.298863 0.000000 0.000000
O O12 0.398626 0.750000 0.099473
O O13 0.443531 0.492133 0.073775
O O14 0.633291 0.500000 0.500000
O O15 0.644945 0.250000 0.545069
O O16 0.606698 0.495770 0.583512
O O17 0.928072 0.750000 0.880097
O O18 0.000000 0.973213 0.884185
O O19 0.500000 0.250000 0.046227
O O20 0.500000 0.000000 0.000000
#
# Coordination Sequence:
#
# PCOD9536362 Si02
#       7
#    16  16  16  16  16  16   8
#     4   8  15  28  46  68  96 127 157 193 237 284
#     4   9  16  27  45  69  96 125 158 197 244 290
#     4   9  19  34  52  70  92 125 165 205 242 289
#     4  10  19  34  51  69  97 129 163 205 251 294
#     4  10  20  34  52  75  99 127 163 200 240 286
#     4   9  18  33  52  75 102 131 160 193 240 288
#     4  12  24  34  46  68  98 130 164 206 255 302
#
# _framework density 16.544467999999998
#
# number of rings (size 3 to 8) (size 9 to 14) (size 15 to 20)
#    0.000    2.615    0.769    2.538    0.000    4.308 
#    0.000    1.538    0.000    0.923    0.000    6.462 
#    0.000    0.000    0.000    0.000    0.000    0.000 
#
# Total GULP energy -289807.067171 kJ/mol
# GULP energy per Si atom -5573.212830 kJ/mol
# Density = 1.650681 g / cm^3
# Si number density = 16.544468 Si / 1000 Ang^3
#
#
#
# Elastic Constant Matrix: (Units=GPa)
#
#
# Indices 1 2 3 4 5 6 
#
# 1 66.9897 26.3158 87.6591 0.0000 0.0000 0.0000
# 2 26.3158 25.1679 46.9505 0.0000 0.0000 0.0000
# 3 87.6591 46.9505 199.8271 0.0000 0.0000 0.0000
# 4 0.0000 0.0000 0.0000 31.2391 0.0000 0.0000
# 5 0.0000 0.0000 0.0000 0.0000 15.7586 0.0000
# 6 0.0000 0.0000 0.0000 0.0000 0.0000 13.8417
#
#
#
# Elastic Compliance Matrix: (Units=1/GPa)
#
#
# Indices 1 2 3 4 5 6 
#
# 1 0.038137 -0.015430 -0.013104 0.000000 0.000000 0.000000
# 2 -0.015430 0.076982 -0.011318 0.000000 0.000000 0.000000
# 3 -0.013104 -0.011318 0.013412 0.000000 0.000000 0.000000
# 4 0.000000 0.000000 0.000000 0.032011 0.000000 0.000000
# 5 0.000000 0.000000 0.000000 0.000000 0.063458 0.000000
# 6 0.000000 0.000000 0.000000 0.000000 0.000000 0.072246
#
#
# Mechanical properties :
#
#
# Convention : Reuss Voigt Hill
#
# Bulk Modulus (GPa) = 20.48152 68.20397 44.34274
# Shear Modulus (GPa) = 12.74779 20.90515 16.82647
#
# Velocity S-wave (km/s) = 2.77883 3.55853 3.19257
# Velocity P-wave (km/s) = 4.76470 7.62878 6.36006
#
# Compressibility (1/GPa) = 0.04882450
#
# Stress axis : x y z
#
# Youngs Moduli (GPa) = 26.22157 12.99013 74.55973
#
# Poissons Ratio (x) = 0.20044 0.97704
# Poissons Ratio (y) = 0.40461 0.84389
# Poissons Ratio (z) = 0.34361 0.14703
#
# Static dielectric constant tensor:
#      x y z
#    x 1.544100 0.000000 0.000000 
#    y 0.000000 1.560280 0.000000 
#    z 0.000000 0.000000 1.557590 
# 
# From -- ./inp_files/68673.got.cif
#   From: 2010.05.17/outbox.cif.g08.bks.cpg/sg74_35_cif.got.tgz:68673.got - 2010.06.03 17:57:02.
