data_PCOD9536312
_publ_section_title
;
Structure prediction by ZEFSAII (Michael W. Deem and Ramdas Pophale) SiO2 
 PCOD9536312
Probable space group: I M M A
;
_chemical_formula_sum "Si O2"
_cell_formula_units_Z 80
_cell_length_a 25.382757
_cell_length_b 17.935113
_cell_length_c 9.362383
_cell_angle_alpha 90.000000
_cell_angle_beta 90.000000
_cell_angle_gamma 90.000000
_cell_volume 4262.155720
_symmetry_space_group_name_H-M "I M M A"
_symmetry_group_IT_number 74
_symmetry_cell_setting 'orthorhombic'
loop_
_space_group_symop_operation_xyz
x,y,z
-x,1/2-y,z
x,-y,-z
-x,1/2+y,-z
-x,-y,-z
x,1/2+y,-z
-x,y,z
x,1/2-y,z
1/2+x,1/2+y,1/2+z
1/2-x,-y,1/2+z
1/2+x,1/2-y,1/2-z
1/2-x,y,1/2-z
1/2-x,1/2-y,1/2-z
1/2+x,y,1/2-z
1/2-x,1/2+y,1/2+z
1/2+x,-y,1/2+z
loop_
_atom_site_type_symbol
_atom_site_label
_atom_site_fract_x
_atom_site_fract_y
_atom_site_fract_z
Si Si1 0.939871 0.609425 0.099537
Si Si2 0.087723 0.548939 0.788802
Si Si3 0.643183 0.167747 0.804107
Si Si4 0.942128 0.665184 0.551965
Si Si5 0.303804 0.987854 0.170749
O O1 0.937919 0.532682 0.192175
O O2 0.897331 0.662288 0.172290
O O3 0.000000 0.636493 0.093738
O O4 0.919905 0.587238 0.942202
O O5 0.062499 0.602399 0.671372
O O6 0.147568 0.533358 0.739669
O O7 0.667274 0.250000 0.810997
O O8 0.682965 0.099094 0.800422
O O9 0.605016 0.156723 0.940643
O O10 0.938741 0.750000 0.610925
O O11 0.000000 0.658935 0.481431
O O12 0.250000 0.008299 0.250000
O O13 0.301352 0.000000 0.000000
#
# Coordination Sequence:
#
# PCOD9536312 Si02
#       5
#    16  16  16  16  16
#     4  10  20  33  56  86 122 161 194 234 280 341
#     4  10  20  37  56  85 118 152 197 246 287 344
#     4  10  22  39  58  87 124 154 192 241 288 349
#     4  10  19  33  56  84 119 158 189 227 283 349
#     4  11  24  41  66  88 110 149 199 254 307 350
#
# _framework density 18.769843999999999
#
# number of rings (size 3 to 8) (size 9 to 14) (size 15 to 20)
#    0.000    1.800    2.000    3.000    5.600    2.400 
#    0.000    3.000    0.000    1.200    0.000    0.000 
#    0.000    0.000    0.000    0.000    0.000    0.000 
#
# Total GULP energy -223237.487571 kJ/mol
# GULP energy per Si atom -5580.937189 kJ/mol
# Density = 1.872712 g / cm^3
# Si number density = 18.769844 Si / 1000 Ang^3
#
#
#
# Elastic Constant Matrix: (Units=GPa)
#
#
# Indices 1 2 3 4 5 6 
#
# 1 101.5606 -1.3754 16.4678 0.0000 0.0000 0.0000
# 2 -1.3754 43.0313 4.6531 0.0000 0.0000 0.0000
# 3 16.4678 4.6531 44.5706 0.0000 0.0000 0.0000
# 4 0.0000 0.0000 0.0000 21.6073 0.0000 0.0000
# 5 0.0000 0.0000 0.0000 0.0000 7.5833 0.0000
# 6 0.0000 0.0000 0.0000 0.0000 0.0000 21.4530
#
#
#
# Elastic Compliance Matrix: (Units=1/GPa)
#
#
# Indices 1 2 3 4 5 6 
#
# 1 0.010499 0.000764 -0.003959 0.000000 0.000000 0.000000
# 2 0.000764 0.023560 -0.002742 0.000000 0.000000 0.000000
# 3 -0.003959 -0.002742 0.024185 0.000000 0.000000 0.000000
# 4 0.000000 0.000000 0.000000 0.046281 0.000000 0.000000
# 5 0.000000 0.000000 0.000000 0.000000 0.131869 0.000000
# 6 0.000000 0.000000 0.000000 0.000000 0.000000 0.046614
#
#
# Mechanical properties :
#
#
# Convention : Reuss Voigt Hill
#
# Bulk Modulus (GPa) = 21.56572 25.40596 23.48584
# Shear Modulus (GPa) = 16.11150 21.42317 18.76734
#
# Velocity S-wave (km/s) = 2.93298 3.38207 3.16550
# Velocity P-wave (km/s) = 4.79419 5.36806 5.08922
#
# Compressibility (1/GPa) = 0.04636988
#
# Stress axis : x y z
#
# Youngs Moduli (GPa) = 95.25100 42.44520 41.34756
#
# Poissons Ratio (x) = -0.03241 0.16368
# Poissons Ratio (y) = -0.07274 0.11337
# Poissons Ratio (z) = 0.37707 0.11638
#
# Static dielectric constant tensor:
#      x y z
#    x 1.631100 0.000000 0.000000 
#    y 0.000000 1.673990 0.000000 
#    z 0.000000 0.000000 1.654350 
# 
# From -- ./inp_files/10921.got.cif
#   From: 2010.05.17/outbox.cif.g08.bks.cpg/sg74_6_cif.got.tgz:10921.got - 2010.06.03 17:57:02.
