data_PCOD9536987
_publ_section_title
;
Structure prediction by ZEFSAII (Michael W. Deem and Ramdas Pophale) SiO2 
 PCOD9536987
Probable space group: I M M A
;
_chemical_formula_sum "Si O2"
_cell_formula_units_Z 88
_cell_length_a 8.529342
_cell_length_b 28.058003
_cell_length_c 19.124171
_cell_angle_alpha 90.000000
_cell_angle_beta 90.000000
_cell_angle_gamma 90.000000
_cell_volume 4576.725910
_symmetry_space_group_name_H-M "I M M A"
_symmetry_group_IT_number 74
_symmetry_cell_setting 'orthorhombic'
loop_
_space_group_symop_operation_xyz
x,y,z
-x,1/2-y,z
x,-y,-z
-x,1/2+y,-z
-x,-y,-z
x,1/2+y,-z
-x,y,z
x,1/2-y,z
1/2+x,1/2+y,1/2+z
1/2-x,-y,1/2+z
1/2+x,1/2-y,1/2-z
1/2-x,y,1/2-z
1/2-x,1/2-y,1/2-z
1/2+x,y,1/2-z
1/2-x,1/2+y,1/2+z
1/2+x,-y,1/2+z
loop_
_atom_site_type_symbol
_atom_site_label
_atom_site_fract_x
_atom_site_fract_y
_atom_site_fract_z
Si Si1 0.815473 0.676570 0.939382
Si Si2 0.312389 0.250000 0.326632
Si Si3 0.812590 0.003165 0.325086
Si Si4 0.313369 0.302641 0.910036
Si Si5 0.183046 0.433883 0.047919
Si Si6 0.689177 0.590790 0.104687
O O1 0.762086 0.704724 0.871728
O O2 0.802775 0.620658 0.927303
O O3 0.000000 0.687303 0.953178
O O4 0.720596 0.692825 0.007247
O O5 0.500000 0.250000 0.323787
O O6 0.250000 0.250000 0.250000
O O7 0.750000 0.020125 0.250000
O O8 0.760749 0.948378 0.338842
O O9 0.000000 0.004659 0.323490
O O10 0.756815 0.032991 0.392683
O O11 0.500000 0.302099 0.897560
O O12 0.252251 0.250000 0.886780
O O13 0.252297 0.354649 0.883722
O O14 0.000000 0.446132 0.040110
O O15 0.258594 0.430621 0.970649
O O16 0.500000 0.593018 0.103648
#
# Coordination Sequence:
#
# PCOD9536987 Si02
#       6
#    16   8  16  16  16  16
#     4   9  18  32  48  68  97 129 162 204 251 298
#     4  10  20  32  44  60  90 130 167 200 241 292
#     4  11  23  38  55  74 103 141 177 217 264 315
#     4   9  16  28  51  79 102 125 160 205 251 301
#     4  10  20  34  55  81 105 133 173 218 261 308
#     4   9  19  35  54  79 108 138 172 213 263 311
#
# _framework density 19.227720999999999
#
# number of rings (size 3 to 8) (size 9 to 14) (size 15 to 20)
#    0.000    2.364    0.909    1.636    0.000    5.818 
#    0.000    1.818    0.000    0.545    0.000    0.000 
#    0.000    0.000    0.000    0.000    0.000    0.182 
#
# Total GULP energy -245165.047865 kJ/mol
# GULP energy per Si atom -5571.932906 kJ/mol
# Density = 1.918396 g / cm^3
# Si number density = 19.227721 Si / 1000 Ang^3
#
#
#
# Elastic Constant Matrix: (Units=GPa)
#
#
# Indices 1 2 3 4 5 6 
#
# 1 12.1361 15.9082 -2.5805 0.0000 0.0000 0.0000
# 2 15.9082 103.1680 17.7657 0.0000 0.0000 0.0000
# 3 -2.5805 17.7657 22.9111 -0.0002 0.0000 0.0000
# 4 0.0000 0.0000 -0.0002 14.2709 0.0000 0.0000
# 5 0.0000 0.0000 0.0000 0.0000 16.3441 0.0000
# 6 0.0000 0.0000 0.0000 0.0000 0.0000 17.6490
#
#
#
# Elastic Compliance Matrix: (Units=1/GPa)
#
#
# Indices 1 2 3 4 5 6 
#
# 1 0.121103 -0.024262 0.032454 0.000000 0.000000 0.000000
# 2 -0.024262 0.016048 -0.015176 0.000000 0.000000 0.000000
# 3 0.032454 -0.015176 0.059070 0.000001 0.000000 0.000000
# 4 0.000000 0.000000 0.000001 0.070073 0.000000 0.000000
# 5 0.000000 0.000000 0.000000 0.000000 0.061184 0.000000
# 6 0.000000 0.000000 0.000000 0.000000 0.000000 0.056660
#
#
# Mechanical properties :
#
#
# Convention : Reuss Voigt Hill
#
# Bulk Modulus (GPa) = 5.48693 22.26688 13.87691
# Shear Modulus (GPa) = 10.89661 16.79426 13.84543
#
# Velocity S-wave (km/s) = 2.38316 2.95861 2.68634
# Velocity P-wave (km/s) = 3.22993 4.82461 4.10544
#
# Compressibility (1/GPa) = 0.18225119
#
# Stress axis : x y z
#
# Youngs Moduli (GPa) = 8.25741 62.31500 16.92897
#
# Poissons Ratio (x) = 1.51191 -0.54941
# Poissons Ratio (y) = 0.20034 0.25692
# Poissons Ratio (z) = -0.26798 0.94571
#
# Static dielectric constant tensor:
#      x y z
#    x 1.667880 0.000000 0.000000 
#    y 0.000000 1.736110 0.000000 
#    z 0.000000 0.000000 1.621930 
# 
# From -- ./inp_files/40084.got.cif
#   From: 2010.05.17/outbox.cif.g08.bks.cpg/sg74_21_cif.got.tgz:40084.got - 2010.06.03 17:57:02.
