data_PCOD9536550
_publ_section_title
;
Structure prediction by ZEFSAII (Michael W. Deem and Ramdas Pophale) SiO2 
 PCOD9536550
Probable space group: I M M A
;
_chemical_formula_sum "Si O2"
_cell_formula_units_Z 88
_cell_length_a 9.382035
_cell_length_b 23.525322
_cell_length_c 19.372270
_cell_angle_alpha 90.000000
_cell_angle_beta 90.000000
_cell_angle_gamma 90.000000
_cell_volume 4275.758213
_symmetry_space_group_name_H-M "I M M A"
_symmetry_group_IT_number 74
_symmetry_cell_setting 'orthorhombic'
loop_
_space_group_symop_operation_xyz
x,y,z
-x,1/2-y,z
x,-y,-z
-x,1/2+y,-z
-x,-y,-z
x,1/2+y,-z
-x,y,z
x,1/2-y,z
1/2+x,1/2+y,1/2+z
1/2-x,-y,1/2+z
1/2+x,1/2-y,1/2-z
1/2-x,y,1/2-z
1/2-x,1/2-y,1/2-z
1/2+x,y,1/2-z
1/2-x,1/2+y,1/2+z
1/2+x,-y,1/2+z
loop_
_atom_site_type_symbol
_atom_site_label
_atom_site_fract_x
_atom_site_fract_y
_atom_site_fract_z
Si Si1 0.167932 0.685400 0.677237
Si Si2 0.338300 0.085829 0.978028
Si Si3 0.669902 0.316772 0.873595
Si Si4 0.750000 0.110830 0.750000
Si Si5 0.168151 0.916938 0.888258
Si Si6 0.151115 0.987932 0.339006
O O1 0.179892 0.750000 0.650348
O O2 0.250000 0.683349 0.750000
O O3 0.246638 0.639923 0.630375
O O4 0.000000 0.673005 0.685860
O O5 0.500000 0.084230 0.007000
O O6 0.312366 0.147735 0.943981
O O7 0.336814 0.043706 0.912727
O O8 0.223114 0.069731 0.034679
O O9 0.500000 0.322956 0.854331
O O10 0.699137 0.250000 0.879926
O O11 0.766993 0.346544 0.814757
O O12 0.851506 0.063417 0.715496
O O13 0.000000 0.910138 0.884320
O O14 0.222095 0.966997 0.837377
O O15 0.000000 0.019082 0.335443
#
# Coordination Sequence:
#
# PCOD9536550 Si02
#       6
#    16  16  16   8  16  16
#     4  10  22  42  66  89 116 150 189 236 291 351
#     4   9  19  38  60  83 115 158 205 252 299 352
#     4   9  18  34  58  87 119 158 203 248 299 362
#     4  10  19  34  58  86 119 154 200 254 300 350
#     4  12  25  38  59  89 121 156 196 246 302 359
#     4  10  22  39  59  83 118 161 205 251 300 356
#
# _framework density 20.581144999999999
#
# number of rings (size 3 to 8) (size 9 to 14) (size 15 to 20)
#    0.000    2.000    0.000    4.636    1.273    6.182 
#    0.000    7.273    0.000    2.182    0.000    0.000 
#    0.000    0.000    0.000    0.000    0.000    0.000 
#
# Total GULP energy -245288.143578 kJ/mol
# GULP energy per Si atom -5574.730536 kJ/mol
# Density = 2.053430 g / cm^3
# Si number density = 20.581145 Si / 1000 Ang^3
#
#
#
# Elastic Constant Matrix: (Units=GPa)
#
#
# Indices 1 2 3 4 5 6 
#
# 1 136.7510 61.2151 28.7425 0.0000 0.0000 0.0000
# 2 61.2151 115.8043 23.6114 0.0000 0.0000 0.0000
# 3 28.7425 23.6114 34.6496 0.0000 0.0000 0.0000
# 4 0.0000 0.0000 0.0000 23.4027 0.0000 0.0000
# 5 0.0000 0.0000 0.0000 0.0000 12.3644 0.0000
# 6 0.0000 0.0000 0.0000 0.0000 0.0000 15.8369
#
#
#
# Elastic Compliance Matrix: (Units=1/GPa)
#
#
# Indices 1 2 3 4 5 6 
#
# 1 0.010468 -0.004370 -0.005705 0.000000 0.000000 0.000000
# 2 -0.004370 0.011853 -0.004452 0.000000 0.000000 0.000000
# 3 -0.005705 -0.004452 0.036627 0.000000 0.000000 0.000000
# 4 0.000000 0.000000 0.000000 0.042730 0.000000 0.000000
# 5 0.000000 0.000000 0.000000 0.000000 0.080878 0.000000
# 6 0.000000 0.000000 0.000000 0.000000 0.000000 0.063144
#
#
# Mechanical properties :
#
#
# Convention : Reuss Voigt Hill
#
# Bulk Modulus (GPa) = 33.45285 57.14920 45.30102
# Shear Modulus (GPa) = 17.56121 21.89653 19.72887
#
# Velocity S-wave (km/s) = 2.92424 3.26530 3.09947
# Velocity P-wave (km/s) = 5.26222 6.48416 5.90488
#
# Compressibility (1/GPa) = 0.02989282
#
# Stress axis : x y z
#
# Youngs Moduli (GPa) = 95.52924 84.36621 27.30243
#
# Poissons Ratio (x) = 0.36870 0.15577
# Poissons Ratio (y) = 0.41748 0.12155
# Poissons Ratio (z) = 0.54503 0.37559
#
# Static dielectric constant tensor:
#      x y z
#    x 1.728160 0.000000 0.000000 
#    y 0.000000 1.743710 0.000000 
#    z 0.000000 0.000000 1.795790 
# 
# From -- ./inp_files/48746.got.cif
#   From: 2010.05.17/outbox.cif.g08.bks.cpg/sg74_25_cif.got.tgz:48746.got - 2010.06.03 17:57:02.
