data_PCOD9536721
_publ_section_title
;
Structure prediction by ZEFSAII (Michael W. Deem and Ramdas Pophale) SiO2 
 PCOD9536721
Probable space group: I M M A
;
_chemical_formula_sum "Si O2"
_cell_formula_units_Z 68
_cell_length_a 17.714736
_cell_length_b 7.514550
_cell_length_c 22.956425
_cell_angle_alpha 90.000000
_cell_angle_beta 90.000000
_cell_angle_gamma 90.000000
_cell_volume 3055.919568
_symmetry_space_group_name_H-M "I M M A"
_symmetry_group_IT_number 74
_symmetry_cell_setting 'orthorhombic'
loop_
_space_group_symop_operation_xyz
x,y,z
-x,1/2-y,z
x,-y,-z
-x,1/2+y,-z
-x,-y,-z
x,1/2+y,-z
-x,y,z
x,1/2-y,z
1/2+x,1/2+y,1/2+z
1/2-x,-y,1/2+z
1/2+x,1/2-y,1/2-z
1/2-x,y,1/2-z
1/2-x,1/2-y,1/2-z
1/2+x,y,1/2-z
1/2-x,1/2+y,1/2+z
1/2+x,-y,1/2+z
loop_
_atom_site_type_symbol
_atom_site_label
_atom_site_fract_x
_atom_site_fract_y
_atom_site_fract_z
Si Si1 0.131657 0.457673 0.592583
Si Si2 0.582318 0.038768 0.338025
Si Si3 0.000000 0.250000 0.428886
Si Si4 0.833096 0.533620 0.725626
Si Si5 0.702881 0.958738 0.436530
O O1 0.117299 0.250000 0.575167
O O2 0.065901 0.592018 0.574925
O O3 0.145035 0.461716 0.662582
O O4 0.211975 0.528866 0.568349
O O5 0.500000 0.968410 0.355301
O O6 0.576137 0.250000 0.330857
O O7 0.609228 0.971390 0.275343
O O8 0.646876 0.014532 0.385724
O O9 0.834736 0.750000 0.720948
O O10 0.750000 0.485929 0.750000
O O11 0.711694 0.750000 0.430126
O O12 0.670831 0.000000 0.500000
#
# Coordination Sequence:
#
# PCOD9536721 Si02
#       5
#    16  16   4  16  16
#     4  11  25  43  68 103 132 177 234 274 340 417
#     4  10  22  38  63 101 139 177 224 271 332 402
#     4  12  26  44  72  94 144 176 212 292 356 388
#     4  10  19  35  65  98 136 183 222 266 334 402
#     4  11  25  44  70  94 126 174 228 280 338 406
#
# _framework density 22.251895999999999
#
# number of rings (size 3 to 8) (size 9 to 14) (size 15 to 20)
#    0.000    1.412    3.529    1.059    4.941    2.353 
#    0.000    0.588    0.000    0.000    0.000    0.000 
#    0.000    0.000    0.000    0.000    0.000    0.000 
#
# Total GULP energy -189543.470172 kJ/mol
# GULP energy per Si atom -5574.807946 kJ/mol
# Density = 2.220125 g / cm^3
# Si number density = 22.251896 Si / 1000 Ang^3
#
#
#
# Elastic Constant Matrix: (Units=GPa)
#
#
# Indices 1 2 3 4 5 6 
#
# 1 126.9135 32.7929 2.7233 0.0000 0.0000 0.0000
# 2 32.7929 104.9322 -11.0316 0.0000 0.0000 0.0000
# 3 2.7233 -11.0316 82.1642 0.0000 0.0000 0.0000
# 4 0.0000 0.0000 0.0000 16.3205 0.0000 0.0000
# 5 0.0000 0.0000 0.0000 0.0000 -27.4988 0.0000
# 6 0.0000 0.0000 0.0000 0.0000 0.0000 18.7852
#
#
#
# Elastic Compliance Matrix: (Units=1/GPa)
#
#
# Indices 1 2 3 4 5 6 
#
# 1 0.008606 -0.002758 -0.000656 0.000000 0.000000 0.000000
# 2 -0.002758 0.010551 0.001508 0.000000 0.000000 0.000000
# 3 -0.000656 0.001508 0.012395 0.000000 0.000000 0.000000
# 4 0.000000 0.000000 0.000000 0.061273 0.000000 0.000000
# 5 0.000000 0.000000 0.000000 0.000000 -0.036365 0.000000
# 6 0.000000 0.000000 0.000000 0.000000 0.000000 0.053233
#
#
# Mechanical properties :
#
#
# Convention : Reuss Voigt Hill
#
# Bulk Modulus (GPa) = 36.04973 40.33103 38.19038
# Shear Modulus (GPa) = 40.73275 20.82307 30.77791
#
# Velocity S-wave (km/s) = 4.28311 3.06238 3.72312
# Velocity P-wave (km/s) = 6.37934 5.53790 5.97346
#
# Compressibility (1/GPa) = 0.02773946
#
# Stress axis : x y z
#
# Youngs Moduli (GPa) = 116.19516 94.78159 80.67808
#
# Poissons Ratio (x) = 0.26145 0.05289
# Poissons Ratio (y) = 0.32052 -0.12166
# Poissons Ratio (z) = 0.07618 -0.14293
#
# Static dielectric constant tensor:
#      x y z
#    x 1.889300 0.000000 0.000000 
#    y 0.000000 1.834710 0.000000 
#    z 0.000000 0.000000 1.920290 
# 
# From -- ./inp_files/48137.got.cif
#   From: 2010.05.17/outbox.cif.g08.bks.cpg/sg74_25_cif.got.tgz:48137.got - 2010.06.03 17:57:02.
