data_PCOD9536127
_publ_section_title
;
Structure prediction by ZEFSAII (Michael W. Deem and Ramdas Pophale) SiO2 
 PCOD9536127
Probable space group: I M M A
;
_chemical_formula_sum "Si O2"
_cell_formula_units_Z 104
_cell_length_a 8.787601
_cell_length_b 20.779909
_cell_length_c 30.830953
_cell_angle_alpha 90.000000
_cell_angle_beta 90.000000
_cell_angle_gamma 90.000000
_cell_volume 5629.903102
_symmetry_space_group_name_H-M "I M M A"
_symmetry_group_IT_number 74
_symmetry_cell_setting 'orthorhombic'
loop_
_space_group_symop_operation_xyz
x,y,z
-x,1/2-y,z
x,-y,-z
-x,1/2+y,-z
-x,-y,-z
x,1/2+y,-z
-x,y,z
x,1/2-y,z
1/2+x,1/2+y,1/2+z
1/2-x,-y,1/2+z
1/2+x,1/2-y,1/2-z
1/2-x,y,1/2-z
1/2-x,1/2-y,1/2-z
1/2+x,y,1/2-z
1/2-x,1/2+y,1/2+z
1/2+x,-y,1/2+z
loop_
_atom_site_type_symbol
_atom_site_label
_atom_site_fract_x
_atom_site_fract_y
_atom_site_fract_z
Si Si1 0.317952 0.985935 0.890388
Si Si2 0.828284 0.250000 0.457117
Si Si3 0.825384 0.149595 0.794479
Si Si4 0.230404 0.250000 0.556947
Si Si5 0.682021 0.611731 0.540539
Si Si6 0.685073 0.611321 0.052550
Si Si7 0.161622 0.750000 0.347307
Si Si8 0.321547 0.504649 0.703682
O O1 0.500000 0.976853 0.892557
O O2 0.233009 0.935743 0.921384
O O3 0.262435 0.976736 0.840887
O O4 0.286616 0.056790 0.911335
O O5 0.841036 0.250000 0.509460
O O6 0.738687 0.315895 0.447702
O O7 0.000000 0.250000 0.439054
O O8 0.750000 0.171663 0.750000
O O9 0.747065 0.186206 0.833352
O O10 0.000000 0.166969 0.794005
O O11 0.810623 0.073099 0.796734
O O12 0.288567 0.175923 0.558515
O O13 0.145379 0.250000 0.601915
O O14 0.500000 0.610892 0.534377
O O15 0.768212 0.590445 0.496149
O O16 0.500000 0.625240 0.053372
O O17 0.000000 0.750000 0.324595
O O18 0.500000 0.522185 0.702198
O O19 0.250000 0.525964 0.750000
#
# Coordination Sequence:
#
# PCOD9536127 Si02
#       8
#    16   8  16   8  16  16   8  16
#     4  11  22  36  56  82 112 148 188 229 276 330
#     4  10  20  39  61  80 108 144 180 216 262 325
#     4  10  21  36  50  66  91 125 167 217 273 324
#     4  10  19  33  52  73  99 138 185 229 270 316
#     4  11  22  36  56  84 115 146 183 227 275 326
#     4  10  20  35  54  76 107 149 194 235 278 330
#     4  12  21  30  47  69  93 126 173 223 269 317
#     4  10  21  37  56  77 103 136 175 223 276 330
#
# _framework density 18.472785999999999
#
# number of rings (size 3 to 8) (size 9 to 14) (size 15 to 20)
#    0.000    1.538    0.000    7.154    0.000    6.154 
#    0.000    7.692    0.000    0.000    0.000    0.538 
#    0.000    0.000    0.000    0.000    0.000    0.000 
#
# Total GULP energy -289748.583250 kJ/mol
# GULP energy per Si atom -5572.088139 kJ/mol
# Density = 1.843074 g / cm^3
# Si number density = 18.472786 Si / 1000 Ang^3
#
#
#
# Elastic Constant Matrix: (Units=GPa)
#
#
# Indices 1 2 3 4 5 6 
#
# 1 84.7889 25.9027 38.2997 0.0000 0.0000 0.0000
# 2 25.9027 68.8621 34.3185 0.0000 0.0000 0.0000
# 3 38.2997 34.3185 113.8249 0.0000 0.0000 0.0000
# 4 0.0000 0.0000 0.0000 1183.1571 0.0000 0.0000
# 5 0.0000 0.0000 0.0000 0.0000 14.4761 0.0000
# 6 0.0000 0.0000 0.0000 0.0000 0.0000 23.2378
#
#
#
# Elastic Compliance Matrix: (Units=1/GPa)
#
#
# Indices 1 2 3 4 5 6 
#
# 1 0.014624 -0.003588 -0.003839 0.000000 0.000000 0.000000
# 2 -0.003588 0.017970 -0.004211 0.000000 0.000000 0.000000
# 3 -0.003839 -0.004211 0.011347 0.000000 0.000000 0.000000
# 4 0.000000 0.000000 0.000000 0.000845 0.000000 0.000000
# 5 0.000000 0.000000 0.000000 0.000000 0.069079 0.000000
# 6 0.000000 0.000000 0.000000 0.000000 0.000000 0.043033
#
#
# Mechanical properties :
#
#
# Convention : Reuss Voigt Hill
#
# Bulk Modulus (GPa) = 48.38930 51.61309 50.00120
# Shear Modulus (GPa) = 26.72909 255.43786 141.08348
#
# Velocity S-wave (km/s) = 3.80800 11.77192 8.74868
# Velocity P-wave (km/s) = 6.75176 14.58669 11.36569
#
# Compressibility (1/GPa) = 0.02066573
#
# Stress axis : x y z
#
# Youngs Moduli (GPa) = 68.38013 55.64895 88.13106
#
# Poissons Ratio (x) = 0.19965 0.33834
# Poissons Ratio (y) = 0.24533 0.37110
# Poissons Ratio (z) = 0.26251 0.23432
#
# Static dielectric constant tensor:
#      x y z
#    x 1.635900 0.000000 0.000000 
#    y 0.000000 1.655670 0.000000 
#    z 0.000000 0.000000 1.626420 
# 
# From -- ./inp_files/64564.got.cif
#   From: 2010.05.17/outbox.cif.g08.bks.cpg/sg74_33_cif.got.tgz:64564.got - 2010.06.03 17:57:02.
