data_PCOD9536404
_publ_section_title
;
Structure prediction by ZEFSAII (Michael W. Deem and Ramdas Pophale) SiO2 
 PCOD9536404
Probable space group: I M M A
;
_chemical_formula_sum "Si O2"
_cell_formula_units_Z 80
_cell_length_a 20.580715
_cell_length_b 18.405639
_cell_length_c 10.588360
_cell_angle_alpha 90.000000
_cell_angle_beta 90.000000
_cell_angle_gamma 90.000000
_cell_volume 4010.883587
_symmetry_space_group_name_H-M "I M M A"
_symmetry_group_IT_number 74
_symmetry_cell_setting 'orthorhombic'
loop_
_space_group_symop_operation_xyz
x,y,z
-x,1/2-y,z
x,-y,-z
-x,1/2+y,-z
-x,-y,-z
x,1/2+y,-z
-x,y,z
x,1/2-y,z
1/2+x,1/2+y,1/2+z
1/2-x,-y,1/2+z
1/2+x,1/2-y,1/2-z
1/2-x,y,1/2-z
1/2-x,1/2-y,1/2-z
1/2+x,y,1/2-z
1/2-x,1/2+y,1/2+z
1/2+x,-y,1/2+z
loop_
_atom_site_type_symbol
_atom_site_label
_atom_site_fract_x
_atom_site_fract_y
_atom_site_fract_z
Si Si1 0.864870 0.897551 0.814677
Si Si2 0.768617 0.335829 0.983839
Si Si3 0.500000 0.664353 0.991229
Si Si4 0.798627 0.467328 0.864957
Si Si5 0.500000 0.833557 0.683446
Si Si6 0.866732 0.587898 0.516714
O O1 0.804538 0.857843 0.884468
O O2 0.861403 0.891097 0.664641
O O3 0.933048 0.867817 0.861879
O O4 0.860372 0.983199 0.840670
O O5 0.766885 0.250000 0.970144
O O6 0.697431 0.371870 0.964006
O O7 0.810061 0.382459 0.882949
O O8 0.500000 0.750000 0.025260
O O9 0.500000 0.661183 0.837081
O O10 0.565849 0.622885 0.031908
O O11 0.750000 0.481990 0.750000
O O12 0.774012 0.500000 0.000000
O O13 0.500000 0.750000 0.649035
O O14 0.867895 0.500000 0.500000
#
# Coordination Sequence:
#
# PCOD9536404 Si02
#       6
#    16  16   8  16   8  16
#     4  10  19  34  54  77 108 146 187 233 282 337
#     4  11  22  34  53  80 109 145 187 233 285 337
#     4   9  19  33  49  76 113 148 182 226 284 341
#     4  10  20  37  57  81 112 146 188 233 280 336
#     4   9  18  31  50  78 110 142 181 232 286 337
#     4  11  20  33  54  80 111 147 189 234 280 335
#
# _framework density 19.945727999999999
#
# number of rings (size 3 to 8) (size 9 to 14) (size 15 to 20)
#    0.000    1.800    0.000    7.500    0.000    3.600 
#    0.000    4.500    0.000    0.000    0.000    0.000 
#    0.000   14.400    0.000    1.600    0.000    0.000 
#
# Total GULP energy -222878.265015 kJ/mol
# GULP energy per Si atom -5571.956625 kJ/mol
# Density = 1.990033 g / cm^3
# Si number density = 19.945728 Si / 1000 Ang^3
#
#
#
# Elastic Constant Matrix: (Units=GPa)
#
#
# Indices 1 2 3 4 5 6 
#
# 1 114.4969 67.8612 -2.4107 0.0000 0.0000 0.0000
# 2 67.8612 175.1374 -8.8454 0.0000 0.0000 0.0000
# 3 -2.4107 -8.8454 42.8340 0.0000 0.0000 0.0000
# 4 0.0000 0.0000 0.0000 19.4699 0.0000 0.0000
# 5 0.0000 0.0000 0.0000 0.0000 1.9686 0.0000
# 6 0.0000 0.0000 0.0000 0.0000 0.0000 32.9701
#
#
#
# Elastic Compliance Matrix: (Units=1/GPa)
#
#
# Indices 1 2 3 4 5 6 
#
# 1 0.011341 -0.004408 -0.000272 0.000000 0.000000 0.000000
# 2 -0.004408 0.007483 0.001297 0.000000 0.000000 0.000000
# 3 -0.000272 0.001297 0.023599 0.000000 0.000000 0.000000
# 4 0.000000 0.000000 0.000000 0.051361 0.000000 0.000000
# 5 0.000000 0.000000 0.000000 0.000000 0.507978 0.000000
# 6 0.000000 0.000000 0.000000 0.000000 0.000000 0.030330
#
#
# Mechanical properties :
#
#
# Convention : Reuss Voigt Hill
#
# Bulk Modulus (GPa) = 28.04495 49.51985 38.78240
# Shear Modulus (GPa) = 7.68352 29.27260 18.47806
#
# Velocity S-wave (km/s) = 1.96484 3.83510 3.04701
# Velocity P-wave (km/s) = 4.38618 6.67022 5.64493
#
# Compressibility (1/GPa) = 0.03565705
#
# Stress axis : x y z
#
# Youngs Moduli (GPa) = 88.17810 133.63107 42.37556
#
# Poissons Ratio (x) = 0.58904 0.01153
# Poissons Ratio (y) = 0.38869 -0.05497
# Poissons Ratio (z) = 0.02398 -0.17335
#
# Static dielectric constant tensor:
#      x y z
#    x 1.754610 0.000000 0.000000 
#    y 0.000000 1.732160 0.000000 
#    z 0.000000 0.000000 1.776460 
# 
# From -- ./inp_files/23614.got.cif
#   From: 2010.05.17/outbox.cif.g08.bks.cpg/sg74_12_cif.got.tgz:23614.got - 2010.06.03 17:57:02.
