data_PCOD9536527
_publ_section_title
;
Structure prediction by ZEFSAII (Michael W. Deem and Ramdas Pophale) SiO2 
 PCOD9536527
Probable space group: I M M A
;
_chemical_formula_sum "Si O2"
_cell_formula_units_Z 104
_cell_length_a 10.021595
_cell_length_b 27.336026
_cell_length_c 22.383115
_cell_angle_alpha 90.000000
_cell_angle_beta 90.000000
_cell_angle_gamma 90.000000
_cell_volume 6131.867370
_symmetry_space_group_name_H-M "I M M A"
_symmetry_group_IT_number 74
_symmetry_cell_setting 'orthorhombic'
loop_
_space_group_symop_operation_xyz
x,y,z
-x,1/2-y,z
x,-y,-z
-x,1/2+y,-z
-x,-y,-z
x,1/2+y,-z
-x,y,z
x,1/2-y,z
1/2+x,1/2+y,1/2+z
1/2-x,-y,1/2+z
1/2+x,1/2-y,1/2-z
1/2-x,y,1/2-z
1/2-x,1/2-y,1/2-z
1/2+x,y,1/2-z
1/2-x,1/2+y,1/2+z
1/2+x,-y,1/2+z
loop_
_atom_site_type_symbol
_atom_site_label
_atom_site_fract_x
_atom_site_fract_y
_atom_site_fract_z
Si Si1 0.500000 0.806324 0.346113
Si Si2 0.158792 0.250000 0.191762
Si Si3 0.661961 0.451985 0.579863
Si Si4 0.147266 0.695291 0.489431
Si Si5 0.500000 0.307855 0.797259
Si Si6 0.274672 0.641672 0.126633
Si Si7 0.339686 0.561344 0.560376
Si Si8 0.659583 0.332354 0.405822
O O1 0.500000 0.750000 0.364526
O O2 0.500000 0.808871 0.274175
O O3 0.632082 0.832137 0.369392
O O4 0.250000 0.250000 0.250000
O O5 0.186377 0.201932 0.151070
O O6 0.000000 0.250000 0.205809
O O7 0.500000 0.448078 0.588203
O O8 0.740900 0.415710 0.623408
O O9 0.690138 0.436503 0.510705
O O10 0.704638 0.508647 0.584792
O O11 0.156188 0.750000 0.463382
O O12 0.161293 0.657524 0.436002
O O13 0.261252 0.688921 0.538008
O O14 0.000000 0.690291 0.517413
O O15 0.500000 0.250000 0.815385
O O16 0.371508 0.336352 0.823067
O O17 0.500000 0.559467 0.563249
O O18 0.298816 0.610391 0.595085
O O19 0.500000 0.330399 0.416307
#
# Coordination Sequence:
#
# PCOD9536527 Si02
#       8
#     8   8  16  16   8  16  16  16
#     4  11  24  38  56  77  98 142 194 236 273 313
#     4  10  22  38  58  86 114 152 189 222 271 327
#     4   9  16  29  51  82 108 140 179 218 275 330
#     4  11  22  33  48  77 120 150 169 212 289 335
#     4  11  24  42  54  69 110 152 184 226 283 337
#     4  12  21  35  55  79 106 141 188 233 267 330
#     4   8  15  28  50  80 116 139 168 222 276 325
#     4  10  19  34  57  86 110 140 185 232 260 318
#
# _framework density 16.960574999999999
#
# number of rings (size 3 to 8) (size 9 to 14) (size 15 to 20)
#    0.000    1.846    3.846    2.769    1.077    1.846 
#    0.000    0.000    1.692    3.692    0.000    0.000 
#    0.000    0.000    0.000    0.000    0.000    0.000 
#
# Total GULP energy -289815.074489 kJ/mol
# GULP energy per Si atom -5573.366817 kJ/mol
# Density = 1.692197 g / cm^3
# Si number density = 16.960575 Si / 1000 Ang^3
#
#
#
# Elastic Constant Matrix: (Units=GPa)
#
#
# Indices 1 2 3 4 5 6 
#
# 1 52.2680 25.4396 13.1433 0.0000 0.0000 0.0000
# 2 25.4396 138.9669 22.1905 0.0000 0.0000 0.0000
# 3 13.1433 22.1905 40.0215 0.0000 0.0000 0.0000
# 4 0.0000 0.0000 0.0000 -2.8569 0.0000 0.0000
# 5 0.0000 0.0000 0.0000 0.0000 44.8550 0.0000
# 6 0.0000 0.0000 0.0000 0.0000 0.0000 15.2501
#
#
#
# Elastic Compliance Matrix: (Units=1/GPa)
#
#
# Indices 1 2 3 4 5 6 
#
# 1 0.022051 -0.003160 -0.005489 0.000000 0.000000 0.000000
# 2 -0.003160 0.008348 -0.003591 0.000000 0.000000 0.000000
# 3 -0.005489 -0.003591 0.028780 0.000000 0.000000 0.000000
# 4 0.000000 0.000000 0.000000 -0.350027 0.000000 0.000000
# 5 0.000000 0.000000 0.000000 0.000000 0.022294 0.000000
# 6 0.000000 0.000000 0.000000 0.000000 0.000000 0.065573
#
#
# Mechanical properties :
#
#
# Convention : Reuss Voigt Hill
#
# Bulk Modulus (GPa) = 28.81993 39.20035 34.01014
# Shear Modulus (GPa) = -29.95182 22.81517 -3.56832
#
# Velocity S-wave (km/s) = -4.20690 3.67166 -1.45205
# Velocity P-wave (km/s) = 2.56284 6.41386 4.15749
#
# Compressibility (1/GPa) = 0.03469821
#
# Stress axis : x y z
#
# Youngs Moduli (GPa) = 45.35027 119.79149 34.74599
#
# Poissons Ratio (x) = 0.37855 0.19073
# Poissons Ratio (y) = 0.14331 0.12477
# Poissons Ratio (z) = 0.24894 0.43015
#
# Static dielectric constant tensor:
#      x y z
#    x 1.588790 0.000000 0.000000 
#    y 0.000000 1.622920 0.000000 
#    z 0.000000 0.000000 1.544810 
# 
# From -- ./inp_files/57669.got.cif
#   From: 2010.05.17/outbox.cif.g08.bks.cpg/sg74_29_cif.got.tgz:57669.got - 2010.06.03 17:57:02.
