data_PCOD9536746
_publ_section_title
;
Structure prediction by ZEFSAII (Michael W. Deem and Ramdas Pophale) SiO2 
 PCOD9536746
Probable space group: I M M A
;
_chemical_formula_sum "Si O2"
_cell_formula_units_Z 104
_cell_length_a 9.320316
_cell_length_b 22.041360
_cell_length_c 25.914697
_cell_angle_alpha 90.000000
_cell_angle_beta 90.000000
_cell_angle_gamma 90.000000
_cell_volume 5323.719444
_symmetry_space_group_name_H-M "I M M A"
_symmetry_group_IT_number 74
_symmetry_cell_setting 'orthorhombic'
loop_
_space_group_symop_operation_xyz
x,y,z
-x,1/2-y,z
x,-y,-z
-x,1/2+y,-z
-x,-y,-z
x,1/2+y,-z
-x,y,z
x,1/2-y,z
1/2+x,1/2+y,1/2+z
1/2-x,-y,1/2+z
1/2+x,1/2-y,1/2-z
1/2-x,y,1/2-z
1/2-x,1/2-y,1/2-z
1/2+x,y,1/2-z
1/2-x,1/2+y,1/2+z
1/2+x,-y,1/2+z
loop_
_atom_site_type_symbol
_atom_site_label
_atom_site_fract_x
_atom_site_fract_y
_atom_site_fract_z
Si Si1 0.848685 0.817523 0.817482
Si Si2 0.328867 0.639992 0.908616
Si Si3 0.174032 0.383012 0.606551
Si Si4 0.750000 0.577737 0.750000
Si Si5 0.170556 0.821403 0.011813
Si Si6 0.665074 0.177142 0.699708
Si Si7 0.828771 0.483320 0.357121
O O1 0.843862 0.750000 0.794899
O O2 0.717304 0.826107 0.856236
O O3 0.851717 0.872010 0.776746
O O4 0.000000 0.821395 0.847684
O O5 0.500000 0.643430 0.917026
O O6 0.283931 0.570671 0.895601
O O7 0.241961 0.666178 0.956463
O O8 0.244657 0.362110 0.553157
O O9 0.242173 0.340553 0.650337
O O10 0.218774 0.451035 0.623576
O O11 0.000000 0.379015 0.604704
O O12 0.791679 0.535765 0.701562
O O13 0.188087 0.750000 0.024807
O O14 0.000000 0.834365 0.011914
O O15 0.500000 0.154840 0.697215
O O16 0.658217 0.250000 0.703054
O O17 0.750000 0.154042 0.750000
O O18 0.000000 0.484093 0.358924
#
# Coordination Sequence:
#
# PCOD9536746 Si02
#       7
#    16  16  16   8  16  16  16
#     4  10  20  34  55  86 122 157 196 244 294 342
#     4  10  21  39  62  87 118 156 197 239 290 350
#     4  11  23  39  60  87 118 154 196 242 293 349
#     4  10  19  36  58  82 115 160 202 240 286 348
#     4  11  24  42  63  88 119 151 189 242 299 355
#     4  10  21  38  59  85 117 152 192 242 299 355
#     4   9  21  39  57  83 119 157 196 242 291 342
#
# _framework density 19.535215000000001
#
# number of rings (size 3 to 8) (size 9 to 14) (size 15 to 20)
#    0.000    1.846    0.000    3.462    1.077    7.385 
#    0.000   11.538    0.000    0.000    0.000    0.000 
#    0.000    0.000    0.000    0.000    0.000    0.000 
#
# Total GULP energy -289868.555676 kJ/mol
# GULP energy per Si atom -5574.395301 kJ/mol
# Density = 1.949075 g / cm^3
# Si number density = 19.535215 Si / 1000 Ang^3
#
#
#
# Elastic Constant Matrix: (Units=GPa)
#
#
# Indices 1 2 3 4 5 6 
#
# 1 103.2479 41.2386 46.7208 0.0000 0.0000 0.0000
# 2 41.2386 87.0831 41.6344 0.0000 0.0000 0.0000
# 3 46.7208 41.6344 83.8566 0.0000 0.0000 0.0000
# 4 0.0000 0.0000 0.0000 28.2549 0.0000 0.0000
# 5 0.0000 0.0000 0.0000 0.0000 27.1040 0.0000
# 6 0.0000 0.0000 0.0000 0.0000 0.0000 40.8971
#
#
#
# Elastic Compliance Matrix: (Units=1/GPa)
#
#
# Indices 1 2 3 4 5 6 
#
# 1 0.013828 -0.003757 -0.005839 0.000000 0.000000 0.000000
# 2 -0.003757 0.016078 -0.005890 0.000000 0.000000 0.000000
# 3 -0.005839 -0.005890 0.018103 0.000000 0.000000 0.000000
# 4 0.000000 0.000000 0.000000 0.035392 0.000000 0.000000
# 5 0.000000 0.000000 0.000000 0.000000 0.036895 0.000000
# 6 0.000000 0.000000 0.000000 0.000000 0.000000 0.024452
#
#
# Mechanical properties :
#
#
# Convention : Reuss Voigt Hill
#
# Bulk Modulus (GPa) = 58.69295 59.26390 58.97843
# Shear Modulus (GPa) = 27.56372 28.89081 28.22726
#
# Velocity S-wave (km/s) = 3.76037 3.84983 3.80536
# Velocity P-wave (km/s) = 6.99741 7.08268 7.04018
#
# Compressibility (1/GPa) = 0.01703782
#
# Stress axis : x y z
#
# Youngs Moduli (GPa) = 72.31594 62.19631 55.24057
#
# Poissons Ratio (x) = 0.23365 0.32256
# Poissons Ratio (y) = 0.27167 0.32535
# Poissons Ratio (z) = 0.42227 0.36632
#
# Static dielectric constant tensor:
#      x y z
#    x 1.695130 0.000000 0.000000 
#    y 0.000000 1.715870 0.000000 
#    z 0.000000 0.000000 1.679790 
# 
# From -- ./inp_files/64525.got.cif
#   From: 2010.05.17/outbox.cif.g08.bks.cpg/sg74_33_cif.got.tgz:64525.got - 2010.06.03 17:57:02.
