data_PCOD9536045
_publ_section_title
;
Structure prediction by ZEFSAII (Michael W. Deem and Ramdas Pophale) SiO2 
 PCOD9536045
Probable space group: I M M A
;
_chemical_formula_sum "Si O2"
_cell_formula_units_Z 88
_cell_length_a 20.422645
_cell_length_b 9.192812
_cell_length_c 24.565066
_cell_angle_alpha 90.000000
_cell_angle_beta 90.000000
_cell_angle_gamma 90.000000
_cell_volume 4611.883223
_symmetry_space_group_name_H-M "I M M A"
_symmetry_group_IT_number 74
_symmetry_cell_setting 'orthorhombic'
loop_
_space_group_symop_operation_xyz
x,y,z
-x,1/2-y,z
x,-y,-z
-x,1/2+y,-z
-x,-y,-z
x,1/2+y,-z
-x,y,z
x,1/2-y,z
1/2+x,1/2+y,1/2+z
1/2-x,-y,1/2+z
1/2+x,1/2-y,1/2-z
1/2-x,y,1/2-z
1/2-x,1/2-y,1/2-z
1/2+x,y,1/2-z
1/2-x,1/2+y,1/2+z
1/2+x,-y,1/2+z
loop_
_atom_site_type_symbol
_atom_site_label
_atom_site_fract_x
_atom_site_fract_y
_atom_site_fract_z
Si Si1 0.392197 0.088274 0.220839
Si Si2 0.295945 0.085405 0.633105
Si Si3 0.250000 0.501432 0.250000
Si Si4 0.923510 0.080075 0.613895
Si Si5 0.806077 0.423777 0.442787
Si Si6 0.426526 0.078094 0.345557
O O1 0.411685 0.250000 0.202137
O O2 0.422894 0.060693 0.279973
O O3 0.314011 0.085099 0.230427
O O4 0.411935 0.971472 0.175986
O O5 0.292907 0.250000 0.612217
O O6 0.274362 0.085575 0.696558
O O7 0.246296 0.982258 0.600904
O O8 0.368657 0.018833 0.630383
O O9 0.905390 0.250000 0.608058
O O10 0.000000 0.063500 0.600689
O O11 0.876510 0.981505 0.577418
O O12 0.791238 0.500000 0.500000
O O13 0.804991 0.250000 0.446497
O O14 0.500000 0.042080 0.363970
O O15 0.414216 0.250000 0.355930
#
# Coordination Sequence:
#
# PCOD9536045 Si02
#       6
#    16  16   8  16  16  16
#     4  10  19  32  54  83 120 162 205 248 296 354
#     4  11  22  37  60  91 125 159 200 248 300 359
#     4  10  20  32  56  88 126 160 198 250 298 358
#     4  11  24  40  59  86 121 158 200 250 303 357
#     4  12  26  45  68  90 117 155 202 254 304 359
#     4   9  19  35  55  84 124 165 204 245 294 356
#
# _framework density 19.081140999999999
#
# number of rings (size 3 to 8) (size 9 to 14) (size 15 to 20)
#    0.000    1.455    1.818    3.818    0.000    7.273 
#    0.000    0.000    0.000    0.545    0.000    0.000 
#    0.000    0.000    0.000    0.000    0.000    0.000 
#
# Total GULP energy -245788.025895 kJ/mol
# GULP energy per Si atom -5586.091498 kJ/mol
# Density = 1.903771 g / cm^3
# Si number density = 19.081141 Si / 1000 Ang^3
#
#
#
# Elastic Constant Matrix: (Units=GPa)
#
#
# Indices 1 2 3 4 5 6 
#
# 1 118.2269 58.5780 23.1124 0.0000 0.0000 0.0000
# 2 58.5780 151.5076 44.9307 0.0000 0.0000 0.0000
# 3 23.1124 44.9307 59.3668 0.0000 0.0000 0.0000
# 4 0.0000 0.0000 0.0000 26.4220 0.0000 0.0000
# 5 0.0000 0.0000 0.0000 0.0000 10.9362 0.0000
# 6 0.0000 0.0000 0.0000 0.0000 0.0000 11.6810
#
#
#
# Elastic Compliance Matrix: (Units=1/GPa)
#
#
# Indices 1 2 3 4 5 6 
#
# 1 0.010542 -0.003686 -0.001314 0.000000 0.000000 0.000000
# 2 -0.003686 0.009799 -0.005981 0.000000 0.000000 0.000000
# 3 -0.001314 -0.005981 0.021883 0.000000 0.000000 0.000000
# 4 0.000000 0.000000 0.000000 0.037847 0.000000 0.000000
# 5 0.000000 0.000000 0.000000 0.000000 0.091439 0.000000
# 6 0.000000 0.000000 0.000000 0.000000 0.000000 0.085609
#
#
# Mechanical properties :
#
#
# Convention : Reuss Voigt Hill
#
# Bulk Modulus (GPa) = 49.35721 64.70484 57.03102
# Shear Modulus (GPa) = 17.49254 23.30654 20.39954
#
# Velocity S-wave (km/s) = 3.03106 3.49871 3.27325
# Velocity P-wave (km/s) = 6.17843 7.09262 6.65125
#
# Compressibility (1/GPa) = 0.02026046
#
# Stress axis : x y z
#
# Youngs Moduli (GPa) = 94.86290 102.04845 45.69746
#
# Poissons Ratio (x) = 0.37614 0.06006
# Poissons Ratio (y) = 0.34966 0.27334
# Poissons Ratio (z) = 0.12468 0.61039
#
# Static dielectric constant tensor:
#      x y z
#    x 1.668470 0.000000 0.000000 
#    y 0.000000 1.654410 0.000000 
#    z 0.000000 0.000000 1.653190 
# 
# From -- ./inp_files/61446.got.cif
#   From: 2010.05.17/outbox.cif.g08.bks.cpg/sg74_31_cif.got.tgz:61446.got - 2010.06.03 17:57:02.
