data_PCOD9536691
_publ_section_title
;
Structure prediction by ZEFSAII (Michael W. Deem and Ramdas Pophale) SiO2 
 PCOD9536691
Probable space group: I M M A
;
_chemical_formula_sum "Si O2"
_cell_formula_units_Z 96
_cell_length_a 14.451160
_cell_length_b 15.506701
_cell_length_c 22.229846
_cell_angle_alpha 90.000000
_cell_angle_beta 90.000000
_cell_angle_gamma 90.000000
_cell_volume 4981.482127
_symmetry_space_group_name_H-M "I M M A"
_symmetry_group_IT_number 74
_symmetry_cell_setting 'orthorhombic'
loop_
_space_group_symop_operation_xyz
x,y,z
-x,1/2-y,z
x,-y,-z
-x,1/2+y,-z
-x,-y,-z
x,1/2+y,-z
-x,y,z
x,1/2-y,z
1/2+x,1/2+y,1/2+z
1/2-x,-y,1/2+z
1/2+x,1/2-y,1/2-z
1/2-x,y,1/2-z
1/2-x,1/2-y,1/2-z
1/2+x,y,1/2-z
1/2-x,1/2+y,1/2+z
1/2+x,-y,1/2+z
loop_
_atom_site_type_symbol
_atom_site_label
_atom_site_fract_x
_atom_site_fract_y
_atom_site_fract_z
Si Si1 0.891061 0.981653 0.833851
Si Si2 0.289720 0.655241 0.315511
Si Si3 0.101656 0.618623 0.373997
Si Si4 0.394975 0.565820 0.806507
Si Si5 0.896860 0.898385 0.512950
Si Si6 0.751157 0.848513 0.614048
O O1 0.877531 0.959029 0.762856
O O2 0.830873 0.916951 0.874706
O O3 0.000000 0.976029 0.846635
O O4 0.853689 0.079160 0.839733
O O5 0.334453 0.750000 0.312757
O O6 0.250000 0.632023 0.250000
O O7 0.195070 0.660040 0.351959
O O8 0.110567 0.518774 0.350402
O O9 0.101505 0.635388 0.445058
O O10 0.000000 0.645946 0.350346
O O11 0.500000 0.597926 0.810158
O O12 0.321437 0.633136 0.830993
O O13 0.814584 0.866129 0.555102
O O14 0.000000 0.882854 0.539825
O O15 0.887235 0.000000 0.500000
O O16 0.718602 0.750000 0.613617
#
# Coordination Sequence:
#
# PCOD9536691 Si02
#       6
#    16  16  16  16  16  16
#     4  11  23  41  61  82 118 165 214 261 306 356
#     4  11  21  35  59  91 125 159 199 250 313 375
#     4  10  19  35  61  91 124 157 190 235 300 376
#     4  10  19  35  60  88 122 162 198 241 303 370
#     4  10  19  35  61  89 120 156 192 237 302 375
#     4  12  24  38  59  89 126 164 208 257 305 359
#
# _framework density 19.271373000000001
#
# number of rings (size 3 to 8) (size 9 to 14) (size 15 to 20)
#    0.000    1.333    5.000    1.000    0.000    4.333 
#    0.000    5.000    0.000    4.500    0.000    4.667 
#    0.000    0.000    0.000    0.000    0.000    0.000 
#
# Total GULP energy -267745.633585 kJ/mol
# GULP energy per Si atom -5578.034033 kJ/mol
# Density = 1.922751 g / cm^3
# Si number density = 19.271373 Si / 1000 Ang^3
#
#
#
# Elastic Constant Matrix: (Units=GPa)
#
#
# Indices 1 2 3 4 5 6 
#
# 1 117.1698 55.9606 48.6894 0.0000 0.0000 0.0000
# 2 55.9606 108.2305 18.3447 0.0000 0.0000 0.0000
# 3 48.6894 18.3447 68.8382 0.0000 0.0000 0.0000
# 4 0.0000 0.0000 0.0000 104.1672 0.0000 0.0000
# 5 0.0000 0.0000 0.0000 0.0000 30.2776 0.0000
# 6 0.0000 0.0000 0.0000 0.0000 0.0000 -2.1826
#
#
#
# Elastic Compliance Matrix: (Units=1/GPa)
#
#
# Indices 1 2 3 4 5 6 
#
# 1 0.015420 -0.006414 -0.009197 0.000000 0.000000 0.000000
# 2 -0.006414 0.012345 0.001247 0.000000 0.000000 0.000000
# 3 -0.009197 0.001247 0.020700 0.000000 0.000000 0.000000
# 4 0.000000 0.000000 0.000000 0.009600 0.000000 0.000000
# 5 0.000000 0.000000 0.000000 0.000000 0.033028 0.000000
# 6 0.000000 0.000000 0.000000 0.000000 0.000000 -0.458159
#
#
# Mechanical properties :
#
#
# Convention : Reuss Voigt Hill
#
# Bulk Modulus (GPa) = 50.66994 60.02532 55.34763
# Shear Modulus (GPa) = -15.07111 37.86867 11.39878
#
# Velocity S-wave (km/s) = -2.79954 4.43767 2.43469
# Velocity P-wave (km/s) = 3.98748 7.58104 6.05691
#
# Compressibility (1/GPa) = 0.01973557
#
# Stress axis : x y z
#
# Youngs Moduli (GPa) = 64.85181 81.00773 48.30980
#
# Poissons Ratio (x) = 0.51958 0.44431
# Poissons Ratio (y) = 0.41595 -0.06024
# Poissons Ratio (z) = 0.59645 -0.10101
#
# Static dielectric constant tensor:
#      x y z
#    x 1.694910 0.000000 0.000000 
#    y 0.000000 1.772700 0.000000 
#    z 0.000000 0.000000 1.719860 
# 
# From -- ./inp_files/51903.got.cif
#   From: 2010.05.17/outbox.cif.g08.bks.cpg/sg74_26_cif.got.tgz:51903.got - 2010.06.03 17:57:02.
