data_PCOD9536339
_publ_section_title
;
Structure prediction by ZEFSAII (Michael W. Deem and Ramdas Pophale) SiO2 
 PCOD9536339
Probable space group: I M M A
;
_chemical_formula_sum "Si O2"
_cell_formula_units_Z 112
_cell_length_a 28.736344
_cell_length_b 14.829044
_cell_length_c 12.879991
_cell_angle_alpha 90.000000
_cell_angle_beta 90.000000
_cell_angle_gamma 90.000000
_cell_volume 5488.582888
_symmetry_space_group_name_H-M "I M M A"
_symmetry_group_IT_number 74
_symmetry_cell_setting 'orthorhombic'
loop_
_space_group_symop_operation_xyz
x,y,z
-x,1/2-y,z
x,-y,-z
-x,1/2+y,-z
-x,-y,-z
x,1/2+y,-z
-x,y,z
x,1/2-y,z
1/2+x,1/2+y,1/2+z
1/2-x,-y,1/2+z
1/2+x,1/2-y,1/2-z
1/2-x,y,1/2-z
1/2-x,1/2-y,1/2-z
1/2+x,y,1/2-z
1/2-x,1/2+y,1/2+z
1/2+x,-y,1/2+z
loop_
_atom_site_type_symbol
_atom_site_label
_atom_site_fract_x
_atom_site_fract_y
_atom_site_fract_z
Si Si1 0.218228 0.145743 0.147581
Si Si2 0.301341 0.640057 0.991639
Si Si3 0.554695 0.485266 0.266042
Si Si4 0.194885 0.357287 0.730369
Si Si5 0.645351 0.000654 0.621582
Si Si6 0.945268 0.850930 0.389648
Si Si7 0.105158 0.357335 0.393745
O O1 0.205858 0.250000 0.128689
O O2 0.250000 0.142005 0.250000
O O3 0.251293 0.112574 0.053064
O O4 0.173074 0.086180 0.162872
O O5 0.301156 0.750000 0.990996
O O6 0.341938 0.611281 0.912876
O O7 0.312482 0.614164 0.110050
O O8 0.500000 0.473174 0.288470
O O9 0.590314 0.492317 0.360453
O O10 0.561060 0.576585 0.199427
O O11 0.575338 0.407491 0.192221
O O12 0.184960 0.250000 0.739858
O O13 0.250000 0.369782 0.750000
O O14 0.165875 0.415450 0.812753
O O15 0.655206 0.000000 0.500000
O O16 0.931006 0.750000 0.356982
O O17 0.918580 0.873512 0.494544
O O18 0.000000 0.849797 0.414959
O O19 0.105424 0.250000 0.374415
#
# Coordination Sequence:
#
# PCOD9536339 Si02
#       7
#    16  16  16  16  16  16  16
#     4  10  21  39  62  90 126 161 190 224 275 347
#     4   9  18  34  59  89 121 157 193 233 282 339
#     4  11  24  40  58  81 111 150 197 247 297 350
#     4  10  21  39  63  91 122 154 193 242 292 343
#     4  12  26  41  60  84 111 152 203 251 299 346
#     4   9  18  34  57  85 116 148 184 230 285 345
#     4  10  19  33  57  90 124 153 181 221 284 359
#
# _framework density 20.405995999999998
#
# number of rings (size 3 to 8) (size 9 to 14) (size 15 to 20)
#    0.000    1.857    0.000    3.857    0.000    7.429 
#    0.000    4.286    0.000    0.000    0.000    4.000 
#    0.000    0.000    0.000    0.000    0.000    0.000 
#
# Total GULP energy -313053.827363 kJ/mol
# GULP energy per Si atom -5590.246917 kJ/mol
# Density = 2.035955 g / cm^3
# Si number density = 20.405996 Si / 1000 Ang^3
#
#
#
# Elastic Constant Matrix: (Units=GPa)
#
#
# Indices 1 2 3 4 5 6 
#
# 1 112.9691 50.0031 45.0095 0.0000 0.0000 0.0000
# 2 50.0031 60.3241 35.7222 0.0000 0.0000 0.0000
# 3 45.0095 35.7222 91.4231 0.0000 0.0000 0.0000
# 4 0.0000 0.0000 0.0000 12.8845 0.0000 0.0000
# 5 0.0000 0.0000 0.0000 0.0000 41.8009 0.0000
# 6 0.0000 0.0000 0.0000 0.0000 0.0000 14.3921
#
#
#
# Elastic Compliance Matrix: (Units=1/GPa)
#
#
# Indices 1 2 3 4 5 6 
#
# 1 0.014674 -0.010259 -0.003216 0.000000 0.000000 0.000000
# 2 -0.010259 0.028740 -0.006179 0.000000 0.000000 0.000000
# 3 -0.003216 -0.006179 0.014936 0.000000 0.000000 0.000000
# 4 0.000000 0.000000 0.000000 0.077613 0.000000 0.000000
# 5 0.000000 0.000000 0.000000 0.000000 0.023923 0.000000
# 6 0.000000 0.000000 0.000000 0.000000 0.000000 0.069482
#
#
# Mechanical properties :
#
#
# Convention : Reuss Voigt Hill
#
# Bulk Modulus (GPa) = 52.51530 58.46511 55.49021
# Shear Modulus (GPa) = 18.18028 22.74761 20.46395
#
# Velocity S-wave (km/s) = 2.98808 3.34241 3.17020
# Velocity P-wave (km/s) = 6.13970 6.60369 6.37592
#
# Compressibility (1/GPa) = 0.01904207
#
# Stress axis : x y z
#
# Youngs Moduli (GPa) = 68.14653 34.79463 66.95395
#
# Poissons Ratio (x) = 0.35697 0.21531
# Poissons Ratio (y) = 0.69914 0.41370
# Poissons Ratio (z) = 0.21914 0.21499
#
# Static dielectric constant tensor:
#      x y z
#    x 1.730150 0.000000 0.000000 
#    y 0.000000 1.743370 0.000000 
#    z 0.000000 0.000000 1.724900 
# 
# From -- ./inp_files/27199.got.cif
#   From: 2010.05.17/outbox.cif.g08.bks.cpg/sg74_14_cif.got.tgz:27199.got - 2010.06.03 17:57:02.
