data_PCOD9536013
_publ_section_title
;
Structure prediction by ZEFSAII (Michael W. Deem and Ramdas Pophale) SiO2 
 PCOD9536013
Probable space group: I M M A
;
_chemical_formula_sum "Si O2"
_cell_formula_units_Z 64
_cell_length_a 25.299322
_cell_length_b 15.185647
_cell_length_c 7.975278
_cell_angle_alpha 90.000000
_cell_angle_beta 90.000000
_cell_angle_gamma 90.000000
_cell_volume 3063.994725
_symmetry_space_group_name_H-M "I M M A"
_symmetry_group_IT_number 74
_symmetry_cell_setting 'orthorhombic'
loop_
_space_group_symop_operation_xyz
x,y,z
-x,1/2-y,z
x,-y,-z
-x,1/2+y,-z
-x,-y,-z
x,1/2+y,-z
-x,y,z
x,1/2-y,z
1/2+x,1/2+y,1/2+z
1/2-x,-y,1/2+z
1/2+x,1/2-y,1/2-z
1/2-x,y,1/2-z
1/2-x,1/2-y,1/2-z
1/2+x,y,1/2-z
1/2-x,1/2+y,1/2+z
1/2+x,-y,1/2+z
loop_
_atom_site_type_symbol
_atom_site_label
_atom_site_fract_x
_atom_site_fract_y
_atom_site_fract_z
Si Si1 0.112165 0.649395 0.827756
Si Si2 0.310992 0.000322 0.297247
Si Si3 0.500000 0.347560 0.237883
Si Si4 0.109506 0.851278 0.231092
Si Si5 0.000000 0.589976 0.389465
O O1 0.114414 0.750000 0.764370
O O2 0.157607 0.589191 0.751027
O O3 0.054805 0.608837 0.787763
O O4 0.113808 0.652476 0.028974
O O5 0.250000 0.999947 0.250000
O O6 0.314194 0.000000 0.500000
O O7 0.343092 0.917585 0.221252
O O8 0.500000 0.250000 0.319610
O O9 0.500000 0.340359 0.039767
O O10 0.113755 0.750000 0.292537
O O11 0.053293 0.892694 0.284904
O O12 0.000000 0.500000 0.500000
#
# Coordination Sequence:
#
# PCOD9536013 Si02
#       5
#    16  16   8  16   8
#     4   9  19  37  60  84 113 152 192 231 281 343
#     4  10  22  38  56  80 110 146 194 244 285 332
#     4  10  19  32  53  84 115 138 174 228 279 326
#     4  10  21  39  60  81 112 155 193 224 275 349
#     4  12  23  34  54  86 119 146 179 228 285 336
#
# _framework density 20.887765999999999
#
# number of rings (size 3 to 8) (size 9 to 14) (size 15 to 20)
#    0.000    2.000    0.000    3.375    0.000    6.000 
#    0.000    5.000    0.000    0.000    0.000    0.000 
#    0.000    0.000    0.000    0.000    0.000    0.000 
#
# Total GULP energy -178512.050999 kJ/mol
# GULP energy per Si atom -5578.501594 kJ/mol
# Density = 2.084022 g / cm^3
# Si number density = 20.887766 Si / 1000 Ang^3
#
#
#
# Elastic Constant Matrix: (Units=GPa)
#
#
# Indices 1 2 3 4 5 6 
#
# 1 214.9297 102.1080 3.6554 0.0000 0.0000 0.0000
# 2 102.1080 175.2173 16.7753 0.0000 0.0000 0.0000
# 3 3.6554 16.7753 14.8390 0.0000 0.0000 0.0000
# 4 0.0000 0.0000 0.0000 18.2334 0.0000 0.0000
# 5 0.0000 0.0000 0.0000 0.0000 33.6959 0.0000
# 6 0.0000 0.0000 0.0000 0.0000 0.0000 78.1874
#
#
#
# Elastic Compliance Matrix: (Units=1/GPa)
#
#
# Indices 1 2 3 4 5 6 
#
# 1 0.006553 -0.004109 0.003031 0.000000 0.000000 0.000000
# 2 -0.004109 0.008976 -0.009135 0.000000 0.000000 0.000000
# 3 0.003031 -0.009135 0.076971 0.000000 0.000000 0.000000
# 4 0.000000 0.000000 0.000000 0.054844 0.000000 0.000000
# 5 0.000000 0.000000 0.000000 0.000000 0.029677 0.000000
# 6 0.000000 0.000000 0.000000 0.000000 0.000000 0.012790
#
#
# Mechanical properties :
#
#
# Convention : Reuss Voigt Hill
#
# Bulk Modulus (GPa) = 13.87481 72.22927 43.05204
# Shear Modulus (GPa) = 21.34352 44.85316 33.09834
#
# Velocity S-wave (km/s) = 3.20006 4.63897 3.98500
# Velocity P-wave (km/s) = 4.50675 7.95915 6.46757
#
# Compressibility (1/GPa) = 0.07207308
#
# Stress axis : x y z
#
# Youngs Moduli (GPa) = 152.59551 111.40310 12.99197
#
# Poissons Ratio (x) = 0.45777 -0.03938
# Poissons Ratio (y) = 0.62703 0.11869
# Poissons Ratio (z) = -0.46251 1.01772
#
# Static dielectric constant tensor:
#      x y z
#    x 1.724850 0.000000 0.000000 
#    y 0.000000 1.834470 0.000000 
#    z 0.000000 0.000000 1.752190 
# 
# From -- ./inp_files/8850.got.cif
#   From: 2010.05.17/outbox.cif.g08.bks.cpg/sg74_5_cif.got.tgz:8850.got - 2010.06.03 17:57:02.
