data_PCOD9536804
_publ_section_title
;
Structure prediction by ZEFSAII (Michael W. Deem and Ramdas Pophale) SiO2 
 PCOD9536804
Probable space group: I M M A
;
_chemical_formula_sum "Si O2"
_cell_formula_units_Z 96
_cell_length_a 16.949551
_cell_length_b 23.172006
_cell_length_c 12.649482
_cell_angle_alpha 90.000000
_cell_angle_beta 90.000000
_cell_angle_gamma 90.000000
_cell_volume 4968.148536
_symmetry_space_group_name_H-M "I M M A"
_symmetry_group_IT_number 74
_symmetry_cell_setting 'orthorhombic'
loop_
_space_group_symop_operation_xyz
x,y,z
-x,1/2-y,z
x,-y,-z
-x,1/2+y,-z
-x,-y,-z
x,1/2+y,-z
-x,y,z
x,1/2-y,z
1/2+x,1/2+y,1/2+z
1/2-x,-y,1/2+z
1/2+x,1/2-y,1/2-z
1/2-x,y,1/2-z
1/2-x,1/2-y,1/2-z
1/2+x,y,1/2-z
1/2-x,1/2+y,1/2+z
1/2+x,-y,1/2+z
loop_
_atom_site_type_symbol
_atom_site_label
_atom_site_fract_x
_atom_site_fract_y
_atom_site_fract_z
Si Si1 0.405521 0.942799 0.641496
Si Si2 0.905923 0.061774 0.760101
Si Si3 0.404290 0.250000 0.211191
Si Si4 0.095363 0.125256 0.351531
Si Si5 0.345776 0.629229 0.444922
Si Si6 0.403538 0.250000 0.461408
Si Si7 0.685576 0.936272 0.039830
O O1 0.500000 0.944376 0.639972
O O2 0.380824 0.903157 0.740063
O O3 0.380311 0.914494 0.532876
O O4 0.378347 0.007014 0.669439
O O5 0.884131 0.116701 0.831043
O O6 0.863079 0.058245 0.648180
O O7 0.000000 0.058280 0.744838
O O8 0.500000 0.250000 0.208489
O O9 0.377948 0.191638 0.154229
O O10 0.384391 0.250000 0.335763
O O11 0.131615 0.089867 0.447162
O O12 0.000000 0.123244 0.357823
O O13 0.367283 0.692806 0.485677
O O14 0.255249 0.609434 0.440444
O O15 0.500000 0.250000 0.470754
O O16 0.712094 0.000000 0.000000
#
# Coordination Sequence:
#
# PCOD9536804 Si02
#       7
#    16  16   8  16  16   8  16
#     4  10  19  36  64  93 121 157 207 261 308 365
#     4  11  23  41  65  91 124 169 218 261 307 374
#     4   9  18  37  64  93 126 159 203 263 307 352
#     4  10  20  37  63  94 125 169 219 253 297 372
#     4  12  25  40  62  96 127 158 206 267 330 375
#     4  11  22  43  69  91 122 167 214 260 312 374
#     4  12  25  41  61  90 135 173 203 255 325 386
#
# _framework density 19.323094000000001
#
# number of rings (size 3 to 8) (size 9 to 14) (size 15 to 20)
#    0.000    1.167    3.333    4.000    0.000    3.333 
#    0.000    3.333    0.000    1.000    0.000    0.000 
#    0.000    0.000    0.000    0.000    0.000    0.000 
#
# Total GULP energy -268199.226836 kJ/mol
# GULP energy per Si atom -5587.483892 kJ/mol
# Density = 1.927911 g / cm^3
# Si number density = 19.323094 Si / 1000 Ang^3
#
#
#
# Elastic Constant Matrix: (Units=GPa)
#
#
# Indices 1 2 3 4 5 6 
#
# 1 54.2219 27.8240 30.4054 0.0000 0.0000 0.0000
# 2 27.8240 121.2597 37.2505 0.0000 0.0000 0.0000
# 3 30.4054 37.2505 111.6624 0.0000 0.0000 0.0000
# 4 0.0000 0.0000 0.0000 29.7546 0.0000 0.0000
# 5 0.0000 0.0000 0.0000 0.0000 27.0068 0.0000
# 6 0.0000 0.0000 0.0000 0.0000 0.0000 41.1123
#
#
#
# Elastic Compliance Matrix: (Units=1/GPa)
#
#
# Indices 1 2 3 4 5 6 
#
# 1 0.023218 -0.003772 -0.005064 0.000000 0.000000 0.000000
# 2 -0.003772 0.009801 -0.002243 0.000000 0.000000 0.000000
# 3 -0.005064 -0.002243 0.011083 0.000000 0.000000 0.000000
# 4 0.000000 0.000000 0.000000 0.033608 0.000000 0.000000
# 5 0.000000 0.000000 0.000000 0.000000 0.037028 0.000000
# 6 0.000000 0.000000 0.000000 0.000000 0.000000 0.024324
#
#
# Mechanical properties :
#
#
# Convention : Reuss Voigt Hill
#
# Bulk Modulus (GPa) = 45.56867 53.12265 49.34566
# Shear Modulus (GPa) = 29.66779 32.35235 31.01007
#
# Velocity S-wave (km/s) = 3.92261 4.09624 4.01037
# Velocity P-wave (km/s) = 6.64451 7.06567 6.85832
#
# Compressibility (1/GPa) = 0.02194490
#
# Stress axis : x y z
#
# Youngs Moduli (GPa) = 43.07020 102.02864 90.23185
#
# Poissons Ratio (x) = 0.38484 0.45692
# Poissons Ratio (y) = 0.16246 0.20235
# Poissons Ratio (z) = 0.21810 0.22881
#
# Static dielectric constant tensor:
#      x y z
#    x 1.687760 0.000000 0.000000 
#    y 0.000000 1.696390 0.000000 
#    z 0.000000 0.000000 1.639770 
# 
# From -- ./inp_files/22519.got.cif
#   From: 2010.05.17/outbox.cif.g08.bks.cpg/sg74_12_cif.got.tgz:22519.got - 2010.06.03 17:57:02.
