data_PCOD9536451
_publ_section_title
;
Structure prediction by ZEFSAII (Michael W. Deem and Ramdas Pophale) SiO2 
 PCOD9536451
Probable space group: I M M A
;
_chemical_formula_sum "Si O2"
_cell_formula_units_Z 112
_cell_length_a 29.038882
_cell_length_b 16.101282
_cell_length_c 12.310786
_cell_angle_alpha 90.000000
_cell_angle_beta 90.000000
_cell_angle_gamma 90.000000
_cell_volume 5756.070842
_symmetry_space_group_name_H-M "I M M A"
_symmetry_group_IT_number 74
_symmetry_cell_setting 'orthorhombic'
loop_
_space_group_symop_operation_xyz
x,y,z
-x,1/2-y,z
x,-y,-z
-x,1/2+y,-z
-x,-y,-z
x,1/2+y,-z
-x,y,z
x,1/2-y,z
1/2+x,1/2+y,1/2+z
1/2-x,-y,1/2+z
1/2+x,1/2-y,1/2-z
1/2-x,y,1/2-z
1/2-x,1/2-y,1/2-z
1/2+x,y,1/2-z
1/2-x,1/2+y,1/2+z
1/2+x,-y,1/2+z
loop_
_atom_site_type_symbol
_atom_site_label
_atom_site_fract_x
_atom_site_fract_y
_atom_site_fract_z
Si Si1 0.210342 0.345835 0.675414
Si Si2 0.184906 0.154966 0.065846
Si Si3 0.137747 0.417521 0.258871
Si Si4 0.446176 0.493769 0.126633
Si Si5 0.447313 0.653787 0.275394
Si Si6 0.789720 0.649339 0.571673
Si Si7 0.356215 0.096436 0.651863
O O1 0.224177 0.250000 0.657125
O O2 0.250000 0.386393 0.750000
O O3 0.204537 0.378710 0.554036
O O4 0.165864 0.349490 0.751190
O O5 0.187366 0.250000 0.028249
O O6 0.148465 0.146844 0.162816
O O7 0.236576 0.132802 0.103668
O O8 0.170545 0.104260 0.960097
O O9 0.087580 0.430262 0.311674
O O10 0.174180 0.397045 0.352661
O O11 0.146772 0.504440 0.198594
O O12 0.500000 0.470245 0.135805
O O13 0.441213 0.585414 0.180328
O O14 0.433977 0.500000 0.000000
O O15 0.500000 0.645495 0.314666
O O16 0.441100 0.750000 0.242076
O O17 0.408464 0.627831 0.361444
O O18 0.797330 0.750000 0.580213
#
# Coordination Sequence:
#
# PCOD9536451 Si02
#       7
#    16  16  16  16  16  16  16
#     4  10  19  34  55  82 111 152 200 240 289 349
#     4  11  22  42  62  81 118 165 204 238 291 357
#     4  11  24  37  57  89 117 150 200 243 297 356
#     4   9  20  40  61  83 118 157 192 240 303 360
#     4   9  18  34  59  89 115 145 191 243 294 349
#     4  10  22  39  59  81 117 162 203 242 294 358
#     4  11  22  37  58  86 120 153 192 248 299 348
#
# _framework density 19.457719000000001
#
# number of rings (size 3 to 8) (size 9 to 14) (size 15 to 20)
#    0.000    1.857    1.429    2.571    4.000    2.286 
#    2.571    1.429    0.000    6.857    0.000    0.000 
#    0.000    0.000    0.000    0.000    0.000    0.000 
#
# Total GULP energy -312398.436782 kJ/mol
# GULP energy per Si atom -5578.543514 kJ/mol
# Density = 1.941343 g / cm^3
# Si number density = 19.457719 Si / 1000 Ang^3
#
#
#
# Elastic Constant Matrix: (Units=GPa)
#
#
# Indices 1 2 3 4 5 6 
#
# 1 107.8830 36.3892 41.0102 0.0000 0.0000 0.0000
# 2 36.3892 44.9339 13.7908 0.0000 0.0000 0.0000
# 3 41.0102 13.7908 89.7412 0.0000 0.0000 0.0000
# 4 0.0000 0.0000 0.0000 29.2728 0.0000 0.0000
# 5 0.0000 0.0000 0.0000 0.0000 24.6103 0.0000
# 6 0.0000 0.0000 0.0000 0.0000 0.0000 30.2334
#
#
#
# Elastic Compliance Matrix: (Units=1/GPa)
#
#
# Indices 1 2 3 4 5 6 
#
# 1 0.014706 -0.010334 -0.005132 0.000000 0.000000 0.000000
# 2 -0.010334 0.030619 0.000017 0.000000 0.000000 0.000000
# 3 -0.005132 0.000017 0.013486 0.000000 0.000000 0.000000
# 4 0.000000 0.000000 0.000000 0.034161 0.000000 0.000000
# 5 0.000000 0.000000 0.000000 0.000000 0.040633 0.000000
# 6 0.000000 0.000000 0.000000 0.000000 0.000000 0.033076
#
#
# Mechanical properties :
#
#
# Convention : Reuss Voigt Hill
#
# Bulk Modulus (GPa) = 35.82682 47.21538 41.52110
# Shear Modulus (GPa) = 24.16811 26.91450 25.54130
#
# Velocity S-wave (km/s) = 3.52814 3.72321 3.62699
# Velocity P-wave (km/s) = 5.92028 6.54228 6.23903
#
# Compressibility (1/GPa) = 0.02791205
#
# Stress axis : x y z
#
# Youngs Moduli (GPa) = 67.99903 32.65969 74.15175
#
# Poissons Ratio (x) = 0.33752 0.38057
# Poissons Ratio (y) = 0.70273 -0.00129
# Poissons Ratio (z) = 0.34899 -0.00057
#
# Static dielectric constant tensor:
#      x y z
#    x 1.715260 0.000000 0.000000 
#    y 0.000000 1.725560 0.000000 
#    z 0.000000 0.000000 1.678830 
# 
# From -- ./inp_files/27223.got.cif
#   From: 2010.05.17/outbox.cif.g08.bks.cpg/sg74_14_cif.got.tgz:27223.got - 2010.06.03 17:57:02.
