data_PCOD9536076
_publ_section_title
;
Structure prediction by ZEFSAII (Michael W. Deem and Ramdas Pophale) SiO2 
 PCOD9536076
Probable space group: I M M A
;
_chemical_formula_sum "Si O2"
_cell_formula_units_Z 96
_cell_length_a 8.645074
_cell_length_b 24.884573
_cell_length_c 24.351200
_cell_angle_alpha 90.000000
_cell_angle_beta 90.000000
_cell_angle_gamma 90.000000
_cell_volume 5238.648697
_symmetry_space_group_name_H-M "I M M A"
_symmetry_group_IT_number 74
_symmetry_cell_setting 'orthorhombic'
loop_
_space_group_symop_operation_xyz
x,y,z
-x,1/2-y,z
x,-y,-z
-x,1/2+y,-z
-x,-y,-z
x,1/2+y,-z
-x,y,z
x,1/2-y,z
1/2+x,1/2+y,1/2+z
1/2-x,-y,1/2+z
1/2+x,1/2-y,1/2-z
1/2-x,y,1/2-z
1/2-x,1/2-y,1/2-z
1/2+x,y,1/2-z
1/2-x,1/2+y,1/2+z
1/2+x,-y,1/2+z
loop_
_atom_site_type_symbol
_atom_site_label
_atom_site_fract_x
_atom_site_fract_y
_atom_site_fract_z
Si Si1 0.312662 0.595881 0.110176
Si Si2 0.816363 0.877934 0.810640
Si Si3 0.813019 0.475520 0.380947
Si Si4 0.813476 0.810495 0.593253
Si Si5 0.814539 0.311837 0.811058
Si Si6 0.812471 0.908588 0.515916
O O1 0.500000 0.600045 0.110718
O O2 0.270341 0.536609 0.132220
O O3 0.246482 0.644627 0.145607
O O4 0.259047 0.594317 0.046619
O O5 0.750000 0.873260 0.750000
O O6 0.756360 0.830227 0.849557
O O7 0.000000 0.878102 0.809230
O O8 0.756495 0.932550 0.839292
O O9 0.766309 0.456909 0.442880
O O10 0.000000 0.471388 0.378897
O O11 0.767490 0.750000 0.579507
O O12 0.768130 0.854091 0.547608
O O13 0.000000 0.812695 0.597486
O O14 0.768813 0.250000 0.824981
O O15 0.750000 0.323231 0.750000
O O16 0.000000 0.314102 0.809328
O O17 0.000000 0.911505 0.513119
#
# Coordination Sequence:
#
# PCOD9536076 Si02
#       6
#    16  16  16  16  16  16
#     4  10  19  32  57  87 109 136 174 213 255 308
#     4  11  22  36  54  75 102 138 178 221 267 313
#     4   9  18  34  54  78 109 141 174 214 258 304
#     4   9  18  34  55  78 106 140 177 218 261 305
#     4  10  22  40  58  76 103 138 174 216 264 311
#     4   8  15  30  53  81 110 139 173 212 254 302
#
# _framework density 18.325336
#
# number of rings (size 3 to 8) (size 9 to 14) (size 15 to 20)
#    0.000    2.500    0.000    3.500    0.000    5.667 
#    0.000    5.000    0.000    5.000    0.000    0.000 
#    0.000    0.000    0.000    0.000    0.000    0.000 
#
# Total GULP energy -267744.138301 kJ/mol
# GULP energy per Si atom -5578.002881 kJ/mol
# Density = 1.828363 g / cm^3
# Si number density = 18.325336 Si / 1000 Ang^3
#
#
#
# Elastic Constant Matrix: (Units=GPa)
#
#
# Indices 1 2 3 4 5 6 
#
# 1 20.5126 24.0527 4.8684 0.0000 0.0000 0.0000
# 2 24.0527 107.6406 15.6308 0.0000 0.0000 0.0000
# 3 4.8684 15.6308 28.3779 0.0000 0.0000 0.0000
# 4 0.0000 0.0000 0.0000 18.4962 0.0000 0.0000
# 5 0.0000 0.0000 0.0000 0.0000 23.3995 0.0000
# 6 0.0000 0.0000 0.0000 0.0000 0.0000 24.5259
#
#
#
# Elastic Compliance Matrix: (Units=1/GPa)
#
#
# Indices 1 2 3 4 5 6 
#
# 1 0.066377 -0.014324 -0.003497 0.000000 0.000000 0.000000
# 2 -0.014324 0.013189 -0.004807 0.000000 0.000000 0.000000
# 3 -0.003497 -0.004807 0.038487 0.000000 0.000000 0.000000
# 4 0.000000 0.000000 0.000000 0.054065 0.000000 0.000000
# 5 0.000000 0.000000 0.000000 0.000000 0.042736 0.000000
# 6 0.000000 0.000000 0.000000 0.000000 0.000000 0.040773
#
#
# Mechanical properties :
#
#
# Convention : Reuss Voigt Hill
#
# Bulk Modulus (GPa) = 13.73725 27.29277 20.51501
# Shear Modulus (GPa) = 15.37754 20.74961 18.06357
#
# Velocity S-wave (km/s) = 2.89994 3.36860 3.14302
# Velocity P-wave (km/s) = 4.32729 5.48232 4.93868
#
# Compressibility (1/GPa) = 0.07279475
#
# Stress axis : x y z
#
# Youngs Moduli (GPa) = 15.06547 75.82030 25.98309
#
# Poissons Ratio (x) = 1.08608 0.09087
# Poissons Ratio (y) = 0.21580 0.12491
# Poissons Ratio (z) = 0.05269 0.36449
#
# Static dielectric constant tensor:
#      x y z
#    x 1.624410 0.000000 0.000000 
#    y 0.000000 1.630150 0.000000 
#    z 0.000000 0.000000 1.613060 
# 
# From -- ./inp_files/49125.got.cif
#   From: 2010.05.17/outbox.cif.g08.bks.cpg/sg74_25_cif.got.tgz:49125.got - 2010.06.03 17:57:02.
