data_PCOD9536566
_publ_section_title
;
Structure prediction by ZEFSAII (Michael W. Deem and Ramdas Pophale) SiO2 
 PCOD9536566
Probable space group: I M M A
;
_chemical_formula_sum "Si O2"
_cell_formula_units_Z 116
_cell_length_a 22.679185
_cell_length_b 9.615388
_cell_length_c 29.570272
_cell_angle_alpha 90.000000
_cell_angle_beta 90.000000
_cell_angle_gamma 90.000000
_cell_volume 6448.364474
_symmetry_space_group_name_H-M "I M M A"
_symmetry_group_IT_number 74
_symmetry_cell_setting 'orthorhombic'
loop_
_space_group_symop_operation_xyz
x,y,z
-x,1/2-y,z
x,-y,-z
-x,1/2+y,-z
-x,-y,-z
x,1/2+y,-z
-x,y,z
x,1/2-y,z
1/2+x,1/2+y,1/2+z
1/2-x,-y,1/2+z
1/2+x,1/2-y,1/2-z
1/2-x,y,1/2-z
1/2-x,1/2-y,1/2-z
1/2+x,y,1/2-z
1/2-x,1/2+y,1/2+z
1/2+x,-y,1/2+z
loop_
_atom_site_type_symbol
_atom_site_label
_atom_site_fract_x
_atom_site_fract_y
_atom_site_fract_z
Si Si1 0.827011 0.916751 0.631990
Si Si2 0.719898 0.413000 0.298782
Si Si3 0.907469 0.502982 0.797891
Si Si4 0.788700 0.085372 0.545839
Si Si5 0.000000 0.250000 0.802122
Si Si6 0.352185 0.587559 0.454862
Si Si7 0.434523 0.584874 0.804486
Si Si8 0.068017 0.903347 0.894383
O O1 0.831689 0.750000 0.622188
O O2 0.768771 0.934294 0.662875
O O3 0.883073 0.963431 0.662010
O O4 0.820163 0.008079 0.587286
O O5 0.700401 0.250000 0.301088
O O6 0.750000 0.431821 0.250000
O O7 0.663006 0.509605 0.303197
O O8 0.948242 0.369395 0.801691
O O9 0.917868 0.561904 0.747718
O O10 0.927047 0.595345 0.840336
O O11 0.802968 0.250000 0.542162
O O12 0.717905 0.075295 0.553480
O O13 0.801491 0.000000 0.500000
O O14 0.365729 0.500000 0.500000
O O15 0.366281 0.750000 0.460569
O O16 0.389659 0.519220 0.414907
O O17 0.500000 0.524782 0.812650
O O18 0.437515 0.750000 0.811348
O O19 0.085370 0.750000 0.911288
O O20 0.000000 0.929898 0.906878
#
# Coordination Sequence:
#
# PCOD9536566 Si02
#       8
#    16  16  16  16   4  16  16  16
#     4  10  20  36  59  92 125 155 192 245 302 355
#     4  10  19  34  59  89 118 151 196 254 305 354
#     4  12  22  39  55  78 117 162 208 247 295 345
#     4  10  21  39  61  88 115 149 190 238 295 360
#     4  12  28  40  52  76 118 172 220 248 300 352
#     4  10  22  39  61  83 113 146 187 239 299 359
#     4  10  19  35  61  87 116 154 200 243 286 346
#     4  11  23  37  58  82 108 148 202 248 295 347
#
# _framework density 17.989058
#
# number of rings (size 3 to 8) (size 9 to 14) (size 15 to 20)
#    0.000    1.517    2.759    2.897    0.966    4.414 
#    2.483    0.345    0.000    0.414    0.000    0.000 
#    0.000    0.000    0.000    0.000    0.000    0.000 
#
# Total GULP energy -323132.809205 kJ/mol
# GULP energy per Si atom -5571.255331 kJ/mol
# Density = 1.794811 g / cm^3
# Si number density = 17.989058 Si / 1000 Ang^3
#
#
#
# Elastic Constant Matrix: (Units=GPa)
#
#
# Indices 1 2 3 4 5 6 
#
# 1 114.8904 56.6847 51.5157 0.0000 0.0000 0.0000
# 2 56.6847 88.7175 62.8469 0.0000 0.0000 0.0000
# 3 51.5157 62.8469 117.2626 0.0000 0.0000 0.0000
# 4 0.0000 0.0000 0.0000 284.0589 0.0000 0.0000
# 5 0.0000 0.0000 0.0000 0.0000 12.9901 0.0000
# 6 0.0000 0.0000 0.0000 0.0000 0.0000 15.8991
#
#
#
# Elastic Compliance Matrix: (Units=1/GPa)
#
#
# Indices 1 2 3 4 5 6 
#
# 1 0.013004 -0.006870 -0.002031 0.000000 0.000000 0.000000
# 2 -0.006870 0.021800 -0.008665 0.000000 0.000000 0.000000
# 3 -0.002031 -0.008665 0.014064 0.000000 0.000000 0.000000
# 4 0.000000 0.000000 0.000000 0.003520 0.000000 0.000000
# 5 0.000000 0.000000 0.000000 0.000000 0.076982 0.000000
# 6 0.000000 0.000000 0.000000 0.000000 0.000000 0.062897
#
#
# Mechanical properties :
#
#
# Convention : Reuss Voigt Hill
#
# Bulk Modulus (GPa) = 72.80486 73.66278 73.23382
# Shear Modulus (GPa) = 21.55370 72.57783 47.06577
#
# Velocity S-wave (km/s) = 3.46519 6.35870 5.12058
# Velocity P-wave (km/s) = 7.52128 9.74415 8.70397
#
# Compressibility (1/GPa) = 0.01373535
#
# Stress axis : x y z
#
# Youngs Moduli (GPa) = 76.89832 45.87183 71.10170
#
# Poissons Ratio (x) = 0.31515 0.14440
# Poissons Ratio (y) = 0.52830 0.61613
# Poissons Ratio (z) = 0.15618 0.39750
#
# Static dielectric constant tensor:
#      x y z
#    x 1.632590 0.000000 0.000000 
#    y 0.000000 1.574930 0.000000 
#    z 0.000000 0.000000 1.609700 
# 
# From -- ./inp_files/68778.got.cif
#   From: 2010.05.17/outbox.cif.g08.bks.cpg/sg74_35_cif.got.tgz:68778.got - 2010.06.03 17:57:02.
