data_PCOD9536215
_publ_section_title
;
Structure prediction by ZEFSAII (Michael W. Deem and Ramdas Pophale) SiO2 
 PCOD9536215
Probable space group: I M M A
;
_chemical_formula_sum "Si O2"
_cell_formula_units_Z 88
_cell_length_a 31.743857
_cell_length_b 8.522274
_cell_length_c 18.175186
_cell_angle_alpha 90.000000
_cell_angle_beta 90.000000
_cell_angle_gamma 90.000000
_cell_volume 4916.930291
_symmetry_space_group_name_H-M "I M M A"
_symmetry_group_IT_number 74
_symmetry_cell_setting 'orthorhombic'
loop_
_space_group_symop_operation_xyz
x,y,z
-x,1/2-y,z
x,-y,-z
-x,1/2+y,-z
-x,-y,-z
x,1/2+y,-z
-x,y,z
x,1/2-y,z
1/2+x,1/2+y,1/2+z
1/2-x,-y,1/2+z
1/2+x,1/2-y,1/2-z
1/2-x,y,1/2-z
1/2-x,1/2-y,1/2-z
1/2+x,y,1/2-z
1/2-x,1/2+y,1/2+z
1/2+x,-y,1/2+z
loop_
_atom_site_type_symbol
_atom_site_label
_atom_site_fract_x
_atom_site_fract_y
_atom_site_fract_z
Si Si1 0.165742 0.938055 0.576546
Si Si2 0.702812 0.940894 0.764893
Si Si3 0.914588 0.936181 0.351002
Si Si4 0.000000 0.437759 0.417306
Si Si5 0.952191 0.438011 0.916892
Si Si6 0.116995 0.436519 0.196530
O O1 0.162073 0.750000 0.574180
O O2 0.190395 0.981464 0.651269
O O3 0.184198 0.000000 0.500000
O O4 0.120148 0.015122 0.588967
O O5 0.702930 0.750000 0.760992
O O6 0.750000 0.997247 0.750000
O O7 0.665672 0.992814 0.708597
O O8 0.913801 0.750000 0.339585
O O9 0.902977 0.022851 0.275487
O O10 0.959301 0.994644 0.377518
O O11 0.000000 0.500000 0.500000
O O12 0.000000 0.250000 0.416356
O O13 0.951931 0.250000 0.917824
O O14 0.913966 0.493553 0.865044
O O15 0.000000 0.488040 0.892558
O O16 0.946614 0.500000 0.000000
O O17 0.118197 0.250000 0.185421
#
# Coordination Sequence:
#
# PCOD9536215 Si02
#       6
#    16  16  16   8  16  16
#     4  10  19  33  54  78 104 137 178 220 269 323
#     4   8  16  33  56  80 107 141 181 225 275 331
#     4  11  22  36  53  75 105 140 179 220 262 310
#     4  12  24  38  52  72 103 138 177 218 262 308
#     4  10  21  37  57  81 111 147 188 233 282 336
#     4  10  20  35  57  83 110 143 181 224 274 329
#
# _framework density 17.897345999999999
#
# number of rings (size 3 to 8) (size 9 to 14) (size 15 to 20)
#    0.000    2.000    0.000    5.727    1.273    1.091 
#    0.000    0.909    0.000   21.818    0.000    0.000 
#    0.000    0.000    0.000    0.000    0.000    0.000 
#
# Total GULP energy -245418.962942 kJ/mol
# GULP energy per Si atom -5577.703703 kJ/mol
# Density = 1.785661 g / cm^3
# Si number density = 17.897346 Si / 1000 Ang^3
#
#
#
# Elastic Constant Matrix: (Units=GPa)
#
#
# Indices 1 2 3 4 5 6 
#
# 1 163.7126 19.7112 65.5223 0.0000 0.0000 0.0000
# 2 19.7112 37.9494 8.3902 0.0000 0.0000 0.0000
# 3 65.5223 8.3902 83.5116 0.0000 0.0000 0.0000
# 4 0.0000 0.0000 0.0000 34.3633 0.0000 0.0000
# 5 0.0000 0.0000 0.0000 0.0000 16.6505 0.0000
# 6 0.0000 0.0000 0.0000 0.0000 0.0000 5.1964
#
#
#
# Elastic Compliance Matrix: (Units=1/GPa)
#
#
# Indices 1 2 3 4 5 6 
#
# 1 0.009289 -0.003286 -0.006958 0.000000 0.000000 0.000000
# 2 -0.003286 0.028112 -0.000246 0.000000 0.000000 0.000000
# 3 -0.006958 -0.000246 0.017458 0.000000 0.000000 0.000000
# 4 0.000000 0.000000 0.000000 0.029101 0.000000 0.000000
# 5 0.000000 0.000000 0.000000 0.000000 0.060058 0.000000
# 6 0.000000 0.000000 0.000000 0.000000 0.000000 0.192441
#
#
# Mechanical properties :
#
#
# Convention : Reuss Voigt Hill
#
# Bulk Modulus (GPa) = 29.51679 52.49124 41.00402
# Shear Modulus (GPa) = 13.55999 24.01201 18.78600
#
# Velocity S-wave (km/s) = 2.75554 3.66683 3.24335
# Velocity P-wave (km/s) = 5.16256 6.87897 6.08162
#
# Compressibility (1/GPa) = 0.03387902
#
# Stress axis : x y z
#
# Youngs Moduli (GPa) = 107.65958 35.57177 57.28067
#
# Poissons Ratio (x) = 0.11690 0.39853
# Poissons Ratio (y) = 0.35380 0.01409
# Poissons Ratio (z) = 0.74904 0.00875
#
# Static dielectric constant tensor:
#      x y z
#    x 1.619080 0.000000 0.000000 
#    y 0.000000 1.599200 0.000000 
#    z 0.000000 0.000000 1.590890 
# 
# From -- ./inp_files/47029.got.cif
#   From: 2010.05.17/outbox.cif.g08.bks.cpg/sg74_24_cif.got.tgz:47029.got - 2010.06.03 17:57:02.
