data_PCOD9536675
_publ_section_title
;
Structure prediction by ZEFSAII (Michael W. Deem and Ramdas Pophale) SiO2 
 PCOD9536675
Probable space group: I M M A
;
_chemical_formula_sum "Si O2"
_cell_formula_units_Z 68
_cell_length_a 12.541722
_cell_length_b 24.566294
_cell_length_c 11.689785
_cell_angle_alpha 90.000000
_cell_angle_beta 90.000000
_cell_angle_gamma 90.000000
_cell_volume 3601.665191
_symmetry_space_group_name_H-M "I M M A"
_symmetry_group_IT_number 74
_symmetry_cell_setting 'orthorhombic'
loop_
_space_group_symop_operation_xyz
x,y,z
-x,1/2-y,z
x,-y,-z
-x,1/2+y,-z
-x,-y,-z
x,1/2+y,-z
-x,y,z
x,1/2-y,z
1/2+x,1/2+y,1/2+z
1/2-x,-y,1/2+z
1/2+x,1/2-y,1/2-z
1/2-x,y,1/2-z
1/2-x,1/2-y,1/2-z
1/2+x,y,1/2-z
1/2-x,1/2+y,1/2+z
1/2+x,-y,1/2+z
loop_
_atom_site_type_symbol
_atom_site_label
_atom_site_fract_x
_atom_site_fract_y
_atom_site_fract_z
Si Si1 0.656229 0.853346 0.415918
Si Si2 0.617415 0.980210 0.840605
Si Si3 0.880237 0.110202 0.656038
Si Si4 0.840503 0.949841 0.919451
Si Si5 0.500000 0.250000 0.562270
O O1 0.785853 0.856071 0.404739
O O2 0.623017 0.875412 0.290821
O O3 0.627094 0.895187 0.516914
O O4 0.594076 0.797670 0.434606
O O5 0.500000 0.968999 0.886733
O O6 0.712111 0.950666 0.905739
O O7 0.620310 0.961359 0.708545
O O8 0.639145 0.045005 0.846842
O O9 0.000000 0.121435 0.613314
O O10 0.871341 0.000000 0.000000
#
# Coordination Sequence:
#
# PCOD9536675 Si02
#       5
#    16  16  16  16   4
#     4  11  22  39  57  81 123 156 205 242 284 343
#     4  10  21  33  56  96 125 147 188 223 313 379
#     4  10  19  35  59  91 124 154 182 235 299 370
#     4  11  19  35  57  87 122 153 183 245 296 354
#     4  12  28  42  56  86 108 170 222 244 276 336
#
# _framework density 18.880154999999998
#
# number of rings (size 3 to 8) (size 9 to 14) (size 15 to 20)
#    0.000    1.412    5.882    1.412    1.647    3.765 
#    0.000    0.000    0.000    2.824    0.000    0.000 
#    0.000    0.000    0.000    0.000    0.000    0.000 
#
# Total GULP energy -189333.803947 kJ/mol
# GULP energy per Si atom -5568.641293 kJ/mol
# Density = 1.883718 g / cm^3
# Si number density = 18.880155 Si / 1000 Ang^3
#
#
#
# Elastic Constant Matrix: (Units=GPa)
#
#
# Indices 1 2 3 4 5 6 
#
# 1 178.4452 66.7205 21.1038 0.0000 0.0000 0.0000
# 2 66.7205 140.4109 47.9139 -0.0004 0.0000 0.0000
# 3 21.1038 47.9139 96.9743 -0.0001 0.0000 0.0000
# 4 0.0000 -0.0004 -0.0001 -1.3014 0.0000 0.0000
# 5 0.0000 0.0000 0.0000 0.0000 -5.0830 0.0000
# 6 0.0000 0.0000 0.0000 0.0000 0.0000 33.9792
#
#
#
# Elastic Compliance Matrix: (Units=1/GPa)
#
#
# Indices 1 2 3 4 5 6 
#
# 1 0.006816 -0.003287 0.000141 0.000001 0.000000 0.000000
# 2 -0.003287 0.010151 -0.004300 -0.000003 0.000000 0.000000
# 3 0.000141 -0.004300 0.012406 0.000001 0.000000 0.000000
# 4 0.000001 -0.000003 0.000001 -0.768395 0.000001 0.000000
# 5 0.000000 0.000000 0.000000 0.000001 -0.196733 0.000000
# 6 0.000000 0.000000 0.000000 0.000000 0.000000 0.029430
#
#
# Mechanical properties :
#
#
# Convention : Reuss Voigt Hill
#
# Bulk Modulus (GPa) = 69.05837 76.36742 72.71289
# Shear Modulus (GPa) = -5.63950 24.19175 9.27613
#
# Velocity S-wave (km/s) = -1.73017 3.58345 2.21897
# Velocity P-wave (km/s) = 5.71536 7.59328 6.72024
#
# Compressibility (1/GPa) = 0.01448050
#
# Stress axis : x y z
#
# Youngs Moduli (GPa) = 146.70659 98.50941 80.60523
#
# Poissons Ratio (x) = 0.32380 -0.01134
# Poissons Ratio (y) = 0.48222 0.34663
# Poissons Ratio (z) = -0.02064 0.42362
#
# Static dielectric constant tensor:
#      x y z
#    x 1.763730 0.000000 0.000000 
#    y 0.000000 1.594920 0.000000 
#    z 0.000000 0.000000 1.664150 
# 
# From -- ./inp_files/20212.got.cif
#   From: 2010.05.17/outbox.cif.g08.bks.cpg/sg74_11_cif.got.tgz:20212.got - 2010.06.03 17:57:02.
