data_PCOD9536770
_publ_section_title
;
Structure prediction by ZEFSAII (Michael W. Deem and Ramdas Pophale) SiO2 
 PCOD9536770
Probable space group: I M M A
;
_chemical_formula_sum "Si O2"
_cell_formula_units_Z 68
_cell_length_a 27.945455
_cell_length_b 7.681964
_cell_length_c 15.689554
_cell_angle_alpha 90.000000
_cell_angle_beta 90.000000
_cell_angle_gamma 90.000000
_cell_volume 3368.170369
_symmetry_space_group_name_H-M "I M M A"
_symmetry_group_IT_number 74
_symmetry_cell_setting 'orthorhombic'
loop_
_space_group_symop_operation_xyz
x,y,z
-x,1/2-y,z
x,-y,-z
-x,1/2+y,-z
-x,-y,-z
x,1/2+y,-z
-x,y,z
x,1/2-y,z
1/2+x,1/2+y,1/2+z
1/2-x,-y,1/2+z
1/2+x,1/2-y,1/2-z
1/2-x,y,1/2-z
1/2-x,1/2-y,1/2-z
1/2+x,y,1/2-z
1/2-x,1/2+y,1/2+z
1/2+x,-y,1/2+z
loop_
_atom_site_type_symbol
_atom_site_label
_atom_site_fract_x
_atom_site_fract_y
_atom_site_fract_z
Si Si1 0.919264 0.548673 0.243247
Si Si2 0.851469 0.950556 0.904651
Si Si3 0.000000 0.750000 0.781646
Si Si4 0.356812 0.042176 0.904575
Si Si5 0.253033 0.460509 0.849234
O O1 0.936519 0.750000 0.253953
O O2 0.879285 0.551910 0.168896
O O3 0.958632 0.405747 0.220384
O O4 0.892964 0.488438 0.330355
O O5 0.862382 0.750000 0.890588
O O6 0.794646 0.977325 0.895516
O O7 0.866458 0.000000 0.000000
O O8 0.353747 0.250000 0.896639
O O9 0.302981 0.974108 0.888143
O O10 0.372636 0.000000 0.000000
O O11 0.252643 0.250000 0.852800
O O12 0.250000 0.511530 0.750000
#
# Coordination Sequence:
#
# PCOD9536770 Si02
#       5
#    16  16   4  16  16
#     4  11  24  47  72  98 132 173 219 283 342 399
#     4  12  24  40  65  99 137 178 224 269 328 400
#     4  12  26  48  76 100 124 170 228 282 360 398
#     4  10  22  38  65  96 136 179 220 271 331 394
#     4  10  19  36  60  95 137 182 220 262 320 393
#
# _framework density 20.189001999999999
#
# number of rings (size 3 to 8) (size 9 to 14) (size 15 to 20)
#    0.000    1.176    3.529    3.176    1.647    3.294 
#    0.000    1.176    0.000    0.000    0.000    0.000 
#    0.000    0.000    0.000    0.000    0.000    0.000 
#
# Total GULP energy -189463.848159 kJ/mol
# GULP energy per Si atom -5572.466122 kJ/mol
# Density = 2.014305 g / cm^3
# Si number density = 20.189002 Si / 1000 Ang^3
#
#
#
# Elastic Constant Matrix: (Units=GPa)
#
#
# Indices 1 2 3 4 5 6 
#
# 1 57.0913 18.5668 -10.1014 0.0000 0.0000 0.0000
# 2 18.5668 94.0017 -5.6535 0.0000 0.0000 0.0000
# 3 -10.1014 -5.6535 94.0450 0.0000 0.0000 0.0000
# 4 0.0000 0.0000 0.0000 19.1885 0.0000 0.0000
# 5 0.0000 0.0000 0.0000 0.0000 -5.3795 0.0000
# 6 0.0000 0.0000 0.0000 0.0000 0.0000 78.7986
#
#
#
# Elastic Compliance Matrix: (Units=1/GPa)
#
#
# Indices 1 2 3 4 5 6 
#
# 1 0.019025 -0.003648 0.001824 0.000000 0.000000 0.000000
# 2 -0.003648 0.011376 0.000292 0.000000 0.000000 0.000000
# 3 0.001824 0.000292 0.010847 0.000000 0.000000 0.000000
# 4 0.000000 0.000000 0.000000 0.052115 0.000000 0.000000
# 5 0.000000 0.000000 0.000000 0.000000 -0.185892 0.000000
# 6 0.000000 0.000000 0.000000 0.000000 0.000000 0.012691
#
#
# Mechanical properties :
#
#
# Convention : Reuss Voigt Hill
#
# Bulk Modulus (GPa) = 26.18879 27.86242 27.02561
# Shear Modulus (GPa) = -78.06750 34.67658 -21.69546
#
# Velocity S-wave (km/s) = -6.22513 4.14889 -3.28169
# Velocity P-wave (km/s) = 6.21850 6.06480 0.97159
#
# Compressibility (1/GPa) = 0.03818427
#
# Stress axis : x y z
#
# Youngs Moduli (GPa) = 52.56257 87.90276 92.19392
#
# Poissons Ratio (x) = 0.32067 -0.16818
# Poissons Ratio (y) = 0.19175 -0.02692
# Poissons Ratio (z) = -0.09588 -0.02567
#
# Static dielectric constant tensor:
#      x y z
#    x 1.695320 0.000000 0.000000 
#    y 0.000000 1.706640 0.000000 
#    z 0.000000 0.000000 1.739460 
# 
# From -- ./inp_files/36963.got.cif
#   From: 2010.05.17/outbox.cif.g08.bks.cpg/sg74_19_cif.got.tgz:36963.got - 2010.06.03 17:57:02.
