data_PCOD9536148
_publ_section_title
;
Structure prediction by ZEFSAII (Michael W. Deem and Ramdas Pophale) SiO2 
 PCOD9536148
Probable space group: I M M A
;
_chemical_formula_sum "Si O2"
_cell_formula_units_Z 68
_cell_length_a 9.759362
_cell_length_b 24.594306
_cell_length_c 16.425803
_cell_angle_alpha 90.000000
_cell_angle_beta 90.000000
_cell_angle_gamma 90.000000
_cell_volume 3942.599019
_symmetry_space_group_name_H-M "I M M A"
_symmetry_group_IT_number 74
_symmetry_cell_setting 'orthorhombic'
loop_
_space_group_symop_operation_xyz
x,y,z
-x,1/2-y,z
x,-y,-z
-x,1/2+y,-z
-x,-y,-z
x,1/2+y,-z
-x,y,z
x,1/2-y,z
1/2+x,1/2+y,1/2+z
1/2-x,-y,1/2+z
1/2+x,1/2-y,1/2-z
1/2-x,y,1/2-z
1/2-x,1/2-y,1/2-z
1/2+x,y,1/2-z
1/2-x,1/2+y,1/2+z
1/2+x,-y,1/2+z
loop_
_atom_site_type_symbol
_atom_site_label
_atom_site_fract_x
_atom_site_fract_y
_atom_site_fract_z
Si Si1 0.000000 0.892533 0.806339
Si Si2 0.500000 0.380302 0.116439
Si Si3 0.704716 0.548471 0.440929
Si Si4 0.000000 0.250000 0.034892
Si Si5 0.297995 0.352206 0.440273
Si Si6 0.500000 0.986653 0.114281
Si Si7 0.000000 0.977484 0.196015
O O1 0.868549 0.872918 0.856775
O O2 0.000000 0.871886 0.714068
O O3 0.000000 0.957363 0.808830
O O4 0.364270 0.354167 0.077274
O O5 0.500000 0.446957 0.108283
O O6 0.655143 0.500000 0.500000
O O7 0.677855 0.603915 0.488414
O O8 0.864344 0.537200 0.426146
O O9 0.629073 0.544445 0.354669
O O10 0.878839 0.202406 0.038295
O O11 0.500000 0.967542 0.208229
#
# Coordination Sequence:
#
# PCOD9536148 Si02
#       7
#     8   8  16   4  16   8   8
#     4  10  19  33  52  82 116 152 184 221 274 331
#     4  11  20  34  57  84 117 151 176 228 283 328
#     4  12  20  34  57  87 113 149 185 223 279 335
#     4  10  26  44  54  78 106 146 206 246 266 314
#     4  11  22  38  57  78 111 148 194 235 272 323
#     4  11  22  34  52  92 128 143 173 220 284 349
#     4  11  20  32  52  83 124 156 177 209 274 352
#
# _framework density 17.247506000000001
#
# number of rings (size 3 to 8) (size 9 to 14) (size 15 to 20)
#    0.000    0.941    4.706    4.235    0.000    4.235 
#    0.000    9.412    0.000    0.000    0.000   13.176 
#    0.000    0.000    0.000    0.000    0.000    0.000 
#
# Total GULP energy -189316.614485 kJ/mol
# GULP energy per Si atom -5568.135720 kJ/mol
# Density = 1.720825 g / cm^3
# Si number density = 17.247506 Si / 1000 Ang^3
#
#
#
# Elastic Constant Matrix: (Units=GPa)
#
#
# Indices 1 2 3 4 5 6 
#
# 1 152.2558 57.6790 34.4017 0.0000 0.0000 0.0000
# 2 57.6790 138.9050 52.1985 0.0000 0.0000 0.0000
# 3 34.4017 52.1985 101.5987 -0.0002 0.0000 0.0001
# 4 0.0000 0.0000 -0.0002 -0.2633 0.0000 0.0000
# 5 0.0000 0.0000 0.0000 0.0000 36.2263 0.0000
# 6 0.0000 0.0000 0.0001 0.0000 0.0000 35.3744
#
#
#
# Elastic Compliance Matrix: (Units=1/GPa)
#
#
# Indices 1 2 3 4 5 6 
#
# 1 0.007916 -0.002825 -0.001229 0.000001 0.000000 0.000000
# 2 -0.002825 0.009930 -0.004145 0.000001 0.000000 0.000000
# 3 -0.001229 -0.004145 0.012388 -0.000007 0.000000 0.000000
# 4 0.000001 0.000001 -0.000007 -3.798403 0.000002 0.000005
# 5 0.000000 0.000000 0.000000 0.000002 0.027604 0.000000
# 6 0.000000 0.000000 0.000000 0.000005 0.000000 0.028269
#
#
# Mechanical properties :
#
#
# Convention : Reuss Voigt Hill
#
# Bulk Modulus (GPa) = 72.27577 75.70200 73.98888
# Shear Modulus (GPa) = -1.35454 30.83284 14.73915
#
# Velocity S-wave (km/s) = -0.88716 4.23267 2.92647
# Velocity P-wave (km/s) = 6.39895 8.23858 7.37634
#
# Compressibility (1/GPa) = 0.01383590
#
# Stress axis : x y z
#
# Youngs Moduli (GPa) = 126.32952 100.70522 80.72086
#
# Poissons Ratio (x) = 0.28451 0.09919
# Poissons Ratio (y) = 0.35690 0.33460
# Poissons Ratio (z) = 0.15524 0.41743
#
# Static dielectric constant tensor:
#      x y z
#    x 1.630680 0.000000 0.000000 
#    y 0.000000 1.551790 0.000000 
#    z 0.000000 0.000000 1.582980 
# 
# From -- ./inp_files/29109.got.cif
#   From: 2010.05.17/outbox.cif.g08.bks.cpg/sg74_15_cif.got.tgz:29109.got - 2010.06.03 17:57:02.
