data_PCOD9536403
_publ_section_title
;
Structure prediction by ZEFSAII (Michael W. Deem and Ramdas Pophale) SiO2 
 PCOD9536403
Probable space group: I M M A
;
_chemical_formula_sum "Si O2"
_cell_formula_units_Z 80
_cell_length_a 13.341258
_cell_length_b 14.510080
_cell_length_c 22.752101
_cell_angle_alpha 90.000000
_cell_angle_beta 90.000000
_cell_angle_gamma 90.000000
_cell_volume 4404.413617
_symmetry_space_group_name_H-M "I M M A"
_symmetry_group_IT_number 74
_symmetry_cell_setting 'orthorhombic'
loop_
_space_group_symop_operation_xyz
x,y,z
-x,1/2-y,z
x,-y,-z
-x,1/2+y,-z
-x,-y,-z
x,1/2+y,-z
-x,y,z
x,1/2-y,z
1/2+x,1/2+y,1/2+z
1/2-x,-y,1/2+z
1/2+x,1/2-y,1/2-z
1/2-x,y,1/2-z
1/2-x,1/2-y,1/2-z
1/2+x,y,1/2-z
1/2-x,1/2+y,1/2+z
1/2+x,-y,1/2+z
loop_
_atom_site_type_symbol
_atom_site_label
_atom_site_fract_x
_atom_site_fract_y
_atom_site_fract_z
Si Si1 0.116642 0.559948 0.788012
Si Si2 0.812886 0.857048 0.667453
Si Si3 0.878679 0.519611 0.566629
Si Si4 0.621305 0.849833 0.144689
Si Si5 0.121717 0.851495 0.219408
O O1 0.132384 0.581798 0.718227
O O2 0.195372 0.625456 0.820412
O O3 0.145546 0.453936 0.803292
O O4 0.000000 0.574382 0.801746
O O5 0.838020 0.750000 0.676103
O O6 0.841618 0.892003 0.602783
O O7 0.846389 0.500000 0.500000
O O8 0.843493 0.433357 0.605686
O O9 0.000000 0.523043 0.566473
O O10 0.500000 0.855016 0.146447
O O11 0.647444 0.750000 0.119465
O O12 0.654566 0.853202 0.212247
O O13 0.150117 0.750000 0.194484
O O14 0.000000 0.850755 0.219648
#
# Coordination Sequence:
#
# PCOD9536403 Si02
#       5
#    16  16  16  16  16
#     4  10  19  34  54  76 108 145 176 213 266 322
#     4  11  23  35  50  77 108 138 180 226 262 310
#     4  10  20  34  52  73 100 135 171 212 265 316
#     4   8  13  24  43  66  92 122 157 197 243 300
#     4   8  13  24  46  72  98 129 161 198 247 302
#
# _framework density 18.163596999999999
#
# number of rings (size 3 to 8) (size 9 to 14) (size 15 to 20)
#    0.000    2.600    2.000    3.000    0.000    3.600 
#    0.000    5.000    0.000    0.600    0.000    0.000 
#    0.000    0.000    0.000    0.000    0.000    0.000 
#
# Total GULP energy -222920.280933 kJ/mol
# GULP energy per Si atom -5573.007023 kJ/mol
# Density = 1.812226 g / cm^3
# Si number density = 18.163597 Si / 1000 Ang^3
#
#
#
# Elastic Constant Matrix: (Units=GPa)
#
#
# Indices 1 2 3 4 5 6 
#
# 1 63.9103 3.0786 13.6815 0.0000 0.0000 0.0000
# 2 3.0786 104.5389 13.6220 0.0000 0.0000 0.0000
# 3 13.6815 13.6220 68.0333 0.0000 0.0000 0.0000
# 4 0.0000 0.0000 0.0000 13.7200 0.0000 0.0000
# 5 0.0000 0.0000 0.0000 0.0000 15.7970 0.0000
# 6 0.0000 0.0000 0.0000 0.0000 0.0000 23.4153
#
#
#
# Elastic Compliance Matrix: (Units=1/GPa)
#
#
# Indices 1 2 3 4 5 6 
#
# 1 0.016351 -0.000054 -0.003277 0.000000 0.000000 0.000000
# 2 -0.000054 0.009822 -0.001956 0.000000 0.000000 0.000000
# 3 -0.003277 -0.001956 0.015749 0.000000 0.000000 0.000000
# 4 0.000000 0.000000 0.000000 0.072886 0.000000 0.000000
# 5 0.000000 0.000000 0.000000 0.000000 0.063303 0.000000
# 6 0.000000 0.000000 0.000000 0.000000 0.000000 0.042707
#
#
# Mechanical properties :
#
#
# Convention : Reuss Voigt Hill
#
# Bulk Modulus (GPa) = 31.90023 33.02742 32.46382
# Shear Modulus (GPa) = 20.67450 24.32647 22.50048
#
# Velocity S-wave (km/s) = 3.37744 3.66361 3.52343
# Velocity P-wave (km/s) = 5.72803 6.00990 5.87065
#
# Compressibility (1/GPa) = 0.03134774
#
# Stress axis : x y z
#
# Youngs Moduli (GPa) = 61.15783 101.80951 63.49469
#
# Poissons Ratio (x) = 0.00555 0.20809
# Poissons Ratio (y) = 0.00333 0.12418
# Poissons Ratio (z) = 0.20043 0.19911
#
# Static dielectric constant tensor:
#      x y z
#    x 1.675650 0.000000 0.000000 
#    y 0.000000 1.661730 0.000000 
#    z 0.000000 0.000000 1.602710 
# 
# From -- ./inp_files/51665.got.cif
#   From: 2010.05.17/outbox.cif.g08.bks.cpg/sg74_26_cif.got.tgz:51665.got - 2010.06.03 17:57:02.
