data_PCOD9536806
_publ_section_title
;
Structure prediction by ZEFSAII (Michael W. Deem and Ramdas Pophale) SiO2 
 PCOD9536806
Probable space group: I M M A
;
_chemical_formula_sum "Si O2"
_cell_formula_units_Z 116
_cell_length_a 14.751067
_cell_length_b 18.072924
_cell_length_c 18.451711
_cell_angle_alpha 90.000000
_cell_angle_beta 90.000000
_cell_angle_gamma 90.000000
_cell_volume 4919.132285
_symmetry_space_group_name_H-M "I M M A"
_symmetry_group_IT_number 74
_symmetry_cell_setting 'orthorhombic'
loop_
_space_group_symop_operation_xyz
x,y,z
-x,1/2-y,z
x,-y,-z
-x,1/2+y,-z
-x,-y,-z
x,1/2+y,-z
-x,y,z
x,1/2-y,z
1/2+x,1/2+y,1/2+z
1/2-x,-y,1/2+z
1/2+x,1/2-y,1/2-z
1/2-x,y,1/2-z
1/2-x,1/2-y,1/2-z
1/2+x,y,1/2-z
1/2-x,1/2+y,1/2+z
1/2+x,-y,1/2+z
loop_
_atom_site_type_symbol
_atom_site_label
_atom_site_fract_x
_atom_site_fract_y
_atom_site_fract_z
Si Si1 0.396337 0.017514 0.584119
Si Si2 0.890830 0.927043 0.458710
Si Si3 0.354362 0.331394 0.094340
Si Si4 0.000000 0.250000 0.066473
Si Si5 0.106164 0.415498 0.704671
Si Si6 0.147724 0.141265 0.122300
Si Si7 0.388934 0.332607 0.654614
Si Si8 0.858115 0.916270 0.735002
O O1 0.500000 0.012258 0.612332
O O2 0.362701 0.099406 0.602481
O O3 0.399411 0.000000 0.500000
O O4 0.343379 0.947265 0.613491
O O5 0.871472 0.860852 0.513894
O O6 0.855215 0.916515 0.376863
O O7 0.000000 0.935823 0.452931
O O8 0.854219 0.000000 0.500000
O O9 0.392843 0.250000 0.104227
O O10 0.247062 0.328272 0.109787
O O11 0.387037 0.388290 0.155785
O O12 0.921356 0.315355 0.071523
O O13 0.140742 0.358142 0.764911
O O14 0.114352 0.497899 0.737785
O O15 0.000000 0.397881 0.697354
O O16 0.109106 0.142302 0.204396
O O17 0.500000 0.330145 0.652556
O O18 0.357405 0.250000 0.635796
O O19 0.750000 0.914177 0.750000
#
# Coordination Sequence:
#
# PCOD9536806 Si02
#       8
#    16  16  16   4  16  16  16  16
#     4  10  20  37  59  87 121 162 214 261 321 396
#     4  10  21  39  62  92 126 171 223 274 332 408
#     4  11  24  41  60  90 134 171 213 270 339 398
#     4  12  24  40  64  96 132 162 234 286 314 378
#     4  10  19  36  65  92 123 166 221 274 327 397
#     4  11  23  41  62  91 126 176 219 271 329 391
#     4   9  18  34  58  92 124 159 205 267 328 382
#     4  10  22  37  60  88 126 172 216 261 329 400
#
# _framework density 23.581396000000002
#
# number of rings (size 3 to 8) (size 9 to 14) (size 15 to 20)
#    0.000    1.793    4.138    0.000    1.931    2.207 
#    1.241    1.379    0.000    0.414    0.000    0.000 
#    0.000    0.000    0.000    0.000    0.000    0.000 
#
# Total GULP energy -323440.135043 kJ/mol
# GULP energy per Si atom -5576.554052 kJ/mol
# Density = 2.352772 g / cm^3
# Si number density = 23.581396 Si / 1000 Ang^3
#
#
#
# Elastic Constant Matrix: (Units=GPa)
#
#
# Indices 1 2 3 4 5 6 
#
# 1 58.2890 3.7992 -1.0824 0.0000 0.0000 0.0000
# 2 3.7992 178.9465 43.9837 0.0000 0.0000 0.0000
# 3 -1.0824 43.9837 105.8632 0.0000 0.0000 0.0000
# 4 0.0000 0.0000 0.0000 39.3710 0.0000 0.0000
# 5 0.0000 0.0000 0.0000 0.0000 21.4216 0.0000
# 6 0.0000 0.0000 0.0000 0.0000 0.0000 -2.8857
#
#
#
# Elastic Compliance Matrix: (Units=1/GPa)
#
#
# Indices 1 2 3 4 5 6 
#
# 1 0.017192 -0.000455 0.000365 0.000000 0.000000 0.000000
# 2 -0.000455 0.006236 -0.002596 0.000000 0.000000 0.000000
# 3 0.000365 -0.002596 0.010528 0.000000 0.000000 0.000000
# 4 0.000000 0.000000 0.000000 0.025399 0.000000 0.000000
# 5 0.000000 0.000000 0.000000 0.000000 0.046682 0.000000
# 6 0.000000 0.000000 0.000000 0.000000 0.000000 -0.346535
#
#
# Mechanical properties :
#
#
# Convention : Reuss Voigt Hill
#
# Bulk Modulus (GPa) = 34.98281 48.49998 41.74140
# Shear Modulus (GPa) = -22.16335 31.34126 4.58896
#
# Velocity S-wave (km/s) = -3.06905 3.64959 1.39651
# Velocity P-wave (km/s) = 1.51933 6.19444 4.50996
#
# Compressibility (1/GPa) = 0.02858546
#
# Stress axis : x y z
#
# Youngs Moduli (GPa) = 58.16561 160.36245 94.98248
#
# Poissons Ratio (x) = 0.07291 -0.03464
# Poissons Ratio (y) = 0.02644 0.24653
# Poissons Ratio (z) = -0.02121 0.41622
#
# Static dielectric constant tensor:
#      x y z
#    x 1.890440 0.000000 0.000000 
#    y 0.000000 1.853270 0.000000 
#    z 0.000000 0.000000 2.068270 
# 
# From -- ./inp_files/44286.got.cif
#   From: 2010.05.17/outbox.cif.g08.bks.cpg/sg74_23_cif.got.tgz:44286.got - 2010.06.03 17:57:02.
