data_PCOD9536058
_publ_section_title
;
Structure prediction by ZEFSAII (Michael W. Deem and Ramdas Pophale) SiO2 
 PCOD9536058
Probable space group: I M M A
;
_chemical_formula_sum "Si O2"
_cell_formula_units_Z 64
_cell_length_a 10.595983
_cell_length_b 19.024508
_cell_length_c 17.976922
_cell_angle_alpha 90.000000
_cell_angle_beta 90.000000
_cell_angle_gamma 90.000000
_cell_volume 3623.848399
_symmetry_space_group_name_H-M "I M M A"
_symmetry_group_IT_number 74
_symmetry_cell_setting 'orthorhombic'
loop_
_space_group_symop_operation_xyz
x,y,z
-x,1/2-y,z
x,-y,-z
-x,1/2+y,-z
-x,-y,-z
x,1/2+y,-z
-x,y,z
x,1/2-y,z
1/2+x,1/2+y,1/2+z
1/2-x,-y,1/2+z
1/2+x,1/2-y,1/2-z
1/2-x,y,1/2-z
1/2-x,1/2-y,1/2-z
1/2+x,y,1/2-z
1/2-x,1/2+y,1/2+z
1/2+x,-y,1/2+z
loop_
_atom_site_type_symbol
_atom_site_label
_atom_site_fract_x
_atom_site_fract_y
_atom_site_fract_z
Si Si1 0.742632 0.443403 0.336031
Si Si2 0.251820 0.386587 0.664636
Si Si3 0.500000 0.429047 0.086892
Si Si4 0.000000 0.166776 0.919759
Si Si5 0.000000 0.398911 0.579890
Si Si6 0.000000 0.568130 0.942467
O O1 0.750000 0.420247 0.250000
O O2 0.745303 0.528499 0.334087
O O3 0.621497 0.429179 0.388145
O O4 0.869113 0.413515 0.372868
O O5 0.250000 0.361714 0.750000
O O6 0.375775 0.359747 0.623359
O O7 0.124079 0.369613 0.620139
O O8 0.500000 0.515121 0.084031
O O9 0.500000 0.390138 0.008191
O O10 0.000000 0.250000 0.922637
O O11 0.000000 0.132883 0.001196
O O12 0.000000 0.500000 0.000000
#
# Coordination Sequence:
#
# PCOD9536058 Si02
#       6
#    16  16   8   8   8   8
#     4  10  19  32  55  85 112 139 178 231 288 336
#     4  10  19  34  53  78 110 146 185 225 272 333
#     4   9  17  26  45  74 110 132 167 217 280 327
#     4  12  25  38  54  80 115 157 197 230 272 330
#     4   9  17  28  48  72  99 136 175 220 265 321
#     4  12  21  36  60  84 114 149 188 237 283 326
#
# _framework density 17.660782000000001
#
# number of rings (size 3 to 8) (size 9 to 14) (size 15 to 20)
#    0.000    1.750    2.500    3.000    3.500    4.500 
#    0.000    0.625    0.000    0.750    0.000    0.000 
#    0.000    0.000    0.000    0.000    0.000    0.000 
#
# Total GULP energy -178365.287008 kJ/mol
# GULP energy per Si atom -5573.915219 kJ/mol
# Density = 1.762059 g / cm^3
# Si number density = 17.660782 Si / 1000 Ang^3
#
#
#
# Elastic Constant Matrix: (Units=GPa)
#
#
# Indices 1 2 3 4 5 6 
#
# 1 218.5910 24.5132 135.9350 0.0000 0.0000 0.0000
# 2 24.5132 20.1054 30.1780 0.0000 0.0000 0.0000
# 3 135.9350 30.1780 208.1101 0.0000 0.0000 0.0000
# 4 0.0000 0.0000 0.0000 8.7127 0.0000 0.0000
# 5 0.0000 0.0000 0.0000 0.0000 -222.3393 0.0000
# 6 0.0000 0.0000 0.0000 0.0000 0.0000 179.0548
#
#
#
# Elastic Compliance Matrix: (Units=1/GPa)
#
#
# Indices 1 2 3 4 5 6 
#
# 1 0.007792 -0.002378 -0.004745 0.000000 0.000000 0.000000
# 2 -0.002378 0.064302 -0.007771 0.000000 0.000000 0.000000
# 3 -0.004745 -0.007771 0.009031 0.000000 0.000000 0.000000
# 4 0.000000 0.000000 0.000000 0.114774 0.000000 0.000000
# 5 0.000000 0.000000 0.000000 0.000000 -0.004498 0.000000
# 6 0.000000 0.000000 0.000000 0.000000 0.000000 0.005585
#
#
# Mechanical properties :
#
#
# Convention : Reuss Voigt Hill
#
# Bulk Modulus (GPa) = 19.47919 92.00655 55.74287
# Shear Modulus (GPa) = 20.50129 10.16433 15.33281
#
# Velocity S-wave (km/s) = 3.41080 2.40163 2.94969
# Velocity P-wave (km/s) = 5.15412 7.73951 6.57514
#
# Compressibility (1/GPa) = 0.05133684
#
# Stress axis : x y z
#
# Youngs Moduli (GPa) = 128.33437 15.55170 110.72659
#
# Poissons Ratio (x) = 0.03699 0.52538
# Poissons Ratio (y) = 0.30524 0.86043
# Poissons Ratio (z) = 0.60892 0.12085
#
# Static dielectric constant tensor:
#      x y z
#    x 1.602690 0.000000 0.000000 
#    y 0.000000 1.566180 0.000000 
#    z 0.000000 0.000000 1.721870 
# 
# From -- ./inp_files/30276.got.cif
#   From: 2010.05.17/outbox.cif.g08.bks.cpg/sg74_16_cif.got.tgz:30276.got - 2010.06.03 17:57:02.
