data_PCOD9536475
_publ_section_title
;
Structure prediction by ZEFSAII (Michael W. Deem and Ramdas Pophale) SiO2 
 PCOD9536475
Probable space group: I M M A
;
_chemical_formula_sum "Si O2"
_cell_formula_units_Z 104
_cell_length_a 9.857735
_cell_length_b 23.736863
_cell_length_c 25.511785
_cell_angle_alpha 90.000000
_cell_angle_beta 90.000000
_cell_angle_gamma 90.000000
_cell_volume 5969.546074
_symmetry_space_group_name_H-M "I M M A"
_symmetry_group_IT_number 74
_symmetry_cell_setting 'orthorhombic'
loop_
_space_group_symop_operation_xyz
x,y,z
-x,1/2-y,z
x,-y,-z
-x,1/2+y,-z
-x,-y,-z
x,1/2+y,-z
-x,y,z
x,1/2-y,z
1/2+x,1/2+y,1/2+z
1/2-x,-y,1/2+z
1/2+x,1/2-y,1/2-z
1/2-x,y,1/2-z
1/2-x,1/2-y,1/2-z
1/2+x,y,1/2-z
1/2-x,1/2+y,1/2+z
1/2+x,-y,1/2+z
loop_
_atom_site_type_symbol
_atom_site_label
_atom_site_fract_x
_atom_site_fract_y
_atom_site_fract_z
Si Si1 0.844908 0.816237 0.844380
Si Si2 0.340829 0.614967 0.921745
Si Si3 0.339135 0.423881 0.634656
Si Si4 0.750000 0.607025 0.750000
Si Si5 0.159688 0.933609 0.012287
Si Si6 0.660015 0.186711 0.698370
Si Si7 0.850984 0.479066 0.333361
O O1 0.825127 0.750000 0.833767
O O2 0.737960 0.838485 0.887204
O O3 0.825357 0.852860 0.791589
O O4 0.000000 0.824671 0.862994
O O5 0.500000 0.628291 0.930152
O O6 0.257383 0.601301 0.974134
O O7 0.335652 0.558805 0.885547
O O8 0.500000 0.434123 0.639170
O O9 0.305254 0.425479 0.573180
O O10 0.307870 0.362946 0.658343
O O11 0.260882 0.472755 0.665419
O O12 0.837895 0.564893 0.714286
O O13 0.000000 0.918825 0.004229
O O14 0.173426 0.000000 0.000000
O O15 0.500000 0.182295 0.711586
O O16 0.682745 0.250000 0.677288
O O17 0.750000 0.180156 0.750000
O O18 0.000000 0.505180 0.332746
#
# Coordination Sequence:
#
# PCOD9536475 Si02
#       7
#    16  16  16   8  16  16  16
#     4  10  21  38  60  82 108 149 197 237 276 330
#     4  10  21  36  55  80 111 146 183 232 284 331
#     4  10  21  35  54  81 110 143 180 223 270 324
#     4  10  21  36  54  82 113 148 184 234 280 326
#     4  10  19  34  56  81 111 147 184 224 273 331
#     4   9  19  37  58  79 105 138 175 217 266 319
#     4  10  21  34  50  77 111 145 180 222 274 328
#
# _framework density 17.421759999999999
#
# number of rings (size 3 to 8) (size 9 to 14) (size 15 to 20)
#    0.000    2.154    1.538    1.154    1.077    5.538 
#    0.000    0.769    0.000    2.769    0.000    0.000 
#    0.000    0.000    0.000    0.000    0.000    0.000 
#
# Total GULP energy -290009.250415 kJ/mol
# GULP energy per Si atom -5577.100970 kJ/mol
# Density = 1.738211 g / cm^3
# Si number density = 17.421760 Si / 1000 Ang^3
#
#
#
# Elastic Constant Matrix: (Units=GPa)
#
#
# Indices 1 2 3 4 5 6 
#
# 1 86.1594 61.3964 51.0646 0.0000 0.0000 0.0000
# 2 61.3964 111.4452 67.8917 0.0000 0.0000 0.0000
# 3 51.0646 67.8917 81.5775 0.0000 0.0000 0.0000
# 4 0.0000 0.0000 0.0000 22.1573 0.0000 0.0000
# 5 0.0000 0.0000 0.0000 0.0000 19.6828 0.0000
# 6 0.0000 0.0000 0.0000 0.0000 0.0000 23.9008
#
#
#
# Elastic Compliance Matrix: (Units=1/GPa)
#
#
# Indices 1 2 3 4 5 6 
#
# 1 0.020967 -0.007212 -0.007123 0.000000 0.000000 0.000000
# 2 -0.007212 0.020681 -0.012697 0.000000 0.000000 0.000000
# 3 -0.007123 -0.012697 0.027284 0.000000 0.000000 0.000000
# 4 0.000000 0.000000 0.000000 0.045132 0.000000 0.000000
# 5 0.000000 0.000000 0.000000 0.000000 0.050806 0.000000
# 6 0.000000 0.000000 0.000000 0.000000 0.000000 0.041840
#
#
# Mechanical properties :
#
#
# Convention : Reuss Voigt Hill
#
# Bulk Modulus (GPa) = 67.25592 71.09863 69.17727
# Shear Modulus (GPa) = 18.81618 19.73680 19.27649
#
# Velocity S-wave (km/s) = 3.28996 3.36948 3.32996
# Velocity P-wave (km/s) = 7.28836 7.48577 7.38772
#
# Compressibility (1/GPa) = 0.01486858
#
# Stress axis : x y z
#
# Youngs Moduli (GPa) = 47.69431 48.35310 36.65175
#
# Poissons Ratio (x) = 0.34872 0.26105
# Poissons Ratio (y) = 0.34397 0.46538
# Poissons Ratio (z) = 0.33970 0.61395
#
# Static dielectric constant tensor:
#      x y z
#    x 1.595450 0.000000 0.000000 
#    y 0.000000 1.572770 0.000000 
#    z 0.000000 0.000000 1.576690 
# 
# From -- ./inp_files/64524.got.cif
#   From: 2010.05.17/outbox.cif.g08.bks.cpg/sg74_33_cif.got.tgz:64524.got - 2010.06.03 17:57:02.
