data_PCOD9536143
_publ_section_title
;
Structure prediction by ZEFSAII (Michael W. Deem and Ramdas Pophale) SiO2 
 PCOD9536143
Probable space group: I M M A
;
_chemical_formula_sum "Si O2"
_cell_formula_units_Z 116
_cell_length_a 7.982392
_cell_length_b 25.306943
_cell_length_c 26.850807
_cell_angle_alpha 90.000000
_cell_angle_beta 90.000000
_cell_angle_gamma 90.000000
_cell_volume 5424.129894
_symmetry_space_group_name_H-M "I M M A"
_symmetry_group_IT_number 74
_symmetry_cell_setting 'orthorhombic'
loop_
_space_group_symop_operation_xyz
x,y,z
-x,1/2-y,z
x,-y,-z
-x,1/2+y,-z
-x,-y,-z
x,1/2+y,-z
-x,y,z
x,1/2-y,z
1/2+x,1/2+y,1/2+z
1/2-x,-y,1/2+z
1/2+x,1/2-y,1/2-z
1/2-x,y,1/2-z
1/2-x,1/2-y,1/2-z
1/2+x,y,1/2-z
1/2-x,1/2+y,1/2+z
1/2+x,-y,1/2+z
loop_
_atom_site_type_symbol
_atom_site_label
_atom_site_fract_x
_atom_site_fract_y
_atom_site_fract_z
Si Si1 0.299694 0.807314 0.150235
Si Si2 0.810480 0.552157 0.060478
Si Si3 0.186301 0.676715 0.933535
Si Si4 0.297609 0.530078 0.697496
Si Si5 0.500000 0.250000 0.093099
Si Si6 0.194115 0.663876 0.461205
Si Si7 0.805316 0.562316 0.587976
Si Si8 0.811177 0.582407 0.177920
O O1 0.500000 0.805322 0.147628
O O2 0.236621 0.750000 0.167452
O O3 0.243076 0.817568 0.093000
O O4 0.258886 0.858988 0.182123
O O5 0.704846 0.599826 0.037257
O O6 0.748008 0.492029 0.060513
O O7 0.814461 0.568169 0.119075
O O8 0.000000 0.554976 0.041213
O O9 0.347988 0.704602 0.909184
O O10 0.204095 0.613838 0.927034
O O11 0.000000 0.692043 0.916283
O O12 0.205491 0.686646 0.992657
O O13 0.500000 0.528458 0.692197
O O14 0.250000 0.556019 0.750000
O O15 0.225226 0.554444 0.647166
O O16 0.226102 0.469884 0.699215
O O17 0.000000 0.679946 0.466649
O O18 0.000000 0.570986 0.578182
O O19 0.000000 0.584616 0.197092
#
# Coordination Sequence:
#
# PCOD9536143 Si02
#       8
#    16  16  16  16   4  16  16  16
#     4   9  18  29  47  70 101 144 194 248 289 325
#     4   9  17  31  51  78 112 152 192 236 288 350
#     4  12  25  42  63  85 115 155 197 249 293 340
#     4  10  20  35  58  89 118 144 174 218 280 347
#     4  12  26  48  60  84 114 152 204 240 298 342
#     4  10  19  33  52  78 113 153 202 248 300 343
#     4  11  21  38  59  86 120 152 189 232 284 349
#     4   8  16  30  46  70 107 142 180 225 277 340
#
# _framework density 21.385919000000001
#
# number of rings (size 3 to 8) (size 9 to 14) (size 15 to 20)
#    0.000    2.069    1.379    3.517    0.966    5.241 
#    0.000    2.759    0.000    0.414    0.000    0.483 
#    0.000    0.000    0.000    0.000    0.000    0.000 
#
# Total GULP energy -323213.972789 kJ/mol
# GULP energy per Si atom -5572.654703 kJ/mol
# Density = 2.133724 g / cm^3
# Si number density = 21.385919 Si / 1000 Ang^3
#
#
#
# Elastic Constant Matrix: (Units=GPa)
#
#
# Indices 1 2 3 4 5 6 
#
# 1 110.7102 22.5589 -2.0962 0.0000 0.0000 0.0000
# 2 22.5589 104.5479 -6.6863 0.0000 0.0000 0.0000
# 3 -2.0962 -6.6863 51.1617 0.0000 0.0000 0.0000
# 4 0.0000 0.0000 0.0000 -12.2927 0.0000 0.0000
# 5 0.0000 0.0000 0.0000 0.0000 13.8080 0.0000
# 6 0.0000 0.0000 0.0000 0.0000 0.0000 -10.5581
#
#
#
# Elastic Compliance Matrix: (Units=1/GPa)
#
#
# Indices 1 2 3 4 5 6 
#
# 1 0.009449 -0.002031 0.000122 0.000000 0.000000 0.000000
# 2 -0.002031 0.010082 0.001234 0.000000 0.000000 0.000000
# 3 0.000122 0.001234 0.019712 0.000000 0.000000 0.000000
# 4 0.000000 0.000000 0.000000 -0.081349 0.000000 0.000000
# 5 0.000000 0.000000 0.000000 0.000000 0.072422 0.000000
# 6 0.000000 0.000000 0.000000 0.000000 0.000000 -0.094714
#
#
# Mechanical properties :
#
#
# Convention : Reuss Voigt Hill
#
# Bulk Modulus (GPa) = 26.38989 32.66361 29.52675
# Shear Modulus (GPa) = -99.17268 15.03434 -42.06917
#
# Velocity S-wave (km/s) = -6.81715 2.65429 -4.44006
# Velocity P-wave (km/s) = 7.04259 4.96994 3.52830
#
# Compressibility (1/GPa) = 0.03789330
#
# Stress axis : x y z
#
# Youngs Moduli (GPa) = 105.83410 99.18483 50.73009
#
# Poissons Ratio (x) = 0.20145 -0.00617
# Poissons Ratio (y) = 0.21495 -0.06262
# Poissons Ratio (z) = -0.01288 -0.12244
#
# Static dielectric constant tensor:
#      x y z
#    x 1.770570 0.000000 0.000000 
#    y 0.000000 1.816230 0.000000 
#    z 0.000000 0.000000 1.807100 
# 
# From -- ./inp_files/70901.got.cif
#   From: 2010.05.17/outbox.cif.g08.bks.cpg/sg74_36_cif.got.tgz:70901.got - 2010.06.03 17:57:02.
