data_PCOD9536334
_publ_section_title
;
Structure prediction by ZEFSAII (Michael W. Deem and Ramdas Pophale) SiO2 
 PCOD9536334
Probable space group: I M M A
;
_chemical_formula_sum "Si O2"
_cell_formula_units_Z 96
_cell_length_a 24.924581
_cell_length_b 8.713623
_cell_length_c 22.987539
_cell_angle_alpha 90.000000
_cell_angle_beta 90.000000
_cell_angle_gamma 90.000000
_cell_volume 4992.511930
_symmetry_space_group_name_H-M "I M M A"
_symmetry_group_IT_number 74
_symmetry_cell_setting 'orthorhombic'
loop_
_space_group_symop_operation_xyz
x,y,z
-x,1/2-y,z
x,-y,-z
-x,1/2+y,-z
-x,-y,-z
x,1/2+y,-z
-x,y,z
x,1/2-y,z
1/2+x,1/2+y,1/2+z
1/2-x,-y,1/2+z
1/2+x,1/2-y,1/2-z
1/2-x,y,1/2-z
1/2-x,1/2-y,1/2-z
1/2+x,y,1/2-z
1/2-x,1/2+y,1/2+z
1/2+x,-y,1/2+z
loop_
_atom_site_type_symbol
_atom_site_label
_atom_site_fract_x
_atom_site_fract_y
_atom_site_fract_z
Si Si1 0.500000 0.937204 0.288356
Si Si2 0.884180 0.435330 0.830774
Si Si3 0.196323 0.931064 0.597886
Si Si4 0.086133 0.432433 0.560372
Si Si5 0.183407 0.065996 0.062782
Si Si6 0.500000 0.936963 0.154276
Si Si7 0.809237 0.572698 0.277467
O O1 0.500000 0.750000 0.286858
O O2 0.445519 0.983801 0.320611
O O3 0.500000 0.989580 0.220952
O O4 0.882116 0.250000 0.836327
O O5 0.855311 0.507043 0.886342
O O6 0.850842 0.473918 0.772434
O O7 0.191614 0.750000 0.586897
O O8 0.255303 0.983199 0.577440
O O9 0.147474 0.017059 0.567532
O O10 0.190696 0.967857 0.666121
O O11 0.064961 0.500000 0.500000
O O12 0.082470 0.250000 0.557706
O O13 0.051653 0.484419 0.616328
O O14 0.182411 0.250000 0.061496
O O15 0.168364 0.000000 0.000000
O O16 0.500000 0.750000 0.156390
O O17 0.821556 0.750000 0.294786
O O18 0.750000 0.570702 0.250000
#
# Coordination Sequence:
#
# PCOD9536334 Si02
#       7
#     8  16  16  16  16   8  16
#     4   9  18  35  61  89 114 146 186 233 288 343
#     4  10  20  37  61  88 118 150 190 234 283 343
#     4  11  23  37  56  85 120 157 194 240 292 344
#     4  11  22  37  58  83 116 157 201 246 288 342
#     4  11  24  40  59  83 114 151 191 237 290 344
#     4   9  19  37  60  85 115 152 195 241 288 339
#     4  10  19  33  57  87 117 153 192 234 284 341
#
# _framework density 19.228797
#
# number of rings (size 3 to 8) (size 9 to 14) (size 15 to 20)
#    0.000    1.667    1.667    3.250    0.000    7.000 
#    0.000    2.083    0.000    2.000    0.000    0.000 
#    0.000    0.000    0.000    0.000    0.000    0.000 
#
# Total GULP energy -268259.924431 kJ/mol
# GULP energy per Si atom -5588.748426 kJ/mol
# Density = 1.918503 g / cm^3
# Si number density = 19.228797 Si / 1000 Ang^3
#
#
#
# Elastic Constant Matrix: (Units=GPa)
#
#
# Indices 1 2 3 4 5 6 
#
# 1 139.0732 20.9106 52.8356 0.0000 0.0000 0.0000
# 2 20.9106 25.7387 22.5898 0.0000 0.0000 0.0000
# 3 52.8356 22.5898 107.8158 0.0000 0.0000 0.0000
# 4 0.0000 0.0000 0.0000 33.9691 0.0000 0.0000
# 5 0.0000 0.0000 0.0000 0.0000 8.1675 0.0000
# 6 0.0000 0.0000 0.0000 0.0000 0.0000 42.4159
#
#
#
# Elastic Compliance Matrix: (Units=1/GPa)
#
#
# Indices 1 2 3 4 5 6 
#
# 1 0.009211 -0.004315 -0.003610 0.000000 0.000000 0.000000
# 2 -0.004315 0.049628 -0.008284 0.000000 0.000000 0.000000
# 3 -0.003610 -0.008284 0.012780 0.000000 0.000000 0.000000
# 4 0.000000 0.000000 0.000000 0.029438 0.000000 0.000000
# 5 0.000000 0.000000 0.000000 0.000000 0.122436 0.000000
# 6 0.000000 0.000000 0.000000 0.000000 0.000000 0.023576
#
#
# Mechanical properties :
#
#
# Convention : Reuss Voigt Hill
#
# Bulk Modulus (GPa) = 25.50913 51.69997 38.60455
# Shear Modulus (GPa) = 17.09100 28.66330 22.87715
#
# Velocity S-wave (km/s) = 2.98455 3.86508 3.45299
# Velocity P-wave (km/s) = 5.01713 6.84569 6.00146
#
# Compressibility (1/GPa) = 0.03920165
#
# Stress axis : x y z
#
# Youngs Moduli (GPa) = 108.57109 20.15011 78.24980
#
# Poissons Ratio (x) = 0.08694 0.28245
# Poissons Ratio (y) = 0.46846 0.64819
# Poissons Ratio (z) = 0.39190 0.16692
#
# Static dielectric constant tensor:
#      x y z
#    x 1.672930 0.000000 0.000000 
#    y 0.000000 1.659990 0.000000 
#    z 0.000000 0.000000 1.657040 
# 
# From -- ./inp_files/61964.got.cif
#   From: 2010.05.17/outbox.cif.g08.bks.cpg/sg74_31_cif.got.tgz:61964.got - 2010.06.03 17:57:02.
