data_PCOD9536979
_publ_section_title
;
Structure prediction by ZEFSAII (Michael W. Deem and Ramdas Pophale) SiO2 
 PCOD9536979
Probable space group: I M M A
;
_chemical_formula_sum "Si O2"
_cell_formula_units_Z 80
_cell_length_a 9.193506
_cell_length_b 20.511432
_cell_length_c 25.427883
_cell_angle_alpha 90.000000
_cell_angle_beta 90.000000
_cell_angle_gamma 90.000000
_cell_volume 4794.986071
_symmetry_space_group_name_H-M "I M M A"
_symmetry_group_IT_number 74
_symmetry_cell_setting 'orthorhombic'
loop_
_space_group_symop_operation_xyz
x,y,z
-x,1/2-y,z
x,-y,-z
-x,1/2+y,-z
-x,-y,-z
x,1/2+y,-z
-x,y,z
x,1/2-y,z
1/2+x,1/2+y,1/2+z
1/2-x,-y,1/2+z
1/2+x,1/2-y,1/2-z
1/2-x,y,1/2-z
1/2-x,1/2-y,1/2-z
1/2+x,y,1/2-z
1/2-x,1/2+y,1/2+z
1/2+x,-y,1/2+z
loop_
_atom_site_type_symbol
_atom_site_label
_atom_site_fract_x
_atom_site_fract_y
_atom_site_fract_z
Si Si1 0.324423 0.894171 0.505411
Si Si2 0.174271 0.998577 0.086913
Si Si3 0.332835 0.345794 0.197542
Si Si4 0.663246 0.750000 0.629772
Si Si5 0.834774 0.750000 0.995244
Si Si6 0.831355 0.002591 0.696296
O O1 0.500000 0.887336 0.511877
O O2 0.300843 0.942004 0.456161
O O3 0.266772 0.821322 0.493873
O O4 0.275625 0.934251 0.557583
O O5 0.251640 0.981461 0.141538
O O6 0.000000 0.004109 0.095656
O O7 0.500000 0.325634 0.198308
O O8 0.250000 0.324664 0.250000
O O9 0.248743 0.312792 0.149957
O O10 0.328536 0.423712 0.196266
O O11 0.500000 0.750000 0.651617
O O12 0.654756 0.750000 0.567672
O O13 0.000000 0.750000 0.017982
O O14 0.750000 0.023959 0.750000
O O15 0.000000 0.023483 0.696738
#
# Coordination Sequence:
#
# PCOD9536979 Si02
#       6
#    16  16  16   8   8  16
#     4   8  15  27  45  68  94 124 155 188 227 272
#     4   9  16  29  48  69  94 123 154 189 230 273
#     4  10  20  32  43  57  82 115 151 188 224 263
#     4  11  20  28  43  63  84 115 153 190 223 257
#     4   9  16  26  42  67  92 115 150 188 220 263
#     4  10  20  32  47  67  90 118 151 189 232 276
#
# _framework density 16.684094999999999
#
# number of rings (size 3 to 8) (size 9 to 14) (size 15 to 20)
#    0.000    2.600    0.000    4.200    0.000    4.000 
#    0.000    2.000    0.000    2.400    0.000    0.700 
#    0.000    0.000    0.000    0.000    0.000    0.000 
#
# Total GULP energy -222763.401699 kJ/mol
# GULP energy per Si atom -5569.085042 kJ/mol
# Density = 1.664612 g / cm^3
# Si number density = 16.684095 Si / 1000 Ang^3
#
#
#
# Elastic Constant Matrix: (Units=GPa)
#
#
# Indices 1 2 3 4 5 6 
#
# 1 79.5294 11.1615 40.8572 0.0000 0.0000 0.0000
# 2 11.1615 76.2819 18.3004 0.0000 0.0000 0.0000
# 3 40.8572 18.3004 99.4564 0.0000 0.0000 0.0000
# 4 0.0000 0.0000 0.0000 20.2135 0.0000 0.0000
# 5 0.0000 0.0000 0.0000 0.0000 24.0348 0.0000
# 6 0.0000 0.0000 0.0000 0.0000 0.0000 15.5337
#
#
#
# Elastic Compliance Matrix: (Units=1/GPa)
#
#
# Indices 1 2 3 4 5 6 
#
# 1 0.015984 -0.000799 -0.006419 0.000000 0.000000 0.000000
# 2 -0.000799 0.013755 -0.002203 0.000000 0.000000 0.000000
# 3 -0.006419 -0.002203 0.013097 0.000000 0.000000 0.000000
# 4 0.000000 0.000000 0.000000 0.049472 0.000000 0.000000
# 5 0.000000 0.000000 0.000000 0.000000 0.041606 0.000000
# 6 0.000000 0.000000 0.000000 0.000000 0.000000 0.064376
#
#
# Mechanical properties :
#
#
# Convention : Reuss Voigt Hill
#
# Bulk Modulus (GPa) = 41.67720 43.98954 42.83337
# Shear Modulus (GPa) = 22.20943 24.28630 23.24787
#
# Velocity S-wave (km/s) = 3.65248 3.81945 3.73690
# Velocity P-wave (km/s) = 6.54385 6.77305 6.65944
#
# Compressibility (1/GPa) = 0.02399393
#
# Stress axis : x y z
#
# Youngs Moduli (GPa) = 62.56294 72.70292 76.35298
#
# Poissons Ratio (x) = 0.05807 0.49013
# Poissons Ratio (y) = 0.04997 0.16819
# Poissons Ratio (z) = 0.40161 0.16015
#
# Static dielectric constant tensor:
#      x y z
#    x 1.570050 0.000000 0.000000 
#    y 0.000000 1.601120 0.000000 
#    z 0.000000 0.000000 1.557270 
# 
# From -- ./inp_files/56869.got.cif
#   From: 2010.05.17/outbox.cif.g08.bks.cpg/sg74_29_cif.got.tgz:56869.got - 2010.06.03 17:57:02.
