data_PCOD9536645
_publ_section_title
;
Structure prediction by ZEFSAII (Michael W. Deem and Ramdas Pophale) SiO2 
 PCOD9536645
Probable space group: I M M A
;
_chemical_formula_sum "Si O2"
_cell_formula_units_Z 104
_cell_length_a 27.487473
_cell_length_b 8.467503
_cell_length_c 22.746031
_cell_angle_alpha 90.000000
_cell_angle_beta 90.000000
_cell_angle_gamma 90.000000
_cell_volume 5294.144631
_symmetry_space_group_name_H-M "I M M A"
_symmetry_group_IT_number 74
_symmetry_cell_setting 'orthorhombic'
loop_
_space_group_symop_operation_xyz
x,y,z
-x,1/2-y,z
x,-y,-z
-x,1/2+y,-z
-x,-y,-z
x,1/2+y,-z
-x,y,z
x,1/2-y,z
1/2+x,1/2+y,1/2+z
1/2-x,-y,1/2+z
1/2+x,1/2-y,1/2-z
1/2-x,y,1/2-z
1/2-x,1/2-y,1/2-z
1/2+x,y,1/2-z
1/2-x,1/2+y,1/2+z
1/2+x,-y,1/2+z
loop_
_atom_site_type_symbol
_atom_site_label
_atom_site_fract_x
_atom_site_fract_y
_atom_site_fract_z
Si Si1 0.295912 0.938048 0.320473
Si Si2 0.054018 0.062906 0.097594
Si Si3 0.000000 0.558594 0.433014
Si Si4 0.090537 0.058938 0.648773
Si Si5 0.844130 0.060239 0.060585
Si Si6 0.441947 0.428625 0.722904
Si Si7 0.313474 0.438138 0.194629
O O1 0.297283 0.750000 0.317507
O O2 0.318888 0.998811 0.380658
O O3 0.322442 0.003938 0.261895
O O4 0.240004 0.995158 0.318974
O O5 0.051395 0.250000 0.087409
O O6 0.100108 0.997909 0.063192
O O7 0.000000 0.994987 0.085715
O O8 0.066924 0.033015 0.165891
O O9 0.000000 0.500000 0.500000
O O10 0.950739 0.507882 0.397977
O O11 0.000000 0.750000 0.432674
O O12 0.091140 0.250000 0.647394
O O13 0.073928 0.008761 0.714090
O O14 0.145828 0.997599 0.648586
O O15 0.844139 0.250000 0.061418
O O16 0.821302 0.000000 0.000000
O O17 0.500000 0.415125 0.726728
O O18 0.422148 0.250000 0.713901
O O19 0.312273 0.250000 0.194364
#
# Coordination Sequence:
#
# PCOD9536645 Si02
#       7
#    16  16   8  16  16  16  16
#     4  11  22  40  63  88 118 154 195 240 298 359
#     4   9  19  34  51  76 112 149 186 230 278 327
#     4  10  22  40  60  82 118 162 205 250 297 356
#     4  10  19  35  57  83 115 154 196 238 290 352
#     4  11  23  39  58  81 113 153 197 240 286 339
#     4   9  16  28  49  77 107 141 182 226 274 326
#     4  11  22  37  61  93 123 149 186 242 303 358
#
# _framework density 19.644344
#
# number of rings (size 3 to 8) (size 9 to 14) (size 15 to 20)
#    0.000    1.846    0.769    5.077    0.000    5.231 
#    0.000    0.769    0.000    1.846    0.000    0.000 
#    0.000    0.000    0.000    0.000    0.000    0.000 
#
# Total GULP energy -290186.921842 kJ/mol
# GULP energy per Si atom -5580.517728 kJ/mol
# Density = 1.959963 g / cm^3
# Si number density = 19.644344 Si / 1000 Ang^3
#
#
#
# Elastic Constant Matrix: (Units=GPa)
#
#
# Indices 1 2 3 4 5 6 
#
# 1 110.6989 29.2412 72.1737 0.0000 0.0000 0.0000
# 2 29.2412 54.3890 19.3582 0.0000 0.0000 0.0000
# 3 72.1737 19.3582 113.0955 0.0000 0.0000 0.0000
# 4 0.0000 0.0000 0.0000 25.1637 0.0000 0.0000
# 5 0.0000 0.0000 0.0000 0.0000 18.4017 0.0000
# 6 0.0000 0.0000 0.0000 0.0000 0.0000 20.6148
#
#
#
# Elastic Compliance Matrix: (Units=1/GPa)
#
#
# Indices 1 2 3 4 5 6 
#
# 1 0.016933 -0.005599 -0.009848 0.000000 0.000000 0.000000
# 2 -0.005599 0.021430 -0.000095 0.000000 0.000000 0.000000
# 3 -0.009848 -0.000095 0.015143 0.000000 0.000000 0.000000
# 4 0.000000 0.000000 0.000000 0.039740 0.000000 0.000000
# 5 0.000000 0.000000 0.000000 0.000000 0.054343 0.000000
# 6 0.000000 0.000000 0.000000 0.000000 0.000000 0.048509
#
#
# Mechanical properties :
#
#
# Convention : Reuss Voigt Hill
#
# Bulk Modulus (GPa) = 44.59792 57.74774 51.17283
# Shear Modulus (GPa) = 21.30790 23.33004 22.31897
#
# Velocity S-wave (km/s) = 3.29703 3.44993 3.37434
# Velocity P-wave (km/s) = 6.10293 6.73274 6.42556
#
# Compressibility (1/GPa) = 0.02242257
#
# Stress axis : x y z
#
# Youngs Moduli (GPa) = 59.05648 46.66356 66.03769
#
# Poissons Ratio (x) = 0.26125 0.65032
# Poissons Ratio (y) = 0.33064 0.00629
# Poissons Ratio (z) = 0.58157 0.00444
#
# Static dielectric constant tensor:
#      x y z
#    x 1.744530 0.000000 0.000000 
#    y 0.000000 1.677550 0.000000 
#    z 0.000000 0.000000 1.687480 
# 
# From -- ./inp_files/55280.got.cif
#   From: 2010.05.17/outbox.cif.g08.bks.cpg/sg74_28_cif.got.tgz:55280.got - 2010.06.03 17:57:02.
