data_PCOD9536532
_publ_section_title
;
Structure prediction by ZEFSAII (Michael W. Deem and Ramdas Pophale) SiO2 
 PCOD9536532
Probable space group: I M M A
;
_chemical_formula_sum "Si O2"
_cell_formula_units_Z 108
_cell_length_a 15.205725
_cell_length_b 15.556249
_cell_length_c 22.903258
_cell_angle_alpha 90.000000
_cell_angle_beta 90.000000
_cell_angle_gamma 90.000000
_cell_volume 5417.629276
_symmetry_space_group_name_H-M "I M M A"
_symmetry_group_IT_number 74
_symmetry_cell_setting 'orthorhombic'
loop_
_space_group_symop_operation_xyz
x,y,z
-x,1/2-y,z
x,-y,-z
-x,1/2+y,-z
-x,-y,-z
x,1/2+y,-z
-x,y,z
x,1/2-y,z
1/2+x,1/2+y,1/2+z
1/2-x,-y,1/2+z
1/2+x,1/2-y,1/2-z
1/2-x,y,1/2-z
1/2-x,1/2-y,1/2-z
1/2+x,y,1/2-z
1/2-x,1/2+y,1/2+z
1/2+x,-y,1/2+z
loop_
_atom_site_type_symbol
_atom_site_label
_atom_site_fract_x
_atom_site_fract_y
_atom_site_fract_z
Si Si1 0.339887 0.157572 0.127989
Si Si2 0.403037 0.959429 0.327916
Si Si3 0.000000 0.750000 0.937820
Si Si4 0.896981 0.849616 0.493014
Si Si5 0.600505 0.514369 0.189308
Si Si6 0.732379 0.500000 0.000000
Si Si7 0.348281 0.889586 0.589555
Si Si8 0.240712 0.653492 0.320955
O O1 0.368091 0.250000 0.152424
O O2 0.382670 0.148530 0.063570
O O3 0.366377 0.076451 0.166077
O O4 0.234647 0.156567 0.120140
O O5 0.500000 0.922408 0.336643
O O6 0.328412 0.891452 0.344087
O O7 0.393009 0.982197 0.259583
O O8 0.391792 0.045395 0.364679
O O9 0.921488 0.674830 0.934801
O O10 0.875725 0.750000 0.475533
O O11 0.832241 0.926530 0.472566
O O12 0.000000 0.865627 0.479819
O O13 0.500000 0.526736 0.172243
O O14 0.659972 0.591480 0.166105
O O15 0.797178 0.551387 0.957357
O O16 0.229105 0.750000 0.342068
O O17 0.250000 0.656659 0.250000
#
# Coordination Sequence:
#
# PCOD9536532 Si02
#       8
#    16  16   4  16  16   8  16  16
#     4  10  19  34  57  89 124 160 194 229 279 346
#     4  10  20  37  57  82 118 152 197 245 298 349
#     4  12  24  42  68  86 116 152 208 244 314 382
#     4   9  18  35  62  91 123 158 194 232 287 362
#     4  10  20  33  54  86 124 159 194 242 284 344
#     4  10  23  37  62  88 112 150 198 247 303 350
#     4  11  22  40  62  85 111 152 195 250 300 358
#     4   9  18  33  55  77 105 148 196 242 290 341
#
# _framework density 19.934918
#
# number of rings (size 3 to 8) (size 9 to 14) (size 15 to 20)
#    0.000    2.074    2.963    0.667    1.037    1.778 
#    1.333    4.444    0.000    0.000    0.000    0.000 
#    0.000    0.000    0.000    0.000    0.000    0.000 
#
# Total GULP energy -300818.555416 kJ/mol
# GULP energy per Si atom -5570.713989 kJ/mol
# Density = 1.988955 g / cm^3
# Si number density = 19.934918 Si / 1000 Ang^3
#
#
#
# Elastic Constant Matrix: (Units=GPa)
#
#
# Indices 1 2 3 4 5 6 
#
# 1 166.4525 97.0538 37.3785 0.0000 0.0000 0.0000
# 2 97.0538 193.7127 29.3140 0.0000 0.0000 0.0000
# 3 37.3785 29.3140 14.8094 0.0000 0.0000 0.0000
# 4 0.0000 0.0000 0.0000 0.8198 0.0000 0.0000
# 5 0.0000 0.0000 0.0000 0.0000 15.6166 0.0000
# 6 0.0000 0.0000 0.0000 0.0000 0.0000 21.6227
#
#
#
# Elastic Compliance Matrix: (Units=1/GPa)
#
#
# Indices 1 2 3 4 5 6 
#
# 1 0.014665 -0.002493 -0.032080 0.000000 0.000000 0.000000
# 2 -0.002493 0.007794 -0.009135 0.000000 0.000000 0.000000
# 3 -0.032080 -0.009135 0.166573 0.000000 0.000000 0.000000
# 4 0.000000 0.000000 0.000000 1.219742 0.000000 0.000000
# 5 0.000000 0.000000 0.000000 0.000000 0.064034 0.000000
# 6 0.000000 0.000000 0.000000 0.000000 0.000000 0.046248
#
#
# Mechanical properties :
#
#
# Convention : Reuss Voigt Hill
#
# Bulk Modulus (GPa) = 9.84078 78.05190 43.94634
# Shear Modulus (GPa) = 3.04814 21.69370 12.37092
#
# Velocity S-wave (km/s) = 1.23789 3.30241 2.49382
# Velocity P-wave (km/s) = 2.64392 7.33345 5.51225
#
# Compressibility (1/GPa) = 0.10161795
#
# Stress axis : x y z
#
# Youngs Moduli (GPa) = 68.18918 128.30987 6.00336
#
# Poissons Ratio (x) = 0.31988 0.19258
# Poissons Ratio (y) = 0.17000 0.05484
# Poissons Ratio (z) = 2.18748 1.17206
#
# Static dielectric constant tensor:
#      x y z
#    x 1.703370 0.000000 0.000000 
#    y 0.000000 1.778820 0.000000 
#    z 0.000000 0.000000 1.735540 
# 
# From -- ./inp_files/67259.got.cif
#   From: 2010.05.17/outbox.cif.g08.bks.cpg/sg74_34_cif.got.tgz:67259.got - 2010.06.03 17:57:02.
