data_PCOD9536138
_publ_section_title
;
Structure prediction by ZEFSAII (Michael W. Deem and Ramdas Pophale) SiO2 
 PCOD9536138
Probable space group: I M M A
;
_chemical_formula_sum "Si O2"
_cell_formula_units_Z 96
_cell_length_a 15.011378
_cell_length_b 10.513255
_cell_length_c 33.039463
_cell_angle_alpha 90.000000
_cell_angle_beta 90.000000
_cell_angle_gamma 90.000000
_cell_volume 5214.236668
_symmetry_space_group_name_H-M "I M M A"
_symmetry_group_IT_number 74
_symmetry_cell_setting 'orthorhombic'
loop_
_space_group_symop_operation_xyz
x,y,z
-x,1/2-y,z
x,-y,-z
-x,1/2+y,-z
-x,-y,-z
x,1/2+y,-z
-x,y,z
x,1/2-y,z
1/2+x,1/2+y,1/2+z
1/2-x,-y,1/2+z
1/2+x,1/2-y,1/2-z
1/2-x,y,1/2-z
1/2-x,1/2-y,1/2-z
1/2+x,y,1/2-z
1/2-x,1/2+y,1/2+z
1/2+x,-y,1/2+z
loop_
_atom_site_type_symbol
_atom_site_label
_atom_site_fract_x
_atom_site_fract_y
_atom_site_fract_z
Si Si1 0.394130 0.750000 0.982009
Si Si2 0.291407 0.974528 0.838514
Si Si3 0.596423 0.395466 0.327383
Si Si4 0.897335 0.535123 0.584186
Si Si5 0.397807 0.482000 0.237792
Si Si6 0.669466 0.250000 0.931725
Si Si7 0.606747 0.250000 0.720080
Si Si8 0.251544 0.250000 0.849442
O O1 0.500000 0.750000 0.995101
O O2 0.380806 0.875486 0.954554
O O3 0.326774 0.750000 0.019648
O O4 0.332179 0.929171 0.796263
O O5 0.306944 0.125617 0.837957
O O6 0.185828 0.959295 0.842635
O O7 0.338709 0.920764 0.877889
O O8 0.500000 0.453985 0.338187
O O9 0.597094 0.250000 0.340806
O O10 0.602054 0.400809 0.278736
O O11 0.879086 0.385327 0.576567
O O12 0.000000 0.551319 0.595064
O O13 0.500000 0.487755 0.222315
O O14 0.372181 0.622973 0.254315
O O15 0.750839 0.250000 0.898849
O O16 0.500000 0.250000 0.712560
O O17 0.663236 0.250000 0.678482
#
# Coordination Sequence:
#
# PCOD9536138 Si02
#       8
#     8  16  16  16  16   8   8   8
#     4  10  20  36  57  80 108 144 185 223 265 331
#     4  11  21  33  53  75 109 138 174 226 272 309
#     4  10  22  37  50  68  95 137 190 224 260 317
#     4  10  21  35  53  82 113 143 180 220 267 326
#     4  10  20  33  51  74 102 142 180 217 264 317
#     4  10  20  35  56  79 108 148 180 217 271 328
#     4  10  19  33  52  75 106 141 182 224 267 316
#     4  10  21  32  49  82 105 131 178 227 268 317
#
# _framework density 18.411131000000001
#
# number of rings (size 3 to 8) (size 9 to 14) (size 15 to 20)
#    0.000    1.833    1.667    2.750    1.167    3.333 
#    0.000    2.500    0.000    0.000    0.000    1.167 
#    0.000    5.333    0.000    0.000    0.000    0.000 
#
# Total GULP energy -267541.767392 kJ/mol
# GULP energy per Si atom -5573.786821 kJ/mol
# Density = 1.836923 g / cm^3
# Si number density = 18.411131 Si / 1000 Ang^3
#
#
#
# Elastic Constant Matrix: (Units=GPa)
#
#
# Indices 1 2 3 4 5 6 
#
# 1 88.1188 5.4256 56.1751 0.0000 0.0000 0.0000
# 2 5.4256 49.9623 5.9174 0.0000 0.0000 0.0000
# 3 56.1751 5.9174 99.8427 0.0000 0.0000 0.0000
# 4 0.0000 0.0000 0.0000 76.7311 0.0000 0.0000
# 5 0.0000 0.0000 0.0000 0.0000 21.2258 0.0000
# 6 0.0000 0.0000 0.0000 0.0000 0.0000 10.2765
#
#
#
# Elastic Compliance Matrix: (Units=1/GPa)
#
#
# Indices 1 2 3 4 5 6 
#
# 1 0.017723 -0.000749 -0.009927 0.000000 0.000000 0.000000
# 2 -0.000749 0.020188 -0.000775 0.000000 0.000000 0.000000
# 3 -0.009927 -0.000775 0.015647 0.000000 0.000000 0.000000
# 4 0.000000 0.000000 0.000000 0.013033 0.000000 0.000000
# 5 0.000000 0.000000 0.000000 0.000000 0.047112 0.000000
# 6 0.000000 0.000000 0.000000 0.000000 0.000000 0.097310
#
#
# Mechanical properties :
#
#
# Convention : Reuss Voigt Hill
#
# Bulk Modulus (GPa) = 32.62020 41.44001 37.03010
# Shear Modulus (GPa) = 20.48056 33.00705 26.74380
#
# Velocity S-wave (km/s) = 3.33889 4.23871 3.81542
# Velocity P-wave (km/s) = 5.71142 6.82001 6.29019
#
# Compressibility (1/GPa) = 0.03065585
#
# Stress axis : x y z
#
# Youngs Moduli (GPa) = 56.42404 49.53379 63.90964
#
# Poissons Ratio (x) = 0.03709 0.63444
# Poissons Ratio (y) = 0.04225 0.04954
# Poissons Ratio (z) = 0.56013 0.03840
#
# Static dielectric constant tensor:
#      x y z
#    x 1.653280 0.000000 0.000000 
#    y 0.000000 1.694220 0.000000 
#    z 0.000000 0.000000 1.646850 
# 
# From -- ./inp_files/72477.got.cif
#   From: 2010.05.17/outbox.cif.g08.bks.cpg/sg74_37_cif.got.tgz:72477.got - 2010.06.03 17:57:02.
