data_PCOD9536679
_publ_section_title
;
Structure prediction by ZEFSAII (Michael W. Deem and Ramdas Pophale) SiO2 
 PCOD9536679
Probable space group: I M M A
;
_chemical_formula_sum "Si O2"
_cell_formula_units_Z 72
_cell_length_a 13.706758
_cell_length_b 14.169393
_cell_length_c 18.811124
_cell_angle_alpha 90.000000
_cell_angle_beta 90.000000
_cell_angle_gamma 90.000000
_cell_volume 3653.429552
_symmetry_space_group_name_H-M "I M M A"
_symmetry_group_IT_number 74
_symmetry_cell_setting 'orthorhombic'
loop_
_space_group_symop_operation_xyz
x,y,z
-x,1/2-y,z
x,-y,-z
-x,1/2+y,-z
-x,-y,-z
x,1/2+y,-z
-x,y,z
x,1/2-y,z
1/2+x,1/2+y,1/2+z
1/2-x,-y,1/2+z
1/2+x,1/2-y,1/2-z
1/2-x,y,1/2-z
1/2-x,1/2-y,1/2-z
1/2+x,y,1/2-z
1/2-x,1/2+y,1/2+z
1/2+x,-y,1/2+z
loop_
_atom_site_type_symbol
_atom_site_label
_atom_site_fract_x
_atom_site_fract_y
_atom_site_fract_z
Si Si1 0.612707 0.750000 0.046639
Si Si2 0.297970 0.049106 0.923185
Si Si3 0.396180 0.750000 0.584076
Si Si4 0.388366 0.921066 0.812480
Si Si5 0.889147 0.959092 0.849591
Si Si6 0.686848 0.750000 0.898257
O O1 0.500000 0.750000 0.072516
O O2 0.672550 0.657506 0.069633
O O3 0.608166 0.750000 0.960300
O O4 0.374486 0.004364 0.868263
O O5 0.191184 0.018812 0.892836
O O6 0.307549 0.000000 0.000000
O O7 0.500000 0.750000 0.543376
O O8 0.394818 0.651157 0.626804
O O9 0.286649 0.750000 0.555715
O O10 0.500000 0.886875 0.809671
O O11 0.363314 0.955208 0.733666
O O12 0.323194 0.838608 0.846185
O O13 0.000000 0.996578 0.858527
#
# Coordination Sequence:
#
# PCOD9536679 Si02
#       6
#     8  16   8  16  16   8
#     4  12  26  43  63  96 136 170 217 268 329 403
#     4  12  24  41  64  92 130 174 215 263 331 392
#     4  10  19  35  59  94 135 169 207 263 322 381
#     4  11  22  37  62  95 130 169 216 271 329 387
#     4  10  22  40  63  94 130 174 224 272 322 385
#     4  12  21  36  65 100 134 173 208 268 338 395
#
# _framework density 19.707509999999999
#
# number of rings (size 3 to 8) (size 9 to 14) (size 15 to 20)
#    0.000    0.889    4.444    3.000    0.000    4.000 
#    0.000    3.889    0.000    2.667    0.000    0.000 
#    0.000    0.000    0.000    0.000    0.000    0.000 
#
# Total GULP energy -200746.993594 kJ/mol
# GULP energy per Si atom -5576.305378 kJ/mol
# Density = 1.966266 g / cm^3
# Si number density = 19.707510 Si / 1000 Ang^3
#
#
#
# Elastic Constant Matrix: (Units=GPa)
#
#
# Indices 1 2 3 4 5 6 
#
# 1 145.5582 45.9768 12.0991 0.0000 0.0000 0.0000
# 2 45.9768 152.9128 48.8630 0.0000 0.0000 0.0000
# 3 12.0991 48.8630 65.6127 0.0000 0.0000 0.0000
# 4 0.0000 0.0000 0.0000 7.9829 0.0000 0.0000
# 5 0.0000 0.0000 0.0000 0.0000 12.2182 0.0000
# 6 0.0000 0.0000 0.0000 0.0000 0.0000 -6.2687
#
#
#
# Elastic Compliance Matrix: (Units=1/GPa)
#
#
# Indices 1 2 3 4 5 6 
#
# 1 0.007599 -0.002411 0.000394 0.000000 0.000000 0.000000
# 2 -0.002411 0.009347 -0.006516 0.000000 0.000000 0.000000
# 3 0.000394 -0.006516 0.020021 0.000000 0.000000 0.000000
# 4 0.000000 0.000000 0.000000 0.125267 0.000000 0.000000
# 5 0.000000 0.000000 0.000000 0.000000 0.081845 0.000000
# 6 0.000000 0.000000 0.000000 0.000000 0.000000 -0.159522
#
#
# Mechanical properties :
#
#
# Convention : Reuss Voigt Hill
#
# Bulk Modulus (GPa) = 50.24886 64.21793 57.23339
# Shear Modulus (GPa) = 46.18693 19.92947 33.05820
#
# Velocity S-wave (km/s) = 4.84635 3.18349 4.10010
# Velocity P-wave (km/s) = 7.54114 6.79478 7.17767
#
# Compressibility (1/GPa) = 0.01990095
#
# Stress axis : x y z
#
# Youngs Moduli (GPa) = 131.59975 106.98938 49.94761
#
# Poissons Ratio (x) = 0.25792 -0.01968
# Poissons Ratio (y) = 0.31724 0.32547
# Poissons Ratio (z) = -0.05186 0.69716
#
# Static dielectric constant tensor:
#      x y z
#    x 1.775030 0.000000 0.000000 
#    y 0.000000 1.724940 0.000000 
#    z 0.000000 0.000000 1.652660 
# 
# From -- ./inp_files/42557.got.cif
#   From: 2010.05.17/outbox.cif.g08.bks.cpg/sg74_22_cif.got.tgz:42557.got - 2010.06.03 17:57:02.
