data_PCOD9536441
_publ_section_title
;
Structure prediction by ZEFSAII (Michael W. Deem and Ramdas Pophale) SiO2 
 PCOD9536441
Probable space group: I M M A
;
_chemical_formula_sum "Si O2"
_cell_formula_units_Z 96
_cell_length_a 15.016672
_cell_length_b 15.749921
_cell_length_c 20.939651
_cell_angle_alpha 90.000000
_cell_angle_beta 90.000000
_cell_angle_gamma 90.000000
_cell_volume 4952.466125
_symmetry_space_group_name_H-M "I M M A"
_symmetry_group_IT_number 74
_symmetry_cell_setting 'orthorhombic'
loop_
_space_group_symop_operation_xyz
x,y,z
-x,1/2-y,z
x,-y,-z
-x,1/2+y,-z
-x,-y,-z
x,1/2+y,-z
-x,y,z
x,1/2-y,z
1/2+x,1/2+y,1/2+z
1/2-x,-y,1/2+z
1/2+x,1/2-y,1/2-z
1/2-x,y,1/2-z
1/2-x,1/2-y,1/2-z
1/2+x,y,1/2-z
1/2-x,1/2+y,1/2+z
1/2+x,-y,1/2+z
loop_
_atom_site_type_symbol
_atom_site_label
_atom_site_fract_x
_atom_site_fract_y
_atom_site_fract_z
Si Si1 0.761440 0.076229 0.393511
Si Si2 0.598282 0.655903 0.810668
Si Si3 0.654999 0.507909 0.717087
Si Si4 0.260336 0.847096 0.471587
Si Si5 0.100096 0.943929 0.435197
Si Si6 0.398180 0.651304 0.357748
O O1 0.822051 0.148713 0.361409
O O2 0.678952 0.054773 0.349056
O O3 0.731738 0.096514 0.465000
O O4 0.832619 0.998877 0.392545
O O5 0.500000 0.649200 0.841529
O O6 0.603750 0.750000 0.780241
O O7 0.607746 0.577933 0.761424
O O8 0.750000 0.490285 0.750000
O O9 0.611743 0.418351 0.698238
O O10 0.277152 0.750000 0.488544
O O11 0.157908 0.860826 0.449860
O O12 0.327854 0.869075 0.414197
O O13 0.000000 0.931016 0.410981
O O14 0.093310 0.000000 0.500000
O O15 0.500000 0.646755 0.381524
O O16 0.381968 0.750000 0.338077
#
# Coordination Sequence:
#
# PCOD9536441 Si02
#       6
#    16  16  16  16  16  16
#     4  10  19  34  55  79 113 147 188 229 289 347
#     4  10  21  36  55  83 117 152 194 237 283 344
#     4  10  21  36  59  84 110 152 192 244 288 335
#     4  10  20  34  55  82 113 147 188 235 285 348
#     4   9  17  30  50  75 106 142 182 225 274 338
#     4  10  21  39  61  85 115 152 194 241 291 344
#
# _framework density 19.384281999999999
#
# number of rings (size 3 to 8) (size 9 to 14) (size 15 to 20)
#    0.000    2.167    1.667    1.500    0.000    5.000 
#    0.000    2.500    0.000    2.000    0.000    0.000 
#    0.000    0.000    0.000    0.000    0.000    0.000 
#
# Total GULP energy -267350.039259 kJ/mol
# GULP energy per Si atom -5569.792485 kJ/mol
# Density = 1.934016 g / cm^3
# Si number density = 19.384282 Si / 1000 Ang^3
#
#
#
# Elastic Constant Matrix: (Units=GPa)
#
#
# Indices 1 2 3 4 5 6 
#
# 1 64.5426 27.5221 -2.9519 0.0000 0.0000 0.0000
# 2 27.5221 88.5085 37.6521 0.0000 0.0000 0.0000
# 3 -2.9519 37.6521 38.3364 0.0000 0.0000 0.0000
# 4 0.0000 0.0000 0.0000 23.2959 0.0000 0.0000
# 5 0.0000 0.0000 0.0000 0.0000 16.6658 0.0000
# 6 0.0000 0.0000 0.0000 0.0000 0.0000 20.6525
#
#
#
# Elastic Compliance Matrix: (Units=1/GPa)
#
#
# Indices 1 2 3 4 5 6 
#
# 1 0.021573 -0.012736 0.014170 0.000000 0.000000 0.000000
# 2 -0.012736 0.026926 -0.027426 0.000000 0.000000 0.000000
# 3 0.014170 -0.027426 0.054112 0.000000 0.000000 0.000000
# 4 0.000000 0.000000 0.000000 0.042926 0.000000 0.000000
# 5 0.000000 0.000000 0.000000 0.000000 0.060003 0.000000
# 6 0.000000 0.000000 0.000000 0.000000 0.000000 0.048420
#
#
# Mechanical properties :
#
#
# Convention : Reuss Voigt Hill
#
# Bulk Modulus (GPa) = 19.75256 35.09246 27.42251
# Shear Modulus (GPa) = 15.48855 20.73386 18.11121
#
# Velocity S-wave (km/s) = 2.82977 3.27406 3.05999
# Velocity P-wave (km/s) = 4.57044 5.69521 5.16354
#
# Compressibility (1/GPa) = 0.05062636
#
# Stress axis : x y z
#
# Youngs Moduli (GPa) = 46.35527 37.13920 18.48014
#
# Poissons Ratio (x) = 0.47300 -0.26186
# Poissons Ratio (y) = 0.59038 0.50683
# Poissons Ratio (z) = -0.65684 1.01857
#
# Static dielectric constant tensor:
#      x y z
#    x 1.685990 0.000000 0.000000 
#    y 0.000000 1.725690 0.000000 
#    z 0.000000 0.000000 1.707840 
# 
# From -- ./inp_files/51820.got.cif
#   From: 2010.05.17/outbox.cif.g08.bks.cpg/sg74_26_cif.got.tgz:51820.got - 2010.06.03 17:57:02.
