data_PCOD9536300
_publ_section_title
;
Structure prediction by ZEFSAII (Michael W. Deem and Ramdas Pophale) SiO2 
 PCOD9536300
Probable space group: I M M A
;
_chemical_formula_sum "Si O2"
_cell_formula_units_Z 116
_cell_length_a 27.733460
_cell_length_b 7.667804
_cell_length_c 25.229938
_cell_angle_alpha 90.000000
_cell_angle_beta 90.000000
_cell_angle_gamma 90.000000
_cell_volume 5365.265793
_symmetry_space_group_name_H-M "I M M A"
_symmetry_group_IT_number 74
_symmetry_cell_setting 'orthorhombic'
loop_
_space_group_symop_operation_xyz
x,y,z
-x,1/2-y,z
x,-y,-z
-x,1/2+y,-z
-x,-y,-z
x,1/2+y,-z
-x,y,z
x,1/2-y,z
1/2+x,1/2+y,1/2+z
1/2-x,-y,1/2+z
1/2+x,1/2-y,1/2-z
1/2-x,y,1/2-z
1/2-x,1/2-y,1/2-z
1/2+x,y,1/2-z
1/2-x,1/2+y,1/2+z
1/2+x,-y,1/2+z
loop_
_atom_site_type_symbol
_atom_site_label
_atom_site_fract_x
_atom_site_fract_y
_atom_site_fract_z
Si Si1 0.948887 0.046039 0.326601
Si Si2 0.355946 0.541888 0.765539
Si Si3 0.574628 0.957802 0.057406
Si Si4 0.234354 0.460244 0.663655
Si Si5 0.815562 0.958650 0.443133
Si Si6 0.342926 0.952982 0.350553
Si Si7 0.500000 0.250000 0.573882
Si Si8 0.416809 0.451160 0.440561
O O1 0.949276 0.250000 0.312265
O O2 0.898462 0.974524 0.304310
O O3 0.000000 0.968764 0.307473
O O4 0.948108 0.032719 0.389930
O O5 0.358289 0.750000 0.762169
O O6 0.303012 0.501244 0.789250
O O7 0.366197 0.467166 0.707536
O O8 0.574470 0.750000 0.063350
O O9 0.629734 0.026091 0.056380
O O10 0.553613 0.000000 0.000000
O O11 0.237294 0.250000 0.663783
O O12 0.210506 0.524024 0.609002
O O13 0.289178 0.525549 0.661280
O O14 0.817801 0.750000 0.438857
O O15 0.792713 0.000000 0.500000
O O16 0.338422 0.750000 0.365609
O O17 0.374701 0.038517 0.396458
O O18 0.457718 0.405520 0.572607
O O19 0.399277 0.500000 0.500000
O O20 0.435062 0.250000 0.442257
#
# Coordination Sequence:
#
# PCOD9536300 Si02
#       8
#    16  16  16  16  16  16   4  16
#     4  10  22  40  59  81 116 157 204 264 329 385
#     4  11  23  40  63  90 123 166 224 280 337 410
#     4  10  19  33  56  82 113 147 195 248 305 369
#     4  10  21  39  64  89 124 174 219 273 340 403
#     4   9  18  32  52  83 117 154 202 252 309 379
#     4  11  24  44  65  97 137 175 221 276 335 400
#     4  12  24  48  78 114 146 190 236 276 338 416
#     4  12  25  45  76 110 149 186 232 285 339 411
#
# _framework density 21.620550000000001
#
# number of rings (size 3 to 8) (size 9 to 14) (size 15 to 20)
#    0.000    1.517    2.759    2.069    0.000    5.517 
#    1.241    1.379    0.000    0.000    0.000    0.000 
#    0.000    0.000    0.000    0.000    0.000    0.000 
#
# Total GULP energy -323219.923439 kJ/mol
# GULP energy per Si atom -5572.757301 kJ/mol
# Density = 2.157134 g / cm^3
# Si number density = 21.620550 Si / 1000 Ang^3
#
#
#
# Elastic Constant Matrix: (Units=GPa)
#
#
# Indices 1 2 3 4 5 6 
#
# 1 127.5208 21.9115 62.3105 0.0000 0.0000 0.0000
# 2 21.9115 102.4100 7.2408 0.0000 0.0000 0.0000
# 3 62.3105 7.2408 112.8288 0.0000 0.0000 0.0000
# 4 0.0000 0.0000 0.0000 26.4060 0.0000 0.0000
# 5 0.0000 0.0000 0.0000 0.0000 7.8117 0.0000
# 6 0.0000 0.0000 0.0000 0.0000 0.0000 -0.3734
#
#
#
# Elastic Compliance Matrix: (Units=1/GPa)
#
#
# Indices 1 2 3 4 5 6 
#
# 1 0.011116 -0.001953 -0.006013 0.000000 0.000000 0.000000
# 2 -0.001953 0.010152 0.000427 0.000000 0.000000 0.000000
# 3 -0.006013 0.000427 0.012157 0.000000 0.000000 0.000000
# 4 0.000000 0.000000 0.000000 0.037870 0.000000 0.000000
# 5 0.000000 0.000000 0.000000 0.000000 0.128013 0.000000
# 6 0.000000 0.000000 0.000000 0.000000 0.000000 -2.677768
#
#
# Mechanical properties :
#
#
# Convention : Reuss Voigt Hill
#
# Bulk Modulus (GPa) = 54.50852 58.40946 56.45899
# Shear Modulus (GPa) = -2.03478 23.52198 10.74360
#
# Velocity S-wave (km/s) = -0.97117 3.30198 2.23158
# Velocity P-wave (km/s) = 4.89986 6.45072 5.72802
#
# Compressibility (1/GPa) = 0.01834576
#
# Stress axis : x y z
#
# Youngs Moduli (GPa) = 89.96199 98.49922 82.26027
#
# Poissons Ratio (x) = 0.19238 0.49467
# Poissons Ratio (y) = 0.17571 -0.03513
# Poissons Ratio (z) = 0.54098 -0.04207
#
# Static dielectric constant tensor:
#      x y z
#    x 1.827030 0.000000 0.000000 
#    y 0.000000 1.793930 0.000000 
#    z 0.000000 0.000000 1.777470 
# 
# From -- ./inp_files/62444.got.cif
#   From: 2010.05.17/outbox.cif.g08.bks.cpg/sg74_32_cif.got.tgz:62444.got - 2010.06.03 17:57:02.
