data_PCOD9536988
_publ_section_title
;
Structure prediction by ZEFSAII (Michael W. Deem and Ramdas Pophale) SiO2 
 PCOD9536988
Probable space group: I M M A
;
_chemical_formula_sum "Si O2"
_cell_formula_units_Z 88
_cell_length_a 10.726144
_cell_length_b 26.057478
_cell_length_c 16.349094
_cell_angle_alpha 90.000000
_cell_angle_beta 90.000000
_cell_angle_gamma 90.000000
_cell_volume 4569.510649
_symmetry_space_group_name_H-M "I M M A"
_symmetry_group_IT_number 74
_symmetry_cell_setting 'orthorhombic'
loop_
_space_group_symop_operation_xyz
x,y,z
-x,1/2-y,z
x,-y,-z
-x,1/2+y,-z
-x,-y,-z
x,1/2+y,-z
-x,y,z
x,1/2-y,z
1/2+x,1/2+y,1/2+z
1/2-x,-y,1/2+z
1/2+x,1/2-y,1/2-z
1/2-x,y,1/2-z
1/2-x,1/2-y,1/2-z
1/2+x,y,1/2-z
1/2-x,1/2+y,1/2+z
1/2+x,-y,1/2+z
loop_
_atom_site_type_symbol
_atom_site_label
_atom_site_fract_x
_atom_site_fract_y
_atom_site_fract_z
Si Si1 0.135599 0.656794 0.930966
Si Si2 0.140172 0.995521 0.691689
Si Si3 0.144214 0.810130 0.119751
Si Si4 0.140844 0.890455 0.364533
Si Si5 0.131942 0.250000 0.193903
Si Si6 0.360470 0.915119 0.943412
O O1 0.134607 0.701238 0.864918
O O2 0.249078 0.619775 0.912066
O O3 0.000000 0.630201 0.930527
O O4 0.149404 0.681693 0.021196
O O5 0.250000 0.976241 0.750000
O O6 0.149722 0.056969 0.685634
O O7 0.000000 0.983004 0.721585
O O8 0.150907 0.969710 0.601828
O O9 0.168212 0.750000 0.138358
O O10 0.250158 0.849232 0.151631
O O11 0.000000 0.822006 0.144497
O O12 0.150268 0.910572 0.458675
O O13 0.000000 0.868881 0.354244
O O14 0.250000 0.250000 0.250000
O O15 0.000000 0.250000 0.240352
O O16 0.500000 0.895965 0.922905
#
# Coordination Sequence:
#
# PCOD9536988 Si02
#       6
#    16  16  16  16   8  16
#     4   9  17  31  48  67  94 127 162 202 247 292
#     4  10  21  36  53  73 102 136 168 205 252 303
#     4   9  16  29  51  76 101 127 157 199 251 300
#     4   9  18  33  53  77 102 131 167 208 251 295
#     4  10  20  32  44  60  90 132 169 202 243 290
#     4   9  18  33  53  75  98 128 167 209 250 293
#
# _framework density 19.258081000000001
#
# number of rings (size 3 to 8) (size 9 to 14) (size 15 to 20)
#    0.000    2.727    0.909    0.545    0.000    5.455 
#    0.000    3.636    0.000    6.000    0.000    0.000 
#    0.000    0.000    0.000    0.000    0.000    0.000 
#
# Total GULP energy -245140.691347 kJ/mol
# GULP energy per Si atom -5571.379349 kJ/mol
# Density = 1.921425 g / cm^3
# Si number density = 19.258081 Si / 1000 Ang^3
#
#
#
# Elastic Constant Matrix: (Units=GPa)
#
#
# Indices 1 2 3 4 5 6 
#
# 1 159.4705 63.9918 35.6599 0.0000 0.0000 0.0000
# 2 63.9918 71.3710 -0.4000 -0.0001 0.0000 0.0000
# 3 35.6599 -0.4000 40.5790 -0.0002 0.0000 0.0000
# 4 0.0000 -0.0001 -0.0002 5.1342 0.0000 0.0000
# 5 0.0000 0.0000 0.0000 0.0000 14.2858 0.0000
# 6 0.0000 0.0000 0.0000 0.0000 0.0000 29.5980
#
#
#
# Elastic Compliance Matrix: (Units=1/GPa)
#
#
# Indices 1 2 3 4 5 6 
#
# 1 0.014261 -0.012857 -0.012659 -0.000001 0.000000 0.000000
# 2 -0.012857 0.025604 0.011551 0.000001 0.000000 0.000000
# 3 -0.012659 0.011551 0.035881 0.000001 0.000000 0.000000
# 4 -0.000001 0.000001 0.000001 0.194774 0.000000 0.000000
# 5 0.000000 0.000000 0.000000 0.000000 0.069999 0.000000
# 6 0.000000 0.000000 0.000000 0.000000 0.000000 0.033786
#
#
# Mechanical properties :
#
#
# Convention : Reuss Voigt Hill
#
# Bulk Modulus (GPa) = 20.91346 52.21375 36.56360
# Shear Modulus (GPa) = 11.95675 21.28152 16.61913
#
# Velocity S-wave (km/s) = 2.49443 3.32786 2.94082
# Velocity P-wave (km/s) = 4.37943 6.47594 5.52798
#
# Compressibility (1/GPa) = 0.04781610
#
# Stress axis : x y z
#
# Youngs Moduli (GPa) = 70.12265 39.05649 27.86967
#
# Poissons Ratio (x) = 0.50216 0.35279
# Poissons Ratio (y) = 0.90158 -0.32192
# Poissons Ratio (z) = 0.88766 -0.45114
#
# Static dielectric constant tensor:
#      x y z
#    x 1.697890 0.000000 0.000000 
#    y 0.000000 1.647070 0.000000 
#    z 0.000000 0.000000 1.673210 
# 
# From -- ./inp_files/30820.got.cif
#   From: 2010.05.17/outbox.cif.g08.bks.cpg/sg74_16_cif.got.tgz:30820.got - 2010.06.03 17:57:02.
