data_PCOD9536708
_publ_section_title
;
Structure prediction by ZEFSAII (Michael W. Deem and Ramdas Pophale) SiO2 
 PCOD9536708
Probable space group: I M M A
;
_chemical_formula_sum "Si O2"
_cell_formula_units_Z 88
_cell_length_a 14.899047
_cell_length_b 23.004244
_cell_length_c 11.870220
_cell_angle_alpha 90.000000
_cell_angle_beta 90.000000
_cell_angle_gamma 90.000000
_cell_volume 4068.414783
_symmetry_space_group_name_H-M "I M M A"
_symmetry_group_IT_number 74
_symmetry_cell_setting 'orthorhombic'
loop_
_space_group_symop_operation_xyz
x,y,z
-x,1/2-y,z
x,-y,-z
-x,1/2+y,-z
-x,-y,-z
x,1/2+y,-z
-x,y,z
x,1/2-y,z
1/2+x,1/2+y,1/2+z
1/2-x,-y,1/2+z
1/2+x,1/2-y,1/2-z
1/2-x,y,1/2-z
1/2-x,1/2-y,1/2-z
1/2+x,y,1/2-z
1/2-x,1/2+y,1/2+z
1/2+x,-y,1/2+z
loop_
_atom_site_type_symbol
_atom_site_label
_atom_site_fract_x
_atom_site_fract_y
_atom_site_fract_z
Si Si1 0.356594 0.750000 0.230962
Si Si2 0.400673 0.479312 0.832621
Si Si3 0.101826 0.646719 0.444350
Si Si4 0.401942 0.057972 0.574057
Si Si5 0.215172 0.639574 0.947246
Si Si6 0.250000 0.939277 0.750000
Si Si7 0.101903 0.750000 0.005407
O O1 0.250000 0.750000 0.250000
O O2 0.382906 0.692803 0.158067
O O3 0.395302 0.750000 0.357373
O O4 0.500000 0.504914 0.859789
O O5 0.390245 0.420297 0.903278
O O6 0.403139 0.459323 0.703146
O O7 0.316625 0.522987 0.829370
O O8 0.181034 0.655317 0.534062
O O9 0.000000 0.655455 0.485202
O O10 0.500000 0.085116 0.546584
O O11 0.319533 0.099410 0.549300
O O12 0.393785 0.000000 0.500000
O O13 0.197761 0.602364 0.835573
O O14 0.154564 0.695381 0.957448
O O15 0.000000 0.750000 0.969257
#
# Coordination Sequence:
#
# PCOD9536708 Si02
#       7
#     8  16  16  16  16   8   8
#     4  12  22  43  71 101 129 163 199 251 322 396
#     4  10  22  38  61  96 131 168 214 265 323 383
#     4  11  24  41  64  96 136 171 208 258 320 392
#     4  10  19  35  61  92 124 159 205 262 322 378
#     4  12  25  42  64  92 127 170 220 265 324 376
#     4  12  26  41  64  85 126 178 224 274 312 370
#     4  12  26  44  70 101 128 157 203 268 325 384
#
# _framework density 21.630046
#
# number of rings (size 3 to 8) (size 9 to 14) (size 15 to 20)
#    0.000    0.909    3.636    3.545    1.273    3.273 
#    0.000    1.818    0.000    0.000    0.000    0.000 
#    0.000    0.000    0.000    0.000    0.000    0.000 
#
# Total GULP energy -245993.957314 kJ/mol
# GULP energy per Si atom -5590.771757 kJ/mol
# Density = 2.158081 g / cm^3
# Si number density = 21.630046 Si / 1000 Ang^3
#
#
#
# Elastic Constant Matrix: (Units=GPa)
#
#
# Indices 1 2 3 4 5 6 
#
# 1 162.8987 47.1401 2.9800 0.0000 0.0000 0.0000
# 2 47.1401 88.3462 14.2206 0.0000 0.0000 0.0000
# 3 2.9800 14.2206 29.8480 0.0000 -0.0001 -0.0001
# 4 0.0000 0.0000 0.0000 4.5695 0.0000 0.0000
# 5 0.0000 0.0000 -0.0001 0.0000 2.7176 0.0000
# 6 0.0000 0.0000 -0.0001 0.0000 0.0000 5.0275
#
#
#
# Elastic Compliance Matrix: (Units=1/GPa)
#
#
# Indices 1 2 3 4 5 6 
#
# 1 0.007301 -0.004092 0.001221 0.000000 0.000000 0.000000
# 2 -0.004092 0.014553 -0.006525 0.000000 0.000000 0.000000
# 3 0.001221 -0.006525 0.036490 0.000000 0.000001 0.000000
# 4 0.000000 0.000000 0.000000 0.218844 0.000002 0.000002
# 5 0.000000 0.000000 0.000001 0.000002 0.367978 0.000002
# 6 0.000000 0.000000 0.000000 0.000002 0.000002 0.198906
#
#
# Mechanical properties :
#
#
# Convention : Reuss Voigt Hill
#
# Bulk Modulus (GPa) = 25.28391 45.53049 35.40720
# Shear Modulus (GPa) = 5.70745 16.91305 11.31025
#
# Velocity S-wave (km/s) = 1.62616 2.79932 2.28917
# Velocity P-wave (km/s) = 3.90391 5.61637 4.83653
#
# Compressibility (1/GPa) = 0.03955085
#
# Stress axis : x y z
#
# Youngs Moduli (GPa) = 136.97508 68.71534 27.40484
#
# Poissons Ratio (x) = 0.28118 -0.03345
# Poissons Ratio (y) = 0.56050 0.17881
# Poissons Ratio (z) = -0.16720 0.44836
#
# Static dielectric constant tensor:
#      x y z
#    x 1.864500 0.000000 0.000000 
#    y 0.000000 1.708780 0.000000 
#    z 0.000000 0.000000 1.768680 
# 
# From -- ./inp_files/20702.got.cif
#   From: 2010.05.17/outbox.cif.g08.bks.cpg/sg74_11_cif.got.tgz:20702.got - 2010.06.03 17:57:02.
