data_PCOD9536106
_publ_section_title
;
Structure prediction by ZEFSAII (Michael W. Deem and Ramdas Pophale) SiO2 
 PCOD9536106
Probable space group: I M M A
;
_chemical_formula_sum "Si O2"
_cell_formula_units_Z 88
_cell_length_a 22.882442
_cell_length_b 8.799513
_cell_length_c 25.523014
_cell_angle_alpha 90.000000
_cell_angle_beta 90.000000
_cell_angle_gamma 90.000000
_cell_volume 5139.169788
_symmetry_space_group_name_H-M "I M M A"
_symmetry_group_IT_number 74
_symmetry_cell_setting 'orthorhombic'
loop_
_space_group_symop_operation_xyz
x,y,z
-x,1/2-y,z
x,-y,-z
-x,1/2+y,-z
-x,-y,-z
x,1/2+y,-z
-x,y,z
x,1/2-y,z
1/2+x,1/2+y,1/2+z
1/2-x,-y,1/2+z
1/2+x,1/2-y,1/2-z
1/2-x,y,1/2-z
1/2-x,1/2-y,1/2-z
1/2+x,y,1/2-z
1/2-x,1/2+y,1/2+z
1/2+x,-y,1/2+z
loop_
_atom_site_type_symbol
_atom_site_label
_atom_site_fract_x
_atom_site_fract_y
_atom_site_fract_z
Si Si1 0.931417 0.067365 0.737309
Si Si2 0.885687 0.566238 0.374618
Si Si3 0.000000 0.066704 0.558181
Si Si4 0.932252 0.433271 0.151691
Si Si5 0.149343 0.066907 0.056235
Si Si6 0.714965 0.568099 0.943507
O O1 0.927930 0.250000 0.741191
O O2 0.896901 0.019439 0.685414
O O3 0.000000 0.028324 0.729638
O O4 0.912160 0.995578 0.792093
O O5 0.882220 0.750000 0.375913
O O6 0.942128 0.521800 0.409466
O O7 0.828213 0.496306 0.399995
O O8 0.000000 0.250000 0.554928
O O9 0.000000 0.000000 0.500000
O O10 0.930804 0.250000 0.153299
O O11 0.891978 0.484348 0.103600
O O12 0.000000 0.480253 0.144216
O O13 0.146327 0.250000 0.053225
O O14 0.217218 0.025444 0.065874
O O15 0.131950 0.000000 0.000000
O O16 0.710983 0.750000 0.945655
O O17 0.697926 0.500000 0.000000
#
# Coordination Sequence:
#
# PCOD9536106 Si02
#       6
#    16  16   8  16  16  16
#     4   9  17  32  52  73  99 132 166 203 248 294
#     4  10  19  33  51  71  98 131 167 207 250 291
#     4  10  20  32  46  68  98 128 159 204 253 290
#     4   9  18  33  53  77 103 129 160 202 248 295
#     4   9  19  35  53  74 102 132 162 200 247 296
#     4  10  20  34  51  71  97 132 169 204 246 296
#
# _framework density 17.123387999999998
#
# number of rings (size 3 to 8) (size 9 to 14) (size 15 to 20)
#    0.000    2.545    0.909    1.091    0.000    4.727 
#    0.000    0.909    0.000    5.455    0.000    0.000 
#    0.000    0.000    0.000    0.000    0.000    0.000 
#
# Total GULP energy -245420.081734 kJ/mol
# GULP energy per Si atom -5577.729130 kJ/mol
# Density = 1.708441 g / cm^3
# Si number density = 17.123388 Si / 1000 Ang^3
#
#
#
# Elastic Constant Matrix: (Units=GPa)
#
#
# Indices 1 2 3 4 5 6 
#
# 1 76.7506 24.5556 97.5239 0.0000 0.0000 0.0000
# 2 24.5556 10.7468 37.0607 0.0000 0.0000 0.0000
# 3 97.5239 37.0607 199.4524 0.0000 0.0000 0.0000
# 4 0.0000 0.0000 0.0000 32.1990 0.0000 0.0000
# 5 0.0000 0.0000 0.0000 0.0000 29.0157 0.0000
# 6 0.0000 0.0000 0.0000 0.0000 0.0000 20.0626
#
#
#
# Elastic Compliance Matrix: (Units=1/GPa)
#
#
# Indices 1 2 3 4 5 6 
#
# 1 0.054523 -0.090876 -0.009774 0.000000 0.000000 0.000000
# 2 -0.090876 0.410501 -0.031842 0.000000 0.000000 0.000000
# 3 -0.009774 -0.031842 0.015709 0.000000 0.000000 0.000000
# 4 0.000000 0.000000 0.000000 0.031057 0.000000 0.000000
# 5 0.000000 0.000000 0.000000 0.000000 0.034464 0.000000
# 6 0.000000 0.000000 0.000000 0.000000 0.000000 0.049844
#
#
# Mechanical properties :
#
#
# Convention : Reuss Voigt Hill
#
# Bulk Modulus (GPa) = 4.63497 67.24779 35.94138
# Shear Modulus (GPa) = 5.35907 24.77611 15.06759
#
# Velocity S-wave (km/s) = 1.77101 3.80796 2.96960
# Velocity P-wave (km/s) = 2.62577 7.66106 5.72654
#
# Compressibility (1/GPa) = 0.21575109
#
# Stress axis : x y z
#
# Youngs Moduli (GPa) = 18.34091 2.43605 63.65703
#
# Poissons Ratio (x) = 0.22138 0.62216
# Poissons Ratio (y) = 1.66674 2.02695
# Poissons Ratio (z) = 0.17926 0.07757
#
# Static dielectric constant tensor:
#      x y z
#    x 1.573340 0.000000 0.000000 
#    y 0.000000 1.579570 0.000000 
#    z 0.000000 0.000000 1.559640 
# 
# From -- ./inp_files/48729.got.cif
#   From: 2010.05.17/outbox.cif.g08.bks.cpg/sg74_25_cif.got.tgz:48729.got - 2010.06.03 17:57:02.
