data_PCOD9536506
_publ_section_title
;
Structure prediction by ZEFSAII (Michael W. Deem and Ramdas Pophale) SiO2 
 PCOD9536506
Probable space group: I M M A
;
_chemical_formula_sum "Si O2"
_cell_formula_units_Z 88
_cell_length_a 7.559115
_cell_length_b 19.122717
_cell_length_c 28.914655
_cell_angle_alpha 90.000000
_cell_angle_beta 90.000000
_cell_angle_gamma 90.000000
_cell_volume 4179.637001
_symmetry_space_group_name_H-M "I M M A"
_symmetry_group_IT_number 74
_symmetry_cell_setting 'orthorhombic'
loop_
_space_group_symop_operation_xyz
x,y,z
-x,1/2-y,z
x,-y,-z
-x,1/2+y,-z
-x,-y,-z
x,1/2+y,-z
-x,y,z
x,1/2-y,z
1/2+x,1/2+y,1/2+z
1/2-x,-y,1/2+z
1/2+x,1/2-y,1/2-z
1/2-x,y,1/2-z
1/2-x,1/2-y,1/2-z
1/2+x,y,1/2-z
1/2-x,1/2+y,1/2+z
1/2+x,-y,1/2+z
loop_
_atom_site_type_symbol
_atom_site_label
_atom_site_fract_x
_atom_site_fract_y
_atom_site_fract_z
Si Si1 0.295868 0.388665 0.644745
Si Si2 0.282300 0.956720 0.635198
Si Si3 0.787260 0.065235 0.030117
Si Si4 0.712877 0.250000 0.695475
Si Si5 0.212017 0.827039 0.804174
Si Si6 0.290718 0.329409 0.952389
O O1 0.500000 0.392762 0.659915
O O2 0.220132 0.466360 0.651016
O O3 0.218200 0.321019 0.670980
O O4 0.291566 0.372531 0.589912
O O5 0.500000 0.958623 0.635483
O O6 0.225889 0.941194 0.582636
O O7 0.222124 0.893262 0.667341
O O8 0.000000 0.061046 0.031419
O O9 0.741197 0.134285 0.001465
O O10 0.720315 0.000000 0.000000
O O11 0.500000 0.250000 0.688486
O O12 0.750000 0.250000 0.750000
O O13 0.279388 0.750000 0.818521
O O14 0.250000 0.835312 0.750000
O O15 0.000000 0.825803 0.810077
O O16 0.500000 0.328582 0.943827
O O17 0.223971 0.250000 0.951290
#
# Coordination Sequence:
#
# PCOD9536506 Si02
#       6
#    16  16  16   8  16  16
#     4  10  19  36  58  78 102 142 190 230 271 326
#     4   9  18  33  56  83 108 135 179 231 270 316
#     4  10  19  34  57  82 107 141 183 228 270 318
#     4  10  22  36  56  80 108 144 182 234 289 332
#     4   9  18  34  55  78 106 139 174 216 268 323
#     4  11  23  36  52  78 112 148 183 225 273 325
#
# _framework density 21.054459000000001
#
# number of rings (size 3 to 8) (size 9 to 14) (size 15 to 20)
#    0.000    2.182    2.727    0.545    0.000    3.636 
#    0.000    3.636    0.000    2.182    0.000    0.000 
#    0.000    0.000    0.000    0.000    0.000    0.000 
#
# Total GULP energy -245667.270070 kJ/mol
# GULP energy per Si atom -5583.347047 kJ/mol
# Density = 2.100654 g / cm^3
# Si number density = 21.054459 Si / 1000 Ang^3
#
#
#
# Elastic Constant Matrix: (Units=GPa)
#
#
# Indices 1 2 3 4 5 6 
#
# 1 51.2042 6.6657 -2.4089 0.0000 0.0000 0.0000
# 2 6.6657 226.2911 96.6546 0.0000 0.0000 0.0000
# 3 -2.4089 96.6546 104.5987 0.0000 0.0000 0.0000
# 4 0.0000 0.0000 0.0000 73.6017 0.0000 0.0000
# 5 0.0000 0.0000 0.0000 0.0000 -2.4414 0.0000
# 6 0.0000 0.0000 0.0000 0.0000 0.0000 -127.5218
#
#
#
# Elastic Compliance Matrix: (Units=1/GPa)
#
#
# Indices 1 2 3 4 5 6 
#
# 1 0.019774 -0.001284 0.001642 0.000000 0.000000 0.000000
# 2 -0.001284 0.007384 -0.006853 0.000000 0.000000 0.000000
# 3 0.001642 -0.006853 0.015930 0.000000 0.000000 0.000000
# 4 0.000000 0.000000 0.000000 0.013587 0.000000 0.000000
# 5 0.000000 0.000000 0.000000 0.000000 -0.409607 0.000000
# 6 0.000000 0.000000 0.000000 0.000000 0.000000 -0.007842
#
#
# Mechanical properties :
#
#
# Convention : Reuss Voigt Hill
#
# Bulk Modulus (GPa) = 33.22399 64.87965 49.05182
# Shear Modulus (GPa) = -14.80379 7.47322 -3.66528
#
# Velocity S-wave (km/s) = -2.65452 1.88605 -1.32085
# Velocity P-wave (km/s) = 2.53358 5.96866 4.58497
#
# Compressibility (1/GPa) = 0.03009873
#
# Stress axis : x y z
#
# Youngs Moduli (GPa) = 50.57154 135.43149 62.77349
#
# Poissons Ratio (x) = 0.17384 -0.10304
# Poissons Ratio (y) = 0.06491 0.43016
# Poissons Ratio (z) = -0.08301 0.92806
#
# Static dielectric constant tensor:
#      x y z
#    x 1.803640 0.000000 0.000000 
#    y 0.000000 1.775010 0.000000 
#    z 0.000000 0.000000 1.701520 
# 
# From -- ./inp_files/70216.got.cif
#   From: 2010.05.17/outbox.cif.g08.bks.cpg/sg74_36_cif.got.tgz:70216.got - 2010.06.03 17:57:02.
