data_PCOD9536269
_publ_section_title
;
Structure prediction by ZEFSAII (Michael W. Deem and Ramdas Pophale) SiO2 
 PCOD9536269
Probable space group: I M M A
;
_chemical_formula_sum "Si O2"
_cell_formula_units_Z 112
_cell_length_a 13.711945
_cell_length_b 13.878674
_cell_length_c 27.199843
_cell_angle_alpha 90.000000
_cell_angle_beta 90.000000
_cell_angle_gamma 90.000000
_cell_volume 5176.228438
_symmetry_space_group_name_H-M "I M M A"
_symmetry_group_IT_number 74
_symmetry_cell_setting 'orthorhombic'
loop_
_space_group_symop_operation_xyz
x,y,z
-x,1/2-y,z
x,-y,-z
-x,1/2+y,-z
-x,-y,-z
x,1/2+y,-z
-x,y,z
x,1/2-y,z
1/2+x,1/2+y,1/2+z
1/2-x,-y,1/2+z
1/2+x,1/2-y,1/2-z
1/2-x,y,1/2-z
1/2-x,1/2-y,1/2-z
1/2+x,y,1/2-z
1/2-x,1/2+y,1/2+z
1/2+x,-y,1/2+z
loop_
_atom_site_type_symbol
_atom_site_label
_atom_site_fract_x
_atom_site_fract_y
_atom_site_fract_z
Si Si1 0.116958 0.360897 0.916865
Si Si2 0.118342 0.360856 0.725598
Si Si3 0.383625 0.029792 0.874510
Si Si4 0.390572 0.107737 0.979512
Si Si5 0.117496 0.016663 0.821096
Si Si6 0.771137 0.365636 0.126624
Si Si7 0.314757 0.356272 0.480830
O O1 0.153552 0.250000 0.913137
O O2 0.146133 0.421251 0.869254
O O3 0.000000 0.357335 0.916309
O O4 0.147869 0.405553 0.969404
O O5 0.151474 0.250000 0.726771
O O6 0.143219 0.414399 0.675115
O O7 0.147159 0.423653 0.772926
O O8 0.000000 0.357468 0.727080
O O9 0.500000 0.013082 0.875315
O O10 0.327507 0.928455 0.876623
O O11 0.363294 0.096406 0.922136
O O12 0.500000 0.147876 0.983971
O O13 0.301504 0.151178 0.009601
O O14 0.395975 0.000000 0.000000
O O15 0.167930 0.913480 0.829127
O O16 0.000000 0.006386 0.820424
O O17 0.758380 0.250000 0.129914
O O18 0.827107 0.387835 0.075081
O O19 0.360752 0.250000 0.482913
#
# Coordination Sequence:
#
# PCOD9536269 Si02
#       7
#    16  16  16  16  16  16  16
#     4   9  18  33  56  87 118 149 188 234 289 352
#     4   9  19  39  66  93 121 149 180 229 293 355
#     4  10  21  38  61  87 117 152 191 236 290 346
#     4  10  19  33  55  82 113 148 188 235 283 337
#     4  10  21  38  61  86 115 153 192 234 288 349
#     4  11  24  40  57  80 114 155 200 247 286 329
#     4  10  21  35  53  78 113 154 193 240 289 337
#
# _framework density 21.637374999999999
#
# number of rings (size 3 to 8) (size 9 to 14) (size 15 to 20)
#    0.000    2.143    1.429    1.286    0.000    4.286 
#    0.000    9.286    0.000    2.571    0.000    0.000 
#    0.000    0.000    0.000    0.000    0.000    0.000 
#
# Total GULP energy -312678.947756 kJ/mol
# GULP energy per Si atom -5583.552638 kJ/mol
# Density = 2.158813 g / cm^3
# Si number density = 21.637375 Si / 1000 Ang^3
#
#
#
# Elastic Constant Matrix: (Units=GPa)
#
#
# Indices 1 2 3 4 5 6 
#
# 1 43.2532 7.1625 3.6433 0.0000 0.0000 0.0000
# 2 7.1625 118.3663 45.8887 0.0000 0.0000 0.0000
# 3 3.6433 45.8887 140.6620 0.0000 0.0000 0.0000
# 4 0.0000 0.0000 0.0000 15.9593 0.0000 0.0000
# 5 0.0000 0.0000 0.0000 0.0000 29.7438 0.0000
# 6 0.0000 0.0000 0.0000 0.0000 0.0000 32.9088
#
#
#
# Elastic Compliance Matrix: (Units=1/GPa)
#
#
# Indices 1 2 3 4 5 6 
#
# 1 0.023357 -0.001350 -0.000165 0.000000 0.000000 0.000000
# 2 -0.001350 0.009750 -0.003146 0.000000 0.000000 0.000000
# 3 -0.000165 -0.003146 0.008140 0.000000 0.000000 0.000000
# 4 0.000000 0.000000 0.000000 0.062659 0.000000 0.000000
# 5 0.000000 0.000000 0.000000 0.000000 0.033621 0.000000
# 6 0.000000 0.000000 0.000000 0.000000 0.000000 0.030387
#
#
# Mechanical properties :
#
#
# Convention : Reuss Voigt Hill
#
# Bulk Modulus (GPa) = 31.32191 46.18558 38.75375
# Shear Modulus (GPa) = 26.61342 32.09484 29.35413
#
# Velocity S-wave (km/s) = 3.51090 3.85555 3.68726
# Velocity P-wave (km/s) = 5.56260 6.41965 6.00643
#
# Compressibility (1/GPa) = 0.03192653
#
# Stress axis : x y z
#
# Youngs Moduli (GPa) = 42.81363 102.56894 122.85416
#
# Poissons Ratio (x) = 0.13842 0.02024
# Poissons Ratio (y) = 0.05778 0.38646
# Poissons Ratio (z) = 0.00705 0.32265
#
# Static dielectric constant tensor:
#      x y z
#    x 1.830880 0.000000 0.000000 
#    y 0.000000 1.817170 0.000000 
#    z 0.000000 0.000000 1.774480 
# 
# From -- ./inp_files/60183.got.cif
#   From: 2010.05.17/outbox.cif.g08.bks.cpg/sg74_31_cif.got.tgz:60183.got - 2010.06.03 17:57:02.
