data_PCOD9536161
_publ_section_title
;
Structure prediction by ZEFSAII (Michael W. Deem and Ramdas Pophale) SiO2 
 PCOD9536161
Probable space group: I M M A
;
_chemical_formula_sum "Si O2"
_cell_formula_units_Z 88
_cell_length_a 20.040058
_cell_length_b 7.916486
_cell_length_c 28.194335
_cell_angle_alpha 90.000000
_cell_angle_beta 90.000000
_cell_angle_gamma 90.000000
_cell_volume 4472.942114
_symmetry_space_group_name_H-M "I M M A"
_symmetry_group_IT_number 74
_symmetry_cell_setting 'orthorhombic'
loop_
_space_group_symop_operation_xyz
x,y,z
-x,1/2-y,z
x,-y,-z
-x,1/2+y,-z
-x,-y,-z
x,1/2+y,-z
-x,y,z
x,1/2-y,z
1/2+x,1/2+y,1/2+z
1/2-x,-y,1/2+z
1/2+x,1/2-y,1/2-z
1/2-x,y,1/2-z
1/2-x,1/2-y,1/2-z
1/2+x,y,1/2-z
1/2-x,1/2+y,1/2+z
1/2+x,-y,1/2+z
loop_
_atom_site_type_symbol
_atom_site_label
_atom_site_fract_x
_atom_site_fract_y
_atom_site_fract_z
Si Si1 0.228801 0.048328 0.551850
Si Si2 0.184679 0.557048 0.195703
Si Si3 0.000000 0.950948 0.054706
Si Si4 0.576059 0.543231 0.229659
Si Si5 0.639218 0.942670 0.597513
Si Si6 0.821465 0.543934 0.346123
O O1 0.232158 0.250000 0.553932
O O2 0.189668 0.989433 0.599398
O O3 0.202351 0.000000 0.500000
O O4 0.303635 0.978128 0.558853
O O5 0.194484 0.750000 0.211905
O O6 0.128992 0.482791 0.230617
O O7 0.154255 0.556088 0.142999
O O8 0.258752 0.484109 0.186470
O O9 0.000000 0.750000 0.059941
O O10 0.933506 0.023605 0.077874
O O11 0.000000 0.000000 0.000000
O O12 0.500000 0.484283 0.235642
O O13 0.573949 0.750000 0.232361
O O14 0.609986 0.497319 0.179498
O O15 0.645662 0.750000 0.613386
O O16 0.817835 0.750000 0.346236
#
# Coordination Sequence:
#
# PCOD9536161 Si02
#       6
#    16  16   8  16  16  16
#     4  10  19  33  53  75  98 128 165 210 257 305
#     4   9  17  30  49  73 100 134 170 211 255 299
#     4  12  24  38  52  68  96 134 174 212 255 302
#     4   9  16  26  46  76 103 130 170 218 259 300
#     4  11  22  35  50  72 101 133 169 210 252 301
#     4   8  15  28  46  70 101 133 167 209 260 306
#
# _framework density 19.673850999999999
#
# number of rings (size 3 to 8) (size 9 to 14) (size 15 to 20)
#    0.000    2.364    0.000    5.182    1.273    2.182 
#    0.000    0.000    0.000   10.364    0.000    0.000 
#    0.000    0.000    0.000    0.000    0.000    0.727 
#
# Total GULP energy -245402.141865 kJ/mol
# GULP energy per Si atom -5577.321406 kJ/mol
# Density = 1.962907 g / cm^3
# Si number density = 19.673851 Si / 1000 Ang^3
#
#
#
# Elastic Constant Matrix: (Units=GPa)
#
#
# Indices 1 2 3 4 5 6 
#
# 1 92.7519 1.7574 60.1007 0.0000 0.0000 0.0000
# 2 1.7574 46.5899 0.8215 0.0000 0.0000 0.0000
# 3 60.1007 0.8215 106.9400 0.0000 0.0000 0.0000
# 4 0.0000 0.0000 0.0000 12.3285 0.0000 0.0000
# 5 0.0000 0.0000 0.0000 0.0000 8.9607 0.0000
# 6 0.0000 0.0000 0.0000 0.0000 0.0000 -1.5222
#
#
#
# Elastic Compliance Matrix: (Units=1/GPa)
#
#
# Indices 1 2 3 4 5 6 
#
# 1 0.016967 -0.000472 -0.009532 0.000000 0.000000 0.000000
# 2 -0.000472 0.021480 0.000100 0.000000 0.000000 0.000000
# 3 -0.009532 0.000100 0.014707 0.000000 0.000000 0.000000
# 4 0.000000 0.000000 0.000000 0.081113 0.000000 0.000000
# 5 0.000000 0.000000 0.000000 0.000000 0.111599 0.000000
# 6 0.000000 0.000000 0.000000 0.000000 0.000000 -0.656939
#
#
# Mechanical properties :
#
#
# Convention : Reuss Voigt Hill
#
# Bulk Modulus (GPa) = 29.98784 41.29346 35.64065
# Shear Modulus (GPa) = -13.15266 16.19354 1.52044
#
# Velocity S-wave (km/s) = -2.58841 2.87208 0.88006
# Velocity P-wave (km/s) = 2.51842 5.65978 4.38038
#
# Compressibility (1/GPa) = 0.03334685
#
# Stress axis : x y z
#
# Youngs Moduli (GPa) = 58.93901 46.55514 67.99417
#
# Poissons Ratio (x) = 0.02197 0.64810
# Poissons Ratio (y) = 0.02781 -0.00681
# Poissons Ratio (z) = 0.56179 -0.00467
#
# Static dielectric constant tensor:
#      x y z
#    x 1.651600 0.000000 0.000000 
#    y 0.000000 1.725510 0.000000 
#    z 0.000000 0.000000 1.707610 
# 
# From -- ./inp_files/70213.got.cif
#   From: 2010.05.17/outbox.cif.g08.bks.cpg/sg74_36_cif.got.tgz:70213.got - 2010.06.03 17:57:02.
