data_PCOD9536001
_publ_section_title
;
Structure prediction by ZEFSAII (Michael W. Deem and Ramdas Pophale) SiO2 
 PCOD9536001
Probable space group: I M M A
;
_chemical_formula_sum "Si O2"
_cell_formula_units_Z 72
_cell_length_a 12.942502
_cell_length_b 16.680338
_cell_length_c 19.571763
_cell_angle_alpha 90.000000
_cell_angle_beta 90.000000
_cell_angle_gamma 90.000000
_cell_volume 4225.256082
_symmetry_space_group_name_H-M "I M M A"
_symmetry_group_IT_number 74
_symmetry_cell_setting 'orthorhombic'
loop_
_space_group_symop_operation_xyz
x,y,z
-x,1/2-y,z
x,-y,-z
-x,1/2+y,-z
-x,-y,-z
x,1/2+y,-z
-x,y,z
x,1/2-y,z
1/2+x,1/2+y,1/2+z
1/2-x,-y,1/2+z
1/2+x,1/2-y,1/2-z
1/2-x,y,1/2-z
1/2-x,1/2-y,1/2-z
1/2+x,y,1/2-z
1/2-x,1/2+y,1/2+z
1/2+x,-y,1/2+z
loop_
_atom_site_type_symbol
_atom_site_label
_atom_site_fract_x
_atom_site_fract_y
_atom_site_fract_z
Si Si1 0.114568 0.250000 0.491867
Si Si2 0.209992 0.421472 0.824672
Si Si3 0.119437 0.069825 0.557354
Si Si4 0.000000 0.122677 0.023369
Si Si5 0.874325 0.750000 0.139389
Si Si6 0.500000 0.967233 0.386916
Si Si7 0.166459 0.750000 0.976845
O O1 0.122996 0.163317 0.531031
O O2 0.218876 0.250000 0.448468
O O3 0.000000 0.250000 0.460502
O O4 0.250000 0.442453 0.750000
O O5 0.296912 0.436501 0.882388
O O6 0.175148 0.328505 0.827192
O O7 0.104034 0.465589 0.844032
O O8 0.000000 0.056967 0.579543
O O9 0.140391 0.000000 0.500000
O O10 0.899253 0.172811 0.042184
O O11 0.000000 0.042591 0.064545
O O12 0.000000 0.106098 0.941887
O O13 0.000000 0.750000 0.146069
O O14 0.838314 0.750000 0.059948
#
# Coordination Sequence:
#
# PCOD9536001 Si02
#       7
#     8  16  16   8   8   8   8
#     4  10  19  32  53  80 115 148 184 233 275 344
#     4  12  24  36  56  78 118 157 193 234 284 349
#     4  10  22  38  58  82 112 152 198 240 284 342
#     4  10  20  32  62  82 112 142 181 257 287 336
#     4  12  19  36  52  81 117 155 190 226 272 349
#     4  11  22  36  54  86 109 148 197 235 296 332
#     4  11  16  33  53  86 111 141 183 234 298 339
#
# _framework density 17.040386999999999
#
# number of rings (size 3 to 8) (size 9 to 14) (size 15 to 20)
#    0.000    1.111    6.667    0.333    7.778    0.000 
#    0.000    1.111    0.000    0.000    0.000    7.000 
#    0.000    0.000    0.000    0.000    0.000    0.000 
#
# Total GULP energy -200576.097639 kJ/mol
# GULP energy per Si atom -5571.558268 kJ/mol
# Density = 1.700160 g / cm^3
# Si number density = 17.040387 Si / 1000 Ang^3
#
#
#
# Elastic Constant Matrix: (Units=GPa)
#
#
# Indices 1 2 3 4 5 6 
#
# 1 181.2034 45.7012 65.9951 0.0000 0.0000 0.0000
# 2 45.7012 81.9603 41.8267 0.0000 0.0000 0.0000
# 3 65.9951 41.8267 78.4456 0.0000 0.0000 0.0000
# 4 0.0000 0.0000 0.0000 13.1050 0.0000 0.0000
# 5 0.0000 0.0000 0.0000 0.0000 19.2983 0.0000
# 6 0.0000 0.0000 0.0000 0.0000 0.0000 20.3475
#
#
#
# Elastic Compliance Matrix: (Units=1/GPa)
#
#
# Indices 1 2 3 4 5 6 
#
# 1 0.008076 -0.001423 -0.006035 0.000000 0.000000 0.000000
# 2 -0.001423 0.017013 -0.007874 0.000000 0.000000 0.000000
# 3 -0.006035 -0.007874 0.022023 0.000000 0.000000 0.000000
# 4 0.000000 0.000000 0.000000 0.076307 0.000000 0.000000
# 5 0.000000 0.000000 0.000000 0.000000 0.051818 0.000000
# 6 0.000000 0.000000 0.000000 0.000000 0.000000 0.049146
#
#
# Mechanical properties :
#
#
# Convention : Reuss Voigt Hill
#
# Bulk Modulus (GPa) = 60.79958 72.07279 66.43619
# Shear Modulus (GPa) = 19.19173 23.08926 21.14049
#
# Velocity S-wave (km/s) = 3.35960 3.68499 3.52605
# Velocity P-wave (km/s) = 7.12786 7.77770 7.45986
#
# Compressibility (1/GPa) = 0.01644748
#
# Stress axis : x y z
#
# Youngs Moduli (GPa) = 123.83019 58.77917 45.40662
#
# Poissons Ratio (x) = 0.08365 0.27403
# Poissons Ratio (y) = 0.17622 0.35753
# Poissons Ratio (z) = 0.74732 0.46282
#
# Static dielectric constant tensor:
#      x y z
#    x 1.603200 0.000000 0.000000 
#    y 0.000000 1.611700 0.000000 
#    z 0.000000 0.000000 1.537730 
# 
# From -- ./inp_files/41023.got.cif
#   From: 2010.05.17/outbox.cif.g08.bks.cpg/sg74_21_cif.got.tgz:41023.got - 2010.06.03 17:57:02.
