data_PCOD9536661
_publ_section_title
;
Structure prediction by ZEFSAII (Michael W. Deem and Ramdas Pophale) SiO2 
 PCOD9536661
Probable space group: I M M A
;
_chemical_formula_sum "Si O2"
_cell_formula_units_Z 112
_cell_length_a 30.338632
_cell_length_b 14.087181
_cell_length_c 11.543134
_cell_angle_alpha 90.000000
_cell_angle_beta 90.000000
_cell_angle_gamma 90.000000
_cell_volume 4933.371562
_symmetry_space_group_name_H-M "I M M A"
_symmetry_group_IT_number 74
_symmetry_cell_setting 'orthorhombic'
loop_
_space_group_symop_operation_xyz
x,y,z
-x,1/2-y,z
x,-y,-z
-x,1/2+y,-z
-x,-y,-z
x,1/2+y,-z
-x,y,z
x,1/2-y,z
1/2+x,1/2+y,1/2+z
1/2-x,-y,1/2+z
1/2+x,1/2-y,1/2-z
1/2-x,y,1/2-z
1/2-x,1/2-y,1/2-z
1/2+x,y,1/2-z
1/2-x,1/2+y,1/2+z
1/2+x,-y,1/2+z
loop_
_atom_site_type_symbol
_atom_site_label
_atom_site_fract_x
_atom_site_fract_y
_atom_site_fract_z
Si Si1 0.782094 0.358527 0.647712
Si Si2 0.664054 0.358627 0.065244
Si Si3 0.423279 0.973721 0.884503
Si Si4 0.292428 0.141277 0.311128
Si Si5 0.048053 0.635922 0.833502
Si Si6 0.865967 0.365533 0.024307
Si Si7 0.620699 0.140524 0.742346
O O1 0.766005 0.250000 0.629642
O O2 0.750000 0.396259 0.750000
O O3 0.795078 0.392720 0.516736
O O4 0.830597 0.361273 0.703289
O O5 0.655158 0.250000 0.027548
O O6 0.620097 0.419723 0.065237
O O7 0.675526 0.355210 0.200741
O O8 0.446670 0.904714 0.794721
O O9 0.408879 0.066325 0.811586
O O10 0.449157 0.000000 0.000000
O O11 0.279529 0.250000 0.344528
O O12 0.250000 0.096747 0.250000
O O13 0.320713 0.099213 0.415934
O O14 0.049495 0.750000 0.830818
O O15 0.090657 0.604230 0.905885
O O16 0.000000 0.607473 0.881405
O O17 0.863254 0.250000 0.032770
O O18 0.872731 0.388207 0.890897
O O19 0.604609 0.250000 0.746609
#
# Coordination Sequence:
#
# PCOD9536661 Si02
#       7
#    16  16  16  16  16  16  16
#     4   9  18  32  54  84 119 166 216 258 306 365
#     4  10  19  35  58  86 123 165 213 263 311 364
#     4  12  23  38  63  89 126 163 210 253 314 378
#     4   9  17  29  53  87 120 158 202 249 305 366
#     4  10  22  43  71  98 122 155 202 256 316 384
#     4   9  18  36  60  88 124 161 204 256 312 370
#     4  10  22  38  58  88 125 169 212 257 313 371
#
# _framework density 22.702527
#
# number of rings (size 3 to 8) (size 9 to 14) (size 15 to 20)
#    0.000    2.143    2.857    0.429    2.000    1.429 
#    0.000    2.143    0.000    3.000    0.000    0.000 
#    0.000    0.571    0.000    0.000    0.000    0.000 
#
# Total GULP energy -312486.879887 kJ/mol
# GULP energy per Si atom -5580.122855 kJ/mol
# Density = 2.265085 g / cm^3
# Si number density = 22.702527 Si / 1000 Ang^3
#
#
#
# Elastic Constant Matrix: (Units=GPa)
#
#
# Indices 1 2 3 4 5 6 
#
# 1 69.4185 26.5251 11.8277 0.0000 0.0000 0.0000
# 2 26.5251 85.3638 14.6412 0.0000 0.0000 0.0000
# 3 11.8277 14.6412 132.5305 0.0000 0.0000 0.0000
# 4 0.0000 0.0000 0.0000 21.9470 0.0000 0.0000
# 5 0.0000 0.0000 0.0000 0.0000 55.8777 0.0000
# 6 0.0000 0.0000 0.0000 0.0000 0.0000 19.7986
#
#
#
# Elastic Compliance Matrix: (Units=1/GPa)
#
#
# Indices 1 2 3 4 5 6 
#
# 1 0.016456 -0.004955 -0.000921 0.000000 0.000000 0.000000
# 2 -0.004955 0.013433 -0.001042 0.000000 0.000000 0.000000
# 3 -0.000921 -0.001042 0.007743 0.000000 0.000000 0.000000
# 4 0.000000 0.000000 0.000000 0.045564 0.000000 0.000000
# 5 0.000000 0.000000 0.000000 0.000000 0.017896 0.000000
# 6 0.000000 0.000000 0.000000 0.000000 0.000000 0.050509
#
#
# Mechanical properties :
#
#
# Convention : Reuss Voigt Hill
#
# Bulk Modulus (GPa) = 42.02556 43.70008 42.86282
# Shear Modulus (GPa) = 28.84024 35.14590 31.99307
#
# Velocity S-wave (km/s) = 3.56807 3.93887 3.75804
# Velocity P-wave (km/s) = 5.96040 6.32274 6.14424
#
# Compressibility (1/GPa) = 0.02379504
#
# Stress axis : x y z
#
# Youngs Moduli (GPa) = 60.76894 74.44347 129.15336
#
# Poissons Ratio (x) = 0.36889 0.11897
# Poissons Ratio (y) = 0.30113 0.13455
# Poissons Ratio (z) = 0.05598 0.07755
#
# Static dielectric constant tensor:
#      x y z
#    x 1.867520 0.000000 0.000000 
#    y 0.000000 1.895480 0.000000 
#    z 0.000000 0.000000 1.883780 
# 
# From -- ./inp_files/27211.got.cif
#   From: 2010.05.17/outbox.cif.g08.bks.cpg/sg74_14_cif.got.tgz:27211.got - 2010.06.03 17:57:02.
