data_PCOD9536897
_publ_section_title
;
Structure prediction by ZEFSAII (Michael W. Deem and Ramdas Pophale) SiO2 
 PCOD9536897
Probable space group: I M M A
;
_chemical_formula_sum "Si O2"
_cell_formula_units_Z 56
_cell_length_a 19.436885
_cell_length_b 13.730574
_cell_length_c 8.937777
_cell_angle_alpha 90.000000
_cell_angle_beta 90.000000
_cell_angle_gamma 90.000000
_cell_volume 2385.310242
_symmetry_space_group_name_H-M "I M M A"
_symmetry_group_IT_number 74
_symmetry_cell_setting 'orthorhombic'
loop_
_space_group_symop_operation_xyz
x,y,z
-x,1/2-y,z
x,-y,-z
-x,1/2+y,-z
-x,-y,-z
x,1/2+y,-z
-x,y,z
x,1/2-y,z
1/2+x,1/2+y,1/2+z
1/2-x,-y,1/2+z
1/2+x,1/2-y,1/2-z
1/2-x,y,1/2-z
1/2-x,1/2-y,1/2-z
1/2+x,y,1/2-z
1/2-x,1/2+y,1/2+z
1/2+x,-y,1/2+z
loop_
_atom_site_type_symbol
_atom_site_label
_atom_site_fract_x
_atom_site_fract_y
_atom_site_fract_z
Si Si1 0.250000 0.091951 0.750000
Si Si2 0.500000 0.250000 0.566233
Si Si3 0.872634 0.541093 0.651804
Si Si4 0.646251 0.250000 0.025298
Si Si5 0.000000 0.250000 0.429474
Si Si6 0.157206 0.750000 0.180656
Si Si7 0.000000 0.083692 0.180935
O O1 0.200258 0.153933 0.863359
O O2 0.194081 0.024668 0.670929
O O3 0.576497 0.250000 0.642405
O O4 0.500000 0.348325 0.464164
O O5 0.907445 0.500000 0.500000
O O6 0.847933 0.652429 0.623377
O O7 0.927787 0.530262 0.786655
O O8 0.675905 0.250000 0.859579
O O9 0.566722 0.250000 0.975693
O O10 0.000000 0.341339 0.320433
#
# Coordination Sequence:
#
# PCOD9536897 Si02
#       7
#     8   4  16   8   4   8   8
#     4  11  26  43  64 106 144 185 234 281 372 426
#     4  11  25  48  72 100 145 189 238 300 350 415
#     4  11  22  42  72 102 139 178 235 298 343 428
#     4  10  19  40  69  97 128 180 231 277 352 403
#     4   7  15  32  64  94 121 149 216 290 312 395
#     4  11  24  46  68  97 147 188 231 288 360 422
#     4   9  21  41  65 104 130 173 234 287 349 401
#
# _framework density 23.477029999999999
#
# number of rings (size 3 to 8) (size 9 to 14) (size 15 to 20)
#    0.000    1.714    2.857    1.714    0.000    4.000 
#    0.000    1.429    0.000    0.000    0.000    0.000 
#    0.000    0.000    0.000    0.000    0.000    0.000 
#
# Total GULP energy -155913.604747 kJ/mol
# GULP energy per Si atom -5568.343027 kJ/mol
# Density = 2.342359 g / cm^3
# Si number density = 23.477030 Si / 1000 Ang^3
#
#
#
# Elastic Constant Matrix: (Units=GPa)
#
#
# Indices 1 2 3 4 5 6 
#
# 1 193.6449 56.0612 47.2127 0.0000 0.0000 0.0000
# 2 56.0612 134.0674 18.7859 0.0000 0.0000 0.0000
# 3 47.2127 18.7859 56.7060 0.0000 0.0000 0.0000
# 4 0.0000 0.0000 0.0000 12.0403 0.0000 0.0000
# 5 0.0000 0.0000 0.0000 0.0000 18.1315 0.0000
# 6 0.0000 0.0000 0.0000 0.0000 0.0000 32.3553
#
#
#
# Elastic Compliance Matrix: (Units=1/GPa)
#
#
# Indices 1 2 3 4 5 6 
#
# 1 0.007064 -0.002234 -0.005142 0.000000 0.000000 0.000000
# 2 -0.002234 0.008528 -0.000966 0.000000 0.000000 0.000000
# 3 -0.005142 -0.000966 0.022236 0.000000 0.000000 0.000000
# 4 0.000000 0.000000 0.000000 0.083054 0.000000 0.000000
# 5 0.000000 0.000000 0.000000 0.000000 0.055153 0.000000
# 6 0.000000 0.000000 0.000000 0.000000 0.000000 0.030907
#
#
# Mechanical properties :
#
#
# Convention : Reuss Voigt Hill
#
# Bulk Modulus (GPa) = 47.28950 69.83754 58.56352
# Shear Modulus (GPa) = 21.67574 29.99598 25.83586
#
# Velocity S-wave (km/s) = 3.04184 3.57833 3.32094
# Velocity P-wave (km/s) = 5.70295 6.84722 6.30111
#
# Compressibility (1/GPa) = 0.02114634
#
# Stress axis : x y z
#
# Youngs Moduli (GPa) = 141.55656 117.25788 44.97282
#
# Poissons Ratio (x) = 0.26190 0.23124
# Poissons Ratio (y) = 0.31617 0.04343
# Poissons Ratio (z) = 0.72784 0.11323
#
# Static dielectric constant tensor:
#      x y z
#    x 1.941490 0.000000 0.000000 
#    y 0.000000 2.066430 0.000000 
#    z 0.000000 0.000000 1.880720 
# 
# From -- ./inp_files/8534.got.cif
#   From: 2010.05.17/outbox.cif.g08.bks.cpg/sg74_5_cif.got.tgz:8534.got - 2010.06.03 17:57:02.
