data_PCOD9536765
_publ_section_title
;
Structure prediction by ZEFSAII (Michael W. Deem and Ramdas Pophale) SiO2 
 PCOD9536765
Probable space group: I M M A
;
_chemical_formula_sum "Si O2"
_cell_formula_units_Z 88
_cell_length_a 19.816473
_cell_length_b 20.743308
_cell_length_c 11.480091
_cell_angle_alpha 90.000000
_cell_angle_beta 90.000000
_cell_angle_gamma 90.000000
_cell_volume 4718.997056
_symmetry_space_group_name_H-M "I M M A"
_symmetry_group_IT_number 74
_symmetry_cell_setting 'orthorhombic'
loop_
_space_group_symop_operation_xyz
x,y,z
-x,1/2-y,z
x,-y,-z
-x,1/2+y,-z
-x,-y,-z
x,1/2+y,-z
-x,y,z
x,1/2-y,z
1/2+x,1/2+y,1/2+z
1/2-x,-y,1/2+z
1/2+x,1/2-y,1/2-z
1/2-x,y,1/2-z
1/2-x,1/2-y,1/2-z
1/2+x,y,1/2-z
1/2-x,1/2+y,1/2+z
1/2+x,-y,1/2+z
loop_
_atom_site_type_symbol
_atom_site_label
_atom_site_fract_x
_atom_site_fract_y
_atom_site_fract_z
Si Si1 0.078408 0.566608 0.441677
Si Si2 0.681108 0.675459 0.050582
Si Si3 0.250000 0.405326 0.750000
Si Si4 0.205838 0.324478 0.146668
Si Si5 0.886573 0.957012 0.173015
Si Si6 0.577126 0.403205 0.428215
O O1 0.103700 0.500000 0.500000
O O2 0.120774 0.627837 0.485853
O O3 0.085558 0.559356 0.301390
O O4 0.000000 0.573911 0.471578
O O5 0.660493 0.750000 0.065466
O O6 0.708625 0.641959 0.166706
O O7 0.743869 0.673887 0.962612
O O8 0.194570 0.448309 0.817054
O O9 0.192266 0.250000 0.178063
O O10 0.250000 0.355172 0.250000
O O11 0.135372 0.357402 0.119389
O O12 0.909349 0.027837 0.133191
O O13 0.912252 0.912126 0.067473
O O14 0.500000 0.383404 0.405940
#
# Coordination Sequence:
#
# PCOD9536765 Si02
#       6
#    16  16   8  16  16  16
#     4  10  22  38  58  86 122 158 195 240 297 359
#     4  10  21  38  60  85 114 151 196 242 292 350
#     4  10  19  36  60  88 115 154 190 240 297 358
#     4  10  23  41  59  84 118 156 199 247 296 358
#     4  10  21  37  59  89 119 152 197 245 299 357
#     4  11  22  38  63  87 118 155 196 254 305 353
#
# _framework density 18.648029999999999
#
# number of rings (size 3 to 8) (size 9 to 14) (size 15 to 20)
#    0.000    1.818    1.818    2.455    3.818    2.182 
#    0.000    0.000    0.000    5.455    0.000    0.000 
#    0.000    0.000    0.000    0.000    0.000    0.000 
#
# Total GULP energy -245431.395653 kJ/mol
# GULP energy per Si atom -5577.986265 kJ/mol
# Density = 1.860559 g / cm^3
# Si number density = 18.648030 Si / 1000 Ang^3
#
#
#
# Elastic Constant Matrix: (Units=GPa)
#
#
# Indices 1 2 3 4 5 6 
#
# 1 141.3365 66.0080 27.3493 0.0000 0.0000 0.0000
# 2 66.0080 53.6296 21.8591 0.0000 0.0000 0.0000
# 3 27.3493 21.8591 54.9978 0.0000 0.0000 0.0000
# 4 0.0000 0.0000 0.0000 19.4035 0.0000 0.0000
# 5 0.0000 0.0000 0.0000 0.0000 24.5571 0.0000
# 6 0.0000 0.0000 0.0000 0.0000 0.0000 1140.6468
#
#
#
# Elastic Compliance Matrix: (Units=1/GPa)
#
#
# Indices 1 2 3 4 5 6 
#
# 1 0.016642 -0.020418 -0.000161 0.000000 0.000000 0.000000
# 2 -0.020418 0.047301 -0.008647 0.000000 0.000000 0.000000
# 3 -0.000161 -0.008647 0.021699 0.000000 0.000000 0.000000
# 4 0.000000 0.000000 0.000000 0.051537 0.000000 0.000000
# 5 0.000000 0.000000 0.000000 0.000000 0.040721 0.000000
# 6 0.000000 0.000000 0.000000 0.000000 0.000000 0.000877
#
#
# Mechanical properties :
#
#
# Convention : Reuss Voigt Hill
#
# Bulk Modulus (GPa) = 36.77534 53.37740 45.07637
# Shear Modulus (GPa) = 20.30115 245.90466 133.10290
#
# Velocity S-wave (km/s) = 3.30305 11.49576 8.45762
# Velocity P-wave (km/s) = 5.85751 14.31395 10.93617
#
# Compressibility (1/GPa) = 0.02719214
#
# Stress axis : x y z
#
# Youngs Moduli (GPa) = 60.08889 21.14117 46.08487
#
# Poissons Ratio (x) = 0.43165 0.00740
# Poissons Ratio (y) = 1.22688 0.39848
# Poissons Ratio (z) = 0.00965 0.18280
#
# Static dielectric constant tensor:
#      x y z
#    x 1.657620 0.000000 0.000000 
#    y 0.000000 1.633690 0.000000 
#    z 0.000000 0.000000 1.724080 
# 
# From -- ./inp_files/22206.got.cif
#   From: 2010.05.17/outbox.cif.g08.bks.cpg/sg74_12_cif.got.tgz:22206.got - 2010.06.03 17:57:02.
