data_PCOD9536049
_publ_section_title
;
Structure prediction by ZEFSAII (Michael W. Deem and Ramdas Pophale) SiO2 
 PCOD9536049
Probable space group: I M M A
;
_chemical_formula_sum "Si O2"
_cell_formula_units_Z 104
_cell_length_a 17.841689
_cell_length_b 21.480099
_cell_length_c 15.007826
_cell_angle_alpha 90.000000
_cell_angle_beta 90.000000
_cell_angle_gamma 90.000000
_cell_volume 5751.617937
_symmetry_space_group_name_H-M "I M M A"
_symmetry_group_IT_number 74
_symmetry_cell_setting 'orthorhombic'
loop_
_space_group_symop_operation_xyz
x,y,z
-x,1/2-y,z
x,-y,-z
-x,1/2+y,-z
-x,-y,-z
x,1/2+y,-z
-x,y,z
x,1/2-y,z
1/2+x,1/2+y,1/2+z
1/2-x,-y,1/2+z
1/2+x,1/2-y,1/2-z
1/2-x,y,1/2-z
1/2-x,1/2-y,1/2-z
1/2+x,y,1/2-z
1/2-x,1/2+y,1/2+z
1/2+x,-y,1/2+z
loop_
_atom_site_type_symbol
_atom_site_label
_atom_site_fract_x
_atom_site_fract_y
_atom_site_fract_z
Si Si1 0.868215 0.821802 0.053028
Si Si2 0.418314 0.061909 0.439609
Si Si3 0.342057 0.000000 0.000000
Si Si4 0.285648 0.680765 0.946508
Si Si5 0.239837 0.060176 0.149025
Si Si6 0.662466 0.824228 0.242750
Si Si7 0.588310 0.872935 0.065614
O O1 0.892204 0.750000 0.035193
O O2 0.871599 0.832724 0.158758
O O3 0.910019 0.876075 0.999953
O O4 0.781692 0.826244 0.019099
O O5 0.500000 0.062663 0.395428
O O6 0.347513 0.059906 0.375261
O O7 0.414085 0.000000 0.500000
O O8 0.286928 0.018347 0.080710
O O9 0.391736 0.942370 0.032539
O O10 0.281845 0.750000 0.910037
O O11 0.271122 0.629222 0.871923
O O12 0.362653 0.669425 0.998798
O O13 0.250000 0.041167 0.250000
O O14 0.660091 0.750000 0.222044
O O15 0.750000 0.842167 0.250000
O O16 0.619965 0.860185 0.164696
O O17 0.500000 0.861049 0.062319
#
# Coordination Sequence:
#
# PCOD9536049 Si02
#       7
#    16  16   8  16  16  16  16
#     4   9  18  34  56  81 114 156 194 233 294 362
#     4  10  21  37  57  85 117 147 189 243 294 345
#     4  10  23  42  57  80 114 154 202 238 287 348
#     4   9  18  35  57  80 108 146 192 238 286 343
#     4  10  21  39  62  85 109 151 196 236 285 349
#     4  10  19  32  54  85 118 153 194 238 287 354
#     4  11  22  35  54  80 115 155 195 243 293 344
#
# _framework density 18.081869000000001
#
# number of rings (size 3 to 8) (size 9 to 14) (size 15 to 20)
#    0.000    2.154    2.308    0.692    0.000    4.308 
#    0.000    6.923    0.000    0.000    0.000    0.000 
#    0.000    0.000    0.000    0.000    0.000    0.000 
#
# Total GULP energy -290166.686906 kJ/mol
# GULP energy per Si atom -5580.128594 kJ/mol
# Density = 1.804071 g / cm^3
# Si number density = 18.081869 Si / 1000 Ang^3
#
#
#
# Elastic Constant Matrix: (Units=GPa)
#
#
# Indices 1 2 3 4 5 6 
#
# 1 121.9981 16.1536 27.3024 0.0000 0.0000 0.0000
# 2 16.1536 53.3959 15.2353 0.0000 0.0000 0.0000
# 3 27.3024 15.2353 80.9606 0.0000 0.0000 0.0000
# 4 0.0000 0.0000 0.0000 9.3543 0.0000 0.0000
# 5 0.0000 0.0000 0.0000 0.0000 12.5165 0.0000
# 6 0.0000 0.0000 0.0000 0.0000 0.0000 36.8517
#
#
#
# Elastic Compliance Matrix: (Units=1/GPa)
#
#
# Indices 1 2 3 4 5 6 
#
# 1 0.009059 -0.001975 -0.002683 0.000000 0.000000 0.000000
# 2 -0.001975 0.020221 -0.003139 0.000000 0.000000 0.000000
# 3 -0.002683 -0.003139 0.013847 0.000000 0.000000 0.000000
# 4 0.000000 0.000000 0.000000 0.106902 0.000000 0.000000
# 5 0.000000 0.000000 0.000000 0.000000 0.079894 0.000000
# 6 0.000000 0.000000 0.000000 0.000000 0.000000 0.027136
#
#
# Mechanical properties :
#
#
# Convention : Reuss Voigt Hill
#
# Bulk Modulus (GPa) = 36.32078 41.52637 38.92357
# Shear Modulus (GPa) = 17.74106 24.92207 21.33157
#
# Velocity S-wave (km/s) = 3.13573 3.71656 3.43843
# Velocity P-wave (km/s) = 5.76549 6.43682 6.11038
#
# Compressibility (1/GPa) = 0.02753245
#
# Stress axis : x y z
#
# Youngs Moduli (GPa) = 110.38931 49.45305 72.21611
#
# Poissons Ratio (x) = 0.09767 0.19378
# Poissons Ratio (y) = 0.21801 0.22671
# Poissons Ratio (z) = 0.29621 0.15525
#
# Static dielectric constant tensor:
#      x y z
#    x 1.614340 0.000000 0.000000 
#    y 0.000000 1.640360 0.000000 
#    z 0.000000 0.000000 1.589810 
# 
# From -- ./inp_files/34327.got.cif
#   From: 2010.05.17/outbox.cif.g08.bks.cpg/sg74_18_cif.got.tgz:34327.got - 2010.06.03 17:57:02.
