data_PCOD9536259
_publ_section_title
;
Structure prediction by ZEFSAII (Michael W. Deem and Ramdas Pophale) SiO2 
 PCOD9536259
Probable space group: I M M A
;
_chemical_formula_sum "Si O2"
_cell_formula_units_Z 56
_cell_length_a 8.133328
_cell_length_b 9.360183
_cell_length_c 40.266708
_cell_angle_alpha 90.000000
_cell_angle_beta 90.000000
_cell_angle_gamma 90.000000
_cell_volume 3065.481869
_symmetry_space_group_name_H-M "I M M A"
_symmetry_group_IT_number 74
_symmetry_cell_setting 'orthorhombic'
loop_
_space_group_symop_operation_xyz
x,y,z
-x,1/2-y,z
x,-y,-z
-x,1/2+y,-z
-x,-y,-z
x,1/2+y,-z
-x,y,z
x,1/2-y,z
1/2+x,1/2+y,1/2+z
1/2-x,-y,1/2+z
1/2+x,1/2-y,1/2-z
1/2-x,y,1/2-z
1/2-x,1/2-y,1/2-z
1/2+x,y,1/2-z
1/2-x,1/2+y,1/2+z
1/2+x,-y,1/2+z
loop_
_atom_site_type_symbol
_atom_site_label
_atom_site_fract_x
_atom_site_fract_y
_atom_site_fract_z
Si Si1 0.694273 0.415832 0.350503
Si Si2 0.000000 0.576386 0.964641
Si Si3 0.696685 0.084609 0.786073
Si Si4 0.317570 0.923766 0.921328
O O1 0.500000 0.420450 0.357794
O O2 0.741008 0.250000 0.345490
O O3 0.731866 0.500644 0.317177
O O4 0.786472 0.470663 0.383340
O O5 0.835702 0.534285 0.944263
O O6 0.000000 0.750000 0.967943
O O7 0.000000 0.500000 0.000000
O O8 0.500000 0.080827 0.787938
O O9 0.752059 0.250000 0.787720
O O10 0.750000 0.027438 0.750000
O O11 0.500000 0.968587 0.932535
O O12 0.314737 0.750000 0.920619
#
# Coordination Sequence:
#
# PCOD9536259 Si02
#       4
#    16   8  16  16
#     4  10  19  33  55  81 105 133 176 226 270 317
#     4  10  20  36  56  80 110 142 178 216 264 322
#     4  10  21  36  52  72 102 141 181 219 268 327
#     4   9  17  32  55  80 107 140 176 217 266 318
#
# _framework density 18.267925999999999
#
# number of rings (size 3 to 8) (size 9 to 14) (size 15 to 20)
#    0.000    2.286    1.429    1.714    0.000    4.571 
#    0.000    1.429    0.000    1.714    0.000    0.000 
#    0.000    0.000    0.000    0.000    0.000    0.000 
#
# Total GULP energy -156194.794869 kJ/mol
# GULP energy per Si atom -5578.385531 kJ/mol
# Density = 1.822635 g / cm^3
# Si number density = 18.267926 Si / 1000 Ang^3
#
#
#
# Elastic Constant Matrix: (Units=GPa)
#
#
# Indices 1 2 3 4 5 6 
#
# 1 113.7878 21.2166 68.1309 0.0000 0.0000 0.0000
# 2 21.2166 21.8598 34.2832 0.0000 0.0000 0.0000
# 3 68.1309 34.2832 144.7417 0.0000 0.0000 0.0000
# 4 0.0000 0.0000 0.0000 33.0114 0.0000 0.0000
# 5 0.0000 0.0000 0.0000 0.0000 27.5790 0.0000
# 6 0.0000 0.0000 0.0000 0.0000 0.0000 16.2465
#
#
#
# Elastic Compliance Matrix: (Units=1/GPa)
#
#
# Indices 1 2 3 4 5 6 
#
# 1 0.012525 -0.004630 -0.004799 0.000000 0.000000 0.000000
# 2 -0.004630 0.074494 -0.015465 0.000000 0.000000 0.000000
# 3 -0.004799 -0.015465 0.012831 0.000000 0.000000 0.000000
# 4 0.000000 0.000000 0.000000 0.030293 0.000000 0.000000
# 5 0.000000 0.000000 0.000000 0.000000 0.036259 0.000000
# 6 0.000000 0.000000 0.000000 0.000000 0.000000 0.061552
#
#
# Mechanical properties :
#
#
# Convention : Reuss Voigt Hill
#
# Bulk Modulus (GPa) = 19.97540 58.62784 39.30162
# Shear Modulus (GPa) = 16.98201 25.81796 21.39999
#
# Velocity S-wave (km/s) = 3.05226 3.76346 3.42636
# Velocity P-wave (km/s) = 4.83530 7.14478 6.10032
#
# Compressibility (1/GPa) = 0.05006159
#
# Stress axis : x y z
#
# Youngs Moduli (GPa) = 79.84047 13.42387 77.93788
#
# Poissons Ratio (x) = 0.06216 0.37401
# Poissons Ratio (y) = 0.36968 1.20531
# Poissons Ratio (z) = 0.38314 0.20760
#
# Static dielectric constant tensor:
#      x y z
#    x 1.650150 0.000000 0.000000 
#    y 0.000000 1.613850 0.000000 
#    z 0.000000 0.000000 1.604030 
# 
# From -- ./inp_files/63248.got.cif
#   From: 2010.05.17/outbox.cif.g08.bks.cpg/sg74_32_cif.got.tgz:63248.got - 2010.06.03 17:57:02.
