data_PCOD9536558
_publ_section_title
;
Structure prediction by ZEFSAII (Michael W. Deem and Ramdas Pophale) SiO2 
 PCOD9536558
Probable space group: I M M A
;
_chemical_formula_sum "Si O2"
_cell_formula_units_Z 100
_cell_length_a 7.940763
_cell_length_b 20.837473
_cell_length_c 30.786187
_cell_angle_alpha 90.000000
_cell_angle_beta 90.000000
_cell_angle_gamma 90.000000
_cell_volume 5094.049812
_symmetry_space_group_name_H-M "I M M A"
_symmetry_group_IT_number 74
_symmetry_cell_setting 'orthorhombic'
loop_
_space_group_symop_operation_xyz
x,y,z
-x,1/2-y,z
x,-y,-z
-x,1/2+y,-z
-x,-y,-z
x,1/2+y,-z
-x,y,z
x,1/2-y,z
1/2+x,1/2+y,1/2+z
1/2-x,-y,1/2+z
1/2+x,1/2-y,1/2-z
1/2-x,y,1/2-z
1/2-x,1/2-y,1/2-z
1/2+x,y,1/2-z
1/2-x,1/2+y,1/2+z
1/2+x,-y,1/2+z
loop_
_atom_site_type_symbol
_atom_site_label
_atom_site_fract_x
_atom_site_fract_y
_atom_site_fract_z
Si Si1 0.500000 0.750000 0.013667
Si Si2 0.704343 0.497195 0.550712
Si Si3 0.702620 0.948697 0.203506
Si Si4 0.800639 0.250000 0.057173
Si Si5 0.698287 0.093843 0.204357
Si Si6 0.301412 0.618042 0.608547
Si Si7 0.297939 0.617208 0.114537
Si Si8 0.812772 0.250000 0.918959
O O1 0.650061 0.750000 0.050494
O O2 0.651593 0.750000 0.977290
O O3 0.759602 0.500000 0.500000
O O4 0.500000 0.498343 0.550042
O O5 0.766235 0.558198 0.579558
O O6 0.760132 0.432588 0.575378
O O7 0.500000 0.951183 0.201219
O O8 0.750000 0.919290 0.250000
O O9 0.759347 0.913848 0.159940
O O10 0.772660 0.021476 0.203264
O O11 0.776807 0.185047 0.084488
O O12 0.000000 0.250000 0.042803
O O13 0.500000 0.087584 0.206833
O O14 0.750000 0.125550 0.250000
O O15 0.738277 0.123017 0.157745
O O16 0.500000 0.606154 0.611677
O O17 0.500000 0.626668 0.115850
O O18 0.206588 0.684317 0.107507
O O19 0.000000 0.250000 0.939571
#
# Coordination Sequence:
#
# PCOD9536558 Si02
#       8
#     4  16  16   8  16  16  16   8
#     4  12  26  48  68  96 124 180 222 270 312 398
#     4  10  22  37  58  88 122 161 207 258 318 379
#     4   9  19  34  58  90 125 162 207 259 316 382
#     4  10  25  45  68  95 132 172 219 267 323 382
#     4  10  19  34  58  89 124 162 208 259 319 382
#     4  10  21  39  61  91 129 168 209 264 317 384
#     4  11  22  42  62  92 127 165 209 266 318 383
#     4  12  27  45  68  93 128 172 219 265 323 382
#
# _framework density 19.630745999999998
#
# number of rings (size 3 to 8) (size 9 to 14) (size 15 to 20)
#    0.000    1.760    2.400    1.200    3.360    2.240 
#    0.000    0.800    0.000    0.000    0.000    0.000 
#    0.000    0.000    0.000    0.000    0.000    0.000 
#
# Total GULP energy -278344.296233 kJ/mol
# GULP energy per Si atom -5566.885925 kJ/mol
# Density = 1.958607 g / cm^3
# Si number density = 19.630746 Si / 1000 Ang^3
#
#
#
# Elastic Constant Matrix: (Units=GPa)
#
#
# Indices 1 2 3 4 5 6 
#
# 1 65.2930 5.8117 22.3119 0.0000 0.0000 0.0000
# 2 5.8117 33.7812 -17.5455 0.0000 0.0000 0.0000
# 3 22.3119 -17.5455 96.2165 0.0000 0.0000 0.0000
# 4 0.0000 0.0000 0.0000 -33.4015 0.0000 0.0000
# 5 0.0000 0.0000 0.0000 0.0000 -100.3942 0.0000
# 6 0.0000 0.0000 0.0000 0.0000 0.0000 20.5073
#
#
#
# Elastic Compliance Matrix: (Units=1/GPa)
#
#
# Indices 1 2 3 4 5 6 
#
# 1 0.017566 -0.005675 -0.005108 0.000000 0.000000 0.000000
# 2 -0.005675 0.034533 0.007613 0.000000 0.000000 0.000000
# 3 -0.005108 0.007613 0.012966 0.000000 0.000000 0.000000
# 4 0.000000 0.000000 0.000000 -0.029939 0.000000 0.000000
# 5 0.000000 0.000000 0.000000 0.000000 -0.009961 0.000000
# 6 0.000000 0.000000 0.000000 0.000000 0.000000 0.048763
#
#
# Mechanical properties :
#
#
# Convention : Reuss Voigt Hill
#
# Bulk Modulus (GPa) = 17.02869 24.04966 20.53917
# Shear Modulus (GPa) = 50.07766 -10.34352 19.86707
#
# Velocity S-wave (km/s) = 5.05620 -2.29793 3.18471
# Velocity P-wave (km/s) = 6.54066 2.28844 4.89986
#
# Compressibility (1/GPa) = 0.05872443
#
# Stress axis : x y z
#
# Youngs Moduli (GPa) = 56.92684 28.95787 77.12381
#
# Poissons Ratio (x) = 0.16435 0.39398
# Poissons Ratio (y) = 0.32308 -0.58717
# Poissons Ratio (z) = 0.29081 -0.22047
#
# Static dielectric constant tensor:
#      x y z
#    x 1.630920 0.000000 0.000000 
#    y 0.000000 1.674920 0.000000 
#    z 0.000000 0.000000 1.726890 
# 
# From -- ./inp_files/70673.got.cif
#   From: 2010.05.17/outbox.cif.g08.bks.cpg/sg74_36_cif.got.tgz:70673.got - 2010.06.03 17:57:02.
