data_PCOD9536125
_publ_section_title
;
Structure prediction by ZEFSAII (Michael W. Deem and Ramdas Pophale) SiO2 
 PCOD9536125
Probable space group: I M M A
;
_chemical_formula_sum "Si O2"
_cell_formula_units_Z 104
_cell_length_a 8.825121
_cell_length_b 21.002995
_cell_length_c 32.625255
_cell_angle_alpha 90.000000
_cell_angle_beta 90.000000
_cell_angle_gamma 90.000000
_cell_volume 6047.220610
_symmetry_space_group_name_H-M "I M M A"
_symmetry_group_IT_number 74
_symmetry_cell_setting 'orthorhombic'
loop_
_space_group_symop_operation_xyz
x,y,z
-x,1/2-y,z
x,-y,-z
-x,1/2+y,-z
-x,-y,-z
x,1/2+y,-z
-x,y,z
x,1/2-y,z
1/2+x,1/2+y,1/2+z
1/2-x,-y,1/2+z
1/2+x,1/2-y,1/2-z
1/2-x,y,1/2-z
1/2-x,1/2-y,1/2-z
1/2+x,y,1/2-z
1/2-x,1/2+y,1/2+z
1/2+x,-y,1/2+z
loop_
_atom_site_type_symbol
_atom_site_label
_atom_site_fract_x
_atom_site_fract_y
_atom_site_fract_z
Si Si1 0.317745 0.055744 0.881480
Si Si2 0.183396 0.677788 0.978186
Si Si3 0.824086 0.569295 0.915838
Si Si4 0.181774 0.007488 0.707451
Si Si5 0.319816 0.750000 0.795182
Si Si6 0.317082 0.821864 0.068672
Si Si7 0.175774 0.879145 0.823572
O O1 0.500000 0.054344 0.881354
O O2 0.267507 0.122697 0.900514
O O3 0.261145 0.997252 0.909516
O O4 0.269470 0.043882 0.834295
O O5 0.227832 0.750000 0.964871
O O6 0.245717 0.668381 0.023880
O O7 0.000000 0.676420 0.978542
O O8 0.235268 0.620627 0.948622
O O9 0.819846 0.602398 0.871333
O O10 0.000000 0.555548 0.925737
O O11 0.250000 0.032528 0.750000
O O12 0.242291 0.935774 0.700748
O O13 0.000000 0.007587 0.709677
O O14 0.500000 0.750000 0.793389
O O15 0.250000 0.750000 0.750000
O O16 0.258785 0.813045 0.816874
O O17 0.500000 0.825013 0.064973
O O18 0.277713 0.750000 0.082230
O O19 0.000000 0.874810 0.810644
#
# Coordination Sequence:
#
# PCOD9536125 Si02
#       7
#    16  16  16  16   8  16  16
#     4   9  19  34  52  74 101 130 162 205 249 293
#     4   9  18  32  50  72 100 134 170 207 246 289
#     4   9  19  33  51  73  99 132 168 206 248 294
#     4  10  19  33  52  73  98 126 160 200 247 298
#     4  12  24  36  48  66  92 126 168 212 256 300
#     4   9  18  34  54  75  99 130 167 202 243 296
#     4  10  20  34  51  70  94 128 167 207 251 294
#
# _framework density 17.197984000000002
#
# number of rings (size 3 to 8) (size 9 to 14) (size 15 to 20)
#    0.000    2.462    0.000    2.077    1.077    3.077 
#    0.000    3.077    0.000    0.462    0.000    0.000 
#    0.000    0.000    0.000    0.000    0.000    0.462 
#
# Total GULP energy -289979.259512 kJ/mol
# GULP energy per Si atom -5576.524221 kJ/mol
# Density = 1.715884 g / cm^3
# Si number density = 17.197984 Si / 1000 Ang^3
#
#
#
# Elastic Constant Matrix: (Units=GPa)
#
#
# Indices 1 2 3 4 5 6 
#
# 1 41.0792 32.0538 23.8127 0.0000 0.0000 0.0000
# 2 32.0538 135.3842 80.0355 0.0000 0.0000 0.0000
# 3 23.8127 80.0355 88.1285 0.0000 0.0000 0.0000
# 4 0.0000 0.0000 0.0000 10.6445 0.0000 0.0000
# 5 0.0000 0.0000 0.0000 0.0000 25.9064 0.0000
# 6 0.0000 0.0000 0.0000 0.0000 0.0000 21.0913
#
#
#
# Elastic Compliance Matrix: (Units=1/GPa)
#
#
# Indices 1 2 3 4 5 6 
#
# 1 0.030385 -0.005054 -0.003621 0.000000 0.000000 0.000000
# 2 -0.005054 0.016790 -0.013882 0.000000 0.000000 0.000000
# 3 -0.003621 -0.013882 0.024933 0.000000 0.000000 0.000000
# 4 0.000000 0.000000 0.000000 0.093945 0.000000 0.000000
# 5 0.000000 0.000000 0.000000 0.000000 0.038600 0.000000
# 6 0.000000 0.000000 0.000000 0.000000 0.000000 0.047413
#
#
# Mechanical properties :
#
#
# Convention : Reuss Voigt Hill
#
# Bulk Modulus (GPa) = 37.04448 59.59956 48.32202
# Shear Modulus (GPa) = 16.33033 20.10776 18.21904
#
# Velocity S-wave (km/s) = 3.08482 3.42306 3.25833
# Velocity P-wave (km/s) = 5.85448 7.09600 6.50493
#
# Compressibility (1/GPa) = 0.02699458
#
# Stress axis : x y z
#
# Youngs Moduli (GPa) = 32.91057 59.55981 40.10740
#
# Poissons Ratio (x) = 0.30099 0.14522
# Poissons Ratio (y) = 0.16632 0.55679
# Poissons Ratio (z) = 0.11916 0.82684
#
# Static dielectric constant tensor:
#      x y z
#    x 1.584990 0.000000 0.000000 
#    y 0.000000 1.569740 0.000000 
#    z 0.000000 0.000000 1.573090 
# 
# From -- ./inp_files/70617.got.cif
#   From: 2010.05.17/outbox.cif.g08.bks.cpg/sg74_36_cif.got.tgz:70617.got - 2010.06.03 17:57:02.
