data_PCOD9536791
_publ_section_title
;
Structure prediction by ZEFSAII (Michael W. Deem and Ramdas Pophale) SiO2 
 PCOD9536791
Probable space group: I M M A
;
_chemical_formula_sum "Si O2"
_cell_formula_units_Z 64
_cell_length_a 13.825039
_cell_length_b 21.503501
_cell_length_c 10.125570
_cell_angle_alpha 90.000000
_cell_angle_beta 90.000000
_cell_angle_gamma 90.000000
_cell_volume 3010.197696
_symmetry_space_group_name_H-M "I M M A"
_symmetry_group_IT_number 74
_symmetry_cell_setting 'orthorhombic'
loop_
_space_group_symop_operation_xyz
x,y,z
-x,1/2-y,z
x,-y,-z
-x,1/2+y,-z
-x,-y,-z
x,1/2+y,-z
-x,y,z
x,1/2-y,z
1/2+x,1/2+y,1/2+z
1/2-x,-y,1/2+z
1/2+x,1/2-y,1/2-z
1/2-x,y,1/2-z
1/2-x,1/2-y,1/2-z
1/2+x,y,1/2-z
1/2-x,1/2+y,1/2+z
1/2+x,-y,1/2+z
loop_
_atom_site_type_symbol
_atom_site_label
_atom_site_fract_x
_atom_site_fract_y
_atom_site_fract_z
Si Si1 0.116093 0.991113 0.852400
Si Si2 0.296044 0.182458 0.031592
Si Si3 0.886469 0.347518 0.189352
Si Si4 0.615570 0.060665 0.906640
O O1 0.144019 0.039511 0.740302
O O2 0.000000 0.996653 0.860818
O O3 0.134784 0.921315 0.804469
O O4 0.155217 0.000000 0.000000
O O5 0.313872 0.250000 0.968581
O O6 0.184303 0.177697 0.076705
O O7 0.355423 0.179489 0.169713
O O8 0.328201 0.121761 0.952285
O O9 0.000000 0.338094 0.164294
O O10 0.500000 0.074153 0.911466
O O11 0.629048 0.000000 0.000000
#
# Coordination Sequence:
#
# PCOD9536791 Si02
#       4
#    16  16  16  16
#     4   9  18  35  61  91 120 157 209 265 322 381
#     4  11  23  36  57  94 130 167 218 270 329 398
#     4  10  20  37  58  85 126 173 221 271 324 391
#     4  10  19  36  62  92 125 162 210 266 322 382
#
# _framework density 21.261061999999999
#
# number of rings (size 3 to 8) (size 9 to 14) (size 15 to 20)
#    0.000    2.000    2.500    2.250    0.000    4.500 
#    0.000    0.000    0.000    4.500    0.000   14.000 
#    0.000    1.000    0.000    0.000    0.000    0.000 
#
# Total GULP energy -178907.963165 kJ/mol
# GULP energy per Si atom -5590.873849 kJ/mol
# Density = 2.121267 g / cm^3
# Si number density = 21.261062 Si / 1000 Ang^3
#
#
#
# Elastic Constant Matrix: (Units=GPa)
#
#
# Indices 1 2 3 4 5 6 
#
# 1 140.3570 48.8709 19.2228 0.0000 0.0000 0.0000
# 2 48.8709 183.8952 69.9872 -0.0001 0.0000 0.0000
# 3 19.2228 69.9872 104.5975 -0.0003 -0.0001 -0.0002
# 4 0.0000 -0.0001 -0.0003 22.6707 -0.0001 0.0000
# 5 0.0000 0.0000 -0.0001 -0.0001 14.1098 0.0000
# 6 0.0000 0.0000 -0.0002 0.0000 0.0000 19.7786
#
#
#
# Elastic Compliance Matrix: (Units=1/GPa)
#
#
# Indices 1 2 3 4 5 6 
#
# 1 0.007851 -0.002063 -0.000063 0.000000 0.000000 0.000000
# 2 -0.002063 0.007838 -0.004865 0.000000 0.000000 0.000000
# 3 -0.000063 -0.004865 0.012827 0.000000 0.000000 0.000000
# 4 0.000000 0.000000 0.000000 0.044110 0.000000 0.000000
# 5 0.000000 0.000000 0.000000 0.000000 0.070873 0.000000
# 6 0.000000 0.000000 0.000000 0.000000 0.000000 0.050560
#
#
# Mechanical properties :
#
#
# Convention : Reuss Voigt Hill
#
# Bulk Modulus (GPa) = 68.79843 78.33461 73.56652
# Shear Modulus (GPa) = 23.48686 30.69641 27.09164
#
# Velocity S-wave (km/s) = 3.32729 3.80384 3.57352
# Velocity P-wave (km/s) = 6.86952 7.49776 7.19050
#
# Compressibility (1/GPa) = 0.01453521
#
# Stress axis : x y z
#
# Youngs Moduli (GPa) = 127.36432 127.58956 77.95864
#
# Poissons Ratio (x) = 0.26318 0.00489
# Poissons Ratio (y) = 0.26271 0.37928
# Poissons Ratio (z) = 0.00800 0.62074
#
# Static dielectric constant tensor:
#      x y z
#    x 1.803520 0.000000 0.000000 
#    y 0.000000 1.692560 0.000000 
#    z 0.000000 0.000000 1.769800 
# 
# From -- ./inp_files/21747.got.cif
#   From: 2010.05.17/outbox.cif.g08.bks.cpg/sg74_11_cif.got.tgz:21747.got - 2010.06.03 17:57:02.
