data_PCOD9536604
_publ_section_title
;
Structure prediction by ZEFSAII (Michael W. Deem and Ramdas Pophale) SiO2 
 PCOD9536604
Probable space group: I M M A
;
_chemical_formula_sum "Si O2"
_cell_formula_units_Z 36
_cell_length_a 15.887781
_cell_length_b 14.649238
_cell_length_c 6.450195
_cell_angle_alpha 90.000000
_cell_angle_beta 90.000000
_cell_angle_gamma 90.000000
_cell_volume 1501.243444
_symmetry_space_group_name_H-M "I M M A"
_symmetry_group_IT_number 74
_symmetry_cell_setting 'orthorhombic'
loop_
_space_group_symop_operation_xyz
x,y,z
-x,1/2-y,z
x,-y,-z
-x,1/2+y,-z
-x,-y,-z
x,1/2+y,-z
-x,y,z
x,1/2-y,z
1/2+x,1/2+y,1/2+z
1/2-x,-y,1/2+z
1/2+x,1/2-y,1/2-z
1/2-x,y,1/2-z
1/2-x,1/2-y,1/2-z
1/2+x,y,1/2-z
1/2-x,1/2+y,1/2+z
1/2+x,-y,1/2+z
loop_
_atom_site_type_symbol
_atom_site_label
_atom_site_fract_x
_atom_site_fract_y
_atom_site_fract_z
Si Si1 0.159983 0.567106 0.323426
Si Si2 0.179884 0.250000 0.419481
Si Si3 0.000000 0.750000 0.593861
Si Si4 0.500000 0.144971 0.683157
O O1 0.125456 0.500000 0.500000
O O2 0.250000 0.527777 0.250000
O O3 0.183357 0.662358 0.433920
O O4 0.087481 0.591100 0.154702
O O5 0.250000 0.250000 0.250000
O O6 0.089750 0.250000 0.303497
O O7 0.000000 0.834916 0.432863
O O8 0.500000 0.250000 0.602054
#
# Coordination Sequence:
#
# PCOD9536604 Si02
#       4
#    16   8   4   8
#     4  11  21  36  57  84 111 144 185 227 274 325
#     4  10  19  35  55  78 110 142 180 226 267 325
#     4   6  14  30  50  72  96 138 180 194 264 320
#     4   8  17  35  58  77 104 151 185 216 267 335
#
# _framework density 23.980119999999999
#
# number of rings (size 3 to 8) (size 9 to 14) (size 15 to 20)
#    0.667    1.778    2.222    2.667    0.000    0.000 
#    0.000    3.333    0.000    0.000    0.000    0.000 
#    0.000    0.000    0.000    0.000    0.000    0.000 
#
# Total GULP energy -100368.560048 kJ/mol
# GULP energy per Si atom -5576.031114 kJ/mol
# Density = 2.392554 g / cm^3
# Si number density = 23.980120 Si / 1000 Ang^3
#
#
#
# Elastic Constant Matrix: (Units=GPa)
#
#
# Indices 1 2 3 4 5 6 
#
# 1 178.5578 -28.7830 19.0748 0.0000 0.0000 0.0000
# 2 -28.7830 93.6244 8.7174 0.0000 0.0000 0.0000
# 3 19.0748 8.7174 33.7732 0.0000 0.0000 0.0000
# 4 0.0000 0.0000 0.0000 9.6671 0.0000 0.0000
# 5 0.0000 0.0000 0.0000 0.0000 30.1730 0.0000
# 6 0.0000 0.0000 0.0000 0.0000 0.0000 24.0486
#
#
#
# Elastic Compliance Matrix: (Units=1/GPa)
#
#
# Indices 1 2 3 4 5 6 
#
# 1 0.006437 0.002375 -0.004248 0.000000 0.000000 0.000000
# 2 0.002375 0.011820 -0.004392 0.000000 0.000000 0.000000
# 3 -0.004248 -0.004392 0.033142 0.000000 0.000000 0.000000
# 4 0.000000 0.000000 0.000000 0.103443 0.000000 0.000000
# 5 0.000000 0.000000 0.000000 0.000000 0.033142 0.000000
# 6 0.000000 0.000000 0.000000 0.000000 0.000000 0.041582
#
#
# Mechanical properties :
#
#
# Convention : Reuss Voigt Hill
#
# Bulk Modulus (GPa) = 25.72847 33.77486 29.75167
# Shear Modulus (GPa) = 19.60360 33.24082 26.42221
#
# Velocity S-wave (km/s) = 2.86229 3.72719 3.32300
# Velocity P-wave (km/s) = 4.65574 5.71294 5.21122
#
# Compressibility (1/GPa) = 0.03886744
#
# Stress axis : x y z
#
# Youngs Moduli (GPa) = 155.35075 84.60297 30.17281
#
# Poissons Ratio (x) = -0.20089 0.12819
# Poissons Ratio (y) = -0.36888 0.13252
# Poissons Ratio (z) = 0.66001 0.37158
#
# Static dielectric constant tensor:
#      x y z
#    x 2.100260 0.000000 0.000000 
#    y 0.000000 1.891470 0.000000 
#    z 0.000000 0.000000 1.974570 
# 
# From -- ./inp_files/7647.got.cif
#   From: 2010.05.17/outbox.cif.g08.bks.cpg/sg74_4_cif.got.tgz:7647.got - 2010.06.03 17:57:02.
