data_PCOD9536634
_publ_section_title
;
Structure prediction by ZEFSAII (Michael W. Deem and Ramdas Pophale) SiO2 
 PCOD9536634
Probable space group: I M M A
;
_chemical_formula_sum "Si O2"
_cell_formula_units_Z 88
_cell_length_a 29.124063
_cell_length_b 7.967421
_cell_length_c 17.318814
_cell_angle_alpha 90.000000
_cell_angle_beta 90.000000
_cell_angle_gamma 90.000000
_cell_volume 4018.721181
_symmetry_space_group_name_H-M "I M M A"
_symmetry_group_IT_number 74
_symmetry_cell_setting 'orthorhombic'
loop_
_space_group_symop_operation_xyz
x,y,z
-x,1/2-y,z
x,-y,-z
-x,1/2+y,-z
-x,-y,-z
x,1/2+y,-z
-x,y,z
x,1/2-y,z
1/2+x,1/2+y,1/2+z
1/2-x,-y,1/2+z
1/2+x,1/2-y,1/2-z
1/2-x,y,1/2-z
1/2-x,1/2-y,1/2-z
1/2+x,y,1/2-z
1/2-x,1/2+y,1/2+z
1/2+x,-y,1/2+z
loop_
_atom_site_type_symbol
_atom_site_label
_atom_site_fract_x
_atom_site_fract_y
_atom_site_fract_z
Si Si1 0.400073 0.452226 0.909926
Si Si2 0.180802 0.940481 0.698604
Si Si3 0.351970 0.555614 0.359370
Si Si4 0.449666 0.047149 0.590253
Si Si5 0.741830 0.950685 0.416466
Si Si6 0.000000 0.951475 0.409693
O O1 0.396093 0.250000 0.902904
O O2 0.359514 0.537240 0.863625
O O3 0.450504 0.507185 0.879016
O O4 0.397646 0.500000 0.000000
O O5 0.183844 0.750000 0.725760
O O6 0.166237 0.048517 0.772073
O O7 0.227151 0.987693 0.654115
O O8 0.355815 0.750000 0.383384
O O9 0.403082 0.483370 0.369227
O O10 0.310025 0.479700 0.408393
O O11 0.500000 0.985594 0.617852
O O12 0.450791 0.250000 0.597565
O O13 0.446014 0.000000 0.500000
O O14 0.740891 0.750000 0.411972
O O15 0.761260 0.000000 0.500000
O O16 0.000000 0.750000 0.404758
O O17 0.000000 0.000000 0.500000
#
# Coordination Sequence:
#
# PCOD9536634 Si02
#       6
#    16  16  16  16  16   8
#     4  10  19  35  57  81 110 145 190 239 289 345
#     4  12  25  39  56  82 116 155 194 239 291 344
#     4  10  22  40  60  85 119 156 193 237 292 348
#     4   9  18  35  61  91 121 154 192 236 285 341
#     4  11  23  40  63  88 115 150 193 242 291 347
#     4   8  16  30  52  78 102 136 179 228 281 332
#
# _framework density 21.897513
#
# number of rings (size 3 to 8) (size 9 to 14) (size 15 to 20)
#    0.000    1.818    0.000    4.364    0.000    5.091 
#    1.636    0.000    0.000    0.000    0.000    0.000 
#    0.000    0.000    0.000    0.000    0.000    0.000 
#
# Total GULP energy -245676.492277 kJ/mol
# GULP energy per Si atom -5583.556643 kJ/mol
# Density = 2.184767 g / cm^3
# Si number density = 21.897513 Si / 1000 Ang^3
#
#
#
# Elastic Constant Matrix: (Units=GPa)
#
#
# Indices 1 2 3 4 5 6 
#
# 1 176.5350 7.6761 33.3321 0.0000 0.0000 0.0000
# 2 7.6761 39.0570 -20.8496 0.0000 0.0000 0.0000
# 3 33.3321 -20.8496 52.8201 0.0000 0.0000 0.0000
# 4 0.0000 0.0000 0.0000 24.7538 0.0000 0.0000
# 5 0.0000 0.0000 0.0000 0.0000 -31.0060 0.0000
# 6 0.0000 0.0000 0.0000 0.0000 0.0000 -1.9791
#
#
#
# Elastic Compliance Matrix: (Units=1/GPa)
#
#
# Indices 1 2 3 4 5 6 
#
# 1 0.007071 -0.004779 -0.006348 0.000000 0.000000 0.000000
# 2 -0.004779 0.035669 0.017095 0.000000 0.000000 0.000000
# 3 -0.006348 0.017095 0.029686 0.000000 0.000000 0.000000
# 4 0.000000 0.000000 0.000000 0.040398 0.000000 0.000000
# 5 0.000000 0.000000 0.000000 0.000000 -0.032252 0.000000
# 6 0.000000 0.000000 0.000000 0.000000 0.000000 -0.505283
#
#
# Mechanical properties :
#
#
# Convention : Reuss Voigt Hill
#
# Bulk Modulus (GPa) = 11.85374 34.30326 23.07850
# Shear Modulus (GPa) = -12.23910 14.90397 1.33243
#
# Velocity S-wave (km/s) = -2.36673 2.61171 0.78090
# Velocity P-wave (km/s) = 1.42951 4.97936 3.37273
#
# Compressibility (1/GPa) = 0.08436155
#
# Stress axis : x y z
#
# Youngs Moduli (GPa) = 141.42139 28.03591 33.68556
#
# Poissons Ratio (x) = 0.13398 0.21385
# Poissons Ratio (y) = 0.67581 -0.57586
# Poissons Ratio (z) = 0.89781 -0.47927
#
# Static dielectric constant tensor:
#      x y z
#    x 1.873430 0.000000 0.000000 
#    y 0.000000 1.747070 0.000000 
#    z 0.000000 0.000000 1.766810 
# 
# From -- ./inp_files/47013.got.cif
#   From: 2010.05.17/outbox.cif.g08.bks.cpg/sg74_24_cif.got.tgz:47013.got - 2010.06.03 17:57:02.
