data_PCOD9536458
_publ_section_title
;
Structure prediction by ZEFSAII (Michael W. Deem and Ramdas Pophale) SiO2 
 PCOD9536458
Probable space group: I M M A
;
_chemical_formula_sum "Si O2"
_cell_formula_units_Z 72
_cell_length_a 15.306886
_cell_length_b 18.370899
_cell_length_c 13.433574
_cell_angle_alpha 90.000000
_cell_angle_beta 90.000000
_cell_angle_gamma 90.000000
_cell_volume 3777.537891
_symmetry_space_group_name_H-M "I M M A"
_symmetry_group_IT_number 74
_symmetry_cell_setting 'orthorhombic'
loop_
_space_group_symop_operation_xyz
x,y,z
-x,1/2-y,z
x,-y,-z
-x,1/2+y,-z
-x,-y,-z
x,1/2+y,-z
-x,y,z
x,1/2-y,z
1/2+x,1/2+y,1/2+z
1/2-x,-y,1/2+z
1/2+x,1/2-y,1/2-z
1/2-x,y,1/2-z
1/2-x,1/2-y,1/2-z
1/2+x,y,1/2-z
1/2-x,1/2+y,1/2+z
1/2+x,-y,1/2+z
loop_
_atom_site_type_symbol
_atom_site_label
_atom_site_fract_x
_atom_site_fract_y
_atom_site_fract_z
Si Si1 0.392970 0.750000 0.473376
Si Si2 0.400438 0.387175 0.655614
Si Si3 0.812732 0.593431 0.565906
Si Si4 0.256782 0.750000 0.868635
Si Si5 0.653443 0.500000 0.500000
Si Si6 0.394973 0.453956 0.858015
O O1 0.500000 0.750000 0.488423
O O2 0.364989 0.680209 0.407559
O O3 0.337226 0.750000 0.574709
O O4 0.500000 0.365978 0.677866
O O5 0.398492 0.456459 0.582986
O O6 0.361251 0.411689 0.760660
O O7 0.805859 0.676223 0.598514
O O8 0.716886 0.558157 0.553333
O O9 0.862951 0.537667 0.638893
O O10 0.858051 0.582848 0.458143
O O11 0.250000 0.750000 0.750000
O O12 0.500000 0.453364 0.859906
#
# Coordination Sequence:
#
# PCOD9536458 Si02
#       6
#     8  16  16   8   8  16
#     4  10  22  43  61  89 127 155 192 250 302 354
#     4  10  20  35  62  89 118 156 197 245 297 350
#     4  10  22  37  60  82 122 160 194 250 291 345
#     4  12  26  43  57  89 123 159 203 245 299 359
#     4  10  19  34  55  86 116 154 200 242 287 346
#     4   9  20  40  63  91 119 155 202 247 300 359
#
# _framework density 19.060034000000002
#
# number of rings (size 3 to 8) (size 9 to 14) (size 15 to 20)
#    0.000    2.222    2.222    1.667    3.111    3.556 
#    0.000    6.667    0.000    0.000    0.000    0.000 
#    0.000    0.000    0.000    0.000    0.000    0.000 
#
# Total GULP energy -200714.303965 kJ/mol
# GULP energy per Si atom -5575.397332 kJ/mol
# Density = 1.901665 g / cm^3
# Si number density = 19.060034 Si / 1000 Ang^3
#
#
#
# Elastic Constant Matrix: (Units=GPa)
#
#
# Indices 1 2 3 4 5 6 
#
# 1 60.4003 31.1802 28.5611 0.0000 0.0000 0.0000
# 2 31.1802 163.7585 71.9324 0.0000 0.0000 0.0000
# 3 28.5611 71.9324 126.2781 0.0000 0.0000 0.0000
# 4 0.0000 0.0000 0.0000 23.6262 0.0000 0.0000
# 5 0.0000 0.0000 0.0000 0.0000 3.0422 0.0000
# 6 0.0000 0.0000 0.0000 0.0000 0.0000 4.5189
#
#
#
# Elastic Compliance Matrix: (Units=1/GPa)
#
#
# Indices 1 2 3 4 5 6 
#
# 1 0.019183 -0.002330 -0.003012 0.000000 0.000000 0.000000
# 2 -0.002330 0.008427 -0.004274 0.000000 0.000000 0.000000
# 3 -0.003012 -0.004274 0.011035 0.000000 0.000000 0.000000
# 4 0.000000 0.000000 0.000000 0.042326 0.000000 0.000000
# 5 0.000000 0.000000 0.000000 0.000000 0.328706 0.000000
# 6 0.000000 0.000000 0.000000 0.000000 0.000000 0.221292
#
#
# Mechanical properties :
#
#
# Convention : Reuss Voigt Hill
#
# Bulk Modulus (GPa) = 51.50640 68.19826 59.85233
# Shear Modulus (GPa) = 7.61417 20.82169 14.21793
#
# Velocity S-wave (km/s) = 2.00088 3.30877 2.73418
# Velocity P-wave (km/s) = 5.69385 7.10322 6.43722
#
# Compressibility (1/GPa) = 0.01941506
#
# Stress axis : x y z
#
# Youngs Moduli (GPa) = 52.12976 118.66152 90.62406
#
# Poissons Ratio (x) = 0.27643 0.27293
# Poissons Ratio (y) = 0.12144 0.38729
# Poissons Ratio (z) = 0.15700 0.50711
#
# Static dielectric constant tensor:
#      x y z
#    x 1.688410 0.000000 0.000000 
#    y 0.000000 1.665330 0.000000 
#    z 0.000000 0.000000 1.672950 
# 
# From -- ./inp_files/31961.got.cif
#   From: 2010.05.17/outbox.cif.g08.bks.cpg/sg74_16_cif.got.tgz:31961.got - 2010.06.03 17:57:02.
