data_PCOD9536192
_publ_section_title
;
Structure prediction by ZEFSAII (Michael W. Deem and Ramdas Pophale) SiO2 
 PCOD9536192
Probable space group: I M M A
;
_chemical_formula_sum "Si O2"
_cell_formula_units_Z 128
_cell_length_a 16.699281
_cell_length_b 18.648244
_cell_length_c 23.979913
_cell_angle_alpha 90.000000
_cell_angle_beta 90.000000
_cell_angle_gamma 90.000000
_cell_volume 7467.639063
_symmetry_space_group_name_H-M "I M M A"
_symmetry_group_IT_number 74
_symmetry_cell_setting 'orthorhombic'
loop_
_space_group_symop_operation_xyz
x,y,z
-x,1/2-y,z
x,-y,-z
-x,1/2+y,-z
-x,-y,-z
x,1/2+y,-z
-x,y,z
x,1/2-y,z
1/2+x,1/2+y,1/2+z
1/2-x,-y,1/2+z
1/2+x,1/2-y,1/2-z
1/2-x,y,1/2-z
1/2-x,1/2-y,1/2-z
1/2+x,y,1/2-z
1/2-x,1/2+y,1/2+z
1/2+x,-y,1/2+z
loop_
_atom_site_type_symbol
_atom_site_label
_atom_site_fract_x
_atom_site_fract_y
_atom_site_fract_z
Si Si1 0.595627 0.975576 0.722547
Si Si2 0.664741 0.930039 0.377813
Si Si3 0.298425 0.978408 0.936662
Si Si4 0.214267 0.832306 0.938650
Si Si5 0.595769 0.042966 0.838815
Si Si6 0.286125 0.334544 0.812073
Si Si7 0.906370 0.830576 0.834950
Si Si8 0.088436 0.167032 0.962899
O O1 0.500000 0.986270 0.719580
O O2 0.612676 0.893206 0.708192
O O3 0.634330 0.025026 0.675018
O O4 0.620806 0.996598 0.784594
O O5 0.722366 0.867589 0.354921
O O6 0.597884 0.889898 0.413632
O O7 0.716381 0.982470 0.417068
O O8 0.280946 0.893498 0.933831
O O9 0.364085 0.007890 0.893250
O O10 0.317132 0.000000 0.000000
O O11 0.244218 0.750000 0.940443
O O12 0.152530 0.837864 0.887165
O O13 0.159755 0.844868 0.993387
O O14 0.500000 0.045406 0.843422
O O15 0.633770 0.120472 0.824716
O O16 0.297425 0.250000 0.819078
O O17 0.250000 0.346962 0.750000
O O18 0.897728 0.750000 0.812264
O O19 0.000000 0.838977 0.851993
O O20 0.094600 0.250000 0.943386
O O21 0.000000 0.159707 0.989153
#
# Coordination Sequence:
#
# PCOD9536192 Si02
#       8
#    16  16  16  16  16  16  16  16
#     4  10  19  33  53  80 113 150 183 222 275 332
#     4  11  19  33  53  79 114 145 183 227 270 329
#     4  11  22  38  58  82 105 141 191 238 287 330
#     4  10  19  34  52  77 112 149 190 231 274 325
#     4  10  23  41  61  82 110 145 185 234 285 333
#     4  10  20  35  57  83 112 146 180 219 269 326
#     4   9  17  30  50  77 111 150 186 221 267 328
#     4  10  20  32  48  75 115 158 190 220 269 332
#
# _framework density 17.140625
#
# number of rings (size 3 to 8) (size 9 to 14) (size 15 to 20)
#    0.000    1.875    3.750    1.125    0.000    2.000 
#    0.000    1.250    0.000    2.625    0.000    0.000 
#    0.000    0.000    0.000    0.000    0.000    0.000 
#
# Total GULP energy -356892.031832 kJ/mol
# GULP energy per Si atom -5576.437997 kJ/mol
# Density = 1.710161 g / cm^3
# Si number density = 17.140625 Si / 1000 Ang^3
#
#
#
# Elastic Constant Matrix: (Units=GPa)
#
#
# Indices 1 2 3 4 5 6 
#
# 1 48.0737 45.5268 27.9611 0.0000 0.0000 0.0000
# 2 45.5268 134.0020 60.4689 0.0000 0.0000 0.0000
# 3 27.9611 60.4689 105.3907 0.0000 0.0000 0.0000
# 4 0.0000 0.0000 0.0000 22.6445 0.0000 0.0000
# 5 0.0000 0.0000 0.0000 0.0000 17.8593 0.0000
# 6 0.0000 0.0000 0.0000 0.0000 0.0000 19.2337
#
#
#
# Elastic Compliance Matrix: (Units=1/GPa)
#
#
# Indices 1 2 3 4 5 6 
#
# 1 0.031346 -0.009307 -0.002977 0.000000 0.000000 0.000000
# 2 -0.009307 0.012833 -0.004894 0.000000 0.000000 0.000000
# 3 -0.002977 -0.004894 0.013086 0.000000 0.000000 0.000000
# 4 0.000000 0.000000 0.000000 0.044161 0.000000 0.000000
# 5 0.000000 0.000000 0.000000 0.000000 0.055993 0.000000
# 6 0.000000 0.000000 0.000000 0.000000 0.000000 0.051992
#
#
# Mechanical properties :
#
#
# Convention : Reuss Voigt Hill
#
# Bulk Modulus (GPa) = 43.64718 61.70889 52.67804
# Shear Modulus (GPa) = 19.88843 22.18148 21.03496
#
# Velocity S-wave (km/s) = 3.41003 3.60125 3.50694
# Velocity P-wave (km/s) = 6.40499 7.30559 6.87006
#
# Compressibility (1/GPa) = 0.02291099
#
# Stress axis : x y z
#
# Youngs Moduli (GPa) = 31.90177 77.92528 76.41680
#
# Poissons Ratio (x) = 0.72521 0.22747
# Poissons Ratio (y) = 0.29690 0.37397
# Poissons Ratio (z) = 0.09496 0.38135
#
# Static dielectric constant tensor:
#      x y z
#    x 1.569130 0.000000 0.000000 
#    y 0.000000 1.584700 0.000000 
#    z 0.000000 0.000000 1.573420 
# 
# From -- ./inp_files/61147.got.cif
#   From: 2010.05.17/outbox.cif.g08.bks.cpg/sg74_31_cif.got.tgz:61147.got - 2010.06.03 17:57:02.
