data_PCOD9536497
_publ_section_title
;
Structure prediction by ZEFSAII (Michael W. Deem and Ramdas Pophale) SiO2 
 PCOD9536497
Probable space group: I M M A
;
_chemical_formula_sum "Si O2"
_cell_formula_units_Z 88
_cell_length_a 9.608814
_cell_length_b 22.720254
_cell_length_c 21.740270
_cell_angle_alpha 90.000000
_cell_angle_beta 90.000000
_cell_angle_gamma 90.000000
_cell_volume 4746.220408
_symmetry_space_group_name_H-M "I M M A"
_symmetry_group_IT_number 74
_symmetry_cell_setting 'orthorhombic'
loop_
_space_group_symop_operation_xyz
x,y,z
-x,1/2-y,z
x,-y,-z
-x,1/2+y,-z
-x,-y,-z
x,1/2+y,-z
-x,y,z
x,1/2-y,z
1/2+x,1/2+y,1/2+z
1/2-x,-y,1/2+z
1/2+x,1/2-y,1/2-z
1/2-x,y,1/2-z
1/2-x,1/2-y,1/2-z
1/2+x,y,1/2-z
1/2-x,1/2+y,1/2+z
1/2+x,-y,1/2+z
loop_
_atom_site_type_symbol
_atom_site_label
_atom_site_fract_x
_atom_site_fract_y
_atom_site_fract_z
Si Si1 0.343585 0.550931 0.133301
Si Si2 0.339272 0.068079 0.058091
Si Si3 0.166871 0.876127 0.049565
Si Si4 0.343327 0.878370 0.663050
Si Si5 0.668305 0.750000 0.506182
Si Si6 0.833787 0.250000 0.148557
Si Si7 0.250000 0.523718 0.750000
O O1 0.500000 0.575058 0.133183
O O2 0.337741 0.498661 0.082518
O O3 0.233234 0.599937 0.112782
O O4 0.314544 0.518148 0.197803
O O5 0.500000 0.083183 0.043835
O O6 0.274910 0.103754 0.115020
O O7 0.236293 0.083636 0.003062
O O8 0.000000 0.881283 0.050237
O O9 0.206462 0.809542 0.029919
O O10 0.500000 0.876924 0.634925
O O11 0.303767 0.811836 0.681196
O O12 0.346068 0.929178 0.714174
O O13 0.500000 0.750000 0.509427
O O14 0.719667 0.750000 0.577370
O O15 0.000000 0.250000 0.143384
#
# Coordination Sequence:
#
# PCOD9536497 Si02
#       7
#    16  16  16  16   8   8   8
#     4  10  22  38  54  78 114 147 181 234 285 320
#     4  10  20  34  53  81 117 148 177 227 283 327
#     4  11  21  35  58  84 110 145 185 223 275 340
#     4  10  19  34  57  80 108 152 195 227 268 326
#     4   9  18  34  55  84 118 142 173 229 278 321
#     4   9  16  31  55  81 112 147 184 231 273 311
#     4  10  22  37  58  81 108 144 192 238 276 324
#
# _framework density 18.541070000000001
#
# number of rings (size 3 to 8) (size 9 to 14) (size 15 to 20)
#    0.000    2.000    1.818    2.182    0.000    7.636 
#    0.000    3.182    0.000    0.545    0.000    0.000 
#    0.000    0.000    0.000    0.000    0.000    0.000 
#
# Total GULP energy -245061.230112 kJ/mol
# GULP energy per Si atom -5569.573412 kJ/mol
# Density = 1.849887 g / cm^3
# Si number density = 18.541070 Si / 1000 Ang^3
#
#
#
# Elastic Constant Matrix: (Units=GPa)
#
#
# Indices 1 2 3 4 5 6 
#
# 1 100.5241 43.1057 37.5185 0.0000 0.0000 0.0000
# 2 43.1057 75.3696 57.4027 0.0000 0.0000 0.0000
# 3 37.5185 57.4027 84.6726 0.0000 0.0000 0.0000
# 4 0.0000 0.0000 0.0000 15.4034 0.0000 0.0000
# 5 0.0000 0.0000 0.0000 0.0000 10.6103 0.0000
# 6 0.0000 0.0000 0.0000 0.0000 0.0000 24.7409
#
#
#
# Elastic Compliance Matrix: (Units=1/GPa)
#
#
# Indices 1 2 3 4 5 6 
#
# 1 0.013274 -0.006434 -0.001520 0.000000 0.000000 0.000000
# 2 -0.006434 0.030551 -0.017860 0.000000 0.000000 0.000000
# 3 -0.001520 -0.017860 0.024592 0.000000 0.000000 0.000000
# 4 0.000000 0.000000 0.000000 0.064921 0.000000 0.000000
# 5 0.000000 0.000000 0.000000 0.000000 0.094248 0.000000
# 6 0.000000 0.000000 0.000000 0.000000 0.000000 0.040419
#
#
# Mechanical properties :
#
#
# Convention : Reuss Voigt Hill
#
# Bulk Modulus (GPa) = 59.56725 59.62446 59.59585
# Shear Modulus (GPa) = 15.37378 18.32022 16.84700
#
# Velocity S-wave (km/s) = 2.88266 3.14680 3.01762
# Velocity P-wave (km/s) = 6.57849 6.74025 6.65986
#
# Compressibility (1/GPa) = 0.01678775
#
# Stress axis : x y z
#
# Youngs Moduli (GPa) = 75.33422 32.73248 40.66400
#
# Poissons Ratio (x) = 0.21061 0.06180
# Poissons Ratio (y) = 0.48473 0.72627
# Poissons Ratio (z) = 0.11448 0.58461
#
# Static dielectric constant tensor:
#      x y z
#    x 1.647490 0.000000 0.000000 
#    y 0.000000 1.660640 0.000000 
#    z 0.000000 0.000000 1.689060 
# 
# From -- ./inp_files/57056.got.cif
#   From: 2010.05.17/outbox.cif.g08.bks.cpg/sg74_29_cif.got.tgz:57056.got - 2010.06.03 17:57:02.
