data_PCOD9536210
_publ_section_title
;
Structure prediction by ZEFSAII (Michael W. Deem and Ramdas Pophale) SiO2 
 PCOD9536210
Probable space group: I M M A
;
_chemical_formula_sum "Si O2"
_cell_formula_units_Z 64
_cell_length_a 14.760611
_cell_length_b 10.687452
_cell_length_c 17.879641
_cell_angle_alpha 90.000000
_cell_angle_beta 90.000000
_cell_angle_gamma 90.000000
_cell_volume 2820.572756
_symmetry_space_group_name_H-M "I M M A"
_symmetry_group_IT_number 74
_symmetry_cell_setting 'orthorhombic'
loop_
_space_group_symop_operation_xyz
x,y,z
-x,1/2-y,z
x,-y,-z
-x,1/2+y,-z
-x,-y,-z
x,1/2+y,-z
-x,y,z
x,1/2-y,z
1/2+x,1/2+y,1/2+z
1/2-x,-y,1/2+z
1/2+x,1/2-y,1/2-z
1/2-x,y,1/2-z
1/2-x,1/2-y,1/2-z
1/2+x,y,1/2-z
1/2-x,1/2+y,1/2+z
1/2+x,-y,1/2+z
loop_
_atom_site_type_symbol
_atom_site_label
_atom_site_fract_x
_atom_site_fract_y
_atom_site_fract_z
Si Si1 0.390025 0.013377 0.411798
Si Si2 0.110654 0.501072 0.414052
Si Si3 0.389969 0.750000 0.338957
Si Si4 0.389239 0.250000 0.831741
Si Si5 0.899305 0.250000 0.339467
Si Si6 0.331822 0.750000 0.686361
O O1 0.500000 0.029580 0.405277
O O2 0.345176 0.128418 0.366322
O O3 0.369398 0.000000 0.500000
O O4 0.363280 0.880064 0.376639
O O5 0.138390 0.500000 0.500000
O O6 0.141648 0.625903 0.373451
O O7 0.142256 0.377157 0.371235
O O8 0.000000 0.504460 0.412137
O O9 0.500000 0.750000 0.340772
O O10 0.360516 0.750000 0.253472
O O11 0.500000 0.250000 0.832596
O O12 0.907498 0.250000 0.250816
O O13 0.000000 0.250000 0.373216
O O14 0.250000 0.750000 0.750000
#
# Coordination Sequence:
#
# PCOD9536210 Si02
#       6
#    16  16   8   8   8   8
#     4  10  20  38  67  98 125 160 216 285 342 389
#     4   9  16  26  43  69  99 133 178 230 280 331
#     4   9  17  30  54  89 118 143 190 260 332 384
#     4   9  15  23  37  62  98 131 160 212 285 351
#     4  10  19  33  54  77 105 147 199 256 308 364
#     4  12  25  40  58  90 133 173 208 254 337 431
#
# _framework density 22.690428000000001
#
# number of rings (size 3 to 8) (size 9 to 14) (size 15 to 20)
#    0.000    2.250    0.000    4.125    0.000    9.000 
#    0.000    1.875    0.000    0.000    0.000    0.000 
#    0.000    0.000    0.000    0.000    0.000    0.000 
#
# Total GULP energy -178707.913586 kJ/mol
# GULP energy per Si atom -5584.622300 kJ/mol
# Density = 2.263878 g / cm^3
# Si number density = 22.690428 Si / 1000 Ang^3
#
#
#
# Elastic Constant Matrix: (Units=GPa)
#
#
# Indices 1 2 3 4 5 6 
#
# 1 109.4995 28.1889 24.7557 0.0000 0.0000 0.0000
# 2 28.1889 294.6672 175.1089 0.0000 0.0000 0.0000
# 3 24.7557 175.1089 252.0381 0.0000 0.0000 0.0000
# 4 0.0000 0.0000 0.0000 55.9619 0.0000 0.0000
# 5 0.0000 0.0000 0.0000 0.0000 4.3501 0.0000
# 6 0.0000 0.0000 0.0000 0.0000 0.0000 -11.2646
#
#
#
# Elastic Compliance Matrix: (Units=1/GPa)
#
#
# Indices 1 2 3 4 5 6 
#
# 1 0.009401 -0.000597 -0.000509 0.000000 0.000000 0.000000
# 2 -0.000597 0.005818 -0.003984 0.000000 0.000000 0.000000
# 3 -0.000509 -0.003984 0.006785 0.000000 0.000000 0.000000
# 4 0.000000 0.000000 0.000000 0.017869 0.000000 0.000000
# 5 0.000000 0.000000 0.000000 0.000000 0.229880 0.000000
# 6 0.000000 0.000000 0.000000 0.000000 0.000000 -0.088773
#
#
# Mechanical properties :
#
#
# Convention : Reuss Voigt Hill
#
# Bulk Modulus (GPa) = 84.55939 123.59021 104.07480
# Shear Modulus (GPa) = 25.62772 38.35289 31.99030
#
# Velocity S-wave (km/s) = 3.36438 4.11575 3.75888
# Velocity P-wave (km/s) = 7.24151 8.78476 8.05020
#
# Compressibility (1/GPa) = 0.01182601
#
# Stress axis : x y z
#
# Youngs Moduli (GPa) = 106.36991 171.87851 147.37803
#
# Poissons Ratio (x) = 0.10264 0.07494
# Poissons Ratio (y) = 0.06352 0.58709
# Poissons Ratio (z) = 0.05409 0.68469
#
# Static dielectric constant tensor:
#      x y z
#    x 2.055430 0.000000 0.000000 
#    y 0.000000 1.772090 0.000000 
#    z 0.000000 0.000000 1.724990 
# 
# From -- ./inp_files/33653.got.cif
#   From: 2010.05.17/outbox.cif.g08.bks.cpg/sg74_17_cif.got.tgz:33653.got - 2010.06.03 17:57:02.
