data_PCOD9536452
_publ_section_title
;
Structure prediction by ZEFSAII (Michael W. Deem and Ramdas Pophale) SiO2 
 PCOD9536452
Probable space group: I M M A
;
_chemical_formula_sum "Si O2"
_cell_formula_units_Z 96
_cell_length_a 20.336228
_cell_length_b 11.859905
_cell_length_c 22.297129
_cell_angle_alpha 90.000000
_cell_angle_beta 90.000000
_cell_angle_gamma 90.000000
_cell_volume 5377.749382
_symmetry_space_group_name_H-M "I M M A"
_symmetry_group_IT_number 74
_symmetry_cell_setting 'orthorhombic'
loop_
_space_group_symop_operation_xyz
x,y,z
-x,1/2-y,z
x,-y,-z
-x,1/2+y,-z
-x,-y,-z
x,1/2+y,-z
-x,y,z
x,1/2-y,z
1/2+x,1/2+y,1/2+z
1/2-x,-y,1/2+z
1/2+x,1/2-y,1/2-z
1/2-x,y,1/2-z
1/2-x,1/2-y,1/2-z
1/2+x,y,1/2-z
1/2-x,1/2+y,1/2+z
1/2+x,-y,1/2+z
loop_
_atom_site_type_symbol
_atom_site_label
_atom_site_fract_x
_atom_site_fract_y
_atom_site_fract_z
Si Si1 0.289103 0.750000 0.145623
Si Si2 0.799411 0.121151 0.087701
Si Si3 0.711758 0.750000 0.478139
Si Si4 0.571063 0.250000 0.816479
Si Si5 0.926538 0.250000 0.920911
Si Si6 0.714807 0.997788 0.811861
Si Si7 0.426015 0.003015 0.767649
Si Si8 0.074382 0.997673 0.127323
O O1 0.249376 0.750000 0.083986
O O2 0.368109 0.750000 0.138416
O O3 0.275439 0.633062 0.179991
O O4 0.810410 0.250000 0.109698
O O5 0.868280 0.056170 0.090134
O O6 0.749074 0.059678 0.131514
O O7 0.773898 0.142232 0.020217
O O8 0.633655 0.750000 0.466566
O O9 0.500000 0.250000 0.847101
O O10 0.574630 0.361305 0.775897
O O11 0.920539 0.363260 0.881955
O O12 0.000000 0.250000 0.948063
O O13 0.750000 0.964350 0.750000
O O14 0.637768 0.966689 0.805180
O O15 0.500000 0.965010 0.785350
O O16 0.416334 0.975794 0.697662
O O17 0.000000 0.030939 0.109907
#
# Coordination Sequence:
#
# PCOD9536452 Si02
#       8
#     8  16   8   8   8  16  16  16
#     4  10  21  33  58  88 112 134 175 236 284 341
#     4  10  24  40  52  74 105 159 195 229 261 322
#     4  10  24  40  52  74 111 152 202 223 271 320
#     4   8  15  29  51  82 117 139 155 206 287 358
#     4  10  21  34  56  83 109 144 187 237 282 319
#     4  11  20  35  58  86 111 138 178 231 290 333
#     4   9  17  30  51  82 114 139 168 211 279 344
#     4  10  19  34  55  82 112 144 184 231 279 324
#
# _framework density 17.851334000000001
#
# number of rings (size 3 to 8) (size 9 to 14) (size 15 to 20)
#    0.500    1.667    1.667    1.750    0.000    6.000 
#    0.000    1.667    0.000    1.500    0.000    4.667 
#    0.000    0.000    0.000    0.000    0.000    0.000 
#
# Total GULP energy -267423.445997 kJ/mol
# GULP energy per Si atom -5571.321792 kJ/mol
# Density = 1.781070 g / cm^3
# Si number density = 17.851334 Si / 1000 Ang^3
#
#
#
# Elastic Constant Matrix: (Units=GPa)
#
#
# Indices 1 2 3 4 5 6 
#
# 1 78.4295 8.6348 34.0415 0.0000 0.0000 0.0000
# 2 8.6348 33.6627 -6.9504 0.0000 0.0000 0.0000
# 3 34.0415 -6.9504 62.1776 0.0000 0.0000 0.0000
# 4 0.0000 0.0000 0.0000 25.6279 0.0000 0.0000
# 5 0.0000 0.0000 0.0000 0.0000 22.5450 0.0000
# 6 0.0000 0.0000 0.0000 0.0000 0.0000 -4.6563
#
#
#
# Elastic Compliance Matrix: (Units=1/GPa)
#
#
# Indices 1 2 3 4 5 6 
#
# 1 0.018153 -0.006867 -0.010706 0.000000 0.000000 0.000000
# 2 -0.006867 0.033006 0.007449 0.000000 0.000000 0.000000
# 3 -0.010706 0.007449 0.022777 0.000000 0.000000 0.000000
# 4 0.000000 0.000000 0.000000 0.039020 0.000000 0.000000
# 5 0.000000 0.000000 0.000000 0.000000 0.044356 0.000000
# 6 0.000000 0.000000 0.000000 0.000000 0.000000 -0.214763
#
#
# Mechanical properties :
#
#
# Convention : Reuss Voigt Hill
#
# Bulk Modulus (GPa) = 18.62611 27.30238 22.96424
# Shear Modulus (GPa) = -258.98152 17.93958 -120.52097
#
# Velocity S-wave (km/s) = -12.05785 3.17352 -8.22559
# Velocity P-wave (km/s) = 13.54249 5.36245 8.79327
#
# Compressibility (1/GPa) = 0.05368808
#
# Stress axis : x y z
#
# Youngs Moduli (GPa) = 55.08631 30.29752 43.90343
#
# Poissons Ratio (x) = 0.20805 0.47005
# Poissons Ratio (y) = 0.37828 -0.32704
# Poissons Ratio (z) = 0.58977 -0.22569
#
# Static dielectric constant tensor:
#      x y z
#    x 1.640990 0.000000 0.000000 
#    y 0.000000 1.628230 0.000000 
#    z 0.000000 0.000000 1.591710 
# 
# From -- ./inp_files/53938.got.cif
#   From: 2010.05.17/outbox.cif.g08.bks.cpg/sg74_27_cif.got.tgz:53938.got - 2010.06.03 17:57:02.
