data_PCOD9536888
_publ_section_title
;
Structure prediction by ZEFSAII (Michael W. Deem and Ramdas Pophale) SiO2 
 PCOD9536888
Probable space group: I M M A
;
_chemical_formula_sum "Si O2"
_cell_formula_units_Z 84
_cell_length_a 23.569601
_cell_length_b 21.533415
_cell_length_c 8.394388
_cell_angle_alpha 90.000000
_cell_angle_beta 90.000000
_cell_angle_gamma 90.000000
_cell_volume 4260.437317
_symmetry_space_group_name_H-M "I M M A"
_symmetry_group_IT_number 74
_symmetry_cell_setting 'orthorhombic'
loop_
_space_group_symop_operation_xyz
x,y,z
-x,1/2-y,z
x,-y,-z
-x,1/2+y,-z
-x,-y,-z
x,1/2+y,-z
-x,y,z
x,1/2-y,z
1/2+x,1/2+y,1/2+z
1/2-x,-y,1/2+z
1/2+x,1/2-y,1/2-z
1/2-x,y,1/2-z
1/2-x,1/2-y,1/2-z
1/2+x,y,1/2-z
1/2-x,1/2+y,1/2+z
1/2+x,-y,1/2+z
loop_
_atom_site_type_symbol
_atom_site_label
_atom_site_fract_x
_atom_site_fract_y
_atom_site_fract_z
Si Si1 0.373105 0.750000 0.859295
Si Si2 0.377276 0.504439 0.191514
Si Si3 0.500000 0.368931 0.363754
Si Si4 0.000000 0.750000 0.636158
Si Si5 0.373315 0.628275 0.636627
Si Si6 0.686318 0.623034 0.314587
Si Si7 0.500000 0.500546 0.810035
Si Si8 0.185250 0.750000 0.319630
O O1 0.436735 0.750000 0.940174
O O2 0.368893 0.688250 0.750670
O O3 0.324006 0.750000 0.991458
O O4 0.368504 0.436132 0.265362
O O5 0.337225 0.557429 0.256764
O O6 0.440504 0.526772 0.241825
O O7 0.373710 0.500000 0.000000
O O8 0.500000 0.309563 0.250046
O O9 0.437199 0.369772 0.441350
O O10 0.500000 0.429328 0.251788
O O11 0.325283 0.628367 0.502109
O O12 0.750000 0.624118 0.250000
O O13 0.658609 0.685594 0.241883
O O14 0.500000 0.500000 0.000000
O O15 0.250000 0.750000 0.250000
#
# Coordination Sequence:
#
# PCOD9536888 Si02
#       8
#     8  16   8   4  16  16   8   8
#     4  10  19  39  66  91 119 154 192 237 294 352
#     4  10  20  36  59  88 118 153 191 235 288 348
#     4   8  16  31  55  88 119 146 185 229 284 355
#     4   8  16  30  58  94 122 142 178 234 292 352
#     4  10  20  37  62  90 119 155 190 236 296 351
#     4  11  24  41  57  81 116 152 197 250 290 337
#     4   8  16  31  53  81 117 151 185 225 280 349
#     4  10  23  44  61  80 113 154 199 245 284 340
#
# _framework density 19.716284000000002
#
# number of rings (size 3 to 8) (size 9 to 14) (size 15 to 20)
#    0.000    2.286    0.000    2.286    0.000    3.810 
#    0.000   15.238    0.000    0.000    0.000    0.000 
#    0.000    0.000    0.000    0.000    0.000    0.000 
#
# Total GULP energy -233838.121945 kJ/mol
# GULP energy per Si atom -5567.574332 kJ/mol
# Density = 1.967141 g / cm^3
# Si number density = 19.716284 Si / 1000 Ang^3
#
#
#
# Elastic Constant Matrix: (Units=GPa)
#
#
# Indices 1 2 3 4 5 6 
#
# 1 94.1401 44.2349 48.9620 0.0000 0.0000 0.0000
# 2 44.2349 127.7330 41.8286 0.0000 0.0000 0.0000
# 3 48.9620 41.8286 96.3359 0.0000 0.0000 0.0000
# 4 0.0000 0.0000 0.0000 31.6624 0.0000 0.0000
# 5 0.0000 0.0000 0.0000 0.0000 0.2392 0.0000
# 6 0.0000 0.0000 0.0000 0.0000 0.0000 17.1941
#
#
#
# Elastic Compliance Matrix: (Units=1/GPa)
#
#
# Indices 1 2 3 4 5 6 
#
# 1 0.015519 -0.003254 -0.006474 0.000000 0.000000 0.000000
# 2 -0.003254 0.009809 -0.002605 0.000000 0.000000 0.000000
# 3 -0.006474 -0.002605 0.014802 0.000000 0.000000 0.000000
# 4 0.000000 0.000000 0.000000 0.031583 0.000000 0.000000
# 5 0.000000 0.000000 0.000000 0.000000 4.181197 0.000000
# 6 0.000000 0.000000 0.000000 0.000000 0.000000 0.058159
#
#
# Mechanical properties :
#
#
# Convention : Reuss Voigt Hill
#
# Bulk Modulus (GPa) = 64.67259 65.36222 65.01741
# Shear Modulus (GPa) = 1.15184 22.03139 11.59161
#
# Velocity S-wave (km/s) = 0.76516 3.34641 2.42734
# Velocity P-wave (km/s) = 5.80116 6.93935 6.39563
#
# Compressibility (1/GPa) = 0.01546250
#
# Stress axis : x y z
#
# Youngs Moduli (GPa) = 64.43779 101.94887 67.55835
#
# Poissons Ratio (x) = 0.33175 0.43740
# Poissons Ratio (y) = 0.20969 0.17599
# Poissons Ratio (z) = 0.41720 0.26558
#
# Static dielectric constant tensor:
#      x y z
#    x 1.782060 0.000000 0.000000 
#    y 0.000000 1.651170 0.000000 
#    z 0.000000 0.000000 1.698130 
# 
# From -- ./inp_files/13711.got.cif
#   From: 2010.05.17/outbox.cif.g08.bks.cpg/sg74_7_cif.got.tgz:13711.got - 2010.06.03 17:57:02.
