data_PCOD9536233
_publ_section_title
;
Structure prediction by ZEFSAII (Michael W. Deem and Ramdas Pophale) SiO2 
 PCOD9536233
Probable space group: I M M A
;
_chemical_formula_sum "Si O2"
_cell_formula_units_Z 56
_cell_length_a 15.773692
_cell_length_b 7.814119
_cell_length_c 25.846886
_cell_angle_alpha 90.000000
_cell_angle_beta 90.000000
_cell_angle_gamma 90.000000
_cell_volume 3185.822715
_symmetry_space_group_name_H-M "I M M A"
_symmetry_group_IT_number 74
_symmetry_cell_setting 'orthorhombic'
loop_
_space_group_symop_operation_xyz
x,y,z
-x,1/2-y,z
x,-y,-z
-x,1/2+y,-z
-x,-y,-z
x,1/2+y,-z
-x,y,z
x,1/2-y,z
1/2+x,1/2+y,1/2+z
1/2-x,-y,1/2+z
1/2+x,1/2-y,1/2-z
1/2-x,y,1/2-z
1/2-x,1/2-y,1/2-z
1/2+x,y,1/2-z
1/2-x,1/2+y,1/2+z
1/2+x,-y,1/2+z
loop_
_atom_site_type_symbol
_atom_site_label
_atom_site_fract_x
_atom_site_fract_y
_atom_site_fract_z
Si Si1 0.908560 0.250000 0.627186
Si Si2 0.669184 0.944683 0.621796
Si Si3 0.500000 0.454068 0.560824
Si Si4 0.344020 0.552729 0.940342
Si Si5 0.234229 0.750000 0.189144
O O1 0.899137 0.417635 0.591476
O O2 0.827922 0.250000 0.664268
O O3 0.000000 0.250000 0.653471
O O4 0.669184 0.750000 0.641790
O O5 0.748732 0.961921 0.582558
O O6 0.583522 0.977498 0.589830
O O7 0.685162 0.084393 0.666431
O O8 0.500000 0.250000 0.565011
O O9 0.500000 0.500000 0.500000
O O10 0.371097 0.750000 0.934592
O O11 0.344086 0.500000 0.000000
O O12 0.250000 0.750000 0.250000
#
# Coordination Sequence:
#
# PCOD9536233 Si02
#       5
#     8  16   8  16   8
#     4  10  22  38  55  81 114 142 189 238 280 338
#     4  10  21  37  58  85 121 155 200 243 287 358
#     4  12  22  34  56  93 133 168 195 243 298 368
#     4  10  19  33  54  80 113 157 187 220 275 341
#     4  10  22  43  64  84 109 154 202 252 302 345
#
# _framework density 17.577877999999998
#
# number of rings (size 3 to 8) (size 9 to 14) (size 15 to 20)
#    0.000    1.714    2.857    2.143    0.000    4.000 
#    2.571    0.000    0.000    0.000    0.000    0.000 
#    0.000    0.000    0.000    0.000    0.000    0.000 
#
# Total GULP energy -156298.255113 kJ/mol
# GULP energy per Si atom -5582.080540 kJ/mol
# Density = 1.753787 g / cm^3
# Si number density = 17.577878 Si / 1000 Ang^3
#
#
#
# Elastic Constant Matrix: (Units=GPa)
#
#
# Indices 1 2 3 4 5 6 
#
# 1 101.7847 47.4352 32.1208 0.0000 0.0000 0.0000
# 2 47.4352 154.3604 58.1244 0.0000 0.0000 0.0000
# 3 32.1208 58.1244 124.3078 0.0000 0.0000 0.0000
# 4 0.0000 0.0000 0.0000 15.3938 0.0000 0.0000
# 5 0.0000 0.0000 0.0000 0.0000 11.4579 0.0000
# 6 0.0000 0.0000 0.0000 0.0000 0.0000 -22.7032
#
#
#
# Elastic Compliance Matrix: (Units=1/GPa)
#
#
# Indices 1 2 3 4 5 6 
#
# 1 0.011734 -0.002991 -0.001634 0.000000 0.000000 0.000000
# 2 -0.002991 0.008625 -0.003260 0.000000 0.000000 0.000000
# 3 -0.001634 -0.003260 0.009991 0.000000 0.000000 0.000000
# 4 0.000000 0.000000 0.000000 0.064961 0.000000 0.000000
# 5 0.000000 0.000000 0.000000 0.000000 0.087276 0.000000
# 6 0.000000 0.000000 0.000000 0.000000 0.000000 -0.044047
#
#
# Mechanical properties :
#
#
# Convention : Reuss Voigt Hill
#
# Bulk Modulus (GPa) = 68.58191 72.86818 70.72504
# Shear Modulus (GPa) = 31.41304 17.01455 24.21380
#
# Velocity S-wave (km/s) = 4.23197 3.11457 3.71552
# Velocity P-wave (km/s) = 7.93600 7.38096 7.66351
#
# Compressibility (1/GPa) = 0.01458110
#
# Stress axis : x y z
#
# Youngs Moduli (GPa) = 85.22263 115.94204 100.08963
#
# Poissons Ratio (x) = 0.34675 0.16351
# Poissons Ratio (y) = 0.25488 0.32630
# Poissons Ratio (z) = 0.13922 0.37798
#
# Static dielectric constant tensor:
#      x y z
#    x 1.593510 0.000000 0.000000 
#    y 0.000000 1.617740 0.000000 
#    z 0.000000 0.000000 1.548910 
# 
# From -- ./inp_files/47891.got.cif
#   From: 2010.05.17/outbox.cif.g08.bks.cpg/sg74_24_cif.got.tgz:47891.got - 2010.06.03 17:57:02.
