data_PCOD9536405
_publ_section_title
;
Structure prediction by ZEFSAII (Michael W. Deem and Ramdas Pophale) SiO2 
 PCOD9536405
Probable space group: I M M A
;
_chemical_formula_sum "Si O2"
_cell_formula_units_Z 72
_cell_length_a 15.925262
_cell_length_b 8.305197
_cell_length_c 27.591526
_cell_angle_alpha 90.000000
_cell_angle_beta 90.000000
_cell_angle_gamma 90.000000
_cell_volume 3649.322502
_symmetry_space_group_name_H-M "I M M A"
_symmetry_group_IT_number 74
_symmetry_cell_setting 'orthorhombic'
loop_
_space_group_symop_operation_xyz
x,y,z
-x,1/2-y,z
x,-y,-z
-x,1/2+y,-z
-x,-y,-z
x,1/2+y,-z
-x,y,z
x,1/2-y,z
1/2+x,1/2+y,1/2+z
1/2-x,-y,1/2+z
1/2+x,1/2-y,1/2-z
1/2-x,y,1/2-z
1/2-x,1/2-y,1/2-z
1/2+x,y,1/2-z
1/2-x,1/2+y,1/2+z
1/2+x,-y,1/2+z
loop_
_atom_site_type_symbol
_atom_site_label
_atom_site_fract_x
_atom_site_fract_y
_atom_site_fract_z
Si Si1 0.668366 0.555265 0.279728
Si Si2 0.500000 0.057244 0.115274
Si Si3 0.000000 0.055386 0.944729
Si Si4 0.839179 0.057186 0.555176
Si Si5 0.669757 0.553212 0.391429
Si Si6 0.000000 0.057140 0.273384
O O1 0.669333 0.750000 0.279939
O O2 0.750000 0.499469 0.250000
O O3 0.672195 0.501043 0.335538
O O4 0.583114 0.501223 0.254065
O O5 0.500000 0.250000 0.115917
O O6 0.500000 0.998297 0.170876
O O7 0.582356 0.999874 0.086920
O O8 0.084160 0.000234 0.917377
O O9 0.000000 0.250000 0.943780
O O10 0.000000 0.000000 0.000000
O O11 0.838483 0.250000 0.555343
O O12 0.752040 0.999728 0.579309
O O13 0.846504 0.000000 0.500000
O O14 0.669918 0.750000 0.391511
O O15 0.000000 0.250000 0.273984
#
# Coordination Sequence:
#
# PCOD9536405 Si02
#       6
#    16   8   8  16  16   8
#     4  10  20  37  62  87 111 146 193 237 279 336
#     4  11  24  41  58  80 113 152 191 232 283 340
#     4  10  19  34  54  77 109 144 179 220 267 319
#     4  11  22  38  60  86 115 148 189 234 283 336
#     4   9  19  35  57  84 113 146 183 227 276 327
#     4  11  24  39  57  85 120 154 187 234 296 349
#
# _framework density 19.729690000000002
#
# number of rings (size 3 to 8) (size 9 to 14) (size 15 to 20)
#    0.000    1.778    0.000    4.333    0.000    5.778 
#    0.000    5.556    0.000    0.000    0.000    0.000 
#    0.000    0.000    0.000    0.000    0.000    0.000 
#
# Total GULP energy -201258.236898 kJ/mol
# GULP energy per Si atom -5590.506580 kJ/mol
# Density = 1.968478 g / cm^3
# Si number density = 19.729690 Si / 1000 Ang^3
#
#
#
# Elastic Constant Matrix: (Units=GPa)
#
#
# Indices 1 2 3 4 5 6 
#
# 1 106.0964 -0.6455 10.2368 0.0000 0.0000 0.0000
# 2 -0.6455 18.1687 -0.0726 0.0000 0.0000 0.0000
# 3 10.2368 -0.0726 104.0843 0.0000 0.0000 0.0000
# 4 0.0000 0.0000 0.0000 27.0485 0.0000 0.0000
# 5 0.0000 0.0000 0.0000 0.0000 48.0584 0.0000
# 6 0.0000 0.0000 0.0000 0.0000 0.0000 -10.1458
#
#
#
# Elastic Compliance Matrix: (Units=1/GPa)
#
#
# Indices 1 2 3 4 5 6 
#
# 1 0.009518 0.000334 -0.000936 0.000000 0.000000 0.000000
# 2 0.000334 0.055052 0.000005 0.000000 0.000000 0.000000
# 3 -0.000936 0.000005 0.009700 0.000000 0.000000 0.000000
# 4 0.000000 0.000000 0.000000 0.036971 0.000000 0.000000
# 5 0.000000 0.000000 0.000000 0.000000 0.020808 0.000000
# 6 0.000000 0.000000 0.000000 0.000000 0.000000 -0.098563
#
#
# Mechanical properties :
#
#
# Convention : Reuss Voigt Hill
#
# Bulk Modulus (GPa) = 13.68416 27.48743 20.58580
# Shear Modulus (GPa) = 84.69459 27.58094 56.13776
#
# Velocity S-wave (km/s) = 6.55901 3.74296 5.33996
# Velocity P-wave (km/s) = 8.01946 5.71331 6.96253
#
# Compressibility (1/GPa) = 0.07307719
#
# Stress axis : x y z
#
# Youngs Moduli (GPa) = 105.06718 18.16473 103.09663
#
# Poissons Ratio (x) = -0.00607 0.09648
# Poissons Ratio (y) = -0.03513 -0.00057
# Poissons Ratio (z) = 0.09833 -0.00010
#
# Static dielectric constant tensor:
#      x y z
#    x 1.656390 0.000000 0.000000 
#    y 0.000000 1.689540 0.000000 
#    z 0.000000 0.000000 1.662890 
# 
# From -- ./inp_files/63655.got.cif
#   From: 2010.05.17/outbox.cif.g08.bks.cpg/sg74_32_cif.got.tgz:63655.got - 2010.06.03 17:57:02.
