data_PCOD9536130
_publ_section_title
;
Structure prediction by ZEFSAII (Michael W. Deem and Ramdas Pophale) SiO2 
 PCOD9536130
Probable space group: I M M A
;
_chemical_formula_sum "Si O2"
_cell_formula_units_Z 96
_cell_length_a 8.847047
_cell_length_b 31.014176
_cell_length_c 20.350699
_cell_angle_alpha 90.000000
_cell_angle_beta 90.000000
_cell_angle_gamma 90.000000
_cell_volume 5583.903605
_symmetry_space_group_name_H-M "I M M A"
_symmetry_group_IT_number 74
_symmetry_cell_setting 'orthorhombic'
loop_
_space_group_symop_operation_xyz
x,y,z
-x,1/2-y,z
x,-y,-z
-x,1/2+y,-z
-x,-y,-z
x,1/2+y,-z
-x,y,z
x,1/2-y,z
1/2+x,1/2+y,1/2+z
1/2-x,-y,1/2+z
1/2+x,1/2-y,1/2-z
1/2-x,y,1/2-z
1/2-x,1/2-y,1/2-z
1/2+x,y,1/2-z
1/2-x,1/2+y,1/2+z
1/2+x,-y,1/2+z
loop_
_atom_site_type_symbol
_atom_site_label
_atom_site_fract_x
_atom_site_fract_y
_atom_site_fract_z
Si Si1 0.681278 0.957370 0.042883
Si Si2 0.180815 0.584515 0.818312
Si Si3 0.815354 0.200794 0.960717
Si Si4 0.827143 0.197413 0.816719
Si Si5 0.181217 0.017325 0.819780
Si Si6 0.683222 0.380431 0.457532
O O1 0.500000 0.955199 0.046879
O O2 0.750453 0.960666 0.115715
O O3 0.747352 0.916590 0.004535
O O4 0.721556 0.000000 0.000000
O O5 0.250000 0.599966 0.750000
O O6 0.219321 0.533796 0.826193
O O7 0.231251 0.609801 0.883049
O O8 0.000000 0.587212 0.814016
O O9 0.766473 0.250000 0.972735
O O10 0.761455 0.186015 0.888092
O O11 0.000000 0.201632 0.957121
O O12 0.772745 0.166405 0.015412
O O13 0.826087 0.250000 0.816041
O O14 0.750000 0.182364 0.750000
O O15 0.000000 0.182982 0.814842
O O16 0.250000 0.032039 0.750000
O O17 0.000000 0.021814 0.818803
O O18 0.500000 0.383836 0.460177
#
# Coordination Sequence:
#
# PCOD9536130 Si02
#       6
#    16  16  16  16  16  16
#     4  11  22  34  50  74 104 136 169 208 255 304
#     4   9  18  30  48  73  98 127 164 205 249 301
#     4   8  15  29  50  74  98 126 166 213 255 297
#     4   8  13  23  41  65  90 117 151 192 236 280
#     4  10  19  33  52  74 103 136 173 211 252 303
#     4  10  19  33  53  76 100 131 171 211 256 305
#
# _framework density 17.192273
#
# number of rings (size 3 to 8) (size 9 to 14) (size 15 to 20)
#    0.000    2.667    1.667    2.000    0.000    2.000 
#    0.000    1.667    0.000    4.000    0.000    0.000 
#    0.000    0.000    0.000    0.000    0.000    0.000 
#
# Total GULP energy -267533.295317 kJ/mol
# GULP energy per Si atom -5573.610319 kJ/mol
# Density = 1.715314 g / cm^3
# Si number density = 17.192273 Si / 1000 Ang^3
#
#
#
# Elastic Constant Matrix: (Units=GPa)
#
#
# Indices 1 2 3 4 5 6 
#
# 1 19.6169 18.8305 37.7975 0.0000 0.0000 0.0000
# 2 18.8305 68.2791 67.3818 0.0000 0.0000 0.0000
# 3 37.7975 67.3818 192.5494 0.0001 0.0000 0.0000
# 4 0.0000 0.0000 0.0001 25.0944 0.0000 0.0000
# 5 0.0000 0.0000 0.0000 0.0000 29.4488 0.0000
# 6 0.0000 0.0000 0.0000 0.0000 0.0000 9.3644
#
#
#
# Elastic Compliance Matrix: (Units=1/GPa)
#
#
# Indices 1 2 3 4 5 6 
#
# 1 0.086996 -0.010906 -0.013261 0.000000 0.000000 0.000000
# 2 -0.010906 0.023739 -0.006167 0.000000 0.000000 0.000000
# 3 -0.013261 -0.006167 0.009955 0.000000 0.000000 0.000000
# 4 0.000000 0.000000 0.000000 0.039850 0.000000 0.000000
# 5 0.000000 0.000000 0.000000 0.000000 0.033957 0.000000
# 6 0.000000 0.000000 0.000000 0.000000 0.000000 0.106788
#
#
# Mechanical properties :
#
#
# Convention : Reuss Voigt Hill
#
# Bulk Modulus (GPa) = 16.66025 58.71834 37.68929
# Shear Modulus (GPa) = 13.09044 23.21055 18.15050
#
# Velocity S-wave (km/s) = 2.76237 3.67830 3.25273
# Velocity P-wave (km/s) = 4.45935 7.22965 6.00640
#
# Compressibility (1/GPa) = 0.06002312
#
# Stress axis : x y z
#
# Youngs Moduli (GPa) = 11.49477 42.12493 100.45660
#
# Poissons Ratio (x) = 0.45940 1.33215
# Poissons Ratio (y) = 0.12536 0.61947
# Poissons Ratio (z) = 0.15243 0.25976
#
# Static dielectric constant tensor:
#      x y z
#    x 1.587460 0.000000 0.000000 
#    y 0.000000 1.579270 0.000000 
#    z 0.000000 0.000000 1.589010 
# 
# From -- ./inp_files/49032.got.cif
#   From: 2010.05.17/outbox.cif.g08.bks.cpg/sg74_25_cif.got.tgz:49032.got - 2010.06.03 17:57:02.
