data_PCOD9536913
_publ_section_title
;
Structure prediction by ZEFSAII (Michael W. Deem and Ramdas Pophale) SiO2 
 PCOD9536913
Probable space group: I M M A
;
_chemical_formula_sum "Si O2"
_cell_formula_units_Z 96
_cell_length_a 20.367657
_cell_length_b 18.591515
_cell_length_c 13.422883
_cell_angle_alpha 90.000000
_cell_angle_beta 90.000000
_cell_angle_gamma 90.000000
_cell_volume 5082.784053
_symmetry_space_group_name_H-M "I M M A"
_symmetry_group_IT_number 74
_symmetry_cell_setting 'orthorhombic'
loop_
_space_group_symop_operation_xyz
x,y,z
-x,1/2-y,z
x,-y,-z
-x,1/2+y,-z
-x,-y,-z
x,1/2+y,-z
-x,y,z
x,1/2-y,z
1/2+x,1/2+y,1/2+z
1/2-x,-y,1/2+z
1/2+x,1/2-y,1/2-z
1/2-x,y,1/2-z
1/2-x,1/2-y,1/2-z
1/2+x,y,1/2-z
1/2-x,1/2+y,1/2+z
1/2+x,-y,1/2+z
loop_
_atom_site_type_symbol
_atom_site_label
_atom_site_fract_x
_atom_site_fract_y
_atom_site_fract_z
Si Si1 0.571156 0.033112 0.111484
Si Si2 0.073679 0.336262 0.729650
Si Si3 0.781267 0.478876 0.383861
Si Si4 0.403675 0.331381 0.996914
Si Si5 0.249850 0.330203 0.457491
Si Si6 0.297716 0.619359 0.334330
O O1 0.500000 0.014978 0.159153
O O2 0.643546 0.017453 0.156865
O O3 0.572702 0.117777 0.084788
O O4 0.570587 0.000000 0.000000
O O5 0.086032 0.250000 0.731293
O O6 0.077565 0.358233 0.613278
O O7 0.129498 0.374485 0.792470
O O8 0.000000 0.348926 0.765817
O O9 0.789293 0.500000 0.500000
O O10 0.750476 0.398685 0.383308
O O11 0.731244 0.539099 0.346480
O O12 0.426856 0.250000 0.006592
O O13 0.324986 0.331076 0.002309
O O14 0.263459 0.250000 0.417126
O O15 0.292041 0.344925 0.556884
O O16 0.250000 0.654212 0.250000
#
# Coordination Sequence:
#
# PCOD9536913 Si02
#       6
#    16  16  16  16  16  16
#     4   9  16  25  39  58  86 123 156 186 216 260
#     4  10  20  30  42  67 101 127 148 182 229 280
#     4   8  17  30  41  61  90 120 158 195 229 271
#     4   9  16  27  42  65  96 126 152 179 218 274
#     4   9  16  28  48  68  88 120 161 198 231 273
#     4  11  19  29  47  68  93 124 156 190 229 281
#
# _framework density 18.887287000000001
#
# number of rings (size 3 to 8) (size 9 to 14) (size 15 to 20)
#    0.000    2.667    1.667    2.000    0.000    1.667 
#    0.000    0.000    0.000    5.000    0.000    0.000 
#    0.000    0.000    0.000    0.000    0.000    0.167 
#
# Total GULP energy -267464.116726 kJ/mol
# GULP energy per Si atom -5572.169098 kJ/mol
# Density = 1.884430 g / cm^3
# Si number density = 18.887287 Si / 1000 Ang^3
#
#
#
# Elastic Constant Matrix: (Units=GPa)
#
#
# Indices 1 2 3 4 5 6 
#
# 1 126.6814 39.0171 24.8202 0.0000 0.0000 0.0000
# 2 39.0171 111.7932 9.7926 0.0000 0.0000 0.0000
# 3 24.8202 9.7926 20.7860 0.0000 0.0000 0.0000
# 4 0.0000 0.0000 0.0000 19.2415 0.0000 0.0000
# 5 0.0000 0.0000 0.0000 0.0000 -1.4952 0.0000
# 6 0.0000 0.0000 0.0000 0.0000 0.0000 13.2671
#
#
#
# Elastic Compliance Matrix: (Units=1/GPa)
#
#
# Indices 1 2 3 4 5 6 
#
# 1 0.011101 -0.002830 -0.011923 0.000000 0.000000 0.000000
# 2 -0.002830 0.010052 -0.001356 0.000000 0.000000 0.000000
# 3 -0.011923 -0.001356 0.062985 0.000000 0.000000 0.000000
# 4 0.000000 0.000000 0.000000 0.051971 0.000000 0.000000
# 5 0.000000 0.000000 0.000000 0.000000 -0.668806 0.000000
# 6 0.000000 0.000000 0.000000 0.000000 0.000000 0.075374
#
#
# Mechanical properties :
#
#
# Convention : Reuss Voigt Hill
#
# Bulk Modulus (GPa) = 19.26034 45.16892 32.21463
# Shear Modulus (GPa) = -12.26095 18.57807 3.15856
#
# Velocity S-wave (km/s) = -2.55063 3.13969 1.29459
# Velocity P-wave (km/s) = 1.24312 6.09183 4.39635
#
# Compressibility (1/GPa) = 0.05192016
#
# Stress axis : x y z
#
# Youngs Moduli (GPa) = 90.07819 99.48640 15.87683
#
# Poissons Ratio (x) = 0.28156 0.18930
# Poissons Ratio (y) = 0.25494 0.02153
# Poissons Ratio (z) = 1.07398 0.13490
#
# Static dielectric constant tensor:
#      x y z
#    x 1.686440 0.000000 0.000000 
#    y 0.000000 1.770710 0.000000 
#    z 0.000000 0.000000 1.652060 
# 
# From -- ./inp_files/35602.got.cif
#   From: 2010.05.17/outbox.cif.g08.bks.cpg/sg74_18_cif.got.tgz:35602.got - 2010.06.03 17:57:02.
