data_PCOD9536414
_publ_section_title
;
Structure prediction by ZEFSAII (Michael W. Deem and Ramdas Pophale) SiO2 
 PCOD9536414
Probable space group: I M M A
;
_chemical_formula_sum "Si O2"
_cell_formula_units_Z 104
_cell_length_a 23.377515
_cell_length_b 29.124675
_cell_length_c 8.382529
_cell_angle_alpha 90.000000
_cell_angle_beta 90.000000
_cell_angle_gamma 90.000000
_cell_volume 5707.349875
_symmetry_space_group_name_H-M "I M M A"
_symmetry_group_IT_number 74
_symmetry_cell_setting 'orthorhombic'
loop_
_space_group_symop_operation_xyz
x,y,z
-x,1/2-y,z
x,-y,-z
-x,1/2+y,-z
-x,-y,-z
x,1/2+y,-z
-x,y,z
x,1/2-y,z
1/2+x,1/2+y,1/2+z
1/2-x,-y,1/2+z
1/2+x,1/2-y,1/2-z
1/2-x,y,1/2-z
1/2-x,1/2-y,1/2-z
1/2+x,y,1/2-z
1/2-x,1/2+y,1/2+z
1/2+x,-y,1/2+z
loop_
_atom_site_type_symbol
_atom_site_label
_atom_site_fract_x
_atom_site_fract_y
_atom_site_fract_z
Si Si1 0.172529 0.635755 0.473112
Si Si2 0.932490 0.123116 0.741732
Si Si3 0.432653 0.803597 0.527401
Si Si4 0.758928 0.799378 0.941962
Si Si5 0.750000 0.571055 0.250000
Si Si6 0.153307 0.868201 0.837882
Si Si7 0.137163 0.048882 0.932647
O O1 0.108702 0.633801 0.406389
O O2 0.201326 0.686001 0.469803
O O3 0.212458 0.602434 0.369233
O O4 0.174847 0.623620 0.659899
O O5 0.924310 0.164700 0.869680
O O6 0.906993 0.075907 0.816967
O O7 0.000000 0.119374 0.708192
O O8 0.500000 0.803946 0.561167
O O9 0.415333 0.750000 0.512173
O O10 0.398630 0.831756 0.662395
O O11 0.779914 0.750000 0.996672
O O12 0.750000 0.796510 0.750000
O O13 0.802629 0.841238 0.953626
O O14 0.800091 0.544866 0.151784
O O15 0.141195 0.916110 0.919753
O O16 0.118411 0.000000 0.000000
#
# Coordination Sequence:
#
# PCOD9536414 Si02
#       7
#    16  16  16  16   8  16  16
#     4  10  20  34  55  77 111 144 180 223 278 330
#     4   9  20  38  57  80 113 146 182 230 278 330
#     4   9  18  34  55  78 106 144 186 225 269 321
#     4   9  17  30  50  75 105 140 174 215 267 321
#     4  10  20  36  51  78 114 140 177 226 280 338
#     4  10  19  34  54  78 111 141 182 229 273 326
#     4  10  21  36  58  82 107 145 183 226 280 333
#
# _framework density 18.222117999999998
#
# number of rings (size 3 to 8) (size 9 to 14) (size 15 to 20)
#    0.000    2.462    1.538    0.462    0.000    3.385 
#    0.000    2.692    0.000    2.769    0.000    0.000 
#    0.000    0.000    0.000    0.000    0.000    0.000 
#
# Total GULP energy -289504.864659 kJ/mol
# GULP energy per Si atom -5567.401243 kJ/mol
# Density = 1.818064 g / cm^3
# Si number density = 18.222118 Si / 1000 Ang^3
#
#
#
# Elastic Constant Matrix: (Units=GPa)
#
#
# Indices 1 2 3 4 5 6 
#
# 1 109.7487 33.8403 32.2362 0.0000 0.0000 0.0000
# 2 33.8403 129.0847 23.9058 0.0000 0.0000 0.0000
# 3 32.2362 23.9058 50.9026 0.0000 0.0000 0.0000
# 4 0.0000 0.0000 0.0000 0.7965 0.0000 0.0000
# 5 0.0000 0.0000 0.0000 0.0000 26.0471 0.0000
# 6 0.0000 0.0000 0.0000 0.0000 0.0000 16.5183
#
#
#
# Elastic Compliance Matrix: (Units=1/GPa)
#
#
# Indices 1 2 3 4 5 6 
#
# 1 0.011579 -0.001837 -0.006470 0.000000 0.000000 0.000000
# 2 -0.001837 0.008776 -0.002958 0.000000 0.000000 0.000000
# 3 -0.006470 -0.002958 0.025132 0.000000 0.000000 0.000000
# 4 0.000000 0.000000 0.000000 1.255535 0.000000 0.000000
# 5 0.000000 0.000000 0.000000 0.000000 0.038392 0.000000
# 6 0.000000 0.000000 0.000000 0.000000 0.000000 0.060539
#
#
# Mechanical properties :
#
#
# Convention : Reuss Voigt Hill
#
# Bulk Modulus (GPa) = 43.56083 52.18894 47.87489
# Shear Modulus (GPa) = 3.49617 21.98929 12.74273
#
# Velocity S-wave (km/s) = 1.38665 3.47758 2.64730
# Velocity P-wave (km/s) = 5.14986 6.69532 5.97279
#
# Compressibility (1/GPa) = 0.02295640
#
# Stress axis : x y z
#
# Youngs Moduli (GPa) = 86.36641 113.94283 39.79003
#
# Poissons Ratio (x) = 0.20934 0.25743
# Poissons Ratio (y) = 0.15867 0.11771
# Poissons Ratio (z) = 0.55877 0.33707
#
# Static dielectric constant tensor:
#      x y z
#    x 1.687860 0.000000 0.000000 
#    y 0.000000 1.614110 0.000000 
#    z 0.000000 0.000000 1.635410 
# 
# From -- ./inp_files/14139.got.cif
#   From: 2010.05.17/outbox.cif.g08.bks.cpg/sg74_8_cif.got.tgz:14139.got - 2010.06.03 17:57:02.
