data_PCOD9536360
_publ_section_title
;
Structure prediction by ZEFSAII (Michael W. Deem and Ramdas Pophale) SiO2 
 PCOD9536360
Probable space group: I M M A
;
_chemical_formula_sum "Si O2"
_cell_formula_units_Z 104
_cell_length_a 32.796519
_cell_length_b 9.125219
_cell_length_c 21.003132
_cell_angle_alpha 90.000000
_cell_angle_beta 90.000000
_cell_angle_gamma 90.000000
_cell_volume 6285.721115
_symmetry_space_group_name_H-M "I M M A"
_symmetry_group_IT_number 74
_symmetry_cell_setting 'orthorhombic'
loop_
_space_group_symop_operation_xyz
x,y,z
-x,1/2-y,z
x,-y,-z
-x,1/2+y,-z
-x,-y,-z
x,1/2+y,-z
-x,y,z
x,1/2-y,z
1/2+x,1/2+y,1/2+z
1/2-x,-y,1/2+z
1/2+x,1/2-y,1/2-z
1/2-x,y,1/2-z
1/2-x,1/2-y,1/2-z
1/2+x,y,1/2-z
1/2-x,1/2+y,1/2+z
1/2+x,-y,1/2+z
loop_
_atom_site_type_symbol
_atom_site_label
_atom_site_fract_x
_atom_site_fract_y
_atom_site_fract_z
Si Si1 0.282900 0.074290 0.066673
Si Si2 0.130783 0.925885 0.816898
Si Si3 0.500000 0.077087 0.067253
Si Si4 0.348903 0.573626 0.827414
Si Si5 0.067395 0.919966 0.352375
Si Si6 0.687939 0.426571 0.433645
Si Si7 0.545847 0.421388 0.703459
O O1 0.285133 0.250000 0.058442
O O2 0.310313 0.037110 0.128171
O O3 0.235474 0.034823 0.077734
O O4 0.296049 0.000000 0.000000
O O5 0.126829 0.750000 0.818785
O O6 0.151424 0.961590 0.748271
O O7 0.159599 0.972490 0.874934
O O8 0.085568 0.994065 0.821577
O O9 0.500000 0.250000 0.061428
O O10 0.460941 0.020066 0.105081
O O11 0.500000 0.000000 0.000000
O O12 0.355461 0.750000 0.832182
O O13 0.387364 0.484129 0.853242
O O14 0.065848 0.750000 0.372188
O O15 0.050881 0.927951 0.280025
O O16 0.675411 0.500000 0.500000
O O17 0.685695 0.250000 0.439230
O O18 0.500000 0.474766 0.686814
O O19 0.548414 0.250000 0.685335
#
# Coordination Sequence:
#
# PCOD9536360 Si02
#       7
#    16  16   8  16  16  16  16
#     4   9  18  32  50  70  97 133 171 207 248 299
#     4   9  18  31  49  76 103 127 165 209 251 297
#     4  12  24  36  50  68  92 126 169 212 253 298
#     4   9  18  32  49  73 101 130 167 209 252 297
#     4  10  19  34  51  69  96 128 162 203 251 297
#     4   9  18  33  52  74 100 132 166 204 249 301
#     4   9  17  31  51  73  99 129 160 195 242 298
#
# _framework density 16.545435999999999
#
# number of rings (size 3 to 8) (size 9 to 14) (size 15 to 20)
#    0.000    2.615    0.769    1.154    0.000    3.385 
#    0.000    4.615    0.000    0.462    0.000    8.615 
#    0.000    0.000    0.000    0.000    0.000    0.000 
#
# Total GULP energy -289735.898193 kJ/mol
# GULP energy per Si atom -5571.844196 kJ/mol
# Density = 1.650778 g / cm^3
# Si number density = 16.545436 Si / 1000 Ang^3
#
#
#
# Elastic Constant Matrix: (Units=GPa)
#
#
# Indices 1 2 3 4 5 6 
#
# 1 119.1648 43.9630 86.0335 0.0000 0.0000 0.0000
# 2 43.9630 52.9751 48.6723 0.0000 0.0000 0.0000
# 3 86.0335 48.6723 107.6502 0.0000 0.0000 0.0000
# 4 0.0000 0.0000 0.0000 25.3303 0.0000 0.0000
# 5 0.0000 0.0000 0.0000 0.0000 36.7006 0.0000
# 6 0.0000 0.0000 0.0000 0.0000 0.0000 24.5014
#
#
#
# Elastic Compliance Matrix: (Units=1/GPa)
#
#
# Indices 1 2 3 4 5 6 
#
# 1 0.020170 -0.003298 -0.014628 0.000000 0.000000 0.000000
# 2 -0.003298 0.032830 -0.012208 0.000000 0.000000 0.000000
# 3 -0.014628 -0.012208 0.026500 0.000000 0.000000 0.000000
# 4 0.000000 0.000000 0.000000 0.039478 0.000000 0.000000
# 5 0.000000 0.000000 0.000000 0.000000 0.027248 0.000000
# 6 0.000000 0.000000 0.000000 0.000000 0.000000 0.040814
#
#
# Mechanical properties :
#
#
# Convention : Reuss Voigt Hill
#
# Bulk Modulus (GPa) = 51.99916 70.79197 61.39556
# Shear Modulus (GPa) = 19.70690 24.04787 21.87739
#
# Velocity S-wave (km/s) = 3.45494 3.81654 3.64024
# Velocity P-wave (km/s) = 6.88563 7.89307 7.40650
#
# Compressibility (1/GPa) = 0.01923108
#
# Stress axis : x y z
#
# Youngs Moduli (GPa) = 49.57905 30.45992 37.73633
#
# Poissons Ratio (x) = 0.10047 0.55202
# Poissons Ratio (y) = 0.16353 0.46067
# Poissons Ratio (z) = 0.72526 0.37184
#
# Static dielectric constant tensor:
#      x y z
#    x 1.556270 0.000000 0.000000 
#    y 0.000000 1.552470 0.000000 
#    z 0.000000 0.000000 1.276290 
# 
# From -- ./inp_files/49574.got.cif
#   From: 2010.05.17/outbox.cif.g08.bks.cpg/sg74_25_cif.got.tgz:49574.got - 2010.06.03 17:57:02.
