data_PCOD9536698
_publ_section_title
;
Structure prediction by ZEFSAII (Michael W. Deem and Ramdas Pophale) SiO2 
 PCOD9536698
Probable space group: I M M A
;
_chemical_formula_sum "Si O2"
_cell_formula_units_Z 64
_cell_length_a 14.777026
_cell_length_b 14.602197
_cell_length_c 15.264295
_cell_angle_alpha 90.000000
_cell_angle_beta 90.000000
_cell_angle_gamma 90.000000
_cell_volume 3293.684465
_symmetry_space_group_name_H-M "I M M A"
_symmetry_group_IT_number 74
_symmetry_cell_setting 'orthorhombic'
loop_
_space_group_symop_operation_xyz
x,y,z
-x,1/2-y,z
x,-y,-z
-x,1/2+y,-z
-x,-y,-z
x,1/2+y,-z
-x,y,z
x,1/2-y,z
1/2+x,1/2+y,1/2+z
1/2-x,-y,1/2+z
1/2+x,1/2-y,1/2-z
1/2-x,y,1/2-z
1/2-x,1/2-y,1/2-z
1/2+x,y,1/2-z
1/2-x,1/2+y,1/2+z
1/2+x,-y,1/2+z
loop_
_atom_site_type_symbol
_atom_site_label
_atom_site_fract_x
_atom_site_fract_y
_atom_site_fract_z
Si Si1 0.392489 0.750000 0.019722
Si Si2 0.894736 0.450994 0.271572
Si Si3 0.609853 0.250000 0.181743
Si Si4 0.097917 0.443900 0.909482
Si Si5 0.702174 0.429847 0.917575
O O1 0.500000 0.750000 0.017573
O O2 0.358942 0.842078 0.065175
O O3 0.359368 0.750000 0.919018
O O4 0.862996 0.345856 0.275346
O O5 0.895913 0.487803 0.173017
O O6 0.833433 0.513865 0.333842
O O7 0.000000 0.454947 0.303831
O O8 0.500000 0.250000 0.183525
O O9 0.194475 0.394637 0.908348
O O10 0.000000 0.394774 0.902360
O O11 0.096011 0.500000 0.000000
O O12 0.697349 0.500000 0.000000
#
# Coordination Sequence:
#
# PCOD9536698 Si02
#       5
#     8  16   8  16  16
#     4  11  22  36  57  94 132 154 185 238 302 373
#     4  10  19  35  60  90 122 157 194 245 306 359
#     4   9  18  32  56  93 127 149 183 236 306 373
#     4   9  20  39  59  78 111 159 209 250 284 333
#     4  11  21  36  60  87 122 158 194 238 302 359
#
# _framework density 19.431127
#
# number of rings (size 3 to 8) (size 9 to 14) (size 15 to 20)
#    0.000    2.000    2.500    1.500    0.000    1.000 
#    0.000   10.625    0.000    9.000    0.000    0.000 
#    0.000    0.000    0.000    0.000    0.000    0.000 
#
# Total GULP energy -178444.535866 kJ/mol
# GULP energy per Si atom -5576.391746 kJ/mol
# Density = 1.938690 g / cm^3
# Si number density = 19.431127 Si / 1000 Ang^3
#
#
#
# Elastic Constant Matrix: (Units=GPa)
#
#
# Indices 1 2 3 4 5 6 
#
# 1 117.3188 18.4234 20.2140 0.0000 0.0000 0.0000
# 2 18.4234 65.6807 18.3723 0.0000 0.0000 0.0000
# 3 20.2140 18.3723 104.8911 0.0000 0.0000 0.0000
# 4 0.0000 0.0000 0.0000 2.6645 0.0000 0.0000
# 5 0.0000 0.0000 0.0000 0.0000 27.4255 0.0000
# 6 0.0000 0.0000 0.0000 0.0000 0.0000 14.1993
#
#
#
# Elastic Compliance Matrix: (Units=1/GPa)
#
#
# Indices 1 2 3 4 5 6 
#
# 1 0.009101 -0.002168 -0.001374 0.000000 0.000000 0.000000
# 2 -0.002168 0.016526 -0.002477 0.000000 0.000000 0.000000
# 3 -0.001374 -0.002477 0.010232 0.000000 0.000000 0.000000
# 4 0.000000 0.000000 0.000000 0.375307 0.000000 0.000000
# 5 0.000000 0.000000 0.000000 0.000000 0.036462 0.000000
# 6 0.000000 0.000000 0.000000 0.000000 0.000000 0.070426
#
#
# Mechanical properties :
#
#
# Convention : Reuss Voigt Hill
#
# Bulk Modulus (GPa) = 41.97984 44.65667 43.31825
# Shear Modulus (GPa) = 9.29310 24.24993 16.77151
#
# Velocity S-wave (km/s) = 2.18928 3.53653 2.94109
# Velocity P-wave (km/s) = 5.29546 6.30143 5.82022
#
# Compressibility (1/GPa) = 0.02382096
#
# Stress axis : x y z
#
# Youngs Moduli (GPa) = 109.87722 60.50980 97.72954
#
# Poissons Ratio (x) = 0.13121 0.13429
# Poissons Ratio (y) = 0.23827 0.24205
# Poissons Ratio (z) = 0.15098 0.14987
#
# Static dielectric constant tensor:
#      x y z
#    x 1.752830 0.000000 0.000000 
#    y 0.000000 1.625460 0.000000 
#    z 0.000000 0.000000 1.664980 
# 
# From -- ./inp_files/31846.got.cif
#   From: 2010.05.17/outbox.cif.g08.bks.cpg/sg74_16_cif.got.tgz:31846.got - 2010.06.03 17:57:02.
