data_PCOD9536909
_publ_section_title
;
Structure prediction by ZEFSAII (Michael W. Deem and Ramdas Pophale) SiO2 
 PCOD9536909
Probable space group: I M M A
;
_chemical_formula_sum "Si O2"
_cell_formula_units_Z 112
_cell_length_a 14.397637
_cell_length_b 14.814216
_cell_length_c 26.737682
_cell_angle_alpha 90.000000
_cell_angle_beta 90.000000
_cell_angle_gamma 90.000000
_cell_volume 5702.872290
_symmetry_space_group_name_H-M "I M M A"
_symmetry_group_IT_number 74
_symmetry_cell_setting 'orthorhombic'
loop_
_space_group_symop_operation_xyz
x,y,z
-x,1/2-y,z
x,-y,-z
-x,1/2+y,-z
-x,-y,-z
x,1/2+y,-z
-x,y,z
x,1/2-y,z
1/2+x,1/2+y,1/2+z
1/2-x,-y,1/2+z
1/2+x,1/2-y,1/2-z
1/2-x,y,1/2-z
1/2-x,1/2-y,1/2-z
1/2+x,y,1/2-z
1/2-x,1/2+y,1/2+z
1/2+x,-y,1/2+z
loop_
_atom_site_type_symbol
_atom_site_label
_atom_site_fract_x
_atom_site_fract_y
_atom_site_fract_z
Si Si1 0.893540 0.358871 0.522631
Si Si2 0.272084 0.147406 0.067530
Si Si3 0.113582 0.347549 0.740657
Si Si4 0.608334 0.641081 0.629082
Si Si5 0.106624 0.894255 0.367819
Si Si6 0.613116 0.047161 0.267799
Si Si7 0.106218 0.395214 0.339369
O O1 0.898934 0.250000 0.517699
O O2 0.832319 0.394857 0.476758
O O3 0.852371 0.378458 0.577528
O O4 0.000000 0.393081 0.519517
O O5 0.251856 0.250000 0.051461
O O6 0.174648 0.106567 0.084923
O O7 0.332612 0.150406 0.118311
O O8 0.140051 0.250000 0.762601
O O9 0.145753 0.351394 0.682749
O O10 0.142805 0.442027 0.765623
O O11 0.000000 0.350424 0.739655
O O12 0.500000 0.621474 0.620759
O O13 0.617917 0.750000 0.633487
O O14 0.638466 0.595223 0.680948
O O15 0.000000 0.860638 0.372262
O O16 0.103485 0.000055 0.355943
O O17 0.500000 0.047228 0.264881
O O18 0.642581 0.100476 0.217635
O O19 0.000000 0.360980 0.339675
#
# Coordination Sequence:
#
# PCOD9536909 Si02
#       7
#    16  16  16  16  16  16  16
#     4   9  16  26  41  64  95 125 151 180 211 253
#     4  10  20  30  41  60  84 114 152 188 227 267
#     4   8  12  20  38  65  94 120 145 174 211 261
#     4   9  18  33  49  62  80 112 156 201 237 268
#     4   8  14  24  39  61  91 126 154 169 195 252
#     4   8  15  27  42  62  87 114 148 187 224 265
#     4   9  17  28  41  62  92 119 143 174 211 259
#
# _framework density 19.639226000000001
#
# number of rings (size 3 to 8) (size 9 to 14) (size 15 to 20)
#    0.000    3.286    0.000    2.571    0.000    4.286 
#    0.000    5.000    0.000    0.000    0.000   11.000 
#    0.000    1.143    0.000    0.429    0.000    6.714 
#
# Total GULP energy -312028.185088 kJ/mol
# GULP energy per Si atom -5571.931877 kJ/mol
# Density = 1.959453 g / cm^3
# Si number density = 19.639226 Si / 1000 Ang^3
#
#
#
# Elastic Constant Matrix: (Units=GPa)
#
#
# Indices 1 2 3 4 5 6 
#
# 1 63.1056 5.5727 26.1886 0.0000 0.0000 0.0000
# 2 5.5727 44.4017 9.8984 0.0000 0.0000 0.0000
# 3 26.1886 9.8984 72.3751 0.0000 0.0000 0.0000
# 4 0.0000 0.0000 0.0000 14.1240 0.0000 0.0000
# 5 0.0000 0.0000 0.0000 0.0000 2.9316 0.0000
# 6 0.0000 0.0000 0.0000 0.0000 0.0000 2.4834
#
#
#
# Elastic Compliance Matrix: (Units=1/GPa)
#
#
# Indices 1 2 3 4 5 6 
#
# 1 0.018679 -0.000864 -0.006641 0.000000 0.000000 0.000000
# 2 -0.000864 0.023270 -0.002870 0.000000 0.000000 0.000000
# 3 -0.006641 -0.002870 0.016612 0.000000 0.000000 0.000000
# 4 0.000000 0.000000 0.000000 0.070802 0.000000 0.000000
# 5 0.000000 0.000000 0.000000 0.000000 0.341105 0.000000
# 6 0.000000 0.000000 0.000000 0.000000 0.000000 0.402675
#
#
# Mechanical properties :
#
#
# Convention : Reuss Voigt Hill
#
# Bulk Modulus (GPa) = 26.44670 29.24464 27.84567
# Shear Modulus (GPa) = 5.51575 13.12264 9.31920
#
# Velocity S-wave (km/s) = 1.67769 2.58773 2.18071
# Velocity P-wave (km/s) = 4.15311 4.88382 4.53322
#
# Compressibility (1/GPa) = 0.03781190
#
# Stress axis : x y z
#
# Youngs Moduli (GPa) = 53.53728 42.97400 60.19640
#
# Poissons Ratio (x) = 0.03713 0.39974
# Poissons Ratio (y) = 0.04625 0.17276
# Poissons Ratio (z) = 0.35552 0.12333
#
# Static dielectric constant tensor:
#      x y z
#    x 1.734620 0.000000 0.000000 
#    y 0.000000 1.732800 0.000000 
#    z 0.000000 0.000000 1.693650 
# 
# From -- ./inp_files/67199.got.cif
#   From: 2010.05.17/outbox.cif.g08.bks.cpg/sg74_34_cif.got.tgz:67199.got - 2010.06.03 17:57:02.
