data_PCOD9536211
_publ_section_title
;
Structure prediction by ZEFSAII (Michael W. Deem and Ramdas Pophale) SiO2 
 PCOD9536211
Probable space group: I M M A
;
_chemical_formula_sum "Si O2"
_cell_formula_units_Z 96
_cell_length_a 26.194400
_cell_length_b 16.987302
_cell_length_c 12.156986
_cell_angle_alpha 90.000000
_cell_angle_beta 90.000000
_cell_angle_gamma 90.000000
_cell_volume 5409.520605
_symmetry_space_group_name_H-M "I M M A"
_symmetry_group_IT_number 74
_symmetry_cell_setting 'orthorhombic'
loop_
_space_group_symop_operation_xyz
x,y,z
-x,1/2-y,z
x,-y,-z
-x,1/2+y,-z
-x,-y,-z
x,1/2+y,-z
-x,y,z
x,1/2-y,z
1/2+x,1/2+y,1/2+z
1/2-x,-y,1/2+z
1/2+x,1/2-y,1/2-z
1/2-x,y,1/2-z
1/2-x,1/2-y,1/2-z
1/2+x,y,1/2-z
1/2-x,1/2+y,1/2+z
1/2+x,-y,1/2+z
loop_
_atom_site_type_symbol
_atom_site_label
_atom_site_fract_x
_atom_site_fract_y
_atom_site_fract_z
Si Si1 0.000000 0.153881 0.620100
Si Si2 0.904168 0.093129 0.008527
Si Si3 0.807352 0.845793 0.377321
Si Si4 0.500000 0.155830 0.628517
Si Si5 0.401776 0.346149 0.021091
Si Si6 0.560087 0.654710 0.740880
Si Si7 0.690580 0.845066 0.375268
O O1 0.949443 0.129477 0.554749
O O2 0.000000 0.250000 0.621192
O O3 0.000000 0.126679 0.745832
O O4 0.850804 0.121800 0.958365
O O5 0.949936 0.128547 0.935673
O O6 0.913455 0.120497 0.133095
O O7 0.907096 0.000000 0.000000
O O8 0.807689 0.750000 0.378587
O O9 0.849245 0.872927 0.464888
O O10 0.748943 0.869580 0.399730
O O11 0.820891 0.868269 0.251619
O O12 0.500000 0.250000 0.630950
O O13 0.401339 0.250000 0.021355
O O14 0.412795 0.370596 0.145981
O O15 0.500000 0.632874 0.743407
O O16 0.561976 0.750000 0.735162
O O17 0.688579 0.750000 0.379428
#
# Coordination Sequence:
#
# PCOD9536211 Si02
#       7
#     8  16  16   8  16  16  16
#     4   9  16  26  49  85 112 127 157 216 275 311
#     4  12  24  36  52  74 108 143 178 217 265 314
#     4   8  15  29  56  86 107 130 171 227 276 308
#     4  11  21  34  55  81 103 130 175 226 266 309
#     4   9  15  27  49  82 113 134 165 211 261 315
#     4  10  19  33  54  77 107 147 178 204 252 320
#     4   9  17  33  57  82 104 134 177 225 270 314
#
# _framework density 17.746489
#
# number of rings (size 3 to 8) (size 9 to 14) (size 15 to 20)
#    0.000    2.333    1.667    3.750    0.000    2.667 
#    0.000    0.833    7.333    8.000    0.000    0.000 
#    0.000    0.000    0.000    0.000    0.000    0.000 
#
# Total GULP energy -267793.411820 kJ/mol
# GULP energy per Si atom -5579.029413 kJ/mol
# Density = 1.770610 g / cm^3
# Si number density = 17.746489 Si / 1000 Ang^3
#
#
#
# Elastic Constant Matrix: (Units=GPa)
#
#
# Indices 1 2 3 4 5 6 
#
# 1 150.3516 26.4109 119.6947 0.0000 0.0000 0.0000
# 2 26.4109 25.2514 30.2135 0.0000 0.0000 0.0000
# 3 119.6947 30.2135 198.5787 0.0000 0.0000 0.0000
# 4 0.0000 0.0000 0.0000 -14.4019 0.0000 0.0000
# 5 0.0000 0.0000 0.0000 0.0000 60.3860 0.0000
# 6 0.0000 0.0000 0.0000 0.0000 0.0000 -8.1362
#
#
#
# Elastic Compliance Matrix: (Units=1/GPa)
#
#
# Indices 1 2 3 4 5 6 
#
# 1 0.013342 -0.005297 -0.007236 0.000000 0.000000 0.000000
# 2 -0.005297 0.050518 -0.004494 0.000000 0.000000 0.000000
# 3 -0.007236 -0.004494 0.010081 0.000000 0.000000 0.000000
# 4 0.000000 0.000000 0.000000 -0.069435 0.000000 0.000000
# 5 0.000000 0.000000 0.000000 0.000000 0.016560 0.000000
# 6 0.000000 0.000000 0.000000 0.000000 0.000000 -0.122908
#
#
# Mechanical properties :
#
#
# Convention : Reuss Voigt Hill
#
# Bulk Modulus (GPa) = 25.06983 80.75778 52.91380
# Shear Modulus (GPa) = -91.75749 20.76043 -35.49853
#
# Velocity S-wave (km/s) = -7.19839 3.42399 -4.47734
# Velocity P-wave (km/s) = 7.41160 7.82539 1.77552
#
# Compressibility (1/GPa) = 0.03988859
#
# Stress axis : x y z
#
# Youngs Moduli (GPa) = 74.94971 19.79477 99.19439
#
# Poissons Ratio (x) = 0.10485 0.71780
# Poissons Ratio (y) = 0.39698 0.44575
# Poissons Ratio (z) = 0.54236 0.08895
#
# Static dielectric constant tensor:
#      x y z
#    x 1.598330 0.000000 0.000000 
#    y 0.000000 1.583510 0.000000 
#    z 0.000000 0.000000 1.598230 
# 
# From -- ./inp_files/25219.got.cif
#   From: 2010.05.17/outbox.cif.g08.bks.cpg/sg74_13_cif.got.tgz:25219.got - 2010.06.03 17:57:02.
