data_PCOD9536054
_publ_section_title
;
Structure prediction by ZEFSAII (Michael W. Deem and Ramdas Pophale) SiO2 
 PCOD9536054
Probable space group: I M M A
;
_chemical_formula_sum "Si O2"
_cell_formula_units_Z 112
_cell_length_a 27.816393
_cell_length_b 19.368531
_cell_length_c 11.297932
_cell_angle_alpha 90.000000
_cell_angle_beta 90.000000
_cell_angle_gamma 90.000000
_cell_volume 6086.904011
_symmetry_space_group_name_H-M "I M M A"
_symmetry_group_IT_number 74
_symmetry_cell_setting 'orthorhombic'
loop_
_space_group_symop_operation_xyz
x,y,z
-x,1/2-y,z
x,-y,-z
-x,1/2+y,-z
-x,-y,-z
x,1/2+y,-z
-x,y,z
x,1/2-y,z
1/2+x,1/2+y,1/2+z
1/2-x,-y,1/2+z
1/2+x,1/2-y,1/2-z
1/2-x,y,1/2-z
1/2-x,1/2-y,1/2-z
1/2+x,y,1/2-z
1/2-x,1/2+y,1/2+z
1/2+x,-y,1/2+z
loop_
_atom_site_type_symbol
_atom_site_label
_atom_site_fract_x
_atom_site_fract_y
_atom_site_fract_z
Si Si1 0.055171 0.107421 0.568228
Si Si2 0.236236 0.034685 0.126224
Si Si3 0.876307 0.558097 0.908163
Si Si4 0.150324 0.668967 0.340577
Si Si5 0.159453 0.829967 0.077993
Si Si6 0.055335 0.957202 0.687396
Si Si7 0.232801 0.830694 0.522751
O O1 0.097127 0.157063 0.610697
O O2 0.062189 0.088775 0.430217
O O3 0.000000 0.131189 0.584495
O O4 0.060916 0.035911 0.641337
O O5 0.250000 0.999352 0.250000
O O6 0.178646 0.040287 0.125382
O O7 0.261256 0.110380 0.121366
O O8 0.249401 0.000000 0.000000
O O9 0.908757 0.560368 0.792441
O O10 0.894069 0.500000 0.000000
O O11 0.871121 0.628281 0.982591
O O12 0.160588 0.750000 0.326114
O O13 0.154127 0.638479 0.208975
O O14 0.190337 0.646217 0.434540
O O15 0.144761 0.750000 0.077837
O O16 0.215774 0.832770 0.043985
O O17 0.000000 0.948966 0.726155
O O18 0.225015 0.750000 0.559703
#
# Coordination Sequence:
#
# PCOD9536054 Si02
#       7
#    16  16  16  16  16  16  16
#     4   9  19  35  54  78 104 132 171 226 279 314
#     4  10  23  37  52  80 116 149 183 228 281 329
#     4  10  20  34  53  78 106 137 177 219 267 321
#     4  10  19  32  55  82 104 138 182 217 266 327
#     4   9  18  34  53  77 112 145 174 219 269 317
#     4   9  19  36  56  76 100 133 176 221 269 324
#     4   9  19  35  55  80 109 146 188 226 266 325
#
# _framework density 18.400158999999999
#
# number of rings (size 3 to 8) (size 9 to 14) (size 15 to 20)
#    0.000    2.571    0.000    2.143    2.000    7.143 
#    0.000    1.429    0.000    2.143    0.000    0.000 
#    0.000    0.000    0.000    0.000    0.000    0.000 
#
# Total GULP energy -312211.180097 kJ/mol
# GULP energy per Si atom -5575.199645 kJ/mol
# Density = 1.835828 g / cm^3
# Si number density = 18.400159 Si / 1000 Ang^3
#
#
#
# Elastic Constant Matrix: (Units=GPa)
#
#
# Indices 1 2 3 4 5 6 
#
# 1 54.7335 17.0659 54.5240 0.0000 0.0000 0.0000
# 2 17.0659 32.0380 27.3970 0.0000 0.0000 0.0000
# 3 54.5240 27.3970 120.9926 0.0000 0.0000 0.0000
# 4 0.0000 0.0000 0.0000 19.8046 0.0000 0.0000
# 5 0.0000 0.0000 0.0000 0.0000 30.3456 0.0000
# 6 0.0000 0.0000 0.0000 0.0000 0.0000 24.9577
#
#
#
# Elastic Compliance Matrix: (Units=1/GPa)
#
#
# Indices 1 2 3 4 5 6 
#
# 1 0.034129 -0.006235 -0.013968 0.000000 0.000000 0.000000
# 2 -0.006235 0.039847 -0.006213 0.000000 0.000000 0.000000
# 3 -0.013968 -0.006213 0.015966 0.000000 0.000000 0.000000
# 4 0.000000 0.000000 0.000000 0.050493 0.000000 0.000000
# 5 0.000000 0.000000 0.000000 0.000000 0.032954 0.000000
# 6 0.000000 0.000000 0.000000 0.000000 0.000000 0.040068
#
#
# Mechanical properties :
#
#
# Convention : Reuss Voigt Hill
#
# Bulk Modulus (GPa) = 26.94673 45.08200 36.01436
# Shear Modulus (GPa) = 17.94301 22.27339 20.10820
#
# Velocity S-wave (km/s) = 3.12614 3.48300 3.30938
# Velocity P-wave (km/s) = 5.26374 6.38194 5.84962
#
# Compressibility (1/GPa) = 0.03711025
#
# Stress axis : x y z
#
# Youngs Moduli (GPa) = 29.30057 25.09584 62.63164
#
# Poissons Ratio (x) = 0.15648 0.87484
# Poissons Ratio (y) = 0.18269 0.38913
# Poissons Ratio (z) = 0.40927 0.15592
#
# Static dielectric constant tensor:
#      x y z
#    x 1.599180 0.000000 0.000000 
#    y 0.000000 1.681460 0.000000 
#    z 0.000000 0.000000 1.649800 
# 
# From -- ./inp_files/25397.got.cif
#   From: 2010.05.17/outbox.cif.g08.bks.cpg/sg74_13_cif.got.tgz:25397.got - 2010.06.03 17:57:02.
