data_PCOD9536655
_publ_section_title
;
Structure prediction by ZEFSAII (Michael W. Deem and Ramdas Pophale) SiO2 
 PCOD9536655
Probable space group: I M M A
;
_chemical_formula_sum "Si O2"
_cell_formula_units_Z 104
_cell_length_a 19.961559
_cell_length_b 7.734998
_cell_length_c 31.724770
_cell_angle_alpha 90.000000
_cell_angle_beta 90.000000
_cell_angle_gamma 90.000000
_cell_volume 4898.387573
_symmetry_space_group_name_H-M "I M M A"
_symmetry_group_IT_number 74
_symmetry_cell_setting 'orthorhombic'
loop_
_space_group_symop_operation_xyz
x,y,z
-x,1/2-y,z
x,-y,-z
-x,1/2+y,-z
-x,-y,-z
x,1/2+y,-z
-x,y,z
x,1/2-y,z
1/2+x,1/2+y,1/2+z
1/2-x,-y,1/2+z
1/2+x,1/2-y,1/2-z
1/2-x,y,1/2-z
1/2-x,1/2-y,1/2-z
1/2+x,y,1/2-z
1/2-x,1/2+y,1/2+z
1/2+x,-y,1/2+z
loop_
_atom_site_type_symbol
_atom_site_label
_atom_site_fract_x
_atom_site_fract_y
_atom_site_fract_z
Si Si1 0.000000 0.954545 0.452167
Si Si2 0.235519 0.949818 0.204169
Si Si3 0.500000 0.542988 0.653711
Si Si4 0.759602 0.547416 0.950546
Si Si5 0.852312 0.954269 0.126286
Si Si6 0.628408 0.550455 0.904266
Si Si7 0.383546 0.459702 0.186697
Si Si8 0.000000 0.961615 0.749264
O O1 0.000000 0.750000 0.443720
O O2 0.000000 0.000000 0.500000
O O3 0.932469 0.037368 0.435365
O O4 0.214006 0.750000 0.211611
O O5 0.250000 0.033555 0.250000
O O6 0.185744 0.025348 0.168610
O O7 0.310039 0.959703 0.186648
O O8 0.500000 0.750000 0.654919
O O9 0.431211 0.486791 0.631494
O O10 0.500000 0.479656 0.702402
O O11 0.747427 0.750000 0.952922
O O12 0.820693 0.518337 0.917720
O O13 0.694305 0.469027 0.926190
O O14 0.769030 0.500000 0.000000
O O15 0.839678 0.750000 0.126825
O O16 0.646803 0.750000 0.895139
O O17 0.595599 0.489468 0.860318
O O18 0.379637 0.250000 0.191310
O O19 0.434133 0.517662 0.223231
O O20 0.000000 0.750000 0.749388
#
# Coordination Sequence:
#
# PCOD9536655 Si02
#       8
#     8  16   8  16  16  16  16   8
#     4  12  25  38  56  81 114 156 203 250 299 354
#     4  10  21  36  56  86 124 162 201 247 298 357
#     4  11  23  40  63  91 123 160 205 256 308 372
#     4  11  23  41  66  95 124 161 207 259 318 377
#     4  11  23  41  64  90 124 163 204 254 313 375
#     4  10  21  38  60  87 122 161 204 255 306 357
#     4  10  19  35  58  84 117 159 204 249 295 347
#     4   9  19  34  56  88 125 166 211 256 303 356
#
# _framework density 21.231477000000002
#
# number of rings (size 3 to 8) (size 9 to 14) (size 15 to 20)
#    0.000    1.538    1.538    3.692    0.000    5.231 
#    0.000    1.538    0.000    0.000    0.000    0.000 
#    0.000    0.000    0.000    0.000    0.000    0.000 
#
# Total GULP energy -289842.252956 kJ/mol
# GULP energy per Si atom -5573.889480 kJ/mol
# Density = 2.118315 g / cm^3
# Si number density = 21.231477 Si / 1000 Ang^3
#
#
#
# Elastic Constant Matrix: (Units=GPa)
#
#
# Indices 1 2 3 4 5 6 
#
# 1 121.1832 -19.8241 43.5650 0.0000 0.0000 0.0000
# 2 -19.8241 37.1099 -2.0728 0.0000 0.0000 0.0000
# 3 43.5650 -2.0728 132.6212 0.0000 0.0000 0.0000
# 4 0.0000 0.0000 0.0000 5.6093 0.0000 0.0000
# 5 0.0000 0.0000 0.0000 0.0000 16.1494 0.0000
# 6 0.0000 0.0000 0.0000 0.0000 0.0000 36.5961
#
#
#
# Elastic Compliance Matrix: (Units=1/GPa)
#
#
# Indices 1 2 3 4 5 6 
#
# 1 0.010310 0.005323 -0.003304 0.000000 0.000000 0.000000
# 2 0.005323 0.029719 -0.001284 0.000000 0.000000 0.000000
# 3 -0.003304 -0.001284 0.008605 0.000000 0.000000 0.000000
# 4 0.000000 0.000000 0.000000 0.178276 0.000000 0.000000
# 5 0.000000 0.000000 0.000000 0.000000 0.061922 0.000000
# 6 0.000000 0.000000 0.000000 0.000000 0.000000 0.027325
#
#
# Mechanical properties :
#
#
# Convention : Reuss Voigt Hill
#
# Bulk Modulus (GPa) = 19.95780 37.13895 28.54838
# Shear Modulus (GPa) = 15.08800 29.62069 22.35434
#
# Velocity S-wave (km/s) = 2.66868 3.73920 3.24834
# Velocity P-wave (km/s) = 4.34929 6.01436 5.24828
#
# Compressibility (1/GPa) = 0.05010572
#
# Stress axis : x y z
#
# Youngs Moduli (GPa) = 96.98882 33.64855 116.20553
#
# Poissons Ratio (x) = -0.17912 0.38391
# Poissons Ratio (y) = -0.51630 0.14923
# Poissons Ratio (z) = 0.32042 0.04321
#
# Static dielectric constant tensor:
#      x y z
#    x 1.930690 0.000000 0.000000 
#    y 0.000000 1.826590 0.000000 
#    z 0.000000 0.000000 2.385820 
# 
# From -- ./inp_files/68296.got.cif
#   From: 2010.05.17/outbox.cif.g08.bks.cpg/sg74_35_cif.got.tgz:68296.got - 2010.06.03 17:57:02.
