data_PCOD9536413
_publ_section_title
;
Structure prediction by ZEFSAII (Michael W. Deem and Ramdas Pophale) SiO2 
 PCOD9536413
Probable space group: I M M A
;
_chemical_formula_sum "Si O2"
_cell_formula_units_Z 88
_cell_length_a 8.723062
_cell_length_b 22.858878
_cell_length_c 25.153544
_cell_angle_alpha 90.000000
_cell_angle_beta 90.000000
_cell_angle_gamma 90.000000
_cell_volume 5015.601834
_symmetry_space_group_name_H-M "I M M A"
_symmetry_group_IT_number 74
_symmetry_cell_setting 'orthorhombic'
loop_
_space_group_symop_operation_xyz
x,y,z
-x,1/2-y,z
x,-y,-z
-x,1/2+y,-z
-x,-y,-z
x,1/2+y,-z
-x,y,z
x,1/2-y,z
1/2+x,1/2+y,1/2+z
1/2-x,-y,1/2+z
1/2+x,1/2-y,1/2-z
1/2-x,y,1/2-z
1/2-x,1/2-y,1/2-z
1/2+x,y,1/2-z
1/2-x,1/2+y,1/2+z
1/2+x,-y,1/2+z
loop_
_atom_site_type_symbol
_atom_site_label
_atom_site_fract_x
_atom_site_fract_y
_atom_site_fract_z
Si Si1 0.817343 0.097514 0.807325
Si Si2 0.684760 0.250000 0.309248
Si Si3 0.817760 0.181105 0.603861
Si Si4 0.814483 0.865264 0.875995
Si Si5 0.316915 0.819113 0.509829
Si Si6 0.183052 0.968785 0.692306
O O1 0.750000 0.115628 0.750000
O O2 0.767534 0.142517 0.852588
O O3 0.000000 0.093193 0.803652
O O4 0.748164 0.033393 0.819062
O O5 0.500000 0.250000 0.306604
O O6 0.750000 0.250000 0.250000
O O7 0.730396 0.191875 0.341601
O O8 0.779409 0.250000 0.610021
O O9 0.767849 0.163995 0.544223
O O10 0.000000 0.174390 0.610021
O O11 0.772148 0.853904 0.937297
O O12 0.739021 0.922079 0.850609
O O13 0.000000 0.870127 0.873419
O O14 0.500000 0.825704 0.502070
O O15 0.288375 0.750000 0.519750
O O16 0.250000 0.951199 0.750000
O O17 0.000000 0.970870 0.695234
#
# Coordination Sequence:
#
# PCOD9536413 Si02
#       6
#    16   8  16  16  16  16
#     4  11  22  39  62  85 111 144 181 223 272 329
#     4  10  20  32  48  74 108 144 183 234 281 322
#     4  10  21  37  58  86 118 147 178 221 270 325
#     4  10  19  34  54  78 109 146 189 232 278 327
#     4   9  17  33  56  80 109 148 188 228 275 328
#     4  11  22  37  56  79 109 146 186 229 278 333
#
# _framework density 17.545251
#
# number of rings (size 3 to 8) (size 9 to 14) (size 15 to 20)
#    0.000    1.818    0.909    5.455    0.000    4.364 
#    0.000    0.909    0.000    5.455    0.000    0.000 
#    0.000    0.000    0.000    0.000    0.000    0.000 
#
# Total GULP energy -245771.028141 kJ/mol
# GULP energy per Si atom -5585.705185 kJ/mol
# Density = 1.750532 g / cm^3
# Si number density = 17.545251 Si / 1000 Ang^3
#
#
#
# Elastic Constant Matrix: (Units=GPa)
#
#
# Indices 1 2 3 4 5 6 
#
# 1 97.2402 53.0445 71.5510 0.0000 0.0000 0.0000
# 2 53.0445 71.1332 85.3101 0.0000 0.0000 0.0000
# 3 71.5510 85.3101 148.4333 0.0000 0.0000 0.0000
# 4 0.0000 0.0000 0.0000 25.3298 0.0000 0.0000
# 5 0.0000 0.0000 0.0000 0.0000 33.4928 0.0000
# 6 0.0000 0.0000 0.0000 0.0000 0.0000 25.7748
#
#
#
# Elastic Compliance Matrix: (Units=1/GPa)
#
#
# Indices 1 2 3 4 5 6 
#
# 1 0.017756 -0.009577 -0.003055 0.000000 0.000000 0.000000
# 2 -0.009577 0.050410 -0.024356 0.000000 0.000000 0.000000
# 3 -0.003055 -0.024356 0.022208 0.000000 0.000000 0.000000
# 4 0.000000 0.000000 0.000000 0.039479 0.000000 0.000000
# 5 0.000000 0.000000 0.000000 0.000000 0.029857 0.000000
# 6 0.000000 0.000000 0.000000 0.000000 0.000000 0.038798
#
#
# Mechanical properties :
#
#
# Convention : Reuss Voigt Hill
#
# Bulk Modulus (GPa) = 60.98285 81.84645 71.41465
# Shear Modulus (GPa) = 17.98894 24.04622 21.01758
#
# Velocity S-wave (km/s) = 3.20549 3.70608 3.46483
# Velocity P-wave (km/s) = 6.96657 8.06619 7.53646
#
# Compressibility (1/GPa) = 0.01639805
#
# Stress axis : x y z
#
# Youngs Moduli (GPa) = 56.31942 19.83742 45.02944
#
# Poissons Ratio (x) = 0.18999 0.13755
# Poissons Ratio (y) = 0.53938 1.09673
# Poissons Ratio (z) = 0.17204 0.48316
#
# Static dielectric constant tensor:
#      x y z
#    x 1.590090 0.000000 0.000000 
#    y 0.000000 1.576230 0.000000 
#    z 0.000000 0.000000 1.577280 
# 
# From -- ./inp_files/48776.got.cif
#   From: 2010.05.17/outbox.cif.g08.bks.cpg/sg74_25_cif.got.tgz:48776.got - 2010.06.03 17:57:02.
