data_PCOD9536699
_publ_section_title
;
Structure prediction by ZEFSAII (Michael W. Deem and Ramdas Pophale) SiO2 
 PCOD9536699
Probable space group: I M M A
;
_chemical_formula_sum "Si O2"
_cell_formula_units_Z 64
_cell_length_a 10.322722
_cell_length_b 34.012679
_cell_length_c 10.045783
_cell_angle_alpha 90.000000
_cell_angle_beta 90.000000
_cell_angle_gamma 90.000000
_cell_volume 3527.108866
_symmetry_space_group_name_H-M "I M M A"
_symmetry_group_IT_number 74
_symmetry_cell_setting 'orthorhombic'
loop_
_space_group_symop_operation_xyz
x,y,z
-x,1/2-y,z
x,-y,-z
-x,1/2+y,-z
-x,-y,-z
x,1/2+y,-z
-x,y,z
x,1/2-y,z
1/2+x,1/2+y,1/2+z
1/2-x,-y,1/2+z
1/2+x,1/2-y,1/2-z
1/2-x,y,1/2-z
1/2-x,1/2-y,1/2-z
1/2+x,y,1/2-z
1/2-x,1/2+y,1/2+z
1/2+x,-y,1/2+z
loop_
_atom_site_type_symbol
_atom_site_label
_atom_site_fract_x
_atom_site_fract_y
_atom_site_fract_z
Si Si1 0.226866 0.399299 0.534616
Si Si2 0.500000 0.868273 0.568310
Si Si3 0.750000 0.966350 0.250000
Si Si4 0.000000 0.987615 0.842486
Si Si5 0.250000 0.166454 0.750000
Si Si6 0.000000 0.406744 0.321955
Si Si7 0.000000 0.795931 0.118755
O O1 0.371497 0.390359 0.483548
O O2 0.224888 0.438022 0.624894
O O3 0.198365 0.362632 0.633164
O O4 0.125661 0.405344 0.416027
O O5 0.500000 0.869086 0.726535
O O6 0.500000 0.824773 0.508108
O O7 0.873025 0.992556 0.218341
O O8 0.000000 0.943297 0.782465
O O9 0.000000 0.000000 0.000000
O O10 0.129657 0.191918 0.801277
O O11 0.000000 0.750000 0.088476
#
# Coordination Sequence:
#
# PCOD9536699 Si02
#       7
#    16   8   8   8   8   8   8
#     4  10  21  39  62  84 113 152 197 242 296 351
#     4  10  22  37  59  85 114 154 196 235 284 355
#     4  11  24  42  59  84 117 148 195 258 303 356
#     4  12  29  40  57  83 118 154 203 257 306 344
#     4   9  19  36  61  92 118 148 190 236 287 352
#     4  12  24  38  60  82 111 157 205 241 295 357
#     4  10  19  35  60  90 123 152 185 235 294 346
#
# _framework density 18.145171999999999
#
# number of rings (size 3 to 8) (size 9 to 14) (size 15 to 20)
#    0.000    1.500    0.000    4.875    7.000    5.000 
#    0.000    0.000    0.000   15.000    0.000    0.000 
#    0.000    0.000    0.000    0.000    0.000    0.000 
#
# Total GULP energy -178722.391868 kJ/mol
# GULP energy per Si atom -5585.074746 kJ/mol
# Density = 1.810387 g / cm^3
# Si number density = 18.145172 Si / 1000 Ang^3
#
#
#
# Elastic Constant Matrix: (Units=GPa)
#
#
# Indices 1 2 3 4 5 6 
#
# 1 139.3069 77.6746 65.9504 0.0000 0.0003 0.0007
# 2 77.6746 124.4209 71.2729 0.0007 -0.0002 -0.0004
# 3 65.9504 71.2729 122.7349 -0.0020 0.0034 0.0047
# 4 0.0000 0.0007 -0.0020 -27.3257 -0.0015 -0.0007
# 5 0.0003 -0.0002 0.0034 -0.0015 58.8489 0.0038
# 6 0.0007 -0.0004 0.0047 -0.0007 0.0038 2.4211
#
#
#
# Elastic Compliance Matrix: (Units=1/GPa)
#
#
# Indices 1 2 3 4 5 6 
#
# 1 0.011738 -0.005566 -0.003075 0.000000 0.000000 0.000001
# 2 -0.005566 0.014683 -0.005536 0.000001 0.000000 0.000015
# 3 -0.003075 -0.005536 0.013014 -0.000001 -0.000001 -0.000025
# 4 0.000000 0.000001 -0.000001 -0.036596 -0.000001 -0.000011
# 5 0.000000 0.000000 -0.000001 -0.000001 0.016993 -0.000027
# 6 0.000001 0.000015 -0.000025 -0.000011 -0.000027 0.413043
#
#
# Mechanical properties :
#
#
# Convention : Reuss Voigt Hill
#
# Bulk Modulus (GPa) = 90.23712 90.69538 90.46625
# Shear Modulus (GPa) = 10.75447 18.22651 14.49049
#
# Velocity S-wave (km/s) = 2.43716 3.17280 2.82899
# Velocity P-wave (km/s) = 7.59989 7.96956 7.78692
#
# Compressibility (1/GPa) = 0.01108191
#
# Stress axis : x y z
#
# Youngs Moduli (GPa) = 85.19527 68.10450 76.83825
#
# Poissons Ratio (x) = 0.37910 0.23625
# Poissons Ratio (y) = 0.47424 0.42535
# Poissons Ratio (z) = 0.26195 0.37700
#
# Static dielectric constant tensor:
#      x y z
#    x 1.625930 0.000000 0.000000 
#    y 0.000000 1.633090 0.000000 
#    z 0.000000 0.000000 1.666810 
# 
# From -- ./inp_files/7413.got.cif
#   From: 2010.05.17/outbox.cif.g08.bks.cpg/sg74_4_cif.got.tgz:7413.got - 2010.06.03 17:57:02.
