data_PCOD9536678
_publ_section_title
;
Structure prediction by ZEFSAII (Michael W. Deem and Ramdas Pophale) SiO2 
 PCOD9536678
Probable space group: I M M A
;
_chemical_formula_sum "Si O2"
_cell_formula_units_Z 88
_cell_length_a 22.494949
_cell_length_b 29.468958
_cell_length_c 6.777503
_cell_angle_alpha 90.000000
_cell_angle_beta 90.000000
_cell_angle_gamma 90.000000
_cell_volume 4492.825087
_symmetry_space_group_name_H-M "I M M A"
_symmetry_group_IT_number 74
_symmetry_cell_setting 'orthorhombic'
loop_
_space_group_symop_operation_xyz
x,y,z
-x,1/2-y,z
x,-y,-z
-x,1/2+y,-z
-x,-y,-z
x,1/2+y,-z
-x,y,z
x,1/2-y,z
1/2+x,1/2+y,1/2+z
1/2-x,-y,1/2+z
1/2+x,1/2-y,1/2-z
1/2-x,y,1/2-z
1/2-x,1/2-y,1/2-z
1/2+x,y,1/2-z
1/2-x,1/2+y,1/2+z
1/2+x,-y,1/2+z
loop_
_atom_site_type_symbol
_atom_site_label
_atom_site_fract_x
_atom_site_fract_y
_atom_site_fract_z
Si Si1 0.000000 0.963989 0.320876
Si Si2 0.880744 0.452312 0.930482
Si Si3 0.373997 0.625427 0.756819
Si Si4 0.000000 0.300146 0.820587
Si Si5 0.631886 0.302866 0.559774
Si Si6 0.500000 0.868025 0.960580
Si Si7 0.816682 0.622013 0.329526
O O1 0.057325 0.964953 0.178009
O O2 0.000000 0.917024 0.438387
O O3 0.000000 0.000000 0.500000
O O4 0.845440 0.421973 0.773416
O O5 0.853324 0.500000 0.000000
O O6 0.884510 0.418489 0.117939
O O7 0.348734 0.666647 0.625032
O O8 0.439156 0.637414 0.840887
O O9 0.329735 0.617440 0.939121
O O10 0.060163 0.304721 0.942578
O O11 0.000000 0.334620 0.643860
O O12 0.000000 0.250000 0.731890
O O13 0.650063 0.250000 0.560787
O O14 0.652082 0.331785 0.750193
O O15 0.750000 0.624608 0.250000
#
# Coordination Sequence:
#
# PCOD9536678 Si02
#       7
#     8  16  16   8  16   8  16
#     4  12  22  38  66  97 134 165 207 262 332 403
#     4  11  24  42  62  96 127 164 209 266 323 390
#     4  11  22  39  66  90 128 168 212 257 330 385
#     4  10  19  35  59  93 131 159 199 256 317 390
#     4  10  22  40  63  95 129 162 209 264 320 388
#     4  12  18  35  64  91 122 173 193 250 327 390
#     4  11  25  45  64  89 124 170 220 268 311 377
#
# _framework density 19.586784000000002
#
# number of rings (size 3 to 8) (size 9 to 14) (size 15 to 20)
#    0.000    1.091    3.636    3.545    0.000    4.727 
#    3.273    0.909    0.000    0.000    0.000    0.000 
#    0.000    0.000    0.000    0.000    0.000    0.000 
#
# Total GULP energy -245622.784603 kJ/mol
# GULP energy per Si atom -5582.336014 kJ/mol
# Density = 1.954220 g / cm^3
# Si number density = 19.586784 Si / 1000 Ang^3
#
#
#
# Elastic Constant Matrix: (Units=GPa)
#
#
# Indices 1 2 3 4 5 6 
#
# 1 70.1994 16.4677 18.7122 0.0000 0.0000 0.0000
# 2 16.4677 166.0129 69.2706 0.0000 0.0000 0.0000
# 3 18.7122 69.2706 132.5062 0.0000 0.0000 0.0000
# 4 0.0000 0.0000 0.0000 15.5722 0.0000 0.0000
# 5 0.0000 0.0000 0.0000 0.0000 -9.1285 0.0000
# 6 0.0000 0.0000 0.0000 0.0000 0.0000 0.7684
#
#
#
# Elastic Compliance Matrix: (Units=1/GPa)
#
#
# Indices 1 2 3 4 5 6 
#
# 1 0.014878 -0.000766 -0.001700 0.000000 0.000000 0.000000
# 2 -0.000766 0.007744 -0.003940 0.000000 0.000000 0.000000
# 3 -0.001700 -0.003940 0.009847 0.000000 0.000000 0.000000
# 4 0.000000 0.000000 0.000000 0.064217 0.000000 0.000000
# 5 0.000000 0.000000 0.000000 0.000000 -0.109547 0.000000
# 6 0.000000 0.000000 0.000000 0.000000 0.000000 1.301426
#
#
# Mechanical properties :
#
#
# Convention : Reuss Voigt Hill
#
# Bulk Modulus (GPa) = 50.87757 64.17995 57.52876
# Shear Modulus (GPa) = 3.82284 19.06029 11.44157
#
# Velocity S-wave (km/s) = 1.39856 3.12287 2.41954
# Velocity P-wave (km/s) = 5.35162 6.77061 6.10250
#
# Compressibility (1/GPa) = 0.01965503
#
# Stress axis : x y z
#
# Youngs Moduli (GPa) = 67.21259 129.13856 101.55746
#
# Poissons Ratio (x) = 0.09896 0.17269
# Poissons Ratio (y) = 0.05151 0.40013
# Poissons Ratio (z) = 0.11429 0.50880
#
# Static dielectric constant tensor:
#      x y z
#    x 1.717920 0.000000 0.000000 
#    y 0.000000 1.671750 0.000000 
#    z 0.000000 0.000000 1.703180 
# 
# From -- ./inp_files/3981.got.cif
#   From: 2010.05.17/outbox.cif.g08.bks.cpg/sg74_2_cif.got.tgz:3981.got - 2010.06.03 17:57:02.
