data_PCOD9536632
_publ_section_title
;
Structure prediction by ZEFSAII (Michael W. Deem and Ramdas Pophale) SiO2 
 PCOD9536632
Probable space group: I M M A
;
_chemical_formula_sum "Si O2"
_cell_formula_units_Z 72
_cell_length_a 17.927852
_cell_length_b 14.407876
_cell_length_c 10.777155
_cell_angle_alpha 90.000000
_cell_angle_beta 90.000000
_cell_angle_gamma 90.000000
_cell_volume 2783.763585
_symmetry_space_group_name_H-M "I M M A"
_symmetry_group_IT_number 74
_symmetry_cell_setting 'orthorhombic'
loop_
_space_group_symop_operation_xyz
x,y,z
-x,1/2-y,z
x,-y,-z
-x,1/2+y,-z
-x,-y,-z
x,1/2+y,-z
-x,y,z
x,1/2-y,z
1/2+x,1/2+y,1/2+z
1/2-x,-y,1/2+z
1/2+x,1/2-y,1/2-z
1/2-x,y,1/2-z
1/2-x,1/2-y,1/2-z
1/2+x,y,1/2-z
1/2-x,1/2+y,1/2+z
1/2+x,-y,1/2+z
loop_
_atom_site_type_symbol
_atom_site_label
_atom_site_fract_x
_atom_site_fract_y
_atom_site_fract_z
Si Si1 0.267561 0.637114 0.979584
Si Si2 0.915476 0.114008 0.839793
Si Si3 0.576594 0.145631 0.110860
Si Si4 0.750000 0.115704 0.750000
Si Si5 0.612618 0.605102 0.621405
O O1 0.266768 0.750000 0.005618
O O2 0.254116 0.584483 0.108554
O O3 0.346129 0.604485 0.929661
O O4 0.201295 0.619096 0.884664
O O5 0.840567 0.148190 0.766286
O O6 0.000000 0.135523 0.792545
O O7 0.907319 0.002334 0.853507
O O8 0.912120 0.140982 0.986124
O O9 0.500000 0.097569 0.074538
O O10 0.575886 0.250000 0.059446
O O11 0.580337 0.153058 0.258810
#
# Coordination Sequence:
#
# PCOD9536632 Si02
#       5
#    16  16  16   8  16
#     4  10  21  37  57  81 112 151 193 241 288 342
#     4  10  21  37  57  82 114 151 191 234 282 341
#     4  10  20  33  53  83 114 145 184 234 291 341
#     4  10  23  38  58  82 111 156 200 232 284 348
#     4  10  19  35  57  81 109 147 185 235 290 338
#
# _framework density 25.864266000000001
#
# number of rings (size 3 to 8) (size 9 to 14) (size 15 to 20)
#    0.000    2.000    0.000    4.333    3.111    2.667 
#    0.000    0.000    0.000   16.667    0.000    0.000 
#    0.000    0.000    0.000    0.000    0.000    0.000 
#
# Total GULP energy -200486.410092 kJ/mol
# GULP energy per Si atom -5569.066947 kJ/mol
# Density = 2.580540 g / cm^3
# Si number density = 25.864266 Si / 1000 Ang^3
#
#
#
# Elastic Constant Matrix: (Units=GPa)
#
#
# Indices 1 2 3 4 5 6 
#
# 1 305.4646 11.3343 37.7302 0.0000 0.0000 0.0000
# 2 11.3343 113.6651 -0.4886 0.0000 0.0000 0.0000
# 3 37.7302 -0.4886 50.2428 0.0000 0.0000 0.0000
# 4 0.0000 0.0000 0.0000 12.2277 0.0000 0.0000
# 5 0.0000 0.0000 0.0000 0.0000 16.0736 0.0000
# 6 0.0000 0.0000 0.0000 0.0000 0.0000 9.8138
#
#
#
# Elastic Compliance Matrix: (Units=1/GPa)
#
#
# Indices 1 2 3 4 5 6 
#
# 1 0.003624 -0.000373 -0.002725 0.000000 0.000000 0.000000
# 2 -0.000373 0.008837 0.000366 0.000000 0.000000 0.000000
# 3 -0.002725 0.000366 0.021953 0.000000 0.000000 0.000000
# 4 0.000000 0.000000 0.000000 0.081782 0.000000 0.000000
# 5 0.000000 0.000000 0.000000 0.000000 0.062214 0.000000
# 6 0.000000 0.000000 0.000000 0.000000 0.000000 0.101898
#
#
# Mechanical properties :
#
#
# Convention : Reuss Voigt Hill
#
# Bulk Modulus (GPa) = 34.54261 62.94714 48.74488
# Shear Modulus (GPa) = 16.92497 35.67611 26.30054
#
# Velocity S-wave (km/s) = 2.56085 3.71800 3.19230
# Velocity P-wave (km/s) = 4.70407 6.54383 5.69868
#
# Compressibility (1/GPa) = 0.02894975
#
# Stress axis : x y z
#
# Youngs Moduli (GPa) = 275.92616 113.16630 45.55092
#
# Poissons Ratio (x) = 0.04222 0.12414
# Poissons Ratio (y) = 0.10295 -0.01668
# Poissons Ratio (z) = 0.75196 -0.04143
#
# Static dielectric constant tensor:
#      x y z
#    x 2.110830 0.000000 0.000000 
#    y 0.000000 2.093060 0.000000 
#    z 0.000000 0.000000 1.964160 
# 
# From -- ./inp_files/21850.got.cif
#   From: 2010.05.17/outbox.cif.g08.bks.cpg/sg74_11_cif.got.tgz:21850.got - 2010.06.03 17:57:02.
