data_PCOD9536815
_publ_section_title
;
Structure prediction by ZEFSAII (Michael W. Deem and Ramdas Pophale) SiO2 
 PCOD9536815
Probable space group: I M M A
;
_chemical_formula_sum "Si O2"
_cell_formula_units_Z 96
_cell_length_a 25.899429
_cell_length_b 8.614224
_cell_length_c 24.266615
_cell_angle_alpha 90.000000
_cell_angle_beta 90.000000
_cell_angle_gamma 90.000000
_cell_volume 5413.966324
_symmetry_space_group_name_H-M "I M M A"
_symmetry_group_IT_number 74
_symmetry_cell_setting 'orthorhombic'
loop_
_space_group_symop_operation_xyz
x,y,z
-x,1/2-y,z
x,-y,-z
-x,1/2+y,-z
-x,-y,-z
x,1/2+y,-z
-x,y,z
x,1/2-y,z
1/2+x,1/2+y,1/2+z
1/2-x,-y,1/2+z
1/2+x,1/2-y,1/2-z
1/2-x,y,1/2-z
1/2-x,1/2-y,1/2-z
1/2+x,y,1/2-z
1/2-x,1/2+y,1/2+z
1/2+x,-y,1/2+z
loop_
_atom_site_type_symbol
_atom_site_label
_atom_site_fract_x
_atom_site_fract_y
_atom_site_fract_z
Si Si1 0.750701 0.063419 0.561532
Si Si2 0.059988 0.564078 0.439536
Si Si3 0.652493 0.934640 0.871040
Si Si4 0.652737 0.438973 0.635656
Si Si5 0.059142 0.062335 0.939515
Si Si6 0.310769 0.937684 0.245096
O O1 0.752132 0.250000 0.560387
O O2 0.701783 0.014444 0.598660
O O3 0.745715 0.000000 0.500000
O O4 0.802488 0.002374 0.590055
O O5 0.074457 0.500000 0.500000
O O6 0.063958 0.750000 0.440325
O O7 0.098358 0.496549 0.394266
O O8 0.000000 0.521564 0.429740
O O9 0.653468 0.750000 0.873783
O O10 0.664671 0.990592 0.809334
O O11 0.652451 0.250000 0.636300
O O12 0.600292 0.490385 0.605918
O O13 0.661369 0.488203 0.698523
O O14 0.060327 0.250000 0.941400
O O15 0.000000 0.014294 0.928006
O O16 0.073389 0.000000 0.000000
O O17 0.313646 0.750000 0.240691
O O18 0.250000 0.977387 0.250000
#
# Coordination Sequence:
#
# PCOD9536815 Si02
#       6
#    16  16  16  16  16  16
#     4  11  21  35  53  78 109 142 180 226 279 332
#     4  10  21  39  63  88 114 147 186 228 277 334
#     4  12  24  37  55  82 114 147 184 229 277 332
#     4   9  18  33  54  77 104 140 182 224 273 326
#     4   9  17  31  52  78 107 138 173 215 264 320
#     4  10  19  37  59  77 104 148 190 231 278 329
#
# _framework density 17.731918
#
# number of rings (size 3 to 8) (size 9 to 14) (size 15 to 20)
#    0.000    1.833    1.667    3.500    0.000    1.333 
#    0.000    2.500    0.000    3.000    0.000    0.000 
#    0.000    0.000    0.000    0.000    0.000    0.000 
#
# Total GULP energy -268086.892215 kJ/mol
# GULP energy per Si atom -5585.143588 kJ/mol
# Density = 1.769156 g / cm^3
# Si number density = 17.731918 Si / 1000 Ang^3
#
#
#
# Elastic Constant Matrix: (Units=GPa)
#
#
# Indices 1 2 3 4 5 6 
#
# 1 104.9059 36.6593 80.3931 0.0000 0.0000 0.0000
# 2 36.6593 47.4839 44.6584 0.0000 0.0000 0.0000
# 3 80.3931 44.6584 158.6203 0.0000 0.0000 0.0000
# 4 0.0000 0.0000 0.0000 33.0160 0.0000 0.0000
# 5 0.0000 0.0000 0.0000 0.0000 29.5536 0.0000
# 6 0.0000 0.0000 0.0000 0.0000 0.0000 12.0296
#
#
#
# Elastic Compliance Matrix: (Units=1/GPa)
#
#
# Indices 1 2 3 4 5 6 
#
# 1 0.017086 -0.006864 -0.006727 0.000000 0.000000 0.000000
# 2 -0.006864 0.031402 -0.005362 0.000000 0.000000 0.000000
# 3 -0.006727 -0.005362 0.011224 0.000000 0.000000 0.000000
# 4 0.000000 0.000000 0.000000 0.030288 0.000000 0.000000
# 5 0.000000 0.000000 0.000000 0.000000 0.033837 0.000000
# 6 0.000000 0.000000 0.000000 0.000000 0.000000 0.083128
#
#
# Mechanical properties :
#
#
# Convention : Reuss Voigt Hill
#
# Bulk Modulus (GPa) = 45.86122 70.49242 58.17682
# Shear Modulus (GPa) = 19.83013 24.87312 22.35162
#
# Velocity S-wave (km/s) = 3.34777 3.74937 3.55425
# Velocity P-wave (km/s) = 6.39244 7.65405 7.05152
#
# Compressibility (1/GPa) = 0.02180492
#
# Stress axis : x y z
#
# Youngs Moduli (GPa) = 58.52588 31.84483 89.09833
#
# Poissons Ratio (x) = 0.21860 0.59939
# Poissons Ratio (y) = 0.40175 0.47775
# Poissons Ratio (z) = 0.39372 0.17075
#
# Static dielectric constant tensor:
#      x y z
#    x 1.600730 0.000000 0.000000 
#    y 0.000000 1.600050 0.000000 
#    z 0.000000 0.000000 1.573910 
# 
# From -- ./inp_files/57488.got.cif
#   From: 2010.05.17/outbox.cif.g08.bks.cpg/sg74_29_cif.got.tgz:57488.got - 2010.06.03 17:57:02.
