data_PCOD9536080
_publ_section_title
;
Structure prediction by ZEFSAII (Michael W. Deem and Ramdas Pophale) SiO2 
 PCOD9536080
Probable space group: I M M A
;
_chemical_formula_sum "Si O2"
_cell_formula_units_Z 104
_cell_length_a 28.688414
_cell_length_b 8.882058
_cell_length_c 21.437431
_cell_angle_alpha 90.000000
_cell_angle_beta 90.000000
_cell_angle_gamma 90.000000
_cell_volume 5462.518035
_symmetry_space_group_name_H-M "I M M A"
_symmetry_group_IT_number 74
_symmetry_cell_setting 'orthorhombic'
loop_
_space_group_symop_operation_xyz
x,y,z
-x,1/2-y,z
x,-y,-z
-x,1/2+y,-z
-x,-y,-z
x,1/2+y,-z
-x,y,z
x,1/2-y,z
1/2+x,1/2+y,1/2+z
1/2-x,-y,1/2+z
1/2+x,1/2-y,1/2-z
1/2-x,y,1/2-z
1/2-x,1/2-y,1/2-z
1/2+x,y,1/2-z
1/2-x,1/2+y,1/2+z
1/2+x,-y,1/2+z
loop_
_atom_site_type_symbol
_atom_site_label
_atom_site_fract_x
_atom_site_fract_y
_atom_site_fract_z
Si Si1 0.863832 0.068473 0.659756
Si Si2 0.868529 0.567371 0.797147
Si Si3 0.446525 0.069275 0.933302
Si Si4 0.306151 0.920798 0.401515
Si Si5 0.117633 0.500000 0.000000
Si Si6 0.709330 0.569927 0.934572
Si Si7 0.051820 0.924833 0.886942
O O1 0.860039 0.250000 0.662833
O O2 0.910505 0.028452 0.620835
O O3 0.865336 0.997985 0.728247
O O4 0.821264 0.999032 0.620817
O O5 0.866648 0.750000 0.796998
O O6 0.828014 0.502209 0.841432
O O7 0.916175 0.512753 0.831358
O O8 0.500000 0.022777 0.919844
O O9 0.445707 0.250000 0.939236
O O10 0.433057 0.000000 0.000000
O O11 0.291494 0.750000 0.387525
O O12 0.346356 0.914682 0.454507
O O13 0.262460 0.016270 0.425271
O O14 0.082364 0.571695 0.949967
O O15 0.706372 0.750000 0.936203
O O16 0.692554 0.500000 0.000000
O O17 0.046289 0.750000 0.871721
O O18 0.000000 0.992128 0.894077
#
# Coordination Sequence:
#
# PCOD9536080 Si02
#       7
#    16  16  16  16   8  16  16
#     4  11  23  40  61  86 119 156 197 245 298 354
#     4  10  22  39  58  83 117 158 203 248 298 355
#     4   9  19  36  59  87 117 150 189 236 290 350
#     4  11  22  38  61  87 118 156 201 247 298 355
#     4  10  19  32  58  86 122 156 203 248 302 352
#     4  12  25  41  63  91 122 154 194 243 297 355
#     4   9  18  33  54  83 119 158 201 249 299 353
#
# _framework density 19.038838999999999
#
# number of rings (size 3 to 8) (size 9 to 14) (size 15 to 20)
#    0.000    1.692    0.769    3.923    0.000    4.923 
#    0.000    3.077    0.000    8.769    0.000    0.000 
#    0.000    0.000    0.000    0.000    0.000    0.000 
#
# Total GULP energy -290107.585944 kJ/mol
# GULP energy per Si atom -5578.992037 kJ/mol
# Density = 1.899551 g / cm^3
# Si number density = 19.038839 Si / 1000 Ang^3
#
#
#
# Elastic Constant Matrix: (Units=GPa)
#
#
# Indices 1 2 3 4 5 6 
#
# 1 90.7875 26.8669 65.2414 0.0000 0.0000 0.0000
# 2 26.8669 91.7893 48.5021 0.0000 0.0000 0.0000
# 3 65.2414 48.5021 169.4263 0.0000 0.0000 0.0000
# 4 0.0000 0.0000 0.0000 18.8599 0.0000 0.0000
# 5 0.0000 0.0000 0.0000 0.0000 -13.1859 0.0000
# 6 0.0000 0.0000 0.0000 0.0000 0.0000 20.9057
#
#
#
# Elastic Compliance Matrix: (Units=1/GPa)
#
#
# Indices 1 2 3 4 5 6 
#
# 1 0.015431 -0.001622 -0.005478 0.000000 0.000000 0.000000
# 2 -0.001622 0.013007 -0.003099 0.000000 0.000000 0.000000
# 3 -0.005478 -0.003099 0.008899 0.000000 0.000000 0.000000
# 4 0.000000 0.000000 0.000000 0.053023 0.000000 0.000000
# 5 0.000000 0.000000 0.000000 0.000000 -0.075839 0.000000
# 6 0.000000 0.000000 0.000000 0.000000 0.000000 0.047834
#
#
# Mechanical properties :
#
#
# Convention : Reuss Voigt Hill
#
# Bulk Modulus (GPa) = 59.03499 70.35818 64.69659
# Shear Modulus (GPa) = 56.56218 19.40879 37.98549
#
# Velocity S-wave (km/s) = 5.45649 3.19632 4.47156
# Velocity P-wave (km/s) = 8.41265 7.11739 7.79198
#
# Compressibility (1/GPa) = 0.01693911
#
# Stress axis : x y z
#
# Youngs Moduli (GPa) = 64.80376 76.88298 112.37608
#
# Poissons Ratio (x) = 0.12473 0.61556
# Poissons Ratio (y) = 0.10513 0.34823
# Poissons Ratio (z) = 0.35498 0.23824
#
# Static dielectric constant tensor:
#      x y z
#    x 1.696890 0.000000 0.000000 
#    y 0.000000 1.654900 0.000000 
#    z 0.000000 0.000000 1.632160 
# 
# From -- ./inp_files/55261.got.cif
#   From: 2010.05.17/outbox.cif.g08.bks.cpg/sg74_28_cif.got.tgz:55261.got - 2010.06.03 17:57:02.
