data_PCOD9536565
_publ_section_title
;
Structure prediction by ZEFSAII (Michael W. Deem and Ramdas Pophale) SiO2 
 PCOD9536565
Probable space group: I M M A
;
_chemical_formula_sum "Si O2"
_cell_formula_units_Z 96
_cell_length_a 15.672042
_cell_length_b 19.968822
_cell_length_c 14.974878
_cell_angle_alpha 90.000000
_cell_angle_beta 90.000000
_cell_angle_gamma 90.000000
_cell_volume 4686.421271
_symmetry_space_group_name_H-M "I M M A"
_symmetry_group_IT_number 74
_symmetry_cell_setting 'orthorhombic'
loop_
_space_group_symop_operation_xyz
x,y,z
-x,1/2-y,z
x,-y,-z
-x,1/2+y,-z
-x,-y,-z
x,1/2+y,-z
-x,y,z
x,1/2-y,z
1/2+x,1/2+y,1/2+z
1/2-x,-y,1/2+z
1/2+x,1/2-y,1/2-z
1/2-x,y,1/2-z
1/2-x,1/2-y,1/2-z
1/2+x,y,1/2-z
1/2-x,1/2+y,1/2+z
1/2+x,-y,1/2+z
loop_
_atom_site_type_symbol
_atom_site_label
_atom_site_fract_x
_atom_site_fract_y
_atom_site_fract_z
Si Si1 0.739605 0.325171 0.958949
Si Si2 0.303831 0.324095 0.157821
Si Si3 0.401438 0.600374 0.148731
Si Si4 0.404951 0.641373 0.345976
Si Si5 0.093544 0.012051 0.091774
Si Si6 0.652190 0.541263 0.774693
O O1 0.706406 0.250000 0.942528
O O2 0.669979 0.376850 0.921122
O O3 0.828553 0.332007 0.906317
O O4 0.749225 0.332004 0.065931
O O5 0.345282 0.250000 0.152656
O O6 0.250000 0.324246 0.250000
O O7 0.357373 0.392026 0.167115
O O8 0.500000 0.609975 0.120778
O O9 0.387338 0.643412 0.240007
O O10 0.388267 0.522854 0.177313
O O11 0.500000 0.668975 0.363742
O O12 0.409876 0.562170 0.367470
O O13 0.000000 0.038486 0.065790
O O14 0.119217 0.056136 0.175094
O O15 0.144703 0.000000 0.000000
O O16 0.750000 0.523161 0.750000
#
# Coordination Sequence:
#
# PCOD9536565 Si02
#       6
#    16  16  16  16  16  16
#     4  11  23  39  61  86 120 164 209 251 304 369
#     4   9  21  40  59  85 119 160 206 255 304 356
#     4  10  21  39  59  88 127 158 198 252 307 369
#     4   9  19  35  58  90 124 153 191 247 305 368
#     4   9  18  32  54  84 118 150 187 241 303 365
#     4  10  19  34  59  89 116 156 195 253 306 364
#
# _framework density 20.484714
#
# number of rings (size 3 to 8) (size 9 to 14) (size 15 to 20)
#    0.000    2.333    0.000    4.000    4.667    2.667 
#    0.000    4.167    0.000    5.000    0.000    4.667 
#    0.000    0.000    0.000    0.000    0.000    0.000 
#
# Total GULP energy -267204.651830 kJ/mol
# GULP energy per Si atom -5566.763580 kJ/mol
# Density = 2.043809 g / cm^3
# Si number density = 20.484714 Si / 1000 Ang^3
#
#
#
# Elastic Constant Matrix: (Units=GPa)
#
#
# Indices 1 2 3 4 5 6 
#
# 1 81.4423 19.3773 46.0424 0.0000 0.0000 0.0000
# 2 19.3773 87.5661 32.1310 0.0000 0.0000 0.0000
# 3 46.0424 32.1310 106.0133 0.0000 0.0000 0.0000
# 4 0.0000 0.0000 0.0000 26.4340 0.0000 0.0000
# 5 0.0000 0.0000 0.0000 0.0000 19.0548 0.0000
# 6 0.0000 0.0000 0.0000 0.0000 0.0000 25.6643
#
#
#
# Elastic Compliance Matrix: (Units=1/GPa)
#
#
# Indices 1 2 3 4 5 6 
#
# 1 0.016375 -0.001141 -0.006766 0.000000 0.000000 0.000000
# 2 -0.001141 0.012928 -0.003423 0.000000 0.000000 0.000000
# 3 -0.006766 -0.003423 0.013409 0.000000 0.000000 0.000000
# 4 0.000000 0.000000 0.000000 0.037830 0.000000 0.000000
# 5 0.000000 0.000000 0.000000 0.000000 0.052480 0.000000
# 6 0.000000 0.000000 0.000000 0.000000 0.000000 0.038965
#
#
# Mechanical properties :
#
#
# Convention : Reuss Voigt Hill
#
# Bulk Modulus (GPa) = 49.86890 52.23590 51.05240
# Shear Modulus (GPa) = 24.83471 26.06203 25.44837
#
# Velocity S-wave (km/s) = 3.48566 3.57076 3.52847
# Velocity P-wave (km/s) = 6.37159 6.52347 6.44798
#
# Compressibility (1/GPa) = 0.02005258
#
# Stress axis : x y z
#
# Youngs Moduli (GPa) = 61.06790 77.34916 74.57815
#
# Poissons Ratio (x) = 0.08825 0.50460
# Poissons Ratio (y) = 0.06967 0.25527
# Poissons Ratio (z) = 0.41319 0.26476
#
# Static dielectric constant tensor:
#      x y z
#    x 1.640170 0.000000 0.000000 
#    y 0.000000 1.782210 0.000000 
#    z 0.000000 0.000000 1.880870 
# 
# From -- ./inp_files/32318.got.cif
#   From: 2010.05.17/outbox.cif.g08.bks.cpg/sg74_17_cif.got.tgz:32318.got - 2010.06.03 17:57:02.
