data_PCOD9536059
_publ_section_title
;
Structure prediction by ZEFSAII (Michael W. Deem and Ramdas Pophale) SiO2 
 PCOD9536059
Probable space group: I M M A
;
_chemical_formula_sum "Si O2"
_cell_formula_units_Z 96
_cell_length_a 31.140531
_cell_length_b 14.602446
_cell_length_c 10.516310
_cell_angle_alpha 90.000000
_cell_angle_beta 90.000000
_cell_angle_gamma 90.000000
_cell_volume 4782.059797
_symmetry_space_group_name_H-M "I M M A"
_symmetry_group_IT_number 74
_symmetry_cell_setting 'orthorhombic'
loop_
_space_group_symop_operation_xyz
x,y,z
-x,1/2-y,z
x,-y,-z
-x,1/2+y,-z
-x,-y,-z
x,1/2+y,-z
-x,y,z
x,1/2-y,z
1/2+x,1/2+y,1/2+z
1/2-x,-y,1/2+z
1/2+x,1/2-y,1/2-z
1/2-x,y,1/2-z
1/2-x,1/2-y,1/2-z
1/2+x,y,1/2-z
1/2-x,1/2+y,1/2+z
1/2+x,-y,1/2+z
loop_
_atom_site_type_symbol
_atom_site_label
_atom_site_fract_x
_atom_site_fract_y
_atom_site_fract_z
Si Si1 0.453166 0.577193 0.610521
Si Si2 0.221301 0.861564 0.371064
Si Si3 0.727391 0.862127 0.621249
Si Si4 0.952373 0.544426 0.361298
Si Si5 0.863037 0.858039 0.978491
Si Si6 0.368601 0.360213 0.768699
O O1 0.453347 0.500000 0.500000
O O2 0.500000 0.625179 0.599538
O O3 0.451441 0.530681 0.748763
O O4 0.409015 0.629936 0.587253
O O5 0.220458 0.750000 0.373717
O O6 0.250000 0.887029 0.250000
O O7 0.244177 0.890010 0.500349
O O8 0.172772 0.893073 0.347319
O O9 0.727045 0.750000 0.625580
O O10 0.750000 0.893676 0.750000
O O11 0.678409 0.893569 0.597820
O O12 0.947777 0.500000 0.500000
O O13 0.913028 0.610134 0.330840
O O14 0.000000 0.588124 0.354901
O O15 0.855223 0.750000 0.992553
O O16 0.865582 0.895140 0.122862
O O17 0.367064 0.250000 0.764592
#
# Coordination Sequence:
#
# PCOD9536059 Si02
#       6
#    16  16  16  16  16  16
#     4  10  20  36  57  79 106 144 182 217 272 338
#     4   9  15  27  48  74 105 139 175 214 263 321
#     4   9  17  29  47  75 110 144 176 216 267 321
#     4  10  22  40  58  78 109 148 183 219 276 345
#     4  10  19  32  55  86 113 139 182 236 273 306
#     4  10  19  32  57  87 108 137 185 235 272 310
#
# _framework density 20.075030999999999
#
# number of rings (size 3 to 8) (size 9 to 14) (size 15 to 20)
#    0.000    2.333    3.333    0.000    0.000    2.000 
#    0.000    4.167    0.000    9.000    0.000    0.000 
#    0.000    0.000    0.000    0.000    0.000    0.000 
#
# Total GULP energy -267828.571078 kJ/mol
# GULP energy per Si atom -5579.761897 kJ/mol
# Density = 2.002934 g / cm^3
# Si number density = 20.075031 Si / 1000 Ang^3
#
#
#
# Elastic Constant Matrix: (Units=GPa)
#
#
# Indices 1 2 3 4 5 6 
#
# 1 226.4366 22.4111 84.9613 0.0000 0.0000 0.0000
# 2 22.4111 26.4901 10.3472 0.0000 0.0000 0.0000
# 3 84.9613 10.3472 159.7583 0.0000 0.0000 0.0000
# 4 0.0000 0.0000 0.0000 4.2449 0.0000 0.0000
# 5 0.0000 0.0000 0.0000 0.0000 33.1451 0.0000
# 6 0.0000 0.0000 0.0000 0.0000 0.0000 68.7191
#
#
#
# Elastic Compliance Matrix: (Units=1/GPa)
#
#
# Indices 1 2 3 4 5 6 
#
# 1 0.005876 -0.003848 -0.002876 0.000000 0.000000 0.000000
# 2 -0.003848 0.041250 -0.000625 0.000000 0.000000 0.000000
# 3 -0.002876 -0.000625 0.007829 0.000000 0.000000 0.000000
# 4 0.000000 0.000000 0.000000 0.235578 0.000000 0.000000
# 5 0.000000 0.000000 0.000000 0.000000 0.030170 0.000000
# 6 0.000000 0.000000 0.000000 0.000000 0.000000 0.014552
#
#
# Mechanical properties :
#
#
# Convention : Reuss Voigt Hill
#
# Bulk Modulus (GPa) = 24.84033 72.01380 48.42706
# Shear Modulus (GPa) = 13.75996 40.88616 27.32306
#
# Velocity S-wave (km/s) = 2.62091 4.51784 3.69324
# Velocity P-wave (km/s) = 4.64322 7.94762 6.50862
#
# Compressibility (1/GPa) = 0.04025712
#
# Stress axis : x y z
#
# Youngs Moduli (GPa) = 170.18059 24.24260 127.72516
#
# Poissons Ratio (x) = 0.09329 0.36731
# Poissons Ratio (y) = 0.65486 0.07986
# Poissons Ratio (z) = 0.48940 0.01516
#
# Static dielectric constant tensor:
#      x y z
#    x 1.718020 0.000000 0.000000 
#    y 0.000000 1.737640 0.000000 
#    z 0.000000 0.000000 1.682180 
# 
# From -- ./inp_files/12658.got.cif
#   From: 2010.05.17/outbox.cif.g08.bks.cpg/sg74_7_cif.got.tgz:12658.got - 2010.06.03 17:57:02.
