data_PCOD9536103
_publ_section_title
;
Structure prediction by ZEFSAII (Michael W. Deem and Ramdas Pophale) SiO2 
 PCOD9536103
Probable space group: I M M A
;
_chemical_formula_sum "Si O2"
_cell_formula_units_Z 120
_cell_length_a 9.382332
_cell_length_b 27.845852
_cell_length_c 27.067296
_cell_angle_alpha 90.000000
_cell_angle_beta 90.000000
_cell_angle_gamma 90.000000
_cell_volume 7071.575451
_symmetry_space_group_name_H-M "I M M A"
_symmetry_group_IT_number 74
_symmetry_cell_setting 'orthorhombic'
loop_
_space_group_symop_operation_xyz
x,y,z
-x,1/2-y,z
x,-y,-z
-x,1/2+y,-z
-x,-y,-z
x,1/2+y,-z
-x,y,z
x,1/2-y,z
1/2+x,1/2+y,1/2+z
1/2-x,-y,1/2+z
1/2+x,1/2-y,1/2-z
1/2-x,y,1/2-z
1/2-x,1/2-y,1/2-z
1/2+x,y,1/2-z
1/2-x,1/2+y,1/2+z
1/2+x,-y,1/2+z
loop_
_atom_site_type_symbol
_atom_site_label
_atom_site_fract_x
_atom_site_fract_y
_atom_site_fract_z
Si Si1 0.668658 0.939528 0.408824
Si Si2 0.250000 0.128314 0.250000
Si Si3 0.340326 0.306062 0.337980
Si Si4 0.344134 0.545622 0.818125
Si Si5 0.331403 0.952541 0.297780
Si Si6 0.330963 0.115266 0.495361
Si Si7 0.166871 0.807410 0.565057
Si Si8 0.166739 0.962881 0.568714
O O1 0.500000 0.953230 0.411178
O O2 0.701624 0.929568 0.351335
O O3 0.689557 0.895984 0.446668
O O4 0.763511 0.984467 0.426690
O O5 0.328122 0.162016 0.289290
O O6 0.339344 0.091976 0.216070
O O7 0.500000 0.311172 0.358840
O O8 0.318597 0.250000 0.325144
O O9 0.229019 0.319108 0.380645
O O10 0.500000 0.521736 0.813103
O O11 0.222818 0.507573 0.804073
O O12 0.326185 0.558124 0.875594
O O13 0.500000 0.951152 0.290124
O O14 0.250000 0.932652 0.250000
O O15 0.500000 0.116479 0.485303
O O16 0.254700 0.162536 0.474895
O O17 0.257823 0.070838 0.466710
O O18 0.183118 0.750000 0.558492
O O19 0.000000 0.819655 0.562521
O O20 0.000000 0.965211 0.554382
#
# Coordination Sequence:
#
# PCOD9536103 Si02
#       8
#    16   8  16  16  16  16  16  16
#     4   9  20  35  50  73 104 138 172 208 248 296
#     4  12  21  30  50  72  96 120 166 218 263 296
#     4  10  22  38  53  70  93 126 167 209 262 322
#     4  10  21  33  45  65  92 124 165 206 249 294
#     4  10  19  33  51  69  97 132 167 201 237 278
#     4  11  21  34  54  77 102 132 168 206 251 309
#     4  10  22  40  59  77  99 128 164 212 269 321
#     4  10  20  33  49  71 102 137 172 212 257 302
#
# _framework density 16.969345000000001
#
# number of rings (size 3 to 8) (size 9 to 14) (size 15 to 20)
#    0.000    1.867    0.667    3.400    0.000    7.200 
#    0.000    1.333    0.000    0.000    0.000    0.000 
#    0.000    0.533    0.000    1.200    0.000    2.133 
#
# Total GULP energy -334839.500794 kJ/mol
# GULP energy per Si atom -5580.658347 kJ/mol
# Density = 1.693072 g / cm^3
# Si number density = 16.969345 Si / 1000 Ang^3
#
#
#
# Elastic Constant Matrix: (Units=GPa)
#
#
# Indices 1 2 3 4 5 6 
#
# 1 102.2866 34.2552 58.8601 0.0000 0.0000 0.0000
# 2 34.2552 44.8104 47.1838 0.0000 0.0000 0.0000
# 3 58.8601 47.1838 124.4365 0.0000 0.0000 0.0000
# 4 0.0000 0.0000 0.0000 34.3185 0.0000 0.0000
# 5 0.0000 0.0000 0.0000 0.0000 21.3884 0.0000
# 6 0.0000 0.0000 0.0000 0.0000 0.0000 20.2073
#
#
#
# Elastic Compliance Matrix: (Units=1/GPa)
#
#
# Indices 1 2 3 4 5 6 
#
# 1 0.014461 -0.006412 -0.004409 0.000000 0.000000 0.000000
# 2 -0.006412 0.039992 -0.012131 0.000000 0.000000 0.000000
# 3 -0.004409 -0.012131 0.014721 0.000000 0.000000 0.000000
# 4 0.000000 0.000000 0.000000 0.029139 0.000000 0.000000
# 5 0.000000 0.000000 0.000000 0.000000 0.046754 0.000000
# 6 0.000000 0.000000 0.000000 0.000000 0.000000 0.049487
#
#
# Mechanical properties :
#
#
# Convention : Reuss Voigt Hill
#
# Bulk Modulus (GPa) = 42.97393 61.34795 52.16094
# Shear Modulus (GPa) = 20.14386 23.93179 22.03783
#
# Velocity S-wave (km/s) = 3.44913 3.75946 3.60764
# Velocity P-wave (km/s) = 6.42195 7.42128 6.93963
#
# Compressibility (1/GPa) = 0.02326992
#
# Stress axis : x y z
#
# Youngs Moduli (GPa) = 69.15197 25.00531 67.92825
#
# Poissons Ratio (x) = 0.16034 0.29948
# Poissons Ratio (y) = 0.44342 0.82403
# Poissons Ratio (z) = 0.30488 0.30334
#
# Static dielectric constant tensor:
#      x y z
#    x 1.591860 0.000000 0.000000 
#    y 0.000000 1.555100 0.000000 
#    z 0.000000 0.000000 1.603930 
# 
# From -- ./inp_files/65101.got.cif
#   From: 2010.05.17/outbox.cif.g08.bks.cpg/sg74_33_cif.got.tgz:65101.got - 2010.06.03 17:57:02.
