data_PCOD9536256
_publ_section_title
;
Structure prediction by ZEFSAII (Michael W. Deem and Ramdas Pophale) SiO2 
 PCOD9536256
Probable space group: I M M A
;
_chemical_formula_sum "Si O2"
_cell_formula_units_Z 112
_cell_length_a 20.675737
_cell_length_b 23.579179
_cell_length_c 12.159443
_cell_angle_alpha 90.000000
_cell_angle_beta 90.000000
_cell_angle_gamma 90.000000
_cell_volume 5927.934002
_symmetry_space_group_name_H-M "I M M A"
_symmetry_group_IT_number 74
_symmetry_cell_setting 'orthorhombic'
loop_
_space_group_symop_operation_xyz
x,y,z
-x,1/2-y,z
x,-y,-z
-x,1/2+y,-z
-x,-y,-z
x,1/2+y,-z
-x,y,z
x,1/2-y,z
1/2+x,1/2+y,1/2+z
1/2-x,-y,1/2+z
1/2+x,1/2-y,1/2-z
1/2-x,y,1/2-z
1/2-x,1/2-y,1/2-z
1/2+x,y,1/2-z
1/2-x,1/2+y,1/2+z
1/2+x,-y,1/2+z
loop_
_atom_site_type_symbol
_atom_site_label
_atom_site_fract_x
_atom_site_fract_y
_atom_site_fract_z
Si Si1 0.075118 0.482398 0.187948
Si Si2 0.174615 0.510491 0.621469
Si Si3 0.655284 0.682870 0.711569
Si Si4 0.778241 0.630675 0.589160
Si Si5 0.076332 0.620053 0.953107
Si Si6 0.075372 0.117903 0.810476
Si Si7 0.696691 0.619022 0.163226
O O1 0.120364 0.471991 0.292000
O O2 0.098045 0.442216 0.088536
O O3 0.076870 0.549749 0.169701
O O4 0.000000 0.467708 0.209321
O O5 0.145878 0.500000 0.500000
O O6 0.223830 0.562780 0.610194
O O7 0.202698 0.449788 0.655841
O O8 0.659041 0.750000 0.719615
O O9 0.713427 0.659298 0.634562
O O10 0.666286 0.655757 0.831257
O O11 0.592853 0.661557 0.646575
O O12 0.791872 0.640293 0.460730
O O13 0.000000 0.616095 0.971085
O O14 0.101314 0.640355 0.071826
O O15 0.125450 0.130934 0.713094
O O16 0.000000 0.133621 0.788567
O O17 0.750000 0.639674 0.250000
#
# Coordination Sequence:
#
# PCOD9536256 Si02
#       7
#    16  16  16  16  16  16  16
#     4   9  16  28  47  76 112 147 180 209 252 321
#     4   9  18  30  46  75 110 145 175 207 259 321
#     4  11  23  38  59  78  98 138 182 229 283 314
#     4  10  20  36  53  74 107 136 175 223 262 320
#     4  10  19  33  55  80 108 140 178 226 268 310
#     4   9  18  32  52  81 116 149 178 209 259 327
#     4  10  20  32  52  81 112 145 177 211 259 324
#
# _framework density 18.893597
#
# number of rings (size 3 to 8) (size 9 to 14) (size 15 to 20)
#    0.000    2.286    1.429    2.143    2.000    2.286 
#    0.000    5.714    0.000    7.714    0.000    0.000 
#    0.000    0.000    0.000    0.000    0.000    0.000 
#
# Total GULP energy -312121.340147 kJ/mol
# GULP energy per Si atom -5573.595360 kJ/mol
# Density = 1.885059 g / cm^3
# Si number density = 18.893597 Si / 1000 Ang^3
#
#
#
# Elastic Constant Matrix: (Units=GPa)
#
#
# Indices 1 2 3 4 5 6 
#
# 1 38.6547 3.9226 43.4319 0.0000 0.0000 0.0000
# 2 3.9226 34.4842 11.5713 0.0000 0.0000 0.0000
# 3 43.4319 11.5713 159.7063 0.0000 0.0000 0.0000
# 4 0.0000 0.0000 0.0000 11.3221 0.0000 0.0000
# 5 0.0000 0.0000 0.0000 0.0000 24.0941 0.0000
# 6 0.0000 0.0000 0.0000 0.0000 0.0000 -38.7446
#
#
#
# Elastic Compliance Matrix: (Units=1/GPa)
#
#
# Indices 1 2 3 4 5 6 
#
# 1 0.037278 -0.000860 -0.010075 0.000000 0.000000 0.000000
# 2 -0.000860 0.029741 -0.001921 0.000000 0.000000 0.000000
# 3 -0.010075 -0.001921 0.009141 0.000000 0.000000 0.000000
# 4 0.000000 0.000000 0.000000 0.088323 0.000000 0.000000
# 5 0.000000 0.000000 0.000000 0.000000 0.041504 0.000000
# 6 0.000000 0.000000 0.000000 0.000000 0.000000 -0.025810
#
#
# Mechanical properties :
#
#
# Convention : Reuss Voigt Hill
#
# Bulk Modulus (GPa) = 19.82250 38.96629 29.39440
# Shear Modulus (GPa) = 22.45132 10.92897 16.69015
#
# Velocity S-wave (km/s) = 3.45092 2.40770 2.97539
# Velocity P-wave (km/s) = 5.13740 5.32900 5.23408
#
# Compressibility (1/GPa) = 0.05044773
#
# Stress axis : x y z
#
# Youngs Moduli (GPa) = 26.82559 33.62336 109.40118
#
# Poissons Ratio (x) = 0.02890 1.10226
# Poissons Ratio (y) = 0.02306 0.21017
# Poissons Ratio (z) = 0.27028 0.06459
#
# Static dielectric constant tensor:
#      x y z
#    x 1.678100 0.000000 0.000000 
#    y 0.000000 1.655500 0.000000 
#    z 0.000000 0.000000 1.704500 
# 
# From -- ./inp_files/25417.got.cif
#   From: 2010.05.17/outbox.cif.g08.bks.cpg/sg74_13_cif.got.tgz:25417.got - 2010.06.03 17:57:02.
