data_PCOD9536396
_publ_section_title
;
Structure prediction by ZEFSAII (Michael W. Deem and Ramdas Pophale) SiO2 
 PCOD9536396
Probable space group: I M M A
;
_chemical_formula_sum "Si O2"
_cell_formula_units_Z 88
_cell_length_a 19.306957
_cell_length_b 18.779225
_cell_length_c 13.153764
_cell_angle_alpha 90.000000
_cell_angle_beta 90.000000
_cell_angle_gamma 90.000000
_cell_volume 4769.156130
_symmetry_space_group_name_H-M "I M M A"
_symmetry_group_IT_number 74
_symmetry_cell_setting 'orthorhombic'
loop_
_space_group_symop_operation_xyz
x,y,z
-x,1/2-y,z
x,-y,-z
-x,1/2+y,-z
-x,-y,-z
x,1/2+y,-z
-x,y,z
x,1/2-y,z
1/2+x,1/2+y,1/2+z
1/2-x,-y,1/2+z
1/2+x,1/2-y,1/2-z
1/2-x,y,1/2-z
1/2-x,1/2-y,1/2-z
1/2+x,y,1/2-z
1/2-x,1/2+y,1/2+z
1/2+x,-y,1/2+z
loop_
_atom_site_type_symbol
_atom_site_label
_atom_site_fract_x
_atom_site_fract_y
_atom_site_fract_z
Si Si1 0.131504 0.470824 0.387058
Si Si2 0.421130 0.889079 0.190129
Si Si3 0.853736 0.331707 0.487925
Si Si4 0.250000 0.072224 0.250000
Si Si5 0.919048 0.664111 0.087966
Si Si6 0.194707 0.666587 0.922801
O O1 0.143348 0.500000 0.500000
O O2 0.081476 0.526395 0.332341
O O3 0.112780 0.388523 0.409283
O O4 0.201847 0.472620 0.323555
O O5 0.500000 0.863263 0.179797
O O6 0.376566 0.852081 0.101762
O O7 0.398759 0.870486 0.304215
O O8 0.871656 0.250000 0.466025
O O9 0.770667 0.339782 0.474895
O O10 0.201282 0.121421 0.179770
O O11 0.914497 0.750000 0.098729
O O12 0.000000 0.646632 0.066856
O O13 0.866206 0.643175 0.998665
O O14 0.184268 0.750000 0.899014
#
# Coordination Sequence:
#
# PCOD9536396 Si02
#       6
#    16  16  16   8  16  16
#     4   9  20  34  50  74 103 135 171 215 262 308
#     4  10  20  34  51  73 106 144 177 216 268 317
#     4   9  18  32  51  77 104 134 177 222 265 314
#     4  10  19  34  54  76 101 136 176 212 260 318
#     4   9  18  33  54  81 110 140 174 212 258 312
#     4   9  18  33  54  80 109 137 171 220 266 307
#
# _framework density 18.451902
#
# number of rings (size 3 to 8) (size 9 to 14) (size 15 to 20)
#    0.000    2.727    0.000    0.818    0.000   10.182 
#    0.000    3.636    0.000    3.273    0.000   15.273 
#    0.000    0.000    0.000    0.000    0.000    0.000 
#
# Total GULP energy -245134.641513 kJ/mol
# GULP energy per Si atom -5571.241853 kJ/mol
# Density = 1.840990 g / cm^3
# Si number density = 18.451902 Si / 1000 Ang^3
#
#
#
# Elastic Constant Matrix: (Units=GPa)
#
#
# Indices 1 2 3 4 5 6 
#
# 1 27.7547 16.6066 28.7712 0.0000 0.0000 0.0000
# 2 16.6066 71.3283 21.6605 0.0000 0.0000 0.0000
# 3 28.7712 21.6605 82.9004 0.0000 0.0000 0.0000
# 4 0.0000 0.0000 0.0000 -3.1095 0.0000 0.0000
# 5 0.0000 0.0000 0.0000 0.0000 24.9915 0.0000
# 6 0.0000 0.0000 0.0000 0.0000 0.0000 18.7249
#
#
#
# Elastic Compliance Matrix: (Units=1/GPa)
#
#
# Indices 1 2 3 4 5 6 
#
# 1 0.060564 -0.008383 -0.018829 0.000000 0.000000 0.000000
# 2 -0.008383 0.016388 -0.001373 0.000000 0.000000 0.000000
# 3 -0.018829 -0.001373 0.018956 0.000000 0.000000 0.000000
# 4 0.000000 0.000000 0.000000 -0.321596 0.000000 0.000000
# 5 0.000000 0.000000 0.000000 0.000000 0.040014 0.000000
# 6 0.000000 0.000000 0.000000 0.000000 0.000000 0.053405
#
#
# Mechanical properties :
#
#
# Convention : Reuss Voigt Hill
#
# Bulk Modulus (GPa) = 25.81330 35.11780 30.46555
# Shear Modulus (GPa) = -80.40330 15.78437 -32.30947
#
# Velocity S-wave (km/s) = -6.60826 2.92795 -4.18905
# Velocity P-wave (km/s) = 6.64873 5.52304 2.61741
#
# Compressibility (1/GPa) = 0.03873972
#
# Stress axis : x y z
#
# Youngs Moduli (GPa) = 16.51139 61.01955 52.75347
#
# Poissons Ratio (x) = 0.51151 0.99330
# Poissons Ratio (y) = 0.13841 0.07241
# Poissons Ratio (z) = 0.31089 0.08376
#
# Static dielectric constant tensor:
#      x y z
#    x 1.645140 0.000000 0.000000 
#    y 0.000000 1.681340 0.000000 
#    z 0.000000 0.000000 1.617200 
# 
# From -- ./inp_files/22182.got.cif
#   From: 2010.05.17/outbox.cif.g08.bks.cpg/sg74_12_cif.got.tgz:22182.got - 2010.06.03 17:57:02.
