data_PCOD9536878
_publ_section_title
;
Structure prediction by ZEFSAII (Michael W. Deem and Ramdas Pophale) SiO2 
 PCOD9536878
Probable space group: I M M A
;
_chemical_formula_sum "Si O2"
_cell_formula_units_Z 104
_cell_length_a 21.292563
_cell_length_b 8.455591
_cell_length_c 30.616779
_cell_angle_alpha 90.000000
_cell_angle_beta 90.000000
_cell_angle_gamma 90.000000
_cell_volume 5512.281756
_symmetry_space_group_name_H-M "I M M A"
_symmetry_group_IT_number 74
_symmetry_cell_setting 'orthorhombic'
loop_
_space_group_symop_operation_xyz
x,y,z
-x,1/2-y,z
x,-y,-z
-x,1/2+y,-z
-x,-y,-z
x,1/2+y,-z
-x,y,z
x,1/2-y,z
1/2+x,1/2+y,1/2+z
1/2-x,-y,1/2+z
1/2+x,1/2-y,1/2-z
1/2-x,y,1/2-z
1/2-x,1/2-y,1/2-z
1/2+x,y,1/2-z
1/2-x,1/2+y,1/2+z
1/2+x,-y,1/2+z
loop_
_atom_site_type_symbol
_atom_site_label
_atom_site_fract_x
_atom_site_fract_y
_atom_site_fract_z
Si Si1 0.130952 0.563735 0.366053
Si Si2 0.929378 0.062077 0.279521
Si Si3 0.638501 0.441614 0.549794
Si Si4 0.812845 0.559340 0.224224
Si Si5 0.000000 0.559706 0.049661
Si Si6 0.575663 0.933406 0.953290
Si Si7 0.275491 0.443007 0.628981
O O1 0.130847 0.750000 0.355659
O O2 0.091037 0.478055 0.328910
O O3 0.102380 0.532562 0.413394
O O4 0.203077 0.507885 0.367066
O O5 0.930094 0.250000 0.274264
O O6 0.000000 0.000897 0.271143
O O7 0.875592 0.993463 0.248447
O O8 0.647557 0.500000 0.500000
O O9 0.639919 0.250000 0.548348
O O10 0.568554 0.490939 0.566532
O O11 0.689958 0.496506 0.584873
O O12 0.811081 0.750000 0.224801
O O13 0.750000 0.504797 0.250000
O O14 0.809342 0.507802 0.173793
O O15 0.000000 0.750000 0.050770
O O16 0.000000 0.500000 0.000000
O O17 0.500000 0.942050 0.952181
O O18 0.593806 0.750000 0.948665
O O19 0.596735 0.000000 0.000000
O O20 0.275793 0.250000 0.627817
#
# Coordination Sequence:
#
# PCOD9536878 Si02
#       7
#    16  16  16  16   8  16  16
#     4  11  21  36  58  82 110 147 188 231 283 338
#     4  11  24  40  58  84 117 149 187 236 284 337
#     4   9  17  32  52  76 107 140 176 219 267 318
#     4  10  19  38  63  85 111 146 189 234 282 341
#     4   8  14  26  48  72  96 132 174 210 254 312
#     4  10  21  37  55  78 110 146 186 233 283 334
#     4   9  19  35  55  81 112 141 176 228 279 329
#
# _framework density 18.866959999999999
#
# number of rings (size 3 to 8) (size 9 to 14) (size 15 to 20)
#    0.000    2.154    1.538    1.846    0.000    4.923 
#    1.385    3.846    0.000    0.000    0.000    0.000 
#    0.000    0.000    0.000    0.000    0.000    0.000 
#
# Total GULP energy -290079.463156 kJ/mol
# GULP energy per Si atom -5578.451215 kJ/mol
# Density = 1.882402 g / cm^3
# Si number density = 18.866960 Si / 1000 Ang^3
#
#
#
# Elastic Constant Matrix: (Units=GPa)
#
#
# Indices 1 2 3 4 5 6 
#
# 1 117.7565 16.3104 51.1736 0.0000 0.0000 0.0000
# 2 16.3104 8.4900 5.3304 0.0000 0.0000 0.0000
# 3 51.1736 5.3304 110.0000 0.0000 0.0000 0.0000
# 4 0.0000 0.0000 0.0000 26.1338 0.0000 0.0000
# 5 0.0000 0.0000 0.0000 0.0000 45.4935 0.0000
# 6 0.0000 0.0000 0.0000 0.0000 0.0000 14.9020
#
#
#
# Elastic Compliance Matrix: (Units=1/GPa)
#
#
# Indices 1 2 3 4 5 6 
#
# 1 0.014142 -0.023761 -0.005428 0.000000 0.000000 0.000000
# 2 -0.023761 0.161403 0.003233 0.000000 0.000000 0.000000
# 3 -0.005428 0.003233 0.011459 0.000000 0.000000 0.000000
# 4 0.000000 0.000000 0.000000 0.038265 0.000000 0.000000
# 5 0.000000 0.000000 0.000000 0.000000 0.021981 0.000000
# 6 0.000000 0.000000 0.000000 0.000000 0.000000 0.067105
#
#
# Mechanical properties :
#
#
# Convention : Reuss Voigt Hill
#
# Bulk Modulus (GPa) = 7.40232 42.43059 24.91646
# Shear Modulus (GPa) = 12.15666 28.20133 20.17899
#
# Velocity S-wave (km/s) = 2.54113 3.87039 3.27393
# Velocity P-wave (km/s) = 3.54143 6.52008 5.24658
#
# Compressibility (1/GPa) = 0.13509270
#
# Stress axis : x y z
#
# Youngs Moduli (GPa) = 70.71199 6.19567 87.26558
#
# Poissons Ratio (x) = 0.14721 0.47364
# Poissons Ratio (y) = 1.68016 -0.28209
# Poissons Ratio (z) = 0.38380 -0.02003
#
# Static dielectric constant tensor:
#      x y z
#    x 1.669900 0.000000 0.000000 
#    y 0.000000 1.660280 0.000000 
#    z 0.000000 0.000000 1.627230 
# 
# From -- ./inp_files/73404.got.cif
#   From: 2010.05.17/outbox.cif.g08.bks.cpg/sg74_37_cif.got.tgz:73404.got - 2010.06.03 17:57:02.
