data_PCOD9536217
_publ_section_title
;
Structure prediction by ZEFSAII (Michael W. Deem and Ramdas Pophale) SiO2 
 PCOD9536217
Probable space group: I M M A
;
_chemical_formula_sum "Si O2"
_cell_formula_units_Z 88
_cell_length_a 18.293116
_cell_length_b 16.533518
_cell_length_c 17.161435
_cell_angle_alpha 90.000000
_cell_angle_beta 90.000000
_cell_angle_gamma 90.000000
_cell_volume 5190.468510
_symmetry_space_group_name_H-M "I M M A"
_symmetry_group_IT_number 74
_symmetry_cell_setting 'orthorhombic'
loop_
_space_group_symop_operation_xyz
x,y,z
-x,1/2-y,z
x,-y,-z
-x,1/2+y,-z
-x,-y,-z
x,1/2+y,-z
-x,y,z
x,1/2-y,z
1/2+x,1/2+y,1/2+z
1/2-x,-y,1/2+z
1/2+x,1/2-y,1/2-z
1/2-x,y,1/2-z
1/2-x,1/2-y,1/2-z
1/2+x,y,1/2-z
1/2-x,1/2+y,1/2+z
1/2+x,-y,1/2+z
loop_
_atom_site_type_symbol
_atom_site_label
_atom_site_fract_x
_atom_site_fract_y
_atom_site_fract_z
Si Si1 0.767387 0.847899 0.579620
Si Si2 0.720074 0.346364 0.596208
Si Si3 0.582099 0.546610 0.422992
Si Si4 0.250000 0.059260 0.750000
Si Si5 0.856301 0.072742 0.191953
Si Si6 0.582533 0.846389 0.840137
O O1 0.761656 0.750000 0.588135
O O2 0.753790 0.867323 0.488602
O O3 0.705570 0.887474 0.635738
O O4 0.848674 0.873856 0.606857
O O5 0.721086 0.250000 0.604175
O O6 0.638230 0.382397 0.595321
O O7 0.756408 0.387929 0.671609
O O8 0.607327 0.500000 0.500000
O O9 0.500000 0.576399 0.433853
O O10 0.586025 0.476146 0.359189
O O11 0.182676 0.998308 0.759405
O O12 0.893080 0.133712 0.251891
O O13 0.500000 0.878333 0.855459
O O14 0.579207 0.750000 0.849822
#
# Coordination Sequence:
#
# PCOD9536217 Si02
#       6
#    16  16  16   8  16  16
#     4  10  19  33  54  78 106 141 183 221 259 315
#     4  10  21  37  56  78 105 141 183 222 261 314
#     4  10  20  33  51  78 108 139 174 217 266 316
#     4  10  21  32  57  80 100 138 178 228 265 304
#     4  11  18  33  52  80 106 143 175 219 264 315
#     4  10  20  33  51  78 113 145 173 213 267 322
#
# _framework density 16.954153000000002
#
# number of rings (size 3 to 8) (size 9 to 14) (size 15 to 20)
#    0.000    1.818    3.636    1.364    0.000    1.818 
#    0.000    0.000    0.000    6.545    0.000    5.091 
#    0.000    0.000    0.000    0.000    0.000    0.000 
#
# Total GULP energy -245065.051395 kJ/mol
# GULP energy per Si atom -5569.660259 kJ/mol
# Density = 1.691556 g / cm^3
# Si number density = 16.954153 Si / 1000 Ang^3
#
#
#
# Elastic Constant Matrix: (Units=GPa)
#
#
# Indices 1 2 3 4 5 6 
#
# 1 77.6398 29.6059 32.5441 0.0000 0.0000 0.0000
# 2 29.6059 43.4405 38.2753 0.0000 0.0000 0.0000
# 3 32.5441 38.2753 90.8296 0.0000 0.0000 0.0000
# 4 0.0000 0.0000 0.0000 25.3580 0.0000 0.0000
# 5 0.0000 0.0000 0.0000 0.0000 13.1443 0.0000
# 6 0.0000 0.0000 0.0000 0.0000 0.0000 6.1288
#
#
#
# Elastic Compliance Matrix: (Units=1/GPa)
#
#
# Indices 1 2 3 4 5 6 
#
# 1 0.017627 -0.010257 -0.001994 0.000000 0.000000 0.000000
# 2 -0.010257 0.042583 -0.014269 0.000000 0.000000 0.000000
# 3 -0.001994 -0.014269 0.017737 0.000000 0.000000 0.000000
# 4 0.000000 0.000000 0.000000 0.039435 0.000000 0.000000
# 5 0.000000 0.000000 0.000000 0.000000 0.076079 0.000000
# 6 0.000000 0.000000 0.000000 0.000000 0.000000 0.163165
#
#
# Mechanical properties :
#
#
# Convention : Reuss Voigt Hill
#
# Bulk Modulus (GPa) = 40.14844 45.86227 43.00535
# Shear Modulus (GPa) = 11.96268 16.35852 14.16060
#
# Velocity S-wave (km/s) = 2.65918 3.10960 2.89317
# Velocity P-wave (km/s) = 5.75850 6.32474 6.04825
#
# Compressibility (1/GPa) = 0.02490757
#
# Stress axis : x y z
#
# Youngs Moduli (GPa) = 56.73219 23.48368 56.37947
#
# Poissons Ratio (x) = 0.24086 0.11239
# Poissons Ratio (y) = 0.58188 0.80450
# Poissons Ratio (z) = 0.11310 0.33510
#
# Static dielectric constant tensor:
#      x y z
#    x 1.585770 0.000000 0.000000 
#    y 0.000000 1.573060 0.000000 
#    z 0.000000 0.000000 1.628230 
# 
# From -- ./inp_files/34102.got.cif
#   From: 2010.05.17/outbox.cif.g08.bks.cpg/sg74_18_cif.got.tgz:34102.got - 2010.06.03 17:57:02.
