data_PCOD9536599
_publ_section_title
;
Structure prediction by ZEFSAII (Michael W. Deem and Ramdas Pophale) SiO2 
 PCOD9536599
Probable space group: I M M A
;
_chemical_formula_sum "Si O2"
_cell_formula_units_Z 72
_cell_length_a 7.565668
_cell_length_b 30.678589
_cell_length_c 14.065181
_cell_angle_alpha 90.000000
_cell_angle_beta 90.000000
_cell_angle_gamma 90.000000
_cell_volume 3264.585039
_symmetry_space_group_name_H-M "I M M A"
_symmetry_group_IT_number 74
_symmetry_cell_setting 'orthorhombic'
loop_
_space_group_symop_operation_xyz
x,y,z
-x,1/2-y,z
x,-y,-z
-x,1/2+y,-z
-x,-y,-z
x,1/2+y,-z
-x,y,z
x,1/2-y,z
1/2+x,1/2+y,1/2+z
1/2-x,-y,1/2+z
1/2+x,1/2-y,1/2-z
1/2-x,y,1/2-z
1/2-x,1/2-y,1/2-z
1/2+x,y,1/2-z
1/2-x,1/2+y,1/2+z
1/2+x,-y,1/2+z
loop_
_atom_site_type_symbol
_atom_site_label
_atom_site_fract_x
_atom_site_fract_y
_atom_site_fract_z
Si Si1 0.783110 0.066218 0.550912
Si Si2 0.212250 0.250000 0.639214
Si Si3 0.210895 0.477515 0.357200
Si Si4 0.203898 0.338557 0.551098
Si Si5 0.789821 0.699772 0.858209
O O1 0.726469 0.026797 0.619462
O O2 0.718483 0.114442 0.575775
O O3 0.000000 0.067497 0.551509
O O4 0.726692 0.052819 0.443906
O O5 0.250000 0.250000 0.750000
O O6 0.284818 0.294594 0.594213
O O7 0.000000 0.250000 0.621811
O O8 0.250000 0.463963 0.250000
O O9 0.000000 0.478622 0.366287
O O10 0.209043 0.331135 0.437719
O O11 0.000000 0.339670 0.582964
O O12 0.725584 0.750000 0.871109
O O13 0.750000 0.687104 0.750000
O O14 0.000000 0.699767 0.871082
#
# Coordination Sequence:
#
# PCOD9536599 Si02
#       5
#    16   8  16  16  16
#     4   8  17  33  53  74 102 136 170 205 255 311
#     4  10  22  36  53  74 101 136 175 214 258 302
#     4   9  17  33  54  76 101 134 168 207 255 307
#     4  10  19  35  55  76 102 137 177 218 257 302
#     4  10  20  33  51  75 103 136 171 211 257 307
#
# _framework density 22.054870000000001
#
# number of rings (size 3 to 8) (size 9 to 14) (size 15 to 20)
#    0.000    2.667    1.111    2.000    0.000    3.556 
#    0.000    6.667    0.000    0.000    0.000    0.000 
#    0.000    0.000    0.000    0.000    0.000    0.000 
#
# Total GULP energy -200936.231707 kJ/mol
# GULP energy per Si atom -5581.561992 kJ/mol
# Density = 2.200467 g / cm^3
# Si number density = 22.054870 Si / 1000 Ang^3
#
#
#
# Elastic Constant Matrix: (Units=GPa)
#
#
# Indices 1 2 3 4 5 6 
#
# 1 55.8073 11.4962 -9.6782 0.0000 0.0000 0.0000
# 2 11.4962 123.3681 4.0552 0.0000 0.0000 0.0000
# 3 -9.6782 4.0552 50.6384 -0.0001 0.0000 0.0000
# 4 0.0000 0.0000 -0.0001 6.2103 0.0000 0.0000
# 5 0.0000 0.0000 0.0000 0.0000 23.7013 0.0000
# 6 0.0000 0.0000 0.0000 0.0000 0.0000 0.2800
#
#
#
# Elastic Compliance Matrix: (Units=1/GPa)
#
#
# Indices 1 2 3 4 5 6 
#
# 1 0.018963 -0.001891 0.003776 0.000000 0.000000 0.000000
# 2 -0.001891 0.008316 -0.001027 0.000000 0.000000 0.000000
# 3 0.003776 -0.001027 0.020552 0.000000 0.000000 0.000001
# 4 0.000000 0.000000 0.000000 0.161022 0.000000 0.000002
# 5 0.000000 0.000000 0.000000 0.000000 0.042192 0.000001
# 6 0.000000 0.000000 0.000001 0.000002 0.000001 3.571673
#
#
# Mechanical properties :
#
#
# Convention : Reuss Voigt Hill
#
# Bulk Modulus (GPa) = 20.18363 26.84002 23.51182
# Shear Modulus (GPa) = 1.30293 20.96769 11.13531
#
# Velocity S-wave (km/s) = 0.76945 3.08670 2.24942
# Velocity P-wave (km/s) = 3.15608 4.98996 4.17495
#
# Compressibility (1/GPa) = 0.04954511
#
# Stress axis : x y z
#
# Youngs Moduli (GPa) = 52.73373 120.25260 48.65756
#
# Poissons Ratio (x) = 0.22742 -0.18372
# Poissons Ratio (y) = 0.09973 0.04999
# Poissons Ratio (z) = -0.19911 0.12355
#
# Static dielectric constant tensor:
#      x y z
#    x 1.805720 0.000000 0.000000 
#    y 0.000000 1.836370 0.000000 
#    z 0.000000 0.000000 1.776490 
# 
# From -- ./inp_files/29367.got.cif
#   From: 2010.05.17/outbox.cif.g08.bks.cpg/sg74_15_cif.got.tgz:29367.got - 2010.06.03 17:57:02.
