data_PCOD9536663
_publ_section_title
;
Structure prediction by ZEFSAII (Michael W. Deem and Ramdas Pophale) SiO2 
 PCOD9536663
Probable space group: I M M A
;
_chemical_formula_sum "Si O2"
_cell_formula_units_Z 96
_cell_length_a 23.487858
_cell_length_b 18.432152
_cell_length_c 10.916333
_cell_angle_alpha 90.000000
_cell_angle_beta 90.000000
_cell_angle_gamma 90.000000
_cell_volume 4726.027355
_symmetry_space_group_name_H-M "I M M A"
_symmetry_group_IT_number 74
_symmetry_cell_setting 'orthorhombic'
loop_
_space_group_symop_operation_xyz
x,y,z
-x,1/2-y,z
x,-y,-z
-x,1/2+y,-z
-x,-y,-z
x,1/2+y,-z
-x,y,z
x,1/2-y,z
1/2+x,1/2+y,1/2+z
1/2-x,-y,1/2+z
1/2+x,1/2-y,1/2-z
1/2-x,y,1/2-z
1/2-x,1/2-y,1/2-z
1/2+x,y,1/2-z
1/2-x,1/2+y,1/2+z
1/2+x,-y,1/2+z
loop_
_atom_site_type_symbol
_atom_site_label
_atom_site_fract_x
_atom_site_fract_y
_atom_site_fract_z
Si Si1 0.123529 0.169001 0.883209
Si Si2 0.500000 0.451258 0.305081
Si Si3 0.316239 0.834416 0.894577
Si Si4 0.809221 0.620217 0.888526
Si Si5 0.097744 0.548439 0.605674
Si Si6 0.500000 0.388502 0.575392
Si Si7 0.316487 0.969144 0.271951
O O1 0.135948 0.250000 0.839040
O O2 0.056658 0.153548 0.887555
O O3 0.154210 0.104985 0.809891
O O4 0.148078 0.158289 0.019767
O O5 0.445228 0.438978 0.218296
O O6 0.500000 0.403885 0.428911
O O7 0.500000 0.533919 0.354862
O O8 0.317540 0.750000 0.925307
O O9 0.255560 0.868206 0.934556
O O10 0.314820 0.845178 0.746594
O O11 0.371830 0.877881 0.938361
O O12 0.821908 0.534978 0.870129
O O13 0.069922 0.500000 0.500000
O O14 0.150641 0.500879 0.655354
O O15 0.250000 0.959526 0.250000
#
# Coordination Sequence:
#
# PCOD9536663 Si02
#       7
#    16   8  16  16  16   8  16
#     4  12  25  39  62  96 133 167 206 263 331 390
#     4  11  23  42  68  97 114 166 219 280 311 380
#     4  10  19  35  58  91 128 161 208 261 324 376
#     4  10  19  35  59  90 123 165 207 263 315 377
#     4  11  23  41  63  94 123 170 220 263 318 380
#     4  11  23  42  70  89 129 163 217 261 328 384
#     4  11  22  39  62  92 128 168 216 261 310 380
#
# _framework density 20.313043
#
# number of rings (size 3 to 8) (size 9 to 14) (size 15 to 20)
#    0.000    1.167    5.000    5.000    4.667    0.333 
#    0.000    2.083    0.000    0.000    0.000    0.000 
#    0.000    0.000    0.000    0.000    0.000    0.000 
#
# Total GULP energy -268243.978307 kJ/mol
# GULP energy per Si atom -5588.416215 kJ/mol
# Density = 2.026681 g / cm^3
# Si number density = 20.313043 Si / 1000 Ang^3
#
#
#
# Elastic Constant Matrix: (Units=GPa)
#
#
# Indices 1 2 3 4 5 6 
#
# 1 115.3475 34.0342 0.5782 0.0000 0.0000 0.0000
# 2 34.0342 162.1854 10.7017 0.0000 0.0000 0.0000
# 3 0.5782 10.7017 13.9208 0.0000 0.0000 0.0000
# 4 0.0000 0.0000 0.0000 7.0508 0.0000 0.0000
# 5 0.0000 0.0000 0.0000 0.0000 -12.8058 0.0000
# 6 0.0000 0.0000 0.0000 0.0000 0.0000 32.8259
#
#
#
# Elastic Compliance Matrix: (Units=1/GPa)
#
#
# Indices 1 2 3 4 5 6 
#
# 1 0.009260 -0.002020 0.001168 0.000000 0.000000 0.000000
# 2 -0.002020 0.006936 -0.005248 0.000000 0.000000 0.000000
# 3 0.001168 -0.005248 0.075821 0.000000 0.000000 0.000000
# 4 0.000000 0.000000 0.000000 0.141827 0.000000 0.000000
# 5 0.000000 0.000000 0.000000 0.000000 -0.078090 0.000000
# 6 0.000000 0.000000 0.000000 0.000000 0.000000 0.030464
#
#
# Mechanical properties :
#
#
# Convention : Reuss Voigt Hill
#
# Bulk Modulus (GPa) = 12.52873 42.45353 27.49113
# Shear Modulus (GPa) = 22.21994 21.82350 22.02172
#
# Velocity S-wave (km/s) = 3.31097 3.28130 3.29617
# Velocity P-wave (km/s) = 4.56047 5.94146 5.29617
#
# Compressibility (1/GPa) = 0.07981656
#
# Stress axis : x y z
#
# Youngs Moduli (GPa) = 107.99505 144.17490 13.18901
#
# Poissons Ratio (x) = 0.29127 -0.01541
# Poissons Ratio (y) = 0.21817 0.06922
# Poissons Ratio (z) = -0.12619 0.75666
#
# Static dielectric constant tensor:
#      x y z
#    x 1.716390 0.000000 0.000000 
#    y 0.000000 1.727880 0.000000 
#    z 0.000000 0.000000 1.774080 
# 
# From -- ./inp_files/23989.got.cif
#   From: 2010.05.17/outbox.cif.g08.bks.cpg/sg74_12_cif.got.tgz:23989.got - 2010.06.03 17:57:02.
