data_PCOD9536904
_publ_section_title
;
Structure prediction by ZEFSAII (Michael W. Deem and Ramdas Pophale) SiO2 
 PCOD9536904
Probable space group: I M M A
;
_chemical_formula_sum "Si O2"
_cell_formula_units_Z 112
_cell_length_a 14.838099
_cell_length_b 14.451127
_cell_length_c 31.669568
_cell_angle_alpha 90.000000
_cell_angle_beta 90.000000
_cell_angle_gamma 90.000000
_cell_volume 6790.818473
_symmetry_space_group_name_H-M "I M M A"
_symmetry_group_IT_number 74
_symmetry_cell_setting 'orthorhombic'
loop_
_space_group_symop_operation_xyz
x,y,z
-x,1/2-y,z
x,-y,-z
-x,1/2+y,-z
-x,-y,-z
x,1/2+y,-z
-x,y,z
x,1/2-y,z
1/2+x,1/2+y,1/2+z
1/2-x,-y,1/2+z
1/2+x,1/2-y,1/2-z
1/2-x,y,1/2-z
1/2-x,1/2-y,1/2-z
1/2+x,y,1/2-z
1/2-x,1/2+y,1/2+z
1/2+x,-y,1/2+z
loop_
_atom_site_type_symbol
_atom_site_label
_atom_site_fract_x
_atom_site_fract_y
_atom_site_fract_z
Si Si1 0.630730 0.856271 0.492731
Si Si2 0.397937 0.142069 0.927189
Si Si3 0.788473 0.861509 0.685044
Si Si4 0.596064 0.018090 0.428276
Si Si5 0.339323 0.143733 0.017843
Si Si6 0.703414 0.969219 0.899134
Si Si7 0.603514 0.861757 0.729587
O O1 0.604213 0.750000 0.487784
O O2 0.595819 0.902613 0.535705
O O3 0.738380 0.860285 0.498627
O O4 0.603532 0.922183 0.454354
O O5 0.500000 0.134066 0.911571
O O6 0.369966 0.250000 0.924963
O O7 0.333922 0.072909 0.902147
O O8 0.397102 0.116792 0.977146
O O9 0.789079 0.750000 0.678814
O O10 0.818674 0.914249 0.643191
O O11 0.685471 0.888822 0.698094
O O12 0.855501 0.882634 0.724022
O O13 0.500000 0.021554 0.405260
O O14 0.688196 0.030607 0.403327
O O15 0.359956 0.250000 0.029346
O O16 0.337544 0.082130 0.059571
O O17 0.500000 0.895357 0.723397
O O18 0.599622 0.750000 0.726801
#
# Coordination Sequence:
#
# PCOD9536904 Si02
#       7
#    16  16  16  16  16  16  16
#     4   9  16  29  45  58  80 118 160 201 240 276
#     4  10  21  36  51  65  87 127 175 213 244 281
#     4   9  18  31  49  76 104 129 157 187 230 290
#     4  10  20  29  39  62  90 117 157 201 238 280
#     4   9  17  30  47  66  92 127 164 201 244 288
#     4  11  20  31  47  70  99 127 158 205 249 280
#     4   8  15  31  53  74 100 131 157 184 225 286
#
# _framework density 16.492857999999998
#
# number of rings (size 3 to 8) (size 9 to 14) (size 15 to 20)
#    0.000    2.571    1.429    2.571    0.000    4.000 
#    0.000    0.000    0.000    4.286    0.000    2.000 
#    0.000    1.143    0.000    0.000    0.000    0.000 
#
# Total GULP energy -311940.690857 kJ/mol
# GULP energy per Si atom -5570.369480 kJ/mol
# Density = 1.645532 g / cm^3
# Si number density = 16.492858 Si / 1000 Ang^3
#
#
#
# Elastic Constant Matrix: (Units=GPa)
#
#
# Indices 1 2 3 4 5 6 
#
# 1 56.3585 7.4240 8.1012 0.0000 0.0000 0.0000
# 2 7.4240 65.3113 26.7407 0.0000 0.0000 0.0000
# 3 8.1012 26.7407 53.0465 0.0000 0.0000 0.0000
# 4 0.0000 0.0000 0.0000 18.7401 0.0000 0.0000
# 5 0.0000 0.0000 0.0000 0.0000 -2.0803 0.0000
# 6 0.0000 0.0000 0.0000 0.0000 0.0000 -4.6216
#
#
#
# Elastic Compliance Matrix: (Units=1/GPa)
#
#
# Indices 1 2 3 4 5 6 
#
# 1 0.018213 -0.001174 -0.002190 0.000000 0.000000 0.000000
# 2 -0.001174 0.019369 -0.009585 0.000000 0.000000 0.000000
# 3 -0.002190 -0.009585 0.024017 0.000000 0.000000 0.000000
# 4 0.000000 0.000000 0.000000 0.053362 0.000000 0.000000
# 5 0.000000 0.000000 0.000000 0.000000 -0.480693 0.000000
# 6 0.000000 0.000000 0.000000 0.000000 0.000000 -0.216374
#
#
# Mechanical properties :
#
#
# Convention : Reuss Voigt Hill
#
# Bulk Modulus (GPa) = 28.00880 28.80534 28.40707
# Shear Modulus (GPa) = -9.18594 11.23766 1.02586
#
# Velocity S-wave (km/s) = -2.36257 2.61313 0.78953
# Velocity P-wave (km/s) = 3.09466 5.15828 4.25351
#
# Compressibility (1/GPa) = 0.03570307
#
# Stress axis : x y z
#
# Youngs Moduli (GPa) = 54.90601 51.62901 41.63651
#
# Poissons Ratio (x) = 0.06060 0.09118
# Poissons Ratio (y) = 0.06444 0.39907
# Poissons Ratio (z) = 0.12023 0.49484
#
# Static dielectric constant tensor:
#      x y z
#    x 1.620910 0.000000 0.000000 
#    y 0.000000 1.547310 0.000000 
#    z 0.000000 0.000000 1.526280 
# 
# From -- ./inp_files/67232.got.cif
#   From: 2010.05.17/outbox.cif.g08.bks.cpg/sg74_34_cif.got.tgz:67232.got - 2010.06.03 17:57:02.
