data_PCOD9536232
_publ_section_title
;
Structure prediction by ZEFSAII (Michael W. Deem and Ramdas Pophale) SiO2 
 PCOD9536232
Probable space group: I M M A
;
_chemical_formula_sum "Si O2"
_cell_formula_units_Z 104
_cell_length_a 8.982487
_cell_length_b 27.147245
_cell_length_c 22.525670
_cell_angle_alpha 90.000000
_cell_angle_beta 90.000000
_cell_angle_gamma 90.000000
_cell_volume 5492.879568
_symmetry_space_group_name_H-M "I M M A"
_symmetry_group_IT_number 74
_symmetry_cell_setting 'orthorhombic'
loop_
_space_group_symop_operation_xyz
x,y,z
-x,1/2-y,z
x,-y,-z
-x,1/2+y,-z
-x,-y,-z
x,1/2+y,-z
-x,y,z
x,1/2-y,z
1/2+x,1/2+y,1/2+z
1/2-x,-y,1/2+z
1/2+x,1/2-y,1/2-z
1/2-x,y,1/2-z
1/2-x,1/2-y,1/2-z
1/2+x,y,1/2-z
1/2-x,1/2+y,1/2+z
1/2+x,-y,1/2+z
loop_
_atom_site_type_symbol
_atom_site_label
_atom_site_fract_x
_atom_site_fract_y
_atom_site_fract_z
Si Si1 0.832639 0.691042 0.469433
Si Si2 0.172749 0.308272 0.850564
Si Si3 0.822247 0.565001 0.941670
Si Si4 0.324898 0.098936 0.809718
Si Si5 0.318983 0.250000 0.184720
Si Si6 0.822268 0.158037 0.397175
Si Si7 0.678794 0.550533 0.424693
O O1 0.843743 0.750000 0.469199
O O2 0.712864 0.679497 0.419103
O O3 0.791847 0.676378 0.535830
O O4 0.000000 0.671617 0.454940
O O5 0.197553 0.250000 0.841039
O O6 0.280558 0.343510 0.814325
O O7 0.000000 0.319428 0.838385
O O8 0.750907 0.604284 0.897159
O O9 0.792244 0.508196 0.925791
O O10 0.000000 0.571617 0.941469
O O11 0.771821 0.571083 0.010676
O O12 0.500000 0.092801 0.807322
O O13 0.250000 0.078652 0.750000
O O14 0.258137 0.074308 0.868668
O O15 0.500000 0.250000 0.187410
O O16 0.250000 0.250000 0.250000
O O17 0.273519 0.299378 0.148450
O O18 0.000000 0.153279 0.390858
O O19 0.500000 0.557456 0.420372
#
# Coordination Sequence:
#
# PCOD9536232 Si02
#       7
#    16  16  16  16   8  16  16
#     4   9  16  29  50  77 109 145 181 222 273 324
#     4  10  21  36  54  80 114 148 184 228 273 322
#     4   9  19  35  60  90 118 147 180 227 289 342
#     4  12  25  40  59  81 108 148 192 232 276 328
#     4  10  22  40  56  76 110 154 197 240 291 344
#     4  10  19  33  54  80 112 148 187 233 283 337
#     4   9  19  39  61  85 119 151 182 230 284 338
#
# _framework density 18.933603000000002
#
# number of rings (size 3 to 8) (size 9 to 14) (size 15 to 20)
#    0.000    2.154    0.769    3.692    0.000    6.154 
#    0.000    2.308    0.000    1.846    0.000    0.000 
#    0.000    0.000    0.000    0.000    0.000    0.000 
#
# Total GULP energy -290207.000022 kJ/mol
# GULP energy per Si atom -5580.903847 kJ/mol
# Density = 1.889051 g / cm^3
# Si number density = 18.933603 Si / 1000 Ang^3
#
#
#
# Elastic Constant Matrix: (Units=GPa)
#
#
# Indices 1 2 3 4 5 6 
#
# 1 54.7571 40.1633 44.0281 0.0000 0.0000 0.0000
# 2 40.1633 95.3220 61.0296 0.0000 0.0000 0.0000
# 3 44.0281 61.0296 98.2658 0.0000 0.0000 0.0000
# 4 0.0000 0.0000 0.0000 18.2521 0.0000 0.0000
# 5 0.0000 0.0000 0.0000 0.0000 27.2864 0.0000
# 6 0.0000 0.0000 0.0000 0.0000 0.0000 32.2004
#
#
#
# Elastic Compliance Matrix: (Units=1/GPa)
#
#
# Indices 1 2 3 4 5 6 
#
# 1 0.031086 -0.006940 -0.009618 0.000000 0.000000 0.000000
# 2 -0.006940 0.018965 -0.008669 0.000000 0.000000 0.000000
# 3 -0.009618 -0.008669 0.019870 0.000000 0.000000 0.000000
# 4 0.000000 0.000000 0.000000 0.054788 0.000000 0.000000
# 5 0.000000 0.000000 0.000000 0.000000 0.036648 0.000000
# 6 0.000000 0.000000 0.000000 0.000000 0.000000 0.031056
#
#
# Mechanical properties :
#
#
# Convention : Reuss Voigt Hill
#
# Bulk Modulus (GPa) = 51.36889 59.86522 55.61706
# Shear Modulus (GPa) = 20.05153 22.42272 21.23712
#
# Velocity S-wave (km/s) = 3.25783 3.44507 3.35276
# Velocity P-wave (km/s) = 6.42971 6.89288 6.66532
#
# Compressibility (1/GPa) = 0.01946704
#
# Stress axis : x y z
#
# Youngs Moduli (GPa) = 32.16837 52.72758 50.32714
#
# Poissons Ratio (x) = 0.36594 0.48405
# Poissons Ratio (y) = 0.22325 0.43630
# Poissons Ratio (z) = 0.30940 0.45711
#
# Static dielectric constant tensor:
#      x y z
#    x 1.647070 0.000000 0.000000 
#    y 0.000000 1.692780 0.000000 
#    z 0.000000 0.000000 1.654290 
# 
# From -- ./inp_files/49332.got.cif
#   From: 2010.05.17/outbox.cif.g08.bks.cpg/sg74_25_cif.got.tgz:49332.got - 2010.06.03 17:57:02.
