data_PCOD9536278
_publ_section_title
;
Structure prediction by ZEFSAII (Michael W. Deem and Ramdas Pophale) SiO2 
 PCOD9536278
Probable space group: I M M A
;
_chemical_formula_sum "Si O2"
_cell_formula_units_Z 80
_cell_length_a 13.420767
_cell_length_b 20.085743
_cell_length_c 12.254046
_cell_angle_alpha 90.000000
_cell_angle_beta 90.000000
_cell_angle_gamma 90.000000
_cell_volume 3303.275105
_symmetry_space_group_name_H-M "I M M A"
_symmetry_group_IT_number 74
_symmetry_cell_setting 'orthorhombic'
loop_
_space_group_symop_operation_xyz
x,y,z
-x,1/2-y,z
x,-y,-z
-x,1/2+y,-z
-x,-y,-z
x,1/2+y,-z
-x,y,z
x,1/2-y,z
1/2+x,1/2+y,1/2+z
1/2-x,-y,1/2+z
1/2+x,1/2-y,1/2-z
1/2-x,y,1/2-z
1/2-x,1/2-y,1/2-z
1/2+x,y,1/2-z
1/2-x,1/2+y,1/2+z
1/2+x,-y,1/2+z
loop_
_atom_site_type_symbol
_atom_site_label
_atom_site_fract_x
_atom_site_fract_y
_atom_site_fract_z
Si Si1 0.611636 0.671423 0.692834
Si Si2 0.163166 0.963485 0.112480
Si Si3 0.613215 0.642766 0.933311
Si Si4 0.807996 0.827406 0.039235
Si Si5 0.390891 0.494003 0.849620
O O1 0.500000 0.643322 0.701552
O O2 0.605663 0.750000 0.673955
O O3 0.654100 0.665265 0.814221
O O4 0.659290 0.646974 0.581506
O O5 0.283691 0.964450 0.120800
O O6 0.119236 0.000327 0.217995
O O7 0.143029 0.883889 0.114896
O O8 0.134253 0.000000 0.000000
O O9 0.500000 0.667450 0.946921
O O10 0.688136 0.667188 0.026118
O O11 0.608697 0.563637 0.914076
O O12 0.834521 0.750000 0.059790
O O13 0.500000 0.461740 0.869105
#
# Coordination Sequence:
#
# PCOD9536278 Si02
#       5
#    16  16  16  16  16
#     4   9  18  31  49  78 116 153 186 227 289 360
#     4  11  22  39  63  87 120 157 202 248 297 362
#     4  10  19  33  55  83 116 149 189 241 302 363
#     4  11  22  35  56  86 119 154 194 245 302 357
#     4  10  23  40  60  87 116 155 204 252 298 349
#
# _framework density 24.218388000000001
#
# number of rings (size 3 to 8) (size 9 to 14) (size 15 to 20)
#    0.000    1.800    2.000    2.400    2.800    5.200 
#    0.000    2.000    0.000    1.200    0.000    0.000 
#    0.000    0.000    0.000    0.000    0.000    0.000 
#
# Total GULP energy -223204.087497 kJ/mol
# GULP energy per Si atom -5580.102187 kJ/mol
# Density = 2.416327 g / cm^3
# Si number density = 24.218388 Si / 1000 Ang^3
#
#
#
# Elastic Constant Matrix: (Units=GPa)
#
#
# Indices 1 2 3 4 5 6 
#
# 1 48.4247 0.0640 4.4373 0.0000 0.0000 0.0000
# 2 0.0640 101.6134 1.2955 -0.0001 0.0000 0.0000
# 3 4.4373 1.2955 65.1661 -0.0003 0.0000 0.0000
# 4 0.0000 -0.0001 -0.0003 27.9274 0.0000 0.0000
# 5 0.0000 0.0000 0.0000 0.0000 15.8599 0.0000
# 6 0.0000 0.0000 0.0000 0.0000 0.0000 14.2362
#
#
#
# Elastic Compliance Matrix: (Units=1/GPa)
#
#
# Indices 1 2 3 4 5 6 
#
# 1 0.020780 0.000005 -0.001415 0.000000 0.000000 0.000000
# 2 0.000005 0.009844 -0.000196 0.000000 0.000000 0.000000
# 3 -0.001415 -0.000196 0.015446 0.000000 0.000000 0.000000
# 4 0.000000 0.000000 0.000000 0.035807 0.000000 0.000000
# 5 0.000000 0.000000 0.000000 0.000000 0.063052 0.000000
# 6 0.000000 0.000000 0.000000 0.000000 0.000000 0.070244
#
#
# Mechanical properties :
#
#
# Convention : Reuss Voigt Hill
#
# Bulk Modulus (GPa) = 23.33324 25.19977 24.26650
# Shear Modulus (GPa) = 21.48959 25.56517 23.52738
#
# Velocity S-wave (km/s) = 2.98203 3.25254 3.12022
# Velocity P-wave (km/s) = 4.63812 4.95310 4.79819
#
# Compressibility (1/GPa) = 0.04285732
#
# Stress axis : x y z
#
# Youngs Moduli (GPa) = 48.12258 101.58760 64.74318
#
# Poissons Ratio (x) = -0.00050 0.09162
# Poissons Ratio (y) = -0.00024 0.01269
# Poissons Ratio (z) = 0.06810 0.01991
#
# Static dielectric constant tensor:
#      x y z
#    x 1.983370 0.000000 0.000000 
#    y 0.000000 1.961390 0.000000 
#    z 0.000000 0.000000 1.979050 
# 
# From -- ./inp_files/20478.got.cif
#   From: 2010.05.17/outbox.cif.g08.bks.cpg/sg74_11_cif.got.tgz:20478.got - 2010.06.03 17:57:02.
