data_PCOD9536244
_publ_section_title
;
Structure prediction by ZEFSAII (Michael W. Deem and Ramdas Pophale) SiO2 
 PCOD9536244
Probable space group: I M M A
;
_chemical_formula_sum "Si O2"
_cell_formula_units_Z 80
_cell_length_a 25.643151
_cell_length_b 19.166343
_cell_length_c 9.384623
_cell_angle_alpha 90.000000
_cell_angle_beta 90.000000
_cell_angle_gamma 90.000000
_cell_volume 4612.405449
_symmetry_space_group_name_H-M "I M M A"
_symmetry_group_IT_number 74
_symmetry_cell_setting 'orthorhombic'
loop_
_space_group_symop_operation_xyz
x,y,z
-x,1/2-y,z
x,-y,-z
-x,1/2+y,-z
-x,-y,-z
x,1/2+y,-z
-x,y,z
x,1/2-y,z
1/2+x,1/2+y,1/2+z
1/2-x,-y,1/2+z
1/2+x,1/2-y,1/2-z
1/2-x,y,1/2-z
1/2-x,1/2-y,1/2-z
1/2+x,y,1/2-z
1/2-x,1/2+y,1/2+z
1/2+x,-y,1/2+z
loop_
_atom_site_type_symbol
_atom_site_label
_atom_site_fract_x
_atom_site_fract_y
_atom_site_fract_z
Si Si1 0.854938 0.562539 0.213484
Si Si2 0.365123 0.668150 0.860477
Si Si3 0.216571 0.919796 0.463868
Si Si4 0.334241 0.091595 0.413120
Si Si5 0.940938 0.580497 0.453255
O O1 0.803115 0.586203 0.300217
O O2 0.846131 0.481227 0.169822
O O3 0.902253 0.579348 0.318534
O O4 0.864702 0.597598 0.061259
O O5 0.370902 0.750000 0.882585
O O6 0.349962 0.650352 0.698213
O O7 0.317744 0.635567 0.950878
O O8 0.415108 0.626683 0.921729
O O9 0.274800 0.911760 0.527000
O O10 0.200983 0.000000 0.500000
O O11 0.942223 0.500000 0.500000
O O12 0.000000 0.603054 0.421782
#
# Coordination Sequence:
#
# PCOD9536244 Si02
#       5
#    16  16  16  16  16
#     4  10  19  33  54  88 114 145 191 245 283 329
#     4  11  23  38  55  83 120 152 192 239 291 352
#     4  11  19  32  55  83 115 159 202 229 268 344
#     4  11  20  30  55  86 121 153 184 232 290 340
#     4  10  20  40  65  85 107 142 197 252 292 344
#
# _framework density 17.344528
#
# number of rings (size 3 to 8) (size 9 to 14) (size 15 to 20)
#    0.000    1.400    6.000    2.400    0.000    2.000 
#    0.000    7.000    0.000    6.000    0.000    0.000 
#    0.000    0.000    0.000    0.000    0.000    0.000 
#
# Total GULP energy -222770.685954 kJ/mol
# GULP energy per Si atom -5569.267149 kJ/mol
# Density = 1.730505 g / cm^3
# Si number density = 17.344528 Si / 1000 Ang^3
#
#
#
# Elastic Constant Matrix: (Units=GPa)
#
#
# Indices 1 2 3 4 5 6 
#
# 1 116.3736 30.1182 51.9758 0.0000 0.0000 0.0000
# 2 30.1182 93.3493 34.5264 0.0000 0.0000 0.0000
# 3 51.9758 34.5264 130.8315 0.0000 0.0000 0.0000
# 4 0.0000 0.0000 0.0000 19.3883 0.0000 0.0000
# 5 0.0000 0.0000 0.0000 0.0000 4.6594 0.0000
# 6 0.0000 0.0000 0.0000 0.0000 0.0000 -4.6607
#
#
#
# Elastic Compliance Matrix: (Units=1/GPa)
#
#
# Indices 1 2 3 4 5 6 
#
# 1 0.010807 -0.002104 -0.003738 0.000000 0.000000 0.000000
# 2 -0.002104 0.012281 -0.002405 0.000000 0.000000 0.000000
# 3 -0.003738 -0.002405 0.009763 0.000000 0.000000 0.000000
# 4 0.000000 0.000000 0.000000 0.051577 0.000000 0.000000
# 5 0.000000 0.000000 0.000000 0.000000 0.214618 0.000000
# 6 0.000000 0.000000 0.000000 0.000000 0.000000 -0.214562
#
#
# Mechanical properties :
#
#
# Convention : Reuss Voigt Hill
#
# Bulk Modulus (GPa) = 61.13746 63.75500 62.44623
# Shear Modulus (GPa) = 46.97846 18.80635 32.89241
#
# Velocity S-wave (km/s) = 5.21002 3.29642 4.35951
# Velocity P-wave (km/s) = 8.45681 7.16423 7.83722
#
# Compressibility (1/GPa) = 0.01635659
#
# Stress axis : x y z
#
# Youngs Moduli (GPa) = 92.53143 81.42744 102.42626
#
# Poissons Ratio (x) = 0.17134 0.38288
# Poissons Ratio (y) = 0.19471 0.24633
# Poissons Ratio (z) = 0.34589 0.19583
#
# Static dielectric constant tensor:
#      x y z
#    x 1.623480 0.000000 0.000000 
#    y 0.000000 1.581950 0.000000 
#    z 0.000000 0.000000 1.619420 
# 
# From -- ./inp_files/10964.got.cif
#   From: 2010.05.17/outbox.cif.g08.bks.cpg/sg74_6_cif.got.tgz:10964.got - 2010.06.03 17:57:02.
