data_PCOD9536906
_publ_section_title
;
Structure prediction by ZEFSAII (Michael W. Deem and Ramdas Pophale) SiO2 
 PCOD9536906
Probable space group: I M M A
;
_chemical_formula_sum "Si O2"
_cell_formula_units_Z 96
_cell_length_a 24.349383
_cell_length_b 25.317335
_cell_length_c 6.903924
_cell_angle_alpha 90.000000
_cell_angle_beta 90.000000
_cell_angle_gamma 90.000000
_cell_volume 4256.003251
_symmetry_space_group_name_H-M "I M M A"
_symmetry_group_IT_number 74
_symmetry_cell_setting 'orthorhombic'
loop_
_space_group_symop_operation_xyz
x,y,z
-x,1/2-y,z
x,-y,-z
-x,1/2+y,-z
-x,-y,-z
x,1/2+y,-z
-x,y,z
x,1/2-y,z
1/2+x,1/2+y,1/2+z
1/2-x,-y,1/2+z
1/2+x,1/2-y,1/2-z
1/2-x,y,1/2-z
1/2-x,1/2-y,1/2-z
1/2+x,y,1/2-z
1/2-x,1/2+y,1/2+z
1/2+x,-y,1/2+z
loop_
_atom_site_type_symbol
_atom_site_label
_atom_site_fract_x
_atom_site_fract_y
_atom_site_fract_z
Si Si1 0.000000 0.459435 0.285405
Si Si2 0.382096 0.608774 0.363153
Si Si3 0.882745 0.914585 0.672130
Si Si4 0.674268 0.311450 0.072631
Si Si5 0.204733 0.309924 0.969404
Si Si6 0.185768 0.511191 0.227512
Si Si7 0.500000 0.579095 0.335504
O O1 0.942824 0.437933 0.371258
O O2 0.000000 0.522947 0.274970
O O3 0.000000 0.439236 0.061428
O O4 0.383525 0.596536 0.594976
O O5 0.340522 0.657249 0.355655
O O6 0.354949 0.560202 0.248350
O O7 0.445061 0.612317 0.302059
O O8 0.868673 0.859719 0.564868
O O9 0.835064 0.959406 0.658537
O O10 0.659273 0.250000 0.025372
O O11 0.731689 0.327052 0.968846
O O12 0.688843 0.310416 0.302895
O O13 0.203053 0.250000 0.903951
O O14 0.250000 0.523106 0.250000
O O15 0.179579 0.500000 0.000000
#
# Coordination Sequence:
#
# PCOD9536906 Si02
#       7
#     8  16  16  16  16  16   8
#     4   9  14  24  35  55  83 115 151 180 224 280
#     4   9  16  26  40  60  86 114 148 188 230 276
#     4   9  16  24  40  59  85 116 148 186 229 279
#     4   8  14  23  36  57  84 116 150 182 223 277
#     4   8  14  24  39  58  84 116 148 183 225 276
#     4  10  20  29  43  67  94 120 152 193 238 283
#     4   9  14  24  37  55  83 117 149 182 224 283
#
# _framework density 22.556376
#
# number of rings (size 3 to 8) (size 9 to 14) (size 15 to 20)
#    0.000    3.167    1.667    1.000    7.000    0.000 
#    0.000    0.833    0.000    5.500    0.000    2.333 
#    0.000    0.000    0.000    0.000    0.000    0.500 
#
# Total GULP energy -268245.559756 kJ/mol
# GULP energy per Si atom -5588.449162 kJ/mol
# Density = 2.250504 g / cm^3
# Si number density = 22.556376 Si / 1000 Ang^3
#
#
#
# Elastic Constant Matrix: (Units=GPa)
#
#
# Indices 1 2 3 4 5 6 
#
# 1 214.0114 103.2041 24.9845 0.0000 0.0000 0.0000
# 2 103.2041 113.5547 20.3853 0.0000 0.0000 0.0000
# 3 24.9845 20.3853 86.8094 0.0000 0.0000 0.0000
# 4 0.0000 0.0000 0.0000 26.7755 0.0000 0.0000
# 5 0.0000 0.0000 0.0000 0.0000 26.5239 0.0000
# 6 0.0000 0.0000 0.0000 0.0000 0.0000 30.5539
#
#
#
# Elastic Compliance Matrix: (Units=1/GPa)
#
#
# Indices 1 2 3 4 5 6 
#
# 1 0.008353 -0.007475 -0.000649 0.000000 0.000000 0.000000
# 2 -0.007475 0.015884 -0.001578 0.000000 0.000000 0.000000
# 3 -0.000649 -0.001578 0.012077 0.000000 0.000000 0.000000
# 4 0.000000 0.000000 0.000000 0.037348 0.000000 0.000000
# 5 0.000000 0.000000 0.000000 0.000000 0.037702 0.000000
# 6 0.000000 0.000000 0.000000 0.000000 0.000000 0.032729
#
#
# Mechanical properties :
#
#
# Convention : Reuss Voigt Hill
#
# Bulk Modulus (GPa) = 59.14116 79.05813 69.09965
# Shear Modulus (GPa) = 29.56241 34.49079 32.02660
#
# Velocity S-wave (km/s) = 3.62415 3.91460 3.77217
# Velocity P-wave (km/s) = 6.61731 7.45368 7.04791
#
# Compressibility (1/GPa) = 0.01690870
#
# Stress axis : x y z
#
# Youngs Moduli (GPa) = 119.71304 62.95750 82.80299
#
# Poissons Ratio (x) = 0.47063 0.05371
# Poissons Ratio (y) = 0.89491 0.13070
# Poissons Ratio (z) = 0.07766 0.09938
#
# Static dielectric constant tensor:
#      x y z
#    x 1.800910 0.000000 0.000000 
#    y 0.000000 1.804220 0.000000 
#    z 0.000000 0.000000 1.988060 
# 
# From -- ./inp_files/24294.got.cif
#   From: 2010.05.17/outbox.cif.g08.bks.cpg/sg74_13_cif.got.tgz:24294.got - 2010.06.03 17:57:02.
