data_PCOD9536789
_publ_section_title
;
Structure prediction by ZEFSAII (Michael W. Deem and Ramdas Pophale) SiO2 
 PCOD9536789
Probable space group: I M M A
;
_chemical_formula_sum "Si O2"
_cell_formula_units_Z 112
_cell_length_a 20.039737
_cell_length_b 10.726992
_cell_length_c 26.487905
_cell_angle_alpha 90.000000
_cell_angle_beta 90.000000
_cell_angle_gamma 90.000000
_cell_volume 5694.001595
_symmetry_space_group_name_H-M "I M M A"
_symmetry_group_IT_number 74
_symmetry_cell_setting 'orthorhombic'
loop_
_space_group_symop_operation_xyz
x,y,z
-x,1/2-y,z
x,-y,-z
-x,1/2+y,-z
-x,-y,-z
x,1/2+y,-z
-x,y,z
x,1/2-y,z
1/2+x,1/2+y,1/2+z
1/2-x,-y,1/2+z
1/2+x,1/2-y,1/2-z
1/2-x,y,1/2-z
1/2-x,1/2-y,1/2-z
1/2+x,y,1/2-z
1/2-x,1/2+y,1/2+z
1/2+x,-y,1/2+z
loop_
_atom_site_type_symbol
_atom_site_label
_atom_site_fract_x
_atom_site_fract_y
_atom_site_fract_z
Si Si1 0.571504 0.102863 0.081232
Si Si2 0.072465 0.102479 0.193045
Si Si3 0.216459 0.617791 0.304885
Si Si4 0.577356 0.388707 0.539519
Si Si5 0.884012 0.106873 0.306745
Si Si6 0.819919 0.980293 0.120980
Si Si7 0.220183 0.899807 0.543714
O O1 0.500000 0.047435 0.063744
O O2 0.569402 0.250000 0.069590
O O3 0.574515 0.092062 0.142011
O O4 0.644073 0.063917 0.060332
O O5 0.072666 0.250000 0.183573
O O6 0.079834 0.086761 0.253365
O O7 0.133619 0.046341 0.162505
O O8 0.000000 0.051795 0.176999
O O9 0.179018 0.750000 0.309340
O O10 0.250000 0.614864 0.250000
O O11 0.172783 0.495492 0.309626
O O12 0.271456 0.609611 0.348250
O O13 0.586789 0.500000 0.500000
O O14 0.500000 0.395702 0.556854
O O15 0.586886 0.250000 0.517019
O O16 0.630052 0.410081 0.583557
O O17 0.858649 0.250000 0.306722
O O18 0.772666 0.073169 0.088718
O O19 0.221994 0.750000 0.531097
O O20 0.237896 0.000000 0.500000
#
# Coordination Sequence:
#
# PCOD9536789 Si02
#       7
#    16  16  16  16  16  16  16
#     4   9  18  36  63  92 122 157 197 245 302 361
#     4  10  21  35  57  92 127 159 199 248 297 347
#     4  11  23  38  57  87 125 163 200 243 296 351
#     4  10  23  43  65  89 117 154 203 255 309 364
#     4  10  19  36  62  91 121 156 198 243 289 350
#     4  12  22  38  62  88 120 164 203 250 295 362
#     4  11  25  42  62  90 120 156 202 255 311 366
#
# _framework density 19.669823000000001
#
# number of rings (size 3 to 8) (size 9 to 14) (size 15 to 20)
#    0.000    1.571    2.857    2.143    0.000    6.286 
#    0.000    1.429    0.000    3.429    0.000    0.000 
#    0.000    0.000    0.000    0.000    0.000    0.000 
#
# Total GULP energy -312237.733017 kJ/mol
# GULP energy per Si atom -5575.673804 kJ/mol
# Density = 1.962505 g / cm^3
# Si number density = 19.669823 Si / 1000 Ang^3
#
#
#
# Elastic Constant Matrix: (Units=GPa)
#
#
# Indices 1 2 3 4 5 6 
#
# 1 95.5933 49.5992 19.9311 0.0000 0.0000 0.0000
# 2 49.5992 106.9723 44.1258 0.0000 0.0000 0.0000
# 3 19.9311 44.1258 63.6266 0.0000 0.0000 0.0000
# 4 0.0000 0.0000 0.0000 -53.3679 0.0000 0.0000
# 5 0.0000 0.0000 0.0000 0.0000 -7.1157 0.0000
# 6 0.0000 0.0000 0.0000 0.0000 0.0000 18.9539
#
#
#
# Elastic Compliance Matrix: (Units=1/GPa)
#
#
# Indices 1 2 3 4 5 6 
#
# 1 0.013776 -0.006454 0.000160 0.000000 0.000000 0.000000
# 2 -0.006454 0.016117 -0.009156 0.000000 0.000000 0.000000
# 3 0.000160 -0.009156 0.022016 0.000000 0.000000 0.000000
# 4 0.000000 0.000000 0.000000 -0.018738 0.000000 0.000000
# 5 0.000000 0.000000 0.000000 0.000000 -0.140534 0.000000
# 6 0.000000 0.000000 0.000000 0.000000 0.000000 0.052760
#
#
# Mechanical properties :
#
#
# Convention : Reuss Voigt Hill
#
# Bulk Modulus (GPa) = 47.59391 54.83382 51.21386
# Shear Modulus (GPa) = -299.38987 1.86314 -148.76337
#
# Velocity S-wave (km/s) = -12.35063 0.97430 -8.70600
# Velocity P-wave (km/s) = 13.38414 5.40401 8.65829
#
# Compressibility (1/GPa) = 0.02101109
#
# Stress axis : x y z
#
# Youngs Moduli (GPa) = 72.58985 62.04511 45.42099
#
# Poissons Ratio (x) = 0.40041 -0.00728
# Poissons Ratio (y) = 0.46846 0.41587
# Poissons Ratio (z) = -0.01163 0.56808
#
# Static dielectric constant tensor:
#      x y z
#    x 1.729210 0.000000 0.000000 
#    y 0.000000 1.677820 0.000000 
#    z 0.000000 0.000000 1.698520 
# 
# From -- ./inp_files/61646.got.cif
#   From: 2010.05.17/outbox.cif.g08.bks.cpg/sg74_31_cif.got.tgz:61646.got - 2010.06.03 17:57:02.
