data_PCOD9536751
_publ_section_title
;
Structure prediction by ZEFSAII (Michael W. Deem and Ramdas Pophale) SiO2 
 PCOD9536751
Probable space group: I M M A
;
_chemical_formula_sum "Si O2"
_cell_formula_units_Z 68
_cell_length_a 14.430822
_cell_length_b 17.797085
_cell_length_c 12.622947
_cell_angle_alpha 90.000000
_cell_angle_beta 90.000000
_cell_angle_gamma 90.000000
_cell_volume 3241.908128
_symmetry_space_group_name_H-M "I M M A"
_symmetry_group_IT_number 74
_symmetry_cell_setting 'orthorhombic'
loop_
_space_group_symop_operation_xyz
x,y,z
-x,1/2-y,z
x,-y,-z
-x,1/2+y,-z
-x,-y,-z
x,1/2+y,-z
-x,y,z
x,1/2-y,z
1/2+x,1/2+y,1/2+z
1/2-x,-y,1/2+z
1/2+x,1/2-y,1/2-z
1/2-x,y,1/2-z
1/2-x,1/2-y,1/2-z
1/2+x,y,1/2-z
1/2-x,1/2+y,1/2+z
1/2+x,-y,1/2+z
loop_
_atom_site_type_symbol
_atom_site_label
_atom_site_fract_x
_atom_site_fract_y
_atom_site_fract_z
Si Si1 0.106190 0.490663 0.883782
Si Si2 0.657148 0.624524 0.034485
Si Si3 0.500000 0.750000 0.076894
Si Si4 0.887572 0.027661 0.340206
Si Si5 0.823844 0.831701 0.153650
O O1 0.145248 0.532844 0.781322
O O2 0.110589 0.403257 0.850521
O O3 0.000000 0.516077 0.894208
O O4 0.150334 0.500000 0.000000
O O5 0.580807 0.684013 0.071411
O O6 0.638965 0.596246 0.915779
O O7 0.649545 0.549106 0.106513
O O8 0.757661 0.660161 0.051929
O O9 0.000000 0.021751 0.340790
O O10 0.869634 0.750000 0.160285
O O11 0.750000 0.836749 0.250000
#
# Coordination Sequence:
#
# PCOD9536751 Si02
#       5
#    16  16   4  16  16
#     4  10  23  41  61  81 113 160 203 237 280 343
#     4  11  20  34  58  88 122 146 184 239 301 348
#     4  12  20  34  58  96 126 154 172 238 316 356
#     4  10  19  36  58  86 113 150 196 240 288 345
#     4  11  23  37  55  89 121 148 191 241 297 350
#
# _framework density 20.975301000000002
#
# number of rings (size 3 to 8) (size 9 to 14) (size 15 to 20)
#    0.000    1.412    5.882    0.706    3.294    0.471 
#    0.000    0.000    2.588    1.412    0.000    0.000 
#    0.000    0.000    0.000    0.000    0.000    0.000 
#
# Total GULP energy -189353.218148 kJ/mol
# GULP energy per Si atom -5569.212298 kJ/mol
# Density = 2.092756 g / cm^3
# Si number density = 20.975301 Si / 1000 Ang^3
#
#
#
# Elastic Constant Matrix: (Units=GPa)
#
#
# Indices 1 2 3 4 5 6 
#
# 1 44.0026 -12.5315 0.1051 0.0000 0.0000 0.0000
# 2 -12.5315 58.1746 10.9274 0.0000 0.0000 0.0000
# 3 0.1051 10.9274 147.1411 0.0000 0.0000 0.0000
# 4 0.0000 0.0000 0.0000 13.5579 0.0000 0.0000
# 5 0.0000 0.0000 0.0000 0.0000 6.7875 0.0000
# 6 0.0000 0.0000 0.0000 0.0000 0.0000 33.5771
#
#
#
# Elastic Compliance Matrix: (Units=1/GPa)
#
#
# Indices 1 2 3 4 5 6 
#
# 1 0.024236 0.005298 -0.000411 0.000000 0.000000 0.000000
# 2 0.005298 0.018591 -0.001384 0.000000 0.000000 0.000000
# 3 -0.000411 -0.001384 0.006899 0.000000 0.000000 0.000000
# 4 0.000000 0.000000 0.000000 0.073758 0.000000 0.000000
# 5 0.000000 0.000000 0.000000 0.000000 0.147330 0.000000
# 6 0.000000 0.000000 0.000000 0.000000 0.000000 0.029782
#
#
# Mechanical properties :
#
#
# Convention : Reuss Voigt Hill
#
# Bulk Modulus (GPa) = 17.62700 27.36890 22.49795
# Shear Modulus (GPa) = 15.99996 27.50565 21.75281
#
# Velocity S-wave (km/s) = 2.76488 3.62517 3.22385
# Velocity P-wave (km/s) = 4.31447 5.53163 4.96052
#
# Compressibility (1/GPa) = 0.05673114
#
# Stress axis : x y z
#
# Youngs Moduli (GPa) = 41.26150 53.78978 144.94213
#
# Poissons Ratio (x) = -0.28497 0.05953
# Poissons Ratio (y) = -0.21860 0.20066
# Poissons Ratio (z) = 0.01695 0.07447
#
# Static dielectric constant tensor:
#      x y z
#    x 1.777060 0.000000 0.000000 
#    y 0.000000 1.729650 0.000000 
#    z 0.000000 0.000000 1.840550 
# 
# From -- ./inp_files/20207.got.cif
#   From: 2010.05.17/outbox.cif.g08.bks.cpg/sg74_11_cif.got.tgz:20207.got - 2010.06.03 17:57:02.
