data_PCOD9536943
_publ_section_title
;
Structure prediction by ZEFSAII (Michael W. Deem and Ramdas Pophale) SiO2 
 PCOD9536943
Probable space group: I M M A
;
_chemical_formula_sum "Si O2"
_cell_formula_units_Z 92
_cell_length_a 22.825234
_cell_length_b 7.644739
_cell_length_c 28.207907
_cell_angle_alpha 90.000000
_cell_angle_beta 90.000000
_cell_angle_gamma 90.000000
_cell_volume 4922.081090
_symmetry_space_group_name_H-M "I M M A"
_symmetry_group_IT_number 74
_symmetry_cell_setting 'orthorhombic'
loop_
_space_group_symop_operation_xyz
x,y,z
-x,1/2-y,z
x,-y,-z
-x,1/2+y,-z
-x,-y,-z
x,1/2+y,-z
-x,y,z
x,1/2-y,z
1/2+x,1/2+y,1/2+z
1/2-x,-y,1/2+z
1/2+x,1/2-y,1/2-z
1/2-x,y,1/2-z
1/2-x,1/2-y,1/2-z
1/2+x,y,1/2-z
1/2-x,1/2+y,1/2+z
1/2+x,-y,1/2+z
loop_
_atom_site_type_symbol
_atom_site_label
_atom_site_fract_x
_atom_site_fract_y
_atom_site_fract_z
Si Si1 0.000000 0.038966 0.944630
Si Si2 0.302382 0.454512 0.147728
Si Si3 0.879516 0.043692 0.902216
Si Si4 0.181788 0.538672 0.192666
Si Si5 0.000000 0.750000 0.715814
Si Si6 0.397971 0.451924 0.782389
Si Si7 0.259989 0.957874 0.552892
O O1 0.000000 0.250000 0.940105
O O2 0.059434 0.969985 0.920797
O O3 0.000000 0.000000 0.000000
O O4 0.316069 0.250000 0.142232
O O5 0.247286 0.472356 0.183600
O O6 0.358842 0.543781 0.170040
O O7 0.279118 0.524651 0.096933
O O8 0.888603 0.750000 0.105148
O O9 0.826226 0.023517 0.938984
O O10 0.856111 0.973015 0.852270
O O11 0.186270 0.750000 0.190655
O O12 0.147350 0.496678 0.240310
O O13 0.051133 0.594444 0.715932
O O14 0.417367 0.250000 0.773676
O O15 0.262286 0.750000 0.557997
O O16 0.239366 0.000000 0.500000
#
# Coordination Sequence:
#
# PCOD9536943 Si02
#       7
#     8  16  16  16   4  16  16
#     4  10  20  31  46  63  90 139 192 236 280 321
#     4  10  20  35  58  87 119 150 189 237 295 353
#     4   9  18  33  50  70 102 145 189 237 286 332
#     4   9  19  34  56  84 112 147 191 241 291 348
#     4  12  26  42  58  84 118 158 198 246 286 332
#     4  11  23  40  62  87 118 155 199 238 290 351
#     4  10  20  33  52  80 114 143 180 231 290 345
#
# _framework density 18.691282000000001
#
# number of rings (size 3 to 8) (size 9 to 14) (size 15 to 20)
#    0.000    2.087    0.870    2.348    1.217    6.957 
#    0.000    2.609    1.913    0.000    0.000    0.609 
#    0.000    0.000    0.000    0.000    0.000    0.000 
#
# Total GULP energy -256164.819973 kJ/mol
# GULP energy per Si atom -5568.800434 kJ/mol
# Density = 1.864874 g / cm^3
# Si number density = 18.691282 Si / 1000 Ang^3
#
#
#
# Elastic Constant Matrix: (Units=GPa)
#
#
# Indices 1 2 3 4 5 6 
#
# 1 84.9427 29.6568 51.6234 0.0000 0.0000 0.0000
# 2 29.6568 73.5436 12.6223 0.0000 0.0000 0.0000
# 3 51.6234 12.6223 85.9754 0.0000 0.0000 0.0000
# 4 0.0000 0.0000 0.0000 19.0338 0.0000 0.0000
# 5 0.0000 0.0000 0.0000 0.0000 7.7443 0.0000
# 6 0.0000 0.0000 0.0000 0.0000 0.0000 33.8099
#
#
#
# Elastic Compliance Matrix: (Units=1/GPa)
#
#
# Indices 1 2 3 4 5 6 
#
# 1 0.021210 -0.006532 -0.011777 0.000000 0.000000 0.000000
# 2 -0.006532 0.015960 0.001579 0.000000 0.000000 0.000000
# 3 -0.011777 0.001579 0.018471 0.000000 0.000000 0.000000
# 4 0.000000 0.000000 0.000000 0.052538 0.000000 0.000000
# 5 0.000000 0.000000 0.000000 0.000000 0.129128 0.000000
# 6 0.000000 0.000000 0.000000 0.000000 0.000000 0.029577
#
#
# Mechanical properties :
#
#
# Convention : Reuss Voigt Hill
#
# Bulk Modulus (GPa) = 45.08163 48.02962 46.55562
# Shear Modulus (GPa) = 16.24760 22.15488 19.20124
#
# Velocity S-wave (km/s) = 2.95152 3.44656 3.20860
# Velocity P-wave (km/s) = 5.98220 6.44906 6.22001
#
# Compressibility (1/GPa) = 0.02218198
#
# Stress axis : x y z
#
# Youngs Moduli (GPa) = 47.14673 62.65498 54.13994
#
# Poissons Ratio (x) = 0.40926 0.63759
# Poissons Ratio (y) = 0.30796 -0.08548
# Poissons Ratio (z) = 0.55523 -0.09892
#
# Static dielectric constant tensor:
#      x y z
#    x 1.631550 0.000000 0.000000 
#    y 0.000000 1.691020 0.000000 
#    z 0.000000 0.000000 1.708260 
# 
# From -- ./inp_files/68178.got.cif
#   From: 2010.05.17/outbox.cif.g08.bks.cpg/sg74_35_cif.got.tgz:68178.got - 2010.06.03 17:57:02.
