data_PCOD9536533
_publ_section_title
;
Structure prediction by ZEFSAII (Michael W. Deem and Ramdas Pophale) SiO2 
 PCOD9536533
Probable space group: I M M A
;
_chemical_formula_sum "Si O2"
_cell_formula_units_Z 96
_cell_length_a 18.616205
_cell_length_b 13.958313
_cell_length_c 16.044041
_cell_angle_alpha 90.000000
_cell_angle_beta 90.000000
_cell_angle_gamma 90.000000
_cell_volume 4169.057150
_symmetry_space_group_name_H-M "I M M A"
_symmetry_group_IT_number 74
_symmetry_cell_setting 'orthorhombic'
loop_
_space_group_symop_operation_xyz
x,y,z
-x,1/2-y,z
x,-y,-z
-x,1/2+y,-z
-x,-y,-z
x,1/2+y,-z
-x,y,z
x,1/2-y,z
1/2+x,1/2+y,1/2+z
1/2-x,-y,1/2+z
1/2+x,1/2-y,1/2-z
1/2-x,y,1/2-z
1/2-x,1/2-y,1/2-z
1/2+x,y,1/2-z
1/2-x,1/2+y,1/2+z
1/2+x,-y,1/2+z
loop_
_atom_site_type_symbol
_atom_site_label
_atom_site_fract_x
_atom_site_fract_y
_atom_site_fract_z
Si Si1 0.225740 0.464942 0.095292
Si Si2 0.697686 0.139729 0.854533
Si Si3 0.923663 0.134580 0.520601
Si Si4 0.919788 0.853688 0.209363
Si Si5 0.080577 0.937321 0.837052
Si Si6 0.368795 0.864019 0.841613
O O1 0.238777 0.563344 0.148091
O O2 0.150764 0.410259 0.110670
O O3 0.289902 0.398938 0.130460
O O4 0.228500 0.500000 0.000000
O O5 0.721897 0.250000 0.866468
O O6 0.642175 0.140279 0.778224
O O7 0.646618 0.104181 0.930006
O O8 0.923501 0.250000 0.530467
O O9 0.916090 0.114694 0.423117
O O10 0.000000 0.097989 0.552110
O O11 0.912392 0.750000 0.166810
O O12 0.000000 0.853949 0.249863
O O13 0.920206 0.947466 0.153548
O O14 0.100648 0.913868 0.740939
O O15 0.000000 0.900802 0.855396
O O16 0.368753 0.750000 0.827528
#
# Coordination Sequence:
#
# PCOD9536533 Si02
#       6
#    16  16  16  16  16  16
#     4  12  25  42  63  92 125 164 215 263 320 385
#     4  10  19  34  57  89 128 165 199 243 308 383
#     4   9  17  31  55  88 125 163 199 239 302 382
#     4   9  18  34  58  90 126 159 194 243 305 372
#     4  11  25  43  64  90 123 166 216 266 317 378
#     4  11  23  42  66  95 129 166 212 271 329 386
#
# _framework density 23.026788
#
# number of rings (size 3 to 8) (size 9 to 14) (size 15 to 20)
#    0.000    1.667    3.333    1.500    0.000    5.333 
#    0.000    2.500    0.000    0.000    0.000    4.667 
#    0.000    0.000    0.000    0.000    0.000    0.000 
#
# Total GULP energy -268047.755809 kJ/mol
# GULP energy per Si atom -5584.328246 kJ/mol
# Density = 2.297438 g / cm^3
# Si number density = 23.026788 Si / 1000 Ang^3
#
#
#
# Elastic Constant Matrix: (Units=GPa)
#
#
# Indices 1 2 3 4 5 6 
#
# 1 171.2280 0.4021 20.5327 0.0000 0.0000 0.0000
# 2 0.4021 62.7383 -13.8889 0.0000 0.0000 0.0000
# 3 20.5327 -13.8889 26.4857 0.0000 0.0000 0.0000
# 4 0.0000 0.0000 0.0000 11.9960 0.0000 0.0000
# 5 0.0000 0.0000 0.0000 0.0000 -0.9078 0.0000
# 6 0.0000 0.0000 0.0000 0.0000 0.0000 -2.2655
#
#
#
# Elastic Compliance Matrix: (Units=1/GPa)
#
#
# Indices 1 2 3 4 5 6 
#
# 1 0.006533 -0.001316 -0.005755 0.000000 0.000000 0.000000
# 2 -0.001316 0.018298 0.010615 0.000000 0.000000 0.000000
# 3 -0.005755 0.010615 0.047784 0.000000 0.000000 0.000000
# 4 0.000000 0.000000 0.000000 0.083361 0.000000 0.000000
# 5 0.000000 0.000000 0.000000 0.000000 -1.101602 0.000000
# 6 0.000000 0.000000 0.000000 0.000000 0.000000 -0.441412
#
#
# Mechanical properties :
#
#
# Convention : Reuss Voigt Hill
#
# Bulk Modulus (GPa) = 12.54637 30.50485 21.52561
# Shear Modulus (GPa) = -3.65615 18.65829 7.50107
#
# Velocity S-wave (km/s) = -1.26144 2.84964 1.80682
# Velocity P-wave (km/s) = 1.82723 4.90954 3.70421
#
# Compressibility (1/GPa) = 0.07970433
#
# Stress axis : x y z
#
# Youngs Moduli (GPa) = 153.06065 54.65179 20.92735
#
# Poissons Ratio (x) = 0.07192 0.12044
# Poissons Ratio (y) = 0.20141 -0.22215
# Poissons Ratio (z) = 0.88086 -0.58015
#
# Static dielectric constant tensor:
#      x y z
#    x 1.979340 0.000000 0.000000 
#    y 0.000000 1.888590 0.000000 
#    z 0.000000 0.000000 1.856700 
# 
# From -- ./inp_files/51920.got.cif
#   From: 2010.05.17/outbox.cif.g08.bks.cpg/sg74_26_cif.got.tgz:51920.got - 2010.06.03 17:57:02.
