data_PCOD9536446
_publ_section_title
;
Structure prediction by ZEFSAII (Michael W. Deem and Ramdas Pophale) SiO2 
 PCOD9536446
Probable space group: I M M A
;
_chemical_formula_sum "Si O2"
_cell_formula_units_Z 96
_cell_length_a 21.419735
_cell_length_b 15.314827
_cell_length_c 14.957380
_cell_angle_alpha 90.000000
_cell_angle_beta 90.000000
_cell_angle_gamma 90.000000
_cell_volume 4906.611994
_symmetry_space_group_name_H-M "I M M A"
_symmetry_group_IT_number 74
_symmetry_cell_setting 'orthorhombic'
loop_
_space_group_symop_operation_xyz
x,y,z
-x,1/2-y,z
x,-y,-z
-x,1/2+y,-z
-x,-y,-z
x,1/2+y,-z
-x,y,z
x,1/2-y,z
1/2+x,1/2+y,1/2+z
1/2-x,-y,1/2+z
1/2+x,1/2-y,1/2-z
1/2-x,y,1/2-z
1/2-x,1/2-y,1/2-z
1/2+x,y,1/2-z
1/2-x,1/2+y,1/2+z
1/2+x,-y,1/2+z
loop_
_atom_site_type_symbol
_atom_site_label
_atom_site_fract_x
_atom_site_fract_y
_atom_site_fract_z
Si Si1 0.773398 0.399664 0.476532
Si Si2 0.426085 0.154052 0.858187
Si Si3 0.904722 0.652257 0.568127
Si Si4 0.692238 0.959494 0.677850
Si Si5 0.284981 0.344065 0.654825
Si Si6 0.929006 0.525692 0.723848
O O1 0.791398 0.500000 0.500000
O O2 0.830235 0.355822 0.425404
O O3 0.715097 0.407612 0.409542
O O4 0.760893 0.350965 0.569339
O O5 0.500000 0.158143 0.840885
O O6 0.398632 0.250000 0.837826
O O7 0.403950 0.070840 0.803105
O O8 0.418672 0.137643 0.963662
O O9 0.925460 0.750000 0.591012
O O10 0.932321 0.580115 0.632373
O O11 0.750000 0.955753 0.750000
O O12 0.625772 0.931465 0.717547
O O13 0.683045 0.061286 0.650030
O O14 0.318632 0.250000 0.647374
O O15 0.250000 0.343514 0.750000
O O16 0.000000 0.521085 0.760714
#
# Coordination Sequence:
#
# PCOD9536446 Si02
#       6
#    16  16  16  16  16  16
#     4  10  19  34  55  80 116 151 184 232 288 342
#     4   9  19  33  51  79 115 153 189 228 284 353
#     4  11  21  32  52  79 114 156 195 232 282 343
#     4  10  20  36  56  80 115 153 192 233 278 334
#     4   9  19  33  55  87 114 141 180 236 299 349
#     4  11  22  37  56  80 114 156 197 237 283 337
#
# _framework density 19.565435000000001
#
# number of rings (size 3 to 8) (size 9 to 14) (size 15 to 20)
#    0.000    2.000    1.667    2.500    4.667    3.000 
#    0.000    2.500    0.000    4.500    0.000    0.000 
#    0.000    0.000    0.000    0.000    0.000    0.000 
#
# Total GULP energy -267633.331128 kJ/mol
# GULP energy per Si atom -5575.694398 kJ/mol
# Density = 1.952090 g / cm^3
# Si number density = 19.565435 Si / 1000 Ang^3
#
#
#
# Elastic Constant Matrix: (Units=GPa)
#
#
# Indices 1 2 3 4 5 6 
#
# 1 86.6881 21.8912 35.1697 0.0000 0.0000 0.0000
# 2 21.8912 49.0842 30.2866 0.0000 0.0000 0.0000
# 3 35.1697 30.2866 68.1675 0.0000 0.0000 0.0000
# 4 0.0000 0.0000 0.0000 -22.0087 0.0000 0.0000
# 5 0.0000 0.0000 0.0000 0.0000 25.0269 0.0000
# 6 0.0000 0.0000 0.0000 0.0000 0.0000 8.5241
#
#
#
# Elastic Compliance Matrix: (Units=1/GPa)
#
#
# Indices 1 2 3 4 5 6 
#
# 1 0.014828 -0.002608 -0.006492 0.000000 0.000000 0.000000
# 2 -0.002608 0.028526 -0.011329 0.000000 0.000000 0.000000
# 3 -0.006492 -0.011329 0.023052 0.000000 0.000000 0.000000
# 4 0.000000 0.000000 0.000000 -0.045437 0.000000 0.000000
# 5 0.000000 0.000000 0.000000 0.000000 0.039957 0.000000
# 6 0.000000 0.000000 0.000000 0.000000 0.000000 0.117314
#
#
# Mechanical properties :
#
#
# Convention : Reuss Voigt Hill
#
# Bulk Modulus (GPa) = 39.13818 42.07053 40.60436
# Shear Modulus (GPa) = 21.96703 10.08129 16.02416
#
# Velocity S-wave (km/s) = 3.35438 2.27240 2.86493
# Velocity P-wave (km/s) = 5.92027 5.33237 5.63400
#
# Compressibility (1/GPa) = 0.02555050
#
# Stress axis : x y z
#
# Youngs Moduli (GPa) = 67.44125 35.05524 43.37964
#
# Poissons Ratio (x) = 0.09141 0.28160
# Poissons Ratio (y) = 0.17586 0.49144
# Poissons Ratio (z) = 0.43780 0.39714
#
# Static dielectric constant tensor:
#      x y z
#    x 1.744770 0.000000 0.000000 
#    y 0.000000 1.733520 0.000000 
#    z 0.000000 0.000000 1.677940 
# 
# From -- ./inp_files/35276.got.cif
#   From: 2010.05.17/outbox.cif.g08.bks.cpg/sg74_18_cif.got.tgz:35276.got - 2010.06.03 17:57:02.
