data_PCOD9536072
_publ_section_title
;
Structure prediction by ZEFSAII (Michael W. Deem and Ramdas Pophale) SiO2 
 PCOD9536072
Probable space group: I M M A
;
_chemical_formula_sum "Si O2"
_cell_formula_units_Z 96
_cell_length_a 23.957657
_cell_length_b 14.566236
_cell_length_c 13.191822
_cell_angle_alpha 90.000000
_cell_angle_beta 90.000000
_cell_angle_gamma 90.000000
_cell_volume 4603.588193
_symmetry_space_group_name_H-M "I M M A"
_symmetry_group_IT_number 74
_symmetry_cell_setting 'orthorhombic'
loop_
_space_group_symop_operation_xyz
x,y,z
-x,1/2-y,z
x,-y,-z
-x,1/2+y,-z
-x,-y,-z
x,1/2+y,-z
-x,y,z
x,1/2-y,z
1/2+x,1/2+y,1/2+z
1/2-x,-y,1/2+z
1/2+x,1/2-y,1/2-z
1/2-x,y,1/2-z
1/2-x,1/2-y,1/2-z
1/2+x,y,1/2-z
1/2-x,1/2+y,1/2+z
1/2+x,-y,1/2+z
loop_
_atom_site_type_symbol
_atom_site_label
_atom_site_fract_x
_atom_site_fract_y
_atom_site_fract_z
Si Si1 0.740925 0.355968 0.860826
Si Si2 0.934864 0.361807 0.356902
Si Si3 0.065227 0.361502 0.767905
Si Si4 0.375186 0.637601 0.057733
Si Si5 0.143845 0.904220 0.047500
Si Si6 0.937768 0.858455 0.866559
O O1 0.724810 0.250000 0.841367
O O2 0.750000 0.399873 0.750000
O O3 0.687742 0.394493 0.919820
O O4 0.798978 0.356250 0.920357
O O5 0.931079 0.250000 0.358474
O O6 0.899097 0.396512 0.451041
O O7 0.918882 0.394374 0.243817
O O8 0.000000 0.384585 0.371335
O O9 0.070772 0.250000 0.780088
O O10 0.086850 0.384868 0.655406
O O11 0.104161 0.405962 0.853790
O O12 0.000000 0.384307 0.780110
O O13 0.375960 0.750000 0.051350
O O14 0.104983 0.866839 0.957830
O O15 0.162045 0.000000 0.000000
O O16 0.944254 0.750000 0.851559
O O17 0.000000 0.895859 0.890893
#
# Coordination Sequence:
#
# PCOD9536072 Si02
#       6
#    16  16  16  16  16  16
#     4  10  19  36  60  80 103 140 188 237 281 326
#     4   8  14  27  50  81 112 137 166 212 272 328
#     4  10  19  32  56  88 115 140 179 231 282 333
#     4   9  16  29  55  86 109 133 173 230 283 323
#     4  12  24  36  51  78 112 150 184 227 277 338
#     4   9  18  34  56  79 108 147 185 222 268 330
#
# _framework density 20.853297999999999
#
# number of rings (size 3 to 8) (size 9 to 14) (size 15 to 20)
#    0.000    2.333    1.667    3.500    0.000    4.667 
#    0.000    2.500    0.000    4.000    0.000    3.500 
#    0.000    0.000    0.000    0.000    0.000    0.000 
#
# Total GULP energy -267807.330256 kJ/mol
# GULP energy per Si atom -5579.319380 kJ/mol
# Density = 2.080584 g / cm^3
# Si number density = 20.853298 Si / 1000 Ang^3
#
#
#
# Elastic Constant Matrix: (Units=GPa)
#
#
# Indices 1 2 3 4 5 6 
#
# 1 115.3705 -5.9308 77.9438 0.0000 0.0000 0.0000
# 2 -5.9308 24.1411 2.4933 0.0000 0.0000 0.0000
# 3 77.9438 2.4933 167.8283 0.0000 0.0000 0.0000
# 4 0.0000 0.0000 0.0000 101.2062 0.0000 0.0000
# 5 0.0000 0.0000 0.0000 0.0000 10.2548 0.0000
# 6 0.0000 0.0000 0.0000 0.0000 0.0000 -46.5407
#
#
#
# Elastic Compliance Matrix: (Units=1/GPa)
#
#
# Indices 1 2 3 4 5 6 
#
# 1 0.012972 0.003815 -0.006081 0.000000 0.000000 0.000000
# 2 0.003815 0.042609 -0.002405 0.000000 0.000000 0.000000
# 3 -0.006081 -0.002405 0.008819 0.000000 0.000000 0.000000
# 4 0.000000 0.000000 0.000000 0.009881 0.000000 0.000000
# 5 0.000000 0.000000 0.000000 0.000000 0.097515 0.000000
# 6 0.000000 0.000000 0.000000 0.000000 0.000000 -0.021487
#
#
# Mechanical properties :
#
#
# Convention : Reuss Voigt Hill
#
# Bulk Modulus (GPa) = 18.16288 50.70582 34.43435
# Shear Modulus (GPa) = 28.08926 28.50630 28.29778
#
# Velocity S-wave (km/s) = 3.67412 3.70130 3.68773
# Velocity P-wave (km/s) = 5.16988 6.52950 5.88906
#
# Compressibility (1/GPa) = 0.05505736
#
# Stress axis : x y z
#
# Youngs Moduli (GPa) = 77.08667 23.46939 113.39724
#
# Poissons Ratio (x) = -0.08954 0.68961
# Poissons Ratio (y) = -0.29409 0.27270
# Poissons Ratio (z) = 0.46879 0.05644
#
# Static dielectric constant tensor:
#      x y z
#    x 1.727760 0.000000 0.000000 
#    y 0.000000 0.816730 0.000000 
#    z 0.000000 0.000000 1.747990 
# 
# From -- ./inp_files/25155.got.cif
#   From: 2010.05.17/outbox.cif.g08.bks.cpg/sg74_13_cif.got.tgz:25155.got - 2010.06.03 17:57:02.
