data_PCOD9536727
_publ_section_title
;
Structure prediction by ZEFSAII (Michael W. Deem and Ramdas Pophale) SiO2 
 PCOD9536727
Probable space group: I M M A
;
_chemical_formula_sum "Si O2"
_cell_formula_units_Z 96
_cell_length_a 25.186227
_cell_length_b 21.398528
_cell_length_c 9.279654
_cell_angle_alpha 90.000000
_cell_angle_beta 90.000000
_cell_angle_gamma 90.000000
_cell_volume 5001.252668
_symmetry_space_group_name_H-M "I M M A"
_symmetry_group_IT_number 74
_symmetry_cell_setting 'orthorhombic'
loop_
_space_group_symop_operation_xyz
x,y,z
-x,1/2-y,z
x,-y,-z
-x,1/2+y,-z
-x,-y,-z
x,1/2+y,-z
-x,y,z
x,1/2-y,z
1/2+x,1/2+y,1/2+z
1/2-x,-y,1/2+z
1/2+x,1/2-y,1/2-z
1/2-x,y,1/2-z
1/2-x,1/2-y,1/2-z
1/2+x,y,1/2-z
1/2-x,1/2+y,1/2+z
1/2+x,-y,1/2+z
loop_
_atom_site_type_symbol
_atom_site_label
_atom_site_fract_x
_atom_site_fract_y
_atom_site_fract_z
Si Si1 0.938651 0.054359 0.596815
Si Si2 0.062708 0.819673 0.298053
Si Si3 0.296014 0.450729 0.134328
Si Si4 0.371351 0.984729 0.334188
Si Si5 0.773101 0.679981 0.483398
Si Si6 0.330168 0.348601 0.681621
O O1 0.920525 0.125993 0.589790
O O2 0.926500 0.035213 0.760598
O O3 0.000000 0.056611 0.562513
O O4 0.914235 0.000000 0.500000
O O5 0.065699 0.750000 0.357746
O O6 0.108581 0.825592 0.176573
O O7 0.000000 0.829800 0.256835
O O8 0.250000 0.464040 0.250000
O O9 0.347414 0.461306 0.234371
O O10 0.293760 0.500000 0.000000
O O11 0.289687 0.380282 0.076105
O O12 0.333762 0.923851 0.316650
O O13 0.375279 0.000000 0.500000
O O14 0.781851 0.750000 0.542869
O O15 0.710816 0.672362 0.440654
O O16 0.805067 0.674533 0.332110
#
# Coordination Sequence:
#
# PCOD9536727 Si02
#       6
#    16  16  16  16  16  16
#     4   9  19  35  56  84 119 151 187 240 296 342
#     4   9  17  30  53  83 112 147 192 236 280 342
#     4  12  23  38  57  80 112 146 190 239 289 345
#     4  11  22  36  58  84 112 153 196 236 287 343
#     4  11  22  35  56  83 112 152 191 236 297 355
#     4  10  19  36  54  81 117 150 190 239 290 351
#
# _framework density 19.195191000000001
#
# number of rings (size 3 to 8) (size 9 to 14) (size 15 to 20)
#    0.000    1.667    1.667    5.000    2.333    0.667 
#    0.000    0.000    0.000    1.000    0.000    0.000 
#    0.000   16.000    0.000    0.000    0.000    0.000 
#
# Total GULP energy -267241.319214 kJ/mol
# GULP energy per Si atom -5567.527484 kJ/mol
# Density = 1.915150 g / cm^3
# Si number density = 19.195191 Si / 1000 Ang^3
#
#
#
# Elastic Constant Matrix: (Units=GPa)
#
#
# Indices 1 2 3 4 5 6 
#
# 1 39.0414 14.2202 -10.9003 0.0000 0.0000 0.0000
# 2 14.2202 172.2915 44.0358 0.0000 0.0000 0.0000
# 3 -10.9003 44.0358 71.7070 0.0000 0.0000 0.0000
# 4 0.0000 0.0000 0.0000 18.2739 0.0000 0.0000
# 5 0.0000 0.0000 0.0000 0.0000 10.0472 0.0000
# 6 0.0000 0.0000 0.0000 0.0000 0.0000 8.0039
#
#
#
# Elastic Compliance Matrix: (Units=1/GPa)
#
#
# Indices 1 2 3 4 5 6 
#
# 1 0.029093 -0.004189 0.006995 0.000000 0.000000 0.000000
# 2 -0.004189 0.007488 -0.005235 0.000000 0.000000 0.000000
# 3 0.006995 -0.005235 0.018224 0.000000 0.000000 0.000000
# 4 0.000000 0.000000 0.000000 0.054723 0.000000 0.000000
# 5 0.000000 0.000000 0.000000 0.000000 0.099531 0.000000
# 6 0.000000 0.000000 0.000000 0.000000 0.000000 0.124939
#
#
# Mechanical properties :
#
#
# Convention : Reuss Voigt Hill
#
# Bulk Modulus (GPa) = 20.02170 41.97238 30.99704
# Shear Modulus (GPa) = 14.06456 22.97728 18.52092
#
# Velocity S-wave (km/s) = 2.70980 3.46357 3.10961
# Velocity P-wave (km/s) = 4.49933 6.15700 5.39224
#
# Compressibility (1/GPa) = 0.04994580
#
# Stress axis : x y z
#
# Youngs Moduli (GPa) = 34.37307 133.54867 54.87304
#
# Poissons Ratio (x) = 0.55943 -0.38383
# Poissons Ratio (y) = 0.14399 0.28727
# Poissons Ratio (z) = -0.24044 0.69915
#
# Static dielectric constant tensor:
#      x y z
#    x 1.716980 0.000000 0.000000 
#    y 0.000000 1.733110 0.000000 
#    z 0.000000 0.000000 1.655650 
# 
# From -- ./inp_files/15106.got.cif
#   From: 2010.05.17/outbox.cif.g08.bks.cpg/sg74_8_cif.got.tgz:15106.got - 2010.06.03 17:57:02.
