data_PCOD9536460
_publ_section_title
;
Structure prediction by ZEFSAII (Michael W. Deem and Ramdas Pophale) SiO2 
 PCOD9536460
Probable space group: I M M A
;
_chemical_formula_sum "Si O2"
_cell_formula_units_Z 112
_cell_length_a 27.642688
_cell_length_b 15.465255
_cell_length_c 14.082612
_cell_angle_alpha 90.000000
_cell_angle_beta 90.000000
_cell_angle_gamma 90.000000
_cell_volume 6020.333794
_symmetry_space_group_name_H-M "I M M A"
_symmetry_group_IT_number 74
_symmetry_cell_setting 'orthorhombic'
loop_
_space_group_symop_operation_xyz
x,y,z
-x,1/2-y,z
x,-y,-z
-x,1/2+y,-z
-x,-y,-z
x,1/2+y,-z
-x,y,z
x,1/2-y,z
1/2+x,1/2+y,1/2+z
1/2-x,-y,1/2+z
1/2+x,1/2-y,1/2-z
1/2-x,y,1/2-z
1/2-x,1/2-y,1/2-z
1/2+x,y,1/2-z
1/2-x,1/2+y,1/2+z
1/2+x,-y,1/2+z
loop_
_atom_site_type_symbol
_atom_site_label
_atom_site_fract_x
_atom_site_fract_y
_atom_site_fract_z
Si Si1 0.305647 0.350458 0.775343
Si Si2 0.617857 0.964820 0.337713
Si Si3 0.915433 0.157770 0.375982
Si Si4 0.945682 0.529923 0.348189
Si Si5 0.944772 0.850008 0.026104
Si Si6 0.886606 0.155620 0.155469
Si Si7 0.645253 0.405353 0.963282
O O1 0.316506 0.250000 0.756115
O O2 0.250000 0.366683 0.750000
O O3 0.340068 0.410093 0.711711
O O4 0.318011 0.368860 0.885807
O O5 0.575220 0.972932 0.258625
O O6 0.593366 0.912548 0.423263
O O7 0.636951 0.061476 0.360386
O O8 0.939582 0.250000 0.396589
O O9 0.899711 0.158448 0.266103
O O10 0.868795 0.148957 0.444216
O O11 0.944325 0.068568 0.387170
O O12 0.905844 0.582430 0.407431
O O13 0.000000 0.563892 0.352357
O O14 0.939154 0.750000 0.059338
O O15 0.000000 0.876948 0.043380
O O16 0.932956 0.849220 0.914023
O O17 0.636862 0.250000 0.367434
O O18 0.660485 0.500000 0.000000
#
# Coordination Sequence:
#
# PCOD9536460 Si02
#       7
#    16  16  16  16  16  16  16
#     4  10  21  38  61  87 111 136 176 234 292 342
#     4  10  19  34  56  77 103 141 181 226 283 338
#     4   9  17  29  46  68  97 134 172 209 250 298
#     4   9  18  30  45  70 102 134 171 212 253 306
#     4  10  20  33  51  78 112 150 192 234 277 331
#     4   9  19  33  49  73 105 140 179 220 260 311
#     4   9  18  33  54  77 105 141 177 215 263 321
#
# _framework density 18.603618999999998
#
# number of rings (size 3 to 8) (size 9 to 14) (size 15 to 20)
#    0.000    2.571    0.000    2.571    0.000    6.286 
#    0.000    4.286    0.000    8.571    0.000    0.000 
#    0.000    0.000    0.000    0.000    0.000    0.000 
#
# Total GULP energy -311798.010667 kJ/mol
# GULP energy per Si atom -5567.821619 kJ/mol
# Density = 1.856128 g / cm^3
# Si number density = 18.603619 Si / 1000 Ang^3
#
#
#
# Elastic Constant Matrix: (Units=GPa)
#
#
# Indices 1 2 3 4 5 6 
#
# 1 67.5399 45.8543 25.6518 0.0000 0.0000 0.0000
# 2 45.8543 110.7122 28.1495 0.0000 0.0000 0.0000
# 3 25.6518 28.1495 93.3043 0.0000 0.0000 0.0000
# 4 0.0000 0.0000 0.0000 108.6671 0.0000 0.0000
# 5 0.0000 0.0000 0.0000 0.0000 12.3101 0.0000
# 6 0.0000 0.0000 0.0000 0.0000 0.0000 12.6767
#
#
#
# Elastic Compliance Matrix: (Units=1/GPa)
#
#
# Indices 1 2 3 4 5 6 
#
# 1 0.021610 -0.008058 -0.003510 0.000000 0.000000 0.000000
# 2 -0.008058 0.012787 -0.001643 0.000000 0.000000 0.000000
# 3 -0.003510 -0.001643 0.012178 0.000000 0.000000 0.000000
# 4 0.000000 0.000000 0.000000 0.009202 0.000000 0.000000
# 5 0.000000 0.000000 0.000000 0.000000 0.081234 0.000000
# 6 0.000000 0.000000 0.000000 0.000000 0.000000 0.078885
#
#
# Mechanical properties :
#
#
# Convention : Reuss Voigt Hill
#
# Bulk Modulus (GPa) = 49.61687 52.31862 50.96775
# Shear Modulus (GPa) = 20.07738 38.19083 29.13410
#
# Velocity S-wave (km/s) = 3.28871 4.53578 3.96162
# Velocity P-wave (km/s) = 6.41477 7.45754 6.95572
#
# Compressibility (1/GPa) = 0.02015443
#
# Stress axis : x y z
#
# Youngs Moduli (GPa) = 46.27526 78.20195 82.11393
#
# Poissons Ratio (x) = 0.63013 0.28823
# Poissons Ratio (y) = 0.37288 0.13488
# Poissons Ratio (z) = 0.16243 0.12845
#
# Static dielectric constant tensor:
#      x y z
#    x 1.598020 0.000000 0.000000 
#    y 0.000000 1.711440 0.000000 
#    z 0.000000 0.000000 1.672240 
# 
# From -- ./inp_files/37397.got.cif
#   From: 2010.05.17/outbox.cif.g08.bks.cpg/sg74_19_cif.got.tgz:37397.got - 2010.06.03 17:57:02.
