data_PCOD9536881
_publ_section_title
;
Structure prediction by ZEFSAII (Michael W. Deem and Ramdas Pophale) SiO2 
 PCOD9536881
Probable space group: I M M A
;
_chemical_formula_sum "Si O2"
_cell_formula_units_Z 92
_cell_length_a 24.508460
_cell_length_b 7.703469
_cell_length_c 22.375951
_cell_angle_alpha 90.000000
_cell_angle_beta 90.000000
_cell_angle_gamma 90.000000
_cell_volume 4224.583170
_symmetry_space_group_name_H-M "I M M A"
_symmetry_group_IT_number 74
_symmetry_cell_setting 'orthorhombic'
loop_
_space_group_symop_operation_xyz
x,y,z
-x,1/2-y,z
x,-y,-z
-x,1/2+y,-z
-x,-y,-z
x,1/2+y,-z
-x,y,z
x,1/2-y,z
1/2+x,1/2+y,1/2+z
1/2-x,-y,1/2+z
1/2+x,1/2-y,1/2-z
1/2-x,y,1/2-z
1/2-x,1/2-y,1/2-z
1/2+x,y,1/2-z
1/2-x,1/2+y,1/2+z
1/2+x,-y,1/2+z
loop_
_atom_site_type_symbol
_atom_site_label
_atom_site_fract_x
_atom_site_fract_y
_atom_site_fract_z
Si Si1 0.114572 0.538533 0.626844
Si Si2 0.176424 0.548970 0.135151
Si Si3 0.923600 0.949564 0.931426
Si Si4 0.778838 0.544955 0.566044
Si Si5 0.500000 0.750000 0.386993
Si Si6 0.000000 0.959524 0.571362
Si Si7 0.310612 0.549764 0.763286
O O1 0.110809 0.750000 0.630377
O O2 0.159065 0.488670 0.576824
O O3 0.054833 0.477830 0.605920
O O4 0.145694 0.480849 0.688150
O O5 0.164109 0.750000 0.141908
O O6 0.140078 0.467277 0.083151
O O7 0.239029 0.531214 0.115608
O O8 0.163777 0.456847 0.197466
O O9 0.939661 0.750000 0.921598
O O10 0.953467 0.094758 0.892250
O O11 0.935053 0.000000 0.000000
O O12 0.760263 0.500000 0.500000
O O13 0.776852 0.750000 0.573422
O O14 0.000000 0.750000 0.574904
O O15 0.000000 0.000000 0.500000
O O16 0.300268 0.750000 0.781690
O O17 0.250000 0.469986 0.750000
#
# Coordination Sequence:
#
# PCOD9536881 Si02
#       7
#    16  16  16  16   4   8  16
#     4   9  19  36  61  90 123 166 213 261 322 400
#     4  12  24  40  58  91 128 163 212 272 327 395
#     4  12  24  41  66  94 129 171 218 272 330 386
#     4  11  21  36  57  87 125 164 203 257 326 395
#     4  12  24  44  64  96 122 170 218 266 308 398
#     4  10  20  38  63  93 128 168 212 264 323 393
#     4  10  19  38  64  88 119 166 215 265 326 397
#
# _framework density 21.777294999999999
#
# number of rings (size 3 to 8) (size 9 to 14) (size 15 to 20)
#    0.000    1.217    3.478    3.652    0.000    0.348 
#    0.000    2.609    0.000    2.087    0.000    0.000 
#    0.000    0.000    0.000    0.000    0.000    0.000 
#
# Total GULP energy -256185.744943 kJ/mol
# GULP energy per Si atom -5569.255325 kJ/mol
# Density = 2.172773 g / cm^3
# Si number density = 21.777295 Si / 1000 Ang^3
#
#
#
# Elastic Constant Matrix: (Units=GPa)
#
#
# Indices 1 2 3 4 5 6 
#
# 1 164.3356 20.7311 48.2137 0.0000 0.0000 0.0000
# 2 20.7311 110.1026 3.5545 0.0000 0.0000 0.0000
# 3 48.2137 3.5545 123.6591 0.0000 0.0000 0.0000
# 4 0.0000 0.0000 0.0000 17.5920 0.0000 0.0000
# 5 0.0000 0.0000 0.0000 0.0000 10.7498 0.0000
# 6 0.0000 0.0000 0.0000 0.0000 0.0000 298.5217
#
#
#
# Elastic Compliance Matrix: (Units=1/GPa)
#
#
# Indices 1 2 3 4 5 6 
#
# 1 0.007036 -0.001237 -0.002708 0.000000 0.000000 0.000000
# 2 -0.001237 0.009308 0.000215 0.000000 0.000000 0.000000
# 3 -0.002708 0.000215 0.009136 0.000000 0.000000 0.000000
# 4 0.000000 0.000000 0.000000 0.056844 0.000000 0.000000
# 5 0.000000 0.000000 0.000000 0.000000 0.093025 0.000000
# 6 0.000000 0.000000 0.000000 0.000000 0.000000 0.003350
#
#
# Mechanical properties :
#
#
# Convention : Reuss Voigt Hill
#
# Bulk Modulus (GPa) = 55.49313 60.34399 57.91856
# Shear Modulus (GPa) = 26.01916 87.07924 56.54920
#
# Velocity S-wave (km/s) = 3.46031 6.33033 5.10132
# Velocity P-wave (km/s) = 6.44224 9.01113 7.83272
#
# Compressibility (1/GPa) = 0.01802025
#
# Stress axis : x y z
#
# Youngs Moduli (GPa) = 142.13541 107.42903 109.45453
#
# Poissons Ratio (x) = 0.13292 0.29635
# Poissons Ratio (y) = 0.17586 -0.02352
# Poissons Ratio (z) = 0.38484 -0.02308
#
# Static dielectric constant tensor:
#      x y z
#    x 1.874890 0.000000 0.000000 
#    y 0.000000 1.798670 0.000000 
#    z 0.000000 0.000000 1.794130 
# 
# From -- ./inp_files/54556.got.cif
#   From: 2010.05.17/outbox.cif.g08.bks.cpg/sg74_28_cif.got.tgz:54556.got - 2010.06.03 17:57:02.
