data_PCOD9536416
_publ_section_title
;
Structure prediction by ZEFSAII (Michael W. Deem and Ramdas Pophale) SiO2 
 PCOD9536416
Probable space group: I M M A
;
_chemical_formula_sum "Si O2"
_cell_formula_units_Z 52
_cell_length_a 14.386903
_cell_length_b 5.434790
_cell_length_c 33.058637
_cell_angle_alpha 90.000000
_cell_angle_beta 90.000000
_cell_angle_gamma 90.000000
_cell_volume 2584.848101
_symmetry_space_group_name_H-M "I M M A"
_symmetry_group_IT_number 74
_symmetry_cell_setting 'orthorhombic'
loop_
_space_group_symop_operation_xyz
x,y,z
-x,1/2-y,z
x,-y,-z
-x,1/2+y,-z
-x,-y,-z
x,1/2+y,-z
-x,y,z
x,1/2-y,z
1/2+x,1/2+y,1/2+z
1/2-x,-y,1/2+z
1/2+x,1/2-y,1/2-z
1/2-x,y,1/2-z
1/2-x,1/2-y,1/2-z
1/2+x,y,1/2-z
1/2-x,1/2+y,1/2+z
1/2+x,-y,1/2+z
loop_
_atom_site_type_symbol
_atom_site_label
_atom_site_fract_x
_atom_site_fract_y
_atom_site_fract_z
Si Si1 0.799925 0.250000 0.621580
Si Si2 0.399174 0.250000 0.474406
Si Si3 0.500000 0.750000 0.148319
Si Si4 0.500000 0.250000 0.199093
Si Si5 0.206476 0.750000 0.573001
Si Si6 0.352628 0.250000 0.268489
Si Si7 0.500000 0.250000 0.027832
Si Si8 0.195854 0.750000 0.206456
O O1 0.776960 0.504080 0.599506
O O2 0.763459 0.250000 0.667895
O O3 0.910194 0.250000 0.621728
O O4 0.500000 0.250000 0.450614
O O5 0.402395 0.500000 0.500000
O O6 0.295621 0.250000 0.456107
O O7 0.500000 0.499786 0.173967
O O8 0.414166 0.250000 0.228993
O O9 0.100316 0.750000 0.553211
O O10 0.250000 0.250000 0.250000
O O11 0.363226 0.500249 0.293304
O O12 0.500000 0.500000 0.000000
O O13 0.250000 0.750000 0.250000
#
# Coordination Sequence:
#
# PCOD9536416 Si02
#       8
#     8   8   4   4   8   8   4   8
#     4  12  24  39  62  89 130 175 211 271 320 391
#     4  10  21  41  71 100 125 160 217 267 301 365
#     4  12  22  37  54  88 118 159 218 254 316 381
#     4  12  22  35  62  86 108 151 208 286 330 371
#     4  12  24  41  63  99 136 175 214 251 327 388
#     4  10  19  34  54  79 106 136 190 260 326 373
#     4  12  24  42  68 100 146 182 206 254 316 402
#     4  10  20  37  58  79 111 158 210 266 319 362
#
# _framework density 20.117238
#
# number of rings (size 3 to 8) (size 9 to 14) (size 15 to 20)
#    0.000    0.923    0.000   10.154    0.000    0.000 
#    0.000    0.000   10.154    0.000    0.000    0.000 
#    0.000    0.000    0.000    0.000    0.000    0.000 
#
# Total GULP energy -144875.594906 kJ/mol
# GULP energy per Si atom -5572.138266 kJ/mol
# Density = 2.007145 g / cm^3
# Si number density = 20.117238 Si / 1000 Ang^3
#
#
#
# Elastic Constant Matrix: (Units=GPa)
#
#
# Indices 1 2 3 4 5 6 
#
# 1 104.9479 18.7805 31.4563 0.0000 0.0000 0.0000
# 2 18.7805 219.1872 48.1644 0.0000 0.0000 0.0000
# 3 31.4563 48.1644 72.3070 0.0000 0.0000 0.0000
# 4 0.0000 0.0000 0.0000 64.7516 0.0000 0.0000
# 5 0.0000 0.0000 0.0000 0.0000 37.8527 0.0000
# 6 0.0000 0.0000 0.0000 0.0000 0.0000 75.3260
#
#
#
# Elastic Compliance Matrix: (Units=1/GPa)
#
#
# Indices 1 2 3 4 5 6 
#
# 1 0.010960 0.000127 -0.004853 0.000000 0.000000 0.000000
# 2 0.000127 0.005346 -0.003616 0.000000 0.000000 0.000000
# 3 -0.004853 -0.003616 0.018350 0.000000 0.000000 0.000000
# 4 0.000000 0.000000 0.000000 0.015444 0.000000 0.000000
# 5 0.000000 0.000000 0.000000 0.000000 0.026418 0.000000
# 6 0.000000 0.000000 0.000000 0.000000 0.000000 0.013276
#
#
# Mechanical properties :
#
#
# Convention : Reuss Voigt Hill
#
# Bulk Modulus (GPa) = 55.64121 65.91603 60.77862
# Shear Modulus (GPa) = 44.45670 55.45545 49.95607
#
# Velocity S-wave (km/s) = 4.70604 5.25604 4.98863
# Velocity P-wave (km/s) = 7.56621 8.34696 7.96616
#
# Compressibility (1/GPa) = 0.01797229
#
# Stress axis : x y z
#
# Youngs Moduli (GPa) = 91.23801 187.05266 54.49561
#
# Poissons Ratio (x) = -0.02381 0.26446
# Poissons Ratio (y) = -0.01161 0.19708
# Poissons Ratio (z) = 0.44277 0.67647
#
# Static dielectric constant tensor:
#      x y z
#    x 1.733740 0.000000 0.000000 
#    y 0.000000 1.690270 0.000000 
#    z 0.000000 0.000000 2.532640 
# 
# From -- ./inp_files/72193.got.cif
#   From: 2010.05.17/outbox.cif.g08.bks.cpg/sg74_37_cif.got.tgz:72193.got - 2010.06.03 17:57:02.
