data_PCOD9536603
_publ_section_title
;
Structure prediction by ZEFSAII (Michael W. Deem and Ramdas Pophale) SiO2 
 PCOD9536603
Probable space group: I M M A
;
_chemical_formula_sum "Si O2"
_cell_formula_units_Z 116
_cell_length_a 8.915316
_cell_length_b 27.450105
_cell_length_c 28.891407
_cell_angle_alpha 90.000000
_cell_angle_beta 90.000000
_cell_angle_gamma 90.000000
_cell_volume 7070.488879
_symmetry_space_group_name_H-M "I M M A"
_symmetry_group_IT_number 74
_symmetry_cell_setting 'orthorhombic'
loop_
_space_group_symop_operation_xyz
x,y,z
-x,1/2-y,z
x,-y,-z
-x,1/2+y,-z
-x,-y,-z
x,1/2+y,-z
-x,y,z
x,1/2-y,z
1/2+x,1/2+y,1/2+z
1/2-x,-y,1/2+z
1/2+x,1/2-y,1/2-z
1/2-x,y,1/2-z
1/2-x,1/2-y,1/2-z
1/2+x,y,1/2-z
1/2-x,1/2+y,1/2+z
1/2+x,-y,1/2+z
loop_
_atom_site_type_symbol
_atom_site_label
_atom_site_fract_x
_atom_site_fract_y
_atom_site_fract_z
Si Si1 0.179354 0.892777 0.389965
Si Si2 0.679584 0.193194 0.556076
Si Si3 0.179317 0.078889 0.101862
Si Si4 0.821256 0.988042 0.446624
Si Si5 0.000000 0.250000 0.428416
Si Si6 0.320570 0.555555 0.702108
Si Si7 0.680254 0.940515 0.299076
Si Si8 0.334369 0.341857 0.037586
O O1 0.248611 0.841649 0.405485
O O2 0.213191 0.933434 0.429612
O O3 0.249796 0.912266 0.342324
O O4 0.000000 0.889383 0.385703
O O5 0.500000 0.189889 0.557514
O O6 0.723198 0.250000 0.560936
O O7 0.740854 0.173594 0.507101
O O8 0.255118 0.118244 0.068814
O O9 0.000000 0.082700 0.099449
O O10 0.230522 0.025959 0.084429
O O11 0.226968 0.083097 0.155544
O O12 0.000000 0.995703 0.440000
O O13 0.786609 0.000000 0.500000
O O14 0.872254 0.206724 0.433524
O O15 0.500000 0.558474 0.705634
O O16 0.250000 0.572990 0.750000
O O17 0.282384 0.498194 0.696228
O O18 0.500000 0.935750 0.298614
O O19 0.750000 0.924485 0.250000
O O20 0.500000 0.360612 0.021834
#
# Coordination Sequence:
#
# PCOD9536603 Si02
#       8
#    16  16  16  16   4  16  16  16
#     4  11  22  34  54  80 110 147 186 223 271 327
#     4  11  22  37  57  81 108 140 184 233 279 320
#     4  11  21  33  52  81 112 142 176 219 273 324
#     4  10  21  35  48  72 108 149 183 213 255 321
#     4   8  20  36  58  76 108 140 194 224 268 316
#     4   9  19  33  51  76 110 143 177 219 265 318
#     4  10  19  35  55  77 108 145 185 226 270 326
#     4  10  19  36  55  78 106 141 182 223 266 319
#
# _framework density 16.406222
#
# number of rings (size 3 to 8) (size 9 to 14) (size 15 to 20)
#    0.414    1.379    2.069    2.897    0.000    4.414 
#    0.000    0.000    0.000    0.414    0.000    0.483 
#    0.000    0.000    0.000    0.000    0.000    0.000 
#
# Total GULP energy -323032.769891 kJ/mol
# GULP energy per Si atom -5569.530515 kJ/mol
# Density = 1.636888 g / cm^3
# Si number density = 16.406222 Si / 1000 Ang^3
#
#
#
# Elastic Constant Matrix: (Units=GPa)
#
#
# Indices 1 2 3 4 5 6 
#
# 1 50.6357 31.5296 35.1511 0.0000 0.0000 0.0000
# 2 31.5296 71.9296 36.5831 0.0000 0.0000 0.0000
# 3 35.1511 36.5831 92.1570 0.0000 0.0000 0.0000
# 4 0.0000 0.0000 0.0000 13.2198 0.0000 0.0000
# 5 0.0000 0.0000 0.0000 0.0000 27.2345 0.0000
# 6 0.0000 0.0000 0.0000 0.0000 0.0000 20.5926
#
#
#
# Elastic Compliance Matrix: (Units=1/GPa)
#
#
# Indices 1 2 3 4 5 6 
#
# 1 0.031400 -0.009613 -0.008161 0.000000 0.000000 0.000000
# 2 -0.009613 0.020363 -0.004416 0.000000 0.000000 0.000000
# 3 -0.008161 -0.004416 0.015717 0.000000 0.000000 0.000000
# 4 0.000000 0.000000 0.000000 0.075644 0.000000 0.000000
# 5 0.000000 0.000000 0.000000 0.000000 0.036718 0.000000
# 6 0.000000 0.000000 0.000000 0.000000 0.000000 0.048561
#
#
# Mechanical properties :
#
#
# Convention : Reuss Voigt Hill
#
# Bulk Modulus (GPa) = 43.29267 46.80555 45.04911
# Shear Modulus (GPa) = 17.82637 19.63994 18.73315
#
# Velocity S-wave (km/s) = 3.29988 3.46367 3.38277
# Velocity P-wave (km/s) = 6.40033 6.67736 6.54031
#
# Compressibility (1/GPa) = 0.02309860
#
# Stress axis : x y z
#
# Youngs Moduli (GPa) = 31.84710 49.10959 63.62582
#
# Poissons Ratio (x) = 0.47211 0.51922
# Poissons Ratio (y) = 0.30616 0.28100
# Poissons Ratio (z) = 0.25989 0.21689
#
# Static dielectric constant tensor:
#      x y z
#    x 1.549000 0.000000 0.000000 
#    y 0.000000 1.534250 0.000000 
#    z 0.000000 0.000000 1.553760 
# 
# From -- ./inp_files/57689.got.cif
#   From: 2010.05.17/outbox.cif.g08.bks.cpg/sg74_29_cif.got.tgz:57689.got - 2010.06.03 17:57:02.
