data_PCOD9536164
_publ_section_title
;
Structure prediction by ZEFSAII (Michael W. Deem and Ramdas Pophale) SiO2 
 PCOD9536164
Probable space group: I M M A
;
_chemical_formula_sum "Si O2"
_cell_formula_units_Z 80
_cell_length_a 7.928819
_cell_length_b 17.491394
_cell_length_c 28.867793
_cell_angle_alpha 90.000000
_cell_angle_beta 90.000000
_cell_angle_gamma 90.000000
_cell_volume 4003.561543
_symmetry_space_group_name_H-M "I M M A"
_symmetry_group_IT_number 74
_symmetry_cell_setting 'orthorhombic'
loop_
_space_group_symop_operation_xyz
x,y,z
-x,1/2-y,z
x,-y,-z
-x,1/2+y,-z
-x,-y,-z
x,1/2+y,-z
-x,y,z
x,1/2-y,z
1/2+x,1/2+y,1/2+z
1/2-x,-y,1/2+z
1/2+x,1/2-y,1/2-z
1/2-x,y,1/2-z
1/2-x,1/2-y,1/2-z
1/2+x,y,1/2-z
1/2-x,1/2+y,1/2+z
1/2+x,-y,1/2+z
loop_
_atom_site_type_symbol
_atom_site_label
_atom_site_fract_x
_atom_site_fract_y
_atom_site_fract_z
Si Si1 0.696186 0.602295 0.970559
Si Si2 0.797233 0.011620 0.890698
Si Si3 0.301085 0.336556 0.569081
Si Si4 0.296122 0.580295 0.700122
Si Si5 0.691457 0.750000 0.906847
Si Si6 0.310907 0.750000 0.690319
O O1 0.500000 0.589407 0.981274
O O2 0.758979 0.533375 0.938431
O O3 0.712252 0.675984 0.937914
O O4 0.783629 0.626244 0.018133
O O5 0.731365 0.098314 0.896416
O O6 0.000000 0.014758 0.886619
O O7 0.734836 0.965276 0.845437
O O8 0.500000 0.329841 0.578692
O O9 0.229366 0.250000 0.569955
O O10 0.500000 0.584822 0.696506
O O11 0.250000 0.545417 0.750000
O O12 0.229158 0.667954 0.700731
O O13 0.500000 0.750000 0.887998
O O14 0.818516 0.750000 0.865014
O O15 0.500000 0.750000 0.710508
#
# Coordination Sequence:
#
# PCOD9536164 Si02
#       6
#    16  16  16  16   8   8
#     4  11  21  34  52  78 110 143 176 211 253 301
#     4  10  21  37  55  77 104 136 176 217 257 307
#     4  10  21  36  55  77 103 138 177 216 258 305
#     4  10  21  35  53  76 102 132 169 212 257 307
#     4  10  20  31  47  74 109 144 173 205 246 295
#     4  10  19  33  53  76 102 138 174 207 249 297
#
# _framework density 19.982206999999999
#
# number of rings (size 3 to 8) (size 9 to 14) (size 15 to 20)
#    0.000    1.800    3.000    1.500    0.000    5.600 
#    0.000    0.000    0.000    0.600    0.000    0.000 
#    0.000    0.000    0.000    0.000    0.000    0.000 
#
# Total GULP energy -223113.622438 kJ/mol
# GULP energy per Si atom -5577.840561 kJ/mol
# Density = 1.993673 g / cm^3
# Si number density = 19.982207 Si / 1000 Ang^3
#
#
#
# Elastic Constant Matrix: (Units=GPa)
#
#
# Indices 1 2 3 4 5 6 
#
# 1 18.1170 12.0826 7.8023 0.0000 0.0000 0.0000
# 2 12.0826 174.4848 70.8111 0.0000 0.0000 0.0000
# 3 7.8023 70.8111 67.3625 0.0000 0.0000 0.0000
# 4 0.0000 0.0000 0.0000 -2.1953 0.0000 0.0000
# 5 0.0000 0.0000 0.0000 0.0000 18.2134 0.0000
# 6 0.0000 0.0000 0.0000 0.0000 0.0000 -19.8273
#
#
#
# Elastic Compliance Matrix: (Units=1/GPa)
#
#
# Indices 1 2 3 4 5 6 
#
# 1 0.058607 -0.002273 -0.004398 0.000000 0.000000 0.000000
# 2 -0.002273 0.010083 -0.010336 0.000000 0.000000 0.000000
# 3 -0.004398 -0.010336 0.026220 0.000000 0.000000 0.000000
# 4 0.000000 0.000000 0.000000 -0.455511 0.000000 0.000000
# 5 0.000000 0.000000 0.000000 0.000000 0.054905 0.000000
# 6 0.000000 0.000000 0.000000 0.000000 0.000000 -0.050436
#
#
# Mechanical properties :
#
#
# Convention : Reuss Voigt Hill
#
# Bulk Modulus (GPa) = 16.42187 49.03958 32.73073
# Shear Modulus (GPa) = -16.56632 10.52271 -3.02181
#
# Velocity S-wave (km/s) = -2.88245 2.29727 -1.23107
# Velocity P-wave (km/s) = 1.68581 5.62419 3.79405
#
# Compressibility (1/GPa) = 0.06089439
#
# Stress axis : x y z
#
# Youngs Moduli (GPa) = 17.06272 99.17357 38.13897
#
# Poissons Ratio (x) = 0.22546 0.16775
# Poissons Ratio (y) = 0.03879 0.39421
# Poissons Ratio (z) = 0.07505 1.02508
#
# Static dielectric constant tensor:
#      x y z
#    x 1.730150 0.000000 0.000000 
#    y 0.000000 1.760180 0.000000 
#    z 0.000000 0.000000 1.696600 
# 
# From -- ./inp_files/63983.got.cif
#   From: 2010.05.17/outbox.cif.g08.bks.cpg/sg74_32_cif.got.tgz:63983.got - 2010.06.03 17:57:02.
