data_PCOD9536455
_publ_section_title
;
Structure prediction by ZEFSAII (Michael W. Deem and Ramdas Pophale) SiO2 
 PCOD9536455
Probable space group: I M M A
;
_chemical_formula_sum "Si O2"
_cell_formula_units_Z 116
_cell_length_a 23.120647
_cell_length_b 27.407282
_cell_length_c 8.549553
_cell_angle_alpha 90.000000
_cell_angle_beta 90.000000
_cell_angle_gamma 90.000000
_cell_volume 5417.630237
_symmetry_space_group_name_H-M "I M M A"
_symmetry_group_IT_number 74
_symmetry_cell_setting 'orthorhombic'
loop_
_space_group_symop_operation_xyz
x,y,z
-x,1/2-y,z
x,-y,-z
-x,1/2+y,-z
-x,-y,-z
x,1/2+y,-z
-x,y,z
x,1/2-y,z
1/2+x,1/2+y,1/2+z
1/2-x,-y,1/2+z
1/2+x,1/2-y,1/2-z
1/2-x,y,1/2-z
1/2-x,1/2-y,1/2-z
1/2+x,y,1/2-z
1/2-x,1/2+y,1/2+z
1/2+x,-y,1/2+z
loop_
_atom_site_type_symbol
_atom_site_label
_atom_site_fract_x
_atom_site_fract_y
_atom_site_fract_z
Si Si1 0.256191 0.554236 0.563849
Si Si2 0.931432 0.520520 0.671932
Si Si3 0.221255 0.152457 0.576875
Si Si4 0.433577 0.423293 0.670378
Si Si5 0.000000 0.750000 0.318128
Si Si6 0.876726 0.903535 0.864164
Si Si7 0.890355 0.822133 0.276536
Si Si8 0.833132 0.695958 0.936561
O O1 0.246352 0.500000 0.500000
O O2 0.250000 0.553902 0.750000
O O3 0.218169 0.597124 0.487050
O O4 0.322352 0.572715 0.543783
O O5 0.921919 0.500000 0.500000
O O6 0.912983 0.477611 0.790924
O O7 0.893741 0.567279 0.711393
O O8 0.000000 0.530705 0.689721
O O9 0.250000 0.149507 0.750000
O O10 0.161388 0.180845 0.598983
O O11 0.266868 0.181292 0.469379
O O12 0.500000 0.422696 0.721136
O O13 0.428179 0.410610 0.488001
O O14 0.401875 0.379943 0.759422
O O15 0.051789 0.707600 0.311926
O O16 0.861352 0.847456 0.837586
O O17 0.865359 0.806177 0.106163
O O18 0.838743 0.750000 0.872058
#
# Coordination Sequence:
#
# PCOD9536455 Si02
#       8
#    16  16  16  16   4  16  16  16
#     4  11  23  38  59  89 123 160 202 252 315 383
#     4  10  21  36  56  85 115 158 198 242 305 376
#     4   9  20  36  57  88 125 166 207 254 311 378
#     4  10  19  34  55  84 119 152 191 248 306 361
#     4  12  20  32  54  92 130 162 206 270 316 358
#     4  10  21  36  57  86 116 153 200 252 303 362
#     4  10  20  32  53  88 130 157 204 260 315 364
#     4   9  18  34  57  85 119 163 210 262 313 366
#
# _framework density 21.411576
#
# number of rings (size 3 to 8) (size 9 to 14) (size 15 to 20)
#    0.000    2.069    1.379    2.897    0.966    4.690 
#    0.000    0.000    0.000    6.621    8.966    0.000 
#    0.000   17.655    0.000    0.000    0.000    0.000 
#
# Total GULP energy -323512.624450 kJ/mol
# GULP energy per Si atom -5577.803870 kJ/mol
# Density = 2.136284 g / cm^3
# Si number density = 21.411576 Si / 1000 Ang^3
#
#
#
# Elastic Constant Matrix: (Units=GPa)
#
#
# Indices 1 2 3 4 5 6 
#
# 1 110.5274 61.3685 22.6489 0.0000 0.0000 0.0000
# 2 61.3685 173.3956 31.2330 0.0000 0.0000 0.0000
# 3 22.6489 31.2330 37.7973 0.0000 0.0000 0.0000
# 4 0.0000 0.0000 0.0000 9.7435 0.0000 0.0000
# 5 0.0000 0.0000 0.0000 0.0000 15.4021 0.0000
# 6 0.0000 0.0000 0.0000 0.0000 0.0000 12.7761
#
#
#
# Elastic Compliance Matrix: (Units=1/GPa)
#
#
# Indices 1 2 3 4 5 6 
#
# 1 0.011816 -0.003415 -0.004259 0.000000 0.000000 0.000000
# 2 -0.003415 0.007763 -0.004368 0.000000 0.000000 0.000000
# 3 -0.004259 -0.004368 0.032618 0.000000 0.000000 0.000000
# 4 0.000000 0.000000 0.000000 0.102633 0.000000 0.000000
# 5 0.000000 0.000000 0.000000 0.000000 0.064926 0.000000
# 6 0.000000 0.000000 0.000000 0.000000 0.000000 0.078271
#
#
# Mechanical properties :
#
#
# Convention : Reuss Voigt Hill
#
# Bulk Modulus (GPa) = 35.56992 61.35791 48.46391
# Shear Modulus (GPa) = 15.08377 21.34900 18.21639
#
# Velocity S-wave (km/s) = 2.65706 3.16108 2.91997
# Velocity P-wave (km/s) = 5.10508 6.48397 5.83540
#
# Compressibility (1/GPa) = 0.02811364
#
# Stress axis : x y z
#
# Youngs Moduli (GPa) = 84.62886 128.82281 30.65760
#
# Poissons Ratio (x) = 0.43992 0.13056
# Poissons Ratio (y) = 0.28900 0.13392
# Poissons Ratio (z) = 0.36041 0.56272
#
# Static dielectric constant tensor:
#      x y z
#    x 1.811900 0.000000 0.000000 
#    y 0.000000 1.771110 0.000000 
#    z 0.000000 0.000000 1.780390 
# 
# From -- ./inp_files/14203.got.cif
#   From: 2010.05.17/outbox.cif.g08.bks.cpg/sg74_8_cif.got.tgz:14203.got - 2010.06.03 17:57:02.
