data_PCOD9536238
_publ_section_title
;
Structure prediction by ZEFSAII (Michael W. Deem and Ramdas Pophale) SiO2 
 PCOD9536238
Probable space group: I M M A
;
_chemical_formula_sum "Si O2"
_cell_formula_units_Z 96
_cell_length_a 8.547813
_cell_length_b 23.942156
_cell_length_c 23.513169
_cell_angle_alpha 90.000000
_cell_angle_beta 90.000000
_cell_angle_gamma 90.000000
_cell_volume 4812.042275
_symmetry_space_group_name_H-M "I M M A"
_symmetry_group_IT_number 74
_symmetry_cell_setting 'orthorhombic'
loop_
_space_group_symop_operation_xyz
x,y,z
-x,1/2-y,z
x,-y,-z
-x,1/2+y,-z
-x,-y,-z
x,1/2+y,-z
-x,y,z
x,1/2-y,z
1/2+x,1/2+y,1/2+z
1/2-x,-y,1/2+z
1/2+x,1/2-y,1/2-z
1/2-x,y,1/2-z
1/2-x,1/2-y,1/2-z
1/2+x,y,1/2-z
1/2-x,1/2+y,1/2+z
1/2+x,-y,1/2+z
loop_
_atom_site_type_symbol
_atom_site_label
_atom_site_fract_x
_atom_site_fract_y
_atom_site_fract_z
Si Si1 0.688244 0.432537 0.185787
Si Si2 0.319897 0.317992 0.810138
Si Si3 0.180725 0.915053 0.496617
Si Si4 0.818338 0.502907 0.914923
Si Si5 0.185403 0.315316 0.931951
Si Si6 0.811366 0.309726 0.314833
O O1 0.500000 0.436756 0.184623
O O2 0.750000 0.435760 0.250000
O O3 0.765230 0.479599 0.147327
O O4 0.734453 0.370514 0.162105
O O5 0.500000 0.335189 0.815188
O O6 0.315471 0.250000 0.808160
O O7 0.250000 0.337759 0.750000
O O8 0.229214 0.333610 0.867555
O O9 0.285782 0.943256 0.545120
O O10 0.227419 0.853441 0.477554
O O11 0.000000 0.918397 0.513905
O O12 0.213681 0.954280 0.441994
O O13 0.000000 0.487189 0.917687
O O14 0.228069 0.250000 0.937297
O O15 0.000000 0.320976 0.939354
O O16 0.760116 0.250000 0.341015
O O17 0.750000 0.309314 0.250000
O O18 0.000000 0.309603 0.313747
#
# Coordination Sequence:
#
# PCOD9536238 Si02
#       6
#    16  16  16  16  16  16
#     4  10  19  33  54  82 114 147 184 228 279 331
#     4   9  16  27  45  71 104 143 184 222 264 318
#     4  11  22  39  62  85 109 141 184 230 275 326
#     4  11  22  39  61  83 109 144 186 229 275 328
#     4  10  20  35  56  83 115 148 182 224 275 329
#     4   8  14  25  43  68 100 138 177 215 257 310
#
# _framework density 19.949949
#
# number of rings (size 3 to 8) (size 9 to 14) (size 15 to 20)
#    0.000    2.167    0.000    5.500    0.000    3.667 
#    0.000    1.667    0.000    3.000    0.000    0.000 
#    0.000    0.000    0.000    0.000    0.000    0.000 
#
# Total GULP energy -267785.343915 kJ/mol
# GULP energy per Si atom -5578.861332 kJ/mol
# Density = 1.990454 g / cm^3
# Si number density = 19.949949 Si / 1000 Ang^3
#
#
#
# Elastic Constant Matrix: (Units=GPa)
#
#
# Indices 1 2 3 4 5 6 
#
# 1 42.3304 1.9402 -6.8988 0.0000 0.0000 0.0000
# 2 1.9402 30.3847 15.5748 0.0000 0.0000 0.0000
# 3 -6.8988 15.5748 28.1574 0.0000 0.0000 0.0000
# 4 0.0000 0.0000 0.0000 23.3448 0.0000 0.0000
# 5 0.0000 0.0000 0.0000 0.0000 26.1236 0.0000
# 6 0.0000 0.0000 0.0000 0.0000 0.0000 22.7606
#
#
#
# Elastic Compliance Matrix: (Units=1/GPa)
#
#
# Indices 1 2 3 4 5 6 
#
# 1 0.025564 -0.006759 0.010002 0.000000 0.000000 0.000000
# 2 -0.006759 0.047723 -0.028053 0.000000 0.000000 0.000000
# 3 0.010002 -0.028053 0.053482 0.000000 0.000000 0.000000
# 4 0.000000 0.000000 0.000000 0.042836 0.000000 0.000000
# 5 0.000000 0.000000 0.000000 0.000000 0.038280 0.000000
# 6 0.000000 0.000000 0.000000 0.000000 0.000000 0.043935
#
#
# Mechanical properties :
#
#
# Convention : Reuss Voigt Hill
#
# Bulk Modulus (GPa) = 12.96209 13.56720 13.26465
# Shear Modulus (GPa) = 15.28324 20.46289 17.87306
#
# Velocity S-wave (km/s) = 2.77082 3.20615 2.99640
# Velocity P-wave (km/s) = 4.09243 4.53004 4.31678
#
# Compressibility (1/GPa) = 0.07714803
#
# Stress axis : x y z
#
# Youngs Moduli (GPa) = 39.11813 20.95448 18.69778
#
# Poissons Ratio (x) = 0.14164 -0.18702
# Poissons Ratio (y) = 0.26441 0.52453
# Poissons Ratio (z) = -0.39126 0.58784
#
# Static dielectric constant tensor:
#      x y z
#    x 1.677130 0.000000 0.000000 
#    y 0.000000 1.756070 0.000000 
#    z 0.000000 0.000000 1.691780 
# 
# From -- ./inp_files/57297.got.cif
#   From: 2010.05.17/outbox.cif.g08.bks.cpg/sg74_29_cif.got.tgz:57297.got - 2010.06.03 17:57:02.
