data_PCOD9536393
_publ_section_title
;
Structure prediction by ZEFSAII (Michael W. Deem and Ramdas Pophale) SiO2 
 PCOD9536393
Probable space group: I M M A
;
_chemical_formula_sum "Si O2"
_cell_formula_units_Z 104
_cell_length_a 21.846681
_cell_length_b 13.362502
_cell_length_c 17.757952
_cell_angle_alpha 90.000000
_cell_angle_beta 90.000000
_cell_angle_gamma 90.000000
_cell_volume 5184.013552
_symmetry_space_group_name_H-M "I M M A"
_symmetry_group_IT_number 74
_symmetry_cell_setting 'orthorhombic'
loop_
_space_group_symop_operation_xyz
x,y,z
-x,1/2-y,z
x,-y,-z
-x,1/2+y,-z
-x,-y,-z
x,1/2+y,-z
-x,y,z
x,1/2-y,z
1/2+x,1/2+y,1/2+z
1/2-x,-y,1/2+z
1/2+x,1/2-y,1/2-z
1/2-x,y,1/2-z
1/2-x,1/2-y,1/2-z
1/2+x,y,1/2-z
1/2-x,1/2+y,1/2+z
1/2+x,-y,1/2+z
loop_
_atom_site_type_symbol
_atom_site_label
_atom_site_fract_x
_atom_site_fract_y
_atom_site_fract_z
Si Si1 0.929857 0.946086 0.769098
Si Si2 0.625266 0.368603 0.793146
Si Si3 0.429756 0.129474 0.104549
Si Si4 0.709821 0.135739 0.538898
Si Si5 0.750000 0.519444 0.250000
Si Si6 0.824463 0.557692 0.880886
Si Si7 0.851933 0.629296 0.461839
O O1 0.909959 0.900145 0.688608
O O2 0.000000 0.919537 0.782368
O O3 0.920864 0.064908 0.755567
O O4 0.885154 0.914021 0.835687
O O5 0.621874 0.250000 0.781348
O O6 0.692547 0.411073 0.772109
O O7 0.615544 0.390604 0.882122
O O8 0.500000 0.093558 0.093452
O O9 0.431304 0.250000 0.101276
O O10 0.385391 0.094280 0.037660
O O11 0.704619 0.250000 0.565514
O O12 0.671356 0.055646 0.586179
O O13 0.780640 0.101268 0.543939
O O14 0.690847 0.125954 0.451846
O O15 0.770720 0.450905 0.180534
O O16 0.850469 0.750000 0.467586
#
# Coordination Sequence:
#
# PCOD9536393 Si02
#       7
#    16  16  16  16   8  16  16
#     4  10  23  39  55  80 110 144 188 235 280 326
#     4  10  20  33  53  79 111 149 184 220 266 324
#     4   9  19  36  56  78 110 151 188 224 272 330
#     4  10  21  38  57  84 115 144 182 229 280 330
#     4  10  19  34  53  82 112 146 183 216 271 328
#     4  10  22  36  59  82 109 148 184 228 276 332
#     4   9  18  32  53  81 112 146 181 221 266 325
#
# _framework density 20.061675000000001
#
# number of rings (size 3 to 8) (size 9 to 14) (size 15 to 20)
#    0.000    2.308    1.538    0.231    4.308    4.615 
#    0.000    5.000    0.000    0.923    0.000    0.000 
#    0.000    0.000    0.000    0.000    0.000    0.000 
#
# Total GULP energy -290339.097406 kJ/mol
# GULP energy per Si atom -5583.444181 kJ/mol
# Density = 2.001601 g / cm^3
# Si number density = 20.061675 Si / 1000 Ang^3
#
#
#
# Elastic Constant Matrix: (Units=GPa)
#
#
# Indices 1 2 3 4 5 6 
#
# 1 34.5064 -8.0073 24.9618 0.0000 0.0000 0.0000
# 2 -8.0073 31.4826 -17.2264 0.0000 0.0000 0.0000
# 3 24.9618 -17.2264 82.4315 0.0000 0.0000 0.0000
# 4 0.0000 0.0000 0.0000 20.7176 0.0000 0.0000
# 5 0.0000 0.0000 0.0000 0.0000 18.9126 0.0000
# 6 0.0000 0.0000 0.0000 0.0000 0.0000 6.6157
#
#
#
# Elastic Compliance Matrix: (Units=1/GPa)
#
#
# Indices 1 2 3 4 5 6 
#
# 1 0.037498 0.003753 -0.010571 0.000000 0.000000 0.000000
# 2 0.003753 0.036240 0.006437 0.000000 0.000000 0.000000
# 3 -0.010571 0.006437 0.016677 0.000000 0.000000 0.000000
# 4 0.000000 0.000000 0.000000 0.048268 0.000000 0.000000
# 5 0.000000 0.000000 0.000000 0.000000 0.052875 0.000000
# 6 0.000000 0.000000 0.000000 0.000000 0.000000 0.151155
#
#
# Mechanical properties :
#
#
# Convention : Reuss Voigt Hill
#
# Bulk Modulus (GPa) = 11.15395 16.43076 13.79235
# Shear Modulus (GPa) = 13.39191 19.16200 16.27695
#
# Velocity S-wave (km/s) = 2.58648 3.09391 2.85150
# Velocity P-wave (km/s) = 3.80680 4.57940 4.21086
#
# Compressibility (1/GPa) = 0.08965433
#
# Stress axis : x y z
#
# Youngs Moduli (GPa) = 26.66813 27.59368 59.96121
#
# Poissons Ratio (x) = -0.10357 0.63383
# Poissons Ratio (y) = -0.10009 -0.38596
# Poissons Ratio (z) = 0.28190 -0.17762
#
# Static dielectric constant tensor:
#      x y z
#    x 1.697590 0.000000 0.000000 
#    y 0.000000 1.749070 0.000000 
#    z 0.000000 0.000000 1.718130 
# 
# From -- ./inp_files/45304.got.cif
#   From: 2010.05.17/outbox.cif.g08.bks.cpg/sg74_23_cif.got.tgz:45304.got - 2010.06.03 17:57:02.
