data_PCOD9536299
_publ_section_title
;
Structure prediction by ZEFSAII (Michael W. Deem and Ramdas Pophale) SiO2 
 PCOD9536299
Probable space group: I M M A
;
_chemical_formula_sum "Si O2"
_cell_formula_units_Z 96
_cell_length_a 14.712282
_cell_length_b 15.774513
_cell_length_c 21.617420
_cell_angle_alpha 90.000000
_cell_angle_beta 90.000000
_cell_angle_gamma 90.000000
_cell_volume 5016.951025
_symmetry_space_group_name_H-M "I M M A"
_symmetry_group_IT_number 74
_symmetry_cell_setting 'orthorhombic'
loop_
_space_group_symop_operation_xyz
x,y,z
-x,1/2-y,z
x,-y,-z
-x,1/2+y,-z
-x,-y,-z
x,1/2+y,-z
-x,y,z
x,1/2-y,z
1/2+x,1/2+y,1/2+z
1/2-x,-y,1/2+z
1/2+x,1/2-y,1/2-z
1/2-x,y,1/2-z
1/2-x,1/2-y,1/2-z
1/2+x,y,1/2-z
1/2-x,1/2+y,1/2+z
1/2+x,-y,1/2+z
loop_
_atom_site_type_symbol
_atom_site_label
_atom_site_fract_x
_atom_site_fract_y
_atom_site_fract_z
Si Si1 0.762206 0.409544 0.031580
Si Si2 0.678734 0.842362 0.193162
Si Si3 0.333477 0.343251 0.593648
Si Si4 0.392699 0.848691 0.882629
Si Si5 0.105391 0.522940 0.863849
Si Si6 0.107146 0.523122 0.724109
O O1 0.671948 0.368294 0.059483
O O2 0.832418 0.428429 0.087090
O O3 0.740161 0.500000 0.000000
O O4 0.810838 0.355663 0.978243
O O5 0.631602 0.750000 0.194655
O O6 0.750000 0.842676 0.250000
O O7 0.738650 0.847584 0.131245
O O8 0.622130 0.927422 0.200921
O O9 0.373259 0.250000 0.605714
O O10 0.389671 0.423275 0.618163
O O11 0.500000 0.865394 0.895283
O O12 0.384364 0.750000 0.865522
O O13 0.361225 0.909636 0.826725
O O14 0.143307 0.531928 0.794030
O O15 0.000000 0.549945 0.867217
O O16 0.000000 0.537517 0.730222
#
# Coordination Sequence:
#
# PCOD9536299 Si02
#       6
#    16  16  16  16  16  16
#     4  10  21  36  58  82 112 150 188 235 282 339
#     4  10  19  33  56  82 110 146 184 229 282 337
#     4  10  20  34  53  80 111 145 186 228 277 337
#     4  10  22  40  61  86 115 148 190 240 291 344
#     4  10  21  36  55  80 111 149 190 233 278 327
#     4  10  20  35  57  83 113 148 188 235 283 337
#
# _framework density 19.135128000000002
#
# number of rings (size 3 to 8) (size 9 to 14) (size 15 to 20)
#    0.000    2.000    1.667    2.500    0.000    4.000 
#    0.000    5.000    0.000    4.500    0.000    0.000 
#    0.000    0.000    0.000    0.000    0.000    0.000 
#
# Total GULP energy -267796.398851 kJ/mol
# GULP energy per Si atom -5579.091643 kJ/mol
# Density = 1.909158 g / cm^3
# Si number density = 19.135128 Si / 1000 Ang^3
#
#
#
# Elastic Constant Matrix: (Units=GPa)
#
#
# Indices 1 2 3 4 5 6 
#
# 1 44.5721 6.3721 13.1306 0.0000 0.0000 0.0000
# 2 6.3721 46.9275 8.5286 0.0000 0.0000 0.0000
# 3 13.1306 8.5286 68.1564 0.0000 0.0000 0.0000
# 4 0.0000 0.0000 0.0000 -124.4074 0.0000 0.0000
# 5 0.0000 0.0000 0.0000 0.0000 17.4679 0.0000
# 6 0.0000 0.0000 0.0000 0.0000 0.0000 17.3274
#
#
#
# Elastic Compliance Matrix: (Units=1/GPa)
#
#
# Indices 1 2 3 4 5 6 
#
# 1 0.024065 -0.002482 -0.004326 0.000000 0.000000 0.000000
# 2 -0.002482 0.022061 -0.002283 0.000000 0.000000 0.000000
# 3 -0.004326 -0.002283 0.015791 0.000000 0.000000 0.000000
# 4 0.000000 0.000000 0.000000 -0.008038 0.000000 0.000000
# 5 0.000000 0.000000 0.000000 0.000000 0.057248 0.000000
# 6 0.000000 0.000000 0.000000 0.000000 0.000000 0.057712
#
#
# Mechanical properties :
#
#
# Convention : Reuss Voigt Hill
#
# Bulk Modulus (GPa) = 22.86359 23.96874 23.41616
# Shear Modulus (GPa) = 24.80191 -9.14745 7.82723
#
# Velocity S-wave (km/s) = 3.60411 -2.18880 2.02469
# Velocity P-wave (km/s) = 5.41238 2.48303 4.21066
#
# Compressibility (1/GPa) = 0.04373767
#
# Stress axis : x y z
#
# Youngs Moduli (GPa) = 41.55478 45.32834 63.32677
#
# Poissons Ratio (x) = 0.11248 0.27393
# Poissons Ratio (y) = 0.10312 0.14454
# Poissons Ratio (z) = 0.17975 0.10346
#
# Static dielectric constant tensor:
#      x y z
#    x 1.666110 0.000000 0.000000 
#    y 0.000000 1.677100 0.000000 
#    z 0.000000 0.000000 1.677510 
# 
# From -- ./inp_files/51837.got.cif
#   From: 2010.05.17/outbox.cif.g08.bks.cpg/sg74_26_cif.got.tgz:51837.got - 2010.06.03 17:57:02.
