data_PCOD9536847
_publ_section_title
;
Structure prediction by ZEFSAII (Michael W. Deem and Ramdas Pophale) SiO2 
 PCOD9536847
Probable space group: I M M A
;
_chemical_formula_sum "Si O2"
_cell_formula_units_Z 88
_cell_length_a 22.782230
_cell_length_b 20.707440
_cell_length_c 9.318144
_cell_angle_alpha 90.000000
_cell_angle_beta 90.000000
_cell_angle_gamma 90.000000
_cell_volume 4395.943089
_symmetry_space_group_name_H-M "I M M A"
_symmetry_group_IT_number 74
_symmetry_cell_setting 'orthorhombic'
loop_
_space_group_symop_operation_xyz
x,y,z
-x,1/2-y,z
x,-y,-z
-x,1/2+y,-z
-x,-y,-z
x,1/2+y,-z
-x,y,z
x,1/2-y,z
1/2+x,1/2+y,1/2+z
1/2-x,-y,1/2+z
1/2+x,1/2-y,1/2-z
1/2-x,y,1/2-z
1/2-x,1/2-y,1/2-z
1/2+x,y,1/2-z
1/2-x,1/2+y,1/2+z
1/2+x,-y,1/2+z
loop_
_atom_site_type_symbol
_atom_site_label
_atom_site_fract_x
_atom_site_fract_y
_atom_site_fract_z
Si Si1 0.353668 0.866457 0.971852
Si Si2 0.067911 0.383845 0.731510
Si Si3 0.618963 0.250000 0.247414
Si Si4 0.734857 0.431424 0.419898
Si Si5 0.894893 0.126737 0.055833
Si Si6 0.434388 0.037306 0.202722
O O1 0.358849 0.806658 0.864988
O O2 0.287058 0.889230 0.987979
O O3 0.387878 0.926540 0.897117
O O4 0.387822 0.852410 0.118442
O O5 0.075332 0.461356 0.715100
O O6 0.000000 0.367861 0.699938
O O7 0.083573 0.367410 0.894102
O O8 0.597724 0.192919 0.358639
O O9 0.731604 0.500000 0.500000
O O10 0.750000 0.439366 0.250000
O O11 0.673308 0.394775 0.437092
O O12 0.928717 0.070507 0.142024
O O13 0.500000 0.049125 0.145419
#
# Coordination Sequence:
#
# PCOD9536847 Si02
#       6
#    16  16   8  16  16  16
#     4  11  24  40  65  94 130 174 216 262 319 387
#     4  11  23  41  65  96 132 165 214 279 331 381
#     4  10  24  47  63  88 124 182 227 257 310 388
#     4  12  24  40  68 103 134 164 203 267 327 385
#     4  11  24  40  65  94 130 174 216 262 319 387
#     4  10  19  37  63  93 127 167 210 262 332 394
#
# _framework density 20.018457999999999
#
# number of rings (size 3 to 8) (size 9 to 14) (size 15 to 20)
#    0.000    1.091    3.636    4.364    2.545    5.091 
#    0.000   17.273    0.000    2.182    0.000    0.000 
#    0.000    0.000    0.000    0.000    0.000    0.000 
#
# Total GULP energy -245013.868643 kJ/mol
# GULP energy per Si atom -5568.497015 kJ/mol
# Density = 1.997289 g / cm^3
# Si number density = 20.018458 Si / 1000 Ang^3
#
#
#
# Elastic Constant Matrix: (Units=GPa)
#
#
# Indices 1 2 3 4 5 6 
#
# 1 86.1236 15.8535 2.0247 0.0000 0.0000 0.0000
# 2 15.8535 67.2781 -8.2960 0.0000 0.0000 0.0000
# 3 2.0247 -8.2960 65.8373 0.0000 0.0000 0.0000
# 4 0.0000 0.0000 0.0000 13.2374 0.0000 0.0000
# 5 0.0000 0.0000 0.0000 0.0000 27.0554 0.0000
# 6 0.0000 0.0000 0.0000 0.0000 0.0000 -2.6166
#
#
#
# Elastic Compliance Matrix: (Units=1/GPa)
#
#
# Indices 1 2 3 4 5 6 
#
# 1 0.012174 -0.002961 -0.000747 0.000000 0.000000 0.000000
# 2 -0.002961 0.015818 0.002084 0.000000 0.000000 0.000000
# 3 -0.000747 0.002084 0.015475 0.000000 0.000000 0.000000
# 4 0.000000 0.000000 0.000000 0.075543 0.000000 0.000000
# 5 0.000000 0.000000 0.000000 0.000000 0.036961 0.000000
# 6 0.000000 0.000000 0.000000 0.000000 0.000000 -0.382173
#
#
# Mechanical properties :
#
#
# Convention : Reuss Voigt Hill
#
# Bulk Modulus (GPa) = 24.86401 26.48927 25.67664
# Shear Modulus (GPa) = -23.86090 21.51238 -1.17426
#
# Velocity S-wave (km/s) = -3.45620 3.28171 -0.76672
# Velocity P-wave (km/s) = 1.86537 5.25553 3.47426
#
# Compressibility (1/GPa) = 0.04021878
#
# Stress axis : x y z
#
# Youngs Moduli (GPa) = 82.14354 63.21757 64.62211
#
# Poissons Ratio (x) = 0.18718 0.04830
# Poissons Ratio (y) = 0.24321 -0.13469
# Poissons Ratio (z) = 0.06140 -0.13176
#
# Static dielectric constant tensor:
#      x y z
#    x 1.732330 0.000000 0.000000 
#    y 0.000000 1.645940 0.000000 
#    z 0.000000 0.000000 1.736090 
# 
# From -- ./inp_files/13725.got.cif
#   From: 2010.05.17/outbox.cif.g08.bks.cpg/sg74_7_cif.got.tgz:13725.got - 2010.06.03 17:57:02.
