data_PCOD9536231
_publ_section_title
;
Structure prediction by ZEFSAII (Michael W. Deem and Ramdas Pophale) SiO2 
 PCOD9536231
Probable space group: I M M A
;
_chemical_formula_sum "Si O2"
_cell_formula_units_Z 88
_cell_length_a 28.821092
_cell_length_b 8.539644
_cell_length_c 19.550846
_cell_angle_alpha 90.000000
_cell_angle_beta 90.000000
_cell_angle_gamma 90.000000
_cell_volume 4811.890687
_symmetry_space_group_name_H-M "I M M A"
_symmetry_group_IT_number 74
_symmetry_cell_setting 'orthorhombic'
loop_
_space_group_symop_operation_xyz
x,y,z
-x,1/2-y,z
x,-y,-z
-x,1/2+y,-z
-x,-y,-z
x,1/2+y,-z
-x,y,z
x,1/2-y,z
1/2+x,1/2+y,1/2+z
1/2-x,-y,1/2+z
1/2+x,1/2-y,1/2-z
1/2-x,y,1/2-z
1/2-x,1/2-y,1/2-z
1/2+x,y,1/2-z
1/2-x,1/2+y,1/2+z
1/2+x,-y,1/2+z
loop_
_atom_site_type_symbol
_atom_site_label
_atom_site_fract_x
_atom_site_fract_y
_atom_site_fract_z
Si Si1 0.946181 0.939732 0.698223
Si Si2 0.119924 0.060804 0.422736
Si Si3 0.323472 0.938624 0.578113
Si Si4 0.721600 0.561456 0.922460
Si Si5 0.911481 0.936555 0.159215
Si Si6 0.000000 0.563006 0.923200
O O1 0.945420 0.750000 0.701066
O O2 0.920102 0.989995 0.629102
O O3 0.000000 0.989466 0.700197
O O4 0.919316 0.003706 0.763944
O O5 0.119269 0.250000 0.425574
O O6 0.171170 0.011900 0.394888
O O7 0.114234 0.000000 0.500000
O O8 0.325946 0.750000 0.576370
O O9 0.272057 0.986979 0.605186
O O10 0.328488 0.000000 0.500000
O O11 0.364221 0.003359 0.625076
O O12 0.721742 0.750000 0.922518
O O13 0.721488 0.500000 0.000000
O O14 0.912584 0.750000 0.157454
O O15 0.954521 0.002428 0.115534
O O16 0.000000 0.750000 0.922986
O O17 0.000000 0.500000 0.000000
#
# Coordination Sequence:
#
# PCOD9536231 Si02
#       6
#    16  16  16  16  16   8
#     4  10  21  38  58  78 107 148 187 227 278 331
#     4   9  18  34  57  85 112 141 181 227 275 329
#     4  10  19  33  54  80 110 145 183 226 273 323
#     4   8  15  29  51  78 108 141 178 221 271 324
#     4  12  24  38  55  79 109 144 185 228 273 324
#     4  12  24  40  60  82 109 142 183 228 270 318
#
# _framework density 18.288029999999999
#
# number of rings (size 3 to 8) (size 9 to 14) (size 15 to 20)
#    0.000    2.000    0.909    3.545    0.000    1.818 
#    0.000    0.909    0.000    5.455    0.000    0.000 
#    0.000    0.000    0.000    0.000    0.000    0.000 
#
# Total GULP energy -245416.672470 kJ/mol
# GULP energy per Si atom -5577.651647 kJ/mol
# Density = 1.824641 g / cm^3
# Si number density = 18.288030 Si / 1000 Ang^3
#
#
#
# Elastic Constant Matrix: (Units=GPa)
#
#
# Indices 1 2 3 4 5 6 
#
# 1 129.1934 33.6990 68.2556 0.0000 0.0000 0.0000
# 2 33.6990 48.4578 25.7208 0.0000 0.0000 0.0000
# 3 68.2556 25.7208 106.2321 0.0000 0.0000 0.0000
# 4 0.0000 0.0000 0.0000 24.9416 0.0000 0.0000
# 5 0.0000 0.0000 0.0000 0.0000 -88.5885 0.0000
# 6 0.0000 0.0000 0.0000 0.0000 0.0000 15.4866
#
#
#
# Elastic Compliance Matrix: (Units=1/GPa)
#
#
# Indices 1 2 3 4 5 6 
#
# 1 0.012762 -0.005190 -0.006943 0.000000 0.000000 0.000000
# 2 -0.005190 0.025790 -0.002910 0.000000 0.000000 0.000000
# 3 -0.006943 -0.002910 0.014579 0.000000 0.000000 0.000000
# 4 0.000000 0.000000 0.000000 0.040094 0.000000 0.000000
# 5 0.000000 0.000000 0.000000 0.000000 -0.011288 0.000000
# 6 0.000000 0.000000 0.000000 0.000000 0.000000 0.064572
#
#
# Mechanical properties :
#
#
# Convention : Reuss Voigt Hill
#
# Bulk Modulus (GPa) = 43.39223 59.91489 51.65356
# Shear Modulus (GPa) = 27.13304 0.78180 13.95742
#
# Velocity S-wave (km/s) = 3.85600 0.65454 2.76560
# Velocity P-wave (km/s) = 6.60330 5.77963 6.20515
#
# Compressibility (1/GPa) = 0.02304560
#
# Stress axis : x y z
#
# Youngs Moduli (GPa) = 78.35472 38.77445 68.59118
#
# Poissons Ratio (x) = 0.20124 0.47626
# Poissons Ratio (y) = 0.40665 0.19958
# Poissons Ratio (z) = 0.54406 0.11282
#
# Static dielectric constant tensor:
#      x y z
#    x 1.666460 0.000000 0.000000 
#    y 0.000000 1.614860 0.000000 
#    z 0.000000 0.000000 1.588230 
# 
# From -- ./inp_files/47009.got.cif
#   From: 2010.05.17/outbox.cif.g08.bks.cpg/sg74_24_cif.got.tgz:47009.got - 2010.06.03 17:57:02.
