data_PCOD9536263
_publ_section_title
;
Structure prediction by ZEFSAII (Michael W. Deem and Ramdas Pophale) SiO2 
 PCOD9536263
Probable space group: I M M A
;
_chemical_formula_sum "Si O2"
_cell_formula_units_Z 104
_cell_length_a 26.974362
_cell_length_b 8.137090
_cell_length_c 24.433826
_cell_angle_alpha 90.000000
_cell_angle_beta 90.000000
_cell_angle_gamma 90.000000
_cell_volume 5363.049159
_symmetry_space_group_name_H-M "I M M A"
_symmetry_group_IT_number 74
_symmetry_cell_setting 'orthorhombic'
loop_
_space_group_symop_operation_xyz
x,y,z
-x,1/2-y,z
x,-y,-z
-x,1/2+y,-z
-x,-y,-z
x,1/2+y,-z
-x,y,z
x,1/2-y,z
1/2+x,1/2+y,1/2+z
1/2-x,-y,1/2+z
1/2+x,1/2-y,1/2-z
1/2-x,y,1/2-z
1/2-x,1/2-y,1/2-z
1/2+x,y,1/2-z
1/2-x,1/2+y,1/2+z
1/2+x,-y,1/2+z
loop_
_atom_site_type_symbol
_atom_site_label
_atom_site_fract_x
_atom_site_fract_y
_atom_site_fract_z
Si Si1 0.500000 0.946623 0.562414
Si Si2 0.178179 0.447241 0.939071
Si Si3 0.942744 0.945632 0.744237
Si Si4 0.708301 0.445383 0.062146
Si Si5 0.370682 0.449397 0.150639
Si Si6 0.944874 0.053716 0.443465
Si Si7 0.590017 0.445142 0.636654
O O1 0.500000 0.750000 0.567397
O O2 0.500000 0.000000 0.500000
O O3 0.452216 0.018786 0.592476
O O4 0.179165 0.250000 0.938431
O O5 0.233947 0.510978 0.931425
O O6 0.141121 0.504259 0.891299
O O7 0.161151 0.500000 0.000000
O O8 0.945686 0.750000 0.733383
O O9 0.896222 0.008396 0.707217
O O10 0.000000 0.008297 0.734653
O O11 0.927401 0.974304 0.806870
O O12 0.701796 0.250000 0.061901
O O13 0.677273 0.508220 0.115363
O O14 0.694152 0.500000 0.000000
O O15 0.364785 0.250000 0.155736
O O16 0.414086 0.492215 0.108420
O O17 0.947870 0.250000 0.443694
O O18 0.000000 0.982389 0.441440
O O19 0.920963 0.000000 0.500000
O O20 0.593812 0.250000 0.646130
#
# Coordination Sequence:
#
# PCOD9536263 Si02
#       7
#     8  16  16  16  16  16  16
#     4  12  24  38  60  90 120 150 181 220 269 328
#     4  10  21  37  58  83 111 144 178 221 275 334
#     4  10  20  36  58  81 107 147 194 235 277 329
#     4  10  19  33  55  81 111 145 182 234 285 334
#     4   9  18  32  51  76 104 139 187 231 274 327
#     4   9  16  27  44  67  98 133 169 218 274 330
#     4  11  23  39  58  83 116 148 182 227 277 330
#
# _framework density 19.391953000000001
#
# number of rings (size 3 to 8) (size 9 to 14) (size 15 to 20)
#    0.000    2.000    0.769    4.385    0.000    5.538 
#    0.000    3.846    0.000    6.462    0.000    0.000 
#    0.000    0.000    0.000    0.000    0.000    0.000 
#
# Total GULP energy -289728.303704 kJ/mol
# GULP energy per Si atom -5571.698148 kJ/mol
# Density = 1.934782 g / cm^3
# Si number density = 19.391953 Si / 1000 Ang^3
#
#
#
# Elastic Constant Matrix: (Units=GPa)
#
#
# Indices 1 2 3 4 5 6 
#
# 1 110.1160 2.6139 47.8410 0.0000 0.0000 0.0000
# 2 2.6139 16.3889 -6.2788 0.0000 0.0000 0.0000
# 3 47.8410 -6.2788 114.0359 0.0000 0.0000 0.0000
# 4 0.0000 0.0000 0.0000 24.2950 0.0000 0.0000
# 5 0.0000 0.0000 0.0000 0.0000 44.0662 0.0000
# 6 0.0000 0.0000 0.0000 0.0000 0.0000 11.8816
#
#
#
# Elastic Compliance Matrix: (Units=1/GPa)
#
#
# Indices 1 2 3 4 5 6 
#
# 1 0.011321 -0.003703 -0.004954 0.000000 0.000000 0.000000
# 2 -0.003703 0.063543 0.005052 0.000000 0.000000 0.000000
# 3 -0.004954 0.005052 0.011125 0.000000 0.000000 0.000000
# 4 0.000000 0.000000 0.000000 0.041161 0.000000 0.000000
# 5 0.000000 0.000000 0.000000 0.000000 0.022693 0.000000
# 6 0.000000 0.000000 0.000000 0.000000 0.000000 0.084164
#
#
# Mechanical properties :
#
#
# Convention : Reuss Voigt Hill
#
# Bulk Modulus (GPa) = 12.69345 36.54367 24.61856
# Shear Modulus (GPa) = 18.69320 29.13954 23.91637
#
# Velocity S-wave (km/s) = 3.10815 3.88062 3.51567
# Velocity P-wave (km/s) = 4.40917 6.24217 5.40395
#
# Compressibility (1/GPa) = 0.07878076
#
# Stress axis : x y z
#
# Youngs Moduli (GPa) = 88.32877 15.73736 89.88386
#
# Poissons Ratio (x) = 0.05828 0.44524
# Poissons Ratio (y) = 0.32711 -0.45412
# Poissons Ratio (z) = 0.43754 -0.07951
#
# Static dielectric constant tensor:
#      x y z
#    x 1.710810 0.000000 0.000000 
#    y 0.000000 1.688820 0.000000 
#    z 0.000000 0.000000 1.676930 
# 
# From -- ./inp_files/55680.got.cif
#   From: 2010.05.17/outbox.cif.g08.bks.cpg/sg74_28_cif.got.tgz:55680.got - 2010.06.03 17:57:02.
