data_PCOD9536873
_publ_section_title
;
Structure prediction by ZEFSAII (Michael W. Deem and Ramdas Pophale) SiO2 
 PCOD9536873
Probable space group: I M M A
;
_chemical_formula_sum "Si O2"
_cell_formula_units_Z 112
_cell_length_a 24.436367
_cell_length_b 15.552446
_cell_length_c 14.281289
_cell_angle_alpha 90.000000
_cell_angle_beta 90.000000
_cell_angle_gamma 90.000000
_cell_volume 5427.536451
_symmetry_space_group_name_H-M "I M M A"
_symmetry_group_IT_number 74
_symmetry_cell_setting 'orthorhombic'
loop_
_space_group_symop_operation_xyz
x,y,z
-x,1/2-y,z
x,-y,-z
-x,1/2+y,-z
-x,-y,-z
x,1/2+y,-z
-x,y,z
x,1/2-y,z
1/2+x,1/2+y,1/2+z
1/2-x,-y,1/2+z
1/2+x,1/2-y,1/2-z
1/2-x,y,1/2-z
1/2-x,1/2-y,1/2-z
1/2+x,y,1/2-z
1/2-x,1/2+y,1/2+z
1/2+x,-y,1/2+z
loop_
_atom_site_type_symbol
_atom_site_label
_atom_site_fract_x
_atom_site_fract_y
_atom_site_fract_z
Si Si1 0.200669 0.466708 0.701035
Si Si2 0.060957 0.082417 0.431317
Si Si3 0.265663 0.415922 0.435885
Si Si4 0.562600 0.846854 0.374812
Si Si5 0.885837 0.849632 0.926619
Si Si6 0.909497 0.483048 0.224238
Si Si7 0.837143 0.345466 0.540152
O O1 0.250000 0.414680 0.750000
O O2 0.232233 0.544204 0.650544
O O3 0.155632 0.500847 0.771389
O O4 0.167047 0.414193 0.623516
O O5 0.071187 0.052697 0.324417
O O6 0.112543 0.135983 0.469997
O O7 0.000000 0.122577 0.437487
O O8 0.060302 0.000000 0.500000
O O9 0.278507 0.500000 0.500000
O O10 0.321062 0.365907 0.415690
O O11 0.220828 0.357961 0.488508
O O12 0.500000 0.844598 0.408079
O O13 0.576109 0.750000 0.339809
O O14 0.599469 0.866731 0.464993
O O15 0.566969 0.923513 0.300747
O O16 0.899006 0.750000 0.906977
O O17 0.918050 0.913979 0.857987
O O18 0.842755 0.250000 0.578170
#
# Coordination Sequence:
#
# PCOD9536873 Si02
#       7
#    16  16  16  16  16  16  16
#     4  11  22  39  63  91 127 171 216 271 325 395
#     4  11  23  43  66  89 122 169 222 270 325 395
#     4  10  19  38  62  88 122 170 213 262 328 394
#     4  10  24  45  68  98 135 174 224 283 340 404
#     4  11  24  40  64 100 136 174 223 276 336 407
#     4  12  22  41  68  97 130 177 222 277 337 397
#     4  11  23  40  62  90 130 171 214 274 336 393
#
# _framework density 20.635511999999999
#
# number of rings (size 3 to 8) (size 9 to 14) (size 15 to 20)
#    0.000    1.143    4.286    2.571    2.000    3.429 
#    0.000    0.714    0.000    0.000    0.000    0.000 
#    0.000    0.000    0.000    0.000    0.000    0.000 
#
# Total GULP energy -312656.607586 kJ/mol
# GULP energy per Si atom -5583.153707 kJ/mol
# Density = 2.058854 g / cm^3
# Si number density = 20.635512 Si / 1000 Ang^3
#
#
#
# Elastic Constant Matrix: (Units=GPa)
#
#
# Indices 1 2 3 4 5 6 
#
# 1 78.8886 6.7978 6.4694 0.0000 0.0000 0.0000
# 2 6.7978 50.4403 19.3377 0.0000 0.0000 0.0000
# 3 6.4694 19.3377 58.0554 0.0000 0.0000 0.0000
# 4 0.0000 0.0000 0.0000 4.5305 0.0000 0.0000
# 5 0.0000 0.0000 0.0000 0.0000 19.2809 0.0000
# 6 0.0000 0.0000 0.0000 0.0000 0.0000 8.9017
#
#
#
# Elastic Compliance Matrix: (Units=1/GPa)
#
#
# Indices 1 2 3 4 5 6 
#
# 1 0.012874 -0.001358 -0.000982 0.000000 0.000000 0.000000
# 2 -0.001358 0.022871 -0.007467 0.000000 0.000000 0.000000
# 3 -0.000982 -0.007467 0.019821 0.000000 0.000000 0.000000
# 4 0.000000 0.000000 0.000000 0.220725 0.000000 0.000000
# 5 0.000000 0.000000 0.000000 0.000000 0.051865 0.000000
# 6 0.000000 0.000000 0.000000 0.000000 0.000000 0.112338
#
#
# Mechanical properties :
#
#
# Convention : Reuss Voigt Hill
#
# Bulk Modulus (GPa) = 27.81514 28.06600 27.94057
# Shear Modulus (GPa) = 10.59116 16.86125 13.72620
#
# Velocity S-wave (km/s) = 2.26796 2.86159 2.58189
# Velocity P-wave (km/s) = 4.51295 4.95466 4.73895
#
# Compressibility (1/GPa) = 0.03595164
#
# Stress axis : x y z
#
# Youngs Moduli (GPa) = 77.67771 43.72330 50.45038
#
# Poissons Ratio (x) = 0.05940 0.04955
# Poissons Ratio (y) = 0.10552 0.37670
# Poissons Ratio (z) = 0.07629 0.32647
#
# Static dielectric constant tensor:
#      x y z
#    x 1.763470 0.000000 0.000000 
#    y 0.000000 1.737850 0.000000 
#    z 0.000000 0.000000 1.766200 
# 
# From -- ./inp_files/32759.got.cif
#   From: 2010.05.17/outbox.cif.g08.bks.cpg/sg74_17_cif.got.tgz:32759.got - 2010.06.03 17:57:02.
