data_PCOD9536726
_publ_section_title
;
Structure prediction by ZEFSAII (Michael W. Deem and Ramdas Pophale) SiO2 
 PCOD9536726
Probable space group: I M M A
;
_chemical_formula_sum "Si O2"
_cell_formula_units_Z 96
_cell_length_a 19.154571
_cell_length_b 29.147697
_cell_length_c 9.764538
_cell_angle_alpha 90.000000
_cell_angle_beta 90.000000
_cell_angle_gamma 90.000000
_cell_volume 5451.655143
_symmetry_space_group_name_H-M "I M M A"
_symmetry_group_IT_number 74
_symmetry_cell_setting 'orthorhombic'
loop_
_space_group_symop_operation_xyz
x,y,z
-x,1/2-y,z
x,-y,-z
-x,1/2+y,-z
-x,-y,-z
x,1/2+y,-z
-x,y,z
x,1/2-y,z
1/2+x,1/2+y,1/2+z
1/2-x,-y,1/2+z
1/2+x,1/2-y,1/2-z
1/2-x,y,1/2-z
1/2-x,1/2-y,1/2-z
1/2+x,y,1/2-z
1/2-x,1/2+y,1/2+z
1/2+x,-y,1/2+z
loop_
_atom_site_type_symbol
_atom_site_label
_atom_site_fract_x
_atom_site_fract_y
_atom_site_fract_z
Si Si1 0.809551 0.972754 0.143234
Si Si2 0.865262 0.606623 0.694672
Si Si3 0.222639 0.389823 0.035091
Si Si4 0.723520 0.198264 0.903972
Si Si5 0.581299 0.196454 0.045695
Si Si6 0.920224 0.508859 0.652058
O O1 0.750000 0.987866 0.250000
O O2 0.879035 0.982826 0.228540
O O3 0.796216 0.920809 0.095072
O O4 0.807982 0.000000 0.000000
O O5 0.835443 0.606626 0.848131
O O6 0.797429 0.596172 0.599610
O O7 0.897863 0.655582 0.650684
O O8 0.915344 0.563311 0.677330
O O9 0.234934 0.337613 0.994421
O O10 0.738437 0.250000 0.948223
O O11 0.750000 0.192831 0.750000
O O12 0.640223 0.191246 0.927097
O O13 0.500000 0.190420 0.005231
O O14 0.587773 0.250000 0.094681
O O15 0.889970 0.500000 0.500000
O O16 0.000000 0.493293 0.650907
#
# Coordination Sequence:
#
# PCOD9536726 Si02
#       6
#    16  16  16  16  16  16
#     4  12  22  36  58  82 109 144 189 237 281 337
#     4  10  19  36  54  80 112 144 185 233 282 335
#     4  10  20  33  54  81 108 142 189 230 279 336
#     4   9  18  33  54  81 113 144 182 234 284 336
#     4   9  18  33  56  83 110 146 187 228 280 341
#     4  11  24  40  57  80 112 150 189 235 292 346
#
# _framework density 17.609331000000001
#
# number of rings (size 3 to 8) (size 9 to 14) (size 15 to 20)
#    0.000    1.833    1.667    3.500    0.000    2.333 
#    0.000    3.333    0.000    2.000    0.000    2.333 
#    0.000    0.000    0.000    0.000    0.000    0.000 
#
# Total GULP energy -267528.100639 kJ/mol
# GULP energy per Si atom -5573.502097 kJ/mol
# Density = 1.756925 g / cm^3
# Si number density = 17.609331 Si / 1000 Ang^3
#
#
#
# Elastic Constant Matrix: (Units=GPa)
#
#
# Indices 1 2 3 4 5 6 
#
# 1 72.5776 33.1917 46.3327 0.0000 0.0000 0.0000
# 2 33.1917 63.9190 39.4177 0.0000 0.0000 0.0000
# 3 46.3327 39.4177 99.8620 0.0001 0.0000 0.0000
# 4 0.0000 0.0000 0.0001 29.7448 0.0000 0.0000
# 5 0.0000 0.0000 0.0000 0.0000 21.8131 0.0000
# 6 0.0000 0.0000 0.0000 0.0000 0.0000 21.4661
#
#
#
# Elastic Compliance Matrix: (Units=1/GPa)
#
#
# Indices 1 2 3 4 5 6 
#
# 1 0.021511 -0.006629 -0.007364 0.000000 0.000000 0.000000
# 2 -0.006629 0.022721 -0.005893 0.000000 0.000000 0.000000
# 3 -0.007364 -0.005893 0.015756 0.000000 0.000000 0.000000
# 4 0.000000 0.000000 0.000000 0.033619 0.000000 0.000000
# 5 0.000000 0.000000 0.000000 0.000000 0.045844 0.000000
# 6 0.000000 0.000000 0.000000 0.000000 0.000000 0.046585
#
#
# Mechanical properties :
#
#
# Convention : Reuss Voigt Hill
#
# Bulk Modulus (GPa) = 49.46295 52.69364 51.07830
# Shear Modulus (GPa) = 21.50100 22.43256 21.96678
#
# Velocity S-wave (km/s) = 3.49807 3.57305 3.53576
# Velocity P-wave (km/s) = 6.66824 6.85645 6.76300
#
# Compressibility (1/GPa) = 0.02021715
#
# Stress axis : x y z
#
# Youngs Moduli (GPa) = 46.48797 44.01188 63.46634
#
# Poissons Ratio (x) = 0.29176 0.46735
# Poissons Ratio (y) = 0.30817 0.37400
# Poissons Ratio (z) = 0.34233 0.25936
#
# Static dielectric constant tensor:
#      x y z
#    x 1.607490 0.000000 0.000000 
#    y 0.000000 1.634400 0.000000 
#    z 0.000000 0.000000 1.593210 
# 
# From -- ./inp_files/12620.got.cif
#   From: 2010.05.17/outbox.cif.g08.bks.cpg/sg74_7_cif.got.tgz:12620.got - 2010.06.03 17:57:02.
