data_PCOD9536703
_publ_section_title
;
Structure prediction by ZEFSAII (Michael W. Deem and Ramdas Pophale) SiO2 
 PCOD9536703
Probable space group: I M M A
;
_chemical_formula_sum "Si O2"
_cell_formula_units_Z 68
_cell_length_a 8.710194
_cell_length_b 21.163786
_cell_length_c 21.193331
_cell_angle_alpha 90.000000
_cell_angle_beta 90.000000
_cell_angle_gamma 90.000000
_cell_volume 3906.793087
_symmetry_space_group_name_H-M "I M M A"
_symmetry_group_IT_number 74
_symmetry_cell_setting 'orthorhombic'
loop_
_space_group_symop_operation_xyz
x,y,z
-x,1/2-y,z
x,-y,-z
-x,1/2+y,-z
-x,-y,-z
x,1/2+y,-z
-x,y,z
x,1/2-y,z
1/2+x,1/2+y,1/2+z
1/2-x,-y,1/2+z
1/2+x,1/2-y,1/2-z
1/2-x,y,1/2-z
1/2-x,1/2-y,1/2-z
1/2+x,y,1/2-z
1/2-x,1/2+y,1/2+z
1/2+x,-y,1/2+z
loop_
_atom_site_type_symbol
_atom_site_label
_atom_site_fract_x
_atom_site_fract_y
_atom_site_fract_z
Si Si1 0.318635 0.496300 0.317236
Si Si2 0.679952 0.862267 0.848485
Si Si3 0.186665 0.179073 0.489739
Si Si4 0.314326 0.449255 0.945687
Si Si5 0.750000 0.250000 0.250000
O O1 0.500000 0.503835 0.315856
O O2 0.250000 0.516853 0.250000
O O3 0.275553 0.422716 0.327118
O O4 0.249602 0.531421 0.377947
O O5 0.500000 0.880844 0.851209
O O6 0.700331 0.805086 0.800605
O O7 0.727724 0.839137 0.917989
O O8 0.241015 0.250000 0.505089
O O9 0.235930 0.120913 0.533482
O O10 0.000000 0.180446 0.491686
O O11 0.500000 0.450710 0.943294
O O12 0.268613 0.500000 0.000000
#
# Coordination Sequence:
#
# PCOD9536703 Si02
#       5
#    16  16  16  16   4
#     4  12  25  39  57  81 114 151 196 244 292 342
#     4  11  21  35  54  80 116 156 197 232 274 333
#     4   9  17  32  56  84 112 148 189 230 277 339
#     4  10  19  35  61  87 114 150 193 238 287 345
#     4  12  22  28  56  86 122 164 194 232 262 336
#
# _framework density 17.40558
#
# number of rings (size 3 to 8) (size 9 to 14) (size 15 to 20)
#    0.000    1.412    4.706    2.471    0.000    1.412 
#    0.000    0.000    0.000    2.824    0.000    0.000 
#    0.000    0.000    0.000    0.000    0.000    0.000 
#
# Total GULP energy -189326.223679 kJ/mol
# GULP energy per Si atom -5568.418344 kJ/mol
# Density = 1.736596 g / cm^3
# Si number density = 17.405580 Si / 1000 Ang^3
#
#
#
# Elastic Constant Matrix: (Units=GPa)
#
#
# Indices 1 2 3 4 5 6 
#
# 1 38.9937 29.3703 42.5184 0.0000 0.0000 0.0000
# 2 29.3703 103.9325 73.9096 0.0000 0.0000 0.0000
# 3 42.5184 73.9096 140.3678 0.0000 0.0000 0.0000
# 4 0.0000 0.0000 0.0000 28.2371 0.0000 0.0000
# 5 0.0000 0.0000 0.0000 0.0000 26.8286 0.0000
# 6 0.0000 0.0000 0.0000 0.0000 0.0000 99.7546
#
#
#
# Elastic Compliance Matrix: (Units=1/GPa)
#
#
# Indices 1 2 3 4 5 6 
#
# 1 0.039425 -0.004234 -0.009713 0.000000 0.000000 0.000000
# 2 -0.004234 0.015836 -0.007056 0.000000 0.000000 0.000000
# 3 -0.009713 -0.007056 0.013781 0.000000 0.000000 0.000000
# 4 0.000000 0.000000 0.000000 0.035414 0.000000 0.000000
# 5 0.000000 0.000000 0.000000 0.000000 0.037274 0.000000
# 6 0.000000 0.000000 0.000000 0.000000 0.000000 0.010025
#
#
# Mechanical properties :
#
#
# Convention : Reuss Voigt Hill
#
# Bulk Modulus (GPa) = 36.98622 63.87675 50.43148
# Shear Modulus (GPa) = 24.65828 40.13043 32.39436
#
# Velocity S-wave (km/s) = 3.76798 4.80688 4.31878
# Velocity P-wave (km/s) = 6.34239 8.22112 7.34210
#
# Compressibility (1/GPa) = 0.02703709
#
# Stress axis : x y z
#
# Youngs Moduli (GPa) = 25.36460 63.14891 72.56243
#
# Poissons Ratio (x) = 0.26738 0.70478
# Poissons Ratio (y) = 0.10740 0.51197
# Poissons Ratio (z) = 0.24636 0.44555
#
# Static dielectric constant tensor:
#      x y z
#    x 1.602290 0.000000 0.000000 
#    y 0.000000 1.587380 0.000000 
#    z 0.000000 0.000000 1.580880 
# 
# From -- ./inp_files/39215.got.cif
#   From: 2010.05.17/outbox.cif.g08.bks.cpg/sg74_20_cif.got.tgz:39215.got - 2010.06.03 17:57:02.
