data_PCOD9536759
_publ_section_title
;
Structure prediction by ZEFSAII (Michael W. Deem and Ramdas Pophale) SiO2 
 PCOD9536759
Probable space group: I M M A
;
_chemical_formula_sum "Si O2"
_cell_formula_units_Z 64
_cell_length_a 7.455950
_cell_length_b 14.465164
_cell_length_c 26.267199
_cell_angle_alpha 90.000000
_cell_angle_beta 90.000000
_cell_angle_gamma 90.000000
_cell_volume 2832.957851
_symmetry_space_group_name_H-M "I M M A"
_symmetry_group_IT_number 74
_symmetry_cell_setting 'orthorhombic'
loop_
_space_group_symop_operation_xyz
x,y,z
-x,1/2-y,z
x,-y,-z
-x,1/2+y,-z
-x,-y,-z
x,1/2+y,-z
-x,y,z
x,1/2-y,z
1/2+x,1/2+y,1/2+z
1/2-x,-y,1/2+z
1/2+x,1/2-y,1/2-z
1/2-x,y,1/2-z
1/2-x,1/2-y,1/2-z
1/2+x,y,1/2-z
1/2-x,1/2+y,1/2+z
1/2+x,-y,1/2+z
loop_
_atom_site_type_symbol
_atom_site_label
_atom_site_fract_x
_atom_site_fract_y
_atom_site_fract_z
Si Si1 0.709731 0.750000 0.933897
Si Si2 0.250000 0.577482 0.750000
Si Si3 0.711312 0.750000 0.310565
Si Si4 0.719275 0.546579 0.947500
Si Si5 0.779330 0.750000 0.815330
Si Si6 0.789655 0.044099 0.659674
O O1 0.500000 0.750000 0.948446
O O2 0.784885 0.651831 0.950237
O O3 0.730841 0.750000 0.873555
O O4 0.303543 0.658135 0.790558
O O5 0.311377 0.503986 0.706997
O O6 0.500000 0.750000 0.317007
O O7 0.750000 0.750000 0.250000
O O8 0.779056 0.845329 0.335318
O O9 0.500000 0.546910 0.945952
O O10 0.771721 0.495304 0.894980
O O11 0.774076 0.500000 0.000000
O O12 0.000000 0.750000 0.809116
O O13 0.000000 0.018946 0.667238
#
# Coordination Sequence:
#
# PCOD9536759 Si02
#       6
#     8   8   8  16   8  16
#     4  10  19  36  59  86 119 154 197 247 294 344
#     4  11  22  35  58  90 124 159 190 247 292 362
#     4  12  26  41  60  87 122 163 207 253 305 364
#     4   9  19  36  61  91 119 154 201 253 301 348
#     4  11  23  35  55  90 127 162 194 229 292 364
#     4  11  22  39  63  90 120 157 202 253 306 360
#
# _framework density 22.591228999999998
#
# number of rings (size 3 to 8) (size 9 to 14) (size 15 to 20)
#    0.000    1.500    3.750    1.875    0.000    4.000 
#    0.000    3.750    0.000    4.500    0.000    0.000 
#    0.000    0.000    0.000    0.000    0.000    0.000 
#
# Total GULP energy -178177.304871 kJ/mol
# GULP energy per Si atom -5568.040777 kJ/mol
# Density = 2.253981 g / cm^3
# Si number density = 22.591229 Si / 1000 Ang^3
#
#
#
# Elastic Constant Matrix: (Units=GPa)
#
#
# Indices 1 2 3 4 5 6 
#
# 1 102.5609 7.8493 -3.1981 0.0000 0.0000 0.0000
# 2 7.8493 257.5015 114.7782 0.0000 0.0000 0.0000
# 3 -3.1981 114.7782 181.0086 0.0000 0.0000 0.0000
# 4 0.0000 0.0000 0.0000 130.6751 0.0000 0.0000
# 5 0.0000 0.0000 0.0000 0.0000 7.8790 0.0000
# 6 0.0000 0.0000 0.0000 0.0000 0.0000 -55.6352
#
#
#
# Elastic Compliance Matrix: (Units=1/GPa)
#
#
# Indices 1 2 3 4 5 6 
#
# 1 0.009806 -0.000524 0.000506 0.000000 0.000000 0.000000
# 2 -0.000524 0.005442 -0.003460 0.000000 0.000000 0.000000
# 3 0.000506 -0.003460 0.007727 0.000000 0.000000 0.000000
# 4 0.000000 0.000000 0.000000 0.007653 0.000000 0.000000
# 5 0.000000 0.000000 0.000000 0.000000 0.126919 0.000000
# 6 0.000000 0.000000 0.000000 0.000000 0.000000 -0.017974
#
#
# Mechanical properties :
#
#
# Convention : Reuss Voigt Hill
#
# Bulk Modulus (GPa) = 62.42816 86.65888 74.54352
# Shear Modulus (GPa) = 32.92311 44.69321 38.80816
#
# Velocity S-wave (km/s) = 3.82165 4.45268 4.14918
# Velocity P-wave (km/s) = 6.86784 8.05469 7.48482
#
# Compressibility (1/GPa) = 0.01601841
#
# Stress axis : x y z
#
# Youngs Moduli (GPa) = 101.97621 183.76839 129.40922
#
# Poissons Ratio (x) = 0.09636 -0.06545
# Poissons Ratio (y) = 0.05347 0.44773
# Poissons Ratio (z) = -0.05157 0.63581
#
# Static dielectric constant tensor:
#      x y z
#    x 2.061750 0.000000 0.000000 
#    y 0.000000 1.859800 0.000000 
#    z 0.000000 0.000000 1.784870 
# 
# From -- ./inp_files/56489.got.cif
#   From: 2010.05.17/outbox.cif.g08.bks.cpg/sg74_29_cif.got.tgz:56489.got - 2010.06.03 17:57:02.
