data_PCOD9536980
_publ_section_title
;
Structure prediction by ZEFSAII (Michael W. Deem and Ramdas Pophale) SiO2 
 PCOD9536980
Probable space group: I M M A
;
_chemical_formula_sum "Si O2"
_cell_formula_units_Z 88
_cell_length_a 9.403836
_cell_length_b 28.242734
_cell_length_c 25.406336
_cell_angle_alpha 90.000000
_cell_angle_beta 90.000000
_cell_angle_gamma 90.000000
_cell_volume 6747.669762
_symmetry_space_group_name_H-M "I M M A"
_symmetry_group_IT_number 74
_symmetry_cell_setting 'orthorhombic'
loop_
_space_group_symop_operation_xyz
x,y,z
-x,1/2-y,z
x,-y,-z
-x,1/2+y,-z
-x,-y,-z
x,1/2+y,-z
-x,y,z
x,1/2-y,z
1/2+x,1/2+y,1/2+z
1/2-x,-y,1/2+z
1/2+x,1/2-y,1/2-z
1/2-x,y,1/2-z
1/2-x,1/2-y,1/2-z
1/2+x,y,1/2-z
1/2-x,1/2+y,1/2+z
1/2+x,-y,1/2+z
loop_
_atom_site_type_symbol
_atom_site_label
_atom_site_fract_x
_atom_site_fract_y
_atom_site_fract_z
Si Si1 0.664293 0.015843 0.438282
Si Si2 0.163937 0.426101 0.589862
Si Si3 0.331748 0.664519 0.382909
Si Si4 0.336006 0.105587 0.033385
Si Si5 0.168355 0.804306 0.996157
Si Si6 0.829279 0.250000 0.805168
O O1 0.500000 0.019864 0.422174
O O2 0.747028 0.065476 0.436429
O O3 0.664205 0.000000 0.500000
O O4 0.747583 0.974575 0.407792
O O5 0.240511 0.383175 0.619808
O O6 0.164710 0.410649 0.528120
O O7 0.000000 0.432329 0.605455
O O8 0.500000 0.653599 0.378496
O O9 0.311184 0.686842 0.441182
O O10 0.293626 0.703670 0.339755
O O11 0.500000 0.107481 0.050269
O O12 0.259849 0.156389 0.033777
O O13 0.205305 0.750000 0.984027
O O14 0.000000 0.811338 0.986048
O O15 0.750000 0.250000 0.750000
O O16 0.000000 0.250000 0.797824
#
# Coordination Sequence:
#
# PCOD9536980 Si02
#       6
#    16  16  16  16  16   8
#     4   9  15  23  34  47  63  85 108 127 152 192
#     4   9  16  24  35  51  67  82 100 128 163 197
#     4   9  16  28  41  52  65  83 107 134 166 208
#     4   9  16  23  31  46  67  86 104 131 164 195
#     4   9  15  24  37  49  62  84 113 141 167 200
#     4  10  20  32  44  56  70  88 110 140 178 218
#
# _framework density 13.041539
#
# number of rings (size 3 to 8) (size 9 to 14) (size 15 to 20)
#    0.000    2.909    0.909    1.636    0.000    7.636 
#    0.000    0.000    0.000    0.000    0.000    0.000 
#    0.000    0.000    0.000    0.000    0.000    0.000 
#
# Total GULP energy -244986.660729 kJ/mol
# GULP energy per Si atom -5567.878653 kJ/mol
# Density = 1.301186 g / cm^3
# Si number density = 13.041539 Si / 1000 Ang^3
#
#
#
# Elastic Constant Matrix: (Units=GPa)
#
#
# Indices 1 2 3 4 5 6 
#
# 1 108.5944 94.7610 23.4168 0.0000 0.0000 0.0000
# 2 94.7610 144.7718 29.0239 0.0000 0.0000 0.0000
# 3 23.4168 29.0239 19.2522 0.0000 0.0000 0.0000
# 4 0.0000 0.0000 0.0000 6.4754 0.0000 0.0000
# 5 0.0000 0.0000 0.0000 0.0000 10.5494 0.0000
# 6 0.0000 0.0000 0.0000 0.0000 0.0000 18.0091
#
#
#
# Elastic Compliance Matrix: (Units=1/GPa)
#
#
# Indices 1 2 3 4 5 6 
#
# 1 0.022166 -0.013047 -0.007292 0.000000 0.000000 0.000000
# 2 -0.013047 0.017579 -0.010632 0.000000 0.000000 0.000000
# 3 -0.007292 -0.010632 0.076839 0.000000 0.000000 0.000000
# 4 0.000000 0.000000 0.000000 0.154432 0.000000 0.000000
# 5 0.000000 0.000000 0.000000 0.000000 0.094792 0.000000
# 6 0.000000 0.000000 0.000000 0.000000 0.000000 0.055527
#
#
# Mechanical properties :
#
#
# Convention : Reuss Voigt Hill
#
# Bulk Modulus (GPa) = 18.30060 63.00240 40.65150
# Shear Modulus (GPa) = 9.97027 15.36788 12.66907
#
# Velocity S-wave (km/s) = 2.76796 3.43648 3.12017
# Velocity P-wave (km/s) = 4.92732 8.00998 6.64974
#
# Compressibility (1/GPa) = 0.05464302
#
# Stress axis : x y z
#
# Youngs Moduli (GPa) = 45.11444 56.88651 13.01414
#
# Poissons Ratio (x) = 0.74219 0.09489
# Poissons Ratio (y) = 0.58861 0.13837
# Poissons Ratio (z) = 0.32896 0.60482
#
# Static dielectric constant tensor:
#      x y z
#    x 1.436910 0.000000 0.000000 
#    y 0.000000 1.428820 0.000000 
#    z 0.000000 0.000000 1.376210 
# 
# From -- ./inp_files/62602.got.cif
#   From: 2010.05.17/outbox.cif.g08.bks.cpg/sg74_32_cif.got.tgz:62602.got - 2010.06.03 17:57:02.
