data_PCOD9536523
_publ_section_title
;
Structure prediction by ZEFSAII (Michael W. Deem and Ramdas Pophale) SiO2 
 PCOD9536523
Probable space group: I M M A
;
_chemical_formula_sum "Si O2"
_cell_formula_units_Z 60
_cell_length_a 17.373017
_cell_length_b 10.140199
_cell_length_c 16.244635
_cell_angle_alpha 90.000000
_cell_angle_beta 90.000000
_cell_angle_gamma 90.000000
_cell_volume 2861.749926
_symmetry_space_group_name_H-M "I M M A"
_symmetry_group_IT_number 74
_symmetry_cell_setting 'orthorhombic'
loop_
_space_group_symop_operation_xyz
x,y,z
-x,1/2-y,z
x,-y,-z
-x,1/2+y,-z
-x,-y,-z
x,1/2+y,-z
-x,y,z
x,1/2-y,z
1/2+x,1/2+y,1/2+z
1/2-x,-y,1/2+z
1/2+x,1/2-y,1/2-z
1/2-x,y,1/2-z
1/2-x,1/2-y,1/2-z
1/2+x,y,1/2-z
1/2-x,1/2+y,1/2+z
1/2+x,-y,1/2+z
loop_
_atom_site_type_symbol
_atom_site_label
_atom_site_fract_x
_atom_site_fract_y
_atom_site_fract_z
Si Si1 0.135900 0.096361 0.705164
Si Si2 0.583218 0.514502 0.378452
Si Si3 0.500000 0.250000 0.418545
Si Si4 0.253328 0.598230 0.428869
Si Si5 0.500000 0.101838 0.926700
O O1 0.140121 0.250000 0.733058
O O2 0.105666 0.013521 0.782020
O O3 0.215223 0.062556 0.659135
O O4 0.073302 0.087720 0.632628
O O5 0.500000 0.585522 0.388670
O O6 0.565736 0.368250 0.410816
O O7 0.655113 0.583044 0.420746
O O8 0.225963 0.500000 0.500000
O O9 0.232391 0.750000 0.445798
O O10 0.500000 0.250000 0.960705
O O11 0.500000 0.000000 0.000000
#
# Coordination Sequence:
#
# PCOD9536523 Si02
#       5
#    16  16   4  16   8
#     4  10  20  39  63  90 121 161 208 256 303 370
#     4  10  21  41  65  89 122 158 213 257 308 364
#     4   8  22  40  60  96 122 156 202 260 314 374
#     4  11  25  41  63  93 128 166 209 257 314 371
#     4  10  19  34  57  84 122 161 196 242 303 359
#
# _framework density 20.966190999999998
#
# number of rings (size 3 to 8) (size 9 to 14) (size 15 to 20)
#    0.800    1.067    1.333    2.400    1.867    4.267 
#    7.200    1.333    0.000    0.000    0.000    0.000 
#    0.000    0.000    0.000    0.000    0.000    0.000 
#
# Total GULP energy -167008.654073 kJ/mol
# GULP energy per Si atom -5566.955136 kJ/mol
# Density = 2.091847 g / cm^3
# Si number density = 20.966191 Si / 1000 Ang^3
#
#
#
# Elastic Constant Matrix: (Units=GPa)
#
#
# Indices 1 2 3 4 5 6 
#
# 1 103.9186 5.4127 10.8171 0.0000 0.0000 0.0000
# 2 5.4127 60.6286 26.3927 0.0000 0.0000 0.0000
# 3 10.8171 26.3927 85.3809 0.0000 0.0000 0.0000
# 4 0.0000 0.0000 0.0000 8.8569 0.0000 0.0000
# 5 0.0000 0.0000 0.0000 0.0000 21.8039 0.0000
# 6 0.0000 0.0000 0.0000 0.0000 0.0000 28.9411
#
#
#
# Elastic Compliance Matrix: (Units=1/GPa)
#
#
# Indices 1 2 3 4 5 6 
#
# 1 0.009759 -0.000385 -0.001117 0.000000 0.000000 0.000000
# 2 -0.000385 0.019074 -0.005847 0.000000 0.000000 0.000000
# 3 -0.001117 -0.005847 0.013661 0.000000 0.000000 0.000000
# 4 0.000000 0.000000 0.000000 0.112906 0.000000 0.000000
# 5 0.000000 0.000000 0.000000 0.000000 0.045863 0.000000
# 6 0.000000 0.000000 0.000000 0.000000 0.000000 0.034553
#
#
# Mechanical properties :
#
#
# Convention : Reuss Voigt Hill
#
# Bulk Modulus (GPa) = 35.97752 37.24147 36.60949
# Shear Modulus (GPa) = 19.24702 25.74074 22.49388
#
# Velocity S-wave (km/s) = 3.03314 3.50769 3.27901
# Velocity P-wave (km/s) = 5.42804 5.84862 5.64225
#
# Compressibility (1/GPa) = 0.02779514
#
# Stress axis : x y z
#
# Youngs Moduli (GPa) = 102.46655 52.42842 73.19968
#
# Poissons Ratio (x) = 0.02018 0.08180
# Poissons Ratio (y) = 0.03943 0.42801
# Poissons Ratio (z) = 0.11450 0.30656
#
# Static dielectric constant tensor:
#      x y z
#    x 1.834720 0.000000 0.000000 
#    y 0.000000 1.706800 0.000000 
#    z 0.000000 0.000000 1.784990 
# 
# From -- ./inp_files/43541.got.cif
#   From: 2010.05.17/outbox.cif.g08.bks.cpg/sg74_22_cif.got.tgz:43541.got - 2010.06.03 17:57:02.
