data_PCOD9536272
_publ_section_title
;
Structure prediction by ZEFSAII (Michael W. Deem and Ramdas Pophale) SiO2 
 PCOD9536272
Probable space group: I M M A
;
_chemical_formula_sum "Si O2"
_cell_formula_units_Z 76
_cell_length_a 12.438660
_cell_length_b 13.930161
_cell_length_c 24.287814
_cell_angle_alpha 90.000000
_cell_angle_beta 90.000000
_cell_angle_gamma 90.000000
_cell_volume 4208.411136
_symmetry_space_group_name_H-M "I M M A"
_symmetry_group_IT_number 74
_symmetry_cell_setting 'orthorhombic'
loop_
_space_group_symop_operation_xyz
x,y,z
-x,1/2-y,z
x,-y,-z
-x,1/2+y,-z
-x,-y,-z
x,1/2+y,-z
-x,y,z
x,1/2-y,z
1/2+x,1/2+y,1/2+z
1/2-x,-y,1/2+z
1/2+x,1/2-y,1/2-z
1/2-x,y,1/2-z
1/2-x,1/2-y,1/2-z
1/2+x,y,1/2-z
1/2-x,1/2+y,1/2+z
1/2+x,-y,1/2+z
loop_
_atom_site_type_symbol
_atom_site_label
_atom_site_fract_x
_atom_site_fract_y
_atom_site_fract_z
Si Si1 0.000000 0.750000 0.988267
Si Si2 0.000000 0.959546 0.938314
Si Si3 0.244262 0.250000 0.976259
Si Si4 0.115202 0.750000 0.706333
Si Si5 0.750000 0.926033 0.750000
Si Si6 0.372722 0.439078 0.943392
Si Si7 0.735430 0.750000 0.894125
Si Si8 0.794036 0.539029 0.867772
O O1 0.112993 0.750000 0.022620
O O2 0.000000 0.844965 0.950180
O O3 0.104471 0.992536 0.904261
O O4 0.000000 0.000000 0.000000
O O5 0.300892 0.343529 0.950715
O O6 0.274688 0.250000 0.040974
O O7 0.165467 0.650391 0.726080
O O8 0.125384 0.750000 0.640317
O O9 0.000000 0.750000 0.730617
O O10 0.794426 0.982975 0.802756
O O11 0.500000 0.420356 0.933755
O O12 0.314866 0.500026 0.895607
O O13 0.364340 0.500000 0.000000
O O14 0.794949 0.654452 0.874395
#
# Coordination Sequence:
#
# PCOD9536272 Si02
#       8
#     4   8   8   8   8  16   8  16
#     4  12  20  32  60  82 116 160 174 232 296 352
#     4  12  22  34  58  88 120 154 189 249 300 360
#     4  12  21  38  56  89 119 148 194 231 303 356
#     4   9  19  33  52  77 115 155 197 233 281 339
#     4   9  22  36  52  79 112 158 202 243 280 349
#     4  11  23  38  58  83 115 154 192 240 288 348
#     4  10  19  33  55  82 119 154 188 233 278 357
#     4  11  21  39  54  85 120 153 203 238 293 350
#
# _framework density 18.059072
#
# number of rings (size 3 to 8) (size 9 to 14) (size 15 to 20)
#    0.000    1.263    4.211    2.842    1.474    4.211 
#    0.000    0.000    0.000    0.632    0.000    0.000 
#    0.000    0.000    0.000    0.000    0.000    0.000 
#
# Total GULP energy -211742.953307 kJ/mol
# GULP energy per Si atom -5572.182982 kJ/mol
# Density = 1.801797 g / cm^3
# Si number density = 18.059072 Si / 1000 Ang^3
#
#
#
# Elastic Constant Matrix: (Units=GPa)
#
#
# Indices 1 2 3 4 5 6 
#
# 1 138.3102 30.1303 41.2666 0.0000 0.0000 0.0000
# 2 30.1303 58.6995 20.2138 0.0000 0.0000 0.0000
# 3 41.2666 20.2138 133.0702 0.0000 0.0000 0.0000
# 4 0.0000 0.0000 0.0000 -1.1258 0.0000 0.0000
# 5 0.0000 0.0000 0.0000 0.0000 1.1707 0.0000
# 6 0.0000 0.0000 0.0000 0.0000 0.0000 21.9380
#
#
#
# Elastic Compliance Matrix: (Units=1/GPa)
#
#
# Indices 1 2 3 4 5 6 
#
# 1 0.008675 -0.003721 -0.002125 0.000000 0.000000 0.000000
# 2 -0.003721 0.019572 -0.001819 0.000000 0.000000 0.000000
# 3 -0.002125 -0.001819 0.008450 0.000000 0.000000 0.000000
# 4 0.000000 0.000000 0.000000 -0.888235 0.000000 0.000000
# 5 0.000000 0.000000 0.000000 0.000000 0.854220 0.000000
# 6 0.000000 0.000000 0.000000 0.000000 0.000000 0.045583
#
#
# Mechanical properties :
#
#
# Convention : Reuss Voigt Hill
#
# Bulk Modulus (GPa) = 46.80101 57.03346 51.91724
# Shear Modulus (GPa) = 70.70337 20.29452 45.49895
#
# Velocity S-wave (km/s) = 6.26388 3.35593 5.02486
# Velocity P-wave (km/s) = 8.84797 6.83129 7.90421
#
# Compressibility (1/GPa) = 0.02136706
#
# Stress axis : x y z
#
# Youngs Moduli (GPa) = 115.27759 51.09254 118.34144
#
# Poissons Ratio (x) = 0.19011 0.25146
# Poissons Ratio (y) = 0.42895 0.21528
# Poissons Ratio (z) = 0.24495 0.09295
#
# Static dielectric constant tensor:
#      x y z
#    x 1.655940 0.000000 0.000000 
#    y 0.000000 1.636690 0.000000 
#    z 0.000000 0.000000 1.639450 
# 
# From -- ./inp_files/58604.got.cif
#   From: 2010.05.17/outbox.cif.g08.bks.cpg/sg74_30_cif.got.tgz:58604.got - 2010.06.03 17:57:02.
