data_PCOD9536702
_publ_section_title
;
Structure prediction by ZEFSAII (Michael W. Deem and Ramdas Pophale) SiO2 
 PCOD9536702
Probable space group: I M M A
;
_chemical_formula_sum "Si O2"
_cell_formula_units_Z 88
_cell_length_a 28.628832
_cell_length_b 8.492206
_cell_length_c 20.052856
_cell_angle_alpha 90.000000
_cell_angle_beta 90.000000
_cell_angle_gamma 90.000000
_cell_volume 4875.289231
_symmetry_space_group_name_H-M "I M M A"
_symmetry_group_IT_number 74
_symmetry_cell_setting 'orthorhombic'
loop_
_space_group_symop_operation_xyz
x,y,z
-x,1/2-y,z
x,-y,-z
-x,1/2+y,-z
-x,-y,-z
x,1/2+y,-z
-x,y,z
x,1/2-y,z
1/2+x,1/2+y,1/2+z
1/2-x,-y,1/2+z
1/2+x,1/2-y,1/2-z
1/2-x,y,1/2-z
1/2-x,1/2-y,1/2-z
1/2+x,y,1/2-z
1/2-x,1/2+y,1/2+z
1/2+x,-y,1/2+z
loop_
_atom_site_type_symbol
_atom_site_label
_atom_site_fract_x
_atom_site_fract_y
_atom_site_fract_z
Si Si1 0.211375 0.440275 0.343084
Si Si2 0.000000 0.440764 0.075228
Si Si3 0.813307 0.558548 0.808583
Si Si4 0.053131 0.559744 0.679915
Si Si5 0.627705 0.936327 0.073789
Si Si6 0.416440 0.442130 0.329009
O O1 0.209917 0.250000 0.346675
O O2 0.191658 0.484528 0.269614
O O3 0.265523 0.491705 0.344492
O O4 0.178012 0.508459 0.399037
O O5 0.046013 0.493418 0.116178
O O6 0.000000 0.250000 0.075120
O O7 0.000000 0.500000 0.000000
O O8 0.813257 0.750000 0.809846
O O9 0.862829 0.504954 0.837505
O O10 0.054770 0.750000 0.679004
O O11 0.089394 0.498678 0.625874
O O12 0.067090 0.510806 0.754894
O O13 0.000000 0.510206 0.665892
O O14 0.626051 0.750000 0.072630
O O15 0.619037 0.000000 0.000000
O O16 0.416485 0.250000 0.329934
#
# Coordination Sequence:
#
# PCOD9536702 Si02
#       6
#    16   8  16  16  16  16
#     4   9  16  31  55  82 108 138 180 225 271 325
#     4  10  20  34  54  80 111 148 181 216 265 322
#     4   8  14  26  54  86 108 135 176 225 270 323
#     4  10  19  35  61  87 108 137 185 237 276 325
#     4  12  25  39  55  77 111 153 187 229 281 334
#     4   9  15  29  56  85 109 141 184 221 263 325
#
# _framework density 18.05021
#
# number of rings (size 3 to 8) (size 9 to 14) (size 15 to 20)
#    0.000    2.364    2.727    2.727    0.000    0.727 
#    0.000    3.636    0.000    2.182    0.000    0.000 
#    0.000    0.000    0.000    0.000    0.000    0.000 
#
# Total GULP energy -245428.564439 kJ/mol
# GULP energy per Si atom -5577.921919 kJ/mol
# Density = 1.800913 g / cm^3
# Si number density = 18.050210 Si / 1000 Ang^3
#
#
#
# Elastic Constant Matrix: (Units=GPa)
#
#
# Indices 1 2 3 4 5 6 
#
# 1 182.7955 25.9365 90.8993 0.0000 0.0000 0.0000
# 2 25.9365 18.9270 22.3897 0.0000 0.0000 0.0000
# 3 90.8993 22.3897 136.9128 0.0000 0.0000 0.0000
# 4 0.0000 0.0000 0.0000 22.2019 0.0000 0.0000
# 5 0.0000 0.0000 0.0000 0.0000 27.8007 0.0000
# 6 0.0000 0.0000 0.0000 0.0000 0.0000 9.3778
#
#
#
# Elastic Compliance Matrix: (Units=1/GPa)
#
#
# Indices 1 2 3 4 5 6 
#
# 1 0.008740 -0.006339 -0.004766 0.000000 0.000000 0.000000
# 2 -0.006339 0.070104 -0.007256 0.000000 0.000000 0.000000
# 3 -0.004766 -0.007256 0.011655 0.000000 0.000000 0.000000
# 4 0.000000 0.000000 0.000000 0.045041 0.000000 0.000000
# 5 0.000000 0.000000 0.000000 0.000000 0.035970 0.000000
# 6 0.000000 0.000000 0.000000 0.000000 0.000000 0.106634
#
#
# Mechanical properties :
#
#
# Convention : Reuss Voigt Hill
#
# Bulk Modulus (GPa) = 18.59510 68.56515 43.58012
# Shear Modulus (GPa) = 15.02437 25.17006 20.09722
#
# Velocity S-wave (km/s) = 2.88820 3.73828 3.34039
# Velocity P-wave (km/s) = 4.63104 7.53002 6.25091
#
# Compressibility (1/GPa) = 0.05377761
#
# Stress axis : x y z
#
# Youngs Moduli (GPa) = 114.41572 14.26446 85.80157
#
# Poissons Ratio (x) = 0.09042 0.40894
# Poissons Ratio (y) = 0.72526 0.62256
# Poissons Ratio (z) = 0.54532 0.10350
#
# Static dielectric constant tensor:
#      x y z
#    x 1.645050 0.000000 0.000000 
#    y 0.000000 1.616560 0.000000 
#    z 0.000000 0.000000 1.608420 
# 
# From -- ./inp_files/40156.got.cif
#   From: 2010.05.17/outbox.cif.g08.bks.cpg/sg74_21_cif.got.tgz:40156.got - 2010.06.03 17:57:02.
