data_PCOD9536075
_publ_section_title
;
Structure prediction by ZEFSAII (Michael W. Deem and Ramdas Pophale) SiO2 
 PCOD9536075
Probable space group: I M M A
;
_chemical_formula_sum "Si O2"
_cell_formula_units_Z 56
_cell_length_a 18.471005
_cell_length_b 18.725867
_cell_length_c 7.387652
_cell_angle_alpha 90.000000
_cell_angle_beta 90.000000
_cell_angle_gamma 90.000000
_cell_volume 2555.282319
_symmetry_space_group_name_H-M "I M M A"
_symmetry_group_IT_number 74
_symmetry_cell_setting 'orthorhombic'
loop_
_space_group_symop_operation_xyz
x,y,z
-x,1/2-y,z
x,-y,-z
-x,1/2+y,-z
-x,-y,-z
x,1/2+y,-z
-x,y,z
x,1/2-y,z
1/2+x,1/2+y,1/2+z
1/2-x,-y,1/2+z
1/2+x,1/2-y,1/2-z
1/2-x,y,1/2-z
1/2-x,1/2-y,1/2-z
1/2+x,y,1/2-z
1/2-x,1/2+y,1/2+z
1/2+x,-y,1/2+z
loop_
_atom_site_type_symbol
_atom_site_label
_atom_site_fract_x
_atom_site_fract_y
_atom_site_fract_z
Si Si1 0.730154 0.404525 0.455103
Si Si2 0.727320 0.750000 0.044404
Si Si3 0.581728 0.750000 0.849618
Si Si4 0.852885 0.500000 0.500000
Si Si5 0.582409 0.091567 0.324681
O O1 0.750000 0.426454 0.250000
O O2 0.739755 0.320745 0.462406
O O3 0.794554 0.440387 0.569612
O O4 0.645432 0.421193 0.472784
O O5 0.750000 0.750000 0.250000
O O6 0.642337 0.750000 0.003357
O O7 0.500000 0.750000 0.922369
O O8 0.589667 0.824962 0.739958
O O9 0.899976 0.459996 0.347242
O O10 0.500000 0.080860 0.385405
#
# Coordination Sequence:
#
# PCOD9536075 Si02
#       5
#    16   8   8   8  16
#     4  10  20  37  60  83 114 152 203 243 285 350
#     4  12  22  36  59  89 118 154 194 245 302 357
#     4  10  19  37  60  86 111 149 200 245 290 347
#     4  10  19  32  57  84 120 150 194 244 283 352
#     4  10  20  36  62  89 115 153 202 249 293 349
#
# _framework density 21.915386000000002
#
# number of rings (size 3 to 8) (size 9 to 14) (size 15 to 20)
#    0.000    1.714    5.714    1.714    0.000    3.429 
#    0.000    2.143    0.000    0.000    0.000    0.000 
#    0.000    0.000    0.000    0.000    0.000    0.000 
#
# Total GULP energy -156148.592498 kJ/mol
# GULP energy per Si atom -5576.735446 kJ/mol
# Density = 2.186551 g / cm^3
# Si number density = 21.915386 Si / 1000 Ang^3
#
#
#
# Elastic Constant Matrix: (Units=GPa)
#
#
# Indices 1 2 3 4 5 6 
#
# 1 204.1174 24.3833 14.2821 0.0000 0.0000 0.0000
# 2 24.3833 158.1006 6.2225 0.0000 0.0000 0.0000
# 3 14.2821 6.2225 30.1677 0.0000 0.0000 0.0000
# 4 0.0000 0.0000 0.0000 20.8666 0.0000 0.0000
# 5 0.0000 0.0000 0.0000 0.0000 22.2257 0.0000
# 6 0.0000 0.0000 0.0000 0.0000 0.0000 29.3594
#
#
#
# Elastic Compliance Matrix: (Units=1/GPa)
#
#
# Indices 1 2 3 4 5 6 
#
# 1 0.005143 -0.000703 -0.002290 0.000000 0.000000 0.000000
# 2 -0.000703 0.006473 -0.001002 0.000000 0.000000 0.000000
# 3 -0.002290 -0.001002 0.034439 0.000000 0.000000 0.000000
# 4 0.000000 0.000000 0.000000 0.047923 0.000000 0.000000
# 5 0.000000 0.000000 0.000000 0.000000 0.044993 0.000000
# 6 0.000000 0.000000 0.000000 0.000000 0.000000 0.034061
#
#
# Mechanical properties :
#
#
# Convention : Reuss Voigt Hill
#
# Bulk Modulus (GPa) = 26.27120 53.57352 39.92236
# Shear Modulus (GPa) = 25.81163 37.65687 31.73425
#
# Velocity S-wave (km/s) = 3.43561 4.14972 3.80943
# Velocity P-wave (km/s) = 5.26797 6.88904 6.13231
#
# Compressibility (1/GPa) = 0.03806450
#
# Stress axis : x y z
#
# Youngs Moduli (GPa) = 194.42541 154.48852 29.03696
#
# Poissons Ratio (x) = 0.10862 0.06649
# Poissons Ratio (y) = 0.13670 0.02910
# Poissons Ratio (z) = 0.44523 0.15484
#
# Static dielectric constant tensor:
#      x y z
#    x 1.836640 0.000000 0.000000 
#    y 0.000000 1.965600 0.000000 
#    z 0.000000 0.000000 1.864780 
# 
# From -- ./inp_files/10022.got.cif
#   From: 2010.05.17/outbox.cif.g08.bks.cpg/sg74_6_cif.got.tgz:10022.got - 2010.06.03 17:57:02.
