data_PCOD9536956
_publ_section_title
;
Structure prediction by ZEFSAII (Michael W. Deem and Ramdas Pophale) SiO2 
 PCOD9536956
Probable space group: I M M A
;
_chemical_formula_sum "Si O2"
_cell_formula_units_Z 96
_cell_length_a 23.353338
_cell_length_b 18.040596
_cell_length_c 12.480257
_cell_angle_alpha 90.000000
_cell_angle_beta 90.000000
_cell_angle_gamma 90.000000
_cell_volume 5258.033815
_symmetry_space_group_name_H-M "I M M A"
_symmetry_group_IT_number 74
_symmetry_cell_setting 'orthorhombic'
loop_
_space_group_symop_operation_xyz
x,y,z
-x,1/2-y,z
x,-y,-z
-x,1/2+y,-z
-x,-y,-z
x,1/2+y,-z
-x,y,z
x,1/2-y,z
1/2+x,1/2+y,1/2+z
1/2-x,-y,1/2+z
1/2+x,1/2-y,1/2-z
1/2-x,y,1/2-z
1/2-x,1/2-y,1/2-z
1/2+x,y,1/2-z
1/2-x,1/2+y,1/2+z
1/2+x,-y,1/2+z
loop_
_atom_site_type_symbol
_atom_site_label
_atom_site_fract_x
_atom_site_fract_y
_atom_site_fract_z
Si Si1 0.682254 0.384823 0.369940
Si Si2 0.796021 0.168280 0.898666
Si Si3 0.631464 0.068360 0.757628
Si Si4 0.062176 0.032368 0.118876
Si Si5 0.663083 0.163946 0.937266
Si Si6 0.306633 0.424607 0.144468
O O1 0.690912 0.333952 0.473608
O O2 0.618975 0.417847 0.378953
O O3 0.687440 0.366165 0.243638
O O4 0.739128 0.437103 0.379660
O O5 0.811576 0.250000 0.856550
O O6 0.830418 0.105137 0.836452
O O7 0.727750 0.158857 0.888878
O O8 0.576102 0.032807 0.702839
O O9 0.622122 0.130207 0.847413
O O10 0.665070 0.000517 0.815412
O O11 0.000000 0.067027 0.142209
O O12 0.060145 0.000000 0.000000
O O13 0.652706 0.250000 0.962432
O O14 0.664539 0.112036 0.041628
#
# Coordination Sequence:
#
# PCOD9536956 Si02
#       6
#    16  16  16  16  16  16
#     4   9  18  33  51  77 104 139 173 220 266 320
#     4  10  20  31  48  78 112 143 172 215 276 333
#     4  11  20  32  53  78 108 137 177 222 268 323
#     4  10  20  33  52  77 104 135 174 224 271 311
#     4  10  21  34  49  76 115 144 172 213 268 334
#     4   9  20  31  53  82 106 140 180 217 265 323
#
# _framework density 18.257774999999999
#
# number of rings (size 3 to 8) (size 9 to 14) (size 15 to 20)
#    0.000    2.167    1.667    1.500    9.333    2.000 
#    0.000    3.333    0.000   11.500    0.000    0.000 
#    0.000    0.000    0.000    0.000    0.000    0.000 
#
# Total GULP energy -267225.480514 kJ/mol
# GULP energy per Si atom -5567.197511 kJ/mol
# Density = 1.821622 g / cm^3
# Si number density = 18.257775 Si / 1000 Ang^3
#
#
#
# Elastic Constant Matrix: (Units=GPa)
#
#
# Indices 1 2 3 4 5 6 
#
# 1 86.7469 18.7471 17.4444 0.0000 0.0000 0.0000
# 2 18.7471 64.3219 24.2639 0.0000 0.0000 0.0000
# 3 17.4444 24.2639 83.9163 0.0000 0.0000 0.0000
# 4 0.0000 0.0000 0.0000 22.9156 0.0000 0.0000
# 5 0.0000 0.0000 0.0000 0.0000 -11.9105 0.0000
# 6 0.0000 0.0000 0.0000 0.0000 0.0000 -11.0813
#
#
#
# Elastic Compliance Matrix: (Units=1/GPa)
#
#
# Indices 1 2 3 4 5 6 
#
# 1 0.012524 -0.002995 -0.001738 0.000000 0.000000 0.000000
# 2 -0.002995 0.018166 -0.004630 0.000000 0.000000 0.000000
# 3 -0.001738 -0.004630 0.013617 0.000000 0.000000 0.000000
# 4 0.000000 0.000000 0.000000 0.043638 0.000000 0.000000
# 5 0.000000 0.000000 0.000000 0.000000 -0.083960 0.000000
# 6 0.000000 0.000000 0.000000 0.000000 0.000000 -0.090242
#
#
# Mechanical properties :
#
#
# Convention : Reuss Voigt Hill
#
# Bulk Modulus (GPa) = 39.08974 39.54400 39.31687
# Shear Modulus (GPa) = -84.74105 11.62006 -36.56050
#
# Velocity S-wave (km/s) = -6.82015 2.52552 -4.47974
# Velocity P-wave (km/s) = 6.36890 5.49637 2.27517
#
# Compressibility (1/GPa) = 0.02558216
#
# Stress axis : x y z
#
# Youngs Moduli (GPa) = 79.84378 55.04711 73.43969
#
# Poissons Ratio (x) = 0.16486 0.12761
# Poissons Ratio (y) = 0.23912 0.34003
# Poissons Ratio (z) = 0.13874 0.25487
#
# Static dielectric constant tensor:
#      x y z
#    x 1.605980 0.000000 0.000000 
#    y 0.000000 1.656720 0.000000 
#    z 0.000000 0.000000 1.684200 
# 
# From -- ./inp_files/23942.got.cif
#   From: 2010.05.17/outbox.cif.g08.bks.cpg/sg74_12_cif.got.tgz:23942.got - 2010.06.03 17:57:02.
