data_PCOD9536184
_publ_section_title
;
Structure prediction by ZEFSAII (Michael W. Deem and Ramdas Pophale) SiO2 
 PCOD9536184
Probable space group: I M M A
;
_chemical_formula_sum "Si O2"
_cell_formula_units_Z 112
_cell_length_a 14.333752
_cell_length_b 29.952440
_cell_length_c 13.807946
_cell_angle_alpha 90.000000
_cell_angle_beta 90.000000
_cell_angle_gamma 90.000000
_cell_volume 5928.177148
_symmetry_space_group_name_H-M "I M M A"
_symmetry_group_IT_number 74
_symmetry_cell_setting 'orthorhombic'
loop_
_space_group_symop_operation_xyz
x,y,z
-x,1/2-y,z
x,-y,-z
-x,1/2+y,-z
-x,-y,-z
x,1/2+y,-z
-x,y,z
x,1/2-y,z
1/2+x,1/2+y,1/2+z
1/2-x,-y,1/2+z
1/2+x,1/2-y,1/2-z
1/2-x,y,1/2-z
1/2-x,1/2-y,1/2-z
1/2+x,y,1/2-z
1/2-x,1/2+y,1/2+z
1/2+x,-y,1/2+z
loop_
_atom_site_type_symbol
_atom_site_label
_atom_site_fract_x
_atom_site_fract_y
_atom_site_fract_z
Si Si1 0.270742 0.197982 0.608473
Si Si2 0.103929 0.102480 0.124833
Si Si3 0.109689 0.699982 0.914832
Si Si4 0.891597 0.841221 0.280941
Si Si5 0.397527 0.562961 0.162159
Si Si6 0.263202 0.050878 0.014073
Si Si7 0.853851 0.465911 0.289650
O O1 0.249987 0.250000 0.623731
O O2 0.321413 0.193676 0.505626
O O3 0.174694 0.171751 0.628557
O O4 0.344460 0.182120 0.689281
O O5 0.121901 0.154808 0.147141
O O6 0.181622 0.082846 0.052242
O O7 0.105466 0.072051 0.220844
O O8 0.000000 0.099236 0.081655
O O9 0.126844 0.750000 0.873363
O O10 0.000000 0.700066 0.945381
O O11 0.886054 0.894668 0.268743
O O12 0.000000 0.828845 0.293170
O O13 0.500000 0.568309 0.114768
O O14 0.397352 0.514918 0.213003
O O15 0.314878 0.563701 0.084260
O O16 0.341302 0.048494 0.099008
O O17 0.227315 0.000000 0.000000
O O18 0.750000 0.472286 0.250000
#
# Coordination Sequence:
#
# PCOD9536184 Si02
#       7
#    16  16  16  16  16  16  16
#     4  10  20  33  51  71  96 136 172 207 255 306
#     4  10  19  33  53  78 107 135 167 212 263 307
#     4   9  18  33  53  76 101 132 171 210 254 311
#     4  10  20  31  46  72 101 131 169 212 253 298
#     4  10  20  33  51  74 100 136 176 209 248 299
#     4   9  19  35  52  73 102 137 174 211 248 297
#     4   9  19  33  52  74 101 137 170 209 255 297
#
# _framework density 18.892821999999999
#
# number of rings (size 3 to 8) (size 9 to 14) (size 15 to 20)
#    0.000    2.429    0.000    2.571    2.000    5.143 
#    2.571    0.000    0.000    3.857    0.000    0.000 
#    0.000    4.571    0.000    0.000    0.000    0.000 
#
# Total GULP energy -311996.025874 kJ/mol
# GULP energy per Si atom -5571.357605 kJ/mol
# Density = 1.884982 g / cm^3
# Si number density = 18.892822 Si / 1000 Ang^3
#
#
#
# Elastic Constant Matrix: (Units=GPa)
#
#
# Indices 1 2 3 4 5 6 
#
# 1 86.6237 42.8039 0.6966 0.0000 0.0000 0.0000
# 2 42.8039 156.2099 29.5271 0.0001 0.0000 0.0000
# 3 0.6966 29.5271 28.1309 0.0000 -0.0001 0.0000
# 4 0.0000 0.0001 0.0000 20.3187 0.0000 0.0000
# 5 0.0000 0.0000 -0.0001 0.0000 1.3631 0.0000
# 6 0.0000 0.0000 0.0000 0.0000 0.0000 23.3944
#
#
#
# Elastic Compliance Matrix: (Units=1/GPa)
#
#
# Indices 1 2 3 4 5 6 
#
# 1 0.013799 -0.004636 0.004525 0.000000 0.000000 0.000000
# 2 -0.004636 0.009544 -0.009903 0.000000 0.000000 0.000000
# 3 0.004525 -0.009903 0.045830 0.000000 0.000002 0.000000
# 4 0.000000 0.000000 0.000000 0.049216 0.000001 0.000000
# 5 0.000000 0.000000 0.000002 0.000001 0.733614 0.000000
# 6 0.000000 0.000000 0.000000 0.000000 0.000000 0.042745
#
#
# Mechanical properties :
#
#
# Convention : Reuss Voigt Hill
#
# Bulk Modulus (GPa) = 20.34825 46.33554 33.34190
# Shear Modulus (GPa) = 5.36965 22.21102 13.79034
#
# Velocity S-wave (km/s) = 1.68770 3.43247 2.70464
# Velocity P-wave (km/s) = 3.81989 6.34727 5.23829
#
# Compressibility (1/GPa) = 0.04914427
#
# Stress axis : x y z
#
# Youngs Moduli (GPa) = 72.47007 104.77875 21.81961
#
# Poissons Ratio (x) = 0.48579 -0.09873
# Poissons Ratio (y) = 0.33600 0.21607
# Poissons Ratio (z) = -0.32791 1.03760
#
# Static dielectric constant tensor:
#      x y z
#    x 1.744560 0.000000 0.000000 
#    y 0.000000 1.687130 0.000000 
#    z 0.000000 0.000000 1.660960 
# 
# From -- ./inp_files/32962.got.cif
#   From: 2010.05.17/outbox.cif.g08.bks.cpg/sg74_17_cif.got.tgz:32962.got - 2010.06.03 17:57:02.
