data_PCOD9536835
_publ_section_title
;
Structure prediction by ZEFSAII (Michael W. Deem and Ramdas Pophale) SiO2 
 PCOD9536835
Probable space group: I M M A
;
_chemical_formula_sum "Si O2"
_cell_formula_units_Z 52
_cell_length_a 13.487621
_cell_length_b 32.281536
_cell_length_c 5.227739
_cell_angle_alpha 90.000000
_cell_angle_beta 90.000000
_cell_angle_gamma 90.000000
_cell_volume 2276.163431
_symmetry_space_group_name_H-M "I M M A"
_symmetry_group_IT_number 74
_symmetry_cell_setting 'orthorhombic'
loop_
_space_group_symop_operation_xyz
x,y,z
-x,1/2-y,z
x,-y,-z
-x,1/2+y,-z
-x,-y,-z
x,1/2+y,-z
-x,y,z
x,1/2-y,z
1/2+x,1/2+y,1/2+z
1/2-x,-y,1/2+z
1/2+x,1/2-y,1/2-z
1/2-x,y,1/2-z
1/2-x,1/2-y,1/2-z
1/2+x,y,1/2-z
1/2-x,1/2+y,1/2+z
1/2+x,-y,1/2+z
loop_
_atom_site_type_symbol
_atom_site_label
_atom_site_fract_x
_atom_site_fract_y
_atom_site_fract_z
Si Si1 0.185830 0.812521 0.498007
Si Si2 0.880014 0.093734 0.587378
Si Si3 0.000000 0.750000 0.506750
Si Si4 0.120897 0.954831 0.911214
O O1 0.250000 0.801342 0.250000
O O2 0.160292 0.861166 0.478210
O O3 0.086699 0.785901 0.505896
O O4 0.250000 0.804887 0.750000
O O5 0.850341 0.060548 0.370250
O O6 0.000000 0.096069 0.581647
O O7 0.852474 0.078326 0.870287
O O8 0.000000 0.956784 0.907638
O O9 0.155658 0.000000 0.000000
#
# Coordination Sequence:
#
# PCOD9536835 Si02
#       4
#    16  16   4  16
#     4  12  27  47  74 106 141 182 227 283 350 417
#     4  10  19  37  61  93 136 181 222 280 339 396
#     4  12  28  54  76 108 138 178 228 294 340 432
#     4   9  17  30  58  95 131 177 234 277 326 395
#
# _framework density 22.845462000000001
#
# number of rings (size 3 to 8) (size 9 to 14) (size 15 to 20)
#    0.000    1.538    1.538    3.692    0.000    6.154 
#    0.000    0.000    0.000   18.462    0.000    0.000 
#    0.000    0.000    0.000    0.000    0.000    0.000 
#
# Total GULP energy -145215.418763 kJ/mol
# GULP energy per Si atom -5585.208414 kJ/mol
# Density = 2.279346 g / cm^3
# Si number density = 22.845462 Si / 1000 Ang^3
#
#
#
# Elastic Constant Matrix: (Units=GPa)
#
#
# Indices 1 2 3 4 5 6 
#
# 1 158.7759 49.9077 64.5215 0.0608 0.2331 -0.8852
# 2 49.9077 166.8032 44.7875 -0.0281 0.1662 -0.1879
# 3 64.5215 44.7875 169.9392 0.0246 0.0545 0.8437
# 4 0.0608 -0.0281 0.0246 -24.2657 0.0628 -0.9661
# 5 0.2331 0.1662 0.0545 0.0628 19.6479 -0.9747
# 6 -0.8852 -0.1879 0.8437 -0.9661 -0.9747 -61.1819
#
#
#
# Elastic Compliance Matrix: (Units=1/GPa)
#
#
# Indices 1 2 3 4 5 6 
#
# 1 0.007855 -0.001668 -0.002542 0.000025 -0.000079 -0.000143
# 2 -0.001668 0.006806 -0.001160 -0.000013 -0.000035 -0.000012
# 3 -0.002542 -0.001160 0.007155 -0.000003 0.000027 0.000139
# 4 0.000025 -0.000013 -0.000003 -0.041236 0.000164 0.000648
# 5 -0.000079 -0.000035 0.000027 0.000164 0.050857 -0.000811
# 6 -0.000143 -0.000012 0.000139 0.000648 -0.000811 -0.016338
#
#
# Mechanical properties :
#
#
# Convention : Reuss Voigt Hill
#
# Bulk Modulus (GPa) = 90.29375 90.43909 90.36642
# Shear Modulus (GPa) = 169.32220 9.26014 89.29117
#
# Velocity S-wave (km/s) = 8.61842 2.01549 6.25857
# Velocity P-wave (km/s) = 11.77480 6.71487 9.58476
#
# Compressibility (1/GPa) = 0.01107496
#
# Stress axis : x y z
#
# Youngs Moduli (GPa) = 127.31275 146.93674 139.76819
#
# Poissons Ratio (x) = 0.24504 0.35529
# Poissons Ratio (y) = 0.21232 0.16218
# Poissons Ratio (z) = 0.32363 0.17050
#
# Static dielectric constant tensor:
#      x y z
#    x 1.887130 0.000040 0.000160 
#    y 0.000040 1.783040 -0.000050 
#    z 0.000160 -0.000050 1.796120 
# 
# From -- ./inp_files/1507.got.cif
#   From: 2010.05.17/outbox.cif.g08.bks.cpg/sg74_1_cif.got.tgz:1507.got - 2010.06.03 17:57:02.
