data_PCOD9536817
_publ_section_title
;
Structure prediction by ZEFSAII (Michael W. Deem and Ramdas Pophale) SiO2 
 PCOD9536817
Probable space group: I M M A
;
_chemical_formula_sum "Si O2"
_cell_formula_units_Z 72
_cell_length_a 30.133545
_cell_length_b 8.502084
_cell_length_c 14.477932
_cell_angle_alpha 90.000000
_cell_angle_beta 90.000000
_cell_angle_gamma 90.000000
_cell_volume 3709.216221
_symmetry_space_group_name_H-M "I M M A"
_symmetry_group_IT_number 74
_symmetry_cell_setting 'orthorhombic'
loop_
_space_group_symop_operation_xyz
x,y,z
-x,1/2-y,z
x,-y,-z
-x,1/2+y,-z
-x,-y,-z
x,1/2+y,-z
-x,y,z
x,1/2-y,z
1/2+x,1/2+y,1/2+z
1/2-x,-y,1/2+z
1/2+x,1/2-y,1/2-z
1/2-x,y,1/2-z
1/2-x,1/2-y,1/2-z
1/2+x,y,1/2-z
1/2-x,1/2+y,1/2+z
1/2+x,-y,1/2+z
loop_
_atom_site_type_symbol
_atom_site_label
_atom_site_fract_x
_atom_site_fract_y
_atom_site_fract_z
Si Si1 0.315670 0.441586 0.204684
Si Si2 0.273169 0.060175 0.397583
Si Si3 0.086383 0.059714 0.292412
Si Si4 0.500000 0.436509 0.896956
Si Si5 0.051386 0.561151 0.902636
O O1 0.315219 0.250000 0.204699
O O2 0.304095 0.488105 0.310582
O O3 0.276189 0.490776 0.136198
O O4 0.364854 0.493356 0.176670
O O5 0.274123 0.250000 0.400697
O O6 0.283867 0.000000 0.500000
O O7 0.084953 0.250000 0.296768
O O8 0.079152 0.012044 0.185865
O O9 0.044428 0.996915 0.347503
O O10 0.500000 0.250000 0.896074
O O11 0.500000 0.500000 0.000000
O O12 0.050789 0.750000 0.905046
O O13 0.000000 0.507399 0.891917
O O14 0.068530 0.500000 0.000000
#
# Coordination Sequence:
#
# PCOD9536817 Si02
#       5
#    16  16  16   8  16
#     4   8  17  33  55  78 107 144 180 216 266 325
#     4   9  17  33  54  80 109 142 178 217 267 322
#     4  10  19  37  59  79 106 144 186 229 270 316
#     4  12  26  42  59  80 107 142 181 228 274 320
#     4   9  17  29  47  72 101 134 171 212 260 313
#
# _framework density 19.411107999999999
#
# number of rings (size 3 to 8) (size 9 to 14) (size 15 to 20)
#    0.000    2.667    1.111    2.333    0.000    2.667 
#    0.000    6.667    0.000    0.000    0.000    0.000 
#    0.000    0.000    0.000    0.000    0.000    0.000 
#
# Total GULP energy -200751.197507 kJ/mol
# GULP energy per Si atom -5576.422153 kJ/mol
# Density = 1.936693 g / cm^3
# Si number density = 19.411108 Si / 1000 Ang^3
#
#
#
# Elastic Constant Matrix: (Units=GPa)
#
#
# Indices 1 2 3 4 5 6 
#
# 1 112.5521 16.4235 19.8158 0.0000 0.0000 0.0000
# 2 16.4235 8.7704 8.7166 0.0000 0.0000 0.0000
# 3 19.8158 8.7166 71.8102 0.0000 0.0000 0.0000
# 4 0.0000 0.0000 0.0000 31.4806 0.0000 0.0000
# 5 0.0000 0.0000 0.0000 0.0000 7.3689 0.0000
# 6 0.0000 0.0000 0.0000 0.0000 0.0000 2.7281
#
#
#
# Elastic Compliance Matrix: (Units=1/GPa)
#
#
# Indices 1 2 3 4 5 6 
#
# 1 0.012254 -0.022274 -0.000678 0.000000 0.000000 0.000000
# 2 -0.022274 0.170148 -0.014507 0.000000 0.000000 0.000000
# 3 -0.000678 -0.014507 0.015874 0.000000 0.000000 0.000000
# 4 0.000000 0.000000 0.000000 0.031766 0.000000 0.000000
# 5 0.000000 0.000000 0.000000 0.000000 0.135705 0.000000
# 6 0.000000 0.000000 0.000000 0.000000 0.000000 0.366555
#
#
# Mechanical properties :
#
#
# Convention : Reuss Voigt Hill
#
# Bulk Modulus (GPa) = 8.10643 31.44938 19.77790
# Shear Modulus (GPa) = 5.89388 18.19398 12.04393
#
# Velocity S-wave (km/s) = 1.74440 3.06485 2.49362
# Velocity P-wave (km/s) = 2.87097 5.36296 4.30139
#
# Compressibility (1/GPa) = 0.12335890
#
# Stress axis : x y z
#
# Youngs Moduli (GPa) = 81.60407 5.87724 62.99795
#
# Poissons Ratio (x) = 0.13091 0.04270
# Poissons Ratio (y) = 1.81763 0.91389
# Poissons Ratio (z) = 0.05532 0.08526
#
# Static dielectric constant tensor:
#      x y z
#    x 1.718520 0.000000 0.000000 
#    y 0.000000 1.664800 0.000000 
#    z 0.000000 0.000000 1.659420 
# 
# From -- ./inp_files/37658.got.cif
#   From: 2010.05.17/outbox.cif.g08.bks.cpg/sg74_19_cif.got.tgz:37658.got - 2010.06.03 17:57:02.
