data_PCOD9536754
_publ_section_title
;
Structure prediction by ZEFSAII (Michael W. Deem and Ramdas Pophale) SiO2 
 PCOD9536754
Probable space group: I M M A
;
_chemical_formula_sum "Si O2"
_cell_formula_units_Z 72
_cell_length_a 14.935535
_cell_length_b 14.098658
_cell_length_c 16.226810
_cell_angle_alpha 90.000000
_cell_angle_beta 90.000000
_cell_angle_gamma 90.000000
_cell_volume 3416.895609
_symmetry_space_group_name_H-M "I M M A"
_symmetry_group_IT_number 74
_symmetry_cell_setting 'orthorhombic'
loop_
_space_group_symop_operation_xyz
x,y,z
-x,1/2-y,z
x,-y,-z
-x,1/2+y,-z
-x,-y,-z
x,1/2+y,-z
-x,y,z
x,1/2-y,z
1/2+x,1/2+y,1/2+z
1/2-x,-y,1/2+z
1/2+x,1/2-y,1/2-z
1/2-x,y,1/2-z
1/2-x,1/2-y,1/2-z
1/2+x,y,1/2-z
1/2-x,1/2+y,1/2+z
1/2+x,-y,1/2+z
loop_
_atom_site_type_symbol
_atom_site_label
_atom_site_fract_x
_atom_site_fract_y
_atom_site_fract_z
Si Si1 0.194408 0.569678 0.829655
Si Si2 0.812460 0.352528 0.882557
Si Si3 0.500000 0.583020 0.430963
Si Si4 0.500000 0.148630 0.119864
Si Si5 0.500000 0.436437 0.290735
Si Si6 0.177989 0.107963 0.477959
O O1 0.250000 0.597569 0.750000
O O2 0.193783 0.453602 0.835454
O O3 0.244943 0.607361 0.909049
O O4 0.093454 0.605968 0.821207
O O5 0.817359 0.250000 0.838342
O O6 0.905502 0.363038 0.934419
O O7 0.725623 0.350721 0.941549
O O8 0.500000 0.500000 0.500000
O O9 0.500000 0.537294 0.338535
O O10 0.500000 0.250000 0.165351
O O11 0.412389 0.145576 0.062772
O O12 0.500000 0.068573 0.191243
O O13 0.156895 0.000000 0.500000
#
# Coordination Sequence:
#
# PCOD9536754 Si02
#       6
#    16  16   8   8   8  16
#     4  10  19  36  59  79 109 152 191 226 277 348
#     4  10  20  34  56  87 114 141 185 244 291 327
#     4  10  19  37  61  80 110 152 194 233 280 350
#     4  12  23  37  57  85 121 152 186 238 285 330
#     4  10  20  36  57  83 110 144 192 227 276 340
#     4  10  21  38  60  82 111 155 196 227 280 352
#
# _framework density 21.071759
#
# number of rings (size 3 to 8) (size 9 to 14) (size 15 to 20)
#    0.000    1.778    2.222    4.667    0.000    0.444 
#    0.000    6.667    0.000    0.000    0.000    0.000 
#    0.000    0.000    0.000    0.000    0.000    0.000 
#
# Total GULP energy -200561.992879 kJ/mol
# GULP energy per Si atom -5571.166469 kJ/mol
# Density = 2.102380 g / cm^3
# Si number density = 21.071759 Si / 1000 Ang^3
#
#
#
# Elastic Constant Matrix: (Units=GPa)
#
#
# Indices 1 2 3 4 5 6 
#
# 1 172.6075 13.8410 32.4345 0.0000 0.0000 0.0000
# 2 13.8410 49.2899 0.6782 0.0000 0.0000 0.0000
# 3 32.4345 0.6782 54.9325 0.0000 0.0000 0.0000
# 4 0.0000 0.0000 0.0000 -17.5290 0.0000 0.0000
# 5 0.0000 0.0000 0.0000 0.0000 34.8627 0.0000
# 6 0.0000 0.0000 0.0000 0.0000 0.0000 -15.1339
#
#
#
# Elastic Compliance Matrix: (Units=1/GPa)
#
#
# Indices 1 2 3 4 5 6 
#
# 1 0.006676 -0.001821 -0.003919 0.000000 0.000000 0.000000
# 2 -0.001821 0.020788 0.000818 0.000000 0.000000 0.000000
# 3 -0.003919 0.000818 0.020508 0.000000 0.000000 0.000000
# 4 0.000000 0.000000 0.000000 -0.057048 0.000000 0.000000
# 5 0.000000 0.000000 0.000000 0.000000 0.028684 0.000000
# 6 0.000000 0.000000 0.000000 0.000000 0.000000 -0.066077
#
#
# Mechanical properties :
#
#
# Convention : Reuss Voigt Hill
#
# Bulk Modulus (GPa) = 26.22674 41.19301 33.70988
# Shear Modulus (GPa) = -209.06545 15.76503 -96.65021
#
# Velocity S-wave (km/s) = -9.97153 2.73822 -6.77988
# Velocity P-wave (km/s) = 10.95909 5.43953 6.72730
#
# Compressibility (1/GPa) = 0.03812902
#
# Stress axis : x y z
#
# Youngs Moduli (GPa) = 149.79117 48.10429 48.76106
#
# Poissons Ratio (x) = 0.08759 0.19111
# Poissons Ratio (y) = 0.27273 -0.03991
# Poissons Ratio (z) = 0.58707 -0.03937
#
# Static dielectric constant tensor:
#      x y z
#    x 1.768360 0.000000 0.000000 
#    y 0.000000 1.430230 0.000000 
#    z 0.000000 0.000000 1.738860 
# 
# From -- ./inp_files/42546.got.cif
#   From: 2010.05.17/outbox.cif.g08.bks.cpg/sg74_22_cif.got.tgz:42546.got - 2010.06.03 17:57:02.
