data_PCOD9536252
_publ_section_title
;
Structure prediction by ZEFSAII (Michael W. Deem and Ramdas Pophale) SiO2 
 PCOD9536252
Probable space group: I M M A
;
_chemical_formula_sum "Si O2"
_cell_formula_units_Z 72
_cell_length_a 16.596075
_cell_length_b 21.977325
_cell_length_c 8.639037
_cell_angle_alpha 90.000000
_cell_angle_beta 90.000000
_cell_angle_gamma 90.000000
_cell_volume 3150.979324
_symmetry_space_group_name_H-M "I M M A"
_symmetry_group_IT_number 74
_symmetry_cell_setting 'orthorhombic'
loop_
_space_group_symop_operation_xyz
x,y,z
-x,1/2-y,z
x,-y,-z
-x,1/2+y,-z
-x,-y,-z
x,1/2+y,-z
-x,y,z
x,1/2-y,z
1/2+x,1/2+y,1/2+z
1/2-x,-y,1/2+z
1/2+x,1/2-y,1/2-z
1/2-x,y,1/2-z
1/2-x,1/2-y,1/2-z
1/2+x,y,1/2-z
1/2-x,1/2+y,1/2+z
1/2+x,-y,1/2+z
loop_
_atom_site_type_symbol
_atom_site_label
_atom_site_fract_x
_atom_site_fract_y
_atom_site_fract_z
Si Si1 0.000000 0.177602 0.344796
Si Si2 0.000000 0.999296 0.187364
Si Si3 0.169699 0.999439 0.815081
Si Si4 0.000000 0.639220 0.311619
Si Si5 0.166308 0.322008 0.159568
Si Si6 0.666724 0.359028 0.687514
O O1 0.916993 0.166577 0.251259
O O2 0.000000 0.250000 0.383651
O O3 0.000000 0.140831 0.504201
O O4 0.084445 0.027750 0.237400
O O5 0.000000 0.929242 0.241856
O O6 0.000000 0.000000 0.000000
O O7 0.250000 0.970235 0.750000
O O8 0.167674 0.069974 0.761617
O O9 0.173921 0.000000 0.000000
O O10 0.916570 0.668204 0.251200
O O11 0.166460 0.250000 0.122050
O O12 0.250000 0.333554 0.250000
O O13 0.165556 0.356967 0.997427
O O14 0.750000 0.331160 0.750000
#
# Coordination Sequence:
#
# PCOD9536252 Si02
#       6
#     8   8  16   8  16  16
#     4  10  21  36  53  78 113 146 179 225 278 331
#     4   8  16  33  53  72 102 136 167 211 266 317
#     4   9  18  33  52  74 101 132 167 212 265 314
#     4  10  19  33  55  80 104 138 180 224 272 320
#     4  10  21  36  52  74 108 145 178 220 276 328
#     4  10  20  34  55  80 104 138 184 227 267 323
#
# _framework density 22.850038999999999
#
# number of rings (size 3 to 8) (size 9 to 14) (size 15 to 20)
#    0.000    2.444    0.000    2.000    0.000    2.222 
#    0.000    0.556    0.000    0.000    0.000    0.000 
#    0.000    0.000    0.000    0.000    0.000    0.000 
#
# Total GULP energy -201021.316499 kJ/mol
# GULP energy per Si atom -5583.925458 kJ/mol
# Density = 2.279803 g / cm^3
# Si number density = 22.850039 Si / 1000 Ang^3
#
#
#
# Elastic Constant Matrix: (Units=GPa)
#
#
# Indices 1 2 3 4 5 6 
#
# 1 279.3406 3.7506 57.2828 0.0000 0.0000 0.0000
# 2 3.7506 89.1869 0.7646 0.0000 0.0000 0.0000
# 3 57.2828 0.7646 85.5637 0.0000 0.0000 0.0000
# 4 0.0000 0.0000 0.0000 81.6610 0.0000 0.0000
# 5 0.0000 0.0000 0.0000 0.0000 43.0753 0.0000
# 6 0.0000 0.0000 0.0000 0.0000 0.0000 -18.3585
#
#
#
# Elastic Compliance Matrix: (Units=1/GPa)
#
#
# Indices 1 2 3 4 5 6 
#
# 1 0.004152 -0.000151 -0.002778 0.000000 0.000000 0.000000
# 2 -0.000151 0.011219 0.000001 0.000000 0.000000 0.000000
# 3 -0.002778 0.000001 0.013547 0.000000 0.000000 0.000000
# 4 0.000000 0.000000 0.000000 0.012246 0.000000 0.000000
# 5 0.000000 0.000000 0.000000 0.000000 0.023215 0.000000
# 6 0.000000 0.000000 0.000000 0.000000 0.000000 -0.054471
#
#
# Mechanical properties :
#
#
# Convention : Reuss Voigt Hill
#
# Bulk Modulus (GPa) = 43.36306 64.18747 53.77527
# Shear Modulus (GPa) = 213.21256 47.42844 130.32050
#
# Velocity S-wave (km/s) = 9.67016 4.56086 7.56021
# Velocity P-wave (km/s) = 11.98754 7.47576 9.98970
#
# Compressibility (1/GPa) = 0.02306110
#
# Stress axis : x y z
#
# Youngs Moduli (GPa) = 240.87349 89.13651 73.81706
#
# Poissons Ratio (x) = 0.01344 0.20507
# Poissons Ratio (y) = 0.03632 -0.00005
# Poissons Ratio (z) = 0.66915 -0.00006
#
# Static dielectric constant tensor:
#      x y z
#    x 1.906020 0.000000 0.000000 
#    y 0.000000 1.876030 0.000000 
#    z 0.000000 0.000000 1.785360 
# 
# From -- ./inp_files/9365.got.cif
#   From: 2010.05.17/outbox.cif.g08.bks.cpg/sg74_5_cif.got.tgz:9365.got - 2010.06.03 17:57:02.
