data_PCOD9536762
_publ_section_title
;
Structure prediction by ZEFSAII (Michael W. Deem and Ramdas Pophale) SiO2 
 PCOD9536762
Probable space group: I M M A
;
_chemical_formula_sum "Si O2"
_cell_formula_units_Z 96
_cell_length_a 8.819325
_cell_length_b 24.795986
_cell_length_c 22.568656
_cell_angle_alpha 90.000000
_cell_angle_beta 90.000000
_cell_angle_gamma 90.000000
_cell_volume 4935.400792
_symmetry_space_group_name_H-M "I M M A"
_symmetry_group_IT_number 74
_symmetry_cell_setting 'orthorhombic'
loop_
_space_group_symop_operation_xyz
x,y,z
-x,1/2-y,z
x,-y,-z
-x,1/2+y,-z
-x,-y,-z
x,1/2+y,-z
-x,y,z
x,1/2-y,z
1/2+x,1/2+y,1/2+z
1/2-x,-y,1/2+z
1/2+x,1/2-y,1/2-z
1/2-x,y,1/2-z
1/2-x,1/2-y,1/2-z
1/2+x,y,1/2-z
1/2-x,1/2+y,1/2+z
1/2+x,-y,1/2+z
loop_
_atom_site_type_symbol
_atom_site_label
_atom_site_fract_x
_atom_site_fract_y
_atom_site_fract_z
Si Si1 0.323522 0.560894 0.484183
Si Si2 0.181314 0.435456 0.186513
Si Si3 0.821213 0.331805 0.688212
Si Si4 0.676682 0.559197 0.343086
Si Si5 0.179945 0.133932 0.419498
Si Si6 0.816635 0.750000 0.535562
Si Si7 0.181419 0.250000 0.903538
O O1 0.277773 0.500000 0.500000
O O2 0.500000 0.567447 0.502778
O O3 0.315946 0.566190 0.413899
O O4 0.224292 0.602750 0.520384
O O5 0.250000 0.420696 0.250000
O O6 0.221178 0.498107 0.172774
O O7 0.241491 0.397191 0.134481
O O8 0.000000 0.432560 0.188162
O O9 0.750000 0.312419 0.750000
O O10 0.782759 0.395092 0.683614
O O11 0.742876 0.301168 0.633493
O O12 0.000000 0.322172 0.687092
O O13 0.500000 0.567681 0.325022
O O14 0.226364 0.195930 0.429168
O O15 0.000000 0.131910 0.410603
O O16 0.743770 0.750000 0.470298
O O17 0.000000 0.750000 0.528342
O O18 0.000000 0.250000 0.904129
#
# Coordination Sequence:
#
# PCOD9536762 Si02
#       7
#    16  16  16  16  16   8   8
#     4  10  19  36  59  88 124 161 198 247 304 358
#     4  11  23  41  63  90 124 161 203 252 307 367
#     4  12  25  41  61  87 123 164 210 258 303 357
#     4  10  21  38  61  90 125 163 204 250 304 365
#     4  11  23  40  63  92 125 161 204 251 304 364
#     4  10  24  45  66  93 126 160 201 256 309 360
#     4  12  25  43  66  91 120 160 207 252 308 366
#
# _framework density 19.451308999999998
#
# number of rings (size 3 to 8) (size 9 to 14) (size 15 to 20)
#    0.000    1.167    1.667    5.000    0.000    7.667 
#    0.000    0.417    0.000    0.000    0.000    0.000 
#    0.000    0.000    0.000    0.000    0.000    0.000 
#
# Total GULP energy -268517.920520 kJ/mol
# GULP energy per Si atom -5594.123344 kJ/mol
# Density = 1.940704 g / cm^3
# Si number density = 19.451309 Si / 1000 Ang^3
#
#
#
# Elastic Constant Matrix: (Units=GPa)
#
#
# Indices 1 2 3 4 5 6 
#
# 1 75.4851 50.9663 36.5243 0.0000 0.0000 0.0000
# 2 50.9663 131.5120 47.2463 0.0000 0.0000 0.0000
# 3 36.5243 47.2463 92.4120 0.0000 0.0000 0.0000
# 4 0.0000 0.0000 0.0000 -0.5680 0.0000 0.0000
# 5 0.0000 0.0000 0.0000 0.0000 34.9752 0.0000
# 6 0.0000 0.0000 0.0000 0.0000 0.0000 30.5773
#
#
#
# Elastic Compliance Matrix: (Units=1/GPa)
#
#
# Indices 1 2 3 4 5 6 
#
# 1 0.019480 -0.005859 -0.004703 0.000000 0.000000 0.000000
# 2 -0.005859 0.011077 -0.003347 0.000000 0.000000 0.000000
# 3 -0.004703 -0.003347 0.014391 0.000000 0.000000 0.000000
# 4 0.000000 0.000000 0.000000 -1.760701 0.000000 -0.000001
# 5 0.000000 0.000000 0.000000 0.000000 0.028592 0.000000
# 6 0.000000 0.000000 0.000000 -0.000001 0.000000 0.032704
#
#
# Mechanical properties :
#
#
# Convention : Reuss Voigt Hill
#
# Bulk Modulus (GPa) = 58.38456 63.20922 60.79689
# Shear Modulus (GPa) = -3.08465 23.97505 10.44520
#
# Velocity S-wave (km/s) = -1.26066 3.51460 2.31982
# Velocity P-wave (km/s) = 5.28790 7.00261 6.20477
#
# Compressibility (1/GPa) = 0.01712782
#
# Stress axis : x y z
#
# Youngs Moduli (GPa) = 51.33579 90.27512 69.48590
#
# Poissons Ratio (x) = 0.52896 0.32681
# Poissons Ratio (y) = 0.30080 0.23260
# Poissons Ratio (z) = 0.24145 0.30219
#
# Static dielectric constant tensor:
#      x y z
#    x 1.658610 0.000000 0.000000 
#    y 0.000000 1.689060 0.000000 
#    z 0.000000 0.000000 1.663810 
# 
# From -- ./inp_files/57315.got.cif
#   From: 2010.05.17/outbox.cif.g08.bks.cpg/sg74_29_cif.got.tgz:57315.got - 2010.06.03 17:57:02.
