data_PCOD9536674
_publ_section_title
;
Structure prediction by ZEFSAII (Michael W. Deem and Ramdas Pophale) SiO2 
 PCOD9536674
Probable space group: I M M A
;
_chemical_formula_sum "Si O2"
_cell_formula_units_Z 72
_cell_length_a 16.952340
_cell_length_b 23.775568
_cell_length_c 9.688147
_cell_angle_alpha 90.000000
_cell_angle_beta 90.000000
_cell_angle_gamma 90.000000
_cell_volume 3904.822301
_symmetry_space_group_name_H-M "I M M A"
_symmetry_group_IT_number 74
_symmetry_cell_setting 'orthorhombic'
loop_
_space_group_symop_operation_xyz
x,y,z
-x,1/2-y,z
x,-y,-z
-x,1/2+y,-z
-x,-y,-z
x,1/2+y,-z
-x,y,z
x,1/2-y,z
1/2+x,1/2+y,1/2+z
1/2-x,-y,1/2+z
1/2+x,1/2-y,1/2-z
1/2-x,y,1/2-z
1/2-x,1/2-y,1/2-z
1/2+x,y,1/2-z
1/2-x,1/2+y,1/2+z
1/2+x,-y,1/2+z
loop_
_atom_site_type_symbol
_atom_site_label
_atom_site_fract_x
_atom_site_fract_y
_atom_site_fract_z
Si Si1 0.371659 0.869838 0.722640
Si Si2 0.585933 0.008581 0.336604
Si Si3 0.241873 0.750000 0.086908
Si Si4 0.587708 0.250000 0.399638
Si Si5 0.750000 0.549579 0.250000
Si Si6 0.277146 0.370935 0.015625
O O1 0.402357 0.807019 0.690409
O O2 0.350197 0.878986 0.882592
O O3 0.296522 0.874940 0.620131
O O4 0.419344 0.924875 0.685017
O O5 0.500000 0.983456 0.291848
O O6 0.668199 0.985357 0.271339
O O7 0.593392 0.000000 0.500000
O O8 0.250000 0.750000 0.250000
O O9 0.154198 0.750000 0.019036
O O10 0.280832 0.692927 0.035221
O O11 0.500000 0.250000 0.459782
O O12 0.764250 0.587865 0.386443
#
# Coordination Sequence:
#
# PCOD9536674 Si02
#       6
#    16  16   8   8   8  16
#     4  10  20  38  60  89 119 155 198 254 299 367
#     4  11  24  40  62  90 122 163 208 252 304 371
#     4  10  19  35  59  91 120 153 206 255 297 363
#     4  10  21  37  61  88 118 159 202 246 308 372
#     4  12  22  39  62  91 120 166 204 254 304 370
#     4  10  20  35  62  89 119 156 202 248 308 361
#
# _framework density 18.438739000000002
#
# number of rings (size 3 to 8) (size 9 to 14) (size 15 to 20)
#    0.000    1.556    3.333    2.667    0.000    2.667 
#    0.000    3.333    0.000    4.000    0.000    0.000 
#    0.000    0.000    0.000    0.000    0.000    0.000 
#
# Total GULP energy -200438.802431 kJ/mol
# GULP energy per Si atom -5567.744512 kJ/mol
# Density = 1.839677 g / cm^3
# Si number density = 18.438739 Si / 1000 Ang^3
#
#
#
# Elastic Constant Matrix: (Units=GPa)
#
#
# Indices 1 2 3 4 5 6 
#
# 1 104.5842 58.5932 38.3412 0.0000 0.0000 0.0000
# 2 58.5932 137.0770 57.9662 0.0000 0.0000 0.0000
# 3 38.3412 57.9662 116.7011 0.0000 0.0000 0.0000
# 4 0.0000 0.0000 0.0000 15.5052 0.0000 0.0000
# 5 0.0000 0.0000 0.0000 0.0000 -38.3639 0.0000
# 6 0.0000 0.0000 0.0000 0.0000 0.0000 -15.8198
#
#
#
# Elastic Compliance Matrix: (Units=1/GPa)
#
#
# Indices 1 2 3 4 5 6 
#
# 1 0.012896 -0.004710 -0.001897 0.000000 0.000000 0.000000
# 2 -0.004710 0.010955 -0.003894 0.000000 0.000000 0.000000
# 3 -0.001897 -0.003894 0.011126 0.000000 0.000000 0.000000
# 4 0.000000 0.000000 0.000000 0.064494 0.000000 0.000000
# 5 0.000000 0.000000 0.000000 0.000000 -0.026066 0.000000
# 6 0.000000 0.000000 0.000000 0.000000 0.000000 -0.063212
#
#
# Mechanical properties :
#
#
# Convention : Reuss Voigt Hill
#
# Bulk Modulus (GPa) = 71.55773 74.24040 72.89907
# Shear Modulus (GPa) = 139.45032 5.82842 72.63937
#
# Velocity S-wave (km/s) = 8.70593 1.77984 6.28335
# Velocity P-wave (km/s) = 11.83005 6.67641 9.60533
#
# Compressibility (1/GPa) = 0.01397473
#
# Stress axis : x y z
#
# Youngs Moduli (GPa) = 77.54302 91.28123 89.87574
#
# Poissons Ratio (x) = 0.42994 0.17053
# Poissons Ratio (y) = 0.36523 0.34998
# Poissons Ratio (z) = 0.14713 0.35545
#
# Static dielectric constant tensor:
#      x y z
#    x 1.689790 0.000000 0.000000 
#    y 0.000000 1.404090 0.000000 
#    z 0.000000 0.000000 1.689680 
# 
# From -- ./inp_files/10717.got.cif
#   From: 2010.05.17/outbox.cif.g08.bks.cpg/sg74_6_cif.got.tgz:10717.got - 2010.06.03 17:57:02.
