data_PCOD9536952
_publ_section_title
;
Structure prediction by ZEFSAII (Michael W. Deem and Ramdas Pophale) SiO2 
 PCOD9536952
Probable space group: I M M A
;
_chemical_formula_sum "Si O2"
_cell_formula_units_Z 112
_cell_length_a 14.985912
_cell_length_b 15.221308
_cell_length_c 26.511229
_cell_angle_alpha 90.000000
_cell_angle_beta 90.000000
_cell_angle_gamma 90.000000
_cell_volume 6047.348722
_symmetry_space_group_name_H-M "I M M A"
_symmetry_group_IT_number 74
_symmetry_cell_setting 'orthorhombic'
loop_
_space_group_symop_operation_xyz
x,y,z
-x,1/2-y,z
x,-y,-z
-x,1/2+y,-z
-x,-y,-z
x,1/2+y,-z
-x,y,z
x,1/2-y,z
1/2+x,1/2+y,1/2+z
1/2-x,-y,1/2+z
1/2+x,1/2-y,1/2-z
1/2-x,y,1/2-z
1/2-x,1/2-y,1/2-z
1/2+x,y,1/2-z
1/2-x,1/2+y,1/2+z
1/2+x,-y,1/2+z
loop_
_atom_site_type_symbol
_atom_site_label
_atom_site_fract_x
_atom_site_fract_y
_atom_site_fract_z
Si Si1 0.607166 0.849543 0.872723
Si Si2 0.605451 0.475840 0.330747
Si Si3 0.894134 0.652609 0.916478
Si Si4 0.899508 0.600396 0.516236
Si Si5 0.607717 0.351495 0.617541
Si Si6 0.353171 0.649883 0.761011
Si Si7 0.789028 0.896281 0.014529
O O1 0.500000 0.846361 0.870457
O O2 0.642344 0.750000 0.877380
O O3 0.628253 0.896979 0.924838
O O4 0.636230 0.883124 0.818305
O O5 0.500000 0.476653 0.339263
O O6 0.643395 0.416801 0.376425
O O7 0.633640 0.576611 0.339745
O O8 0.616343 0.422850 0.278958
O O9 0.885527 0.750000 0.894006
O O10 0.000000 0.637301 0.925656
O O11 0.843268 0.647541 0.968980
O O12 0.908066 0.500000 0.500000
O O13 0.813926 0.636260 0.486127
O O14 0.000000 0.640309 0.511223
O O15 0.500000 0.357075 0.608613
O O16 0.627148 0.250000 0.630414
O O17 0.660136 0.377814 0.566602
O O18 0.393208 0.750000 0.757098
O O19 0.250000 0.660085 0.750000
O O20 0.788659 0.000000 0.000000
#
# Coordination Sequence:
#
# PCOD9536952 Si02
#       7
#    16  16  16  16  16  16  16
#     4   9  18  33  51  71  99 134 169 210 264 321
#     4  10  20  35  54  76 107 146 186 226 269 328
#     4  10  20  31  47  74 107 141 176 218 269 326
#     4   9  20  36  53  76 104 138 184 228 268 319
#     4  10  21  36  54  79 112 149 189 233 281 335
#     4  10  21  33  51  80 112 143 177 222 272 329
#     4  11  20  31  51  74 105 147 186 226 279 332
#
# _framework density 18.520512
#
# number of rings (size 3 to 8) (size 9 to 14) (size 15 to 20)
#    0.000    2.143    1.429    1.714    2.000    4.286 
#    0.000    0.000    0.000    0.429    0.000    1.000 
#    0.000    5.714    0.000    0.000    0.000    0.000 
#
# Total GULP energy -311993.804580 kJ/mol
# GULP energy per Si atom -5571.317939 kJ/mol
# Density = 1.847836 g / cm^3
# Si number density = 18.520512 Si / 1000 Ang^3
#
#
#
# Elastic Constant Matrix: (Units=GPa)
#
#
# Indices 1 2 3 4 5 6 
#
# 1 55.5689 23.4374 8.1676 0.0000 0.0000 0.0000
# 2 23.4374 112.0314 53.8199 0.0000 0.0000 0.0000
# 3 8.1676 53.8199 100.5544 0.0000 0.0000 0.0000
# 4 0.0000 0.0000 0.0000 41.6969 0.0000 0.0000
# 5 0.0000 0.0000 0.0000 0.0000 9.2192 0.0000
# 6 0.0000 0.0000 0.0000 0.0000 0.0000 12.5284
#
#
#
# Elastic Compliance Matrix: (Units=1/GPa)
#
#
# Indices 1 2 3 4 5 6 
#
# 1 0.019787 -0.004533 0.000819 0.000000 0.000000 0.000000
# 2 -0.004533 0.013054 -0.006619 0.000000 0.000000 0.000000
# 3 0.000819 -0.006619 0.013421 0.000000 0.000000 0.000000
# 4 0.000000 0.000000 0.000000 0.023983 0.000000 0.000000
# 5 0.000000 0.000000 0.000000 0.000000 0.108469 0.000000
# 6 0.000000 0.000000 0.000000 0.000000 0.000000 0.079819
#
#
# Mechanical properties :
#
#
# Convention : Reuss Voigt Hill
#
# Bulk Modulus (GPa) = 39.06765 48.77828 43.92296
# Shear Modulus (GPa) = 17.37738 24.87088 21.12413
#
# Velocity S-wave (km/s) = 3.06645 3.66851 3.38091
# Velocity P-wave (km/s) = 5.80324 6.65872 6.24565
#
# Compressibility (1/GPa) = 0.02559663
#
# Stress axis : x y z
#
# Youngs Moduli (GPa) = 50.53772 76.60469 74.51058
#
# Poissons Ratio (x) = 0.34725 -0.06102
# Poissons Ratio (y) = 0.22909 0.49317
# Poissons Ratio (z) = -0.04139 0.50703
#
# Static dielectric constant tensor:
#      x y z
#    x 1.706050 0.000000 0.000000 
#    y 0.000000 1.696840 0.000000 
#    z 0.000000 0.000000 1.633770 
# 
# From -- ./inp_files/67251.got.cif
#   From: 2010.05.17/outbox.cif.g08.bks.cpg/sg74_34_cif.got.tgz:67251.got - 2010.06.03 17:57:02.
