data_PCOD9536048
_publ_section_title
;
Structure prediction by ZEFSAII (Michael W. Deem and Ramdas Pophale) SiO2 
 PCOD9536048
Probable space group: I M M A
;
_chemical_formula_sum "Si O2"
_cell_formula_units_Z 104
_cell_length_a 8.497075
_cell_length_b 21.455597
_cell_length_c 28.771748
_cell_angle_alpha 90.000000
_cell_angle_beta 90.000000
_cell_angle_gamma 90.000000
_cell_volume 5245.372109
_symmetry_space_group_name_H-M "I M M A"
_symmetry_group_IT_number 74
_symmetry_cell_setting 'orthorhombic'
loop_
_space_group_symop_operation_xyz
x,y,z
-x,1/2-y,z
x,-y,-z
-x,1/2+y,-z
-x,-y,-z
x,1/2+y,-z
-x,y,z
x,1/2-y,z
1/2+x,1/2+y,1/2+z
1/2-x,-y,1/2+z
1/2+x,1/2-y,1/2-z
1/2-x,y,1/2-z
1/2-x,1/2-y,1/2-z
1/2+x,y,1/2-z
1/2-x,1/2+y,1/2+z
1/2+x,-y,1/2+z
loop_
_atom_site_type_symbol
_atom_site_label
_atom_site_fract_x
_atom_site_fract_y
_atom_site_fract_z
Si Si1 0.328004 0.250000 0.510861
Si Si2 0.691431 0.885132 0.344460
Si Si3 0.309337 0.483034 0.301489
Si Si4 0.813918 0.883931 0.878663
Si Si5 0.808942 0.750000 0.196829
Si Si6 0.684518 0.250000 0.090136
Si Si7 0.181125 0.443858 0.469728
Si Si8 0.818427 0.120106 0.949214
O O1 0.500000 0.250000 0.486905
O O2 0.218029 0.250000 0.465594
O O3 0.324553 0.306561 0.546144
O O4 0.500000 0.883543 0.343623
O O5 0.742579 0.946664 0.316087
O O6 0.742783 0.816320 0.326624
O O7 0.735157 0.898292 0.398111
O O8 0.500000 0.483419 0.302852
O O9 0.250000 0.470080 0.250000
O O10 0.255285 0.428024 0.336559
O O11 0.748169 0.814302 0.887133
O O12 0.774972 0.922990 0.925115
O O13 0.000000 0.877589 0.873558
O O14 0.750000 0.750000 0.250000
O O15 0.000000 0.750000 0.196073
O O16 0.500000 0.250000 0.096975
O O17 0.250589 0.500000 0.500000
O O18 0.197556 0.392940 0.509446
O O19 0.000000 0.456720 0.457422
O O20 0.000000 0.097456 0.957493
#
# Coordination Sequence:
#
# PCOD9536048 Si02
#       8
#     8  16  16  16   8   8  16  16
#     4  10  19  32  54  85 116 155 199 238 281 344
#     4   9  18  34  56  86 119 158 204 249 297 351
#     4  10  22  40  63  88 117 153 200 255 310 367
#     4  11  23  41  64  89 117 156 207 254 302 372
#     4  10  19  33  55  81 115 154 199 250 297 350
#     4  12  24  39  62  90 123 157 191 246 311 372
#     4  11  23  36  52  81 120 157 193 239 296 352
#     4  10  19  33  55  80 112 152 197 239 281 341
#
# _framework density 19.827000999999999
#
# number of rings (size 3 to 8) (size 9 to 14) (size 15 to 20)
#    0.000    1.692    1.538    3.462    0.000    5.538 
#    0.000    1.923    0.000    0.923    0.000    0.000 
#    0.000    0.000    0.000    0.000    0.000    0.000 
#
# Total GULP energy -289682.374224 kJ/mol
# GULP energy per Si atom -5570.814889 kJ/mol
# Density = 1.978187 g / cm^3
# Si number density = 19.827001 Si / 1000 Ang^3
#
#
#
# Elastic Constant Matrix: (Units=GPa)
#
#
# Indices 1 2 3 4 5 6 
#
# 1 26.6336 17.1012 11.7161 0.0000 0.0000 0.0000
# 2 17.1012 81.2189 36.3208 0.0000 0.0000 0.0000
# 3 11.7161 36.3208 129.9023 0.0000 0.0000 0.0000
# 4 0.0000 0.0000 0.0000 42.3333 0.0000 0.0000
# 5 0.0000 0.0000 0.0000 0.0000 24.3473 0.0000
# 6 0.0000 0.0000 0.0000 0.0000 0.0000 13.4650
#
#
#
# Elastic Compliance Matrix: (Units=1/GPa)
#
#
# Indices 1 2 3 4 5 6 
#
# 1 0.043693 -0.008500 -0.001564 0.000000 0.000000 0.000000
# 2 -0.008500 0.015726 -0.003630 0.000000 0.000000 0.000000
# 3 -0.001564 -0.003630 0.008854 0.000000 0.000000 0.000000
# 4 0.000000 0.000000 0.000000 0.023622 0.000000 0.000000
# 5 0.000000 0.000000 0.000000 0.000000 0.041072 0.000000
# 6 0.000000 0.000000 0.000000 0.000000 0.000000 0.074266
#
#
# Mechanical properties :
#
#
# Convention : Reuss Voigt Hill
#
# Bulk Modulus (GPa) = 24.45991 40.89233 32.67612
# Shear Modulus (GPa) = 20.14098 27.53690 23.83894
#
# Velocity S-wave (km/s) = 3.19068 3.73078 3.47125
# Velocity P-wave (km/s) = 5.09287 6.26320 5.70811
#
# Compressibility (1/GPa) = 0.04088322
#
# Stress axis : x y z
#
# Youngs Moduli (GPa) = 22.88718 63.59038 112.94109
#
# Poissons Ratio (x) = 0.54054 0.17664
# Poissons Ratio (y) = 0.19455 0.41000
# Poissons Ratio (z) = 0.03580 0.23085
#
# Static dielectric constant tensor:
#      x y z
#    x 1.525190 0.000000 0.000000 
#    y 0.000000 1.680500 0.000000 
#    z 0.000000 0.000000 1.630500 
# 
# From -- ./inp_files/64835.got.cif
#   From: 2010.05.17/outbox.cif.g08.bks.cpg/sg74_33_cif.got.tgz:64835.got - 2010.06.03 17:57:02.
