data_PCOD9536123
_publ_section_title
;
Structure prediction by ZEFSAII (Michael W. Deem and Ramdas Pophale) SiO2 
 PCOD9536123
Probable space group: I M M A
;
_chemical_formula_sum "Si O2"
_cell_formula_units_Z 100
_cell_length_a 7.483315
_cell_length_b 20.932800
_cell_length_c 29.766489
_cell_angle_alpha 90.000000
_cell_angle_beta 90.000000
_cell_angle_gamma 90.000000
_cell_volume 4662.823351
_symmetry_space_group_name_H-M "I M M A"
_symmetry_group_IT_number 74
_symmetry_cell_setting 'orthorhombic'
loop_
_space_group_symop_operation_xyz
x,y,z
-x,1/2-y,z
x,-y,-z
-x,1/2+y,-z
-x,-y,-z
x,1/2+y,-z
-x,y,z
x,1/2-y,z
1/2+x,1/2+y,1/2+z
1/2-x,-y,1/2+z
1/2+x,1/2-y,1/2-z
1/2-x,y,1/2-z
1/2-x,1/2-y,1/2-z
1/2+x,y,1/2-z
1/2-x,1/2+y,1/2+z
1/2+x,-y,1/2+z
loop_
_atom_site_type_symbol
_atom_site_label
_atom_site_fract_x
_atom_site_fract_y
_atom_site_fract_z
Si Si1 0.215401 0.943803 0.057464
Si Si2 0.785767 0.018327 0.300723
Si Si3 0.712088 0.128472 0.800345
Si Si4 0.206099 0.073634 0.391759
Si Si5 0.788402 0.358557 0.478030
Si Si6 0.000000 0.750000 0.002539
Si Si7 0.793401 0.681696 0.107262
O O1 0.281621 0.882128 0.085675
O O2 0.000000 0.948623 0.059493
O O3 0.287323 0.006295 0.081784
O O4 0.268227 0.923703 0.007273
O O5 0.750000 0.041099 0.250000
O O6 0.715273 0.059933 0.342402
O O7 0.000000 0.014957 0.305653
O O8 0.719379 0.944870 0.304097
O O9 0.500000 0.127795 0.807033
O O10 0.750000 0.150753 0.750000
O O11 0.791144 0.171042 0.839514
O O12 0.275956 0.125231 0.427326
O O13 0.000000 0.091710 0.384884
O O14 0.658287 0.305943 0.498806
O O15 0.000000 0.341672 0.478072
O O16 0.709985 0.750000 0.096154
O O17 0.000000 0.685375 0.092287
#
# Coordination Sequence:
#
# PCOD9536123 Si02
#       7
#    16  16  16  16  16   4  16
#     4  11  22  36  61  89 124 165 211 264 308 367
#     4   9  18  33  54  84 122 154 194 252 309 373
#     4  10  19  33  52  72 101 143 194 246 304 357
#     4  10  21  39  61  92 129 162 207 257 318 379
#     4  11  25  43  67  93 128 170 208 257 319 375
#     4  12  26  48  66  94 130 160 220 264 302 392
#     4  10  22  36  51  74 108 152 202 254 302 352
#
# _framework density 21.446235000000001
#
# number of rings (size 3 to 8) (size 9 to 14) (size 15 to 20)
#    0.000    1.760    2.400    1.680    2.240    4.480 
#    0.000    0.000    0.000    0.000    0.000    0.560 
#    0.000    0.000    0.000    0.000    0.000    0.000 
#
# Total GULP energy -278794.560891 kJ/mol
# GULP energy per Si atom -5575.891218 kJ/mol
# Density = 2.139742 g / cm^3
# Si number density = 21.446235 Si / 1000 Ang^3
#
#
#
# Elastic Constant Matrix: (Units=GPa)
#
#
# Indices 1 2 3 4 5 6 
#
# 1 96.3916 6.7935 1.1524 0.0000 0.0000 0.0000
# 2 6.7935 32.6695 21.9058 0.0000 0.0000 0.0000
# 3 1.1524 21.9058 141.9081 0.0000 0.0000 0.0000
# 4 0.0000 0.0000 0.0000 -465.3070 0.0000 0.0000
# 5 0.0000 0.0000 0.0000 0.0000 19.0323 0.0000
# 6 0.0000 0.0000 0.0000 0.0000 0.0000 29.4133
#
#
#
# Elastic Compliance Matrix: (Units=1/GPa)
#
#
# Indices 1 2 3 4 5 6 
#
# 1 0.010539 -0.002381 0.000282 0.000000 0.000000 0.000000
# 2 -0.002381 0.034681 -0.005334 0.000000 0.000000 0.000000
# 3 0.000282 -0.005334 0.007868 0.000000 0.000000 0.000000
# 4 0.000000 0.000000 0.000000 -0.002149 0.000000 0.000000
# 5 0.000000 0.000000 0.000000 0.000000 0.052542 0.000000
# 6 0.000000 0.000000 0.000000 0.000000 0.000000 0.033998
#
#
# Mechanical properties :
#
#
# Convention : Reuss Voigt Hill
#
# Bulk Modulus (GPa) = 26.16274 36.74140 31.45207
# Shear Modulus (GPa) = 30.28722 -67.29778 -18.50528
#
# Velocity S-wave (km/s) = 3.76205 -5.60784 -2.94065
# Velocity P-wave (km/s) = 5.57642 4.97609 1.77975
#
# Compressibility (1/GPa) = 0.03822230
#
# Stress axis : x y z
#
# Youngs Moduli (GPa) = 94.88791 28.83386 127.09774
#
# Poissons Ratio (x) = 0.06864 -0.03583
# Poissons Ratio (y) = 0.22588 0.67798
# Poissons Ratio (z) = -0.02675 0.15381
#
# Static dielectric constant tensor:
#      x y z
#    x 1.804500 0.000000 0.000000 
#    y 0.000000 1.769730 0.000000 
#    z 0.000000 0.000000 1.849510 
# 
# From -- ./inp_files/64491.got.cif
#   From: 2010.05.17/outbox.cif.g08.bks.cpg/sg74_33_cif.got.tgz:64491.got - 2010.06.03 17:57:02.
