data_PCOD9536537
_publ_section_title
;
Structure prediction by ZEFSAII (Michael W. Deem and Ramdas Pophale) SiO2 
 PCOD9536537
Probable space group: I M M A
;
_chemical_formula_sum "Si O2"
_cell_formula_units_Z 88
_cell_length_a 9.531073
_cell_length_b 23.869397
_cell_length_c 20.374810
_cell_angle_alpha 90.000000
_cell_angle_beta 90.000000
_cell_angle_gamma 90.000000
_cell_volume 4635.288942
_symmetry_space_group_name_H-M "I M M A"
_symmetry_group_IT_number 74
_symmetry_cell_setting 'orthorhombic'
loop_
_space_group_symop_operation_xyz
x,y,z
-x,1/2-y,z
x,-y,-z
-x,1/2+y,-z
-x,-y,-z
x,1/2+y,-z
-x,y,z
x,1/2-y,z
1/2+x,1/2+y,1/2+z
1/2-x,-y,1/2+z
1/2+x,1/2-y,1/2-z
1/2-x,y,1/2-z
1/2-x,1/2-y,1/2-z
1/2+x,y,1/2-z
1/2-x,1/2+y,1/2+z
1/2+x,-y,1/2+z
loop_
_atom_site_type_symbol
_atom_site_label
_atom_site_fract_x
_atom_site_fract_y
_atom_site_fract_z
Si Si1 0.669363 0.851038 0.418137
Si Si2 0.833732 0.018608 0.924717
Si Si3 0.841755 0.339275 0.310163
Si Si4 0.657524 0.527427 0.809544
Si Si5 0.171558 0.750000 0.179837
Si Si6 0.340608 0.816683 0.562284
O O1 0.500000 0.846691 0.420243
O O2 0.702470 0.916470 0.409328
O O3 0.711716 0.805236 0.363545
O O4 0.716470 0.836021 0.491845
O O5 0.000000 0.010855 0.911649
O O6 0.739400 0.982459 0.876644
O O7 0.810517 0.000000 0.000000
O O8 0.750000 0.316303 0.250000
O O9 0.853230 0.406011 0.299729
O O10 0.759015 0.330885 0.377568
O O11 0.000000 0.316761 0.311953
O O12 0.500000 0.504080 0.810510
O O13 0.750000 0.503543 0.750000
O O14 0.250000 0.750000 0.250000
O O15 0.000000 0.750000 0.187971
O O16 0.500000 0.839796 0.572076
O O17 0.351953 0.750000 0.558917
#
# Coordination Sequence:
#
# PCOD9536537 Si02
#       6
#    16  16  16  16   8  16
#     4   9  18  35  58  82 111 147 185 228 281 340
#     4  10  20  34  56  86 116 147 186 231 281 342
#     4  10  21  36  54  78 109 146 184 226 272 322
#     4  10  21  37  56  78 108 145 185 227 277 332
#     4  10  20  38  60  82 111 148 191 236 285 338
#     4  10  19  34  58  82 105 141 185 227 274 326
#
# _framework density 18.984791999999999
#
# number of rings (size 3 to 8) (size 9 to 14) (size 15 to 20)
#    0.000    2.182    0.909    2.182    0.000    5.455 
#    0.000    4.545    0.000    0.000    0.000    0.000 
#    0.000    0.000    0.000    0.000    0.000    0.000 
#
# Total GULP energy -245385.722258 kJ/mol
# GULP energy per Si atom -5576.948233 kJ/mol
# Density = 1.894158 g / cm^3
# Si number density = 18.984792 Si / 1000 Ang^3
#
#
#
# Elastic Constant Matrix: (Units=GPa)
#
#
# Indices 1 2 3 4 5 6 
#
# 1 95.7786 23.1587 59.6628 0.0000 0.0000 0.0000
# 2 23.1587 60.5662 16.7618 0.0000 0.0000 0.0000
# 3 59.6628 16.7618 106.4633 0.0000 0.0000 0.0000
# 4 0.0000 0.0000 0.0000 31.0028 0.0000 0.0000
# 5 0.0000 0.0000 0.0000 0.0000 40.0658 0.0000
# 6 0.0000 0.0000 0.0000 0.0000 0.0000 39.7958
#
#
#
# Elastic Compliance Matrix: (Units=1/GPa)
#
#
# Indices 1 2 3 4 5 6 
#
# 1 0.016928 -0.004023 -0.008853 0.000000 0.000000 0.000000
# 2 -0.004023 0.018219 -0.000614 0.000000 0.000000 0.000000
# 3 -0.008853 -0.000614 0.014451 0.000000 0.000000 0.000000
# 4 0.000000 0.000000 0.000000 0.032255 0.000000 0.000000
# 5 0.000000 0.000000 0.000000 0.000000 0.024959 0.000000
# 6 0.000000 0.000000 0.000000 0.000000 0.000000 0.025128
#
#
# Mechanical properties :
#
#
# Convention : Reuss Voigt Hill
#
# Bulk Modulus (GPa) = 44.21251 51.33050 47.77150
# Shear Modulus (GPa) = 30.03709 33.05453 31.54581
#
# Velocity S-wave (km/s) = 3.98196 4.17718 4.08074
# Velocity P-wave (km/s) = 6.66935 7.09659 6.88628
#
# Compressibility (1/GPa) = 0.02261803
#
# Stress axis : x y z
#
# Youngs Moduli (GPa) = 59.07210 54.88788 69.19866
#
# Poissons Ratio (x) = 0.22080 0.61265
# Poissons Ratio (y) = 0.23763 0.04249
# Poissons Ratio (z) = 0.52299 0.03371
#
# Static dielectric constant tensor:
#      x y z
#    x 1.652130 0.000000 0.000000 
#    y 0.000000 1.704560 0.000000 
#    z 0.000000 0.000000 1.525530 
# 
# From -- ./inp_files/48701.got.cif
#   From: 2010.05.17/outbox.cif.g08.bks.cpg/sg74_25_cif.got.tgz:48701.got - 2010.06.03 17:57:02.
