data_PCOD9536226
_publ_section_title
;
Structure prediction by ZEFSAII (Michael W. Deem and Ramdas Pophale) SiO2 
 PCOD9536226
Probable space group: I M M A
;
_chemical_formula_sum "Si O2"
_cell_formula_units_Z 128
_cell_length_a 20.156521
_cell_length_b 18.677992
_cell_length_c 20.403588
_cell_angle_alpha 90.000000
_cell_angle_beta 90.000000
_cell_angle_gamma 90.000000
_cell_volume 7681.610917
_symmetry_space_group_name_H-M "I M M A"
_symmetry_group_IT_number 74
_symmetry_cell_setting 'orthorhombic'
loop_
_space_group_symop_operation_xyz
x,y,z
-x,1/2-y,z
x,-y,-z
-x,1/2+y,-z
-x,-y,-z
x,1/2+y,-z
-x,y,z
x,1/2-y,z
1/2+x,1/2+y,1/2+z
1/2-x,-y,1/2+z
1/2+x,1/2-y,1/2-z
1/2-x,y,1/2-z
1/2-x,1/2-y,1/2-z
1/2+x,y,1/2-z
1/2-x,1/2+y,1/2+z
1/2+x,-y,1/2+z
loop_
_atom_site_type_symbol
_atom_site_label
_atom_site_fract_x
_atom_site_fract_y
_atom_site_fract_z
Si Si1 0.823156 0.571001 0.184366
Si Si2 0.825105 0.045393 0.671123
Si Si3 0.577590 0.586616 0.804894
Si Si4 0.318100 0.081651 0.975275
Si Si5 0.078129 0.057211 0.161162
Si Si6 0.078614 0.083273 0.016659
Si Si7 0.312567 0.165310 0.560850
Si Si8 0.422441 0.833751 0.936054
O O1 0.832561 0.589426 0.261025
O O2 0.753663 0.528492 0.172924
O O3 0.881329 0.516460 0.165832
O O4 0.816949 0.637527 0.135798
O O5 0.839852 0.080497 0.601206
O O6 0.872386 0.977210 0.677707
O O7 0.500000 0.563816 0.810043
O O8 0.589481 0.601634 0.727941
O O9 0.587143 0.647501 0.859130
O O10 0.249212 0.125135 0.973889
O O11 0.372853 0.119028 0.020682
O O12 0.308178 0.000000 0.000000
O O13 0.095109 0.094808 0.093140
O O14 0.000000 0.040222 0.157603
O O15 0.000000 0.092494 0.006368
O O16 0.121336 0.136220 0.973317
O O17 0.094440 0.000000 0.000000
O O18 0.305156 0.250000 0.557047
O O19 0.500000 0.849710 0.951215
O O20 0.410851 0.750000 0.947669
#
# Coordination Sequence:
#
# PCOD9536226 Si02
#       8
#    16  16  16  16  16  16  16  16
#     4   9  18  33  52  74 104 132 172 216 264 307
#     4   9  18  32  51  80  99 130 173 223 262 293
#     4   9  17  31  51  77 104 133 171 213 255 308
#     4  11  21  35  56  80 106 135 181 224 264 307
#     4   9  17  30  52  79 102 130 173 219 258 299
#     4  10  19  33  54  80 105 135 176 220 263 309
#     4  11  23  36  52  77 109 145 177 215 270 323
#     4  10  21  36  53  77 111 144 170 208 267 324
#
# _framework density 16.663171999999999
#
# number of rings (size 3 to 8) (size 9 to 14) (size 15 to 20)
#    0.000    2.250    2.500    0.750    1.750    1.000 
#    0.000    6.250    0.000    2.250    0.000    4.375 
#    0.000    0.000    0.000    0.000    0.000    0.000 
#
# Total GULP energy -356422.865163 kJ/mol
# GULP energy per Si atom -5569.107268 kJ/mol
# Density = 1.662525 g / cm^3
# Si number density = 16.663172 Si / 1000 Ang^3
#
#
#
# Elastic Constant Matrix: (Units=GPa)
#
#
# Indices 1 2 3 4 5 6 
#
# 1 42.1285 40.1567 43.9596 0.0000 0.0000 0.0000
# 2 40.1567 90.8506 44.0555 0.0000 0.0000 0.0000
# 3 43.9596 44.0555 112.9997 0.0000 0.0000 0.0000
# 4 0.0000 0.0000 0.0000 14.1495 0.0000 0.0000
# 5 0.0000 0.0000 0.0000 0.0000 23.6905 0.0000
# 6 0.0000 0.0000 0.0000 0.0000 0.0000 16.4656
#
#
#
# Elastic Compliance Matrix: (Units=1/GPa)
#
#
# Indices 1 2 3 4 5 6 
#
# 1 0.056068 -0.017517 -0.014982 0.000000 0.000000 0.000000
# 2 -0.017517 0.019046 -0.000611 0.000000 0.000000 0.000000
# 3 -0.014982 -0.000611 0.014916 0.000000 0.000000 0.000000
# 4 0.000000 0.000000 0.000000 0.070674 0.000000 0.000000
# 5 0.000000 0.000000 0.000000 0.000000 0.042211 0.000000
# 6 0.000000 0.000000 0.000000 0.000000 0.000000 0.060733
#
#
# Mechanical properties :
#
#
# Convention : Reuss Voigt Hill
#
# Bulk Modulus (GPa) = 42.00042 55.81361 48.90701
# Shear Modulus (GPa) = 14.80147 18.71493 16.75820
#
# Velocity S-wave (km/s) = 2.98363 3.35495 3.17472
# Velocity P-wave (km/s) = 6.09341 6.96961 6.54619
#
# Compressibility (1/GPa) = 0.02380929
#
# Stress axis : x y z
#
# Youngs Moduli (GPa) = 17.83563 52.50434 67.04116
#
# Poissons Ratio (x) = 0.91972 1.00442
# Poissons Ratio (y) = 0.31243 0.04096
# Poissons Ratio (z) = 0.26722 0.03208
#
# Static dielectric constant tensor:
#      x y z
#    x 1.564270 0.000000 0.000000 
#    y 0.000000 1.520670 0.000000 
#    z 0.000000 0.000000 1.608220 
# 
# From -- ./inp_files/54160.got.cif
#   From: 2010.05.17/outbox.cif.g08.bks.cpg/sg74_28_cif.got.tgz:54160.got - 2010.06.03 17:57:02.
