data_PCOD9536767
_publ_section_title
;
Structure prediction by ZEFSAII (Michael W. Deem and Ramdas Pophale) SiO2 
 PCOD9536767
Probable space group: I M M A
;
_chemical_formula_sum "Si O2"
_cell_formula_units_Z 96
_cell_length_a 15.588658
_cell_length_b 20.396447
_cell_length_c 16.008276
_cell_angle_alpha 90.000000
_cell_angle_beta 90.000000
_cell_angle_gamma 90.000000
_cell_volume 5089.883168
_symmetry_space_group_name_H-M "I M M A"
_symmetry_group_IT_number 74
_symmetry_cell_setting 'orthorhombic'
loop_
_space_group_symop_operation_xyz
x,y,z
-x,1/2-y,z
x,-y,-z
-x,1/2+y,-z
-x,-y,-z
x,1/2+y,-z
-x,y,z
x,1/2-y,z
1/2+x,1/2+y,1/2+z
1/2-x,-y,1/2+z
1/2+x,1/2-y,1/2-z
1/2-x,y,1/2-z
1/2-x,1/2-y,1/2-z
1/2+x,y,1/2-z
1/2-x,1/2+y,1/2+z
1/2+x,-y,1/2+z
loop_
_atom_site_type_symbol
_atom_site_label
_atom_site_fract_x
_atom_site_fract_y
_atom_site_fract_z
Si Si1 0.000000 0.670574 0.253573
Si Si2 0.000000 0.170930 0.942320
Si Si3 0.102835 0.320937 0.247145
Si Si4 0.208319 0.928629 0.502039
Si Si5 0.897858 0.450138 0.340313
Si Si6 0.342535 0.825767 0.555584
Si Si7 0.668565 0.407909 0.809877
O O1 0.086480 0.637777 0.290284
O O2 0.000000 0.750000 0.263972
O O3 0.000000 0.654527 0.154677
O O4 0.084603 0.149718 0.991500
O O5 0.000000 0.250000 0.948828
O O6 0.137342 0.250000 0.276724
O O7 0.134834 0.384786 0.294492
O O8 0.000000 0.319710 0.258582
O O9 0.121199 0.326561 0.149127
O O10 0.127658 0.943110 0.562446
O O11 0.263639 0.873683 0.546658
O O12 0.190257 0.904203 0.408505
O O13 0.253867 0.000000 0.500000
O O14 0.857595 0.515549 0.300769
O O15 0.000000 0.455032 0.332088
O O16 0.321147 0.750000 0.535381
O O17 0.750000 0.392860 0.750000
#
# Coordination Sequence:
#
# PCOD9536767 Si02
#       7
#     8   8  16  16  16  16  16
#     4  11  24  42  66  89 114 158 210 258 320 370
#     4   9  18  36  60  84 116 155 194 244 309 373
#     4   9  18  34  58  90 123 156 194 240 297 364
#     4  10  24  38  58  86 121 159 204 251 301 355
#     4  10  22  40  64  86 122 167 204 242 298 368
#     4  10  19  36  60  88 123 160 197 243 308 370
#     4  11  24  42  64  90 123 156 208 261 310 361
#
# _framework density 18.860942999999999
#
# number of rings (size 3 to 8) (size 9 to 14) (size 15 to 20)
#    0.000    2.000    1.667    1.000    5.833    2.667 
#    0.000    2.083    0.000    0.000    0.000    0.000 
#    0.000    0.000    0.000    0.000    0.000    0.000 
#
# Total GULP energy -267727.772801 kJ/mol
# GULP energy per Si atom -5577.661933 kJ/mol
# Density = 1.881801 g / cm^3
# Si number density = 18.860943 Si / 1000 Ang^3
#
#
#
# Elastic Constant Matrix: (Units=GPa)
#
#
# Indices 1 2 3 4 5 6 
#
# 1 73.8765 30.6026 19.3476 0.0000 0.0000 0.0000
# 2 30.6026 105.9669 31.3641 0.0000 0.0000 0.0000
# 3 19.3476 31.3641 79.0967 0.0000 0.0000 0.0000
# 4 0.0000 0.0000 0.0000 30.6888 0.0000 0.0000
# 5 0.0000 0.0000 0.0000 0.0000 13.6520 0.0000
# 6 0.0000 0.0000 0.0000 0.0000 0.0000 6.5238
#
#
#
# Elastic Compliance Matrix: (Units=1/GPa)
#
#
# Indices 1 2 3 4 5 6 
#
# 1 0.015743 -0.003860 -0.002320 0.000000 0.000000 0.000000
# 2 -0.003860 0.011638 -0.003671 0.000000 0.000000 0.000000
# 3 -0.002320 -0.003671 0.014666 0.000000 0.000000 0.000000
# 4 0.000000 0.000000 0.000000 0.032585 0.000000 0.000000
# 5 0.000000 0.000000 0.000000 0.000000 0.073249 0.000000
# 6 0.000000 0.000000 0.000000 0.000000 0.000000 0.153285
#
#
# Mechanical properties :
#
#
# Convention : Reuss Voigt Hill
#
# Bulk Modulus (GPa) = 44.75235 46.84098 45.79667
# Shear Modulus (GPa) = 15.22924 22.01464 18.62194
#
# Velocity S-wave (km/s) = 2.84465 3.42015 3.14559
# Velocity P-wave (km/s) = 5.87949 6.36281 6.12592
#
# Compressibility (1/GPa) = 0.02234519
#
# Stress axis : x y z
#
# Youngs Moduli (GPa) = 63.52206 85.92545 68.18556
#
# Poissons Ratio (x) = 0.33164 0.15821
# Poissons Ratio (y) = 0.24517 0.25029
# Poissons Ratio (z) = 0.14739 0.31541
#
# Static dielectric constant tensor:
#      x y z
#    x 1.663700 0.000000 0.000000 
#    y 0.000000 1.669050 0.000000 
#    z 0.000000 0.000000 1.639110 
# 
# From -- ./inp_files/32440.got.cif
#   From: 2010.05.17/outbox.cif.g08.bks.cpg/sg74_17_cif.got.tgz:32440.got - 2010.06.03 17:57:02.
