data_PCOD9536427
_publ_section_title
;
Structure prediction by ZEFSAII (Michael W. Deem and Ramdas Pophale) SiO2 
 PCOD9536427
Probable space group: I M M A
;
_chemical_formula_sum "Si O2"
_cell_formula_units_Z 64
_cell_length_a 12.411596
_cell_length_b 8.756730
_cell_length_c 32.524048
_cell_angle_alpha 90.000000
_cell_angle_beta 90.000000
_cell_angle_gamma 90.000000
_cell_volume 3534.875996
_symmetry_space_group_name_H-M "I M M A"
_symmetry_group_IT_number 74
_symmetry_cell_setting 'orthorhombic'
loop_
_space_group_symop_operation_xyz
x,y,z
-x,1/2-y,z
x,-y,-z
-x,1/2+y,-z
-x,-y,-z
x,1/2+y,-z
-x,y,z
x,1/2-y,z
1/2+x,1/2+y,1/2+z
1/2-x,-y,1/2+z
1/2+x,1/2-y,1/2-z
1/2-x,y,1/2-z
1/2-x,1/2-y,1/2-z
1/2+x,y,1/2-z
1/2-x,1/2+y,1/2+z
1/2+x,-y,1/2+z
loop_
_atom_site_type_symbol
_atom_site_label
_atom_site_fract_x
_atom_site_fract_y
_atom_site_fract_z
Si Si1 0.764505 0.934609 0.378093
Si Si2 0.121948 0.928366 0.807214
Si Si3 0.375127 0.565732 0.455919
Si Si4 0.500000 0.067518 0.762915
Si Si5 0.000000 0.064068 0.642236
O O1 0.762068 0.750000 0.377354
O O2 0.698626 0.986111 0.418127
O O3 0.888563 0.985696 0.378212
O O4 0.706008 0.992476 0.336982
O O5 0.145863 0.750000 0.802611
O O6 0.000000 0.943127 0.825880
O O7 0.102439 0.004269 0.762658
O O8 0.341487 0.500000 0.500000
O O9 0.500000 0.521125 0.448924
O O10 0.371141 0.750000 0.457684
O O11 0.500000 0.250000 0.761048
O O12 0.500000 0.017461 0.809908
O O13 0.000000 0.250000 0.641881
#
# Coordination Sequence:
#
# PCOD9536427 Si02
#       5
#    16  16  16   8   8
#     4  10  19  34  55  76 103 138 178 216 257 307
#     4   9  19  33  50  76 104 132 169 216 269 311
#     4   9  18  32  53  80 104 130 163 208 263 315
#     4   9  17  33  53  74 101 135 176 218 264 308
#     4   9  20  35  52  76 102 137 183 224 252 294
#
# _framework density 18.105301999999998
#
# number of rings (size 3 to 8) (size 9 to 14) (size 15 to 20)
#    0.750    2.000    0.000    1.500    0.000    3.000 
#    0.000   11.250    0.000    0.000    0.000    0.000 
#    0.000    0.000    0.000    0.000    0.000    0.000 
#
# Total GULP energy -178304.168106 kJ/mol
# GULP energy per Si atom -5572.005253 kJ/mol
# Density = 1.806409 g / cm^3
# Si number density = 18.105302 Si / 1000 Ang^3
#
#
#
# Elastic Constant Matrix: (Units=GPa)
#
#
# Indices 1 2 3 4 5 6 
#
# 1 94.1895 22.8836 65.7843 0.0000 0.0000 0.0000
# 2 22.8836 19.8957 17.6030 0.0000 0.0000 0.0000
# 3 65.7843 17.6030 119.5675 0.0000 0.0000 0.0000
# 4 0.0000 0.0000 0.0000 19.0378 0.0000 0.0000
# 5 0.0000 0.0000 0.0000 0.0000 -7.3382 0.0000
# 6 0.0000 0.0000 0.0000 0.0000 0.0000 6.5395
#
#
#
# Elastic Compliance Matrix: (Units=1/GPa)
#
#
# Indices 1 2 3 4 5 6 
#
# 1 0.020864 -0.015914 -0.009136 0.000000 0.000000 0.000000
# 2 -0.015914 0.069928 -0.001539 0.000000 0.000000 0.000000
# 3 -0.009136 -0.001539 0.013617 0.000000 0.000000 0.000000
# 4 0.000000 0.000000 0.000000 0.052527 0.000000 0.000000
# 5 0.000000 0.000000 0.000000 0.000000 -0.136273 0.000000
# 6 0.000000 0.000000 0.000000 0.000000 0.000000 0.152917
#
#
# Mechanical properties :
#
#
# Convention : Reuss Voigt Hill
#
# Bulk Modulus (GPa) = 19.51990 49.57716 34.54853
# Shear Modulus (GPa) = 20.50550 12.13993 16.32272
#
# Velocity S-wave (km/s) = 3.36902 2.59225 3.00583
# Velocity P-wave (km/s) = 5.09298 6.03339 5.58302
#
# Compressibility (1/GPa) = 0.05122977
#
# Stress axis : x y z
#
# Youngs Moduli (GPa) = 47.92865 14.30038 73.43891
#
# Poissons Ratio (x) = 0.22758 0.67096
# Poissons Ratio (y) = 0.76275 0.11304
# Poissons Ratio (z) = 0.43789 0.02201
#
# Static dielectric constant tensor:
#      x y z
#    x 1.643780 0.000000 0.000000 
#    y 0.000000 1.610670 0.000000 
#    z 0.000000 0.000000 1.599440 
# 
# From -- ./inp_files/71313.got.cif
#   From: 2010.05.17/outbox.cif.g08.bks.cpg/sg74_36_cif.got.tgz:71313.got - 2010.06.03 17:57:02.
