data_PCOD9536937
_publ_section_title
;
Structure prediction by ZEFSAII (Michael W. Deem and Ramdas Pophale) SiO2 
 PCOD9536937
Probable space group: I M M A
;
_chemical_formula_sum "Si O2"
_cell_formula_units_Z 104
_cell_length_a 15.535563
_cell_length_b 14.868650
_cell_length_c 24.313503
_cell_angle_alpha 90.000000
_cell_angle_beta 90.000000
_cell_angle_gamma 90.000000
_cell_volume 5616.245322
_symmetry_space_group_name_H-M "I M M A"
_symmetry_group_IT_number 74
_symmetry_cell_setting 'orthorhombic'
loop_
_space_group_symop_operation_xyz
x,y,z
-x,1/2-y,z
x,-y,-z
-x,1/2+y,-z
-x,-y,-z
x,1/2+y,-z
-x,y,z
x,1/2-y,z
1/2+x,1/2+y,1/2+z
1/2-x,-y,1/2+z
1/2+x,1/2-y,1/2-z
1/2-x,y,1/2-z
1/2-x,1/2-y,1/2-z
1/2+x,y,1/2-z
1/2-x,1/2+y,1/2+z
1/2+x,-y,1/2+z
loop_
_atom_site_type_symbol
_atom_site_label
_atom_site_fract_x
_atom_site_fract_y
_atom_site_fract_z
Si Si1 0.804988 0.854570 0.467604
Si Si2 0.605063 0.147098 0.294125
Si Si3 0.321891 0.000000 0.500000
Si Si4 0.603367 0.647669 0.581292
Si Si5 0.898891 0.355630 0.416412
Si Si6 0.103233 0.348777 0.646554
Si Si7 0.394467 0.966083 0.809366
O O1 0.774774 0.750000 0.466756
O O2 0.849156 0.870824 0.526794
O O3 0.869867 0.863594 0.416728
O O4 0.734300 0.931847 0.463031
O O5 0.500000 0.144022 0.294461
O O6 0.628998 0.250000 0.281238
O O7 0.633407 0.127065 0.356429
O O8 0.635348 0.081468 0.246233
O O9 0.370999 0.930199 0.539377
O O10 0.500000 0.651879 0.582436
O O11 0.634044 0.750000 0.567375
O O12 0.891804 0.250000 0.402799
O O13 0.868278 0.412523 0.364349
O O14 0.000000 0.375649 0.425638
O O15 0.135113 0.250000 0.663261
O O16 0.133711 0.431363 0.683337
O O17 0.000000 0.348131 0.648825
O O18 0.500000 0.963396 0.808808
#
# Coordination Sequence:
#
# PCOD9536937 Si02
#       7
#    16  16   8  16  16  16  16
#     4  10  20  31  44  65  96 132 166 200 237 274
#     4   8  14  27  48  73  97 116 138 178 235 291
#     4  12  21  32  51  74  96 122 152 190 233 280
#     4   9  19  36  57  78  97 117 143 180 232 294
#     4   9  16  26  42  66  96 129 165 203 237 268
#     4   9  17  29  44  63  92 133 175 206 229 258
#     4   9  15  23  41  69  95 120 155 197 236 272
#
# _framework density 18.517709
#
# number of rings (size 3 to 8) (size 9 to 14) (size 15 to 20)
#    0.000    2.769    0.000    3.462    0.000    3.692 
#    0.000    3.077    0.000    5.538    0.000   19.385 
#    0.000    0.000    0.000    0.000    0.000    0.000 
#
# Total GULP energy -289910.318201 kJ/mol
# GULP energy per Si atom -5575.198427 kJ/mol
# Density = 1.847556 g / cm^3
# Si number density = 18.517709 Si / 1000 Ang^3
#
#
#
# Elastic Constant Matrix: (Units=GPa)
#
#
# Indices 1 2 3 4 5 6 
#
# 1 12.9915 25.8778 9.9998 0.0000 0.0000 0.0000
# 2 25.8778 144.6885 101.7758 0.0000 0.0000 0.0000
# 3 9.9998 101.7758 108.2744 0.0000 0.0000 0.0000
# 4 0.0000 0.0000 0.0000 35.2686 0.0000 0.0000
# 5 0.0000 0.0000 0.0000 0.0000 -15.6779 0.0000
# 6 0.0000 0.0000 0.0000 0.0000 0.0000 18.4843
#
#
#
# Elastic Compliance Matrix: (Units=1/GPa)
#
#
# Indices 1 2 3 4 5 6 
#
# 1 0.153164 -0.051485 0.034249 0.000000 0.000000 0.000000
# 2 -0.051485 0.037706 -0.030688 0.000000 0.000000 0.000000
# 3 0.034249 -0.030688 0.034918 0.000000 0.000000 0.000000
# 4 0.000000 0.000000 0.000000 0.028354 0.000000 0.000000
# 5 0.000000 0.000000 0.000000 0.000000 -0.063784 0.000000
# 6 0.000000 0.000000 0.000000 0.000000 0.000000 0.054100
#
#
# Mechanical properties :
#
#
# Convention : Reuss Voigt Hill
#
# Bulk Modulus (GPa) = 7.69577 60.14011 33.91794
# Shear Modulus (GPa) = 13.03378 16.16841 14.60110
#
# Velocity S-wave (km/s) = 2.65590 2.95809 2.81106
# Velocity P-wave (km/s) = 3.68375 6.64941 5.37516
#
# Compressibility (1/GPa) = 0.12994157
#
# Stress axis : x y z
#
# Youngs Moduli (GPa) = 6.52894 26.52124 28.63822
#
# Poissons Ratio (x) = 1.36545 -0.98084
# Poissons Ratio (y) = 0.33614 0.87884
# Poissons Ratio (z) = -0.22361 0.81387
#
# Static dielectric constant tensor:
#      x y z
#    x 1.662370 0.000000 0.000000 
#    y 0.000000 1.656030 0.000000 
#    z 0.000000 0.000000 1.619080 
# 
# From -- ./inp_files/53065.got.cif
#   From: 2010.05.17/outbox.cif.g08.bks.cpg/sg74_27_cif.got.tgz:53065.got - 2010.06.03 17:57:02.
