data_PCOD9536799
_publ_section_title
;
Structure prediction by ZEFSAII (Michael W. Deem and Ramdas Pophale) SiO2 
 PCOD9536799
Probable space group: I M M A
;
_chemical_formula_sum "Si O2"
_cell_formula_units_Z 40
_cell_length_a 18.841755
_cell_length_b 5.497834
_cell_length_c 16.659159
_cell_angle_alpha 90.000000
_cell_angle_beta 90.000000
_cell_angle_gamma 90.000000
_cell_volume 1725.702977
_symmetry_space_group_name_H-M "I M M A"
_symmetry_group_IT_number 74
_symmetry_cell_setting 'orthorhombic'
loop_
_space_group_symop_operation_xyz
x,y,z
-x,1/2-y,z
x,-y,-z
-x,1/2+y,-z
-x,-y,-z
x,1/2+y,-z
-x,y,z
x,1/2-y,z
1/2+x,1/2+y,1/2+z
1/2-x,-y,1/2+z
1/2+x,1/2-y,1/2-z
1/2-x,y,1/2-z
1/2-x,1/2-y,1/2-z
1/2+x,y,1/2-z
1/2-x,1/2+y,1/2+z
1/2+x,-y,1/2+z
loop_
_atom_site_type_symbol
_atom_site_label
_atom_site_fract_x
_atom_site_fract_y
_atom_site_fract_z
Si Si1 0.151194 0.250000 0.948999
Si Si2 0.500000 0.750000 0.360903
Si Si3 0.711877 0.750000 0.157115
Si Si4 0.886899 0.750000 0.500062
Si Si5 0.653491 0.750000 0.822132
Si Si6 0.500000 0.750000 0.743172
O O1 0.208832 0.250000 0.877438
O O2 0.071443 0.250000 0.914011
O O3 0.161412 0.500000 0.000000
O O4 0.500000 0.499749 0.308859
O O5 0.662817 0.750000 0.077258
O O6 0.688661 0.504229 0.202593
O O7 0.927518 0.500000 0.500000
O O8 0.840990 0.750000 0.581090
O O9 0.571541 0.750000 0.795931
#
# Coordination Sequence:
#
# PCOD9536799 Si02
#       6
#     8   4   8   8   8   4
#     4  12  23  43  74 103 129 159 200 280 358 399
#     4  12  28  47  64  95 130 174 230 264 314 398
#     4  10  19  36  64 100 128 155 207 277 335 387
#     4   8  14  27  49  81 114 141 187 248 303 360
#     4  10  20  37  61  89 128 177 217 255 316 376
#     4  12  26  47  62  83 138 194 224 264 296 364
#
# _framework density 23.178961999999999
#
# number of rings (size 3 to 8) (size 9 to 14) (size 15 to 20)
#    0.000    1.600    0.000    7.800    0.000    0.000 
#    0.000   15.000    0.000    0.000    0.000    0.000 
#    0.000    0.000    0.000    0.000    0.000    0.000 
#
# Total GULP energy -111668.773536 kJ/mol
# GULP energy per Si atom -5583.438677 kJ/mol
# Density = 2.312621 g / cm^3
# Si number density = 23.178962 Si / 1000 Ang^3
#
#
#
# Elastic Constant Matrix: (Units=GPa)
#
#
# Indices 1 2 3 4 5 6 
#
# 1 188.9933 65.7304 35.9665 0.0000 0.0000 0.0000
# 2 65.7304 295.3869 37.3513 0.0000 0.0000 0.0000
# 3 35.9665 37.3513 69.4939 0.0000 0.0000 0.0000
# 4 0.0000 0.0000 0.0000 -12.5040 0.0000 0.0000
# 5 0.0000 0.0000 0.0000 0.0000 8.0015 0.0000
# 6 0.0000 0.0000 0.0000 0.0000 0.0000 15.2501
#
#
#
# Elastic Compliance Matrix: (Units=1/GPa)
#
#
# Indices 1 2 3 4 5 6 
#
# 1 0.006152 -0.001037 -0.002627 0.000000 0.000000 0.000000
# 2 -0.001037 0.003807 -0.001510 0.000000 0.000000 0.000000
# 3 -0.002627 -0.001510 0.016560 0.000000 0.000000 0.000000
# 4 0.000000 0.000000 0.000000 -0.079974 0.000000 0.000000
# 5 0.000000 0.000000 0.000000 0.000000 0.124976 0.000000
# 6 0.000000 0.000000 0.000000 0.000000 0.000000 0.065573
#
#
# Mechanical properties :
#
#
# Convention : Reuss Voigt Hill
#
# Bulk Modulus (GPa) = 61.83021 92.44117 77.13569
# Shear Modulus (GPa) = 32.71585 29.80459 31.26022
#
# Velocity S-wave (km/s) = 3.76100 3.58976 3.67638
# Velocity P-wave (km/s) = 6.75227 7.55976 7.16739
#
# Compressibility (1/GPa) = 0.01617332
#
# Stress axis : x y z
#
# Youngs Moduli (GPa) = 162.55902 262.67558 60.38470
#
# Poissons Ratio (x) = 0.27233 0.15860
# Poissons Ratio (y) = 0.16853 0.09116
# Poissons Ratio (z) = 0.42697 0.39653
#
# Static dielectric constant tensor:
#      x y z
#    x 1.771250 0.000000 0.000000 
#    y 0.000000 1.960810 0.000000 
#    z 0.000000 0.000000 1.864450 
# 
# From -- ./inp_files/53502.got.cif
#   From: 2010.05.17/outbox.cif.g08.bks.cpg/sg74_27_cif.got.tgz:53502.got - 2010.06.03 17:57:02.
