data_PCOD9536953
_publ_section_title
;
Structure prediction by ZEFSAII (Michael W. Deem and Ramdas Pophale) SiO2 
 PCOD9536953
Probable space group: I M M A
;
_chemical_formula_sum "Si O2"
_cell_formula_units_Z 96
_cell_length_a 19.412853
_cell_length_b 25.183773
_cell_length_c 12.045359
_cell_angle_alpha 90.000000
_cell_angle_beta 90.000000
_cell_angle_gamma 90.000000
_cell_volume 5888.842110
_symmetry_space_group_name_H-M "I M M A"
_symmetry_group_IT_number 74
_symmetry_cell_setting 'orthorhombic'
loop_
_space_group_symop_operation_xyz
x,y,z
-x,1/2-y,z
x,-y,-z
-x,1/2+y,-z
-x,-y,-z
x,1/2+y,-z
-x,y,z
x,1/2-y,z
1/2+x,1/2+y,1/2+z
1/2-x,-y,1/2+z
1/2+x,1/2-y,1/2-z
1/2-x,y,1/2-z
1/2-x,1/2-y,1/2-z
1/2+x,y,1/2-z
1/2-x,1/2+y,1/2+z
1/2+x,-y,1/2+z
loop_
_atom_site_type_symbol
_atom_site_label
_atom_site_fract_x
_atom_site_fract_y
_atom_site_fract_z
Si Si1 0.335823 0.563072 0.986909
Si Si2 0.679685 0.598987 0.502195
Si Si3 0.679368 0.187865 0.683628
Si Si4 0.921744 0.124483 0.670367
Si Si5 0.078928 0.032678 0.856220
Si Si6 0.829000 0.437677 0.235651
O O1 0.349170 0.579261 0.859165
O O2 0.350545 0.500000 0.000000
O O3 0.255128 0.572852 0.013859
O O4 0.380596 0.599427 0.067791
O O5 0.675946 0.651280 0.426135
O O6 0.621185 0.559060 0.456930
O O7 0.671352 0.604665 0.635097
O O8 0.677235 0.250000 0.656478
O O9 0.750000 0.176148 0.750000
O O10 0.618909 0.171538 0.768482
O O11 0.922971 0.077820 0.761907
O O12 0.000000 0.138530 0.641172
O O13 0.000000 0.018682 0.882027
O O14 0.121994 0.984492 0.805407
O O15 0.750000 0.457619 0.250000
#
# Coordination Sequence:
#
# PCOD9536953 Si02
#       6
#    16  16  16  16  16  16
#     4  11  19  32  52  74 111 154 184 212 251 320
#     4  10  20  33  51  77 105 139 179 227 268 319
#     4  10  20  37  62  81  99 134 180 230 283 322
#     4  10  21  34  52  81 111 139 177 225 271 314
#     4  10  20  32  48  74 108 143 180 220 260 311
#     4  10  20  31  48  73 107 150 184 208 259 315
#
# _framework density 16.302018
#
# number of rings (size 3 to 8) (size 9 to 14) (size 15 to 20)
#    0.000    1.833    3.333    2.500    0.000    2.667 
#    0.000    0.000    0.000    5.500    0.000    0.000 
#    0.000    0.000    0.000    0.000    0.000    0.000 
#
# Total GULP energy -267631.275111 kJ/mol
# GULP energy per Si atom -5575.651565 kJ/mol
# Density = 1.626491 g / cm^3
# Si number density = 16.302018 Si / 1000 Ang^3
#
#
#
# Elastic Constant Matrix: (Units=GPa)
#
#
# Indices 1 2 3 4 5 6 
#
# 1 107.5656 25.4565 57.6255 0.0000 0.0000 0.0000
# 2 25.4565 60.6340 34.2400 0.0000 0.0000 0.0000
# 3 57.6255 34.2400 124.9458 0.0000 0.0000 0.0000
# 4 0.0000 0.0000 0.0000 14.5161 0.0000 0.0000
# 5 0.0000 0.0000 0.0000 0.0000 3.9055 0.0000
# 6 0.0000 0.0000 0.0000 0.0000 0.0000 11.4853
#
#
#
# Elastic Compliance Matrix: (Units=1/GPa)
#
#
# Indices 1 2 3 4 5 6 
#
# 1 0.012632 -0.002382 -0.005173 0.000000 0.000000 0.000000
# 2 -0.002382 0.019961 -0.004371 0.000000 0.000000 0.000000
# 3 -0.005173 -0.004371 0.011587 0.000000 0.000000 0.000000
# 4 0.000000 0.000000 0.000000 0.068889 0.000000 0.000000
# 5 0.000000 0.000000 0.000000 0.000000 0.256048 0.000000
# 6 0.000000 0.000000 0.000000 0.000000 0.000000 0.087067
#
#
# Mechanical properties :
#
#
# Convention : Reuss Voigt Hill
#
# Bulk Modulus (GPa) = 49.19598 58.64327 53.91962
# Shear Modulus (GPa) = 10.27087 17.70295 13.98691
#
# Velocity S-wave (km/s) = 2.51278 3.29893 2.93232
# Velocity P-wave (km/s) = 6.21788 7.11067 6.67921
#
# Compressibility (1/GPa) = 0.02032687
#
# Stress axis : x y z
#
# Youngs Moduli (GPa) = 79.16589 50.09752 86.30182
#
# Poissons Ratio (x) = 0.11934 0.44644
# Poissons Ratio (y) = 0.18858 0.37727
# Poissons Ratio (z) = 0.40953 0.21900
#
# Static dielectric constant tensor:
#      x y z
#    x 1.560220 0.000000 0.000000 
#    y 0.000000 1.513260 0.000000 
#    z 0.000000 0.000000 1.573520 
# 
# From -- ./inp_files/22455.got.cif
#   From: 2010.05.17/outbox.cif.g08.bks.cpg/sg74_12_cif.got.tgz:22455.got - 2010.06.03 17:57:02.
