data_PCOD9536242
_publ_section_title
;
Structure prediction by ZEFSAII (Michael W. Deem and Ramdas Pophale) SiO2 
 PCOD9536242
Probable space group: I M M A
;
_chemical_formula_sum "Si O2"
_cell_formula_units_Z 92
_cell_length_a 12.033890
_cell_length_b 17.411462
_cell_length_c 20.583695
_cell_angle_alpha 90.000000
_cell_angle_beta 90.000000
_cell_angle_gamma 90.000000
_cell_volume 4312.852592
_symmetry_space_group_name_H-M "I M M A"
_symmetry_group_IT_number 74
_symmetry_cell_setting 'orthorhombic'
loop_
_space_group_symop_operation_xyz
x,y,z
-x,1/2-y,z
x,-y,-z
-x,1/2+y,-z
-x,-y,-z
x,1/2+y,-z
-x,y,z
x,1/2-y,z
1/2+x,1/2+y,1/2+z
1/2-x,-y,1/2+z
1/2+x,1/2-y,1/2-z
1/2-x,y,1/2-z
1/2-x,1/2-y,1/2-z
1/2+x,y,1/2-z
1/2-x,1/2+y,1/2+z
1/2+x,-y,1/2+z
loop_
_atom_site_type_symbol
_atom_site_label
_atom_site_fract_x
_atom_site_fract_y
_atom_site_fract_z
Si Si1 0.625630 0.485814 0.366518
Si Si2 0.770609 0.838816 0.826221
Si Si3 0.750000 0.062619 0.750000
Si Si4 0.625179 0.341290 0.056427
Si Si5 0.000000 0.250000 0.964751
Si Si6 0.697362 0.380470 0.546506
Si Si7 0.877261 0.160375 0.656276
O O1 0.500000 0.504224 0.348958
O O2 0.643064 0.394547 0.362490
O O3 0.706988 0.513621 0.309745
O O4 0.653226 0.536549 0.429681
O O5 0.805393 0.750000 0.832439
O O6 0.750000 0.853813 0.750000
O O7 0.657804 0.848707 0.867953
O O8 0.847676 0.114959 0.721403
O O9 0.500000 0.368206 0.044022
O O10 0.630202 0.250000 0.040173
O O11 0.719873 0.382191 0.014688
O O12 0.098815 0.181499 0.962901
O O13 0.779917 0.353725 0.604675
O O14 0.878813 0.250000 0.670993
O O15 0.000000 0.138203 0.631253
#
# Coordination Sequence:
#
# PCOD9536242 Si02
#       7
#    16  16   8  16   4  16  16
#     4  11  23  41  62  92 132 174 221 279 332 399
#     4  10  23  46  70  97 127 165 222 279 348 409
#     4  10  21  36  55  84 124 170 218 274 333 383
#     4  10  21  42  72 102 136 173 221 276 329 397
#     4  12  20  40  62  96 148 190 218 258 312 412
#     4  11  22  38  63  98 136 180 221 262 328 392
#     4  10  19  33  54  86 124 170 225 269 315 384
#
# _framework density 21.331589999999998
#
# number of rings (size 3 to 8) (size 9 to 14) (size 15 to 20)
#    0.000    1.565    3.478    1.304    0.000    3.130 
#    1.565    5.217    0.000    0.000    0.000    0.000 
#    0.000    0.000    0.000    0.000    0.000    0.000 
#
# Total GULP energy -256190.789657 kJ/mol
# GULP energy per Si atom -5569.364993 kJ/mol
# Density = 2.128304 g / cm^3
# Si number density = 21.331590 Si / 1000 Ang^3
#
#
#
# Elastic Constant Matrix: (Units=GPa)
#
#
# Indices 1 2 3 4 5 6 
#
# 1 131.0089 41.7707 26.3203 0.0000 0.0000 0.0000
# 2 41.7707 100.4698 45.7259 0.0000 0.0000 0.0000
# 3 26.3203 45.7259 88.0620 0.0000 0.0000 0.0000
# 4 0.0000 0.0000 0.0000 13.4103 0.0000 0.0000
# 5 0.0000 0.0000 0.0000 0.0000 12.3814 0.0000
# 6 0.0000 0.0000 0.0000 0.0000 0.0000 16.8086
#
#
#
# Elastic Compliance Matrix: (Units=1/GPa)
#
#
# Indices 1 2 3 4 5 6 
#
# 1 0.008861 -0.003246 -0.000963 0.000000 0.000000 0.000000
# 2 -0.003246 0.014222 -0.006415 0.000000 0.000000 0.000000
# 3 -0.000963 -0.006415 0.014974 0.000000 0.000000 0.000000
# 4 0.000000 0.000000 0.000000 0.074570 0.000000 0.000000
# 5 0.000000 0.000000 0.000000 0.000000 0.080766 0.000000
# 6 0.000000 0.000000 0.000000 0.000000 0.000000 0.059493
#
#
# Mechanical properties :
#
#
# Convention : Reuss Voigt Hill
#
# Bulk Modulus (GPa) = 59.48631 60.79715 60.14173
# Shear Modulus (GPa) = 17.87385 22.23497 20.05441
#
# Velocity S-wave (km/s) = 2.89780 3.23205 3.06948
# Velocity P-wave (km/s) = 6.25646 6.51851 6.38883
#
# Compressibility (1/GPa) = 0.01681059
#
# Stress axis : x y z
#
# Youngs Moduli (GPa) = 112.84812 70.31277 66.78101
#
# Poissons Ratio (x) = 0.22822 0.06432
# Poissons Ratio (y) = 0.36629 0.42838
# Poissons Ratio (z) = 0.10869 0.45103
#
# Static dielectric constant tensor:
#      x y z
#    x 1.755690 0.000000 0.000000 
#    y 0.000000 1.807380 0.000000 
#    z 0.000000 0.000000 1.790500 
# 
# From -- ./inp_files/50566.got.cif
#   From: 2010.05.17/outbox.cif.g08.bks.cpg/sg74_26_cif.got.tgz:50566.got - 2010.06.03 17:57:02.
