data_PCOD9536535
_publ_section_title
;
Structure prediction by ZEFSAII (Michael W. Deem and Ramdas Pophale) SiO2 
 PCOD9536535
Probable space group: I M M A
;
_chemical_formula_sum "Si O2"
_cell_formula_units_Z 88
_cell_length_a 7.505047
_cell_length_b 19.223693
_cell_length_c 28.329968
_cell_angle_alpha 90.000000
_cell_angle_beta 90.000000
_cell_angle_gamma 90.000000
_cell_volume 4087.298186
_symmetry_space_group_name_H-M "I M M A"
_symmetry_group_IT_number 74
_symmetry_cell_setting 'orthorhombic'
loop_
_space_group_symop_operation_xyz
x,y,z
-x,1/2-y,z
x,-y,-z
-x,1/2+y,-z
-x,-y,-z
x,1/2+y,-z
-x,y,z
x,1/2-y,z
1/2+x,1/2+y,1/2+z
1/2-x,-y,1/2+z
1/2+x,1/2-y,1/2-z
1/2-x,y,1/2-z
1/2-x,1/2-y,1/2-z
1/2+x,y,1/2-z
1/2-x,1/2+y,1/2+z
1/2+x,-y,1/2+z
loop_
_atom_site_type_symbol
_atom_site_label
_atom_site_fract_x
_atom_site_fract_y
_atom_site_fract_z
Si Si1 0.286957 0.250000 0.305459
Si Si2 0.796101 0.537343 0.144447
Si Si3 0.713876 0.826227 0.305666
Si Si4 0.781434 0.384094 0.135932
Si Si5 0.284668 0.670138 0.533833
Si Si6 0.707221 0.444829 0.962147
O O1 0.500000 0.250000 0.311912
O O2 0.250000 0.250000 0.250000
O O3 0.222449 0.179912 0.331331
O O4 0.713670 0.605251 0.168667
O O5 0.718333 0.460286 0.151792
O O6 0.797071 0.550268 0.088351
O O7 0.000000 0.533243 0.161797
O O8 0.500000 0.825167 0.312958
O O9 0.781361 0.750000 0.321537
O O10 0.750000 0.831644 0.250000
O O11 0.727316 0.368271 0.081972
O O12 0.000000 0.385451 0.136062
O O13 0.500000 0.669767 0.533645
O O14 0.225961 0.750000 0.535103
O O15 0.222712 0.628987 0.487895
O O16 0.500000 0.461706 0.954301
O O17 0.781465 0.500000 0.000000
#
# Coordination Sequence:
#
# PCOD9536535 Si02
#       6
#     8  16  16  16  16  16
#     4  10  20  36  54  78 110 140 178 230 281 332
#     4  10  20  35  58  82 106 143 188 229 267 321
#     4   9  19  36  57  81 108 138 175 220 271 326
#     4   9  17  32  55  77 100 136 181 225 269 316
#     4  10  19  34  58  81 100 139 193 232 264 317
#     4  11  23  36  51  79 117 150 178 221 279 331
#
# _framework density 21.530114999999999
#
# number of rings (size 3 to 8) (size 9 to 14) (size 15 to 20)
#    0.000    2.182    2.727    0.545    0.000    3.273 
#    0.000    3.636    0.000    0.000    0.000    0.000 
#    0.000    0.000    0.000    0.000    0.000    0.000 
#
# Total GULP energy -245715.090941 kJ/mol
# GULP energy per Si atom -5584.433885 kJ/mol
# Density = 2.148111 g / cm^3
# Si number density = 21.530115 Si / 1000 Ang^3
#
#
#
# Elastic Constant Matrix: (Units=GPa)
#
#
# Indices 1 2 3 4 5 6 
#
# 1 60.6475 5.9039 -9.2382 0.0000 0.0000 0.0000
# 2 5.9039 233.0387 73.1268 0.0000 0.0000 0.0000
# 3 -9.2382 73.1268 74.6646 0.0000 0.0000 0.0000
# 4 0.0000 0.0000 0.0000 48.5194 0.0000 0.0000
# 5 0.0000 0.0000 0.0000 0.0000 -6.7702 0.0000
# 6 0.0000 0.0000 0.0000 0.0000 0.0000 -19.6285
#
#
#
# Elastic Compliance Matrix: (Units=1/GPa)
#
#
# Indices 1 2 3 4 5 6 
#
# 1 0.017206 -0.001594 0.003690 0.000000 0.000000 0.000000
# 2 -0.001594 0.006343 -0.006409 0.000000 0.000000 0.000000
# 3 0.003690 -0.006409 0.020127 0.000000 0.000000 0.000000
# 4 0.000000 0.000000 0.000000 0.020610 0.000000 0.000000
# 5 0.000000 0.000000 0.000000 0.000000 -0.147707 0.000000
# 6 0.000000 0.000000 0.000000 0.000000 0.000000 -0.050946
#
#
# Mechanical properties :
#
#
# Convention : Reuss Voigt Hill
#
# Bulk Modulus (GPa) = 28.53130 56.43730 42.48430
# Shear Modulus (GPa) = -43.83757 24.32802 -9.75478
#
# Velocity S-wave (km/s) = -4.51722 3.36512 -2.13087
# Velocity P-wave (km/s) = 3.73181 6.43186 3.70422
#
# Compressibility (1/GPa) = 0.03504923
#
# Stress axis : x y z
#
# Youngs Moduli (GPa) = 58.11954 157.66112 49.68442
#
# Poissons Ratio (x) = 0.25127 -0.18333
# Poissons Ratio (y) = 0.09263 0.31844
# Poissons Ratio (z) = -0.21445 1.01049
#
# Static dielectric constant tensor:
#      x y z
#    x 1.807740 0.000000 0.000000 
#    y 0.000000 1.810100 0.000000 
#    z 0.000000 0.000000 1.716190 
# 
# From -- ./inp_files/56955.got.cif
#   From: 2010.05.17/outbox.cif.g08.bks.cpg/sg74_29_cif.got.tgz:56955.got - 2010.06.03 17:57:02.
