data_PCOD9536989
_publ_section_title
;
Structure prediction by ZEFSAII (Michael W. Deem and Ramdas Pophale) SiO2 
 PCOD9536989
Probable space group: I M M A
;
_chemical_formula_sum "Si O2"
_cell_formula_units_Z 80
_cell_length_a 14.163844
_cell_length_b 17.491346
_cell_length_c 16.739605
_cell_angle_alpha 90.000000
_cell_angle_beta 90.000000
_cell_angle_gamma 90.000000
_cell_volume 4147.148353
_symmetry_space_group_name_H-M "I M M A"
_symmetry_group_IT_number 74
_symmetry_cell_setting 'orthorhombic'
loop_
_space_group_symop_operation_xyz
x,y,z
-x,1/2-y,z
x,-y,-z
-x,1/2+y,-z
-x,-y,-z
x,1/2+y,-z
-x,y,z
x,1/2-y,z
1/2+x,1/2+y,1/2+z
1/2-x,-y,1/2+z
1/2+x,1/2-y,1/2-z
1/2-x,y,1/2-z
1/2-x,1/2-y,1/2-z
1/2+x,y,1/2-z
1/2-x,1/2+y,1/2+z
1/2+x,-y,1/2+z
loop_
_atom_site_type_symbol
_atom_site_label
_atom_site_fract_x
_atom_site_fract_y
_atom_site_fract_z
Si Si1 0.275106 0.923923 0.835381
Si Si2 0.110624 0.907709 0.513204
Si Si3 0.885363 0.666076 0.174886
Si Si4 0.892968 0.512537 0.093989
Si Si5 0.113708 0.084095 0.662492
O O1 0.250000 0.886747 0.750000
O O2 0.175092 0.951090 0.868543
O O3 0.335568 0.002639 0.822101
O O4 0.329581 0.884056 0.909256
O O5 0.136923 0.880237 0.424255
O O6 0.000000 0.892640 0.527808
O O7 0.121767 0.000000 0.500000
O O8 0.848087 0.750000 0.156190
O O9 0.857053 0.596785 0.117408
O O10 0.862886 0.639764 0.264769
O O11 0.000000 0.669655 0.169934
O O12 0.000000 0.505316 0.124520
O O13 0.892888 0.500000 0.000000
O O14 0.000000 0.070701 0.661848
#
# Coordination Sequence:
#
# PCOD9536989 Si02
#       5
#    16  16  16  16  16
#     4  11  18  26  43  63  87 120 154 194 230 276
#     4   8  15  26  42  62  84 113 147 188 237 283
#     4   9  17  30  48  69  94 125 158 191 232 284
#     4  10  20  32  44  61  92 130 158 187 227 274
#     4   9  16  29  45  62  88 118 148 188 236 282
#
# _framework density 19.290362999999999
#
# number of rings (size 3 to 8) (size 9 to 14) (size 15 to 20)
#    0.000    2.600    2.000    3.600    0.000    0.800 
#    0.000    2.000    0.000    0.000    0.000    0.000 
#    0.000    3.200    0.000   15.600    4.000    0.000 
#
# Total GULP energy -222962.658140 kJ/mol
# GULP energy per Si atom -5574.066453 kJ/mol
# Density = 1.924646 g / cm^3
# Si number density = 19.290363 Si / 1000 Ang^3
#
#
#
# Elastic Constant Matrix: (Units=GPa)
#
#
# Indices 1 2 3 4 5 6 
#
# 1 84.6798 0.4725 32.2367 0.0000 0.0000 0.0000
# 2 0.4725 22.7900 26.0287 0.0000 0.0000 0.0000
# 3 32.2367 26.0287 133.9376 0.0000 0.0000 0.0000
# 4 0.0000 0.0000 0.0000 3.9646 0.0000 0.0000
# 5 0.0000 0.0000 0.0000 0.0000 23.9779 0.0000
# 6 0.0000 0.0000 0.0000 0.0000 0.0000 5.2606
#
#
#
# Elastic Compliance Matrix: (Units=1/GPa)
#
#
# Indices 1 2 3 4 5 6 
#
# 1 0.013328 0.004354 -0.004054 0.000000 0.000000 0.000000
# 2 0.004354 0.057818 -0.012284 0.000000 0.000000 0.000000
# 3 -0.004054 -0.012284 0.010829 0.000000 0.000000 0.000000
# 4 0.000000 0.000000 0.000000 0.252231 0.000000 0.000000
# 5 0.000000 0.000000 0.000000 0.000000 0.041705 0.000000
# 6 0.000000 0.000000 0.000000 0.000000 0.000000 0.190091
#
#
# Mechanical properties :
#
#
# Convention : Reuss Voigt Hill
#
# Bulk Modulus (GPa) = 17.23927 39.87594 28.55761
# Shear Modulus (GPa) = 8.20604 18.81860 13.51232
#
# Velocity S-wave (km/s) = 2.06475 3.12676 2.64951
# Velocity P-wave (km/s) = 3.82628 5.80963 4.91895
#
# Compressibility (1/GPa) = 0.05800711
#
# Stress axis : x y z
#
# Youngs Moduli (GPa) = 75.02890 17.29558 92.34381
#
# Poissons Ratio (x) = -0.07530 0.37436
# Poissons Ratio (y) = -0.32666 1.13435
# Poissons Ratio (z) = 0.30417 0.21246
#
# Static dielectric constant tensor:
#      x y z
#    x 1.727210 0.000000 0.000000 
#    y 0.000000 1.648800 0.000000 
#    z 0.000000 0.000000 1.747180 
# 
# From -- ./inp_files/32126.got.cif
#   From: 2010.05.17/outbox.cif.g08.bks.cpg/sg74_17_cif.got.tgz:32126.got - 2010.06.03 17:57:02.
