data_PCOD9536129
_publ_section_title
;
Structure prediction by ZEFSAII (Michael W. Deem and Ramdas Pophale) SiO2 
 PCOD9536129
Probable space group: I M M A
;
_chemical_formula_sum "Si O2"
_cell_formula_units_Z 72
_cell_length_a 16.707862
_cell_length_b 22.048467
_cell_length_c 8.865524
_cell_angle_alpha 90.000000
_cell_angle_beta 90.000000
_cell_angle_gamma 90.000000
_cell_volume 3265.906058
_symmetry_space_group_name_H-M "I M M A"
_symmetry_group_IT_number 74
_symmetry_cell_setting 'orthorhombic'
loop_
_space_group_symop_operation_xyz
x,y,z
-x,1/2-y,z
x,-y,-z
-x,1/2+y,-z
-x,-y,-z
x,1/2+y,-z
-x,y,z
x,1/2-y,z
1/2+x,1/2+y,1/2+z
1/2-x,-y,1/2+z
1/2+x,1/2-y,1/2-z
1/2-x,y,1/2-z
1/2-x,1/2-y,1/2-z
1/2+x,y,1/2-z
1/2-x,1/2+y,1/2+z
1/2+x,-y,1/2+z
loop_
_atom_site_type_symbol
_atom_site_label
_atom_site_fract_x
_atom_site_fract_y
_atom_site_fract_z
Si Si1 0.669763 0.180445 0.313304
Si Si2 0.500000 0.484428 0.824761
Si Si3 0.669717 0.663012 0.329986
Si Si4 0.333446 0.016759 0.674462
Si Si5 0.000000 0.652691 0.213409
Si Si6 0.500000 0.325042 0.360293
O O1 0.669110 0.250000 0.257651
O O2 0.750000 0.150554 0.250000
O O3 0.673510 0.180187 0.494543
O O4 0.581494 0.155921 0.278422
O O5 0.583857 0.505742 0.750072
O O6 0.500000 0.411881 0.795268
O O7 0.500000 0.500000 0.000000
O O8 0.750000 0.683679 0.250000
O O9 0.666682 0.589981 0.318310
O O10 0.585479 0.683438 0.258403
O O11 0.250000 0.996064 0.750000
O O12 0.333785 0.000000 0.500000
O O13 0.000000 0.646945 0.028930
O O14 0.500000 0.250000 0.377136
#
# Coordination Sequence:
#
# PCOD9536129 Si02
#       6
#    16   8  16  16   8   8
#     4   9  17  30  49  72  96 123 159 201 242 287
#     4  10  19  33  52  74 102 130 163 210 257 300
#     4   9  18  32  49  68  94 126 158 196 239 288
#     4  10  20  34  52  74 100 131 167 207 250 299
#     4   8  16  31  48  67  94 126 162 196 235 290
#     4   8  14  28  50  71  95 132 168 198 242 296
#
# _framework density 22.045949
#
# number of rings (size 3 to 8) (size 9 to 14) (size 15 to 20)
#    0.000    2.889    0.000    1.000    0.000    1.333 
#    0.000    1.111    0.000    0.000    0.000    0.000 
#    0.000    0.000    0.000    0.000    0.000    0.000 
#
# Total GULP energy -200757.514701 kJ/mol
# GULP energy per Si atom -5576.597631 kJ/mol
# Density = 2.199577 g / cm^3
# Si number density = 22.045949 Si / 1000 Ang^3
#
#
#
# Elastic Constant Matrix: (Units=GPa)
#
#
# Indices 1 2 3 4 5 6 
#
# 1 303.3791 28.0077 91.8300 0.0000 0.0000 0.0000
# 2 28.0077 86.1208 11.4061 0.0000 0.0000 0.0000
# 3 91.8300 11.4061 90.7382 0.0000 0.0000 0.0000
# 4 0.0000 0.0000 0.0000 23.2621 0.0000 0.0000
# 5 0.0000 0.0000 0.0000 0.0000 46.9151 0.0000
# 6 0.0000 0.0000 0.0000 0.0000 0.0000 -22.5593
#
#
#
# Elastic Compliance Matrix: (Units=1/GPa)
#
#
# Indices 1 2 3 4 5 6 
#
# 1 0.004825 -0.000938 -0.004765 0.000000 0.000000 0.000000
# 2 -0.000938 0.011991 -0.000558 0.000000 0.000000 0.000000
# 3 -0.004765 -0.000558 0.015914 0.000000 0.000000 0.000000
# 4 0.000000 0.000000 0.000000 0.042988 0.000000 0.000000
# 5 0.000000 0.000000 0.000000 0.000000 0.021315 0.000000
# 6 0.000000 0.000000 0.000000 0.000000 0.000000 -0.044328
#
#
# Mechanical properties :
#
#
# Convention : Reuss Voigt Hill
#
# Bulk Modulus (GPa) = 49.48858 82.52508 66.00683
# Shear Modulus (GPa) = 69.47962 32.78986 51.13474
#
# Velocity S-wave (km/s) = 5.61999 3.86079 4.82130
# Velocity P-wave (km/s) = 8.03797 7.57554 7.81018
#
# Compressibility (1/GPa) = 0.02020668
#
# Stress axis : x y z
#
# Youngs Moduli (GPa) = 207.24310 83.39894 62.83941
#
# Poissons Ratio (x) = 0.07824 0.29945
# Poissons Ratio (y) = 0.19441 0.03506
# Poissons Ratio (z) = 0.98759 0.04653
#
# Static dielectric constant tensor:
#      x y z
#    x 1.892200 0.000000 0.000000 
#    y 0.000000 1.808600 0.000000 
#    z 0.000000 0.000000 1.721200 
# 
# From -- ./inp_files/9351.got.cif
#   From: 2010.05.17/outbox.cif.g08.bks.cpg/sg74_5_cif.got.tgz:9351.got - 2010.06.03 17:57:02.
