data_PCOD9536111
_publ_section_title
;
Structure prediction by ZEFSAII (Michael W. Deem and Ramdas Pophale) SiO2 
 PCOD9536111
Probable space group: I M M A
;
_chemical_formula_sum "Si O2"
_cell_formula_units_Z 96
_cell_length_a 17.422597
_cell_length_b 24.452701
_cell_length_c 13.673596
_cell_angle_alpha 90.000000
_cell_angle_beta 90.000000
_cell_angle_gamma 90.000000
_cell_volume 5825.356020
_symmetry_space_group_name_H-M "I M M A"
_symmetry_group_IT_number 74
_symmetry_cell_setting 'orthorhombic'
loop_
_space_group_symop_operation_xyz
x,y,z
-x,1/2-y,z
x,-y,-z
-x,1/2+y,-z
-x,-y,-z
x,1/2+y,-z
-x,y,z
x,1/2-y,z
1/2+x,1/2+y,1/2+z
1/2-x,-y,1/2+z
1/2+x,1/2-y,1/2-z
1/2-x,y,1/2-z
1/2-x,1/2-y,1/2-z
1/2+x,y,1/2-z
1/2-x,1/2+y,1/2+z
1/2+x,-y,1/2+z
loop_
_atom_site_type_symbol
_atom_site_label
_atom_site_fract_x
_atom_site_fract_y
_atom_site_fract_z
Si Si1 0.167769 0.913441 0.303302
Si Si2 0.592898 0.186470 0.691002
Si Si3 0.087532 0.684648 0.968552
Si Si4 0.408839 0.468213 0.202739
Si Si5 0.190449 0.115962 0.169671
Si Si6 0.308280 0.439015 0.023567
O O1 0.250000 0.920147 0.250000
O O2 0.128605 0.858966 0.261027
O O3 0.176154 0.910167 0.420690
O O4 0.119024 0.968998 0.285160
O O5 0.500000 0.184696 0.695471
O O6 0.615322 0.250000 0.710700
O O7 0.615167 0.172076 0.578898
O O8 0.086512 0.750000 0.962142
O O9 0.137684 0.659666 0.883244
O O10 0.000000 0.664522 0.960085
O O11 0.500000 0.463831 0.214472
O O12 0.361730 0.430072 0.277902
O O13 0.381583 0.447989 0.094771
O O14 0.250000 0.138512 0.250000
O O15 0.243538 0.089876 0.086530
O O16 0.280274 0.500000 0.000000
#
# Coordination Sequence:
#
# PCOD9536111 Si02
#       6
#    16  16  16  16  16  16
#     4  11  20  32  52  75 102 134 166 201 244 295
#     4   9  19  35  53  74 100 130 166 205 243 289
#     4   9  18  33  52  72  96 129 165 201 246 297
#     4  10  20  33  51  75 100 130 167 204 246 295
#     4  10  19  33  51  73  99 126 162 208 248 286
#     4   9  19  33  49  71 102 134 160 194 244 298
#
# _framework density 16.479679999999998
#
# number of rings (size 3 to 8) (size 9 to 14) (size 15 to 20)
#    0.000    2.333    0.000    5.500    0.000    4.333 
#    0.000    0.833    0.000    6.000    0.000    9.333 
#    0.000    0.000    0.000    0.000    0.000    0.000 
#
# Total GULP energy -267569.215668 kJ/mol
# GULP energy per Si atom -5574.358660 kJ/mol
# Density = 1.644217 g / cm^3
# Si number density = 16.479680 Si / 1000 Ang^3
#
#
#
# Elastic Constant Matrix: (Units=GPa)
#
#
# Indices 1 2 3 4 5 6 
#
# 1 81.5593 37.2609 51.1627 0.0000 0.0000 0.0000
# 2 37.2609 62.5526 70.5798 0.0000 0.0000 0.0000
# 3 51.1627 70.5798 134.9449 0.0000 0.0000 0.0000
# 4 0.0000 0.0000 0.0000 32.1397 0.0000 0.0000
# 5 0.0000 0.0000 0.0000 0.0000 13.3648 0.0000
# 6 0.0000 0.0000 0.0000 0.0000 0.0000 17.0547
#
#
#
# Elastic Compliance Matrix: (Units=1/GPa)
#
#
# Indices 1 2 3 4 5 6 
#
# 1 0.017283 -0.007079 -0.002850 0.000000 0.000000 0.000000
# 2 -0.007079 0.041905 -0.019234 0.000000 0.000000 0.000000
# 3 -0.002850 -0.019234 0.018551 0.000000 0.000000 0.000000
# 4 0.000000 0.000000 0.000000 0.031114 0.000000 0.000000
# 5 0.000000 0.000000 0.000000 0.000000 0.074823 0.000000
# 6 0.000000 0.000000 0.000000 0.000000 0.000000 0.058635
#
#
# Mechanical properties :
#
#
# Convention : Reuss Voigt Hill
#
# Bulk Modulus (GPa) = 51.51122 66.34040 58.92581
# Shear Modulus (GPa) = 16.28092 20.51542 18.39817
#
# Velocity S-wave (km/s) = 3.14656 3.53213 3.34491
# Velocity P-wave (km/s) = 6.67281 7.54837 7.12405
#
# Compressibility (1/GPa) = 0.01941325
#
# Stress axis : x y z
#
# Youngs Moduli (GPa) = 57.86009 23.86334 53.90652
#
# Poissons Ratio (x) = 0.16894 0.15363
# Poissons Ratio (y) = 0.40961 1.03681
# Poissons Ratio (z) = 0.16490 0.45898
#
# Static dielectric constant tensor:
#      x y z
#    x 1.552900 0.000000 0.000000 
#    y 0.000000 1.531080 0.000000 
#    z 0.000000 0.000000 1.568520 
# 
# From -- ./inp_files/22418.got.cif
#   From: 2010.05.17/outbox.cif.g08.bks.cpg/sg74_12_cif.got.tgz:22418.got - 2010.06.03 17:57:02.
