data_PCOD9536003
_publ_section_title
;
Structure prediction by ZEFSAII (Michael W. Deem and Ramdas Pophale) SiO2 
 PCOD9536003
Probable space group: I M M A
;
_chemical_formula_sum "Si O2"
_cell_formula_units_Z 96
_cell_length_a 19.323496
_cell_length_b 9.135935
_cell_length_c 27.881065
_cell_angle_alpha 90.000000
_cell_angle_beta 90.000000
_cell_angle_gamma 90.000000
_cell_volume 4922.073125
_symmetry_space_group_name_H-M "I M M A"
_symmetry_group_IT_number 74
_symmetry_cell_setting 'orthorhombic'
loop_
_space_group_symop_operation_xyz
x,y,z
-x,1/2-y,z
x,-y,-z
-x,1/2+y,-z
-x,-y,-z
x,1/2+y,-z
-x,y,z
x,1/2-y,z
1/2+x,1/2+y,1/2+z
1/2-x,-y,1/2+z
1/2+x,1/2-y,1/2-z
1/2-x,y,1/2-z
1/2-x,1/2-y,1/2-z
1/2+x,y,1/2-z
1/2-x,1/2+y,1/2+z
1/2+x,-y,1/2+z
loop_
_atom_site_type_symbol
_atom_site_label
_atom_site_fract_x
_atom_site_fract_y
_atom_site_fract_z
Si Si1 0.083541 0.576999 0.716199
Si Si2 0.198472 0.590116 0.543152
Si Si3 0.416849 0.075995 0.412562
Si Si4 0.665741 0.000000 0.500000
Si Si5 0.131348 0.075443 0.619995
Si Si6 0.915738 0.080749 0.814875
Si Si7 0.000000 0.575757 0.448422
O O1 0.098534 0.750000 0.717638
O O2 0.118131 0.499447 0.670766
O O3 0.104847 0.498070 0.765533
O O4 0.000000 0.560579 0.711436
O O5 0.162977 0.500000 0.500000
O O6 0.167617 0.750000 0.550147
O O7 0.276557 0.604766 0.523665
O O8 0.194870 0.495433 0.591066
O O9 0.500000 0.065063 0.415220
O O10 0.400526 0.250000 0.417480
O O11 0.384135 0.977933 0.454869
O O12 0.393998 0.012096 0.361284
O O13 0.137440 0.250000 0.624534
O O14 0.066288 0.041312 0.585005
O O15 0.892951 0.250000 0.816950
O O16 0.000000 0.081648 0.815146
O O17 0.000000 0.750000 0.456340
O O18 0.000000 0.500000 0.500000
#
# Coordination Sequence:
#
# PCOD9536003 Si02
#       7
#    16  16  16   8  16  16   8
#     4  10  19  32  53  81 113 151 192 235 284 338
#     4  10  22  38  56  78 107 147 193 234 279 332
#     4  10  20  36  60  90 120 148 182 226 278 339
#     4  10  23  38  62  81 114 150 190 228 278 335
#     4  11  21  35  54  78 110 149 193 240 290 338
#     4   9  18  32  52  81 118 153 183 223 279 340
#     4  10  22  34  48  74 108 146 184 235 290 337
#
# _framework density 19.503978
#
# number of rings (size 3 to 8) (size 9 to 14) (size 15 to 20)
#    0.500    1.500    0.833    3.250    0.000    6.667 
#    0.000    1.667    0.000    1.000    0.000    5.833 
#    0.000    0.000    0.000    0.000    0.000    0.000 
#
# Total GULP energy -267352.428704 kJ/mol
# GULP energy per Si atom -5569.842265 kJ/mol
# Density = 1.945959 g / cm^3
# Si number density = 19.503978 Si / 1000 Ang^3
#
#
#
# Elastic Constant Matrix: (Units=GPa)
#
#
# Indices 1 2 3 4 5 6 
#
# 1 28.1534 38.0010 39.4534 0.0000 0.0000 0.0000
# 2 38.0010 100.8132 68.2101 0.0000 0.0000 0.0000
# 3 39.4534 68.2101 194.0990 0.0000 0.0000 0.0000
# 4 0.0000 0.0000 0.0000 -35.5995 0.0000 0.0000
# 5 0.0000 0.0000 0.0000 0.0000 10.2633 0.0000
# 6 0.0000 0.0000 0.0000 0.0000 0.0000 5.9086
#
#
#
# Elastic Compliance Matrix: (Units=1/GPa)
#
#
# Indices 1 2 3 4 5 6 
#
# 1 0.079664 -0.025023 -0.007400 0.000000 0.000000 0.000000
# 2 -0.025023 0.020873 -0.002249 0.000000 0.000000 0.000000
# 3 -0.007400 -0.002249 0.007446 0.000000 0.000000 0.000000
# 4 0.000000 0.000000 0.000000 -0.028090 0.000000 0.000000
# 5 0.000000 0.000000 0.000000 0.000000 0.097435 0.000000
# 6 0.000000 0.000000 0.000000 0.000000 0.000000 0.169244
#
#
# Mechanical properties :
#
#
# Convention : Reuss Voigt Hill
#
# Bulk Modulus (GPa) = 25.87879 68.26608 47.07244
# Shear Modulus (GPa) = 11.66058 7.94122 9.80090
#
# Velocity S-wave (km/s) = 2.44776 2.02001 2.24410
# Velocity P-wave (km/s) = 4.61368 6.36535 5.55894
#
# Compressibility (1/GPa) = 0.03864168
#
# Stress axis : x y z
#
# Youngs Moduli (GPa) = 12.55268 47.90845 134.29268
#
# Poissons Ratio (x) = 1.19879 0.99370
# Poissons Ratio (y) = 0.31410 0.30203
# Poissons Ratio (z) = 0.09288 0.10775
#
# Static dielectric constant tensor:
#      x y z
#    x 1.748850 0.000000 0.000000 
#    y 0.000000 1.680700 0.000000 
#    z 0.000000 0.000000 1.672990 
# 
# From -- ./inp_files/61939.got.cif
#   From: 2010.05.17/outbox.cif.g08.bks.cpg/sg74_31_cif.got.tgz:61939.got - 2010.06.03 17:57:02.
