data_PCOD9536890
_publ_section_title
;
Structure prediction by ZEFSAII (Michael W. Deem and Ramdas Pophale) SiO2 
 PCOD9536890
Probable space group: I M M A
;
_chemical_formula_sum "Si O2"
_cell_formula_units_Z 60
_cell_length_a 16.005652
_cell_length_b 9.770605
_cell_length_c 18.898706
_cell_angle_alpha 90.000000
_cell_angle_beta 90.000000
_cell_angle_gamma 90.000000
_cell_volume 2955.472313
_symmetry_space_group_name_H-M "I M M A"
_symmetry_group_IT_number 74
_symmetry_cell_setting 'orthorhombic'
loop_
_space_group_symop_operation_xyz
x,y,z
-x,1/2-y,z
x,-y,-z
-x,1/2+y,-z
-x,-y,-z
x,1/2+y,-z
-x,y,z
x,1/2-y,z
1/2+x,1/2+y,1/2+z
1/2-x,-y,1/2+z
1/2+x,1/2-y,1/2-z
1/2-x,y,1/2-z
1/2-x,1/2-y,1/2-z
1/2+x,y,1/2-z
1/2-x,1/2+y,1/2+z
1/2+x,-y,1/2+z
loop_
_atom_site_type_symbol
_atom_site_label
_atom_site_fract_x
_atom_site_fract_y
_atom_site_fract_z
Si Si1 0.906490 0.250000 0.870550
Si Si2 0.500000 0.250000 0.405307
Si Si3 0.093084 0.250000 0.552496
Si Si4 0.750000 0.505368 0.250000
Si Si5 0.204925 0.500000 0.500000
Si Si6 0.635598 0.250000 0.791729
Si Si7 0.840225 0.950105 0.887379
O O1 0.908018 0.250000 0.784778
O O2 0.860704 0.387910 0.892277
O O3 0.000000 0.250000 0.900234
O O4 0.424781 0.367899 0.402278
O O5 0.145939 0.383110 0.531724
O O6 0.085429 0.250000 0.637070
O O7 0.000000 0.250000 0.520581
O O8 0.691164 0.612383 0.208100
O O9 0.804641 0.425782 0.192123
O O10 0.266075 0.429036 0.442793
#
# Coordination Sequence:
#
# PCOD9536890 Si02
#       7
#     8   4   8   8   8   8  16
#     4  10  19  39  69  98 121 158 222 280 309 370
#     4  12  26  40  56 100 142 176 214 266 312 404
#     4  12  24  43  69 100 131 163 219 273 328 392
#     4   9  18  39  70  90 120 166 218 268 314 374
#     4  12  25  45  66  94 132 180 208 271 329 394
#     4   9  17  35  70 101 114 151 213 278 319 362
#     4  11  23  42  66  93 132 174 221 261 329 383
#
# _framework density 20.301324000000001
#
# number of rings (size 3 to 8) (size 9 to 14) (size 15 to 20)
#    0.000    1.333    4.000    3.200    0.000    1.067 
#    2.400    0.000    2.933    0.000    0.000    0.000 
#    0.000    0.000    0.000    0.000    0.000    0.000 
#
# Total GULP energy -167022.847443 kJ/mol
# GULP energy per Si atom -5567.428248 kJ/mol
# Density = 2.025512 g / cm^3
# Si number density = 20.301324 Si / 1000 Ang^3
#
#
#
# Elastic Constant Matrix: (Units=GPa)
#
#
# Indices 1 2 3 4 5 6 
#
# 1 170.5423 46.0997 48.9852 0.0000 0.0000 0.0000
# 2 46.0997 108.7332 26.1518 0.0000 0.0000 0.0000
# 3 48.9852 26.1518 65.5013 0.0000 0.0000 0.0000
# 4 0.0000 0.0000 0.0000 1699.0865 0.0000 0.0000
# 5 0.0000 0.0000 0.0000 0.0000 7.5877 0.0000
# 6 0.0000 0.0000 0.0000 0.0000 0.0000 38.6099
#
#
#
# Elastic Compliance Matrix: (Units=1/GPa)
#
#
# Indices 1 2 3 4 5 6 
#
# 1 0.007890 -0.002131 -0.005050 0.000000 0.000000 0.000000
# 2 -0.002131 0.010749 -0.002698 0.000000 0.000000 0.000000
# 3 -0.005050 -0.002698 0.020121 0.000000 0.000000 0.000000
# 4 0.000000 0.000000 0.000000 0.000589 0.000000 0.000000
# 5 0.000000 0.000000 0.000000 0.000000 0.131792 0.000000
# 6 0.000000 0.000000 0.000000 0.000000 0.000000 0.025900
#
#
# Mechanical properties :
#
#
# Convention : Reuss Voigt Hill
#
# Bulk Modulus (GPa) = 52.62514 65.25003 58.93759
# Shear Modulus (GPa) = 22.40824 363.95951 193.18388
#
# Velocity S-wave (km/s) = 3.32593 13.40403 9.76549
# Velocity P-wave (km/s) = 6.38180 16.48538 12.49990
#
# Compressibility (1/GPa) = 0.01900232
#
# Stress axis : x y z
#
# Youngs Moduli (GPa) = 126.74149 93.03104 49.69983
#
# Poissons Ratio (x) = 0.19821 0.25098
# Poissons Ratio (y) = 0.27003 0.13410
# Poissons Ratio (z) = 0.64004 0.25102
#
# Static dielectric constant tensor:
#      x y z
#    x 1.726320 0.000000 0.000000 
#    y 0.000000 1.721060 0.000000 
#    z 0.000000 0.000000 1.756800 
# 
# From -- ./inp_files/52597.got.cif
#   From: 2010.05.17/outbox.cif.g08.bks.cpg/sg74_27_cif.got.tgz:52597.got - 2010.06.03 17:57:02.
