data_PCOD9536583
_publ_section_title
;
Structure prediction by ZEFSAII (Michael W. Deem and Ramdas Pophale) SiO2 
 PCOD9536583
Probable space group: I M M A
;
_chemical_formula_sum "Si O2"
_cell_formula_units_Z 96
_cell_length_a 10.593956
_cell_length_b 18.837456
_cell_length_c 23.288612
_cell_angle_alpha 90.000000
_cell_angle_beta 90.000000
_cell_angle_gamma 90.000000
_cell_volume 4647.549469
_symmetry_space_group_name_H-M "I M M A"
_symmetry_group_IT_number 74
_symmetry_cell_setting 'orthorhombic'
loop_
_space_group_symop_operation_xyz
x,y,z
-x,1/2-y,z
x,-y,-z
-x,1/2+y,-z
-x,-y,-z
x,1/2+y,-z
-x,y,z
x,1/2-y,z
1/2+x,1/2+y,1/2+z
1/2-x,-y,1/2+z
1/2+x,1/2-y,1/2-z
1/2-x,y,1/2-z
1/2-x,1/2-y,1/2-z
1/2+x,y,1/2-z
1/2-x,1/2+y,1/2+z
1/2+x,-y,1/2+z
loop_
_atom_site_type_symbol
_atom_site_label
_atom_site_fract_x
_atom_site_fract_y
_atom_site_fract_z
Si Si1 0.782107 0.439506 0.171869
Si Si2 0.246064 0.665302 0.468785
Si Si3 0.000000 0.390083 0.327299
Si Si4 0.143845 0.556418 0.957361
Si Si5 0.000000 0.169277 0.209171
Si Si6 0.250000 0.435304 0.750000
Si Si7 0.352403 0.833420 0.153814
Si Si8 0.000000 0.835198 0.542660
O O1 0.632811 0.429515 0.183849
O O2 0.791722 0.442645 0.103678
O O3 0.875597 0.375102 0.189837
O O4 0.820458 0.510667 0.206106
O O5 0.257615 0.750000 0.468859
O O6 0.353313 0.628333 0.506022
O O7 0.228022 0.644048 0.402307
O O8 0.121560 0.645313 0.505216
O O9 0.000000 0.330126 0.278319
O O10 0.000000 0.365671 0.393272
O O11 0.000000 0.534923 0.945667
O O12 0.205456 0.500000 0.000000
O O13 0.000000 0.250000 0.186957
O O14 0.328221 0.383652 0.791941
O O15 0.500000 0.836806 0.137336
O O16 0.324552 0.750000 0.166487
O O17 0.000000 0.750000 0.548228
#
# Coordination Sequence:
#
# PCOD9536583 Si02
#       8
#    16  16   8  16   8   8  16   8
#     4  12  26  44  68  99 133 177 234 277 339 406
#     4  10  20  40  66  98 130 164 211 269 330 399
#     4  12  23  44  66  97 138 166 230 285 331 393
#     4  11  24  43  63  92 133 174 216 274 335 401
#     4  12  27  48  68  94 138 185 230 281 336 403
#     4  12  25  42  67  92 138 180 224 278 341 404
#     4  10  22  41  69 101 134 173 224 281 343 405
#     4  10  19  34  65  97 128 161 196 264 335 384
#
# _framework density 20.656046
#
# number of rings (size 3 to 8) (size 9 to 14) (size 15 to 20)
#    0.000    1.000    5.000    1.500    2.333    3.000 
#    0.000    1.667    0.000    1.000    0.000    0.000 
#    0.000    0.000    0.000    0.000    0.000    0.000 
#
# Total GULP energy -267750.319819 kJ/mol
# GULP energy per Si atom -5578.131663 kJ/mol
# Density = 2.060903 g / cm^3
# Si number density = 20.656046 Si / 1000 Ang^3
#
#
#
# Elastic Constant Matrix: (Units=GPa)
#
#
# Indices 1 2 3 4 5 6 
#
# 1 74.6151 29.3028 31.3389 0.0000 0.0000 0.0000
# 2 29.3028 86.7376 63.9545 0.0000 0.0000 0.0000
# 3 31.3389 63.9545 157.1669 0.0000 0.0000 0.0000
# 4 0.0000 0.0000 0.0000 37.9870 0.0000 0.0000
# 5 0.0000 0.0000 0.0000 0.0000 5.7170 0.0000
# 6 0.0000 0.0000 0.0000 0.0000 0.0000 20.3149
#
#
#
# Elastic Compliance Matrix: (Units=1/GPa)
#
#
# Indices 1 2 3 4 5 6 
#
# 1 0.015661 -0.004269 -0.001386 0.000000 0.000000 0.000000
# 2 -0.004269 0.017635 -0.006325 0.000000 0.000000 0.000000
# 3 -0.001386 -0.006325 0.009213 0.000000 0.000000 0.000000
# 4 0.000000 0.000000 0.000000 0.026325 0.000000 0.000000
# 5 0.000000 0.000000 0.000000 0.000000 0.174916 0.000000
# 6 0.000000 0.000000 0.000000 0.000000 0.000000 0.049225
#
#
# Mechanical properties :
#
#
# Convention : Reuss Voigt Hill
#
# Bulk Modulus (GPa) = 53.91041 63.07912 58.49476
# Shear Modulus (GPa) = 15.47437 25.73203 20.60320
#
# Velocity S-wave (km/s) = 2.74002 3.53333 3.16166
# Velocity P-wave (km/s) = 6.01382 6.87387 6.45818
#
# Compressibility (1/GPa) = 0.01854929
#
# Stress axis : x y z
#
# Youngs Moduli (GPa) = 63.85455 56.70664 108.54736
#
# Poissons Ratio (x) = 0.24208 0.15040
# Poissons Ratio (y) = 0.27260 0.68652
# Poissons Ratio (z) = 0.08847 0.35865
#
# Static dielectric constant tensor:
#      x y z
#    x 1.778820 0.000000 0.000000 
#    y 0.000000 1.774470 0.000000 
#    z 0.000000 0.000000 1.735290 
# 
# From -- ./inp_files/58921.got.cif
#   From: 2010.05.17/outbox.cif.g08.bks.cpg/sg74_30_cif.got.tgz:58921.got - 2010.06.03 17:57:02.
