data_PCOD9536768
_publ_section_title
;
Structure prediction by ZEFSAII (Michael W. Deem and Ramdas Pophale) SiO2 
 PCOD9536768
Probable space group: I M M A
;
_chemical_formula_sum "Si O2"
_cell_formula_units_Z 64
_cell_length_a 19.598711
_cell_length_b 31.800756
_cell_length_c 5.168043
_cell_angle_alpha 90.000000
_cell_angle_beta 90.000000
_cell_angle_gamma 90.000000
_cell_volume 3221.002575
_symmetry_space_group_name_H-M "I M M A"
_symmetry_group_IT_number 74
_symmetry_cell_setting 'orthorhombic'
loop_
_space_group_symop_operation_xyz
x,y,z
-x,1/2-y,z
x,-y,-z
-x,1/2+y,-z
-x,-y,-z
x,1/2+y,-z
-x,y,z
x,1/2-y,z
1/2+x,1/2+y,1/2+z
1/2-x,-y,1/2+z
1/2+x,1/2-y,1/2-z
1/2-x,y,1/2-z
1/2-x,1/2-y,1/2-z
1/2+x,y,1/2-z
1/2-x,1/2+y,1/2+z
1/2+x,-y,1/2+z
loop_
_atom_site_type_symbol
_atom_site_label
_atom_site_fract_x
_atom_site_fract_y
_atom_site_fract_z
Si Si1 0.142538 0.912130 0.122808
Si Si2 0.325233 0.798668 0.880892
Si Si3 0.705893 0.500000 0.500000
Si Si4 0.078873 0.125920 0.354444
Si Si5 0.750000 0.149213 0.750000
O O1 0.116274 0.897228 0.404437
O O2 0.210343 0.883622 0.065681
O O3 0.163186 0.960459 0.103615
O O4 0.088542 0.901768 0.901416
O O5 0.344166 0.750000 0.880474
O O6 0.250000 0.802484 0.750000
O O7 0.383841 0.829898 0.786853
O O8 0.308125 0.818683 0.158545
O O9 0.750000 0.514067 0.750000
O O10 0.000000 0.132408 0.418582
#
# Coordination Sequence:
#
# PCOD9536768 Si02
#       5
#    16  16   8  16   8
#     4  11  23  40  64  93 126 164 205 261 311 372
#     4  10  20  35  60  92 122 158 207 265 315 363
#     4  12  24  38  65 102 133 152 206 270 322 366
#     4  11  24  43  63  88 128 176 211 248 307 379
#     4  10  19  36  60  90 126 156 202 254 321 364
#
# _framework density 19.869592000000001
#
# number of rings (size 3 to 8) (size 9 to 14) (size 15 to 20)
#    0.000    1.250    3.750    2.625    3.500    0.500 
#    0.000    3.750    0.000    3.000    0.000    0.000 
#    0.000    0.000    0.000    0.000    0.000    0.000 
#
# Total GULP energy -178311.931860 kJ/mol
# GULP energy per Si atom -5572.247871 kJ/mol
# Density = 1.982437 g / cm^3
# Si number density = 19.869592 Si / 1000 Ang^3
#
#
#
# Elastic Constant Matrix: (Units=GPa)
#
#
# Indices 1 2 3 4 5 6 
#
# 1 87.8130 54.1854 12.6592 0.0001 0.0019 0.0006
# 2 54.1854 169.0147 30.1537 0.0002 0.0011 0.0006
# 3 12.6592 30.1537 73.7600 0.0003 0.0160 0.0024
# 4 0.0001 0.0002 0.0003 23.1645 0.0003 -0.0004
# 5 0.0019 0.0011 0.0160 0.0003 24.5405 -0.0002
# 6 0.0006 0.0006 0.0024 -0.0004 -0.0002 12.7200
#
#
#
# Elastic Compliance Matrix: (Units=1/GPa)
#
#
# Indices 1 2 3 4 5 6 
#
# 1 0.014223 -0.004449 -0.000622 0.000000 0.000000 0.000000
# 2 -0.004449 0.007774 -0.002414 0.000000 0.000002 0.000000
# 3 -0.000622 -0.002414 0.014651 0.000000 -0.000009 -0.000003
# 4 0.000000 0.000000 0.000000 0.043169 -0.000001 0.000001
# 5 0.000000 0.000002 -0.000009 -0.000001 0.040749 0.000001
# 6 0.000000 0.000000 -0.000003 0.000001 0.000001 0.078616
#
#
# Mechanical properties :
#
#
# Convention : Reuss Voigt Hill
#
# Bulk Modulus (GPa) = 46.13240 58.28714 52.20977
# Shear Modulus (GPa) = 22.58574 27.65764 25.12169
#
# Velocity S-wave (km/s) = 3.37515 3.73494 3.55960
# Velocity P-wave (km/s) = 6.20136 6.92808 6.57477
#
# Compressibility (1/GPa) = 0.02167674
#
# Stress axis : x y z
#
# Youngs Moduli (GPa) = 70.31045 128.64014 68.25324
#
# Poissons Ratio (x) = 0.57228 0.04248
# Poissons Ratio (y) = 0.31279 0.16479
# Poissons Ratio (z) = 0.04376 0.31059
#
# Static dielectric constant tensor:
#      x y z
#    x 1.734520 0.000000 0.000000 
#    y 0.000000 1.667850 0.000000 
#    z 0.000000 0.000000 1.819930 
# 
# From -- ./inp_files/2384.got.cif
#   From: 2010.05.17/outbox.cif.g08.bks.cpg/sg74_2_cif.got.tgz:2384.got - 2010.06.03 17:57:02.
