data_PCOD9536781
_publ_section_title
;
Structure prediction by ZEFSAII (Michael W. Deem and Ramdas Pophale) SiO2 
 PCOD9536781
Probable space group: I M M A
;
_chemical_formula_sum "Si O2"
_cell_formula_units_Z 96
_cell_length_a 30.082763
_cell_length_b 17.828596
_cell_length_c 9.594445
_cell_angle_alpha 90.000000
_cell_angle_beta 90.000000
_cell_angle_gamma 90.000000
_cell_volume 5145.821577
_symmetry_space_group_name_H-M "I M M A"
_symmetry_group_IT_number 74
_symmetry_cell_setting 'orthorhombic'
loop_
_space_group_symop_operation_xyz
x,y,z
-x,1/2-y,z
x,-y,-z
-x,1/2+y,-z
-x,-y,-z
x,1/2+y,-z
-x,y,z
x,1/2-y,z
1/2+x,1/2+y,1/2+z
1/2-x,-y,1/2+z
1/2+x,1/2-y,1/2-z
1/2-x,y,1/2-z
1/2-x,1/2-y,1/2-z
1/2+x,y,1/2-z
1/2-x,1/2+y,1/2+z
1/2+x,-y,1/2+z
loop_
_atom_site_type_symbol
_atom_site_label
_atom_site_fract_x
_atom_site_fract_y
_atom_site_fract_z
Si Si1 0.730150 0.835836 0.593885
Si Si2 0.375958 0.927577 0.294693
Si Si3 0.884982 0.666022 0.620948
Si Si4 0.448014 0.162041 0.878772
Si Si5 0.690755 0.083925 0.952842
Si Si6 0.634926 0.902188 0.605141
O O1 0.716786 0.750000 0.562468
O O2 0.750000 0.836401 0.750000
O O3 0.766904 0.864432 0.484605
O O4 0.687789 0.889505 0.601522
O O5 0.416990 0.894626 0.207050
O O6 0.331734 0.913628 0.200410
O O7 0.378174 0.889775 0.445881
O O8 0.376543 0.015511 0.334683
O O9 0.868625 0.750000 0.590511
O O10 0.930663 0.655574 0.537913
O O11 0.848640 0.610584 0.556074
O O12 0.886764 0.653823 0.784641
O O13 0.500000 0.146187 0.865318
O O14 0.440319 0.250000 0.838615
O O15 0.702717 0.000000 0.000000
#
# Coordination Sequence:
#
# PCOD9536781 Si02
#       6
#    16  16  16  16  16  16
#     4  11  22  36  57  84 116 158 209 257 299 351
#     4  10  23  39  59  88 123 161 201 248 314 368
#     4  10  19  36  62  86 115 155 202 249 302 370
#     4   9  20  40  66  93 120 153 197 250 307 373
#     4  11  20  36  60  83 115 159 210 254 303 349
#     4  11  22  39  56  84 124 160 202 253 305 368
#
# _framework density 18.655913000000002
#
# number of rings (size 3 to 8) (size 9 to 14) (size 15 to 20)
#    0.000    1.667    3.333    1.000    2.333    2.667 
#    0.000    5.000    0.000    2.000    0.000    0.000 
#    0.000    0.000    0.000    0.000    0.000    0.000 
#
# Total GULP energy -267675.705299 kJ/mol
# GULP energy per Si atom -5576.577194 kJ/mol
# Density = 1.861345 g / cm^3
# Si number density = 18.655913 Si / 1000 Ang^3
#
#
#
# Elastic Constant Matrix: (Units=GPa)
#
#
# Indices 1 2 3 4 5 6 
#
# 1 94.3299 36.4003 35.2374 0.0000 0.0000 0.0000
# 2 36.4003 50.6952 18.5800 0.0000 0.0000 0.0000
# 3 35.2374 18.5800 122.4348 0.0000 0.0000 0.0000
# 4 0.0000 0.0000 0.0000 -89.6665 0.0000 0.0000
# 5 0.0000 0.0000 0.0000 0.0000 17.3400 0.0000
# 6 0.0000 0.0000 0.0000 0.0000 0.0000 28.8127
#
#
#
# Elastic Compliance Matrix: (Units=1/GPa)
#
#
# Indices 1 2 3 4 5 6 
#
# 1 0.015614 -0.010127 -0.002957 0.000000 0.000000 0.000000
# 2 -0.010127 0.027456 -0.001252 0.000000 0.000000 0.000000
# 3 -0.002957 -0.001252 0.009209 0.000000 0.000000 0.000000
# 4 0.000000 0.000000 0.000000 -0.011152 0.000000 0.000000
# 5 0.000000 0.000000 0.000000 0.000000 0.057670 0.000000
# 6 0.000000 0.000000 0.000000 0.000000 0.000000 0.034707
#
#
# Mechanical properties :
#
#
# Convention : Reuss Voigt Hill
#
# Bulk Modulus (GPa) = 42.36140 49.76613 46.06377
# Shear Modulus (GPa) = 29.40424 3.11339 16.25882
#
# Velocity S-wave (km/s) = 3.97436 1.29324 2.95534
# Velocity P-wave (km/s) = 6.61942 5.38179 6.03243
#
# Compressibility (1/GPa) = 0.02360640
#
# Stress axis : x y z
#
# Youngs Moduli (GPa) = 64.04703 36.42177 108.59438
#
# Poissons Ratio (x) = 0.36885 0.32109
# Poissons Ratio (y) = 0.64862 0.13595
# Poissons Ratio (z) = 0.18938 0.04560
#
# Static dielectric constant tensor:
#      x y z
#    x 1.614340 0.000000 0.000000 
#    y 0.000000 1.671040 0.000000 
#    z 0.000000 0.000000 2.078150 
# 
# From -- ./inp_files/15126.got.cif
#   From: 2010.05.17/outbox.cif.g08.bks.cpg/sg74_8_cif.got.tgz:15126.got - 2010.06.03 17:57:02.
