data_PCOD9536598
_publ_section_title
;
Structure prediction by ZEFSAII (Michael W. Deem and Ramdas Pophale) SiO2 
 PCOD9536598
Probable space group: I M M A
;
_chemical_formula_sum "Si O2"
_cell_formula_units_Z 104
_cell_length_a 24.209058
_cell_length_b 7.475097
_cell_length_c 28.564125
_cell_angle_alpha 90.000000
_cell_angle_beta 90.000000
_cell_angle_gamma 90.000000
_cell_volume 5169.108504
_symmetry_space_group_name_H-M "I M M A"
_symmetry_group_IT_number 74
_symmetry_cell_setting 'orthorhombic'
loop_
_space_group_symop_operation_xyz
x,y,z
-x,1/2-y,z
x,-y,-z
-x,1/2+y,-z
-x,-y,-z
x,1/2+y,-z
-x,y,z
x,1/2-y,z
1/2+x,1/2+y,1/2+z
1/2-x,-y,1/2+z
1/2+x,1/2-y,1/2-z
1/2-x,y,1/2-z
1/2-x,1/2-y,1/2-z
1/2+x,y,1/2-z
1/2-x,1/2+y,1/2+z
1/2+x,-y,1/2+z
loop_
_atom_site_type_symbol
_atom_site_label
_atom_site_fract_x
_atom_site_fract_y
_atom_site_fract_z
Si Si1 0.698455 0.033642 0.305820
Si Si2 0.000000 0.534688 0.556301
Si Si3 0.288785 0.036812 0.945052
Si Si4 0.827800 0.543816 0.092173
Si Si5 0.105627 0.955338 0.615314
Si Si6 0.826403 0.468145 0.297199
Si Si7 0.441230 0.035570 0.555103
O O1 0.698353 0.250000 0.306494
O O2 0.763092 0.978593 0.308739
O O3 0.669549 0.978742 0.257281
O O4 0.670673 0.962658 0.352129
O O5 0.000000 0.500000 0.500000
O O6 0.945560 0.469115 0.584875
O O7 0.000000 0.750000 0.558576
O O8 0.291349 0.250000 0.936933
O O9 0.230189 0.966102 0.925743
O O10 0.340594 0.957206 0.917759
O O11 0.292513 0.000000 0.000000
O O12 0.826713 0.750000 0.075656
O O13 0.884160 0.459890 0.074111
O O14 0.090016 0.750000 0.625746
O O15 0.128919 0.032829 0.664678
O O16 0.827564 0.250000 0.299041
O O17 0.500000 0.967419 0.574183
O O18 0.440878 0.250000 0.562931
O O19 0.441269 0.000000 0.500000
#
# Coordination Sequence:
#
# PCOD9536598 Si02
#       7
#    16   8  16  16  16  16  16
#     4   9  16  29  51  76  99 128 161 195 241 294
#     4  10  22  36  54  76  98 132 174 214 255 298
#     4  11  22  33  47  72 103 131 161 200 248 296
#     4  10  20  32  47  73 103 128 159 202 246 289
#     4  10  19  35  55  74  98 131 169 207 251 299
#     4   8  15  29  51  75  98 125 161 200 240 293
#     4   9  18  33  51  69  93 129 167 200 237 284
#
# _framework density 20.119523999999998
#
# number of rings (size 3 to 8) (size 9 to 14) (size 15 to 20)
#    0.000    2.462    1.538    2.308    0.000    3.077 
#    0.000    2.308    1.692    0.000    0.000    0.000 
#    0.000    0.000    0.000    0.000    0.000    0.000 
#
# Total GULP energy -289876.158266 kJ/mol
# GULP energy per Si atom -5574.541505 kJ/mol
# Density = 2.007373 g / cm^3
# Si number density = 20.119524 Si / 1000 Ang^3
#
#
#
# Elastic Constant Matrix: (Units=GPa)
#
#
# Indices 1 2 3 4 5 6 
#
# 1 151.5652 0.4112 46.7972 0.0000 0.0000 0.0000
# 2 0.4112 61.4264 -16.9078 0.0000 0.0000 0.0000
# 3 46.7972 -16.9078 75.6112 0.0000 0.0000 0.0000
# 4 0.0000 0.0000 0.0000 17.3506 0.0000 0.0000
# 5 0.0000 0.0000 0.0000 0.0000 35.9227 0.0000
# 6 0.0000 0.0000 0.0000 0.0000 0.0000 -15.2890
#
#
#
# Elastic Compliance Matrix: (Units=1/GPa)
#
#
# Indices 1 2 3 4 5 6 
#
# 1 0.008295 -0.001565 -0.005484 0.000000 0.000000 0.000000
# 2 -0.001565 0.017643 0.004914 0.000000 0.000000 0.000000
# 3 -0.005484 0.004914 0.017719 0.000000 0.000000 0.000000
# 4 0.000000 0.000000 0.000000 0.057635 0.000000 0.000000
# 5 0.000000 0.000000 0.000000 0.000000 0.027838 0.000000
# 6 0.000000 0.000000 0.000000 0.000000 0.000000 -0.065407
#
#
# Mechanical properties :
#
#
# Convention : Reuss Voigt Hill
#
# Bulk Modulus (GPa) = 25.38980 38.80044 32.09512
# Shear Modulus (GPa) = 61.63578 24.81701 43.22640
#
# Velocity S-wave (km/s) = 5.54088 3.51590 4.64020
# Velocity P-wave (km/s) = 7.31997 5.98406 6.68547
#
# Compressibility (1/GPa) = 0.03938589
#
# Stress axis : x y z
#
# Youngs Moduli (GPa) = 120.54957 56.68076 56.43789
#
# Poissons Ratio (x) = 0.08871 0.30951
# Poissons Ratio (y) = 0.18867 -0.27733
# Poissons Ratio (z) = 0.66111 -0.27852
#
# Static dielectric constant tensor:
#      x y z
#    x 1.728460 0.000000 0.000000 
#    y 0.000000 1.328190 0.000000 
#    z 0.000000 0.000000 1.701940 
# 
# From -- ./inp_files/68648.got.cif
#   From: 2010.05.17/outbox.cif.g08.bks.cpg/sg74_35_cif.got.tgz:68648.got - 2010.06.03 17:57:02.
