data_PCOD9536237
_publ_section_title
;
Structure prediction by ZEFSAII (Michael W. Deem and Ramdas Pophale) SiO2 
 PCOD9536237
Probable space group: I M M A
;
_chemical_formula_sum "Si O2"
_cell_formula_units_Z 80
_cell_length_a 29.291377
_cell_length_b 17.053756
_cell_length_c 8.743847
_cell_angle_alpha 90.000000
_cell_angle_beta 90.000000
_cell_angle_gamma 90.000000
_cell_volume 4367.796372
_symmetry_space_group_name_H-M "I M M A"
_symmetry_group_IT_number 74
_symmetry_cell_setting 'orthorhombic'
loop_
_space_group_symop_operation_xyz
x,y,z
-x,1/2-y,z
x,-y,-z
-x,1/2+y,-z
-x,-y,-z
x,1/2+y,-z
-x,y,z
x,1/2-y,z
1/2+x,1/2+y,1/2+z
1/2-x,-y,1/2+z
1/2+x,1/2-y,1/2-z
1/2-x,y,1/2-z
1/2-x,1/2-y,1/2-z
1/2+x,y,1/2-z
1/2-x,1/2+y,1/2+z
1/2+x,-y,1/2+z
loop_
_atom_site_type_symbol
_atom_site_label
_atom_site_fract_x
_atom_site_fract_y
_atom_site_fract_z
Si Si1 0.948220 0.084773 0.193496
Si Si2 0.355279 0.838921 0.200493
Si Si3 0.134289 0.578015 0.600883
Si Si4 0.199716 0.016050 0.820681
Si Si5 0.052132 0.104657 0.839711
O O1 0.910104 0.109412 0.312718
O O2 0.000000 0.104540 0.238289
O O3 0.944995 0.989560 0.184750
O O4 0.940326 0.115998 0.021697
O O5 0.343189 0.750000 0.234014
O O6 0.325915 0.901843 0.293504
O O7 0.408285 0.854577 0.243864
O O8 0.348015 0.860354 0.022643
O O9 0.122869 0.500000 0.500000
O O10 0.170353 0.548371 0.726840
O O11 0.250000 0.018782 0.750000
O O12 0.201220 0.000000 0.000000
O O13 0.000000 0.128447 0.803238
#
# Coordination Sequence:
#
# PCOD9536237 Si02
#       5
#    16  16  16  16  16
#     4   9  16  29  53  82 108 143 196 245 273 315
#     4  11  23  37  55  84 121 153 183 227 282 335
#     4  10  19  33  54  82 113 145 187 227 272 331
#     4  11  22  41  67  88 108 140 186 232 279 333
#     4   9  17  31  53  80 112 150 191 234 280 326
#
# _framework density 18.315871999999999
#
# number of rings (size 3 to 8) (size 9 to 14) (size 15 to 20)
#    0.000    2.000    4.000    4.200    0.000    2.000 
#    0.000    4.000    0.000    3.600    0.000    0.000 
#    0.000    0.000    0.000    0.000    0.000    0.000 
#
# Total GULP energy -223232.359182 kJ/mol
# GULP energy per Si atom -5580.808980 kJ/mol
# Density = 1.827418 g / cm^3
# Si number density = 18.315872 Si / 1000 Ang^3
#
#
#
# Elastic Constant Matrix: (Units=GPa)
#
#
# Indices 1 2 3 4 5 6 
#
# 1 104.2124 33.8662 67.5588 0.0000 0.0000 0.0000
# 2 33.8662 55.7991 36.5484 0.0000 0.0000 0.0000
# 3 67.5588 36.5484 123.9488 0.0000 0.0000 0.0000
# 4 0.0000 0.0000 0.0000 6.0896 0.0000 0.0000
# 5 0.0000 0.0000 0.0000 0.0000 39.8049 0.0000
# 6 0.0000 0.0000 0.0000 0.0000 0.0000 5.6023
#
#
#
# Elastic Compliance Matrix: (Units=1/GPa)
#
#
# Indices 1 2 3 4 5 6 
#
# 1 0.015855 -0.004911 -0.007194 0.000000 0.000000 0.000000
# 2 -0.004911 0.023732 -0.004321 0.000000 0.000000 0.000000
# 3 -0.007194 -0.004321 0.013263 0.000000 0.000000 0.000000
# 4 0.000000 0.000000 0.000000 0.164213 0.000000 0.000000
# 5 0.000000 0.000000 0.000000 0.000000 0.025123 0.000000
# 6 0.000000 0.000000 0.000000 0.000000 0.000000 0.178500
#
#
# Mechanical properties :
#
#
# Convention : Reuss Voigt Hill
#
# Bulk Modulus (GPa) = 50.00335 62.21191 56.10763
# Shear Modulus (GPa) = 10.86472 20.03182 15.44827
#
# Velocity S-wave (km/s) = 2.43818 3.31068 2.90735
# Velocity P-wave (km/s) = 5.94021 6.97524 6.47843
#
# Compressibility (1/GPa) = 0.01999866
#
# Stress axis : x y z
#
# Youngs Moduli (GPa) = 63.06966 42.13642 75.39717
#
# Poissons Ratio (x) = 0.20694 0.54241
# Poissons Ratio (y) = 0.30974 0.32580
# Poissons Ratio (z) = 0.45372 0.18207
#
# Static dielectric constant tensor:
#      x y z
#    x 1.635980 0.000000 0.000000 
#    y 0.000000 1.620180 0.000000 
#    z 0.000000 0.000000 1.635920 
# 
# From -- ./inp_files/10973.got.cif
#   From: 2010.05.17/outbox.cif.g08.bks.cpg/sg74_6_cif.got.tgz:10973.got - 2010.06.03 17:57:02.
