data_PCOD9536091
_publ_section_title
;
Structure prediction by ZEFSAII (Michael W. Deem and Ramdas Pophale) SiO2 
 PCOD9536091
Probable space group: I M M A
;
_chemical_formula_sum "Si O2"
_cell_formula_units_Z 104
_cell_length_a 32.605495
_cell_length_b 8.839630
_cell_length_c 21.234779
_cell_angle_alpha 90.000000
_cell_angle_beta 90.000000
_cell_angle_gamma 90.000000
_cell_volume 6120.298871
_symmetry_space_group_name_H-M "I M M A"
_symmetry_group_IT_number 74
_symmetry_cell_setting 'orthorhombic'
loop_
_space_group_symop_operation_xyz
x,y,z
-x,1/2-y,z
x,-y,-z
-x,1/2+y,-z
-x,-y,-z
x,1/2+y,-z
-x,y,z
x,1/2-y,z
1/2+x,1/2+y,1/2+z
1/2-x,-y,1/2+z
1/2+x,1/2-y,1/2-z
1/2-x,y,1/2-z
1/2-x,1/2-y,1/2-z
1/2+x,y,1/2-z
1/2-x,1/2+y,1/2+z
1/2+x,-y,1/2+z
loop_
_atom_site_type_symbol
_atom_site_label
_atom_site_fract_x
_atom_site_fract_y
_atom_site_fract_z
Si Si1 0.070781 0.568960 0.660474
Si Si2 0.689471 0.569736 0.566647
Si Si3 0.454424 0.568208 0.291445
Si Si4 0.342066 0.069181 0.823268
Si Si5 0.786089 0.431228 0.432058
Si Si6 0.000000 0.069196 0.432545
Si Si7 0.137841 0.431775 0.820171
O O1 0.077118 0.750000 0.660914
O O2 0.049802 0.517698 0.725421
O O3 0.113349 0.482892 0.653605
O O4 0.040167 0.524170 0.605555
O O5 0.676094 0.500000 0.500000
O O6 0.685868 0.750000 0.563934
O O7 0.737723 0.532040 0.574876
O O8 0.663291 0.506161 0.624189
O O9 0.500000 0.534878 0.318970
O O10 0.452957 0.750000 0.280866
O O11 0.410950 0.529896 0.324680
O O12 0.337584 0.250000 0.825393
O O13 0.343826 0.023983 0.748812
O O14 0.309720 0.995335 0.871127
O O15 0.799520 0.500000 0.500000
O O16 0.790944 0.250000 0.434537
O O17 0.000000 0.250000 0.435389
O O18 0.000000 0.000000 0.500000
O O19 0.141001 0.250000 0.824128
#
# Coordination Sequence:
#
# PCOD9536091 Si02
#       7
#    16  16  16  16  16   8  16
#     4  10  19  33  49  70  99 131 171 219 266 310
#     4  10  21  37  58  81 107 140 177 217 266 322
#     4   9  17  31  53  78 104 137 173 210 257 314
#     4  10  21  36  54  79 108 141 178 220 270 318
#     4  10  21  37  56  78 104 140 182 223 268 321
#     4  10  22  34  46  66  92 128 173 216 261 308
#     4   9  19  34  53  81 112 141 177 218 266 317
#
# _framework density 16.992633999999999
#
# number of rings (size 3 to 8) (size 9 to 14) (size 15 to 20)
#    0.000    2.308    0.769    2.769    0.000    7.385 
#    0.000    4.615    0.000    0.462    0.000    0.000 
#    0.000    0.000    0.000    0.000    0.000    0.000 
#
# Total GULP energy -289804.924322 kJ/mol
# GULP energy per Si atom -5573.171622 kJ/mol
# Density = 1.695396 g / cm^3
# Si number density = 16.992634 Si / 1000 Ang^3
#
#
#
# Elastic Constant Matrix: (Units=GPa)
#
#
# Indices 1 2 3 4 5 6 
#
# 1 105.0207 38.7867 88.0033 0.0000 0.0000 0.0000
# 2 38.7867 25.3180 43.8829 0.0000 0.0000 0.0000
# 3 88.0033 43.8829 134.6041 0.0000 0.0000 0.0000
# 4 0.0000 0.0000 0.0000 33.4757 0.0000 0.0000
# 5 0.0000 0.0000 0.0000 0.0000 28.6980 0.0000
# 6 0.0000 0.0000 0.0000 0.0000 0.0000 28.8632
#
#
#
# Elastic Compliance Matrix: (Units=1/GPa)
#
#
# Indices 1 2 3 4 5 6 
#
# 1 0.026159 -0.023985 -0.009283 0.000000 0.000000 0.000000
# 2 -0.023985 0.112806 -0.021095 0.000000 0.000000 0.000000
# 3 -0.009283 -0.021095 0.020376 0.000000 0.000000 0.000000
# 4 0.000000 0.000000 0.000000 0.029872 0.000000 0.000000
# 5 0.000000 0.000000 0.000000 0.000000 0.034846 0.000000
# 6 0.000000 0.000000 0.000000 0.000000 0.000000 0.034646
#
#
# Mechanical properties :
#
#
# Convention : Reuss Voigt Hill
#
# Bulk Modulus (GPa) = 19.75730 67.36539 43.56135
# Shear Modulus (GPa) = 13.01055 24.49205 18.75130
#
# Velocity S-wave (km/s) = 2.77005 3.80061 3.32549
# Velocity P-wave (km/s) = 4.67794 7.68046 6.35895
#
# Compressibility (1/GPa) = 0.05061420
#
# Stress axis : x y z
#
# Youngs Moduli (GPa) = 38.22751 8.86477 49.07776
#
# Poissons Ratio (x) = 0.21262 0.45560
# Poissons Ratio (y) = 0.91689 1.03530
# Poissons Ratio (z) = 0.35487 0.18700
#
# Static dielectric constant tensor:
#      x y z
#    x 1.601910 0.000000 0.000000 
#    y 0.000000 1.604230 0.000000 
#    z 0.000000 0.000000 1.547170 
# 
# From -- ./inp_files/55646.got.cif
#   From: 2010.05.17/outbox.cif.g08.bks.cpg/sg74_28_cif.got.tgz:55646.got - 2010.06.03 17:57:02.
