data_PCOD9536670
_publ_section_title
;
Structure prediction by ZEFSAII (Michael W. Deem and Ramdas Pophale) SiO2 
 PCOD9536670
Probable space group: I M M A
;
_chemical_formula_sum "Si O2"
_cell_formula_units_Z 104
_cell_length_a 21.959127
_cell_length_b 8.420821
_cell_length_c 29.117885
_cell_angle_alpha 90.000000
_cell_angle_beta 90.000000
_cell_angle_gamma 90.000000
_cell_volume 5384.301028
_symmetry_space_group_name_H-M "I M M A"
_symmetry_group_IT_number 74
_symmetry_cell_setting 'orthorhombic'
loop_
_space_group_symop_operation_xyz
x,y,z
-x,1/2-y,z
x,-y,-z
-x,1/2+y,-z
-x,-y,-z
x,1/2+y,-z
-x,y,z
x,1/2-y,z
1/2+x,1/2+y,1/2+z
1/2-x,-y,1/2+z
1/2+x,1/2-y,1/2-z
1/2-x,y,1/2-z
1/2-x,1/2-y,1/2-z
1/2+x,y,1/2-z
1/2-x,1/2+y,1/2+z
1/2+x,-y,1/2+z
loop_
_atom_site_type_symbol
_atom_site_label
_atom_site_fract_x
_atom_site_fract_y
_atom_site_fract_z
Si Si1 0.572572 0.569190 0.952044
Si Si2 0.253372 0.437489 0.447980
Si Si3 0.650850 0.932567 0.120758
Si Si4 0.430020 0.555824 0.202356
Si Si5 0.000000 0.558699 0.051599
Si Si6 0.375150 0.942243 0.399963
Si Si7 0.069775 0.443196 0.807497
O O1 0.500000 0.575375 0.954246
O O2 0.594604 0.750000 0.944416
O O3 0.592879 0.451664 0.912461
O O4 0.595874 0.500000 0.000000
O O5 0.243313 0.500000 0.500000
O O6 0.252735 0.250000 0.451236
O O7 0.203683 0.489742 0.409847
O O8 0.318045 0.493957 0.427871
O O9 0.668177 0.750000 0.128140
O O10 0.623562 0.000028 0.168353
O O11 0.500000 0.506967 0.190295
O O12 0.429894 0.750000 0.200388
O O13 0.418325 0.507834 0.255107
O O14 0.061850 0.506925 0.076240
O O15 0.000000 0.750000 0.052984
O O16 0.000000 0.500000 0.000000
O O17 0.371696 0.750000 0.400793
O O18 0.383052 0.993656 0.346753
O O19 0.069876 0.250000 0.807671
O O20 0.000000 0.490166 0.819183
#
# Coordination Sequence:
#
# PCOD9536670 Si02
#       7
#    16  16  16  16   8  16  16
#     4  10  20  33  50  74 104 138 177 224 279 336
#     4  12  26  43  59  77 106 147 191 234 280 335
#     4  11  21  35  55  79 108 144 187 234 280 328
#     4   8  15  28  52  87 119 145 180 228 278 323
#     4  10  20  32  52  84 116 144 174 218 273 328
#     4  10  19  35  59  87 115 145 182 223 274 329
#     4   8  13  27  54  87 119 147 177 221 273 325
#
# _framework density 19.315414000000001
#
# number of rings (size 3 to 8) (size 9 to 14) (size 15 to 20)
#    0.000    2.154    0.769    4.615    0.000    3.385 
#    0.000    0.769    0.000    6.462    0.000    4.308 
#    0.000    0.000    0.000    0.000    0.000    0.000 
#
# Total GULP energy -289896.966711 kJ/mol
# GULP energy per Si atom -5574.941668 kJ/mol
# Density = 1.927145 g / cm^3
# Si number density = 19.315414 Si / 1000 Ang^3
#
#
#
# Elastic Constant Matrix: (Units=GPa)
#
#
# Indices 1 2 3 4 5 6 
#
# 1 120.1102 32.0551 78.0805 0.0000 0.0000 0.0000
# 2 32.0551 36.4835 22.7794 0.0000 0.0000 0.0000
# 3 78.0805 22.7794 144.8964 0.0000 0.0000 0.0000
# 4 0.0000 0.0000 0.0000 16.0199 0.0000 0.0000
# 5 0.0000 0.0000 0.0000 0.0000 223.6321 0.0000
# 6 0.0000 0.0000 0.0000 0.0000 0.0000 21.4972
#
#
#
# Elastic Compliance Matrix: (Units=1/GPa)
#
#
# Indices 1 2 3 4 5 6 
#
# 1 0.015119 -0.009089 -0.006718 0.000000 0.000000 0.000000
# 2 -0.009089 0.035857 -0.000739 0.000000 0.000000 0.000000
# 3 -0.006718 -0.000739 0.010638 0.000000 0.000000 0.000000
# 4 0.000000 0.000000 0.000000 0.062423 0.000000 0.000000
# 5 0.000000 0.000000 0.000000 0.000000 0.004472 0.000000
# 6 0.000000 0.000000 0.000000 0.000000 0.000000 0.046518
#
#
# Mechanical properties :
#
#
# Convention : Reuss Voigt Hill
#
# Bulk Modulus (GPa) = 35.06224 63.03559 49.04891
# Shear Modulus (GPa) = 22.97530 63.46816 43.22173
#
# Velocity S-wave (km/s) = 3.45263 5.73848 4.73555
# Velocity P-wave (km/s) = 5.83832 8.75286 7.43971
#
# Compressibility (1/GPa) = 0.02852071
#
# Stress axis : x y z
#
# Youngs Moduli (GPa) = 66.14370 27.88859 94.00340
#
# Poissons Ratio (x) = 0.25348 0.63152
# Poissons Ratio (y) = 0.60117 0.06951
# Poissons Ratio (z) = 0.44436 0.02062
#
# Static dielectric constant tensor:
#      x y z
#    x 1.686180 0.000000 0.000000 
#    y 0.000000 1.691990 0.000000 
#    z 0.000000 0.000000 1.698780 
# 
# From -- ./inp_files/73359.got.cif
#   From: 2010.05.17/outbox.cif.g08.bks.cpg/sg74_37_cif.got.tgz:73359.got - 2010.06.03 17:57:02.
