data_PCOD9536298
_publ_section_title
;
Structure prediction by ZEFSAII (Michael W. Deem and Ramdas Pophale) SiO2 
 PCOD9536298
Probable space group: I M M A
;
_chemical_formula_sum "Si O2"
_cell_formula_units_Z 96
_cell_length_a 14.491245
_cell_length_b 21.544968
_cell_length_c 16.379871
_cell_angle_alpha 90.000000
_cell_angle_beta 90.000000
_cell_angle_gamma 90.000000
_cell_volume 5114.015377
_symmetry_space_group_name_H-M "I M M A"
_symmetry_group_IT_number 74
_symmetry_cell_setting 'orthorhombic'
loop_
_space_group_symop_operation_xyz
x,y,z
-x,1/2-y,z
x,-y,-z
-x,1/2+y,-z
-x,-y,-z
x,1/2+y,-z
-x,y,z
x,1/2-y,z
1/2+x,1/2+y,1/2+z
1/2-x,-y,1/2+z
1/2+x,1/2-y,1/2-z
1/2-x,y,1/2-z
1/2-x,1/2-y,1/2-z
1/2+x,y,1/2-z
1/2-x,1/2+y,1/2+z
1/2+x,-y,1/2+z
loop_
_atom_site_type_symbol
_atom_site_label
_atom_site_fract_x
_atom_site_fract_y
_atom_site_fract_z
Si Si1 0.889372 0.353212 0.468224
Si Si2 0.852423 0.317102 0.287130
Si Si3 0.107968 0.453564 0.692199
Si Si4 0.100946 0.564594 0.815232
Si Si5 0.765694 0.465503 0.424825
Si Si6 0.888461 0.182758 0.652352
O O1 0.856549 0.320052 0.385248
O O2 0.841930 0.419844 0.461718
O O3 0.864341 0.324784 0.556136
O O4 0.000000 0.356726 0.464733
O O5 0.893466 0.250000 0.262525
O O6 0.750000 0.317589 0.250000
O O7 0.895973 0.380288 0.251769
O O8 0.110189 0.497510 0.771617
O O9 0.178659 0.486818 0.631557
O O10 0.135640 0.381256 0.698457
O O11 0.000000 0.455442 0.663248
O O12 0.188723 0.570509 0.873370
O O13 0.000000 0.567591 0.855276
O O14 0.718410 0.500000 0.500000
O O15 0.853721 0.250000 0.681883
O O16 0.000000 0.185041 0.655809
#
# Coordination Sequence:
#
# PCOD9536298 Si02
#       6
#    16  16  16  16  16  16
#     4  11  20  32  51  80 114 144 170 206 264 330
#     4  11  21  34  54  80 113 149 181 216 264 323
#     4  10  19  33  56  82 110 140 170 216 274 325
#     4  11  23  39  56  76 106 143 188 230 265 309
#     4  12  22  35  55  79 106 141 184 227 267 316
#     4   9  18  31  50  81 114 140 168 203 259 332
#
# _framework density 18.771941999999999
#
# number of rings (size 3 to 8) (size 9 to 14) (size 15 to 20)
#    0.000    1.333    5.000    2.000    0.000    3.000 
#    0.000    0.000    0.000    2.000    0.000    0.000 
#    0.000    0.000    0.000    0.000    0.000    0.000 
#
# Total GULP energy -267535.550311 kJ/mol
# GULP energy per Si atom -5573.657298 kJ/mol
# Density = 1.872922 g / cm^3
# Si number density = 18.771942 Si / 1000 Ang^3
#
#
#
# Elastic Constant Matrix: (Units=GPa)
#
#
# Indices 1 2 3 4 5 6 
#
# 1 58.4230 5.1977 5.2423 -0.0001 0.0000 0.0000
# 2 5.1977 116.2618 -3.6551 -0.0001 0.0000 -0.0001
# 3 5.2423 -3.6551 22.3282 -0.0002 0.0000 -0.0001
# 4 -0.0001 -0.0001 -0.0002 13.4264 0.0000 0.0000
# 5 0.0000 0.0000 0.0000 0.0000 15.1115 0.0000
# 6 0.0000 -0.0001 -0.0001 0.0000 0.0000 21.0271
#
#
#
# Elastic Compliance Matrix: (Units=1/GPa)
#
#
# Indices 1 2 3 4 5 6 
#
# 1 0.017582 -0.000921 -0.004279 0.000000 0.000000 0.000000
# 2 -0.000921 0.008694 0.001639 0.000000 0.000000 0.000000
# 3 -0.004279 0.001639 0.046059 0.000001 0.000000 0.000000
# 4 0.000000 0.000000 0.000001 0.074480 0.000000 0.000000
# 5 0.000000 0.000000 0.000000 0.000000 0.066175 0.000000
# 6 0.000000 0.000000 0.000000 0.000000 0.000000 0.047558
#
#
# Mechanical properties :
#
#
# Convention : Reuss Voigt Hill
#
# Bulk Modulus (GPa) = 15.33374 23.39810 19.36592
# Shear Modulus (GPa) = 17.27671 22.59487 19.93579
#
# Velocity S-wave (km/s) = 3.03701 3.47313 3.26237
# Velocity P-wave (km/s) = 4.52594 5.34556 4.95273
#
# Compressibility (1/GPa) = 0.06521566
#
# Stress axis : x y z
#
# Youngs Moduli (GPa) = 56.87514 115.02222 21.71111
#
# Poissons Ratio (x) = 0.10589 0.09290
# Poissons Ratio (y) = 0.05236 -0.03559
# Poissons Ratio (z) = 0.24336 -0.18856
#
# Static dielectric constant tensor:
#      x y z
#    x 1.650780 0.000000 0.000000 
#    y 0.000000 1.717170 0.000000 
#    z 0.000000 0.000000 1.659640 
# 
# From -- ./inp_files/32336.got.cif
#   From: 2010.05.17/outbox.cif.g08.bks.cpg/sg74_17_cif.got.tgz:32336.got - 2010.06.03 17:57:02.
