data_PCOD9536014
_publ_section_title
;
Structure prediction by ZEFSAII (Michael W. Deem and Ramdas Pophale) SiO2 
 PCOD9536014
Probable space group: I M M A
;
_chemical_formula_sum "Si O2"
_cell_formula_units_Z 104
_cell_length_a 27.223349
_cell_length_b 8.732644
_cell_length_c 23.035270
_cell_angle_alpha 90.000000
_cell_angle_beta 90.000000
_cell_angle_gamma 90.000000
_cell_volume 5476.216553
_symmetry_space_group_name_H-M "I M M A"
_symmetry_group_IT_number 74
_symmetry_cell_setting 'orthorhombic'
loop_
_space_group_symop_operation_xyz
x,y,z
-x,1/2-y,z
x,-y,-z
-x,1/2+y,-z
-x,-y,-z
x,1/2+y,-z
-x,y,z
x,1/2-y,z
1/2+x,1/2+y,1/2+z
1/2-x,-y,1/2+z
1/2+x,1/2-y,1/2-z
1/2-x,y,1/2-z
1/2-x,1/2-y,1/2-z
1/2+x,y,1/2-z
1/2-x,1/2+y,1/2+z
1/2+x,-y,1/2+z
loop_
_atom_site_type_symbol
_atom_site_label
_atom_site_fract_x
_atom_site_fract_y
_atom_site_fract_z
Si Si1 0.907816 0.430719 0.370389
Si Si2 0.500000 0.931035 0.063646
Si Si3 0.699352 0.065380 0.564471
Si Si4 0.441767 0.432654 0.749654
Si Si5 0.194948 0.418529 0.271228
Si Si6 0.873420 0.570211 0.840262
Si Si7 0.192914 0.927310 0.388368
O O1 0.914455 0.250000 0.372991
O O2 0.952187 0.512820 0.402612
O O3 0.913188 0.485254 0.303000
O O4 0.856736 0.479391 0.401143
O O5 0.500000 0.750000 0.060962
O O6 0.500000 0.000000 0.000000
O O7 0.698103 0.250000 0.564638
O O8 0.754315 0.018865 0.586969
O O9 0.693107 0.000000 0.500000
O O10 0.656034 0.003687 0.606219
O O11 0.500000 0.464930 0.755281
O O12 0.434404 0.250000 0.754861
O O13 0.421322 0.489546 0.687330
O O14 0.181256 0.250000 0.297130
O O15 0.250000 0.407824 0.250000
O O16 0.163429 0.443025 0.214226
O O17 0.194410 0.549578 0.318995
O O18 0.882602 0.750000 0.851591
O O19 0.186568 0.750000 0.404202
#
# Coordination Sequence:
#
# PCOD9536014 Si02
#       7
#    16   8  16  16  16  16  16
#     4  12  24  39  62  91 125 165 208 259 313 367
#     4  12  26  46  66  86 116 160 213 262 309 366
#     4  11  25  43  63  88 122 166 212 257 307 370
#     4  11  23  39  62  93 129 164 202 257 316 374
#     4  10  19  32  53  84 120 155 192 238 296 360
#     4  11  22  37  62  93 125 161 203 253 311 378
#     4  11  23  37  58  88 123 161 204 255 306 360
#
# _framework density 18.991213999999999
#
# number of rings (size 3 to 8) (size 9 to 14) (size 15 to 20)
#    0.000    0.923    3.846    3.923    0.000    4.308 
#    0.000    1.538    0.000    0.462    0.000    0.000 
#    0.000    0.000    0.000    0.000    0.000    0.000 
#
# Total GULP energy -290316.292171 kJ/mol
# GULP energy per Si atom -5583.005619 kJ/mol
# Density = 1.894799 g / cm^3
# Si number density = 18.991214 Si / 1000 Ang^3
#
#
#
# Elastic Constant Matrix: (Units=GPa)
#
#
# Indices 1 2 3 4 5 6 
#
# 1 74.7185 36.5433 36.8971 0.0000 0.0000 0.0000
# 2 36.5433 108.8801 42.5065 0.0000 0.0000 0.0000
# 3 36.8971 42.5065 97.6694 0.0000 0.0000 0.0000
# 4 0.0000 0.0000 0.0000 31.2343 0.0000 0.0000
# 5 0.0000 0.0000 0.0000 0.0000 16.9924 0.0000
# 6 0.0000 0.0000 0.0000 0.0000 0.0000 17.5052
#
#
#
# Elastic Compliance Matrix: (Units=1/GPa)
#
#
# Indices 1 2 3 4 5 6 
#
# 1 0.017814 -0.004038 -0.004972 0.000000 0.000000 0.000000
# 2 -0.004038 0.011979 -0.003688 0.000000 0.000000 0.000000
# 3 -0.004972 -0.003688 0.013722 0.000000 0.000000 0.000000
# 4 0.000000 0.000000 0.000000 0.032016 0.000000 0.000000
# 5 0.000000 0.000000 0.000000 0.000000 0.058850 0.000000
# 6 0.000000 0.000000 0.000000 0.000000 0.000000 0.057126
#
#
# Mechanical properties :
#
#
# Convention : Reuss Voigt Hill
#
# Bulk Modulus (GPa) = 55.19094 57.01798 56.10446
# Shear Modulus (GPa) = 22.42723 24.16778 23.29751
#
# Velocity S-wave (km/s) = 3.44019 3.57119 3.50630
# Velocity P-wave (km/s) = 6.70106 6.86244 6.78223
#
# Compressibility (1/GPa) = 0.01811891
#
# Stress axis : x y z
#
# Youngs Moduli (GPa) = 56.13656 83.47647 72.87451
#
# Poissons Ratio (x) = 0.33704 0.36236
# Poissons Ratio (y) = 0.22666 0.26878
# Poissons Ratio (z) = 0.27913 0.30788
#
# Static dielectric constant tensor:
#      x y z
#    x 1.714340 0.000000 0.000000 
#    y 0.000000 1.678760 0.000000 
#    z 0.000000 0.000000 1.640630 
# 
# From -- ./inp_files/55211.got.cif
#   From: 2010.05.17/outbox.cif.g08.bks.cpg/sg74_28_cif.got.tgz:55211.got - 2010.06.03 17:57:02.
