data_PCOD9536846
_publ_section_title
;
Structure prediction by ZEFSAII (Michael W. Deem and Ramdas Pophale) SiO2 
 PCOD9536846
Probable space group: I M M A
;
_chemical_formula_sum "Si O2"
_cell_formula_units_Z 64
_cell_length_a 16.594197
_cell_length_b 16.941058
_cell_length_c 11.615411
_cell_angle_alpha 90.000000
_cell_angle_beta 90.000000
_cell_angle_gamma 90.000000
_cell_volume 3265.362135
_symmetry_space_group_name_H-M "I M M A"
_symmetry_group_IT_number 74
_symmetry_cell_setting 'orthorhombic'
loop_
_space_group_symop_operation_xyz
x,y,z
-x,1/2-y,z
x,-y,-z
-x,1/2+y,-z
-x,-y,-z
x,1/2+y,-z
-x,y,z
x,1/2-y,z
1/2+x,1/2+y,1/2+z
1/2-x,-y,1/2+z
1/2+x,1/2-y,1/2-z
1/2-x,y,1/2-z
1/2-x,1/2-y,1/2-z
1/2+x,y,1/2-z
1/2-x,1/2+y,1/2+z
1/2+x,-y,1/2+z
loop_
_atom_site_type_symbol
_atom_site_label
_atom_site_fract_x
_atom_site_fract_y
_atom_site_fract_z
Si Si1 0.000000 0.345777 0.257199
Si Si2 0.500000 0.654169 0.024285
Si Si3 0.170944 0.086632 0.164126
Si Si4 0.853295 0.657803 0.326080
Si Si5 0.183010 0.403207 0.899953
O O1 0.085337 0.380386 0.210603
O O2 0.000000 0.250000 0.243118
O O3 0.000000 0.366380 0.392123
O O4 0.500000 0.750000 0.031070
O O5 0.576545 0.626374 0.094354
O O6 0.250000 0.099187 0.250000
O O7 0.164052 0.993461 0.134197
O O8 0.179383 0.119886 0.033690
O O9 0.839092 0.750000 0.348607
O O10 0.868919 0.647392 0.190420
O O11 0.774549 0.611555 0.363246
#
# Coordination Sequence:
#
# PCOD9536846 Si02
#       5
#     8   8  16  16  16
#     4  11  26  43  61  91 123 164 217 256 307 377
#     4   9  20  38  61  90 122 155 202 262 312 361
#     4  11  23  42  63  88 128 167 202 255 314 370
#     4  10  19  37  63  92 123 157 208 264 306 360
#     4  10  21  37  60  91 124 160 210 245 310 373
#
# _framework density 19.599663
#
# number of rings (size 3 to 8) (size 9 to 14) (size 15 to 20)
#    0.000    1.750    2.500    3.000    0.000    6.500 
#    0.000    2.500    0.000    0.000    0.000    0.000 
#    0.000    0.000    0.000    0.000    0.000    0.000 
#
# Total GULP energy -178153.217586 kJ/mol
# GULP energy per Si atom -5567.288050 kJ/mol
# Density = 1.955505 g / cm^3
# Si number density = 19.599663 Si / 1000 Ang^3
#
#
#
# Elastic Constant Matrix: (Units=GPa)
#
#
# Indices 1 2 3 4 5 6 
#
# 1 149.4527 45.2891 106.6648 0.0000 0.0000 0.0000
# 2 45.2891 51.6697 20.9417 0.0000 0.0000 0.0000
# 3 106.6648 20.9417 198.8258 0.0000 0.0000 0.0000
# 4 0.0000 0.0000 0.0000 32.0654 0.0000 0.0000
# 5 0.0000 0.0000 0.0000 0.0000 38.4491 0.0000
# 6 0.0000 0.0000 0.0000 0.0000 0.0000 35.6593
#
#
#
# Elastic Compliance Matrix: (Units=1/GPa)
#
#
# Indices 1 2 3 4 5 6 
#
# 1 0.014538 -0.010009 -0.006745 0.000000 0.000000 0.000000
# 2 -0.010009 0.027108 0.002514 0.000000 0.000000 0.000000
# 3 -0.006745 0.002514 0.008383 0.000000 0.000000 0.000000
# 4 0.000000 0.000000 0.000000 0.031186 0.000000 0.000000
# 5 0.000000 0.000000 0.000000 0.000000 0.026008 0.000000
# 6 0.000000 0.000000 0.000000 0.000000 0.000000 0.028043
#
#
# Mechanical properties :
#
#
# Convention : Reuss Voigt Hill
#
# Bulk Modulus (GPa) = 46.40457 82.85993 64.63225
# Shear Modulus (GPa) = 29.25179 36.37160 32.81169
#
# Velocity S-wave (km/s) = 3.86743 4.31249 4.09601
# Velocity P-wave (km/s) = 6.60835 8.19541 7.44429
#
# Compressibility (1/GPa) = 0.02154960
#
# Stress axis : x y z
#
# Youngs Moduli (GPa) = 68.78445 36.88992 119.28516
#
# Poissons Ratio (x) = 0.36923 0.80459
# Poissons Ratio (y) = 0.68847 -0.29993
# Poissons Ratio (z) = 0.46396 -0.09276
#
# Static dielectric constant tensor:
#      x y z
#    x 1.688640 0.000000 0.000000 
#    y 0.000000 1.711900 0.000000 
#    z 0.000000 0.000000 1.747170 
# 
# From -- ./inp_files/19975.got.cif
#   From: 2010.05.17/outbox.cif.g08.bks.cpg/sg74_10_cif.got.tgz:19975.got - 2010.06.03 17:57:02.
