data_PCOD9536032
_publ_section_title
;
Structure prediction by ZEFSAII (Michael W. Deem and Ramdas Pophale) SiO2 
 PCOD9536032
Probable space group: I M M A
;
_chemical_formula_sum "Si O2"
_cell_formula_units_Z 96
_cell_length_a 14.289697
_cell_length_b 15.182461
_cell_length_c 21.249437
_cell_angle_alpha 90.000000
_cell_angle_beta 90.000000
_cell_angle_gamma 90.000000
_cell_volume 4610.124163
_symmetry_space_group_name_H-M "I M M A"
_symmetry_group_IT_number 74
_symmetry_cell_setting 'orthorhombic'
loop_
_space_group_symop_operation_xyz
x,y,z
-x,1/2-y,z
x,-y,-z
-x,1/2+y,-z
-x,-y,-z
x,1/2+y,-z
-x,y,z
x,1/2-y,z
1/2+x,1/2+y,1/2+z
1/2-x,-y,1/2+z
1/2+x,1/2-y,1/2-z
1/2-x,y,1/2-z
1/2-x,1/2-y,1/2-z
1/2+x,y,1/2-z
1/2-x,1/2+y,1/2+z
1/2+x,-y,1/2+z
loop_
_atom_site_type_symbol
_atom_site_label
_atom_site_fract_x
_atom_site_fract_y
_atom_site_fract_z
Si Si1 0.284740 0.151887 0.084284
Si Si2 0.896938 0.562848 0.134330
Si Si3 0.893189 0.355158 0.003836
Si Si4 0.689298 0.980398 0.151070
Si Si5 0.862091 0.344309 0.745785
Si Si6 0.104801 0.402874 0.531309
O O1 0.273900 0.250000 0.110801
O O2 0.330753 0.080400 0.130630
O O3 0.184826 0.119560 0.055290
O O4 0.348780 0.155039 0.022158
O O5 0.883007 0.594800 0.062549
O O6 0.801841 0.517354 0.159044
O O7 0.900060 0.643056 0.184216
O O8 0.000000 0.519319 0.138008
O O9 0.881661 0.250000 0.993084
O O10 0.000000 0.370326 0.025356
O O11 0.627801 0.933683 0.205010
O O12 0.668301 0.916103 0.092165
O O13 0.893784 0.250000 0.718606
O O14 0.750000 0.338849 0.750000
O O15 0.100532 0.500000 0.500000
O O16 0.000000 0.375436 0.548076
#
# Coordination Sequence:
#
# PCOD9536032 Si02
#       6
#    16  16  16  16  16  16
#     4  10  20  34  53  77 110 148 186 227 273 326
#     4  10  19  32  54  81 111 146 182 222 275 336
#     4   9  17  29  49  80 115 147 179 217 266 330
#     4  10  20  35  53  79 111 145 183 228 274 329
#     4   9  19  34  52  74 104 140 177 220 270 323
#     4   9  18  33  51  72 101 137 177 226 277 321
#
# _framework density 20.823734000000002
#
# number of rings (size 3 to 8) (size 9 to 14) (size 15 to 20)
#    0.000    2.500    1.667    0.500    0.000    4.000 
#    0.000    1.667    0.000    4.500    0.000    0.000 
#    0.000    0.000    0.000    0.000    0.000    0.000 
#
# Total GULP energy -267222.666876 kJ/mol
# GULP energy per Si atom -5567.138893 kJ/mol
# Density = 2.077634 g / cm^3
# Si number density = 20.823734 Si / 1000 Ang^3
#
#
#
# Elastic Constant Matrix: (Units=GPa)
#
#
# Indices 1 2 3 4 5 6 
#
# 1 88.0205 -5.3218 -8.3854 0.0000 0.0000 0.0000
# 2 -5.3218 97.4585 37.5315 0.0000 0.0000 0.0000
# 3 -8.3854 37.5315 52.9377 0.0000 0.0000 0.0000
# 4 0.0000 0.0000 0.0000 24.3797 0.0000 0.0000
# 5 0.0000 0.0000 0.0000 0.0000 -4.8577 0.0000
# 6 0.0000 0.0000 0.0000 0.0000 0.0000 -23.5895
#
#
#
# Elastic Compliance Matrix: (Units=1/GPa)
#
#
# Indices 1 2 3 4 5 6 
#
# 1 0.011536 -0.000101 0.001899 0.000000 0.000000 0.000000
# 2 -0.000101 0.014115 -0.010023 0.000000 0.000000 0.000000
# 3 0.001899 -0.010023 0.026297 0.000000 0.000000 0.000000
# 4 0.000000 0.000000 0.000000 0.041018 0.000000 0.000000
# 5 0.000000 0.000000 0.000000 0.000000 -0.205858 0.000000
# 6 0.000000 0.000000 0.000000 0.000000 0.000000 -0.042392
#
#
# Mechanical properties :
#
#
# Convention : Reuss Voigt Hill
#
# Bulk Modulus (GPa) = 28.17141 31.78506 29.97823
# Shear Modulus (GPa) = -39.37023 13.49266 -12.93878
#
# Velocity S-wave (km/s) = -4.35287 2.54824 -2.49539
# Velocity P-wave (km/s) = 3.42132 4.89439 2.47484
#
# Compressibility (1/GPa) = 0.03549698
#
# Stress axis : x y z
#
# Youngs Moduli (GPa) = 86.68680 70.84506 38.02660
#
# Poissons Ratio (x) = 0.00719 -0.07222
# Poissons Ratio (y) = 0.00880 0.38116
# Poissons Ratio (z) = -0.16464 0.71011
#
# Static dielectric constant tensor:
#      x y z
#    x 1.812470 0.000000 0.000000 
#    y 0.000000 1.797590 0.000000 
#    z 0.000000 0.000000 1.769820 
# 
# From -- ./inp_files/51859.got.cif
#   From: 2010.05.17/outbox.cif.g08.bks.cpg/sg74_26_cif.got.tgz:51859.got - 2010.06.03 17:57:02.
