data_PCOD9536357
_publ_section_title
;
Structure prediction by ZEFSAII (Michael W. Deem and Ramdas Pophale) SiO2 
 PCOD9536357
Probable space group: I M M A
;
_chemical_formula_sum "Si O2"
_cell_formula_units_Z 96
_cell_length_a 22.177719
_cell_length_b 12.832157
_cell_length_c 21.570152
_cell_angle_alpha 90.000000
_cell_angle_beta 90.000000
_cell_angle_gamma 90.000000
_cell_volume 6138.605816
_symmetry_space_group_name_H-M "I M M A"
_symmetry_group_IT_number 74
_symmetry_cell_setting 'orthorhombic'
loop_
_space_group_symop_operation_xyz
x,y,z
-x,1/2-y,z
x,-y,-z
-x,1/2+y,-z
-x,-y,-z
x,1/2+y,-z
-x,y,z
x,1/2-y,z
1/2+x,1/2+y,1/2+z
1/2-x,-y,1/2+z
1/2+x,1/2-y,1/2-z
1/2-x,y,1/2-z
1/2-x,1/2-y,1/2-z
1/2+x,y,1/2-z
1/2-x,1/2+y,1/2+z
1/2+x,-y,1/2+z
loop_
_atom_site_type_symbol
_atom_site_label
_atom_site_fract_x
_atom_site_fract_y
_atom_site_fract_z
Si Si1 0.807220 0.049351 0.564590
Si Si2 0.845901 0.750000 0.233644
Si Si3 0.650654 0.131895 0.278521
Si Si4 0.932407 0.624487 0.399195
Si Si5 0.270036 0.632030 0.846661
Si Si6 0.734867 0.750000 0.140541
Si Si7 0.429936 0.942236 0.243425
O O1 0.877000 0.084965 0.559990
O O2 0.774749 0.148578 0.597120
O O3 0.785275 0.000000 0.500000
O O4 0.799804 0.953851 0.611225
O O5 0.797328 0.750000 0.178475
O O6 0.812846 0.750000 0.301491
O O7 0.887894 0.649094 0.230621
O O8 0.629188 0.250000 0.289320
O O9 0.691296 0.132931 0.216362
O O10 0.700551 0.104784 0.330625
O O11 0.598113 0.049844 0.267439
O O12 0.927746 0.750000 0.391215
O O13 0.926531 0.571658 0.331359
O O14 0.000000 0.602511 0.422899
O O15 0.271377 0.750000 0.872013
O O16 0.500000 0.930344 0.260177
#
# Coordination Sequence:
#
# PCOD9536357 Si02
#       7
#    16   8  16  16  16   8  16
#     4  12  22  33  52  71 104 133 178 216 250 301
#     4  11  19  34  60  74 107 123 174 224 264 339
#     4   9  17  31  49  68  98 133 172 202 243 317
#     4  10  19  34  50  67  99 137 181 219 253 293
#     4   9  18  32  49  70  93 134 172 205 258 295
#     4  11  22  36  52  84  96 137 174 214 282 299
#     4  11  18  28  49  77 104 131 161 209 270 308
#
# _framework density 15.638731
#
# number of rings (size 3 to 8) (size 9 to 14) (size 15 to 20)
#    0.000    1.667    5.000    2.250    1.167    3.333 
#    0.000    0.000    0.000    0.500    0.000    0.000 
#    0.000   16.667    0.000    0.000    0.000    0.000 
#
# Total GULP energy -267424.198637 kJ/mol
# GULP energy per Si atom -5571.337472 kJ/mol
# Density = 1.560314 g / cm^3
# Si number density = 15.638731 Si / 1000 Ang^3
#
#
#
# Elastic Constant Matrix: (Units=GPa)
#
#
# Indices 1 2 3 4 5 6 
#
# 1 90.2650 45.8520 19.9517 0.0000 0.0000 0.0000
# 2 45.8520 83.7452 27.0321 0.0000 0.0000 0.0000
# 3 19.9517 27.0321 39.2346 0.0000 0.0000 0.0000
# 4 0.0000 0.0000 0.0000 13.1181 0.0000 0.0000
# 5 0.0000 0.0000 0.0000 0.0000 12.2346 0.0000
# 6 0.0000 0.0000 0.0000 0.0000 0.0000 90.1710
#
#
#
# Elastic Compliance Matrix: (Units=1/GPa)
#
#
# Indices 1 2 3 4 5 6 
#
# 1 0.015554 -0.007669 -0.002626 0.000000 0.000000 0.000000
# 2 -0.007669 0.019137 -0.009285 0.000000 0.000000 0.000000
# 3 -0.002626 -0.009285 0.033221 0.000000 0.000000 0.000000
# 4 0.000000 0.000000 0.000000 0.076231 0.000000 0.000000
# 5 0.000000 0.000000 0.000000 0.000000 0.081736 0.000000
# 6 0.000000 0.000000 0.000000 0.000000 0.000000 0.011090
#
#
# Mechanical properties :
#
#
# Convention : Reuss Voigt Hill
#
# Bulk Modulus (GPa) = 34.78070 44.32406 39.55238
# Shear Modulus (GPa) = 17.50010 31.13200 24.31605
#
# Velocity S-wave (km/s) = 3.34881 4.46657 3.94745
# Velocity P-wave (km/s) = 6.10255 7.41649 6.79137
#
# Compressibility (1/GPa) = 0.02875158
#
# Stress axis : x y z
#
# Youngs Moduli (GPa) = 64.29040 52.25507 30.10172
#
# Poissons Ratio (x) = 0.40072 0.07905
# Poissons Ratio (y) = 0.49302 0.27951
# Poissons Ratio (z) = 0.16884 0.48521
#
# Static dielectric constant tensor:
#      x y z
#    x 1.531360 0.000000 0.000000 
#    y 0.000000 1.533370 0.000000 
#    z 0.000000 0.000000 1.520450 
# 
# From -- ./inp_files/50940.got.cif
#   From: 2010.05.17/outbox.cif.g08.bks.cpg/sg74_26_cif.got.tgz:50940.got - 2010.06.03 17:57:02.
