data_PCOD9536795
_publ_section_title
;
Structure prediction by ZEFSAII (Michael W. Deem and Ramdas Pophale) SiO2 
 PCOD9536795
Probable space group: I M M A
;
_chemical_formula_sum "Si O2"
_cell_formula_units_Z 48
_cell_length_a 13.113536
_cell_length_b 17.437457
_cell_length_c 9.700702
_cell_angle_alpha 90.000000
_cell_angle_beta 90.000000
_cell_angle_gamma 90.000000
_cell_volume 2218.227709
_symmetry_space_group_name_H-M "I M M A"
_symmetry_group_IT_number 74
_symmetry_cell_setting 'orthorhombic'
loop_
_space_group_symop_operation_xyz
x,y,z
-x,1/2-y,z
x,-y,-z
-x,1/2+y,-z
-x,-y,-z
x,1/2+y,-z
-x,y,z
x,1/2-y,z
1/2+x,1/2+y,1/2+z
1/2-x,-y,1/2+z
1/2+x,1/2-y,1/2-z
1/2-x,y,1/2-z
1/2-x,1/2-y,1/2-z
1/2+x,y,1/2-z
1/2-x,1/2+y,1/2+z
1/2+x,-y,1/2+z
loop_
_atom_site_type_symbol
_atom_site_label
_atom_site_fract_x
_atom_site_fract_y
_atom_site_fract_z
Si Si1 0.500000 0.924309 0.410617
Si Si2 0.000000 0.972512 0.659403
Si Si3 0.386334 0.834505 0.887159
Si Si4 0.293144 0.339538 0.606368
O O1 0.500000 0.953463 0.253254
O O2 0.602727 0.878337 0.437982
O O3 0.500000 0.000000 0.500000
O O4 0.000000 0.000000 0.500000
O O5 0.904380 0.914770 0.691831
O O6 0.500000 0.830004 0.955526
O O7 0.373741 0.750000 0.816888
O O8 0.295433 0.844076 0.993051
O O9 0.315724 0.250000 0.630232
O O10 0.250000 0.372339 0.750000
#
# Coordination Sequence:
#
# PCOD9536795 Si02
#       4
#     8   8  16  16
#     4  12  27  40  55  92 136 162 182 244 323 368
#     4  10  19  36  63  88 114 160 208 246 283 350
#     4   8  17  36  63  88 108 146 210 258 283 333
#     4  10  21  38  63  88 119 160 204 250 295 357
#
# _framework density 21.638897
#
# number of rings (size 3 to 8) (size 9 to 14) (size 15 to 20)
#    1.000    1.333    0.000    2.500    2.333    4.000 
#    0.000    3.333    0.000    4.000    0.000    0.000 
#    0.000    0.000    0.000    0.000    0.000    0.000 
#
# Total GULP energy -133653.510248 kJ/mol
# GULP energy per Si atom -5568.896260 kJ/mol
# Density = 2.158965 g / cm^3
# Si number density = 21.638897 Si / 1000 Ang^3
#
#
#
# Elastic Constant Matrix: (Units=GPa)
#
#
# Indices 1 2 3 4 5 6 
#
# 1 159.1355 39.6078 10.4151 0.0000 0.0000 0.0000
# 2 39.6078 70.2410 -5.3452 0.0000 0.0000 0.0000
# 3 10.4151 -5.3452 21.2744 0.0000 0.0000 0.0000
# 4 0.0000 0.0000 0.0000 22.0947 0.0000 0.0000
# 5 0.0000 0.0000 0.0000 0.0000 13.6943 0.0000
# 6 0.0000 0.0000 0.0000 0.0000 0.0000 7.7045
#
#
#
# Elastic Compliance Matrix: (Units=1/GPa)
#
#
# Indices 1 2 3 4 5 6 
#
# 1 0.007803 -0.004782 -0.005021 0.000000 0.000000 0.000000
# 2 -0.004782 0.017445 0.006724 0.000000 0.000000 0.000000
# 3 -0.005021 0.006724 0.051153 0.000000 0.000000 0.000000
# 4 0.000000 0.000000 0.000000 0.045260 0.000000 0.000000
# 5 0.000000 0.000000 0.000000 0.000000 0.073023 0.000000
# 6 0.000000 0.000000 0.000000 0.000000 0.000000 0.129793
#
#
# Mechanical properties :
#
#
# Convention : Reuss Voigt Hill
#
# Bulk Modulus (GPa) = 14.23657 37.77848 26.00753
# Shear Modulus (GPa) = 14.12234 22.43026 18.27630
#
# Velocity S-wave (km/s) = 2.55745 3.22308 2.90936
# Velocity P-wave (km/s) = 3.91333 5.59888 4.83020
#
# Compressibility (1/GPa) = 0.07024163
#
# Stress axis : x y z
#
# Youngs Moduli (GPa) = 128.15902 57.32345 19.54934
#
# Poissons Ratio (x) = 0.27412 0.09817
# Poissons Ratio (y) = 0.61286 -0.13145
# Poissons Ratio (z) = 0.64354 -0.38545
#
# Static dielectric constant tensor:
#      x y z
#    x 1.753350 0.000000 0.000000 
#    y 0.000000 1.868680 0.000000 
#    z 0.000000 0.000000 1.880800 
# 
# From -- ./inp_files/18184.got.cif
#   From: 2010.05.17/outbox.cif.g08.bks.cpg/sg74_10_cif.got.tgz:18184.got - 2010.06.03 17:57:02.
