data_PCOD9536025
_publ_section_title
;
Structure prediction by ZEFSAII (Michael W. Deem and Ramdas Pophale) SiO2 
 PCOD9536025
Probable space group: I M M A
;
_chemical_formula_sum "Si O2"
_cell_formula_units_Z 88
_cell_length_a 24.308195
_cell_length_b 9.819121
_cell_length_c 20.193610
_cell_angle_alpha 90.000000
_cell_angle_beta 90.000000
_cell_angle_gamma 90.000000
_cell_volume 4819.913984
_symmetry_space_group_name_H-M "I M M A"
_symmetry_group_IT_number 74
_symmetry_cell_setting 'orthorhombic'
loop_
_space_group_symop_operation_xyz
x,y,z
-x,1/2-y,z
x,-y,-z
-x,1/2+y,-z
-x,-y,-z
x,1/2+y,-z
-x,y,z
x,1/2-y,z
1/2+x,1/2+y,1/2+z
1/2-x,-y,1/2+z
1/2+x,1/2-y,1/2-z
1/2-x,y,1/2-z
1/2-x,1/2-y,1/2-z
1/2+x,y,1/2-z
1/2-x,1/2+y,1/2+z
1/2+x,-y,1/2+z
loop_
_atom_site_type_symbol
_atom_site_label
_atom_site_fract_x
_atom_site_fract_y
_atom_site_fract_z
Si Si1 0.641441 0.500000 0.000000
Si Si2 0.842765 0.413941 0.713240
Si Si3 0.718067 0.400902 0.110711
Si Si4 0.336105 0.408280 0.342522
Si Si5 0.562396 0.410226 0.435079
Si Si6 0.061890 0.087920 0.619247
O O1 0.683629 0.591358 0.957145
O O2 0.600165 0.441624 0.944357
O O3 0.837820 0.250000 0.717244
O O4 0.803010 0.479274 0.658149
O O5 0.830162 0.489357 0.781518
O O6 0.903429 0.451823 0.684479
O O7 0.707445 0.250000 0.140209
O O8 0.783773 0.416603 0.108235
O O9 0.338372 0.250000 0.319572
O O10 0.391909 0.440883 0.380882
O O11 0.570964 0.500000 0.500000
O O12 0.500000 0.434317 0.411096
O O13 0.567207 0.250000 0.451797
O O14 0.057031 0.250000 0.622414
O O15 0.000000 0.029555 0.614565
#
# Coordination Sequence:
#
# PCOD9536025 Si02
#       6
#     8  16  16  16  16  16
#     4  10  19  32  54  80 107 138 182 224 258 314
#     4  10  21  36  54  79 107 139 181 226 266 312
#     4  10  21  36  54  77 109 146 178 216 269 321
#     4  10  21  36  55  78 107 142 178 217 269 323
#     4   9  19  36  56  78 106 138 174 218 268 321
#     4   9  18  33  52  75 106 140 174 217 268 316
#
# _framework density 18.257587000000001
#
# number of rings (size 3 to 8) (size 9 to 14) (size 15 to 20)
#    0.000    2.364    0.000    1.909    1.273    5.091 
#    0.000    0.000    0.000   10.364    0.000    0.000 
#    0.000    0.000    0.000    0.000    0.000    0.000 
#
# Total GULP energy -245014.267727 kJ/mol
# GULP energy per Si atom -5568.506085 kJ/mol
# Density = 1.821603 g / cm^3
# Si number density = 18.257587 Si / 1000 Ang^3
#
#
#
# Elastic Constant Matrix: (Units=GPa)
#
#
# Indices 1 2 3 4 5 6 
#
# 1 102.4160 32.6265 37.1736 0.0000 0.0000 0.0000
# 2 32.6265 50.1878 16.8501 0.0000 0.0000 0.0000
# 3 37.1736 16.8501 32.0336 0.0000 0.0000 0.0000
# 4 0.0000 0.0000 0.0000 28.1308 0.0000 0.0000
# 5 0.0000 0.0000 0.0000 0.0000 45.9171 0.0000
# 6 0.0000 0.0000 0.0000 0.0000 0.0000 23.5417
#
#
#
# Elastic Compliance Matrix: (Units=1/GPa)
#
#
# Indices 1 2 3 4 5 6 
#
# 1 0.018135 -0.005737 -0.018027 0.000000 0.000000 0.000000
# 2 -0.005737 0.026014 -0.007026 0.000000 0.000000 0.000000
# 3 -0.018027 -0.007026 0.055833 0.000000 0.000000 0.000000
# 4 0.000000 0.000000 0.000000 0.035548 0.000000 0.000000
# 5 0.000000 0.000000 0.000000 0.000000 0.021778 0.000000
# 6 0.000000 0.000000 0.000000 0.000000 0.000000 0.042478
#
#
# Mechanical properties :
#
#
# Convention : Reuss Voigt Hill
#
# Bulk Modulus (GPa) = 26.04093 39.77089 32.90591
# Shear Modulus (GPa) = 18.23708 26.05039 22.14373
#
# Velocity S-wave (km/s) = 3.16393 3.78143 3.48638
# Velocity P-wave (km/s) = 5.25750 6.39501 5.85395
#
# Compressibility (1/GPa) = 0.03840108
#
# Stress axis : x y z
#
# Youngs Moduli (GPa) = 55.14207 38.44145 17.91057
#
# Poissons Ratio (x) = 0.22053 0.32288
# Poissons Ratio (y) = 0.31634 0.12584
# Poissons Ratio (z) = 0.99406 0.27009
#
# Static dielectric constant tensor:
#      x y z
#    x 1.666830 0.000000 0.000000 
#    y 0.000000 1.615860 0.000000 
#    z 0.000000 0.000000 1.610310 
# 
# From -- ./inp_files/54539.got.cif
#   From: 2010.05.17/outbox.cif.g08.bks.cpg/sg74_28_cif.got.tgz:54539.got - 2010.06.03 17:57:02.
