data_PCOD9536948
_publ_section_title
;
Structure prediction by ZEFSAII (Michael W. Deem and Ramdas Pophale) SiO2 
 PCOD9536948
Probable space group: I M M A
;
_chemical_formula_sum "Si O2"
_cell_formula_units_Z 96
_cell_length_a 14.373420
_cell_length_b 14.612710
_cell_length_c 28.191485
_cell_angle_alpha 90.000000
_cell_angle_beta 90.000000
_cell_angle_gamma 90.000000
_cell_volume 5921.187788
_symmetry_space_group_name_H-M "I M M A"
_symmetry_group_IT_number 74
_symmetry_cell_setting 'orthorhombic'
loop_
_space_group_symop_operation_xyz
x,y,z
-x,1/2-y,z
x,-y,-z
-x,1/2+y,-z
-x,-y,-z
x,1/2+y,-z
-x,y,z
x,1/2-y,z
1/2+x,1/2+y,1/2+z
1/2-x,-y,1/2+z
1/2+x,1/2-y,1/2-z
1/2-x,y,1/2-z
1/2-x,1/2-y,1/2-z
1/2+x,y,1/2-z
1/2-x,1/2+y,1/2+z
1/2+x,-y,1/2+z
loop_
_atom_site_type_symbol
_atom_site_label
_atom_site_fract_x
_atom_site_fract_y
_atom_site_fract_z
Si Si1 0.646721 0.945340 0.269349
Si Si2 0.888419 0.750000 0.735625
Si Si3 0.613964 0.250000 0.345339
Si Si4 0.612903 0.750000 0.423210
Si Si5 0.891443 0.250000 0.815448
Si Si6 0.112036 0.950559 0.049417
Si Si7 0.894778 0.936148 0.682122
Si Si8 0.804721 0.945628 0.861328
O O1 0.750000 0.945356 0.250000
O O2 0.627057 0.842701 0.286554
O O3 0.596329 0.988950 0.224097
O O4 0.643230 0.011075 0.315192
O O5 0.857035 0.750000 0.789739
O O6 0.863931 0.842036 0.708082
O O7 0.000000 0.750000 0.738095
O O8 0.500000 0.250000 0.349371
O O9 0.659007 0.158112 0.366259
O O10 0.500000 0.750000 0.422018
O O11 0.650612 0.750000 0.368745
O O12 0.639036 0.656308 0.449183
O O13 0.000000 0.250000 0.824322
O O14 0.000000 0.956876 0.056920
O O15 0.163105 0.998883 0.092932
O O16 0.133242 0.000000 0.000000
O O17 0.806462 0.955606 0.648237
O O18 0.000000 0.924958 0.661671
#
# Coordination Sequence:
#
# PCOD9536948 Si02
#       8
#    16   8   8   8   8  16  16  16
#     4  10  20  31  47  71  99 132 171 209 244 293
#     4   9  17  29  47  69 101 143 171 201 246 294
#     4  11  21  30  48  76 108 138 172 213 252 300
#     4   9  18  32  52  75  97 129 164 200 250 304
#     4  11  19  29  48  68  97 134 168 201 243 299
#     4  10  21  37  56  76 101 130 166 211 260 313
#     4  10  20  33  49  72 104 138 175 210 245 295
#     4  11  21  33  51  74 101 136 171 210 257 302
#
# _framework density 16.212962999999998
#
# number of rings (size 3 to 8) (size 9 to 14) (size 15 to 20)
#    0.000    1.833    3.333    1.750    0.000    2.667 
#    0.000    1.667    0.000    0.500    0.000    0.000 
#    0.000    0.000    0.000    0.000    0.000    0.000 
#
# Total GULP energy -267430.022182 kJ/mol
# GULP energy per Si atom -5571.458795 kJ/mol
# Density = 1.617606 g / cm^3
# Si number density = 16.212963 Si / 1000 Ang^3
#
#
#
# Elastic Constant Matrix: (Units=GPa)
#
#
# Indices 1 2 3 4 5 6 
#
# 1 80.3165 24.8406 34.2814 0.0000 0.0000 0.0000
# 2 24.8406 145.5653 54.6229 0.0000 0.0000 0.0000
# 3 34.2814 54.6229 86.4405 0.0000 0.0000 0.0000
# 4 0.0000 0.0000 0.0000 17.8326 0.0000 0.0000
# 5 0.0000 0.0000 0.0000 0.0000 23.3970 0.0000
# 6 0.0000 0.0000 0.0000 0.0000 0.0000 19.6846
#
#
#
# Elastic Compliance Matrix: (Units=1/GPa)
#
#
# Indices 1 2 3 4 5 6 
#
# 1 0.015008 -0.000429 -0.005681 0.000000 0.000000 0.000000
# 2 -0.000429 0.009017 -0.005528 0.000000 0.000000 0.000000
# 3 -0.005681 -0.005528 0.017315 0.000000 0.000000 0.000000
# 4 0.000000 0.000000 0.000000 0.056077 0.000000 0.000000
# 5 0.000000 0.000000 0.000000 0.000000 0.042740 0.000000
# 6 0.000000 0.000000 0.000000 0.000000 0.000000 0.050801
#
#
# Mechanical properties :
#
#
# Convention : Reuss Voigt Hill
#
# Bulk Modulus (GPa) = 55.35812 59.97912 57.66862
# Shear Modulus (GPa) = 22.70081 25.42135 24.06108
#
# Velocity S-wave (km/s) = 3.74594 3.96405 3.85653
# Velocity P-wave (km/s) = 7.27515 7.61751 7.44830
#
# Compressibility (1/GPa) = 0.01806420
#
# Stress axis : x y z
#
# Youngs Moduli (GPa) = 66.62995 110.89700 57.75436
#
# Poissons Ratio (x) = 0.04763 0.32809
# Poissons Ratio (y) = 0.02862 0.31926
# Poissons Ratio (z) = 0.37851 0.61303
#
# Static dielectric constant tensor:
#      x y z
#    x 1.592040 0.000000 0.000000 
#    y 0.000000 1.544670 0.000000 
#    z 0.000000 0.000000 1.530470 
# 
# From -- ./inp_files/60067.got.cif
#   From: 2010.05.17/outbox.cif.g08.bks.cpg/sg74_31_cif.got.tgz:60067.got - 2010.06.03 17:57:02.
