data_PCOD9536316
_publ_section_title
;
Structure prediction by ZEFSAII (Michael W. Deem and Ramdas Pophale) SiO2 
 PCOD9536316
Probable space group: I M M A
;
_chemical_formula_sum "Si O2"
_cell_formula_units_Z 116
_cell_length_a 32.643433
_cell_length_b 7.812462
_cell_length_c 22.859438
_cell_angle_alpha 90.000000
_cell_angle_beta 90.000000
_cell_angle_gamma 90.000000
_cell_volume 5829.741431
_symmetry_space_group_name_H-M "I M M A"
_symmetry_group_IT_number 74
_symmetry_cell_setting 'orthorhombic'
loop_
_space_group_symop_operation_xyz
x,y,z
-x,1/2-y,z
x,-y,-z
-x,1/2+y,-z
-x,-y,-z
x,1/2+y,-z
-x,y,z
x,1/2-y,z
1/2+x,1/2+y,1/2+z
1/2-x,-y,1/2+z
1/2+x,1/2-y,1/2-z
1/2-x,y,1/2-z
1/2-x,1/2-y,1/2-z
1/2+x,y,1/2-z
1/2-x,1/2+y,1/2+z
1/2+x,-y,1/2+z
loop_
_atom_site_type_symbol
_atom_site_label
_atom_site_fract_x
_atom_site_fract_y
_atom_site_fract_z
Si Si1 0.000000 0.500000 0.500000
Si Si2 0.693801 0.041049 0.299919
Si Si3 0.453894 0.953920 0.432937
Si Si4 0.783163 0.958698 0.668755
Si Si5 0.604297 0.545811 0.672414
Si Si6 0.065736 0.446018 0.590720
Si Si7 0.341917 0.545027 0.934974
Si Si8 0.953502 0.542871 0.723431
O O1 0.964082 0.452411 0.451845
O O2 0.694295 0.250000 0.301695
O O3 0.735783 0.984591 0.331084
O O4 0.697736 0.992786 0.231522
O O5 0.650844 0.979813 0.326040
O O6 0.500000 0.021682 0.419876
O O7 0.455349 0.750000 0.428597
O O8 0.444356 0.000000 0.500000
O O9 0.420622 0.016123 0.386819
O O10 0.782988 0.750000 0.667480
O O11 0.810672 0.016835 0.614821
O O12 0.607285 0.750000 0.680688
O O13 0.577597 0.478719 0.727016
O O14 0.052315 0.250000 0.580878
O O15 0.113012 0.468947 0.574729
O O16 0.059417 0.489925 0.658483
O O17 0.345822 0.750000 0.929822
O O18 0.327590 0.500000 0.000000
O O19 0.953396 0.750000 0.725270
O O20 0.000000 0.484706 0.735046
#
# Coordination Sequence:
#
# PCOD9536316 Si02
#       8
#     4  16  16  16  16  16  16  16
#     4  12  26  40  56  74 110 148 192 232 278 324
#     4   8  14  28  53  82 108 134 171 216 265 316
#     4  10  21  37  57  80 108 146 187 227 269 322
#     4   8  15  30  53  79 105 136 174 218 262 314
#     4  10  19  33  56  86 116 146 179 221 271 323
#     4  12  25  40  58  78 105 144 189 232 276 322
#     4  11  22  36  55  78 105 137 177 220 269 320
#     4  10  21  35  53  79 113 148 184 226 270 317
#
# _framework density 19.897964999999999
#
# number of rings (size 3 to 8) (size 9 to 14) (size 15 to 20)
#    0.000    2.069    1.379    3.517    0.000    5.793 
#    0.000    0.690    0.000    3.310    0.000    5.793 
#    0.000    0.000    0.000    0.000    0.000    0.000 
#
# Total GULP energy -323423.330665 kJ/mol
# GULP energy per Si atom -5576.264322 kJ/mol
# Density = 1.985268 g / cm^3
# Si number density = 19.897965 Si / 1000 Ang^3
#
#
#
# Elastic Constant Matrix: (Units=GPa)
#
#
# Indices 1 2 3 4 5 6 
#
# 1 179.3416 3.2254 114.8721 0.0000 0.0000 0.0000
# 2 3.2254 30.6011 -9.1887 0.0000 0.0000 0.0000
# 3 114.8721 -9.1887 121.1095 0.0000 0.0000 0.0000
# 4 0.0000 0.0000 0.0000 20.2040 0.0000 0.0000
# 5 0.0000 0.0000 0.0000 0.0000 84.3999 0.0000
# 6 0.0000 0.0000 0.0000 0.0000 0.0000 21.8528
#
#
#
# Elastic Compliance Matrix: (Units=1/GPa)
#
#
# Indices 1 2 3 4 5 6 
#
# 1 0.015240 -0.006085 -0.014917 0.000000 0.000000 0.000000
# 2 -0.006085 0.035870 0.008494 0.000000 0.000000 0.000000
# 3 -0.014917 0.008494 0.023050 0.000000 0.000000 0.000000
# 4 0.000000 0.000000 0.000000 0.049495 0.000000 0.000000
# 5 0.000000 0.000000 0.000000 0.000000 0.011848 0.000000
# 6 0.000000 0.000000 0.000000 0.000000 0.000000 0.045761
#
#
# Mechanical properties :
#
#
# Convention : Reuss Voigt Hill
#
# Bulk Modulus (GPa) = 20.34878 60.98553 40.66716
# Shear Modulus (GPa) = 22.45551 40.10088 31.27819
#
# Velocity S-wave (km/s) = 3.36301 4.49411 3.96906
# Velocity P-wave (km/s) = 5.03275 7.59243 6.44102
#
# Compressibility (1/GPa) = 0.04914299
#
# Stress axis : x y z
#
# Youngs Moduli (GPa) = 65.61743 27.87814 43.38421
#
# Poissons Ratio (x) = 0.16965 0.64715
# Poissons Ratio (y) = 0.39931 -0.36849
# Poissons Ratio (z) = 0.97879 -0.23678
#
# Static dielectric constant tensor:
#      x y z
#    x 1.699540 0.000000 0.000000 
#    y 0.000000 1.766210 0.000000 
#    z 0.000000 0.000000 1.673370 
# 
# From -- ./inp_files/62767.got.cif
#   From: 2010.05.17/outbox.cif.g08.bks.cpg/sg74_32_cif.got.tgz:62767.got - 2010.06.03 17:57:02.
