data_PCOD9536971
_publ_section_title
;
Structure prediction by ZEFSAII (Michael W. Deem and Ramdas Pophale) SiO2 
 PCOD9536971
Probable space group: I M M A
;
_chemical_formula_sum "Si O2"
_cell_formula_units_Z 64
_cell_length_a 22.510830
_cell_length_b 27.676355
_cell_length_c 5.065688
_cell_angle_alpha 90.000000
_cell_angle_beta 90.000000
_cell_angle_gamma 90.000000
_cell_volume 3156.013400
_symmetry_space_group_name_H-M "I M M A"
_symmetry_group_IT_number 74
_symmetry_cell_setting 'orthorhombic'
loop_
_space_group_symop_operation_xyz
x,y,z
-x,1/2-y,z
x,-y,-z
-x,1/2+y,-z
-x,-y,-z
x,1/2+y,-z
-x,y,z
x,1/2-y,z
1/2+x,1/2+y,1/2+z
1/2-x,-y,1/2+z
1/2+x,1/2-y,1/2-z
1/2-x,y,1/2-z
1/2-x,1/2-y,1/2-z
1/2+x,y,1/2-z
1/2-x,1/2+y,1/2+z
1/2+x,-y,1/2+z
loop_
_atom_site_type_symbol
_atom_site_label
_atom_site_fract_x
_atom_site_fract_y
_atom_site_fract_z
Si Si1 0.428331 0.132620 0.696572
Si Si2 0.624130 0.447187 0.363947
Si Si3 0.500000 0.534291 0.756486
Si Si4 0.210979 0.500000 0.500000
Si Si5 0.429807 0.695783 0.819173
O O1 0.500000 0.116981 0.708732
O O2 0.382050 0.091657 0.597496
O O3 0.407516 0.157774 0.965299
O O4 0.425410 0.173773 0.471447
O O5 0.622446 0.500000 0.500000
O O6 0.560519 0.436947 0.229325
O O7 0.672673 0.457072 0.137593
O O8 0.500000 0.500000 0.500000
O O9 0.500000 0.500000 0.000000
O O10 0.250000 0.481977 0.750000
O O11 0.500000 0.699131 0.880131
O O12 0.404911 0.750000 0.837592
#
# Coordination Sequence:
#
# PCOD9536971 Si02
#       5
#    16  16   8   8  16
#     4  10  20  31  52  82 111 149 192 223 276 337
#     4  11  23  38  58  83 119 150 189 240 279 339
#     4  10  20  32  52  80 107 146 177 220 286 316
#     4  12  26  43  58  75 108 162 200 234 282 332
#     4   9  18  32  48  72 113 156 188 222 265 332
#
# _framework density 20.278746000000002
#
# number of rings (size 3 to 8) (size 9 to 14) (size 15 to 20)
#    0.000    1.750    3.750    0.750    3.500    3.000 
#    0.000    0.000    0.000    0.000    0.000    0.000 
#    0.000   20.000    0.000    0.000    0.000    0.000 
#
# Total GULP energy -178296.843120 kJ/mol
# GULP energy per Si atom -5571.776347 kJ/mol
# Density = 2.023259 g / cm^3
# Si number density = 20.278746 Si / 1000 Ang^3
#
#
#
# Elastic Constant Matrix: (Units=GPa)
#
#
# Indices 1 2 3 4 5 6 
#
# 1 64.3993 8.5843 19.5532 0.0000 0.0000 0.0000
# 2 8.5843 112.2045 23.9490 0.0000 0.0000 0.0000
# 3 19.5532 23.9490 104.6838 0.0000 0.0000 0.0000
# 4 0.0000 0.0000 0.0000 22.6015 0.0000 0.0000
# 5 0.0000 0.0000 0.0000 0.0000 27.7098 0.0000
# 6 0.0000 0.0000 0.0000 0.0000 0.0000 4.4686
#
#
#
# Elastic Compliance Matrix: (Units=1/GPa)
#
#
# Indices 1 2 3 4 5 6 
#
# 1 0.016505 -0.000636 -0.002937 0.000000 0.000000 0.000000
# 2 -0.000636 0.009394 -0.002030 0.000000 0.000000 0.000000
# 3 -0.002937 -0.002030 0.010566 0.000000 0.000000 0.000000
# 4 0.000000 0.000000 0.000000 0.044245 0.000000 0.000000
# 5 0.000000 0.000000 0.000000 0.000000 0.036088 0.000000
# 6 0.000000 0.000000 0.000000 0.000000 0.000000 0.223782
#
#
# Mechanical properties :
#
#
# Convention : Reuss Voigt Hill
#
# Bulk Modulus (GPa) = 39.59193 42.82894 41.21043
# Shear Modulus (GPa) = 13.88095 26.23609 20.05852
#
# Velocity S-wave (km/s) = 2.61915 3.60081 3.14847
# Velocity P-wave (km/s) = 5.35843 6.20111 5.79511
#
# Compressibility (1/GPa) = 0.02525768
#
# Stress axis : x y z
#
# Youngs Moduli (GPa) = 60.58878 106.44735 94.64557
#
# Poissons Ratio (x) = 0.06767 0.27801
# Poissons Ratio (y) = 0.03852 0.19217
# Poissons Ratio (z) = 0.17797 0.21613
#
# Static dielectric constant tensor:
#      x y z
#    x 1.786060 0.000000 0.000000 
#    y 0.000000 1.781410 0.000000 
#    z 0.000000 0.000000 1.811320 
# 
# From -- ./inp_files/3651.got.cif
#   From: 2010.05.17/outbox.cif.g08.bks.cpg/sg74_2_cif.got.tgz:3651.got - 2010.06.03 17:57:02.
