data_PCOD9536483
_publ_section_title
;
Structure prediction by ZEFSAII (Michael W. Deem and Ramdas Pophale) SiO2 
 PCOD9536483
Probable space group: I M M A
;
_chemical_formula_sum "Si O2"
_cell_formula_units_Z 112
_cell_length_a 14.401861
_cell_length_b 28.142321
_cell_length_c 14.242958
_cell_angle_alpha 90.000000
_cell_angle_beta 90.000000
_cell_angle_gamma 90.000000
_cell_volume 5772.696447
_symmetry_space_group_name_H-M "I M M A"
_symmetry_group_IT_number 74
_symmetry_cell_setting 'orthorhombic'
loop_
_space_group_symop_operation_xyz
x,y,z
-x,1/2-y,z
x,-y,-z
-x,1/2+y,-z
-x,-y,-z
x,1/2+y,-z
-x,y,z
x,1/2-y,z
1/2+x,1/2+y,1/2+z
1/2-x,-y,1/2+z
1/2+x,1/2-y,1/2-z
1/2-x,y,1/2-z
1/2-x,1/2-y,1/2-z
1/2+x,y,1/2-z
1/2-x,1/2+y,1/2+z
1/2+x,-y,1/2+z
loop_
_atom_site_type_symbol
_atom_site_label
_atom_site_fract_x
_atom_site_fract_y
_atom_site_fract_z
Si Si1 0.397016 0.364125 0.877190
Si Si2 0.610942 0.877164 0.786621
Si Si3 0.888626 0.802332 0.560022
Si Si4 0.219142 0.916626 0.878085
Si Si5 0.604371 0.991906 0.386831
Si Si6 0.201752 0.104684 0.901910
Si Si7 0.648323 0.196544 0.704486
O O1 0.500000 0.385462 0.892346
O O2 0.306976 0.396870 0.860952
O O3 0.404601 0.327588 0.791112
O O4 0.367522 0.334716 0.970228
O O5 0.500000 0.885201 0.785581
O O6 0.631300 0.828423 0.842394
O O7 0.673598 0.913734 0.847258
O O8 0.657527 0.880557 0.684724
O O9 0.846946 0.750000 0.551939
O O10 0.000000 0.798298 0.556622
O O11 0.175715 0.967820 0.855404
O O12 0.208183 0.903724 0.986576
O O13 0.500000 0.999593 0.350372
O O14 0.600415 0.000000 0.500000
O O15 0.639813 0.939069 0.365752
O O16 0.157718 0.155736 0.874626
O O17 0.617497 0.250000 0.677789
O O18 0.750000 0.201307 0.750000
#
# Coordination Sequence:
#
# PCOD9536483 Si02
#       7
#    16  16  16  16  16  16  16
#     4  10  19  34  56  82 118 156 190 232 288 345
#     4  10  20  36  57  84 119 152 189 241 290 340
#     4   9  17  31  55  83 112 153 197 231 275 341
#     4  10  20  37  59  85 113 151 197 236 290 352
#     4   9  19  37  61  83 107 146 193 237 283 345
#     4  10  20  37  59  86 116 146 196 246 283 338
#     4   9  19  35  54  80 116 153 190 234 287 342
#
# _framework density 19.401678
#
# number of rings (size 3 to 8) (size 9 to 14) (size 15 to 20)
#    0.000    2.429    1.429    0.857    0.000    2.571 
#    7.714    2.857    0.000    2.571    0.000    0.000 
#    0.000    0.000    0.000    0.000    0.000    0.000 
#
# Total GULP energy -311798.921100 kJ/mol
# GULP energy per Si atom -5567.837877 kJ/mol
# Density = 1.935752 g / cm^3
# Si number density = 19.401678 Si / 1000 Ang^3
#
#
#
# Elastic Constant Matrix: (Units=GPa)
#
#
# Indices 1 2 3 4 5 6 
#
# 1 101.3641 32.8947 9.8576 0.0000 0.0000 0.0000
# 2 32.8947 88.7082 14.3016 -0.0002 0.0000 -0.0002
# 3 9.8576 14.3016 57.9645 -0.0002 0.0000 -0.0001
# 4 0.0000 -0.0002 -0.0002 17.1955 0.0000 -0.0001
# 5 0.0000 0.0000 0.0000 0.0000 11.1376 0.0000
# 6 0.0000 -0.0002 -0.0001 -0.0001 0.0000 17.2084
#
#
#
# Elastic Compliance Matrix: (Units=1/GPa)
#
#
# Indices 1 2 3 4 5 6 
#
# 1 0.011262 -0.004028 -0.000922 0.000000 0.000000 0.000000
# 2 -0.004028 0.013180 -0.002567 0.000000 0.000000 0.000000
# 3 -0.000922 -0.002567 0.018042 0.000000 0.000000 0.000000
# 4 0.000000 0.000000 0.000000 0.058155 0.000000 0.000000
# 5 0.000000 0.000000 0.000000 0.000000 0.089786 0.000000
# 6 0.000000 0.000000 0.000000 0.000000 0.000000 0.058111
#
#
# Mechanical properties :
#
#
# Convention : Reuss Voigt Hill
#
# Bulk Modulus (GPa) = 36.42719 40.23829 38.33274
# Shear Modulus (GPa) = 18.33388 21.84050 20.08719
#
# Velocity S-wave (km/s) = 3.07736 3.35879 3.22115
# Velocity P-wave (km/s) = 5.60740 5.98553 5.79955
#
# Compressibility (1/GPa) = 0.02745203
#
# Stress axis : x y z
#
# Youngs Moduli (GPa) = 88.79344 75.87080 55.42620
#
# Poissons Ratio (x) = 0.30558 0.05108
# Poissons Ratio (y) = 0.35763 0.14228
# Poissons Ratio (z) = 0.08183 0.19476
#
# Static dielectric constant tensor:
#      x y z
#    x 1.724360 0.000000 0.000000 
#    y 0.000000 1.717130 0.000000 
#    z 0.000000 0.000000 1.698960 
# 
# From -- ./inp_files/32974.got.cif
#   From: 2010.05.17/outbox.cif.g08.bks.cpg/sg74_17_cif.got.tgz:32974.got - 2010.06.03 17:57:02.
