data_PCOD9536228
_publ_section_title
;
Structure prediction by ZEFSAII (Michael W. Deem and Ramdas Pophale) SiO2 
 PCOD9536228
Probable space group: I M M A
;
_chemical_formula_sum "Si O2"
_cell_formula_units_Z 104
_cell_length_a 20.654907
_cell_length_b 8.917908
_cell_length_c 30.778993
_cell_angle_alpha 90.000000
_cell_angle_beta 90.000000
_cell_angle_gamma 90.000000
_cell_volume 5669.446200
_symmetry_space_group_name_H-M "I M M A"
_symmetry_group_IT_number 74
_symmetry_cell_setting 'orthorhombic'
loop_
_space_group_symop_operation_xyz
x,y,z
-x,1/2-y,z
x,-y,-z
-x,1/2+y,-z
-x,-y,-z
x,1/2+y,-z
-x,y,z
x,1/2-y,z
1/2+x,1/2+y,1/2+z
1/2-x,-y,1/2+z
1/2+x,1/2-y,1/2-z
1/2-x,y,1/2-z
1/2-x,1/2-y,1/2-z
1/2+x,y,1/2-z
1/2-x,1/2+y,1/2+z
1/2+x,-y,1/2+z
loop_
_atom_site_type_symbol
_atom_site_label
_atom_site_fract_x
_atom_site_fract_y
_atom_site_fract_z
Si Si1 0.751077 0.570242 0.544655
Si Si2 0.635175 0.071306 0.707902
Si Si3 0.257440 0.428844 0.634161
Si Si4 0.647036 0.079083 0.803831
Si Si5 0.500000 0.999182 0.807595
Si Si6 0.394270 0.929660 0.044240
Si Si7 0.500000 0.583568 0.902038
Si Si8 0.000000 0.080867 0.208014
O O1 0.722732 0.500000 0.500000
O O2 0.753293 0.750000 0.541220
O O3 0.722619 0.516138 0.590586
O O4 0.823211 0.500019 0.547645
O O5 0.625122 0.250000 0.713131
O O6 0.689328 0.049556 0.671664
O O7 0.656678 0.011307 0.755616
O O8 0.566319 0.001008 0.695386
O O9 0.252374 0.250000 0.623485
O O10 0.189590 0.483521 0.656329
O O11 0.671380 0.250000 0.801075
O O12 0.569532 0.081392 0.809980
O O13 0.500000 0.902847 0.850672
O O14 0.500000 0.921844 0.760769
O O15 0.391714 0.750000 0.042574
O O16 0.438470 0.988881 0.082733
O O17 0.422426 0.000000 0.000000
O O18 0.500000 0.750000 0.921880
O O19 0.000000 0.250000 0.192127
#
# Coordination Sequence:
#
# PCOD9536228 Si02
#       8
#    16  16  16  16   8  16   8   8
#     4  11  22  37  55  75 101 133 170 212 261 314
#     4   9  18  33  54  79 107 141 178 214 256 310
#     4  10  19  33  54  80 109 139 175 219 264 310
#     4   9  17  30  50  76 106 141 181 221 260 306
#     4  10  20  31  47  69 101 142 179 217 260 306
#     4  11  22  37  53  69  91 123 166 215 268 317
#     4  12  23  34  47  67  95 128 171 219 267 315
#     4  10  20  35  53  74 104 138 172 212 256 305
#
# _framework density 18.343942999999999
#
# number of rings (size 3 to 8) (size 9 to 14) (size 15 to 20)
#    0.000    1.846    0.000    6.231    0.000    6.769 
#    0.000    3.077    0.000    4.615    0.000    0.538 
#    0.000    0.000    0.000    0.000    0.000    0.000 
#
# Total GULP energy -289900.462534 kJ/mol
# GULP energy per Si atom -5575.008895 kJ/mol
# Density = 1.830219 g / cm^3
# Si number density = 18.343943 Si / 1000 Ang^3
#
#
#
# Elastic Constant Matrix: (Units=GPa)
#
#
# Indices 1 2 3 4 5 6 
#
# 1 59.0692 21.1561 28.9483 0.0000 0.0000 0.0000
# 2 21.1561 108.8145 42.6243 0.0000 0.0000 0.0000
# 3 28.9483 42.6243 104.0727 0.0000 0.0000 0.0000
# 4 0.0000 0.0000 0.0000 18.4644 0.0000 0.0000
# 5 0.0000 0.0000 0.0000 0.0000 15.2538 0.0000
# 6 0.0000 0.0000 0.0000 0.0000 0.0000 12.0912
#
#
#
# Elastic Compliance Matrix: (Units=1/GPa)
#
#
# Indices 1 2 3 4 5 6 
#
# 1 0.019972 -0.002033 -0.004723 0.000000 0.000000 0.000000
# 2 -0.002033 0.011153 -0.004002 0.000000 0.000000 0.000000
# 3 -0.004723 -0.004002 0.012561 0.000000 0.000000 0.000000
# 4 0.000000 0.000000 0.000000 0.054158 0.000000 0.000000
# 5 0.000000 0.000000 0.000000 0.000000 0.065558 0.000000
# 6 0.000000 0.000000 0.000000 0.000000 0.000000 0.082705
#
#
# Mechanical properties :
#
#
# Convention : Reuss Voigt Hill
#
# Bulk Modulus (GPa) = 45.10533 50.82375 47.96454
# Shear Modulus (GPa) = 18.18097 21.11040 19.64569
#
# Velocity S-wave (km/s) = 3.15161 3.39604 3.27611
# Velocity P-wave (km/s) = 6.15513 6.56838 6.36511
#
# Compressibility (1/GPa) = 0.02217033
#
# Stress axis : x y z
#
# Youngs Moduli (GPa) = 50.07042 89.66187 79.60837
#
# Poissons Ratio (x) = 0.18229 0.37596
# Poissons Ratio (y) = 0.10180 0.31862
# Poissons Ratio (z) = 0.23646 0.35886
#
# Static dielectric constant tensor:
#      x y z
#    x 1.636970 0.000000 0.000000 
#    y 0.000000 1.643370 0.000000 
#    z 0.000000 0.000000 1.704850 
# 
# From -- ./inp_files/73457.got.cif
#   From: 2010.05.17/outbox.cif.g08.bks.cpg/sg74_37_cif.got.tgz:73457.got - 2010.06.03 17:57:02.
