data_PCOD9536281
_publ_section_title
;
Structure prediction by ZEFSAII (Michael W. Deem and Ramdas Pophale) SiO2 
 PCOD9536281
Probable space group: I M M A
;
_chemical_formula_sum "Si O2"
_cell_formula_units_Z 100
_cell_length_a 20.610836
_cell_length_b 9.090440
_cell_length_c 29.548595
_cell_angle_alpha 90.000000
_cell_angle_beta 90.000000
_cell_angle_gamma 90.000000
_cell_volume 5536.271092
_symmetry_space_group_name_H-M "I M M A"
_symmetry_group_IT_number 74
_symmetry_cell_setting 'orthorhombic'
loop_
_space_group_symop_operation_xyz
x,y,z
-x,1/2-y,z
x,-y,-z
-x,1/2+y,-z
-x,-y,-z
x,1/2+y,-z
-x,y,z
x,1/2-y,z
1/2+x,1/2+y,1/2+z
1/2-x,-y,1/2+z
1/2+x,1/2-y,1/2-z
1/2-x,y,1/2-z
1/2-x,1/2-y,1/2-z
1/2+x,y,1/2-z
1/2-x,1/2+y,1/2+z
1/2+x,-y,1/2+z
loop_
_atom_site_type_symbol
_atom_site_label
_atom_site_fract_x
_atom_site_fract_y
_atom_site_fract_z
Si Si1 0.884509 0.076410 0.545290
Si Si2 0.231301 0.926815 0.047473
Si Si3 0.000000 0.250000 0.763144
Si Si4 0.310741 0.574680 0.639052
Si Si5 0.630862 0.088347 0.715700
Si Si6 0.425952 0.421638 0.855232
Si Si7 0.183311 0.422901 0.300546
O O1 0.887697 0.250000 0.537809
O O2 0.808438 0.037979 0.552372
O O3 0.921706 0.044647 0.591480
O O4 0.908688 0.000000 0.500000
O O5 0.224391 0.750000 0.046103
O O6 0.195975 0.995530 0.090835
O O7 0.210480 0.000000 0.000000
O O8 0.058623 0.375657 0.766344
O O9 0.315780 0.750000 0.633321
O O10 0.367128 0.509132 0.670614
O O11 0.245598 0.542991 0.668511
O O12 0.658952 0.250000 0.704433
O O13 0.673403 0.011919 0.754408
O O14 0.500000 0.428539 0.839521
O O15 0.404507 0.250000 0.848804
O O16 0.378968 0.530985 0.829811
O O17 0.184922 0.250000 0.290150
#
# Coordination Sequence:
#
# PCOD9536281 Si02
#       7
#    16  16   4  16  16  16  16
#     4   9  18  32  49  70  99 140 188 237 290 332
#     4  10  19  33  55  83 118 154 189 239 295 346
#     4   8  24  44  60  88 114 148 196 236 288 348
#     4  11  22  37  58  89 122 151 192 241 292 344
#     4  10  22  40  62  81 115 149 191 230 287 344
#     4  10  21  35  51  71 102 148 199 243 286 340
#     4  11  23  36  54  83 118 151 193 245 290 334
#
# _framework density 18.062698999999999
#
# number of rings (size 3 to 8) (size 9 to 14) (size 15 to 20)
#    0.480    1.440    1.600    2.400    1.120    5.760 
#    0.000    1.200    0.000    0.000    0.000    0.560 
#    0.000    0.000    0.000    0.000    0.000    0.000 
#
# Total GULP energy -278479.229405 kJ/mol
# GULP energy per Si atom -5569.584588 kJ/mol
# Density = 1.802159 g / cm^3
# Si number density = 18.062699 Si / 1000 Ang^3
#
#
#
# Elastic Constant Matrix: (Units=GPa)
#
#
# Indices 1 2 3 4 5 6 
#
# 1 36.1366 15.1613 14.1800 0.0000 0.0000 0.0000
# 2 15.1613 57.2503 40.0000 0.0000 0.0000 0.0000
# 3 14.1800 40.0000 101.5070 0.0000 0.0000 0.0000
# 4 0.0000 0.0000 0.0000 35.8779 0.0000 0.0000
# 5 0.0000 0.0000 0.0000 0.0000 18.1036 0.0000
# 6 0.0000 0.0000 0.0000 0.0000 0.0000 19.2613
#
#
#
# Elastic Compliance Matrix: (Units=1/GPa)
#
#
# Indices 1 2 3 4 5 6 
#
# 1 0.031302 -0.007223 -0.001526 0.000000 0.000000 0.000000
# 2 -0.007223 0.025770 -0.009146 0.000000 0.000000 0.000000
# 3 -0.001526 -0.009146 0.013669 0.000000 0.000000 0.000000
# 4 0.000000 0.000000 0.000000 0.027872 0.000000 0.000000
# 5 0.000000 0.000000 0.000000 0.000000 0.055238 0.000000
# 6 0.000000 0.000000 0.000000 0.000000 0.000000 0.051918
#
#
# Mechanical properties :
#
#
# Convention : Reuss Voigt Hill
#
# Bulk Modulus (GPa) = 28.61216 37.06408 32.83812
# Shear Modulus (GPa) = 19.74644 23.01872 21.38258
#
# Velocity S-wave (km/s) = 3.30997 3.57372 3.44437
# Velocity P-wave (km/s) = 5.52112 6.13130 5.83419
#
# Compressibility (1/GPa) = 0.03495018
#
# Stress axis : x y z
#
# Youngs Moduli (GPa) = 31.94660 38.80451 73.15899
#
# Poissons Ratio (x) = 0.28029 0.11167
# Poissons Ratio (y) = 0.23076 0.66911
# Poissons Ratio (z) = 0.04876 0.35491
#
# Static dielectric constant tensor:
#      x y z
#    x 1.618790 0.000000 0.000000 
#    y 0.000000 1.613880 0.000000 
#    z 0.000000 0.000000 1.646430 
# 
# From -- ./inp_files/73364.got.cif
#   From: 2010.05.17/outbox.cif.g08.bks.cpg/sg74_37_cif.got.tgz:73364.got - 2010.06.03 17:57:02.
