data_PCOD9536303
_publ_section_title
;
Structure prediction by ZEFSAII (Michael W. Deem and Ramdas Pophale) SiO2 
 PCOD9536303
Probable space group: I M M A
;
_chemical_formula_sum "Si O2"
_cell_formula_units_Z 72
_cell_length_a 14.614987
_cell_length_b 9.439234
_cell_length_c 25.574362
_cell_angle_alpha 90.000000
_cell_angle_beta 90.000000
_cell_angle_gamma 90.000000
_cell_volume 3528.092752
_symmetry_space_group_name_H-M "I M M A"
_symmetry_group_IT_number 74
_symmetry_cell_setting 'orthorhombic'
loop_
_space_group_symop_operation_xyz
x,y,z
-x,1/2-y,z
x,-y,-z
-x,1/2+y,-z
-x,-y,-z
x,1/2+y,-z
-x,y,z
x,1/2-y,z
1/2+x,1/2+y,1/2+z
1/2-x,-y,1/2+z
1/2+x,1/2-y,1/2-z
1/2-x,y,1/2-z
1/2-x,1/2-y,1/2-z
1/2+x,y,1/2-z
1/2-x,1/2+y,1/2+z
1/2+x,-y,1/2+z
loop_
_atom_site_type_symbol
_atom_site_label
_atom_site_fract_x
_atom_site_fract_y
_atom_site_fract_z
Si Si1 0.861373 0.912573 0.749323
Si Si2 0.134959 0.413449 0.647688
Si Si3 0.355650 0.413790 0.648584
Si Si4 0.000000 0.919004 0.445018
Si Si5 0.607410 0.407943 0.453400
O O1 0.891426 0.750000 0.754868
O O2 0.750000 0.911167 0.750000
O O3 0.891383 0.983197 0.695017
O O4 0.886932 0.010808 0.798199
O O5 0.109268 0.250000 0.659774
O O6 0.244904 0.416862 0.645374
O O7 0.086633 0.451208 0.592988
O O8 0.384445 0.250000 0.646176
O O9 0.387537 0.505099 0.599717
O O10 0.000000 0.750000 0.455027
O O11 0.000000 0.000000 0.500000
O O12 0.650355 0.500000 0.500000
O O13 0.500000 0.391246 0.465715
O O14 0.647291 0.250000 0.448709
#
# Coordination Sequence:
#
# PCOD9536303 Si02
#       5
#    16  16  16   8  16
#     4   9  17  31  53  80 108 138 174 220 272 323
#     4   9  19  36  56  79 108 144 183 227 275 324
#     4  10  19  33  56  83 110 142 182 224 272 328
#     4  10  22  40  58  78 110 148 189 234 279 324
#     4  10  21  37  55  76 106 141 177 219 267 320
#
# _framework density 20.407626
#
# number of rings (size 3 to 8) (size 9 to 14) (size 15 to 20)
#    0.000    2.444    0.000    2.000    0.000    6.667 
#    2.000    2.222    0.000    0.000    0.000    0.000 
#    0.000    0.000    0.000    0.000    0.000    0.000 
#
# Total GULP energy -200968.334144 kJ/mol
# GULP energy per Si atom -5582.453726 kJ/mol
# Density = 2.036118 g / cm^3
# Si number density = 20.407626 Si / 1000 Ang^3
#
#
#
# Elastic Constant Matrix: (Units=GPa)
#
#
# Indices 1 2 3 4 5 6 
#
# 1 62.1801 14.2685 12.1124 0.0000 0.0000 0.0000
# 2 14.2685 197.5503 116.3230 0.0000 0.0000 0.0000
# 3 12.1124 116.3230 185.7929 0.0000 0.0000 0.0000
# 4 0.0000 0.0000 0.0000 39.1620 0.0000 0.0000
# 5 0.0000 0.0000 0.0000 0.0000 28.9432 0.0000
# 6 0.0000 0.0000 0.0000 0.0000 0.0000 2.8818
#
#
#
# Elastic Compliance Matrix: (Units=1/GPa)
#
#
# Indices 1 2 3 4 5 6 
#
# 1 0.016385 -0.000878 -0.000518 0.000000 0.000000 0.000000
# 2 -0.000878 0.008065 -0.004992 0.000000 0.000000 0.000000
# 3 -0.000518 -0.004992 0.008542 0.000000 0.000000 0.000000
# 4 0.000000 0.000000 0.000000 0.025535 0.000000 0.000000
# 5 0.000000 0.000000 0.000000 0.000000 0.034550 0.000000
# 6 0.000000 0.000000 0.000000 0.000000 0.000000 0.347003
#
#
# Mechanical properties :
#
#
# Convention : Reuss Voigt Hill
#
# Bulk Modulus (GPa) = 49.47056 81.21458 65.34257
# Shear Modulus (GPa) = 10.87915 34.38536 22.63225
#
# Velocity S-wave (km/s) = 2.31138 4.10924 3.33379
# Velocity P-wave (km/s) = 5.60510 7.89918 6.84888
#
# Compressibility (1/GPa) = 0.02021404
#
# Stress axis : x y z
#
# Youngs Moduli (GPa) = 61.03213 123.99376 117.07356
#
# Poissons Ratio (x) = 0.10889 0.06068
# Poissons Ratio (y) = 0.05360 0.58444
# Poissons Ratio (z) = 0.03163 0.61899
#
# Static dielectric constant tensor:
#      x y z
#    x 1.799780 0.000000 0.000000 
#    y 0.000000 1.717200 0.000000 
#    z 0.000000 0.000000 1.678770 
# 
# From -- ./inp_files/53651.got.cif
#   From: 2010.05.17/outbox.cif.g08.bks.cpg/sg74_27_cif.got.tgz:53651.got - 2010.06.03 17:57:02.
