data_PCOD9536831
_publ_section_title
;
Structure prediction by ZEFSAII (Michael W. Deem and Ramdas Pophale) SiO2 
 PCOD9536831
Probable space group: I M M A
;
_chemical_formula_sum "Si O2"
_cell_formula_units_Z 56
_cell_length_a 22.273531
_cell_length_b 21.900085
_cell_length_c 4.985978
_cell_angle_alpha 90.000000
_cell_angle_beta 90.000000
_cell_angle_gamma 90.000000
_cell_volume 2432.121288
_symmetry_space_group_name_H-M "I M M A"
_symmetry_group_IT_number 74
_symmetry_cell_setting 'orthorhombic'
loop_
_space_group_symop_operation_xyz
x,y,z
-x,1/2-y,z
x,-y,-z
-x,1/2+y,-z
-x,-y,-z
x,1/2+y,-z
-x,y,z
x,1/2-y,z
1/2+x,1/2+y,1/2+z
1/2-x,-y,1/2+z
1/2+x,1/2-y,1/2-z
1/2-x,y,1/2-z
1/2-x,1/2-y,1/2-z
1/2+x,y,1/2-z
1/2-x,1/2+y,1/2+z
1/2+x,-y,1/2+z
loop_
_atom_site_type_symbol
_atom_site_label
_atom_site_fract_x
_atom_site_fract_y
_atom_site_fract_z
Si Si1 0.633589 0.439369 0.642116
Si Si2 0.131205 0.636679 0.666943
Si Si3 0.000000 0.178273 0.402334
Si Si4 0.206750 0.750000 0.499110
Si Si5 0.000000 0.444914 0.727629
O O1 0.659895 0.500000 0.500000
O O2 0.656273 0.384964 0.451967
O O3 0.561563 0.446157 0.610018
O O4 0.636409 0.420433 0.956138
O O5 0.064153 0.662354 0.729309
O O6 0.165477 0.690825 0.523097
O O7 0.000000 0.124629 0.621357
O O8 0.000000 0.250000 0.478745
O O9 0.250000 0.750000 0.750000
O O10 0.250000 0.750000 0.250000
O O11 0.000000 0.500000 0.500000
#
# Coordination Sequence:
#
# PCOD9536831 Si02
#       5
#    16  16   8   8   8
#     4  11  21  37  62  94 132 171 213 263 316 392
#     4  11  23  41  65  97 129 170 214 265 331 393
#     4  10  19  37  60  96 134 163 204 268 324 378
#     4  12  26  47  70  91 124 172 222 276 332 406
#     4  10  20  35  58  92 142 189 222 247 322 410
#
# _framework density 23.025165999999999
#
# number of rings (size 3 to 8) (size 9 to 14) (size 15 to 20)
#    0.000    1.143    1.429    7.286    0.000    0.000 
#    2.571    1.429    0.000   17.143    0.000    0.000 
#    0.000    0.000    0.000    0.000    0.000    0.000 
#
# Total GULP energy -155994.888381 kJ/mol
# GULP energy per Si atom -5571.246014 kJ/mol
# Density = 2.297276 g / cm^3
# Si number density = 23.025166 Si / 1000 Ang^3
#
#
#
# Elastic Constant Matrix: (Units=GPa)
#
#
# Indices 1 2 3 4 5 6 
#
# 1 28.8437 1.2583 13.6200 0.0000 0.0000 0.0000
# 2 1.2583 148.9066 31.4306 0.0000 0.0000 0.0000
# 3 13.6200 31.4306 97.7766 0.0000 0.0000 0.0000
# 4 0.0000 0.0000 0.0000 31.0344 0.0000 0.0000
# 5 0.0000 0.0000 0.0000 0.0000 30.8262 0.0000
# 6 0.0000 0.0000 0.0000 0.0000 0.0000 -155.0193
#
#
#
# Elastic Compliance Matrix: (Units=1/GPa)
#
#
# Indices 1 2 3 4 5 6 
#
# 1 0.037207 0.000836 -0.005452 0.000000 0.000000 0.000000
# 2 0.000836 0.007223 -0.002438 0.000000 0.000000 0.000000
# 3 -0.005452 -0.002438 0.011771 0.000000 0.000000 0.000000
# 4 0.000000 0.000000 0.000000 0.032222 0.000000 0.000000
# 5 0.000000 0.000000 0.000000 0.000000 0.032440 0.000000
# 6 0.000000 0.000000 0.000000 0.000000 0.000000 -0.006451
#
#
# Mechanical properties :
#
#
# Convention : Reuss Voigt Hill
#
# Bulk Modulus (GPa) = 23.75655 40.90498 32.33077
# Shear Modulus (GPa) = 35.07500 -3.35054 15.86223
#
# Velocity S-wave (km/s) = 3.90722 -1.20761 2.62755
# Velocity P-wave (km/s) = 5.54033 3.98240 4.82466
#
# Compressibility (1/GPa) = 0.04209365
#
# Stress axis : x y z
#
# Youngs Moduli (GPa) = 26.87634 138.44192 84.95710
#
# Poissons Ratio (x) = -0.11578 0.46316
# Poissons Ratio (y) = -0.02248 0.20716
# Poissons Ratio (z) = 0.14652 0.33758
#
# Static dielectric constant tensor:
#      x y z
#    x 1.862830 0.000000 0.000000 
#    y 0.000000 1.906010 0.000000 
#    z 0.000000 0.000000 1.831170 
# 
# From -- ./inp_files/3522.got.cif
#   From: 2010.05.17/outbox.cif.g08.bks.cpg/sg74_2_cif.got.tgz:3522.got - 2010.06.03 17:57:02.
