data_PCOD9536007
_publ_section_title
;
Structure prediction by ZEFSAII (Michael W. Deem and Ramdas Pophale) SiO2 
 PCOD9536007
Probable space group: I M M A
;
_chemical_formula_sum "Si O2"
_cell_formula_units_Z 96
_cell_length_a 19.197205
_cell_length_b 25.248842
_cell_length_c 10.493149
_cell_angle_alpha 90.000000
_cell_angle_beta 90.000000
_cell_angle_gamma 90.000000
_cell_volume 5086.104828
_symmetry_space_group_name_H-M "I M M A"
_symmetry_group_IT_number 74
_symmetry_cell_setting 'orthorhombic'
loop_
_space_group_symop_operation_xyz
x,y,z
-x,1/2-y,z
x,-y,-z
-x,1/2+y,-z
-x,-y,-z
x,1/2+y,-z
-x,y,z
x,1/2-y,z
1/2+x,1/2+y,1/2+z
1/2-x,-y,1/2+z
1/2+x,1/2-y,1/2-z
1/2-x,y,1/2-z
1/2-x,1/2-y,1/2-z
1/2+x,y,1/2-z
1/2-x,1/2+y,1/2+z
1/2+x,-y,1/2+z
loop_
_atom_site_type_symbol
_atom_site_label
_atom_site_fract_x
_atom_site_fract_y
_atom_site_fract_z
Si Si1 0.219922 0.188188 0.051391
Si Si2 0.315753 0.500807 0.844423
Si Si3 0.426150 0.411656 0.136416
Si Si4 0.668694 0.687484 0.290559
Si Si5 0.356490 0.811099 0.822089
Si Si6 0.419929 0.404398 0.831658
O O1 0.230814 0.250000 0.018004
O O2 0.298021 0.168016 0.077188
O O3 0.180593 0.187213 0.184996
O O4 0.173649 0.167085 0.936856
O O5 0.250000 0.500184 0.750000
O O6 0.361110 0.553555 0.821660
O O7 0.366354 0.452252 0.804896
O O8 0.300857 0.500000 0.000000
O O9 0.500000 0.435986 0.175989
O O10 0.418578 0.351757 0.182214
O O11 0.425468 0.407675 0.984177
O O12 0.649148 0.750000 0.281424
O O13 0.750000 0.683192 0.250000
O O14 0.616794 0.649862 0.213619
O O15 0.373515 0.750000 0.850773
O O16 0.500000 0.409166 0.782642
#
# Coordination Sequence:
#
# PCOD9536007 Si02
#       6
#    16  16  16  16  16  16
#     4   8  16  30  49  75 108 145 184 225 267 316
#     4  10  22  41  64  86 108 143 187 235 282 336
#     4  10  21  36  56  82 111 144 182 226 277 330
#     4  10  19  32  53  82 114 146 184 228 271 319
#     4   9  17  31  52  78 109 146 185 226 271 319
#     4  10  21  38  58  80 111 148 184 224 275 334
#
# _framework density 18.874953999999999
#
# number of rings (size 3 to 8) (size 9 to 14) (size 15 to 20)
#    0.000    2.500    0.000    3.000    2.333    6.000 
#    0.000    2.500    0.000    4.000    0.000    0.000 
#    0.000    0.000    0.000    0.000    0.000    0.000 
#
# Total GULP energy -267255.977932 kJ/mol
# GULP energy per Si atom -5567.832874 kJ/mol
# Density = 1.883199 g / cm^3
# Si number density = 18.874954 Si / 1000 Ang^3
#
#
#
# Elastic Constant Matrix: (Units=GPa)
#
#
# Indices 1 2 3 4 5 6 
#
# 1 140.0273 66.5949 44.5003 0.0000 0.0000 0.0000
# 2 66.5949 96.9361 21.2522 0.0000 0.0000 0.0000
# 3 44.5003 21.2522 33.6128 0.0000 0.0000 0.0000
# 4 0.0000 0.0000 0.0000 19.8305 0.0000 0.0000
# 5 0.0000 0.0000 0.0000 0.0000 -526.6542 0.0000
# 6 0.0000 0.0000 0.0000 0.0000 0.0000 11.7926
#
#
#
# Elastic Compliance Matrix: (Units=1/GPa)
#
#
# Indices 1 2 3 4 5 6 
#
# 1 0.015773 -0.007265 -0.016289 0.000000 0.000000 0.000000
# 2 -0.007265 0.015322 -0.000070 0.000000 0.000000 0.000000
# 3 -0.016289 -0.000070 0.051360 0.000000 0.000000 0.000000
# 4 0.000000 0.000000 0.000000 0.050427 0.000000 0.000000
# 5 0.000000 0.000000 0.000000 0.000000 -0.001899 0.000000
# 6 0.000000 0.000000 0.000000 0.000000 0.000000 0.084799
#
#
# Mechanical properties :
#
#
# Convention : Reuss Voigt Hill
#
# Bulk Modulus (GPa) = 28.40250 59.47455 43.93853
# Shear Modulus (GPa) = 18.19737 -89.79095 -35.79679
#
# Velocity S-wave (km/s) = 3.10837 -6.90469 -4.35963
# Velocity P-wave (km/s) = 5.28800 5.65581 1.41866
#
# Compressibility (1/GPa) = 0.03520817
#
# Stress axis : x y z
#
# Youngs Moduli (GPa) = 63.39912 65.26414 19.47058
#
# Poissons Ratio (x) = 0.47414 0.31715
# Poissons Ratio (y) = 0.46059 0.00136
# Poissons Ratio (z) = 1.03269 0.00455
#
# Static dielectric constant tensor:
#      x y z
#    x 1.688900 0.000000 0.000000 
#    y 0.000000 1.676670 0.000000 
#    z 0.000000 0.000000 1.706200 
# 
# From -- ./inp_files/22663.got.cif
#   From: 2010.05.17/outbox.cif.g08.bks.cpg/sg74_12_cif.got.tgz:22663.got - 2010.06.03 17:57:02.
