data_PCOD9536391
_publ_section_title
;
Structure prediction by ZEFSAII (Michael W. Deem and Ramdas Pophale) SiO2 
 PCOD9536391
Probable space group: I M M A
;
_chemical_formula_sum "Si O2"
_cell_formula_units_Z 80
_cell_length_a 27.117879
_cell_length_b 9.158751
_cell_length_c 16.514416
_cell_angle_alpha 90.000000
_cell_angle_beta 90.000000
_cell_angle_gamma 90.000000
_cell_volume 4101.617816
_symmetry_space_group_name_H-M "I M M A"
_symmetry_group_IT_number 74
_symmetry_cell_setting 'orthorhombic'
loop_
_space_group_symop_operation_xyz
x,y,z
-x,1/2-y,z
x,-y,-z
-x,1/2+y,-z
-x,-y,-z
x,1/2+y,-z
-x,y,z
x,1/2-y,z
1/2+x,1/2+y,1/2+z
1/2-x,-y,1/2+z
1/2+x,1/2-y,1/2-z
1/2-x,y,1/2-z
1/2-x,1/2-y,1/2-z
1/2+x,y,1/2-z
1/2-x,1/2+y,1/2+z
1/2+x,-y,1/2+z
loop_
_atom_site_type_symbol
_atom_site_label
_atom_site_fract_x
_atom_site_fract_y
_atom_site_fract_z
Si Si1 0.207146 0.094066 0.815907
Si Si2 0.624248 0.927626 0.086949
Si Si3 0.228473 0.919897 0.581978
Si Si4 0.940669 0.915810 0.919268
Si Si5 0.594705 0.417325 0.739287
O O1 0.209002 0.250000 0.862943
O O2 0.250000 0.105233 0.750000
O O3 0.153259 0.083227 0.779125
O O4 0.224430 0.952089 0.863155
O O5 0.627492 0.750000 0.080143
O O6 0.590592 0.961565 0.165877
O O7 0.678117 0.996181 0.106558
O O8 0.610048 0.000000 0.000000
O O9 0.217794 0.750000 0.573961
O O10 0.241665 0.000000 0.500000
O O11 0.922118 0.750000 0.920811
O O12 0.000000 0.912889 0.925036
O O13 0.928060 0.989472 0.833323
O O14 0.922353 0.000000 0.000000
O O15 0.576807 0.250000 0.732352
#
# Coordination Sequence:
#
# PCOD9536391 Si02
#       5
#    16  16  16  16  16
#     4  10  19  35  52  71 107 147 184 231 282 333
#     4  10  19  34  53  78 110 149 191 232 279 328
#     4  11  21  32  48  70  99 141 190 233 277 328
#     4  10  22  41  65  91 119 149 185 235 294 354
#     4  10  21  36  59  85 113 151 191 235 290 346
#
# _framework density 19.504498000000002
#
# number of rings (size 3 to 8) (size 9 to 14) (size 15 to 20)
#    0.000    1.800    2.000    4.200    0.000    4.800 
#    0.000    0.000    0.000    0.600    0.000    0.000 
#    0.000    0.000    0.000    0.000    0.000    0.000 
#
# Total GULP energy -222721.370994 kJ/mol
# GULP energy per Si atom -5568.034275 kJ/mol
# Density = 1.946010 g / cm^3
# Si number density = 19.504498 Si / 1000 Ang^3
#
#
#
# Elastic Constant Matrix: (Units=GPa)
#
#
# Indices 1 2 3 4 5 6 
#
# 1 6.8727 11.0083 8.3538 0.0000 0.0000 0.0000
# 2 11.0083 131.4214 81.4037 0.0000 0.0000 0.0000
# 3 8.3538 81.4037 134.9263 0.0000 0.0000 0.0000
# 4 0.0000 0.0000 0.0000 30.8239 0.0000 0.0000
# 5 0.0000 0.0000 0.0000 0.0000 41.1367 0.0000
# 6 0.0000 0.0000 0.0000 0.0000 0.0000 19.4225
#
#
#
# Elastic Compliance Matrix: (Units=1/GPa)
#
#
# Indices 1 2 3 4 5 6 
#
# 1 0.168843 -0.012243 -0.003067 0.000000 0.000000 0.000000
# 2 -0.012243 0.013037 -0.007108 0.000000 0.000000 0.000000
# 3 -0.003067 -0.007108 0.011889 0.000000 0.000000 0.000000
# 4 0.000000 0.000000 0.000000 0.032442 0.000000 0.000000
# 5 0.000000 0.000000 0.000000 0.000000 0.024309 0.000000
# 6 0.000000 0.000000 0.000000 0.000000 0.000000 0.051487
#
#
# Mechanical properties :
#
#
# Convention : Reuss Voigt Hill
#
# Bulk Modulus (GPa) = 6.71439 52.75021 29.73230
# Shear Modulus (GPa) = 12.61073 29.77357 21.19215
#
# Velocity S-wave (km/s) = 2.54550 3.91128 3.29983
# Velocity P-wave (km/s) = 3.47698 6.89212 5.45851
#
# Compressibility (1/GPa) = 0.14893378
#
# Stress axis : x y z
#
# Youngs Moduli (GPa) = 5.92267 76.70421 84.10804
#
# Poissons Ratio (x) = 0.93909 0.25798
# Poissons Ratio (y) = 0.07251 0.59780
# Poissons Ratio (z) = 0.01817 0.54518
#
# Static dielectric constant tensor:
#      x y z
#    x 1.669680 0.000000 0.000000 
#    y 0.000000 1.905480 0.000000 
#    z 0.000000 0.000000 1.733610 
# 
# From -- ./inp_files/39972.got.cif
#   From: 2010.05.17/outbox.cif.g08.bks.cpg/sg74_20_cif.got.tgz:39972.got - 2010.06.03 17:57:02.
