data_PCOD9536177
_publ_section_title
;
Structure prediction by ZEFSAII (Michael W. Deem and Ramdas Pophale) SiO2 
 PCOD9536177
Probable space group: I M M A
;
_chemical_formula_sum "Si O2"
_cell_formula_units_Z 96
_cell_length_a 26.096073
_cell_length_b 7.455798
_cell_length_c 22.347636
_cell_angle_alpha 90.000000
_cell_angle_beta 90.000000
_cell_angle_gamma 90.000000
_cell_volume 4348.113586
_symmetry_space_group_name_H-M "I M M A"
_symmetry_group_IT_number 74
_symmetry_cell_setting 'orthorhombic'
loop_
_space_group_symop_operation_xyz
x,y,z
-x,1/2-y,z
x,-y,-z
-x,1/2+y,-z
-x,-y,-z
x,1/2+y,-z
-x,y,z
x,1/2-y,z
1/2+x,1/2+y,1/2+z
1/2-x,-y,1/2+z
1/2+x,1/2-y,1/2-z
1/2-x,y,1/2-z
1/2-x,1/2-y,1/2-z
1/2+x,y,1/2-z
1/2-x,1/2+y,1/2+z
1/2+x,-y,1/2+z
loop_
_atom_site_type_symbol
_atom_site_label
_atom_site_fract_x
_atom_site_fract_y
_atom_site_fract_z
Si Si1 0.606589 0.547389 0.315538
Si Si2 0.220173 0.469846 0.810577
Si Si3 0.000000 0.037093 0.769446
Si Si4 0.396411 0.464100 0.930412
Si Si5 0.558570 0.962618 0.568675
Si Si6 0.280475 0.034831 0.929567
Si Si7 0.500000 0.963009 0.128202
O O1 0.607784 0.750000 0.290137
O O2 0.661692 0.466329 0.303825
O O3 0.553730 0.461290 0.292925
O O4 0.597922 0.551934 0.386596
O O5 0.219218 0.250000 0.812437
O O6 0.250000 0.520137 0.750000
O O7 0.244926 0.527897 0.874227
O O8 0.000000 0.250000 0.786311
O O9 0.000000 0.021780 0.698858
O O10 0.394220 0.250000 0.919246
O O11 0.338822 0.532579 0.918246
O O12 0.446183 0.536353 0.896310
O O13 0.405740 0.500000 0.000000
O O14 0.500000 0.026073 0.580049
O O15 0.559729 0.750000 0.578117
O O16 0.570087 0.000000 0.500000
O O17 0.281455 0.250000 0.925238
O O18 0.266962 0.000000 0.000000
O O19 0.500000 0.750000 0.112392
#
# Coordination Sequence:
#
# PCOD9536177 Si02
#       7
#    16  16   8  16  16  16   8
#     4  10  19  33  53  77 105 135 170 214 262 312
#     4   9  19  33  53  80 107 137 177 222 263 307
#     4   9  18  29  47  75 102 128 164 211 256 299
#     4   9  17  29  48  71  99 128 161 203 249 298
#     4  10  20  34  54  78 106 137 170 211 261 318
#     4   9  18  33  52  74 100 133 170 210 255 302
#     4   9  17  27  44  73  99 126 163 205 250 297
#
# _framework density 22.07854
#
# number of rings (size 3 to 8) (size 9 to 14) (size 15 to 20)
#    0.000    2.667    0.833    0.750    2.333    1.333 
#    0.000    2.500    0.000    4.000    0.000    0.000 
#    0.000    0.000    0.000    0.000    0.000    0.000 
#
# Total GULP energy -267717.205877 kJ/mol
# GULP energy per Si atom -5577.441789 kJ/mol
# Density = 2.202829 g / cm^3
# Si number density = 22.078540 Si / 1000 Ang^3
#
#
#
# Elastic Constant Matrix: (Units=GPa)
#
#
# Indices 1 2 3 4 5 6 
#
# 1 198.3328 11.3486 95.6266 0.0000 0.0000 0.0000
# 2 11.3486 73.3673 4.3929 0.0000 0.0000 0.0000
# 3 95.6266 4.3929 71.9376 0.0000 0.0000 0.0000
# 4 0.0000 0.0000 0.0000 16.6235 0.0000 0.0000
# 5 0.0000 0.0000 0.0000 0.0000 3.2440 0.0000
# 6 0.0000 0.0000 0.0000 0.0000 0.0000 -16.8730
#
#
#
# Elastic Compliance Matrix: (Units=1/GPa)
#
#
# Indices 1 2 3 4 5 6 
#
# 1 0.014124 -0.001064 -0.018710 0.000000 0.000000 0.000000
# 2 -0.001064 0.013760 0.000575 0.000000 0.000000 0.000000
# 3 -0.018710 0.000575 0.038737 0.000000 0.000000 0.000000
# 4 0.000000 0.000000 0.000000 0.060156 0.000000 0.000000
# 5 0.000000 0.000000 0.000000 0.000000 0.308262 0.000000
# 6 0.000000 0.000000 0.000000 0.000000 0.000000 -0.059266
#
#
# Mechanical properties :
#
#
# Convention : Reuss Voigt Hill
#
# Bulk Modulus (GPa) = 35.43362 62.93045 49.18204
# Shear Modulus (GPa) = 11.80413 16.08353 13.94383
#
# Velocity S-wave (km/s) = 2.31474 2.70194 2.51580
# Velocity P-wave (km/s) = 4.81952 6.18861 5.54647
#
# Compressibility (1/GPa) = 0.02822178
#
# Stress axis : x y z
#
# Youngs Moduli (GPa) = 70.80123 72.67290 25.81501
#
# Poissons Ratio (x) = 0.07736 0.48300
# Poissons Ratio (y) = 0.07536 -0.01484
# Poissons Ratio (z) = 1.32470 -0.04176
#
# Static dielectric constant tensor:
#      x y z
#    x 1.833360 0.000000 0.000000 
#    y 0.000000 1.920310 0.000000 
#    z 0.000000 0.000000 1.772260 
# 
# From -- ./inp_files/61933.got.cif
#   From: 2010.05.17/outbox.cif.g08.bks.cpg/sg74_31_cif.got.tgz:61933.got - 2010.06.03 17:57:02.
