data_PCOD9536191
_publ_section_title
;
Structure prediction by ZEFSAII (Michael W. Deem and Ramdas Pophale) SiO2 
 PCOD9536191
Probable space group: I M M A
;
_chemical_formula_sum "Si O2"
_cell_formula_units_Z 104
_cell_length_a 28.547219
_cell_length_b 8.449785
_cell_length_c 23.401200
_cell_angle_alpha 90.000000
_cell_angle_beta 90.000000
_cell_angle_gamma 90.000000
_cell_volume 5644.787453
_symmetry_space_group_name_H-M "I M M A"
_symmetry_group_IT_number 74
_symmetry_cell_setting 'orthorhombic'
loop_
_space_group_symop_operation_xyz
x,y,z
-x,1/2-y,z
x,-y,-z
-x,1/2+y,-z
-x,-y,-z
x,1/2+y,-z
-x,y,z
x,1/2-y,z
1/2+x,1/2+y,1/2+z
1/2-x,-y,1/2+z
1/2+x,1/2-y,1/2-z
1/2-x,y,1/2-z
1/2-x,1/2-y,1/2-z
1/2+x,y,1/2-z
1/2-x,1/2+y,1/2+z
1/2+x,-y,1/2+z
loop_
_atom_site_type_symbol
_atom_site_label
_atom_site_fract_x
_atom_site_fract_y
_atom_site_fract_z
Si Si1 0.817514 0.562773 0.855670
Si Si2 0.898397 0.941089 0.065260
Si Si3 0.355901 0.060887 0.125414
Si Si4 0.500000 0.439512 0.564902
Si Si5 0.446384 0.939394 0.064178
Si Si6 0.197011 0.563598 0.262896
Si Si7 0.734844 0.940475 0.937859
O O1 0.813621 0.750000 0.843793
O O2 0.858537 0.526992 0.899702
O O3 0.827156 0.469989 0.797596
O O4 0.769995 0.507736 0.887597
O O5 0.892891 0.750000 0.066909
O O6 0.949848 0.986148 0.089695
O O7 0.896376 0.000000 0.000000
O O8 0.358552 0.250000 0.123767
O O9 0.317503 0.007058 0.078279
O O10 0.406613 0.994977 0.108361
O O11 0.332354 0.012501 0.185676
O O12 0.500000 0.250000 0.562818
O O13 0.500000 0.500000 0.500000
O O14 0.500000 0.991993 0.077709
O O15 0.446074 0.750000 0.062920
O O16 0.435451 0.000000 0.000000
O O17 0.200747 0.750000 0.274794
O O18 0.250000 0.500780 0.250000
O O19 0.736210 0.750000 0.938595
O O20 0.749384 0.000000 0.000000
#
# Coordination Sequence:
#
# PCOD9536191 Si02
#       7
#    16  16  16   8  16  16  16
#     4  11  22  37  55  78 110 148 186 230 280 332
#     4  10  19  33  53  80 110 143 182 225 278 333
#     4  11  22  38  60  85 115 154 194 238 286 342
#     4   8  16  30  50  74 104 138 174 218 265 318
#     4  10  21  38  61  91 125 158 195 242 296 353
#     4  11  23  39  60  84 109 147 192 234 279 335
#     4  10  22  35  51  78 113 148 181 222 275 330
#
# _framework density 18.424078000000002
#
# number of rings (size 3 to 8) (size 9 to 14) (size 15 to 20)
#    0.000    1.692    1.538    3.231    0.000    7.077 
#    0.000    0.000    1.692    0.000    0.000    0.000 
#    0.000    0.000    0.000    0.000    0.000    0.000 
#
# Total GULP energy -290134.682087 kJ/mol
# GULP energy per Si atom -5579.513117 kJ/mol
# Density = 1.838214 g / cm^3
# Si number density = 18.424078 Si / 1000 Ang^3
#
#
#
# Elastic Constant Matrix: (Units=GPa)
#
#
# Indices 1 2 3 4 5 6 
#
# 1 122.8658 21.4062 38.5950 0.0000 0.0000 0.0000
# 2 21.4062 33.6139 9.1086 0.0000 0.0000 0.0000
# 3 38.5950 9.1086 86.9324 0.0000 0.0000 0.0000
# 4 0.0000 0.0000 0.0000 30.2920 0.0000 0.0000
# 5 0.0000 0.0000 0.0000 0.0000 16.4356 0.0000
# 6 0.0000 0.0000 0.0000 0.0000 0.0000 23.8598
#
#
#
# Elastic Compliance Matrix: (Units=1/GPa)
#
#
# Indices 1 2 3 4 5 6 
#
# 1 0.010363 -0.005509 -0.004023 0.000000 0.000000 0.000000
# 2 -0.005509 0.033548 -0.001069 0.000000 0.000000 0.000000
# 3 -0.004023 -0.001069 0.013401 0.000000 0.000000 0.000000
# 4 0.000000 0.000000 0.000000 0.033012 0.000000 0.000000
# 5 0.000000 0.000000 0.000000 0.000000 0.060844 0.000000
# 6 0.000000 0.000000 0.000000 0.000000 0.000000 0.041912
#
#
# Mechanical properties :
#
#
# Convention : Reuss Voigt Hill
#
# Bulk Modulus (GPa) = 27.69438 42.40352 35.04895
# Shear Modulus (GPa) = 22.09279 25.73762 23.91521
#
# Velocity S-wave (km/s) = 3.46660 3.74164 3.60674
# Velocity P-wave (km/s) = 5.57560 6.46001 6.03403
#
# Compressibility (1/GPa) = 0.03610840
#
# Stress axis : x y z
#
# Youngs Moduli (GPa) = 96.50086 29.80846 74.61862
#
# Poissons Ratio (x) = 0.16421 0.30022
# Poissons Ratio (y) = 0.53161 0.07979
# Poissons Ratio (z) = 0.38826 0.03187
#
# Static dielectric constant tensor:
#      x y z
#    x 1.682450 0.000000 0.000000 
#    y 0.000000 1.636190 0.000000 
#    z 0.000000 0.000000 1.618820 
# 
# From -- ./inp_files/55237.got.cif
#   From: 2010.05.17/outbox.cif.g08.bks.cpg/sg74_28_cif.got.tgz:55237.got - 2010.06.03 17:57:02.
