data_PCOD9536402
_publ_section_title
;
Structure prediction by ZEFSAII (Michael W. Deem and Ramdas Pophale) SiO2 
 PCOD9536402
Probable space group: I M M A
;
_chemical_formula_sum "Si O2"
_cell_formula_units_Z 116
_cell_length_a 7.783114
_cell_length_b 27.859885
_cell_length_c 29.544355
_cell_angle_alpha 90.000000
_cell_angle_beta 90.000000
_cell_angle_gamma 90.000000
_cell_volume 6406.299289
_symmetry_space_group_name_H-M "I M M A"
_symmetry_group_IT_number 74
_symmetry_cell_setting 'orthorhombic'
loop_
_space_group_symop_operation_xyz
x,y,z
-x,1/2-y,z
x,-y,-z
-x,1/2+y,-z
-x,-y,-z
x,1/2+y,-z
-x,y,z
x,1/2-y,z
1/2+x,1/2+y,1/2+z
1/2-x,-y,1/2+z
1/2+x,1/2-y,1/2-z
1/2-x,y,1/2-z
1/2-x,1/2-y,1/2-z
1/2+x,y,1/2-z
1/2-x,1/2+y,1/2+z
1/2+x,-y,1/2+z
loop_
_atom_site_type_symbol
_atom_site_label
_atom_site_fract_x
_atom_site_fract_y
_atom_site_fract_z
Si Si1 0.201924 0.894014 0.394659
Si Si2 0.705558 0.195673 0.547311
Si Si3 0.206360 0.071705 0.103865
Si Si4 0.800173 0.981045 0.453137
Si Si5 0.000000 0.250000 0.417854
Si Si6 0.206150 0.543499 0.799765
Si Si7 0.297959 0.934333 0.299373
Si Si8 0.207996 0.326879 0.057000
O O1 0.235428 0.841941 0.415256
O O2 0.278809 0.934558 0.428496
O O3 0.257356 0.903108 0.343251
O O4 0.000000 0.902413 0.394279
O O5 0.500000 0.198040 0.550233
O O6 0.774055 0.250000 0.552049
O O7 0.745305 0.177030 0.496778
O O8 0.262348 0.073153 0.156350
O O9 0.239330 0.120010 0.076257
O O10 0.000000 0.064055 0.102575
O O11 0.289866 0.025357 0.081132
O O12 0.000000 0.969305 0.463298
O O13 0.720278 0.000000 0.500000
O O14 0.154886 0.291345 0.420370
O O15 0.250000 0.562266 0.750000
O O16 0.276370 0.488645 0.803488
O O17 0.000000 0.541561 0.801716
O O18 0.500000 0.940419 0.298908
O O19 0.250000 0.914513 0.250000
O O20 0.000000 0.315970 0.063008
#
# Coordination Sequence:
#
# PCOD9536402 Si02
#       8
#    16  16  16  16   4  16  16  16
#     4  11  22  33  52  81 111 147 187 228 278 334
#     4  10  21  38  57  78 109 144 188 241 286 325
#     4  10  20  35  54  79 113 147 183 226 280 335
#     4  10  21  34  47  73 113 150 183 220 263 330
#     4  12  22  36  64  82 112 156 198 232 304 332
#     4   9  18  32  52  78 109 146 181 224 277 331
#     4  10  19  34  54  76 107 143 186 227 274 333
#     4  10  22  38  57  86 117 146 194 246 283 340
#
# _framework density 18.107178999999999
#
# number of rings (size 3 to 8) (size 9 to 14) (size 15 to 20)
#    0.000    1.931    2.069    1.862    1.931    2.207 
#    0.000    0.000    0.000    0.414    0.000    0.483 
#    0.000    0.000    0.000    0.000    0.000    0.000 
#
# Total GULP energy -322874.503806 kJ/mol
# GULP energy per Si atom -5566.801790 kJ/mol
# Density = 1.806597 g / cm^3
# Si number density = 18.107179 Si / 1000 Ang^3
#
#
#
# Elastic Constant Matrix: (Units=GPa)
#
#
# Indices 1 2 3 4 5 6 
#
# 1 36.5482 11.2705 10.6083 0.0000 0.0000 0.0000
# 2 11.2705 87.3136 66.5158 0.0000 0.0000 0.0000
# 3 10.6083 66.5158 137.1204 0.0000 0.0000 0.0000
# 4 0.0000 0.0000 0.0000 0.9953 0.0000 0.0000
# 5 0.0000 0.0000 0.0000 0.0000 14.7099 0.0000
# 6 0.0000 0.0000 0.0000 0.0000 0.0000 1042.2727
#
#
#
# Elastic Compliance Matrix: (Units=1/GPa)
#
#
# Indices 1 2 3 4 5 6 
#
# 1 0.028534 -0.003175 -0.000668 0.000000 0.000000 0.000000
# 2 -0.003175 0.018519 -0.008738 0.000000 0.000000 0.000000
# 3 -0.000668 -0.008738 0.011583 0.000000 0.000000 0.000000
# 4 0.000000 0.000000 0.000000 1.004738 0.000000 0.000000
# 5 0.000000 0.000000 0.000000 0.000000 0.067981 0.000000
# 6 0.000000 0.000000 0.000000 0.000000 0.000000 0.000959
#
#
# Mechanical properties :
#
#
# Convention : Reuss Voigt Hill
#
# Bulk Modulus (GPa) = 29.87203 48.64128 39.25665
# Shear Modulus (GPa) = 4.27850 223.10142 113.68996
#
# Velocity S-wave (km/s) = 1.53883 11.11211 7.93244
# Velocity P-wave (km/s) = 4.43740 13.84052 10.27742
#
# Compressibility (1/GPa) = 0.03347614
#
# Stress axis : x y z
#
# Youngs Moduli (GPa) = 35.04612 53.99751 86.33184
#
# Poissons Ratio (x) = 0.17142 0.05763
# Poissons Ratio (y) = 0.11126 0.75436
# Poissons Ratio (z) = 0.02339 0.47183
#
# Static dielectric constant tensor:
#      x y z
#    x 1.663690 0.000000 0.000000 
#    y 0.000000 1.646140 0.000000 
#    z 0.000000 0.000000 1.636530 
# 
# From -- ./inp_files/57690.got.cif
#   From: 2010.05.17/outbox.cif.g08.bks.cpg/sg74_29_cif.got.tgz:57690.got - 2010.06.03 17:57:02.
