data_PCOD9536973
_publ_section_title
;
Structure prediction by ZEFSAII (Michael W. Deem and Ramdas Pophale) SiO2 
 PCOD9536973
Probable space group: I M M A
;
_chemical_formula_sum "Si O2"
_cell_formula_units_Z 72
_cell_length_a 16.439671
_cell_length_b 18.033572
_cell_length_c 14.353851
_cell_angle_alpha 90.000000
_cell_angle_beta 90.000000
_cell_angle_gamma 90.000000
_cell_volume 4255.428656
_symmetry_space_group_name_H-M "I M M A"
_symmetry_group_IT_number 74
_symmetry_cell_setting 'orthorhombic'
loop_
_space_group_symop_operation_xyz
x,y,z
-x,1/2-y,z
x,-y,-z
-x,1/2+y,-z
-x,-y,-z
x,1/2+y,-z
-x,y,z
x,1/2-y,z
1/2+x,1/2+y,1/2+z
1/2-x,-y,1/2+z
1/2+x,1/2-y,1/2-z
1/2-x,y,1/2-z
1/2-x,1/2-y,1/2-z
1/2+x,y,1/2-z
1/2-x,1/2+y,1/2+z
1/2+x,-y,1/2+z
loop_
_atom_site_type_symbol
_atom_site_label
_atom_site_fract_x
_atom_site_fract_y
_atom_site_fract_z
Si Si1 0.153373 0.750000 0.764905
Si Si2 0.831974 0.400728 0.528013
Si Si3 0.682556 0.000000 0.500000
Si Si4 0.596325 0.989690 0.852275
Si Si5 0.598750 0.250000 0.048242
Si Si6 0.902194 0.090445 0.164135
O O1 0.250000 0.750000 0.750000
O O2 0.113068 0.750000 0.660940
O O3 0.128870 0.674709 0.819727
O O4 0.741589 0.434358 0.539297
O O5 0.879246 0.427263 0.620297
O O6 0.865228 0.442840 0.435853
O O7 0.855322 0.318569 0.499887
O O8 0.631073 0.043890 0.422944
O O9 0.500000 0.981472 0.857021
O O10 0.624395 0.956273 0.755219
O O11 0.500000 0.250000 0.033800
O O12 0.000000 0.093280 0.160772
#
# Coordination Sequence:
#
# PCOD9536973 Si02
#       6
#     8  16   8  16   8  16
#     4  12  24  34  58  91 122 145 180 238 302 348
#     4  10  20  31  53  81 117 146 182 227 288 350
#     4  10  23  38  53  76 108 158 202 240 279 322
#     4   9  17  31  52  79 111 147 182 225 279 345
#     4  12  20  34  56  88 124 150 176 229 303 362
#     4  11  22  38  58  81 113 152 197 239 282 337
#
# _framework density 16.919564000000001
#
# number of rings (size 3 to 8) (size 9 to 14) (size 15 to 20)
#    0.000    1.778    2.222    5.333    3.111    0.000 
#    0.000    0.000    0.000    4.000    0.000    3.111 
#    0.000    0.000    0.000    0.000    0.000    0.000 
#
# Total GULP energy -200422.991561 kJ/mol
# GULP energy per Si atom -5567.305321 kJ/mol
# Density = 1.688105 g / cm^3
# Si number density = 16.919564 Si / 1000 Ang^3
#
#
#
# Elastic Constant Matrix: (Units=GPa)
#
#
# Indices 1 2 3 4 5 6 
#
# 1 82.9502 48.9983 40.1556 0.0000 0.0000 0.0000
# 2 48.9983 159.7217 76.4098 0.0000 0.0000 0.0000
# 3 40.1556 76.4098 98.1781 0.0000 0.0000 0.0000
# 4 0.0000 0.0000 0.0000 31.6000 0.0000 0.0000
# 5 0.0000 0.0000 0.0000 0.0000 37.0206 0.0000
# 6 0.0000 0.0000 0.0000 0.0000 0.0000 27.9068
#
#
#
# Elastic Compliance Matrix: (Units=1/GPa)
#
#
# Indices 1 2 3 4 5 6 
#
# 1 0.015777 -0.002793 -0.004279 0.000000 0.000000 0.000000
# 2 -0.002793 0.010469 -0.007006 0.000000 0.000000 0.000000
# 3 -0.004279 -0.007006 0.017388 0.000000 0.000000 0.000000
# 4 0.000000 0.000000 0.000000 0.031646 0.000000 0.000000
# 5 0.000000 0.000000 0.000000 0.000000 0.027012 0.000000
# 6 0.000000 0.000000 0.000000 0.000000 0.000000 0.035834
#
#
# Mechanical properties :
#
#
# Convention : Reuss Voigt Hill
#
# Bulk Modulus (GPa) = 64.60497 74.66416 69.63456
# Shear Modulus (GPa) = 29.16480 30.99124 30.07802
#
# Velocity S-wave (km/s) = 4.15629 4.28446 4.22086
# Velocity P-wave (km/s) = 7.82940 8.28855 8.06225
#
# Compressibility (1/GPa) = 0.01547869
#
# Stress axis : x y z
#
# Youngs Moduli (GPa) = 63.38493 95.51983 57.51043
#
# Poissons Ratio (x) = 0.26675 0.24611
# Poissons Ratio (y) = 0.17701 0.40290
# Poissons Ratio (z) = 0.27124 0.66917
#
# Static dielectric constant tensor:
#      x y z
#    x 1.599400 0.000000 0.000000 
#    y 0.000000 1.666300 0.000000 
#    z 0.000000 0.000000 1.572020 
# 
# From -- ./inp_files/31966.got.cif
#   From: 2010.05.17/outbox.cif.g08.bks.cpg/sg74_16_cif.got.tgz:31966.got - 2010.06.03 17:57:02.
