data_PCOD9536221
_publ_section_title
;
Structure prediction by ZEFSAII (Michael W. Deem and Ramdas Pophale) SiO2 
 PCOD9536221
Probable space group: I M M A
;
_chemical_formula_sum "Si O2"
_cell_formula_units_Z 88
_cell_length_a 8.452898
_cell_length_b 23.327010
_cell_length_c 25.377351
_cell_angle_alpha 90.000000
_cell_angle_beta 90.000000
_cell_angle_gamma 90.000000
_cell_volume 5003.927290
_symmetry_space_group_name_H-M "I M M A"
_symmetry_group_IT_number 74
_symmetry_cell_setting 'orthorhombic'
loop_
_space_group_symop_operation_xyz
x,y,z
-x,1/2-y,z
x,-y,-z
-x,1/2+y,-z
-x,-y,-z
x,1/2+y,-z
-x,y,z
x,1/2-y,z
1/2+x,1/2+y,1/2+z
1/2-x,-y,1/2+z
1/2+x,1/2-y,1/2-z
1/2-x,y,1/2-z
1/2-x,1/2-y,1/2-z
1/2+x,y,1/2-z
1/2-x,1/2+y,1/2+z
1/2+x,-y,1/2+z
loop_
_atom_site_type_symbol
_atom_site_label
_atom_site_fract_x
_atom_site_fract_y
_atom_site_fract_z
Si Si1 0.693039 0.316179 0.397105
Si Si2 0.188388 0.467319 0.691280
Si Si3 0.189203 0.250000 0.690016
Si Si4 0.692300 0.683472 0.484968
Si Si5 0.309575 0.139249 0.626094
Si Si6 0.309949 0.594615 0.691296
O O1 0.500000 0.316615 0.396865
O O2 0.740912 0.250000 0.388251
O O3 0.743937 0.333686 0.456259
O O4 0.745928 0.359320 0.351748
O O5 0.250000 0.453258 0.750000
O O6 0.247646 0.418897 0.651701
O O7 0.251845 0.530637 0.678083
O O8 0.000000 0.468640 0.692515
O O9 0.250000 0.250000 0.750000
O O10 0.250695 0.193650 0.659751
O O11 0.000000 0.250000 0.690069
O O12 0.500000 0.682166 0.485250
O O13 0.737856 0.750000 0.476954
O O14 0.744550 0.647660 0.434437
O O15 0.500000 0.139336 0.627230
O O16 0.500000 0.594343 0.692097
O O17 0.250000 0.608427 0.750000
#
# Coordination Sequence:
#
# PCOD9536221 Si02
#       6
#    16  16   8  16  16  16
#     4   8  15  29  52  82 110 134 169 215 258 302
#     4  11  22  37  54  73 101 139 177 218 263 315
#     4  12  24  36  50  74 108 140 175 218 263 310
#     4   8  14  28  51  78 104 133 170 215 259 300
#     4  11  20  34  55  79 103 134 176 221 265 308
#     4  10  19  33  54  79 106 138 173 213 259 312
#
# _framework density 17.586186999999999
#
# number of rings (size 3 to 8) (size 9 to 14) (size 15 to 20)
#    0.000    2.182    0.909    6.273    0.000    0.364 
#    0.000    0.909    0.000   11.455    0.000    0.000 
#    0.000    0.000    0.000    0.000    0.000    0.000 
#
# Total GULP energy -245514.333669 kJ/mol
# GULP energy per Si atom -5579.871220 kJ/mol
# Density = 1.754616 g / cm^3
# Si number density = 17.586187 Si / 1000 Ang^3
#
#
#
# Elastic Constant Matrix: (Units=GPa)
#
#
# Indices 1 2 3 4 5 6 
#
# 1 69.2013 29.5087 36.1876 0.0000 0.0000 0.0000
# 2 29.5087 123.6859 130.2398 0.0000 0.0000 0.0000
# 3 36.1876 130.2398 182.3712 0.0000 0.0000 0.0000
# 4 0.0000 0.0000 0.0000 34.2545 0.0000 0.0000
# 5 0.0000 0.0000 0.0000 0.0000 20.4369 0.0000
# 6 0.0000 0.0000 0.0000 0.0000 0.0000 20.5616
#
#
#
# Elastic Compliance Matrix: (Units=1/GPa)
#
#
# Indices 1 2 3 4 5 6 
#
# 1 0.016238 -0.001940 -0.001836 0.000000 0.000000 0.000000
# 2 -0.001940 0.032831 -0.023061 0.000000 0.000000 0.000000
# 3 -0.001836 -0.023061 0.022317 0.000000 0.000000 0.000000
# 4 0.000000 0.000000 0.000000 0.029193 0.000000 0.000000
# 5 0.000000 0.000000 0.000000 0.000000 0.048931 0.000000
# 6 0.000000 0.000000 0.000000 0.000000 0.000000 0.048634
#
#
# Mechanical properties :
#
#
# Convention : Reuss Voigt Hill
#
# Bulk Modulus (GPa) = 56.46446 85.23672 70.85059
# Shear Modulus (GPa) = 19.40057 27.00541 23.20299
#
# Velocity S-wave (km/s) = 3.32500 3.92293 3.63628
# Velocity P-wave (km/s) = 6.84966 8.31218 7.61611
#
# Compressibility (1/GPa) = 0.01771026
#
# Stress axis : x y z
#
# Youngs Moduli (GPa) = 61.58264 30.45893 44.80926
#
# Poissons Ratio (x) = 0.05910 0.08229
# Poissons Ratio (y) = 0.11949 1.03336
# Poissons Ratio (z) = 0.11309 0.70242
#
# Static dielectric constant tensor:
#      x y z
#    x 1.609210 0.000000 0.000000 
#    y 0.000000 1.573940 0.000000 
#    z 0.000000 0.000000 1.616120 
# 
# From -- ./inp_files/48741.got.cif
#   From: 2010.05.17/outbox.cif.g08.bks.cpg/sg74_25_cif.got.tgz:48741.got - 2010.06.03 17:57:02.
