data_PCOD9536421
_publ_section_title
;
Structure prediction by ZEFSAII (Michael W. Deem and Ramdas Pophale) SiO2 
 PCOD9536421
Probable space group: I M M A
;
_chemical_formula_sum "Si O2"
_cell_formula_units_Z 116
_cell_length_a 7.991710
_cell_length_b 24.983253
_cell_length_c 29.759942
_cell_angle_alpha 90.000000
_cell_angle_beta 90.000000
_cell_angle_gamma 90.000000
_cell_volume 5941.837666
_symmetry_space_group_name_H-M "I M M A"
_symmetry_group_IT_number 74
_symmetry_cell_setting 'orthorhombic'
loop_
_space_group_symop_operation_xyz
x,y,z
-x,1/2-y,z
x,-y,-z
-x,1/2+y,-z
-x,-y,-z
x,1/2+y,-z
-x,y,z
x,1/2-y,z
1/2+x,1/2+y,1/2+z
1/2-x,-y,1/2+z
1/2+x,1/2-y,1/2-z
1/2-x,y,1/2-z
1/2-x,1/2-y,1/2-z
1/2+x,y,1/2-z
1/2-x,1/2+y,1/2+z
1/2+x,-y,1/2+z
loop_
_atom_site_type_symbol
_atom_site_label
_atom_site_fract_x
_atom_site_fract_y
_atom_site_fract_z
Si Si1 0.197710 0.934258 0.608377
Si Si2 0.299431 0.151579 0.543259
Si Si3 0.297924 0.528172 0.453034
Si Si4 0.805298 0.023914 0.300716
Si Si5 0.196498 0.691300 0.362470
Si Si6 0.194181 0.596015 0.200385
Si Si7 0.500000 0.250000 0.084758
Si Si8 0.696469 0.171078 0.439487
O O1 0.289124 0.889534 0.578846
O O2 0.000000 0.921674 0.608800
O O3 0.221104 0.992079 0.585664
O O4 0.268915 0.940974 0.658841
O O5 0.500000 0.152985 0.549367
O O6 0.243934 0.089732 0.546741
O O7 0.220645 0.183553 0.584290
O O8 0.267052 0.172373 0.493087
O O9 0.254626 0.500000 0.500000
O O10 0.500000 0.527280 0.448591
O O11 0.750000 0.034677 0.250000
O O12 0.780904 0.960586 0.309668
O O13 0.000000 0.034900 0.302311
O O14 0.263796 0.750000 0.349523
O O15 0.276322 0.641912 0.336000
O O16 0.000000 0.690012 0.352153
O O17 0.250000 0.614490 0.250000
O O18 0.000000 0.582881 0.202678
O O19 0.347422 0.295797 0.082854
O O20 0.500000 0.187678 0.433149
#
# Coordination Sequence:
#
# PCOD9536421 Si02
#       8
#    16  16  16  16  16  16   4  16
#     4  11  22  37  58  91 128 161 205 253 301 369
#     4  10  22  38  57  84 118 159 209 253 308 367
#     4  10  19  34  54  80 118 161 200 245 300 368
#     4  10  21  37  61  93 129 161 197 240 300 369
#     4  11  25  40  57  79 109 153 205 261 315 359
#     4  11  22  39  62  85 115 153 196 248 308 372
#     4  12  26  44  64  88 126 156 222 252 314 358
#     4  11  24  42  65  90 122 166 208 259 310 365
#
# _framework density 19.522579
#
# number of rings (size 3 to 8) (size 9 to 14) (size 15 to 20)
#    0.000    1.379    2.069    4.345    1.931    6.621 
#    0.000    0.000    0.000    0.000    0.000    0.483 
#    0.000    0.000    0.000    0.000    0.000    0.000 
#
# Total GULP energy -323383.626427 kJ/mol
# GULP energy per Si atom -5575.579766 kJ/mol
# Density = 1.947814 g / cm^3
# Si number density = 19.522579 Si / 1000 Ang^3
#
#
#
# Elastic Constant Matrix: (Units=GPa)
#
#
# Indices 1 2 3 4 5 6 
#
# 1 48.8251 -3.5514 3.0120 0.0000 0.0000 0.0000
# 2 -3.5514 23.1788 -1.3737 0.0000 0.0000 0.0000
# 3 3.0120 -1.3737 82.9623 0.0000 0.0000 0.0000
# 4 0.0000 0.0000 0.0000 30.1687 0.0000 0.0000
# 5 0.0000 0.0000 0.0000 0.0000 19.4522 0.0000
# 6 0.0000 0.0000 0.0000 0.0000 0.0000 38.4907
#
#
#
# Elastic Compliance Matrix: (Units=1/GPa)
#
#
# Indices 1 2 3 4 5 6 
#
# 1 0.020753 0.003138 -0.000701 0.000000 0.000000 0.000000
# 2 0.003138 0.043660 0.000609 0.000000 0.000000 0.000000
# 3 -0.000701 0.000609 0.012089 0.000000 0.000000 0.000000
# 4 0.000000 0.000000 0.000000 0.033147 0.000000 0.000000
# 5 0.000000 0.000000 0.000000 0.000000 0.051408 0.000000
# 6 0.000000 0.000000 0.000000 0.000000 0.000000 0.025980
#
#
# Mechanical properties :
#
#
# Convention : Reuss Voigt Hill
#
# Bulk Modulus (GPa) = 12.10755 16.79333 14.45044
# Shear Modulus (GPa) = 23.98348 28.08095 26.03222
#
# Velocity S-wave (km/s) = 3.50880 3.79672 3.65559
# Velocity P-wave (km/s) = 4.75719 5.27643 5.02352
#
# Compressibility (1/GPa) = 0.08259308
#
# Stress axis : x y z
#
# Youngs Moduli (GPa) = 48.18625 22.90437 82.71835
#
# Poissons Ratio (x) = -0.07188 0.05802
# Poissons Ratio (y) = -0.15121 -0.05038
# Poissons Ratio (z) = 0.03380 -0.01395
#
# Static dielectric constant tensor:
#      x y z
#    x 1.694550 0.000000 0.000000 
#    y 0.000000 1.692010 0.000000 
#    z 0.000000 0.000000 1.714690 
# 
# From -- ./inp_files/64852.got.cif
#   From: 2010.05.17/outbox.cif.g08.bks.cpg/sg74_33_cif.got.tgz:64852.got - 2010.06.03 17:57:02.
