data_PCOD9536516
_publ_section_title
;
Structure prediction by ZEFSAII (Michael W. Deem and Ramdas Pophale) SiO2 
 PCOD9536516
Probable space group: I M M A
;
_chemical_formula_sum "Si O2"
_cell_formula_units_Z 112
_cell_length_a 31.238600
_cell_length_b 15.581178
_cell_length_c 11.511336
_cell_angle_alpha 90.000000
_cell_angle_beta 90.000000
_cell_angle_gamma 90.000000
_cell_volume 5602.960770
_symmetry_space_group_name_H-M "I M M A"
_symmetry_group_IT_number 74
_symmetry_cell_setting 'orthorhombic'
loop_
_space_group_symop_operation_xyz
x,y,z
-x,1/2-y,z
x,-y,-z
-x,1/2+y,-z
-x,-y,-z
x,1/2+y,-z
-x,y,z
x,1/2-y,z
1/2+x,1/2+y,1/2+z
1/2-x,-y,1/2+z
1/2+x,1/2-y,1/2-z
1/2-x,y,1/2-z
1/2-x,1/2-y,1/2-z
1/2+x,y,1/2-z
1/2-x,1/2+y,1/2+z
1/2+x,-y,1/2+z
loop_
_atom_site_type_symbol
_atom_site_label
_atom_site_fract_x
_atom_site_fract_y
_atom_site_fract_z
Si Si1 0.634241 0.150840 0.448749
Si Si2 0.452595 0.092276 0.563184
Si Si3 0.281811 0.581330 0.423902
Si Si4 0.406714 0.349622 0.209392
Si Si5 0.952191 0.974923 0.322609
Si Si6 0.200418 0.153434 0.684316
Si Si7 0.873072 0.591975 0.470197
O O1 0.644977 0.250000 0.442842
O O2 0.589717 0.139234 0.518369
O O3 0.675003 0.108241 0.508605
O O4 0.623151 0.122620 0.317548
O O5 0.500000 0.131128 0.538942
O O6 0.449285 0.073372 0.699563
O O7 0.452062 0.000000 0.500000
O O8 0.267263 0.500000 0.500000
O O9 0.239531 0.640040 0.406083
O O10 0.296317 0.582950 0.287615
O O11 0.420391 0.250000 0.228118
O O12 0.442344 0.424215 0.200205
O O13 0.381962 0.357313 0.087966
O O14 0.917249 0.934651 0.407604
O O15 0.000000 0.964585 0.368163
O O16 0.202283 0.250000 0.734566
O O17 0.156514 0.142123 0.617580
O O18 0.851897 0.500000 0.500000
#
# Coordination Sequence:
#
# PCOD9536516 Si02
#       7
#    16  16  16  16  16  16  16
#     4  11  22  37  59  89 124 160 199 251 310 365
#     4  10  19  34  57  83 116 155 198 246 299 359
#     4  11  24  39  65  94 123 153 201 252 305 364
#     4  10  22  37  56  85 122 162 204 250 306 366
#     4  10  21  38  60  87 117 158 212 261 306 363
#     4  11  23  44  68  93 123 163 207 253 309 373
#     4  10  22  38  63  88 120 162 208 253 307 366
#
# _framework density 19.989431
#
# number of rings (size 3 to 8) (size 9 to 14) (size 15 to 20)
#    0.000    1.571    1.429    3.857    4.000    3.143 
#    0.000    2.143    0.000    5.571    0.000    0.000 
#    0.000    0.000    0.000    0.000    0.000    0.000 
#
# Total GULP energy -312140.369563 kJ/mol
# GULP energy per Si atom -5573.935171 kJ/mol
# Density = 1.994393 g / cm^3
# Si number density = 19.989431 Si / 1000 Ang^3
#
#
#
# Elastic Constant Matrix: (Units=GPa)
#
#
# Indices 1 2 3 4 5 6 
#
# 1 123.7683 22.3108 50.9210 0.0000 0.0000 0.0000
# 2 22.3108 47.2736 22.4014 0.0000 0.0000 0.0000
# 3 50.9210 22.4014 119.0234 0.0000 0.0000 0.0000
# 4 0.0000 0.0000 0.0000 21.4075 0.0000 0.0000
# 5 0.0000 0.0000 0.0000 0.0000 0.9556 0.0000
# 6 0.0000 0.0000 0.0000 0.0000 0.0000 -3.1400
#
#
#
# Elastic Compliance Matrix: (Units=1/GPa)
#
#
# Indices 1 2 3 4 5 6 
#
# 1 0.010181 -0.003009 -0.003789 0.000000 0.000000 0.000000
# 2 -0.003009 0.024114 -0.003251 0.000000 0.000000 0.000000
# 3 -0.003789 -0.003251 0.010635 0.000000 0.000000 0.000000
# 4 0.000000 0.000000 0.000000 0.046713 0.000000 0.000000
# 5 0.000000 0.000000 0.000000 0.000000 1.046461 0.000000
# 6 0.000000 0.000000 0.000000 0.000000 0.000000 -0.318469
#
#
# Mechanical properties :
#
#
# Convention : Reuss Voigt Hill
#
# Bulk Modulus (GPa) = 40.27277 53.48128 46.87703
# Shear Modulus (GPa) = 5.89615 16.80676 11.35145
#
# Velocity S-wave (km/s) = 1.71931 2.90277 2.38559
# Velocity P-wave (km/s) = 4.91245 6.16828 5.57583
#
# Compressibility (1/GPa) = 0.02483067
#
# Stress axis : x y z
#
# Youngs Moduli (GPa) = 98.22127 41.46915 94.03135
#
# Poissons Ratio (x) = 0.12479 0.35631
# Poissons Ratio (y) = 0.29558 0.30570
# Poissons Ratio (z) = 0.37219 0.13482
#
# Static dielectric constant tensor:
#      x y z
#    x 1.714670 0.000000 0.000000 
#    y 0.000000 1.729940 0.000000 
#    z 0.000000 0.000000 1.723470 
# 
# From -- ./inp_files/27213.got.cif
#   From: 2010.05.17/outbox.cif.g08.bks.cpg/sg74_14_cif.got.tgz:27213.got - 2010.06.03 17:57:02.
