data_PCOD9536400
_publ_section_title
;
Structure prediction by ZEFSAII (Michael W. Deem and Ramdas Pophale) SiO2 
 PCOD9536400
Probable space group: I M M A
;
_chemical_formula_sum "Si O2"
_cell_formula_units_Z 112
_cell_length_a 14.133399
_cell_length_b 12.046303
_cell_length_c 31.436897
_cell_angle_alpha 90.000000
_cell_angle_beta 90.000000
_cell_angle_gamma 90.000000
_cell_volume 5352.295399
_symmetry_space_group_name_H-M "I M M A"
_symmetry_group_IT_number 74
_symmetry_cell_setting 'orthorhombic'
loop_
_space_group_symop_operation_xyz
x,y,z
-x,1/2-y,z
x,-y,-z
-x,1/2+y,-z
-x,-y,-z
x,1/2+y,-z
-x,y,z
x,1/2-y,z
1/2+x,1/2+y,1/2+z
1/2-x,-y,1/2+z
1/2+x,1/2-y,1/2-z
1/2-x,y,1/2-z
1/2-x,1/2-y,1/2-z
1/2+x,y,1/2-z
1/2-x,1/2+y,1/2+z
1/2+x,-y,1/2+z
loop_
_atom_site_type_symbol
_atom_site_label
_atom_site_fract_x
_atom_site_fract_y
_atom_site_fract_z
Si Si1 0.256772 0.556246 0.088536
Si Si2 0.389777 0.868040 0.878297
Si Si3 0.388533 0.545365 0.785257
Si Si4 0.891689 0.626355 0.480698
Si Si5 0.613699 0.374276 0.400408
Si Si6 0.610365 0.422626 0.305655
Si Si7 0.269273 0.624582 0.315962
O O1 0.336976 0.466699 0.099735
O O2 0.304491 0.627420 0.052062
O O3 0.166462 0.478262 0.078210
O O4 0.240118 0.619969 0.132787
O O5 0.500000 0.872451 0.889140
O O6 0.349966 0.750000 0.891352
O O7 0.381948 0.881454 0.827514
O O8 0.500000 0.512537 0.781078
O O9 0.360167 0.609000 0.742017
O O10 0.318062 0.443019 0.794944
O O11 0.883426 0.500000 0.500000
O O12 0.886658 0.750000 0.503567
O O13 0.000000 0.626171 0.462853
O O14 0.500000 0.390534 0.400784
O O15 0.631944 0.250000 0.417128
O O16 0.648599 0.377572 0.350531
O O17 0.500000 0.399214 0.307854
O O18 0.637637 0.552507 0.306155
O O19 0.273251 0.750000 0.301350
#
# Coordination Sequence:
#
# PCOD9536400 Si02
#       7
#    16  16  16  16  16  16  16
#     4  10  19  34  54  76 105 139 175 215 263 316
#     4   9  17  28  44  69  99 132 172 216 264 322
#     4   9  18  30  42  61  90 124 166 217 270 324
#     4  10  22  40  63  93 126 155 182 213 255 315
#     4   9  18  32  51  76 104 138 184 234 282 330
#     4   9  18  31  45  63  90 124 167 221 276 325
#     4  10  20  32  46  64  88 123 167 213 261 315
#
# _framework density 20.925602000000001
#
# number of rings (size 3 to 8) (size 9 to 14) (size 15 to 20)
#    0.000    2.571    0.000    1.714    0.000    4.000 
#    0.000    5.714    0.000    6.857    0.000    0.000 
#    0.000    0.000    0.000    0.000    0.000    0.000 
#
# Total GULP energy -311765.069002 kJ/mol
# GULP energy per Si atom -5567.233375 kJ/mol
# Density = 2.087797 g / cm^3
# Si number density = 20.925602 Si / 1000 Ang^3
#
#
#
# Elastic Constant Matrix: (Units=GPa)
#
#
# Indices 1 2 3 4 5 6 
#
# 1 65.4310 13.0509 11.6185 0.0000 0.0000 0.0000
# 2 13.0509 126.6224 9.5072 0.0000 0.0000 0.0000
# 3 11.6185 9.5072 35.4207 0.0000 0.0000 0.0000
# 4 0.0000 0.0000 0.0000 -5.3194 0.0000 0.0000
# 5 0.0000 0.0000 0.0000 0.0000 21.1619 0.0000
# 6 0.0000 0.0000 0.0000 0.0000 0.0000 25.9973
#
#
#
# Elastic Compliance Matrix: (Units=1/GPa)
#
#
# Indices 1 2 3 4 5 6 
#
# 1 0.016441 -0.001316 -0.005040 0.000000 0.000000 0.000000
# 2 -0.001316 0.008165 -0.001760 0.000000 0.000000 0.000000
# 3 -0.005040 -0.001760 0.030357 0.000000 0.000000 0.000000
# 4 0.000000 0.000000 0.000000 -0.187990 0.000000 0.000000
# 5 0.000000 0.000000 0.000000 0.000000 0.047255 0.000000
# 6 0.000000 0.000000 0.000000 0.000000 0.000000 0.038465
#
#
# Mechanical properties :
#
#
# Convention : Reuss Voigt Hill
#
# Bulk Modulus (GPa) = 25.81826 32.86972 29.34399
# Shear Modulus (GPa) = -275.25630 21.25447 -127.00092
#
# Velocity S-wave (km/s) = -11.48155 3.19049 -7.79894
# Velocity P-wave (km/s) = 12.78292 5.41427 8.18807
#
# Compressibility (1/GPa) = 0.03873227
#
# Stress axis : x y z
#
# Youngs Moduli (GPa) = 60.82482 122.46963 32.94080
#
# Poissons Ratio (x) = 0.16119 0.16601
# Poissons Ratio (y) = 0.08005 0.05797
# Poissons Ratio (z) = 0.30653 0.21554
#
# Static dielectric constant tensor:
#      x y z
#    x 1.765460 0.000000 0.000000 
#    y 0.000000 1.760360 0.000000 
#    z 0.000000 0.000000 1.816090 
# 
# From -- ./inp_files/71867.got.cif
#   From: 2010.05.17/outbox.cif.g08.bks.cpg/sg74_36_cif.got.tgz:71867.got - 2010.06.03 17:57:02.
