data_PCOD9536313
_publ_section_title
;
Structure prediction by ZEFSAII (Michael W. Deem and Ramdas Pophale) SiO2 
 PCOD9536313
Probable space group: I M M A
;
_chemical_formula_sum "Si O2"
_cell_formula_units_Z 88
_cell_length_a 21.743929
_cell_length_b 9.073791
_cell_length_c 23.937757
_cell_angle_alpha 90.000000
_cell_angle_beta 90.000000
_cell_angle_gamma 90.000000
_cell_volume 4722.916279
_symmetry_space_group_name_H-M "I M M A"
_symmetry_group_IT_number 74
_symmetry_cell_setting 'orthorhombic'
loop_
_space_group_symop_operation_xyz
x,y,z
-x,1/2-y,z
x,-y,-z
-x,1/2+y,-z
-x,-y,-z
x,1/2+y,-z
-x,y,z
x,1/2-y,z
1/2+x,1/2+y,1/2+z
1/2-x,-y,1/2+z
1/2+x,1/2-y,1/2-z
1/2-x,y,1/2-z
1/2-x,1/2-y,1/2-z
1/2+x,y,1/2-z
1/2-x,1/2+y,1/2+z
1/2+x,-y,1/2+z
loop_
_atom_site_type_symbol
_atom_site_label
_atom_site_fract_x
_atom_site_fract_y
_atom_site_fract_z
Si Si1 0.379906 0.928037 0.118102
Si Si2 0.573182 0.086004 0.446053
Si Si3 0.752340 0.425527 0.558798
Si Si4 0.500000 0.428670 0.062485
Si Si5 0.679954 0.070879 0.763694
Si Si6 0.355555 0.573247 0.356831
O O1 0.391532 0.750000 0.119264
O O2 0.322245 0.955496 0.077147
O O3 0.354089 0.974475 0.179435
O O4 0.439742 0.012295 0.095662
O O5 0.500000 0.095725 0.451375
O O6 0.599294 0.250000 0.444358
O O7 0.596961 0.000000 0.500000
O O8 0.589910 0.997341 0.391282
O O9 0.738673 0.500000 0.500000
O O10 0.745586 0.250000 0.552890
O O11 0.706266 0.470235 0.609020
O O12 0.500000 0.250000 0.058734
O O13 0.500000 0.500000 0.000000
O O14 0.683255 0.250000 0.767498
O O15 0.750000 0.022271 0.750000
O O16 0.644402 0.028667 0.707503
O O17 0.358579 0.750000 0.358515
#
# Coordination Sequence:
#
# PCOD9536313 Si02
#       6
#    16  16  16   8  16  16
#     4  10  20  38  63  88 117 154 196 241 292 351
#     4  10  21  37  55  76 107 147 187 231 280 332
#     4  10  20  32  52  83 115 145 181 231 285 340
#     4  12  26  44  64  88 120 158 203 254 305 358
#     4   9  16  33  61  88 115 147 187 232 279 335
#     4  10  19  33  56  85 113 145 186 231 279 337
#
# _framework density 18.632555
#
# number of rings (size 3 to 8) (size 9 to 14) (size 15 to 20)
#    0.000    2.000    1.818    2.455    0.000    5.455 
#    1.636    0.909    0.000    1.091    0.000    0.000 
#    0.000    0.000    0.000    0.000    0.000    0.000 
#
# Total GULP energy -245404.087208 kJ/mol
# GULP energy per Si atom -5577.365618 kJ/mol
# Density = 1.859015 g / cm^3
# Si number density = 18.632555 Si / 1000 Ang^3
#
#
#
# Elastic Constant Matrix: (Units=GPa)
#
#
# Indices 1 2 3 4 5 6 
#
# 1 78.6509 39.0729 53.6846 0.0000 0.0000 0.0000
# 2 39.0729 33.2774 43.8083 0.0000 0.0000 0.0000
# 3 53.6846 43.8083 158.8440 0.0000 0.0000 0.0000
# 4 0.0000 0.0000 0.0000 21.6012 0.0000 0.0000
# 5 0.0000 0.0000 0.0000 0.0000 29.2475 0.0000
# 6 0.0000 0.0000 0.0000 0.0000 0.0000 67.7680
#
#
#
# Elastic Compliance Matrix: (Units=1/GPa)
#
#
# Indices 1 2 3 4 5 6 
#
# 1 0.030559 -0.034988 -0.000679 0.000000 0.000000 0.000000
# 2 -0.034988 0.087239 -0.012235 0.000000 0.000000 0.000000
# 3 -0.000679 -0.012235 0.009899 0.000000 0.000000 0.000000
# 4 0.000000 0.000000 0.000000 0.046294 0.000000 0.000000
# 5 0.000000 0.000000 0.000000 0.000000 0.034191 0.000000
# 6 0.000000 0.000000 0.000000 0.000000 0.000000 0.014756
#
#
# Mechanical properties :
#
#
# Convention : Reuss Voigt Hill
#
# Bulk Modulus (GPa) = 31.35392 60.43375 45.89383
# Shear Modulus (GPa) = 15.18032 32.67044 23.92538
#
# Velocity S-wave (km/s) = 2.85743 4.19191 3.58727
# Velocity P-wave (km/s) = 5.26788 7.47893 6.46858
#
# Compressibility (1/GPa) = 0.03189394
#
# Stress axis : x y z
#
# Youngs Moduli (GPa) = 32.72315 11.46274 101.01820
#
# Poissons Ratio (x) = 0.40106 0.06855
# Poissons Ratio (y) = 1.14492 1.23597
# Poissons Ratio (z) = 0.02221 0.14025
#
# Static dielectric constant tensor:
#      x y z
#    x 1.666290 0.000000 0.000000 
#    y 0.000000 1.636500 0.000000 
#    z 0.000000 0.000000 1.637510 
# 
# From -- ./inp_files/54500.got.cif
#   From: 2010.05.17/outbox.cif.g08.bks.cpg/sg74_28_cif.got.tgz:54500.got - 2010.06.03 17:57:02.
