data_PCOD9536630
_publ_section_title
;
Structure prediction by ZEFSAII (Michael W. Deem and Ramdas Pophale) SiO2 
 PCOD9536630
Probable space group: I M M A
;
_chemical_formula_sum "Si O2"
_cell_formula_units_Z 112
_cell_length_a 32.314324
_cell_length_b 15.860259
_cell_length_c 11.182679
_cell_angle_alpha 90.000000
_cell_angle_beta 90.000000
_cell_angle_gamma 90.000000
_cell_volume 5731.274491
_symmetry_space_group_name_H-M "I M M A"
_symmetry_group_IT_number 74
_symmetry_cell_setting 'orthorhombic'
loop_
_space_group_symop_operation_xyz
x,y,z
-x,1/2-y,z
x,-y,-z
-x,1/2+y,-z
-x,-y,-z
x,1/2+y,-z
-x,y,z
x,1/2-y,z
1/2+x,1/2+y,1/2+z
1/2-x,-y,1/2+z
1/2+x,1/2-y,1/2-z
1/2-x,y,1/2-z
1/2-x,1/2-y,1/2-z
1/2+x,y,1/2-z
1/2-x,1/2+y,1/2+z
1/2+x,-y,1/2+z
loop_
_atom_site_type_symbol
_atom_site_label
_atom_site_fract_x
_atom_site_fract_y
_atom_site_fract_z
Si Si1 0.839008 0.153652 0.192474
Si Si2 0.273505 0.403793 0.466346
Si Si3 0.382845 0.343135 0.061524
Si Si4 0.189323 0.648158 0.425174
Si Si5 0.167115 0.346083 0.833432
Si Si6 0.398421 0.503729 0.364862
Si Si7 0.548346 0.962262 0.864419
O O1 0.846225 0.250000 0.148044
O O2 0.792996 0.122730 0.159944
O O3 0.849348 0.157755 0.332086
O O4 0.870009 0.081141 0.144314
O O5 0.282797 0.500000 0.500000
O O6 0.225931 0.387871 0.495191
O O7 0.301273 0.349701 0.557399
O O8 0.392733 0.250000 0.018189
O O9 0.424042 0.379899 0.116332
O O10 0.356359 0.387378 0.958284
O O11 0.189593 0.750000 0.440825
O O12 0.193375 0.631122 0.284955
O O13 0.151329 0.250000 0.818338
O O14 0.131454 0.415000 0.852919
O O15 0.416707 0.500000 0.500000
O O16 0.429903 0.505287 0.251556
O O17 0.500000 0.950342 0.839492
O O18 0.551384 0.000000 0.000000
#
# Coordination Sequence:
#
# PCOD9536630 Si02
#       7
#    16  16  16  16  16  16  16
#     4  10  19  35  57  79 114 155 192 244 298 352
#     4  12  22  35  51  80 115 155 205 247 293 348
#     4   9  20  38  59  84 111 146 195 242 299 365
#     4  10  22  37  54  79 112 154 202 255 299 344
#     4  11  21  37  58  80 115 160 202 248 297 349
#     4  11  21  37  62  91 119 151 206 244 298 365
#     4  10  22  40  63  89 120 153 188 242 310 374
#
# _framework density 19.541900999999999
#
# number of rings (size 3 to 8) (size 9 to 14) (size 15 to 20)
#    0.000    1.571    2.857    2.571    0.000    5.143 
#    2.571    2.143    0.000    1.286    0.000    2.000 
#    0.000    0.000    0.000    0.000    0.000    0.000 
#
# Total GULP energy -311961.756586 kJ/mol
# GULP energy per Si atom -5570.745653 kJ/mol
# Density = 1.949742 g / cm^3
# Si number density = 19.541901 Si / 1000 Ang^3
#
#
#
# Elastic Constant Matrix: (Units=GPa)
#
#
# Indices 1 2 3 4 5 6 
#
# 1 111.2957 30.6069 31.9769 0.0000 0.0000 0.0000
# 2 30.6069 85.0471 10.6011 0.0000 0.0000 0.0000
# 3 31.9769 10.6011 67.1904 0.0000 0.0000 0.0000
# 4 0.0000 0.0000 0.0000 17.3268 0.0000 0.0000
# 5 0.0000 0.0000 0.0000 0.0000 31.2741 0.0000
# 6 0.0000 0.0000 0.0000 0.0000 0.0000 11.4239
#
#
#
# Elastic Compliance Matrix: (Units=1/GPa)
#
#
# Indices 1 2 3 4 5 6 
#
# 1 0.011333 -0.003474 -0.004845 0.000000 0.000000 0.000000
# 2 -0.003474 0.013059 -0.000407 0.000000 0.000000 0.000000
# 3 -0.004845 -0.000407 0.017253 0.000000 0.000000 0.000000
# 4 0.000000 0.000000 0.000000 0.057714 0.000000 0.000000
# 5 0.000000 0.000000 0.000000 0.000000 0.031975 0.000000
# 6 0.000000 0.000000 0.000000 0.000000 0.000000 0.087536
#
#
# Mechanical properties :
#
#
# Convention : Reuss Voigt Hill
#
# Bulk Modulus (GPa) = 41.33596 45.54477 43.44036
# Shear Modulus (GPa) = 20.45932 24.69486 22.57709
#
# Velocity S-wave (km/s) = 3.23916 3.55870 3.40268
# Velocity P-wave (km/s) = 5.93195 6.34370 6.14128
#
# Compressibility (1/GPa) = 0.02419201
#
# Stress axis : x y z
#
# Youngs Moduli (GPa) = 88.24050 76.57377 57.96040
#
# Poissons Ratio (x) = 0.26605 0.28083
# Poissons Ratio (y) = 0.30659 0.02358
# Poissons Ratio (z) = 0.42754 0.03116
#
# Static dielectric constant tensor:
#      x y z
#    x 1.663570 0.000000 0.000000 
#    y 0.000000 1.712780 0.000000 
#    z 0.000000 0.000000 1.750910 
# 
# From -- ./inp_files/27184.got.cif
#   From: 2010.05.17/outbox.cif.g08.bks.cpg/sg74_14_cif.got.tgz:27184.got - 2010.06.03 17:57:02.
