data_PCOD9536553
_publ_section_title
;
Structure prediction by ZEFSAII (Michael W. Deem and Ramdas Pophale) SiO2 
 PCOD9536553
Probable space group: I M M A
;
_chemical_formula_sum "Si O2"
_cell_formula_units_Z 116
_cell_length_a 29.389667
_cell_length_b 14.701110
_cell_length_c 11.867626
_cell_angle_alpha 90.000000
_cell_angle_beta 90.000000
_cell_angle_gamma 90.000000
_cell_volume 5127.535122
_symmetry_space_group_name_H-M "I M M A"
_symmetry_group_IT_number 74
_symmetry_cell_setting 'orthorhombic'
loop_
_space_group_symop_operation_xyz
x,y,z
-x,1/2-y,z
x,-y,-z
-x,1/2+y,-z
-x,-y,-z
x,1/2+y,-z
-x,y,z
x,1/2-y,z
1/2+x,1/2+y,1/2+z
1/2-x,-y,1/2+z
1/2+x,1/2-y,1/2-z
1/2-x,y,1/2-z
1/2-x,1/2-y,1/2-z
1/2+x,y,1/2-z
1/2-x,1/2+y,1/2+z
1/2+x,-y,1/2+z
loop_
_atom_site_type_symbol
_atom_site_label
_atom_site_fract_x
_atom_site_fract_y
_atom_site_fract_z
Si Si1 0.363107 0.403124 0.045750
Si Si2 0.197698 0.610772 0.750231
Si Si3 0.150263 0.889184 0.983000
Si Si4 0.182706 0.602971 0.212708
Si Si5 0.250000 0.250000 0.750000
Si Si6 0.950748 0.040925 0.311981
Si Si7 0.549901 0.399596 0.446785
Si Si8 0.089931 0.351268 0.680827
O O1 0.327558 0.363007 0.134527
O O2 0.408114 0.426340 0.117283
O O3 0.344276 0.500000 0.000000
O O4 0.383115 0.351787 0.938288
O O5 0.250000 0.639144 0.750000
O O6 0.170632 0.638598 0.862722
O O7 0.195542 0.500236 0.761652
O O8 0.097654 0.857467 0.987323
O O9 0.185074 0.863458 0.082795
O O10 0.148512 0.000000 0.000000
O O11 0.213181 0.670379 0.283764
O O12 0.129462 0.616131 0.235333
O O13 0.946669 0.931387 0.312735
O O14 0.000000 0.067714 0.359007
O O15 0.946706 0.082375 0.187240
O O16 0.548414 0.500000 0.500000
O O17 0.500000 0.357309 0.470381
O O18 0.073541 0.250000 0.705454
#
# Coordination Sequence:
#
# PCOD9536553 Si02
#       8
#    16  16  16  16   4  16  16  16
#     4  10  20  35  57  81 114 150 192 235 290 338
#     4  11  20  34  57  84 109 141 194 252 291 333
#     4   9  18  32  53  81 113 137 178 239 292 337
#     4  11  21  37  55  81 112 149 188 239 287 345
#     4  12  24  36  56  80 120 156 198 224 288 370
#     4  10  19  34  58  88 118 146 187 238 292 347
#     4   9  15  27  53  85 112 138 170 225 294 355
#     4  11  22  37  56  77 115 153 188 235 281 347
#
# _framework density 22.622955999999999
#
# number of rings (size 3 to 8) (size 9 to 14) (size 15 to 20)
#    0.000    1.793    5.517    1.655    0.000    5.517 
#    0.000    0.000    1.517    0.414    0.000    0.000 
#    0.000    0.000    0.000    0.000    0.000    0.000 
#
# Total GULP energy -323202.524171 kJ/mol
# GULP energy per Si atom -5572.457313 kJ/mol
# Density = 2.257147 g / cm^3
# Si number density = 22.622956 Si / 1000 Ang^3
#
#
#
# Elastic Constant Matrix: (Units=GPa)
#
#
# Indices 1 2 3 4 5 6 
#
# 1 130.6382 -4.9673 16.1626 0.0000 0.0000 0.0000
# 2 -4.9673 70.3590 -20.2687 0.0000 0.0000 0.0000
# 3 16.1626 -20.2687 67.8684 0.0000 0.0000 0.0000
# 4 0.0000 0.0000 0.0000 -6.3322 0.0000 0.0000
# 5 0.0000 0.0000 0.0000 0.0000 16.7865 0.0000
# 6 0.0000 0.0000 0.0000 0.0000 0.0000 48.0973
#
#
#
# Elastic Compliance Matrix: (Units=1/GPa)
#
#
# Indices 1 2 3 4 5 6 
#
# 1 0.007887 0.000017 -0.001873 0.000000 0.000000 0.000000
# 2 0.000017 0.015551 0.004640 0.000000 0.000000 0.000000
# 3 -0.001873 0.004640 0.016566 0.000000 0.000000 0.000000
# 4 0.000000 0.000000 0.000000 -0.157922 0.000000 0.000000
# 5 0.000000 0.000000 0.000000 0.000000 0.059572 0.000000
# 6 0.000000 0.000000 0.000000 0.000000 0.000000 0.020791
#
#
# Mechanical properties :
#
#
# Convention : Reuss Voigt Hill
#
# Bulk Modulus (GPa) = 21.94309 27.85764 24.90037
# Shear Modulus (GPa) = -179.00012 30.23960 -74.38026
#
# Velocity S-wave (km/s) = -8.90477 3.66003 -5.74017
# Velocity P-wave (km/s) = 9.79827 5.49560 5.73605
#
# Compressibility (1/GPa) = 0.04557242
#
# Stress axis : x y z
#
# Youngs Moduli (GPa) = 126.78887 64.30566 60.36371
#
# Poissons Ratio (x) = -0.00111 0.11307
# Poissons Ratio (y) = -0.00218 -0.28009
# Poissons Ratio (z) = 0.23749 -0.29838
#
# Static dielectric constant tensor:
#      x y z
#    x 1.873690 0.000000 0.000000 
#    y 0.000000 1.851520 0.000000 
#    z 0.000000 0.000000 1.940350 
# 
# From -- ./inp_files/27362.got.cif
#   From: 2010.05.17/outbox.cif.g08.bks.cpg/sg74_14_cif.got.tgz:27362.got - 2010.06.03 17:57:02.
