data_PCOD9536120
_publ_section_title
;
Structure prediction by ZEFSAII (Michael W. Deem and Ramdas Pophale) SiO2 
 PCOD9536120
Probable space group: I M M A
;
_chemical_formula_sum "Si O2"
_cell_formula_units_Z 120
_cell_length_a 29.771638
_cell_length_b 9.836551
_cell_length_c 26.918582
_cell_angle_alpha 90.000000
_cell_angle_beta 90.000000
_cell_angle_gamma 90.000000
_cell_volume 7883.113079
_symmetry_space_group_name_H-M "I M M A"
_symmetry_group_IT_number 74
_symmetry_cell_setting 'orthorhombic'
loop_
_space_group_symop_operation_xyz
x,y,z
-x,1/2-y,z
x,-y,-z
-x,1/2+y,-z
-x,-y,-z
x,1/2+y,-z
-x,y,z
x,1/2-y,z
1/2+x,1/2+y,1/2+z
1/2-x,-y,1/2+z
1/2+x,1/2-y,1/2-z
1/2-x,y,1/2-z
1/2-x,1/2-y,1/2-z
1/2+x,y,1/2-z
1/2-x,1/2+y,1/2+z
1/2+x,-y,1/2+z
loop_
_atom_site_type_symbol
_atom_site_label
_atom_site_fract_x
_atom_site_fract_y
_atom_site_fract_z
Si Si1 0.550058 0.915416 0.235466
Si Si2 0.334396 0.101660 0.112163
Si Si3 0.717601 0.519134 0.792544
Si Si4 0.746874 0.411943 0.450403
Si Si5 0.641618 0.912847 0.280517
Si Si6 0.918747 0.588117 0.375652
Si Si7 0.500000 0.911793 0.049411
Si Si8 0.708619 0.407703 0.636880
O O1 0.500000 0.963307 0.248547
O O2 0.549351 0.750000 0.238033
O O3 0.591713 0.964393 0.268791
O O4 0.561699 0.949722 0.178437
O O5 0.355503 0.250000 0.105871
O O6 0.305256 0.102028 0.163044
O O7 0.298455 0.078649 0.068540
O O8 0.372507 0.989153 0.114939
O O9 0.750000 0.583404 0.750000
O O10 0.676207 0.454483 0.762759
O O11 0.750763 0.418162 0.822686
O O12 0.741045 0.500000 0.500000
O O13 0.736616 0.250000 0.455388
O O14 0.718957 0.488086 0.407158
O O15 0.639958 0.750000 0.280432
O O16 0.664413 0.951209 0.332548
O O17 0.910790 0.750000 0.374889
O O18 0.956147 0.559275 0.417115
O O19 0.500000 0.750000 0.038512
O O20 0.500000 0.000000 0.000000
O O21 0.705368 0.250000 0.620676
#
# Coordination Sequence:
#
# PCOD9536120 Si02
#       8
#    16  16  16  16  16  16   8  16
#     4   9  15  25  45  70  94 121 156 197 231 270
#     4  10  21  33  46  68  94 120 153 195 241 282
#     4   9  16  26  42  65  94 126 159 190 226 270
#     4  10  21  36  51  67  91 123 157 193 234 278
#     4   9  15  24  42  69  97 123 155 191 227 269
#     4  10  19  33  52  68  87 118 159 199 240 289
#     4  10  22  38  54  72  88 114 154 204 259 298
#     4   9  17  28  45  70  96 121 154 193 230 272
#
# _framework density 15.222412
#
# number of rings (size 3 to 8) (size 9 to 14) (size 15 to 20)
#    0.000    2.533    2.000    0.800    0.000    5.600 
#    0.000    4.667    0.000    0.000    0.000    0.000 
#    0.000    0.533    0.000    0.933    0.000    1.333 
#
# Total GULP energy -334003.982509 kJ/mol
# GULP energy per Si atom -5566.733042 kJ/mol
# Density = 1.518777 g / cm^3
# Si number density = 15.222412 Si / 1000 Ang^3
#
#
#
# Elastic Constant Matrix: (Units=GPa)
#
#
# Indices 1 2 3 4 5 6 
#
# 1 112.9608 41.0903 54.5567 0.0000 0.0000 0.0000
# 2 41.0903 58.5040 48.6175 0.0000 0.0000 0.0000
# 3 54.5567 48.6175 87.0039 0.0000 0.0000 0.0000
# 4 0.0000 0.0000 0.0000 6.2535 0.0000 0.0000
# 5 0.0000 0.0000 0.0000 0.0000 11.7783 0.0000
# 6 0.0000 0.0000 0.0000 0.0000 0.0000 6.4182
#
#
#
# Elastic Compliance Matrix: (Units=1/GPa)
#
#
# Indices 1 2 3 4 5 6 
#
# 1 0.013305 -0.004502 -0.005827 0.000000 0.000000 0.000000
# 2 -0.004502 0.033435 -0.015860 0.000000 0.000000 0.000000
# 3 -0.005827 -0.015860 0.024010 0.000000 0.000000 0.000000
# 4 0.000000 0.000000 0.000000 0.159910 0.000000 0.000000
# 5 0.000000 0.000000 0.000000 0.000000 0.084902 0.000000
# 6 0.000000 0.000000 0.000000 0.000000 0.000000 0.155808
#
#
# Mechanical properties :
#
#
# Convention : Reuss Voigt Hill
#
# Bulk Modulus (GPa) = 54.43349 60.77754 57.60551
# Shear Modulus (GPa) = 9.43625 12.50361 10.96993
#
# Velocity S-wave (km/s) = 2.49246 2.86911 2.68739
# Velocity P-wave (km/s) = 6.64226 7.14064 6.89595
#
# Compressibility (1/GPa) = 0.01837104
#
# Stress axis : x y z
#
# Youngs Moduli (GPa) = 75.16197 29.90881 41.64896
#
# Poissons Ratio (x) = 0.13466 0.24269
# Poissons Ratio (y) = 0.33840 0.66056
# Poissons Ratio (z) = 0.43797 0.47436
#
# Static dielectric constant tensor:
#      x y z
#    x 1.512800 0.000000 0.000000 
#    y 0.000000 1.509170 0.000000 
#    z 0.000000 0.000000 1.509840 
# 
# From -- ./inp_files/62507.got.cif
#   From: 2010.05.17/outbox.cif.g08.bks.cpg/sg74_32_cif.got.tgz:62507.got - 2010.06.03 17:57:02.
