data_PCOD9536551
_publ_section_title
;
Structure prediction by ZEFSAII (Michael W. Deem and Ramdas Pophale) SiO2 
 PCOD9536551
Probable space group: I M M A
;
_chemical_formula_sum "Si O2"
_cell_formula_units_Z 116
_cell_length_a 26.386291
_cell_length_b 7.448120
_cell_length_c 29.300684
_cell_angle_alpha 90.000000
_cell_angle_beta 90.000000
_cell_angle_gamma 90.000000
_cell_volume 5758.412494
_symmetry_space_group_name_H-M "I M M A"
_symmetry_group_IT_number 74
_symmetry_cell_setting 'orthorhombic'
loop_
_space_group_symop_operation_xyz
x,y,z
-x,1/2-y,z
x,-y,-z
-x,1/2+y,-z
-x,-y,-z
x,1/2+y,-z
-x,y,z
x,1/2-y,z
1/2+x,1/2+y,1/2+z
1/2-x,-y,1/2+z
1/2+x,1/2-y,1/2-z
1/2-x,y,1/2-z
1/2-x,1/2-y,1/2-z
1/2+x,y,1/2-z
1/2-x,1/2+y,1/2+z
1/2+x,-y,1/2+z
loop_
_atom_site_type_symbol
_atom_site_label
_atom_site_fract_x
_atom_site_fract_y
_atom_site_fract_z
Si Si1 0.354151 0.964952 0.446925
Si Si2 0.585776 0.030519 0.183072
Si Si3 0.500000 0.250000 0.842997
Si Si4 0.280973 0.468031 0.295635
Si Si5 0.760053 0.537348 0.447408
Si Si6 0.896075 0.534125 0.787812
Si Si7 0.193203 0.543110 0.642670
Si Si8 0.944002 0.461108 0.883289
O O1 0.351429 0.750000 0.440969
O O2 0.297069 0.035263 0.438457
O O3 0.397498 0.036166 0.413243
O O4 0.366453 0.000000 0.500000
O O5 0.579463 0.250000 0.178004
O O6 0.585065 0.987173 0.237289
O O7 0.640852 0.975653 0.163195
O O8 0.543872 0.909205 0.159535
O O9 0.285160 0.250000 0.297263
O O10 0.250000 0.512929 0.250000
O O11 0.338528 0.533769 0.295050
O O12 0.245067 0.534275 0.336332
O O13 0.772046 0.500000 0.500000
O O14 0.758826 0.750000 0.441391
O O15 0.800322 0.465561 0.411378
O O16 0.894821 0.750000 0.788990
O O17 0.930420 0.475813 0.829979
O O18 0.193297 0.750000 0.657641
O O19 0.946328 0.250000 0.894526
O O20 0.000000 0.537327 0.892238
#
# Coordination Sequence:
#
# PCOD9536551 Si02
#       8
#    16  16   4  16  16  16  16  16
#     4   9  19  36  54  76 106 143 186 239 294 354
#     4  10  23  40  60  88 117 155 202 248 288 348
#     4  12  26  40  64  80 118 160 206 240 306 334
#     4   9  15  29  52  78 110 152 186 226 289 351
#     4  10  20  34  56  84 118 148 183 226 287 357
#     4  10  20  34  53  78 111 148 196 241 290 347
#     4  10  19  34  58  86 121 151 189 238 288 347
#     4  10  22  36  51  71 102 145 194 246 300 343
#
# _framework density 20.144441
#
# number of rings (size 3 to 8) (size 9 to 14) (size 15 to 20)
#    0.000    2.207    1.379    1.448    2.897    1.655 
#    0.000    0.000    0.000    1.655    0.000    0.483 
#    0.000    0.000    0.000    0.000    0.000    0.000 
#
# Total GULP energy -323204.241974 kJ/mol
# GULP energy per Si atom -5572.486931 kJ/mol
# Density = 2.009859 g / cm^3
# Si number density = 20.144441 Si / 1000 Ang^3
#
#
#
# Elastic Constant Matrix: (Units=GPa)
#
#
# Indices 1 2 3 4 5 6 
#
# 1 27.3806 3.0199 11.4750 0.0000 0.0000 0.0000
# 2 3.0199 72.9363 -11.8554 0.0000 0.0000 0.0000
# 3 11.4750 -11.8554 72.2348 0.0000 0.0000 0.0000
# 4 0.0000 0.0000 0.0000 9.2525 0.0000 0.0000
# 5 0.0000 0.0000 0.0000 0.0000 7.8306 0.0000
# 6 0.0000 0.0000 0.0000 0.0000 0.0000 36.5945
#
#
#
# Elastic Compliance Matrix: (Units=1/GPa)
#
#
# Indices 1 2 3 4 5 6 
#
# 1 0.039653 -0.002739 -0.006749 0.000000 0.000000 0.000000
# 2 -0.002739 0.014276 0.002778 0.000000 0.000000 0.000000
# 3 -0.006749 0.002778 0.015372 0.000000 0.000000 0.000000
# 4 0.000000 0.000000 0.000000 0.108079 0.000000 0.000000
# 5 0.000000 0.000000 0.000000 0.000000 0.127704 0.000000
# 6 0.000000 0.000000 0.000000 0.000000 0.000000 0.027327
#
#
# Mechanical properties :
#
#
# Convention : Reuss Voigt Hill
#
# Bulk Modulus (GPa) = 17.89509 19.75897 18.82703
# Shear Modulus (GPa) = 13.71909 22.06299 17.89104
#
# Velocity S-wave (km/s) = 2.61250 3.31303 2.98340
# Velocity P-wave (km/s) = 4.24298 4.94619 4.60802
#
# Compressibility (1/GPa) = 0.05588126
#
# Stress axis : x y z
#
# Youngs Moduli (GPa) = 25.21906 70.04996 65.05453
#
# Poissons Ratio (x) = 0.19185 0.43902
# Poissons Ratio (y) = 0.06907 -0.18072
# Poissons Ratio (z) = 0.17019 -0.19460
#
# Static dielectric constant tensor:
#      x y z
#    x 1.722710 0.000000 0.000000 
#    y 0.000000 1.773550 0.000000 
#    z 0.000000 0.000000 1.759760 
# 
# From -- ./inp_files/73775.got.cif
#   From: 2010.05.17/outbox.cif.g08.bks.cpg/sg74_37_cif.got.tgz:73775.got - 2010.06.03 17:57:02.
