data_PCOD9536885
_publ_section_title
;
Structure prediction by ZEFSAII (Michael W. Deem and Ramdas Pophale) SiO2 
 PCOD9536885
Probable space group: I M M A
;
_chemical_formula_sum "Si O2"
_cell_formula_units_Z 96
_cell_length_a 14.994114
_cell_length_b 14.604042
_cell_length_c 23.270434
_cell_angle_alpha 90.000000
_cell_angle_beta 90.000000
_cell_angle_gamma 90.000000
_cell_volume 5095.635620
_symmetry_space_group_name_H-M "I M M A"
_symmetry_group_IT_number 74
_symmetry_cell_setting 'orthorhombic'
loop_
_space_group_symop_operation_xyz
x,y,z
-x,1/2-y,z
x,-y,-z
-x,1/2+y,-z
-x,-y,-z
x,1/2+y,-z
-x,y,z
x,1/2-y,z
1/2+x,1/2+y,1/2+z
1/2-x,-y,1/2+z
1/2+x,1/2-y,1/2-z
1/2-x,y,1/2-z
1/2-x,1/2-y,1/2-z
1/2+x,y,1/2-z
1/2-x,1/2+y,1/2+z
1/2+x,-y,1/2+z
loop_
_atom_site_type_symbol
_atom_site_label
_atom_site_fract_x
_atom_site_fract_y
_atom_site_fract_z
Si Si1 0.173108 0.856677 0.703701
Si Si2 0.314749 0.500000 0.500000
Si Si3 0.000000 0.084498 0.454948
Si Si4 0.000000 0.652897 0.272878
Si Si5 0.683283 0.855459 0.295880
Si Si6 0.104766 0.140876 0.913030
Si Si7 0.000000 0.037552 0.320337
Si Si8 0.695845 0.353596 0.066598
O O1 0.147596 0.750000 0.712608
O O2 0.250000 0.877396 0.750000
O O3 0.198834 0.863877 0.636139
O O4 0.086953 0.920200 0.709555
O O5 0.373278 0.427696 0.535763
O O6 0.252802 0.435050 0.460725
O O7 0.000000 0.057604 0.387689
O O8 0.905500 0.137380 0.457946
O O9 0.000000 0.000000 0.500000
O O10 0.087025 0.647592 0.233568
O O11 0.000000 0.570082 0.315300
O O12 0.000000 0.750000 0.303646
O O13 0.714691 0.750000 0.304108
O O14 0.750000 0.899973 0.250000
O O15 0.666683 0.890973 0.359636
O O16 0.121516 0.250000 0.924209
O O17 0.000000 0.134585 0.897714
O O18 0.727797 0.250000 0.053320
#
# Coordination Sequence:
#
# PCOD9536885 Si02
#       8
#    16   8   8   8  16  16   8  16
#     4   9  19  38  62  85 112 147 191 245 303 357
#     4  12  23  35  58  90 118 150 208 249 285 352
#     4  10  19  39  60  81 114 157 205 236 288 352
#     4  10  20  35  51  79 122 152 181 233 291 349
#     4   9  18  35  59  82 110 152 197 237 288 354
#     4  10  21  40  62  83 116 161 201 244 301 357
#     4  10  21  32  58  86 112 151 196 237 287 359
#     4  10  21  38  60  85 119 156 193 247 303 353
#
# _framework density 18.839651
#
# number of rings (size 3 to 8) (size 9 to 14) (size 15 to 20)
#    0.000    2.167    1.667    1.250    0.000    6.667 
#    0.000    0.833    1.833    0.000    0.000    0.000 
#    0.000    0.000    0.000    0.000    0.000    0.000 
#
# Total GULP energy -267481.421871 kJ/mol
# GULP energy per Si atom -5572.529622 kJ/mol
# Density = 1.879677 g / cm^3
# Si number density = 18.839651 Si / 1000 Ang^3
#
#
#
# Elastic Constant Matrix: (Units=GPa)
#
#
# Indices 1 2 3 4 5 6 
#
# 1 82.9981 44.8135 48.7677 0.0000 0.0000 0.0000
# 2 44.8135 112.3805 35.3607 0.0000 0.0000 0.0000
# 3 48.7677 35.3607 64.0706 0.0000 0.0000 0.0000
# 4 0.0000 0.0000 0.0000 24.4622 0.0000 0.0000
# 5 0.0000 0.0000 0.0000 0.0000 24.3092 0.0000
# 6 0.0000 0.0000 0.0000 0.0000 0.0000 3.7041
#
#
#
# Elastic Compliance Matrix: (Units=1/GPa)
#
#
# Indices 1 2 3 4 5 6 
#
# 1 0.023569 -0.004543 -0.015433 0.000000 0.000000 0.000000
# 2 -0.004543 0.011644 -0.002969 0.000000 0.000000 0.000000
# 3 -0.015433 -0.002969 0.028993 0.000000 0.000000 0.000000
# 4 0.000000 0.000000 0.000000 0.040879 0.000000 0.000000
# 5 0.000000 0.000000 0.000000 0.000000 0.041137 0.000000
# 6 0.000000 0.000000 0.000000 0.000000 0.000000 0.269969
#
#
# Mechanical properties :
#
#
# Convention : Reuss Voigt Hill
#
# Bulk Modulus (GPa) = 54.59125 57.48146 56.03635
# Shear Modulus (GPa) = 10.67956 19.19559 14.93758
#
# Velocity S-wave (km/s) = 2.38348 3.19547 2.81887
# Velocity P-wave (km/s) = 6.05098 6.64770 6.35634
#
# Compressibility (1/GPa) = 0.01831795
#
# Stress axis : x y z
#
# Youngs Moduli (GPa) = 42.42865 85.88211 34.49133
#
# Poissons Ratio (x) = 0.39013 0.53229
# Poissons Ratio (y) = 0.19274 0.10239
# Poissons Ratio (z) = 0.65478 0.25495
#
# Static dielectric constant tensor:
#      x y z
#    x 1.666300 0.000000 0.000000 
#    y 0.000000 1.665220 0.000000 
#    z 0.000000 0.000000 1.650370 
# 
# From -- ./inp_files/51970.got.cif
#   From: 2010.05.17/outbox.cif.g08.bks.cpg/sg74_26_cif.got.tgz:51970.got - 2010.06.03 17:57:02.
