data_PCOD9536934
_publ_section_title
;
Structure prediction by ZEFSAII (Michael W. Deem and Ramdas Pophale) SiO2 
 PCOD9536934
Probable space group: I M M A
;
_chemical_formula_sum "Si O2"
_cell_formula_units_Z 64
_cell_length_a 22.005271
_cell_length_b 10.625622
_cell_length_c 12.044129
_cell_angle_alpha 90.000000
_cell_angle_beta 90.000000
_cell_angle_gamma 90.000000
_cell_volume 2816.154529
_symmetry_space_group_name_H-M "I M M A"
_symmetry_group_IT_number 74
_symmetry_cell_setting 'orthorhombic'
loop_
_space_group_symop_operation_xyz
x,y,z
-x,1/2-y,z
x,-y,-z
-x,1/2+y,-z
-x,-y,-z
x,1/2+y,-z
-x,y,z
x,1/2-y,z
1/2+x,1/2+y,1/2+z
1/2-x,-y,1/2+z
1/2+x,1/2-y,1/2-z
1/2-x,y,1/2-z
1/2-x,1/2-y,1/2-z
1/2+x,y,1/2-z
1/2-x,1/2+y,1/2+z
1/2+x,-y,1/2+z
loop_
_atom_site_type_symbol
_atom_site_label
_atom_site_fract_x
_atom_site_fract_y
_atom_site_fract_z
Si Si1 0.337480 0.391185 0.145485
Si Si2 0.904896 0.388862 0.922624
Si Si3 0.215791 0.004488 0.851276
Si Si4 0.569536 0.107713 0.838742
O O1 0.355565 0.250000 0.118576
O O2 0.271288 0.426897 0.096416
O O3 0.324300 0.405828 0.278552
O O4 0.386190 0.498493 0.120613
O O5 0.918887 0.250000 0.965453
O O6 0.831592 0.409654 0.914769
O O7 0.927841 0.397190 0.796127
O O8 0.928191 0.500000 0.000000
O O9 0.250000 0.078584 0.750000
O O10 0.500000 0.089959 0.874009
O O11 0.589163 0.250000 0.868976
#
# Coordination Sequence:
#
# PCOD9536934 Si02
#       4
#    16  16  16  16
#     4   8  14  25  44  66  82 103 140 185 228 261
#     4  10  20  31  44  64  89 121 154 188 223 263
#     4   7  15  28  45  64  83 108 141 184 227 271
#     4   9  18  31  43  58  86 123 158 187 217 257
#
# _framework density 22.726026000000001
#
# number of rings (size 3 to 8) (size 9 to 14) (size 15 to 20)
#    1.500    1.750    0.000    1.500    0.000    7.500 
#    0.000    0.000    0.000    0.000    0.000    0.000 
#    0.000    1.000    0.000    2.000    0.000    1.500 
#
# Total GULP energy -178215.391604 kJ/mol
# GULP energy per Si atom -5569.230988 kJ/mol
# Density = 2.267430 g / cm^3
# Si number density = 22.726026 Si / 1000 Ang^3
#
#
#
# Elastic Constant Matrix: (Units=GPa)
#
#
# Indices 1 2 3 4 5 6 
#
# 1 124.8237 81.4582 2.4764 0.0000 0.0000 0.0000
# 2 81.4582 192.2252 48.8156 0.0000 0.0000 0.0000
# 3 2.4764 48.8156 64.7450 0.0000 0.0000 0.0000
# 4 0.0000 0.0000 0.0000 2.2887 0.0000 0.0000
# 5 0.0000 0.0000 0.0000 0.0000 4.6752 0.0000
# 6 0.0000 0.0000 0.0000 0.0000 0.0000 5.3206
#
#
#
# Elastic Compliance Matrix: (Units=1/GPa)
#
#
# Indices 1 2 3 4 5 6 
#
# 1 0.011909 -0.006099 0.004143 0.000000 0.000000 0.000000
# 2 -0.006099 0.009557 -0.006973 0.000000 0.000000 0.000000
# 3 0.004143 -0.006973 0.020544 0.000000 0.000000 0.000000
# 4 0.000000 0.000000 0.000000 0.436936 0.000000 0.000000
# 5 0.000000 0.000000 0.000000 0.000000 0.213892 0.000000
# 6 0.000000 0.000000 0.000000 0.000000 0.000000 0.187950
#
#
# Mechanical properties :
#
#
# Convention : Reuss Voigt Hill
#
# Bulk Modulus (GPa) = 41.40270 71.92159 56.66214
# Shear Modulus (GPa) = 5.51452 19.05981 12.28717
#
# Velocity S-wave (km/s) = 1.55942 2.89913 2.32774
# Velocity P-wave (km/s) = 4.63682 6.55153 5.67550
#
# Compressibility (1/GPa) = 0.02415301
#
# Stress axis : x y z
#
# Youngs Moduli (GPa) = 83.97011 104.63178 48.67620
#
# Poissons Ratio (x) = 0.63811 -0.20165
# Poissons Ratio (y) = 0.51210 0.33940
# Poissons Ratio (z) = -0.34786 0.72956
#
# Static dielectric constant tensor:
#      x y z
#    x 1.866320 0.000000 0.000000 
#    y 0.000000 1.800540 0.000000 
#    z 0.000000 0.000000 1.954140 
# 
# From -- ./inp_files/44769.got.cif
#   From: 2010.05.17/outbox.cif.g08.bks.cpg/sg74_23_cif.got.tgz:44769.got - 2010.06.03 17:57:02.
