data_PCOD9536955
_publ_section_title
;
Structure prediction by ZEFSAII (Michael W. Deem and Ramdas Pophale) SiO2 
 PCOD9536955
Probable space group: I M M A
;
_chemical_formula_sum "Si O2"
_cell_formula_units_Z 96
_cell_length_a 22.112853
_cell_length_b 14.896056
_cell_length_c 16.926430
_cell_angle_alpha 90.000000
_cell_angle_beta 90.000000
_cell_angle_gamma 90.000000
_cell_volume 5575.469504
_symmetry_space_group_name_H-M "I M M A"
_symmetry_group_IT_number 74
_symmetry_cell_setting 'orthorhombic'
loop_
_space_group_symop_operation_xyz
x,y,z
-x,1/2-y,z
x,-y,-z
-x,1/2+y,-z
-x,-y,-z
x,1/2+y,-z
-x,y,z
x,1/2-y,z
1/2+x,1/2+y,1/2+z
1/2-x,-y,1/2+z
1/2+x,1/2-y,1/2-z
1/2-x,y,1/2-z
1/2-x,1/2-y,1/2-z
1/2+x,y,1/2-z
1/2-x,1/2+y,1/2+z
1/2+x,-y,1/2+z
loop_
_atom_site_type_symbol
_atom_site_label
_atom_site_fract_x
_atom_site_fract_y
_atom_site_fract_z
Si Si1 0.401050 0.148302 0.162268
Si Si2 0.722370 0.975509 0.088231
Si Si3 0.200154 0.147749 0.821050
Si Si4 0.500000 0.857932 0.965740
Si Si5 0.500000 0.858927 0.146841
Si Si6 0.758469 0.653935 0.655842
Si Si7 0.114320 0.961280 0.284440
O O1 0.419530 0.250000 0.187213
O O2 0.441580 0.120342 0.087231
O O3 0.330533 0.155531 0.140203
O O4 0.405319 0.065681 0.223281
O O5 0.764818 0.889822 0.102604
O O6 0.664414 0.962794 0.144936
O O7 0.761281 0.061035 0.118593
O O8 0.704152 0.000000 0.000000
O O9 0.179795 0.250000 0.830493
O O10 0.250000 0.146104 0.750000
O O11 0.147394 0.082582 0.790388
O O12 0.500000 0.750000 0.973010
O O13 0.500000 0.891466 0.055085
O O14 0.500000 0.750000 0.149568
O O15 0.441077 0.899943 0.188291
O O16 0.732550 0.750000 0.629626
O O17 0.750000 0.648092 0.750000
#
# Coordination Sequence:
#
# PCOD9536955 Si02
#       7
#    16  16  16   8   8  16  16
#     4   9  17  29  44  62  89 125 162 201 249 295
#     4  10  20  31  48  76  97 126 166 208 259 313
#     4   9  18  35  52  67  96 135 173 212 255 303
#     4   9  19  31  41  62  99 137 166 202 253 299
#     4  11  23  33  46  70 102 139 184 220 243 295
#     4   9  17  30  47  65  90 122 159 204 247 292
#     4  10  20  32  50  70  97 137 175 211 251 301
#
# _framework density 17.218281000000001
#
# number of rings (size 3 to 8) (size 9 to 14) (size 15 to 20)
#    0.000    2.500    0.000    3.500    4.667    2.000 
#    0.000    0.000    0.000    0.000    0.000    0.583 
#    0.000    0.000    0.000    8.333    0.000    0.667 
#
# Total GULP energy -267204.452193 kJ/mol
# GULP energy per Si atom -5566.759421 kJ/mol
# Density = 1.717909 g / cm^3
# Si number density = 17.218281 Si / 1000 Ang^3
#
#
#
# Elastic Constant Matrix: (Units=GPa)
#
#
# Indices 1 2 3 4 5 6 
#
# 1 58.7251 20.0577 22.3048 0.0000 0.0000 0.0000
# 2 20.0577 119.3399 4.7104 0.0000 0.0000 0.0000
# 3 22.3048 4.7104 29.5072 0.0000 0.0000 0.0000
# 4 0.0000 0.0000 0.0000 17.8813 0.0000 0.0000
# 5 0.0000 0.0000 0.0000 0.0000 18.3178 0.0000
# 6 0.0000 0.0000 0.0000 0.0000 0.0000 23.2199
#
#
#
# Elastic Compliance Matrix: (Units=1/GPa)
#
#
# Indices 1 2 3 4 5 6 
#
# 1 0.025272 -0.003516 -0.018542 0.000000 0.000000 0.000000
# 2 -0.003516 0.008922 0.001233 0.000000 0.000000 0.000000
# 3 -0.018542 0.001233 0.047709 0.000000 0.000000 0.000000
# 4 0.000000 0.000000 0.000000 0.055924 0.000000 0.000000
# 5 0.000000 0.000000 0.000000 0.000000 0.054592 0.000000
# 6 0.000000 0.000000 0.000000 0.000000 0.000000 0.043067
#
#
# Mechanical properties :
#
#
# Convention : Reuss Voigt Hill
#
# Bulk Modulus (GPa) = 24.84223 33.52423 29.18323
# Shear Modulus (GPa) = 17.20860 22.58375 19.89617
#
# Velocity S-wave (km/s) = 3.16482 3.62555 3.40299
# Velocity P-wave (km/s) = 5.27389 6.08593 5.69440
#
# Compressibility (1/GPa) = 0.04025403
#
# Stress axis : x y z
#
# Youngs Moduli (GPa) = 39.56969 112.08717 20.96022
#
# Poissons Ratio (x) = 0.39406 0.38865
# Poissons Ratio (y) = 0.13911 -0.02585
# Poissons Ratio (z) = 0.73371 -0.13823
#
# Static dielectric constant tensor:
#      x y z
#    x 1.581940 0.000000 0.000000 
#    y 0.000000 1.679150 0.000000 
#    z 0.000000 0.000000 1.586700 
# 
# From -- ./inp_files/36445.got.cif
#   From: 2010.05.17/outbox.cif.g08.bks.cpg/sg74_19_cif.got.tgz:36445.got - 2010.06.03 17:57:02.
