data_PCOD9536247
_publ_section_title
;
Structure prediction by ZEFSAII (Michael W. Deem and Ramdas Pophale) SiO2 
 PCOD9536247
Probable space group: I M M A
;
_chemical_formula_sum "Si O2"
_cell_formula_units_Z 112
_cell_length_a 24.871115
_cell_length_b 14.790555
_cell_length_c 14.246650
_cell_angle_alpha 90.000000
_cell_angle_beta 90.000000
_cell_angle_gamma 90.000000
_cell_volume 5240.738396
_symmetry_space_group_name_H-M "I M M A"
_symmetry_group_IT_number 74
_symmetry_cell_setting 'orthorhombic'
loop_
_space_group_symop_operation_xyz
x,y,z
-x,1/2-y,z
x,-y,-z
-x,1/2+y,-z
-x,-y,-z
x,1/2+y,-z
-x,y,z
x,1/2-y,z
1/2+x,1/2+y,1/2+z
1/2-x,-y,1/2+z
1/2+x,1/2-y,1/2-z
1/2-x,y,1/2-z
1/2-x,1/2-y,1/2-z
1/2+x,y,1/2-z
1/2-x,1/2+y,1/2+z
1/2+x,-y,1/2+z
loop_
_atom_site_type_symbol
_atom_site_label
_atom_site_fract_x
_atom_site_fract_y
_atom_site_fract_z
Si Si1 0.559951 0.858835 0.260805
Si Si2 0.837546 0.354588 0.102226
Si Si3 0.358475 0.359470 0.190147
Si Si4 0.226166 0.139550 0.472477
Si Si5 0.356266 0.351847 0.884191
Si Si6 0.559581 0.606652 0.481507
Si Si7 0.439462 0.101652 0.039232
O O1 0.500000 0.892791 0.232375
O O2 0.559066 0.750000 0.246202
O O3 0.609782 0.895173 0.200073
O O4 0.566951 0.875827 0.370998
O O5 0.822667 0.250000 0.119900
O O6 0.847841 0.394555 0.205245
O O7 0.786548 0.392558 0.045830
O O8 0.891441 0.356263 0.041608
O O9 0.363035 0.250000 0.193103
O O10 0.309803 0.381054 0.119047
O O11 0.412611 0.394225 0.141130
O O12 0.225475 0.250000 0.482299
O O13 0.195349 0.104290 0.565432
O O14 0.341210 0.250000 0.854186
O O15 0.399613 0.347057 0.968761
O O16 0.559366 0.500000 0.500000
O O17 0.500000 0.641828 0.507244
O O18 0.500000 0.136663 0.038390
O O19 0.439795 0.000000 0.000000
#
# Coordination Sequence:
#
# PCOD9536247 Si02
#       7
#    16  16  16  16  16  16  16
#     4   9  17  31  53  78 102 133 174 215 255 302
#     4  10  19  33  55  78 101 133 171 212 256 303
#     4   9  18  32  52  77 104 136 173 211 253 305
#     4   8  15  30  52  78 104 129 163 206 252 304
#     4   9  17  31  52  75  99 131 171 212 255 305
#     4  10  22  38  53  71  99 134 171 213 259 307
#     4  10  20  31  44  69 106 141 172 212 262 309
#
# _framework density 21.371034000000002
#
# number of rings (size 3 to 8) (size 9 to 14) (size 15 to 20)
#    0.000    2.714    0.000    2.571    0.000    6.000 
#    0.000    7.857    0.000    5.143    0.000    0.000 
#    0.000    0.000    0.000    0.000    0.000    0.000 
#
# Total GULP energy -312420.610224 kJ/mol
# GULP energy per Si atom -5578.939468 kJ/mol
# Density = 2.132239 g / cm^3
# Si number density = 21.371034 Si / 1000 Ang^3
#
#
#
# Elastic Constant Matrix: (Units=GPa)
#
#
# Indices 1 2 3 4 5 6 
#
# 1 138.5348 2.3272 65.3954 0.0000 0.0000 0.0000
# 2 2.3272 44.9036 4.6222 0.0000 0.0000 0.0000
# 3 65.3954 4.6222 97.2588 0.0000 0.0000 0.0000
# 4 0.0000 0.0000 0.0000 7.2817 0.0000 0.0000
# 5 0.0000 0.0000 0.0000 0.0000 30.7433 0.0000
# 6 0.0000 0.0000 0.0000 0.0000 0.0000 20.0851
#
#
#
# Elastic Compliance Matrix: (Units=1/GPa)
#
#
# Indices 1 2 3 4 5 6 
#
# 1 0.010576 0.000185 -0.007120 0.000000 0.000000 0.000000
# 2 0.000185 0.022383 -0.001188 0.000000 0.000000 0.000000
# 3 -0.007120 -0.001188 0.015126 0.000000 0.000000 0.000000
# 4 0.000000 0.000000 0.000000 0.137330 0.000000 0.000000
# 5 0.000000 0.000000 0.000000 0.000000 0.032527 0.000000
# 6 0.000000 0.000000 0.000000 0.000000 0.000000 0.049788
#
#
# Mechanical properties :
#
#
# Convention : Reuss Voigt Hill
#
# Bulk Modulus (GPa) = 31.40895 47.26521 39.33708
# Shear Modulus (GPa) = 16.97273 25.51218 21.24245
#
# Velocity S-wave (km/s) = 2.82120 3.45885 3.15617
# Velocity P-wave (km/s) = 5.03400 6.17382 5.63281
#
# Compressibility (1/GPa) = 0.03183806
#
# Stress axis : x y z
#
# Youngs Moduli (GPa) = 94.55026 44.67751 66.11211
#
# Poissons Ratio (x) = -0.00826 0.47073
# Poissons Ratio (y) = -0.01747 0.07854
# Poissons Ratio (z) = 0.67322 0.05308
#
# Static dielectric constant tensor:
#      x y z
#    x 1.785080 0.000000 0.000000 
#    y 0.000000 1.832060 0.000000 
#    z 0.000000 0.000000 1.761190 
# 
# From -- ./inp_files/25404.got.cif
#   From: 2010.05.17/outbox.cif.g08.bks.cpg/sg74_13_cif.got.tgz:25404.got - 2010.06.03 17:57:02.
