data_PCOD9536605
_publ_section_title
;
Structure prediction by ZEFSAII (Michael W. Deem and Ramdas Pophale) SiO2 
 PCOD9536605
Probable space group: I M M A
;
_chemical_formula_sum "Si O2"
_cell_formula_units_Z 64
_cell_length_a 19.216257
_cell_length_b 14.743982
_cell_length_c 10.983511
_cell_angle_alpha 90.000000
_cell_angle_beta 90.000000
_cell_angle_gamma 90.000000
_cell_volume 3111.893889
_symmetry_space_group_name_H-M "I M M A"
_symmetry_group_IT_number 74
_symmetry_cell_setting 'orthorhombic'
loop_
_space_group_symop_operation_xyz
x,y,z
-x,1/2-y,z
x,-y,-z
-x,1/2+y,-z
-x,-y,-z
x,1/2+y,-z
-x,y,z
x,1/2-y,z
1/2+x,1/2+y,1/2+z
1/2-x,-y,1/2+z
1/2+x,1/2-y,1/2-z
1/2-x,y,1/2-z
1/2-x,1/2-y,1/2-z
1/2+x,y,1/2-z
1/2-x,1/2+y,1/2+z
1/2+x,-y,1/2+z
loop_
_atom_site_type_symbol
_atom_site_label
_atom_site_fract_x
_atom_site_fract_y
_atom_site_fract_z
Si Si1 0.718889 0.602754 0.127480
Si Si2 0.078585 0.640324 0.976621
Si Si3 0.775747 0.397415 0.122855
Si Si4 0.921075 0.859668 0.260013
O O1 0.750000 0.646988 0.250000
O O2 0.749231 0.501080 0.125034
O O3 0.636787 0.601349 0.150710
O O4 0.742733 0.644436 0.999845
O O5 0.079433 0.750000 0.971157
O O6 0.092136 0.615375 0.118234
O O7 0.000000 0.610432 0.944660
O O8 0.141297 0.605357 0.894356
O O9 0.750000 0.356658 0.250000
O O10 0.917261 0.750000 0.265988
O O11 0.000000 0.886581 0.289358
#
# Coordination Sequence:
#
# PCOD9536605 Si02
#       4
#    16  16  16  16
#     4  10  19  35  55  79 113 148 188 229 271 328
#     4   9  18  35  59  85 112 144 186 234 281 331
#     4  10  21  35  52  81 119 150 187 225 271 338
#     4   9  18  34  59  88 111 139 187 240 283 325
#
# _framework density 20.566254000000001
#
# number of rings (size 3 to 8) (size 9 to 14) (size 15 to 20)
#    0.000    2.500    2.500    1.500    0.000    2.000 
#    0.000   11.250    0.000    3.000    0.000    0.000 
#    0.000    0.000    0.000    0.000    0.000    0.000 
#
# Total GULP energy -178605.109793 kJ/mol
# GULP energy per Si atom -5581.409681 kJ/mol
# Density = 2.051944 g / cm^3
# Si number density = 20.566254 Si / 1000 Ang^3
#
#
#
# Elastic Constant Matrix: (Units=GPa)
#
#
# Indices 1 2 3 4 5 6 
#
# 1 209.9844 31.6550 82.6193 0.0000 0.0000 0.0000
# 2 31.6550 69.4992 11.2972 0.0000 0.0000 0.0000
# 3 82.6193 11.2972 166.0862 0.0000 0.0000 0.0000
# 4 0.0000 0.0000 0.0000 -1.4422 0.0000 0.0000
# 5 0.0000 0.0000 0.0000 0.0000 43.0385 0.0000
# 6 0.0000 0.0000 0.0000 0.0000 0.0000 37.0813
#
#
#
# Elastic Compliance Matrix: (Units=1/GPa)
#
#
# Indices 1 2 3 4 5 6 
#
# 1 0.006288 -0.002382 -0.002966 0.000000 0.000000 0.000000
# 2 -0.002382 0.015452 0.000134 0.000000 0.000000 0.000000
# 3 -0.002966 0.000134 0.007487 0.000000 0.000000 0.000000
# 4 0.000000 0.000000 0.000000 -0.693406 0.000000 0.000000
# 5 0.000000 0.000000 0.000000 0.000000 0.023235 0.000000
# 6 0.000000 0.000000 0.000000 0.000000 0.000000 0.026968
#
#
# Mechanical properties :
#
#
# Convention : Reuss Voigt Hill
#
# Bulk Modulus (GPa) = 53.19410 77.41253 65.30332
# Shear Modulus (GPa) = -8.37127 37.06875 14.34874
#
# Velocity S-wave (km/s) = -2.01971 4.25008 2.64424
# Velocity P-wave (km/s) = 4.52570 7.86171 6.41438
#
# Compressibility (1/GPa) = 0.01879908
#
# Stress axis : x y z
#
# Youngs Moduli (GPa) = 159.02343 64.71719 133.55852
#
# Poissons Ratio (x) = 0.15416 0.39615
# Poissons Ratio (y) = 0.37880 -0.01788
# Poissons Ratio (z) = 0.47168 -0.00867
#
# Static dielectric constant tensor:
#      x y z
#    x 1.748410 0.000000 0.000000 
#    y 0.000000 1.502850 0.000000 
#    z 0.000000 0.000000 1.789540 
# 
# From -- ./inp_files/20117.got.cif
#   From: 2010.05.17/outbox.cif.g08.bks.cpg/sg74_11_cif.got.tgz:20117.got - 2010.06.03 17:57:02.
