data_PCOD9536495
_publ_section_title
;
Structure prediction by ZEFSAII (Michael W. Deem and Ramdas Pophale) SiO2 
 PCOD9536495
Probable space group: I M M A
;
_chemical_formula_sum "Si O2"
_cell_formula_units_Z 96
_cell_length_a 13.952743
_cell_length_b 14.908623
_cell_length_c 21.847054
_cell_angle_alpha 90.000000
_cell_angle_beta 90.000000
_cell_angle_gamma 90.000000
_cell_volume 4544.540831
_symmetry_space_group_name_H-M "I M M A"
_symmetry_group_IT_number 74
_symmetry_cell_setting 'orthorhombic'
loop_
_space_group_symop_operation_xyz
x,y,z
-x,1/2-y,z
x,-y,-z
-x,1/2+y,-z
-x,-y,-z
x,1/2+y,-z
-x,y,z
x,1/2-y,z
1/2+x,1/2+y,1/2+z
1/2-x,-y,1/2+z
1/2+x,1/2-y,1/2-z
1/2-x,y,1/2-z
1/2-x,1/2-y,1/2-z
1/2+x,y,1/2-z
1/2-x,1/2+y,1/2+z
1/2+x,-y,1/2+z
loop_
_atom_site_type_symbol
_atom_site_label
_atom_site_fract_x
_atom_site_fract_y
_atom_site_fract_z
Si Si1 0.610715 0.421987 0.146916
Si Si2 0.885480 0.148101 0.840174
Si Si3 0.696006 0.645553 0.604376
Si Si4 0.189387 0.354239 0.969693
Si Si5 0.884529 0.469118 0.216079
Si Si6 0.605077 0.923850 0.052799
O O1 0.500000 0.391084 0.141972
O O2 0.688922 0.363273 0.111798
O O3 0.640577 0.430060 0.217625
O O4 0.614120 0.520201 0.115691
O O5 0.846845 0.250000 0.832877
O O6 0.862296 0.112805 0.908639
O O7 0.000000 0.154056 0.834201
O O8 0.850641 0.071365 0.794180
O O9 0.668976 0.750000 0.608472
O O10 0.669392 0.607380 0.537183
O O11 0.651412 0.590415 0.659848
O O12 0.162803 0.250000 0.974040
O O13 0.302621 0.363860 0.957277
O O14 0.000000 0.470179 0.214614
O O15 0.500000 0.880094 0.050552
O O16 0.606693 0.000000 0.000000
#
# Coordination Sequence:
#
# PCOD9536495 Si02
#       6
#    16  16  16  16  16  16
#     4  10  21  37  56  81 109 142 187 229 271 327
#     4   9  19  37  60  85 112 143 181 226 279 335
#     4  11  23  37  55  80 112 151 189 228 273 319
#     4  10  21  35  54  82 112 143 183 230 274 324
#     4  10  22  38  57  82 112 146 184 228 274 327
#     4  10  19  34  57  79 103 141 181 224 277 327
#
# _framework density 21.124245999999999
#
# number of rings (size 3 to 8) (size 9 to 14) (size 15 to 20)
#    0.000    2.000    1.667    1.500    0.000    3.000 
#    0.000    7.500    0.000    7.000    0.000    0.000 
#    0.000    0.000    0.000    0.000    0.000    0.000 
#
# Total GULP energy -267859.836357 kJ/mol
# GULP energy per Si atom -5580.413257 kJ/mol
# Density = 2.107617 g / cm^3
# Si number density = 21.124246 Si / 1000 Ang^3
#
#
#
# Elastic Constant Matrix: (Units=GPa)
#
#
# Indices 1 2 3 4 5 6 
#
# 1 11.4471 -0.5988 3.4353 0.0000 0.0000 0.0000
# 2 -0.5988 43.0135 -7.7042 0.0000 0.0000 0.0000
# 3 3.4353 -7.7042 19.8398 0.0000 0.0000 0.0000
# 4 0.0000 0.0000 0.0000 14.0876 0.0000 0.0000
# 5 0.0000 0.0000 0.0000 0.0000 28.2783 0.0000
# 6 0.0000 0.0000 0.0000 0.0000 0.0000 24.6712
#
#
#
# Elastic Compliance Matrix: (Units=1/GPa)
#
#
# Indices 1 2 3 4 5 6 
#
# 1 0.092261 -0.001695 -0.016633 0.000000 0.000000 0.000000
# 2 -0.001695 0.025018 0.010008 0.000000 0.000000 0.000000
# 3 -0.016633 0.010008 0.057170 0.000000 0.000000 0.000000
# 4 0.000000 0.000000 0.000000 0.070984 0.000000 0.000000
# 5 0.000000 0.000000 0.000000 0.000000 0.035363 0.000000
# 6 0.000000 0.000000 0.000000 0.000000 0.000000 0.040533
#
#
# Mechanical properties :
#
#
# Convention : Reuss Voigt Hill
#
# Bulk Modulus (GPa) = 6.33675 7.17387 6.75531
# Shear Modulus (GPa) = 12.80176 18.68530 15.74353
#
# Velocity S-wave (km/s) = 2.46442 2.97735 2.73295
# Velocity P-wave (km/s) = 3.33228 3.90166 3.62815
#
# Compressibility (1/GPa) = 0.15780957
#
# Stress axis : x y z
#
# Youngs Moduli (GPa) = 10.83881 39.97194 17.49163
#
# Poissons Ratio (x) = 0.06774 0.29094
# Poissons Ratio (y) = 0.01837 -0.17506
# Poissons Ratio (z) = 0.18028 -0.40005
#
# Static dielectric constant tensor:
#      x y z
#    x 1.778600 0.000000 0.000000 
#    y 0.000000 1.757880 0.000000 
#    z 0.000000 0.000000 1.783100 
# 
# From -- ./inp_files/51826.got.cif
#   From: 2010.05.17/outbox.cif.g08.bks.cpg/sg74_26_cif.got.tgz:51826.got - 2010.06.03 17:57:02.
