data_PCOD9536786
_publ_section_title
;
Structure prediction by ZEFSAII (Michael W. Deem and Ramdas Pophale) SiO2 
 PCOD9536786
Probable space group: I M M A
;
_chemical_formula_sum "Si O2"
_cell_formula_units_Z 100
_cell_length_a 22.611042
_cell_length_b 7.896650
_cell_length_c 23.020865
_cell_angle_alpha 90.000000
_cell_angle_beta 90.000000
_cell_angle_gamma 90.000000
_cell_volume 4110.409627
_symmetry_space_group_name_H-M "I M M A"
_symmetry_group_IT_number 74
_symmetry_cell_setting 'orthorhombic'
loop_
_space_group_symop_operation_xyz
x,y,z
-x,1/2-y,z
x,-y,-z
-x,1/2+y,-z
-x,-y,-z
x,1/2+y,-z
-x,y,z
x,1/2-y,z
1/2+x,1/2+y,1/2+z
1/2-x,-y,1/2+z
1/2+x,1/2-y,1/2-z
1/2-x,y,1/2-z
1/2-x,1/2-y,1/2-z
1/2+x,y,1/2-z
1/2-x,1/2+y,1/2+z
1/2+x,-y,1/2+z
loop_
_atom_site_type_symbol
_atom_site_label
_atom_site_fract_x
_atom_site_fract_y
_atom_site_fract_z
Si Si1 0.415731 0.057005 0.576559
Si Si2 0.568275 0.948746 0.814645
Si Si3 0.756009 0.561666 0.813840
Si Si4 0.068558 0.451450 0.561829
Si Si5 0.779558 0.045655 0.063204
Si Si6 0.377916 0.439099 0.697332
Si Si7 0.500000 0.250000 0.457946
O O1 0.434543 0.250000 0.561134
O O2 0.425246 0.040622 0.646338
O O3 0.345280 0.037369 0.565527
O O4 0.449279 0.900890 0.549073
O O5 0.500000 0.007510 0.816299
O O6 0.568924 0.750000 0.801857
O O7 0.594626 0.978211 0.878477
O O8 0.599865 0.041122 0.762191
O O9 0.728418 0.750000 0.809537
O O10 0.750000 0.476548 0.750000
O O11 0.743781 0.489996 0.878331
O O12 0.826922 0.571177 0.815641
O O13 0.095814 0.500000 0.500000
O O14 0.067017 0.250000 0.566149
O O15 0.000000 0.517385 0.560258
O O16 0.784614 0.250000 0.066860
O O17 0.753968 0.000000 0.000000
O O18 0.353120 0.250000 0.689073
#
# Coordination Sequence:
#
# PCOD9536786 Si02
#       7
#    16  16  16  16  16  16   4
#     4  10  22  37  55  81 114 157 208 254 302 352
#     4  10  20  30  46  70  98 135 179 221 268 328
#     4   9  19  37  62  89 114 145 186 237 295 356
#     4   9  16  27  42  60  87 120 163 213 258 308
#     4  10  19  36  62  88 120 158 199 249 300 365
#     4  10  21  34  51  78 110 143 180 231 289 342
#     4  12  22  36  58  78 116 164 208 260 302 354
#
# _framework density 24.328475000000001
#
# number of rings (size 3 to 8) (size 9 to 14) (size 15 to 20)
#    0.000    2.240    0.800    2.160    3.360    3.840 
#    0.000    0.400    0.000    0.960    0.000    4.480 
#    0.000    0.000    0.000    0.000    0.000    0.000 
#
# Total GULP energy -278577.881144 kJ/mol
# GULP energy per Si atom -5571.557623 kJ/mol
# Density = 2.427310 g / cm^3
# Si number density = 24.328475 Si / 1000 Ang^3
#
#
#
# Elastic Constant Matrix: (Units=GPa)
#
#
# Indices 1 2 3 4 5 6 
#
# 1 36.2804 9.4646 4.8194 0.0000 0.0000 0.0000
# 2 9.4646 130.0861 29.1721 0.0000 0.0000 0.0000
# 3 4.8194 29.1721 230.2823 0.0000 0.0000 0.0000
# 4 0.0000 0.0000 0.0000 30.4417 0.0000 0.0000
# 5 0.0000 0.0000 0.0000 0.0000 59.4307 0.0000
# 6 0.0000 0.0000 0.0000 0.0000 0.0000 4.0149
#
#
#
# Elastic Compliance Matrix: (Units=1/GPa)
#
#
# Indices 1 2 3 4 5 6 
#
# 1 0.028122 -0.001970 -0.000339 0.000000 0.000000 0.000000
# 2 -0.001970 0.008050 -0.000979 0.000000 0.000000 0.000000
# 3 -0.000339 -0.000979 0.004474 0.000000 0.000000 0.000000
# 4 0.000000 0.000000 0.000000 0.032850 0.000000 0.000000
# 5 0.000000 0.000000 0.000000 0.000000 0.016826 0.000000
# 6 0.000000 0.000000 0.000000 0.000000 0.000000 0.249073
#
#
# Mechanical properties :
#
#
# Convention : Reuss Voigt Hill
#
# Bulk Modulus (GPa) = 29.35096 53.72901 41.53998
# Shear Modulus (GPa) = 13.99282 42.32365 28.15823
#
# Velocity S-wave (km/s) = 2.40086 4.17547 3.40578
# Velocity P-wave (km/s) = 4.44703 6.73638 5.70767
#
# Compressibility (1/GPa) = 0.03407043
#
# Stress axis : x y z
#
# Youngs Moduli (GPa) = 35.55933 124.22384 223.53602
#
# Poissons Ratio (x) = 0.24472 0.07578
# Poissons Ratio (y) = 0.07005 0.21874
# Poissons Ratio (z) = 0.01205 0.12156
#
# Static dielectric constant tensor:
#      x y z
#    x 1.948950 0.000000 0.000000 
#    y 0.000000 1.921070 0.000000 
#    z 0.000000 0.000000 2.102660 
# 
# From -- ./inp_files/55259.got.cif
#   From: 2010.05.17/outbox.cif.g08.bks.cpg/sg74_28_cif.got.tgz:55259.got - 2010.06.03 17:57:02.
