data_PCOD9536083
_publ_section_title
;
Structure prediction by ZEFSAII (Michael W. Deem and Ramdas Pophale) SiO2 
 PCOD9536083
Probable space group: I M M A
;
_chemical_formula_sum "Si O2"
_cell_formula_units_Z 116
_cell_length_a 7.569450
_cell_length_b 27.902040
_cell_length_c 27.804781
_cell_angle_alpha 90.000000
_cell_angle_beta 90.000000
_cell_angle_gamma 90.000000
_cell_volume 5872.455850
_symmetry_space_group_name_H-M "I M M A"
_symmetry_group_IT_number 74
_symmetry_cell_setting 'orthorhombic'
loop_
_space_group_symop_operation_xyz
x,y,z
-x,1/2-y,z
x,-y,-z
-x,1/2+y,-z
-x,-y,-z
x,1/2+y,-z
-x,y,z
x,1/2-y,z
1/2+x,1/2+y,1/2+z
1/2-x,-y,1/2+z
1/2+x,1/2-y,1/2-z
1/2-x,y,1/2-z
1/2-x,1/2-y,1/2-z
1/2+x,y,1/2-z
1/2-x,1/2+y,1/2+z
1/2+x,-y,1/2+z
loop_
_atom_site_type_symbol
_atom_site_label
_atom_site_fract_x
_atom_site_fract_y
_atom_site_fract_z
Si Si1 0.711623 0.039283 0.697975
Si Si2 0.285146 0.806096 0.925723
Si Si3 0.786448 0.539944 0.934487
Si Si4 0.700453 0.122518 0.993958
Si Si5 0.000000 0.750000 0.708407
Si Si6 0.294790 0.328890 0.316605
Si Si7 0.286494 0.434297 0.326135
Si Si8 0.709297 0.435758 0.593951
O O1 0.500000 0.036717 0.694757
O O2 0.750000 0.060920 0.750000
O O3 0.775904 0.064996 0.649045
O O4 0.779670 0.984123 0.696185
O O5 0.500000 0.810665 0.922007
O O6 0.245320 0.750000 0.931772
O O7 0.210292 0.823352 0.874784
O O8 0.218424 0.837750 0.970505
O O9 0.742341 0.562506 0.882683
O O10 0.724194 0.484993 0.930892
O O11 0.000000 0.540259 0.940699
O O12 0.711360 0.573378 0.975638
O O13 0.500000 0.137745 0.987523
O O14 0.765770 0.109021 0.941000
O O15 0.844058 0.791271 0.703119
O O16 0.500000 0.320332 0.302123
O O17 0.233448 0.383139 0.305699
O O18 0.500000 0.434626 0.323351
O O19 0.500000 0.443053 0.597394
#
# Coordination Sequence:
#
# PCOD9536083 Si02
#       8
#    16  16  16  16   4  16  16  16
#     4   9  18  35  54  75  98 122 155 202 250 300
#     4  10  19  33  45  63  96 131 170 218 252 283
#     4   9  16  29  46  62  88 130 165 193 230 281
#     4  11  21  28  43  67  97 129 163 204 243 277
#     4  12  22  32  44  70 106 122 172 224 254 296
#     4  11  19  31  50  68  95 134 168 210 259 300
#     4   8  16  30  49  70  94 122 163 201 241 302
#     4   9  19  33  47  64  94 131 162 192 234 295
#
# _framework density 19.753235
#
# number of rings (size 3 to 8) (size 9 to 14) (size 15 to 20)
#    0.000    2.345    2.759    2.690    0.000    3.310 
#    1.241    1.379    0.000    0.000    0.000    0.483 
#    0.000    0.552    0.000    1.241    0.000    1.931 
#
# Total GULP energy -323240.603118 kJ/mol
# GULP energy per Si atom -5573.113847 kJ/mol
# Density = 1.970828 g / cm^3
# Si number density = 19.753235 Si / 1000 Ang^3
#
#
#
# Elastic Constant Matrix: (Units=GPa)
#
#
# Indices 1 2 3 4 5 6 
#
# 1 62.2744 11.7203 3.0553 0.0000 0.0000 0.0000
# 2 11.7203 57.1827 55.2637 0.0000 0.0000 0.0000
# 3 3.0553 55.2637 130.0683 0.0000 0.0000 0.0000
# 4 0.0000 0.0000 0.0000 -10.9207 0.0000 0.0000
# 5 0.0000 0.0000 0.0000 0.0000 20.0242 0.0000
# 6 0.0000 0.0000 0.0000 0.0000 0.0000 9.5123
#
#
#
# Elastic Compliance Matrix: (Units=1/GPa)
#
#
# Indices 1 2 3 4 5 6 
#
# 1 0.016955 -0.005243 0.001829 0.000000 0.000000 0.000000
# 2 -0.005243 0.031293 -0.013173 0.000000 0.000000 0.000000
# 3 0.001829 -0.013173 0.013242 0.000000 0.000000 0.000000
# 4 0.000000 0.000000 0.000000 -0.091569 0.000000 0.000000
# 5 0.000000 0.000000 0.000000 0.000000 0.049940 0.000000
# 6 0.000000 0.000000 0.000000 0.000000 0.000000 0.105127
#
#
# Mechanical properties :
#
#
# Convention : Reuss Voigt Hill
#
# Bulk Modulus (GPa) = 35.31403 43.28931 39.30167
# Shear Modulus (GPa) = 29.83295 15.68890 22.76093
#
# Velocity S-wave (km/s) = 3.89045 2.82129 3.39818
# Velocity P-wave (km/s) = 6.17229 5.70750 5.94444
#
# Compressibility (1/GPa) = 0.02831736
#
# Stress axis : x y z
#
# Youngs Moduli (GPa) = 58.97966 31.95588 75.51642
#
# Poissons Ratio (x) = 0.16755 -0.13816
# Poissons Ratio (y) = 0.30924 0.99476
# Poissons Ratio (z) = -0.10790 0.42095
#
# Static dielectric constant tensor:
#      x y z
#    x 1.735020 0.000000 0.000000 
#    y 0.000000 1.695910 0.000000 
#    z 0.000000 0.000000 1.762350 
# 
# From -- ./inp_files/65362.got.cif
#   From: 2010.05.17/outbox.cif.g08.bks.cpg/sg74_33_cif.got.tgz:65362.got - 2010.06.03 17:57:02.
