data_PCOD9536101
_publ_section_title
;
Structure prediction by ZEFSAII (Michael W. Deem and Ramdas Pophale) SiO2 
 PCOD9536101
Probable space group: I M M A
;
_chemical_formula_sum "Si O2"
_cell_formula_units_Z 80
_cell_length_a 15.576713
_cell_length_b 7.532204
_cell_length_c 33.113287
_cell_angle_alpha 90.000000
_cell_angle_beta 90.000000
_cell_angle_gamma 90.000000
_cell_volume 3885.081960
_symmetry_space_group_name_H-M "I M M A"
_symmetry_group_IT_number 74
_symmetry_cell_setting 'orthorhombic'
loop_
_space_group_symop_operation_xyz
x,y,z
-x,1/2-y,z
x,-y,-z
-x,1/2+y,-z
-x,-y,-z
x,1/2+y,-z
-x,y,z
x,1/2-y,z
1/2+x,1/2+y,1/2+z
1/2-x,-y,1/2+z
1/2+x,1/2-y,1/2-z
1/2-x,y,1/2-z
1/2-x,1/2-y,1/2-z
1/2+x,y,1/2-z
1/2-x,1/2+y,1/2+z
1/2+x,-y,1/2+z
loop_
_atom_site_type_symbol
_atom_site_label
_atom_site_fract_x
_atom_site_fract_y
_atom_site_fract_z
Si Si1 0.403854 0.036796 0.452842
Si Si2 0.404503 0.540232 0.851208
Si Si3 0.907539 0.464875 0.825108
Si Si4 0.767243 0.543634 0.889592
Si Si5 0.846400 0.535738 0.260810
O O1 0.500000 0.968840 0.442776
O O2 0.406215 0.250000 0.447318
O O3 0.327343 0.965445 0.424824
O O4 0.388914 0.000000 0.500000
O O5 0.500000 0.465400 0.857836
O O6 0.408441 0.750000 0.859979
O O7 0.325084 0.465387 0.877384
O O8 0.379993 0.525169 0.803952
O O9 0.903023 0.250000 0.826941
O O10 0.827733 0.535528 0.850147
O O11 0.901134 0.516098 0.778240
O O12 0.000000 0.521963 0.841818
O O13 0.752692 0.750000 0.900004
O O14 0.845798 0.750000 0.262845
O O15 0.750000 0.477201 0.250000
#
# Coordination Sequence:
#
# PCOD9536101 Si02
#       5
#    16  16  16  16  16
#     4   9  18  33  53  77 102 127 155 189 237 298
#     4  10  21  35  51  72  98 132 174 214 251 291
#     4  10  20  32  47  70  99 130 165 205 249 295
#     4  10  20  34  52  73 100 130 163 203 246 293
#     4  10  19  33  51  69  95 132 172 212 253 294
#
# _framework density 20.591586
#
# number of rings (size 3 to 8) (size 9 to 14) (size 15 to 20)
#    0.000    2.200    2.000    1.200    0.000    4.400 
#    0.000    2.000    0.000    0.600    0.000    0.000 
#    0.000    0.000    0.000    0.000    0.000    0.000 
#
# Total GULP energy -223279.215891 kJ/mol
# GULP energy per Si atom -5581.980397 kJ/mol
# Density = 2.054472 g / cm^3
# Si number density = 20.591586 Si / 1000 Ang^3
#
#
#
# Elastic Constant Matrix: (Units=GPa)
#
#
# Indices 1 2 3 4 5 6 
#
# 1 212.5217 7.2953 82.3743 0.0000 0.0000 0.0000
# 2 7.2953 51.8895 -2.5634 0.0000 0.0000 0.0000
# 3 82.3743 -2.5634 110.0059 0.0000 0.0000 0.0000
# 4 0.0000 0.0000 0.0000 13.9570 0.0000 0.0000
# 5 0.0000 0.0000 0.0000 0.0000 0.9364 0.0000
# 6 0.0000 0.0000 0.0000 0.0000 0.0000 23.0876
#
#
#
# Elastic Compliance Matrix: (Units=1/GPa)
#
#
# Indices 1 2 3 4 5 6 
#
# 1 0.006702 -0.001192 -0.005047 0.000000 0.000000 0.000000
# 2 -0.001192 0.019506 0.001347 0.000000 0.000000 0.000000
# 3 -0.005047 0.001347 0.012901 0.000000 0.000000 0.000000
# 4 0.000000 0.000000 0.000000 0.071649 0.000000 0.000000
# 5 0.000000 0.000000 0.000000 0.000000 1.067962 0.000000
# 6 0.000000 0.000000 0.000000 0.000000 0.000000 0.043313
#
#
# Mechanical properties :
#
#
# Convention : Reuss Voigt Hill
#
# Bulk Modulus (GPa) = 34.09924 60.95881 47.52903
# Shear Modulus (GPa) = 4.02709 26.75025 15.38867
#
# Velocity S-wave (km/s) = 1.39998 3.60819 2.73670
# Velocity P-wave (km/s) = 4.38281 6.85761 5.75481
#
# Compressibility (1/GPa) = 0.02932616
#
# Stress axis : x y z
#
# Youngs Moduli (GPa) = 149.20016 51.26684 77.51450
#
# Poissons Ratio (x) = 0.06109 0.39119
# Poissons Ratio (y) = 0.17779 -0.10440
# Poissons Ratio (z) = 0.75296 -0.06905
#
# Static dielectric constant tensor:
#      x y z
#    x 1.782230 0.000000 0.000000 
#    y 0.000000 1.790310 0.000000 
#    z 0.000000 0.000000 1.704310 
# 
# From -- ./inp_files/59724.got.cif
#   From: 2010.05.17/outbox.cif.g08.bks.cpg/sg74_30_cif.got.tgz:59724.got - 2010.06.03 17:57:02.
