data_PCOD9536150
_publ_section_title
;
Structure prediction by ZEFSAII (Michael W. Deem and Ramdas Pophale) SiO2 
 PCOD9536150
Probable space group: I M M A
;
_chemical_formula_sum "Si O2"
_cell_formula_units_Z 96
_cell_length_a 14.278820
_cell_length_b 13.970760
_cell_length_c 23.852841
_cell_angle_alpha 90.000000
_cell_angle_beta 90.000000
_cell_angle_gamma 90.000000
_cell_volume 4758.307060
_symmetry_space_group_name_H-M "I M M A"
_symmetry_group_IT_number 74
_symmetry_cell_setting 'orthorhombic'
loop_
_space_group_symop_operation_xyz
x,y,z
-x,1/2-y,z
x,-y,-z
-x,1/2+y,-z
-x,-y,-z
x,1/2+y,-z
-x,y,z
x,1/2-y,z
1/2+x,1/2+y,1/2+z
1/2-x,-y,1/2+z
1/2+x,1/2-y,1/2-z
1/2-x,y,1/2-z
1/2-x,1/2-y,1/2-z
1/2+x,y,1/2-z
1/2-x,1/2+y,1/2+z
1/2+x,-y,1/2+z
loop_
_atom_site_type_symbol
_atom_site_label
_atom_site_fract_x
_atom_site_fract_y
_atom_site_fract_z
Si Si1 0.697095 0.636106 0.626549
Si Si2 0.603516 0.134294 0.263473
Si Si3 0.205736 0.134406 0.839179
Si Si4 0.892341 0.481556 0.936635
Si Si5 0.606203 0.866237 0.222751
Si Si6 0.601562 0.133054 0.134252
O O1 0.690331 0.750000 0.623099
O O2 0.680990 0.607574 0.691471
O O3 0.617429 0.584762 0.592128
O O4 0.800492 0.605301 0.606625
O O5 0.500000 0.107671 0.284810
O O6 0.607185 0.250000 0.260527
O O7 0.609159 0.102625 0.199422
O O8 0.202210 0.250000 0.844297
O O9 0.311662 0.107126 0.820807
O O10 0.140417 0.107496 0.785560
O O11 0.168305 0.086199 0.895802
O O12 0.000000 0.448188 0.937867
O O13 0.859548 0.500000 0.000000
O O14 0.500000 0.898965 0.211601
O O15 0.604924 0.750000 0.222153
O O16 0.500000 0.101377 0.112298
O O17 0.600559 0.250000 0.134014
#
# Coordination Sequence:
#
# PCOD9536150 Si02
#       6
#    16  16  16  16  16  16
#     4  10  19  33  53  73 100 139 178 218 261 304
#     4   8  13  23  42  69 100 132 164 199 242 293
#     4   9  18  35  60  87 116 149 181 224 288 346
#     4  11  25  41  55  76 106 140 185 235 276 326
#     4   8  14  29  58  93 121 143 175 225 286 351
#     4   8  14  26  46  73 104 136 169 205 248 303
#
# _framework density 20.175242999999998
#
# number of rings (size 3 to 8) (size 9 to 14) (size 15 to 20)
#    0.000    3.000    0.000    3.500    0.000    4.667 
#    6.000    2.500    0.000    2.000    0.000    4.667 
#    0.000    0.000    0.000    0.000    0.000    0.000 
#
# Total GULP energy -267630.946985 kJ/mol
# GULP energy per Si atom -5575.644729 kJ/mol
# Density = 2.012932 g / cm^3
# Si number density = 20.175243 Si / 1000 Ang^3
#
#
#
# Elastic Constant Matrix: (Units=GPa)
#
#
# Indices 1 2 3 4 5 6 
#
# 1 129.6557 25.5218 40.0935 0.0000 0.0000 0.0000
# 2 25.5218 73.4381 26.5221 0.0000 0.0000 0.0000
# 3 40.0935 26.5221 93.4593 0.0000 0.0000 0.0000
# 4 0.0000 0.0000 0.0000 62.2235 0.0000 0.0000
# 5 0.0000 0.0000 0.0000 0.0000 22.0444 0.0000
# 6 0.0000 0.0000 0.0000 0.0000 0.0000 19.3874
#
#
#
# Elastic Compliance Matrix: (Units=1/GPa)
#
#
# Indices 1 2 3 4 5 6 
#
# 1 0.009139 -0.001961 -0.003364 0.000000 0.000000 0.000000
# 2 -0.001961 0.015593 -0.003584 0.000000 0.000000 0.000000
# 3 -0.003364 -0.003584 0.013160 0.000000 0.000000 0.000000
# 4 0.000000 0.000000 0.000000 0.016071 0.000000 0.000000
# 5 0.000000 0.000000 0.000000 0.000000 0.045363 0.000000
# 6 0.000000 0.000000 0.000000 0.000000 0.000000 0.051580
#
#
# Mechanical properties :
#
#
# Convention : Reuss Voigt Hill
#
# Bulk Modulus (GPa) = 49.81550 53.42533 51.62041
# Shear Modulus (GPa) = 28.50389 34.35876 31.43132
#
# Velocity S-wave (km/s) = 3.76282 4.13124 3.95133
# Velocity P-wave (km/s) = 6.60480 7.02099 6.81607
#
# Compressibility (1/GPa) = 0.02007407
#
# Stress axis : x y z
#
# Youngs Moduli (GPa) = 109.42066 64.13261 75.98798
#
# Poissons Ratio (x) = 0.12577 0.25563
# Poissons Ratio (y) = 0.21459 0.27231
# Poissons Ratio (z) = 0.36810 0.22983
#
# Static dielectric constant tensor:
#      x y z
#    x 1.764590 0.000000 0.000000 
#    y 0.000000 1.779100 0.000000 
#    z 0.000000 0.000000 0.817580 
# 
# From -- ./inp_files/51927.got.cif
#   From: 2010.05.17/outbox.cif.g08.bks.cpg/sg74_26_cif.got.tgz:51927.got - 2010.06.03 17:57:02.
