data_PCOD9536176
_publ_section_title
;
Structure prediction by ZEFSAII (Michael W. Deem and Ramdas Pophale) SiO2 
 PCOD9536176
Probable space group: I M M A
;
_chemical_formula_sum "Si O2"
_cell_formula_units_Z 72
_cell_length_a 18.403501
_cell_length_b 7.545161
_cell_length_c 24.548085
_cell_angle_alpha 90.000000
_cell_angle_beta 90.000000
_cell_angle_gamma 90.000000
_cell_volume 3408.682718
_symmetry_space_group_name_H-M "I M M A"
_symmetry_group_IT_number 74
_symmetry_cell_setting 'orthorhombic'
loop_
_space_group_symop_operation_xyz
x,y,z
-x,1/2-y,z
x,-y,-z
-x,1/2+y,-z
-x,-y,-z
x,1/2+y,-z
-x,y,z
x,1/2-y,z
1/2+x,1/2+y,1/2+z
1/2-x,-y,1/2+z
1/2+x,1/2-y,1/2-z
1/2-x,y,1/2-z
1/2-x,1/2-y,1/2-z
1/2+x,y,1/2-z
1/2-x,1/2+y,1/2+z
1/2+x,-y,1/2+z
loop_
_atom_site_type_symbol
_atom_site_label
_atom_site_fract_x
_atom_site_fract_y
_atom_site_fract_z
Si Si1 0.287095 0.537058 0.436173
Si Si2 0.584215 0.466235 0.761883
Si Si3 0.646952 0.541897 0.127374
Si Si4 0.500000 0.459328 0.064157
Si Si5 0.583168 0.966407 0.360811
O O1 0.286677 0.500000 0.500000
O O2 0.287021 0.750000 0.431034
O O3 0.214632 0.467456 0.406315
O O4 0.358949 0.472056 0.405076
O O5 0.500000 0.517110 0.770944
O O6 0.585630 0.250000 0.762701
O O7 0.631792 0.531945 0.812323
O O8 0.604783 0.520074 0.700718
O O9 0.662283 0.750000 0.135191
O O10 0.572712 0.528889 0.092994
O O11 0.500000 0.250000 0.071309
O O12 0.500000 0.500000 0.000000
O O13 0.500000 0.022862 0.370726
O O14 0.582517 0.750000 0.361256
#
# Coordination Sequence:
#
# PCOD9536176 Si02
#       5
#    16  16  16   8  16
#     4  10  21  34  50  74 104 138 175 216 257 303
#     4   8  13  25  49  77 104 129 159 207 260 304
#     4  10  19  33  53  77 105 135 170 212 258 307
#     4  12  24  36  52  74 102 140 181 214 249 300
#     4   8  15  29  50  78 106 131 165 214 265 306
#
# _framework density 21.122530000000001
#
# number of rings (size 3 to 8) (size 9 to 14) (size 15 to 20)
#    0.000    2.667    1.111    3.000    0.000    4.000 
#    0.000    4.444    0.000    1.333    0.000    3.111 
#    0.000    0.000    0.000    0.000    0.000    0.000 
#
# Total GULP energy -200956.726967 kJ/mol
# GULP energy per Si atom -5582.131305 kJ/mol
# Density = 2.107445 g / cm^3
# Si number density = 21.122530 Si / 1000 Ang^3
#
#
#
# Elastic Constant Matrix: (Units=GPa)
#
#
# Indices 1 2 3 4 5 6 
#
# 1 158.6455 -0.5037 127.6668 0.0000 0.0000 0.0000
# 2 -0.5037 52.7152 1.2166 0.0000 0.0000 0.0000
# 3 127.6668 1.2166 181.7915 0.0000 0.0000 0.0000
# 4 0.0000 0.0000 0.0000 16.5647 0.0000 0.0000
# 5 0.0000 0.0000 0.0000 0.0000 -4.5616 0.0000
# 6 0.0000 0.0000 0.0000 0.0000 0.0000 -9.9626
#
#
#
# Elastic Compliance Matrix: (Units=1/GPa)
#
#
# Indices 1 2 3 4 5 6 
#
# 1 0.014502 0.000374 -0.010187 0.000000 0.000000 0.000000
# 2 0.000374 0.018982 -0.000389 0.000000 0.000000 0.000000
# 3 -0.010187 -0.000389 0.012658 0.000000 0.000000 0.000000
# 4 0.000000 0.000000 0.000000 0.060369 0.000000 0.000000
# 5 0.000000 0.000000 0.000000 0.000000 -0.219222 0.000000
# 6 0.000000 0.000000 0.000000 0.000000 0.000000 -0.100375
#
#
# Mechanical properties :
#
#
# Convention : Reuss Voigt Hill
#
# Bulk Modulus (GPa) = 38.85520 72.21239 55.53379
# Shear Modulus (GPa) = -27.15913 18.05959 -4.54977
#
# Velocity S-wave (km/s) = -3.58968 2.92720 -1.46924
# Velocity P-wave (km/s) = 1.11982 6.75916 4.84460
#
# Compressibility (1/GPa) = 0.02573658
#
# Stress axis : x y z
#
# Youngs Moduli (GPa) = 68.95388 52.68029 79.00426
#
# Poissons Ratio (x) = -0.01969 0.80483
# Poissons Ratio (y) = -0.02577 0.03077
# Poissons Ratio (z) = 0.70244 0.02052
#
# Static dielectric constant tensor:
#      x y z
#    x 1.809060 0.000000 0.000000 
#    y 0.000000 1.832850 0.000000 
#    z 0.000000 0.000000 1.739140 
# 
# From -- ./inp_files/56679.got.cif
#   From: 2010.05.17/outbox.cif.g08.bks.cpg/sg74_29_cif.got.tgz:56679.got - 2010.06.03 17:57:02.
