data_PCOD9536341
_publ_section_title
;
Structure prediction by ZEFSAII (Michael W. Deem and Ramdas Pophale) SiO2 
 PCOD9536341
Probable space group: I M M A
;
_chemical_formula_sum "Si O2"
_cell_formula_units_Z 116
_cell_length_a 23.751607
_cell_length_b 14.491747
_cell_length_c 18.478135
_cell_angle_alpha 90.000000
_cell_angle_beta 90.000000
_cell_angle_gamma 90.000000
_cell_volume 6360.216188
_symmetry_space_group_name_H-M "I M M A"
_symmetry_group_IT_number 74
_symmetry_cell_setting 'orthorhombic'
loop_
_space_group_symop_operation_xyz
x,y,z
-x,1/2-y,z
x,-y,-z
-x,1/2+y,-z
-x,-y,-z
x,1/2+y,-z
-x,y,z
x,1/2-y,z
1/2+x,1/2+y,1/2+z
1/2-x,-y,1/2+z
1/2+x,1/2-y,1/2-z
1/2-x,y,1/2-z
1/2-x,1/2-y,1/2-z
1/2+x,y,1/2-z
1/2-x,1/2+y,1/2+z
1/2+x,-y,1/2+z
loop_
_atom_site_type_symbol
_atom_site_label
_atom_site_fract_x
_atom_site_fract_y
_atom_site_fract_z
Si Si1 0.561500 0.138432 0.553817
Si Si2 0.278524 0.858069 0.933896
Si Si3 0.500000 0.750000 0.955243
Si Si4 0.596478 0.107652 0.002701
Si Si5 0.561970 0.138065 0.722746
Si Si6 0.141692 0.143860 0.651500
Si Si7 0.749890 0.475055 0.663559
Si Si8 0.683891 0.139927 0.555942
O O1 0.500000 0.105593 0.526565
O O2 0.558910 0.250000 0.550358
O O3 0.566225 0.112354 0.638767
O O4 0.622750 0.114117 0.522720
O O5 0.276515 0.750000 0.915533
O O6 0.341789 0.881049 0.960499
O O7 0.258787 0.923926 0.869359
O O8 0.233878 0.874200 0.998726
O O9 0.549699 0.830367 0.959487
O O10 0.603149 0.140612 0.919496
O O11 0.582062 0.000000 0.000000
O O12 0.500000 0.109711 0.748829
O O13 0.563837 0.250000 0.724291
O O14 0.608931 0.106729 0.778456
O O15 0.158585 0.250000 0.664206
O O16 0.196204 0.083727 0.638449
O O17 0.750000 0.474353 0.750000
O O18 0.698007 0.421810 0.625853
O O19 0.682670 0.250000 0.574761
#
# Coordination Sequence:
#
# PCOD9536341 Si02
#       8
#    16  16   4  16  16  16  16  16
#     4   8  14  27  46  76 115 147 177 208 258 336
#     4  11  22  42  63  77 110 156 202 252 304 348
#     4  12  26  36  60  90 116 156 208 252 286 370
#     4  12  22  39  58  84 118 155 199 253 301 353
#     4   8  15  25  41  65 106 154 177 199 250 326
#     4  11  20  32  53  79 116 151 183 230 290 353
#     4  12  24  36  56  85 113 148 198 247 298 355
#     4  10  19  33  58  87 116 153 184 226 294 365
#
# _framework density 18.238372999999999
#
# number of rings (size 3 to 8) (size 9 to 14) (size 15 to 20)
#    0.000    1.655    4.138    2.690    0.966    2.483 
#    0.000    0.000    0.000    1.655    0.000    0.000 
#    0.000    0.276    0.000    0.000    0.000    0.000 
#
# Total GULP energy -322920.515362 kJ/mol
# GULP energy per Si atom -5567.595092 kJ/mol
# Density = 1.819686 g / cm^3
# Si number density = 18.238373 Si / 1000 Ang^3
#
#
#
# Elastic Constant Matrix: (Units=GPa)
#
#
# Indices 1 2 3 4 5 6 
#
# 1 131.4712 25.4472 5.3721 0.0000 0.0000 0.0000
# 2 25.4472 95.3382 17.3755 0.0000 0.0000 0.0000
# 3 5.3721 17.3755 33.9014 0.0000 0.0000 0.0000
# 4 0.0000 0.0000 0.0000 14.3245 0.0000 0.0000
# 5 0.0000 0.0000 0.0000 0.0000 8.8632 0.0000
# 6 0.0000 0.0000 0.0000 0.0000 0.0000 -5.4406
#
#
#
# Elastic Compliance Matrix: (Units=1/GPa)
#
#
# Indices 1 2 3 4 5 6 
#
# 1 0.008022 -0.002106 -0.000192 0.000000 0.000000 0.000000
# 2 -0.002106 0.012123 -0.005879 0.000000 0.000000 0.000000
# 3 -0.000192 -0.005879 0.032541 0.000000 0.000000 0.000000
# 4 0.000000 0.000000 0.000000 0.069811 0.000000 0.000000
# 5 0.000000 0.000000 0.000000 0.000000 0.112826 0.000000
# 6 0.000000 0.000000 0.000000 0.000000 0.000000 -0.183803
#
#
# Mechanical properties :
#
#
# Convention : Reuss Voigt Hill
#
# Bulk Modulus (GPa) = 27.52486 39.67784 33.60135
# Shear Modulus (GPa) = 62.51177 17.71713 40.11445
#
# Velocity S-wave (km/s) = 5.86083 3.12014 4.69492
# Velocity P-wave (km/s) = 7.80535 5.89769 6.91760
#
# Compressibility (1/GPa) = 0.03633079
#
# Stress axis : x y z
#
# Youngs Moduli (GPa) = 124.66135 82.48988 30.73040
#
# Poissons Ratio (x) = 0.17374 0.00589
# Poissons Ratio (y) = 0.26256 0.18068
# Poissons Ratio (z) = 0.02389 0.48500
#
# Static dielectric constant tensor:
#      x y z
#    x 1.674970 0.000000 0.000000 
#    y 0.000000 1.632940 0.000000 
#    z 0.000000 0.000000 1.615670 
# 
# From -- ./inp_files/46166.got.cif
#   From: 2010.05.17/outbox.cif.g08.bks.cpg/sg74_24_cif.got.tgz:46166.got - 2010.06.03 17:57:02.
