data_PCOD9536561
_publ_section_title
;
Structure prediction by ZEFSAII (Michael W. Deem and Ramdas Pophale) SiO2 
 PCOD9536561
Probable space group: I M M A
;
_chemical_formula_sum "Si O2"
_cell_formula_units_Z 116
_cell_length_a 7.584127
_cell_length_b 26.903062
_cell_length_c 29.231422
_cell_angle_alpha 90.000000
_cell_angle_beta 90.000000
_cell_angle_gamma 90.000000
_cell_volume 5964.269402
_symmetry_space_group_name_H-M "I M M A"
_symmetry_group_IT_number 74
_symmetry_cell_setting 'orthorhombic'
loop_
_space_group_symop_operation_xyz
x,y,z
-x,1/2-y,z
x,-y,-z
-x,1/2+y,-z
-x,-y,-z
x,1/2+y,-z
-x,y,z
x,1/2-y,z
1/2+x,1/2+y,1/2+z
1/2-x,-y,1/2+z
1/2+x,1/2-y,1/2-z
1/2-x,y,1/2-z
1/2-x,1/2-y,1/2-z
1/2+x,y,1/2-z
1/2-x,1/2+y,1/2+z
1/2+x,-y,1/2+z
loop_
_atom_site_type_symbol
_atom_site_label
_atom_site_fract_x
_atom_site_fract_y
_atom_site_fract_z
Si Si1 0.212542 0.805726 0.384273
Si Si2 0.794759 0.533731 0.141704
Si Si3 0.702147 0.573709 0.872782
Si Si4 0.296965 0.453607 0.028458
Si Si5 0.500000 0.250000 0.309638
Si Si6 0.791402 0.601073 0.057111
Si Si7 0.714428 0.159077 0.197951
Si Si8 0.790875 0.372966 0.698002
O O1 0.279280 0.750000 0.390031
O O2 0.259478 0.843991 0.424117
O O3 0.277322 0.831807 0.337584
O O4 0.000000 0.803488 0.382029
O O5 0.707634 0.480817 0.149968
O O6 0.724832 0.562480 0.096289
O O7 0.778803 0.573519 0.182160
O O8 0.000000 0.523808 0.133908
O O9 0.500000 0.588227 0.881668
O O10 0.783337 0.563378 0.923267
O O11 0.767047 0.616583 0.838924
O O12 0.500000 0.468213 0.038388
O O13 0.216264 0.500000 0.000000
O O14 0.292662 0.409850 0.991524
O O15 0.342305 0.293566 0.308655
O O16 0.000000 0.593503 0.052999
O O17 0.500000 0.169510 0.194261
O O18 0.750000 0.141448 0.250000
O O19 0.750000 0.361285 0.750000
O O20 0.000000 0.375331 0.692447
#
# Coordination Sequence:
#
# PCOD9536561 Si02
#       8
#    16  16  16  16   4  16  16  16
#     4   9  19  36  57  77 101 142 193 241 284 341
#     4  10  20  33  53  77 114 153 188 228 283 345
#     4  10  22  38  57  89 126 151 188 245 289 343
#     4  10  19  34  59  85 114 158 198 230 281 341
#     4  12  24  44  74  94 118 162 204 256 304 370
#     4  10  20  33  52  84 112 147 192 236 284 341
#     4  11  24  41  66  98 124 156 205 251 306 367
#     4  10  20  34  52  76 107 144 188 232 288 347
#
# _framework density 19.449154
#
# number of rings (size 3 to 8) (size 9 to 14) (size 15 to 20)
#    0.000    1.931    2.069    1.655    0.966    3.586 
#    0.000    1.379    1.517    0.000    0.000    0.000 
#    0.000    0.000    0.000    0.000    0.000    0.000 
#
# Total GULP energy -322899.798199 kJ/mol
# GULP energy per Si atom -5567.237900 kJ/mol
# Density = 1.940489 g / cm^3
# Si number density = 19.449154 Si / 1000 Ang^3
#
#
#
# Elastic Constant Matrix: (Units=GPa)
#
#
# Indices 1 2 3 4 5 6 
#
# 1 81.7152 20.9881 17.9623 0.0000 0.0000 0.0000
# 2 20.9881 148.3283 85.8432 0.0000 0.0000 0.0000
# 3 17.9623 85.8432 105.4884 0.0000 0.0000 0.0000
# 4 0.0000 0.0000 0.0000 7.9347 0.0000 0.0000
# 5 0.0000 0.0000 0.0000 0.0000 15.3353 0.0000
# 6 0.0000 0.0000 0.0000 0.0000 0.0000 -59.7180
#
#
#
# Elastic Compliance Matrix: (Units=1/GPa)
#
#
# Indices 1 2 3 4 5 6 
#
# 1 0.012798 -0.001039 -0.001334 0.000000 0.000000 0.000000
# 2 -0.001039 0.012828 -0.010262 0.000000 0.000000 0.000000
# 3 -0.001334 -0.010262 0.018058 0.000000 0.000000 0.000000
# 4 0.000000 0.000000 0.000000 0.126029 0.000000 0.000000
# 5 0.000000 0.000000 0.000000 0.000000 0.065209 0.000000
# 6 0.000000 0.000000 0.000000 0.000000 0.000000 -0.016745
#
#
# Mechanical properties :
#
#
# Convention : Reuss Voigt Hill
#
# Bulk Modulus (GPa) = 54.30677 65.01326 59.66001
# Shear Modulus (GPa) = 20.03342 6.75960 13.39651
#
# Velocity S-wave (km/s) = 3.21291 1.86630 2.62734
# Velocity P-wave (km/s) = 6.46117 6.17608 6.32023
#
# Compressibility (1/GPa) = 0.01841391
#
# Stress axis : x y z
#
# Youngs Moduli (GPa) = 78.13936 77.95573 55.37817
#
# Poissons Ratio (x) = 0.08100 0.07385
# Poissons Ratio (y) = 0.08119 0.56829
# Poissons Ratio (z) = 0.10421 0.79998
#
# Static dielectric constant tensor:
#      x y z
#    x 1.742720 0.000000 0.000000 
#    y 0.000000 1.678860 0.000000 
#    z 0.000000 0.000000 1.682330 
# 
# From -- ./inp_files/70879.got.cif
#   From: 2010.05.17/outbox.cif.g08.bks.cpg/sg74_36_cif.got.tgz:70879.got - 2010.06.03 17:57:02.
