data_PCOD9536959
_publ_section_title
;
Structure prediction by ZEFSAII (Michael W. Deem and Ramdas Pophale) SiO2 
 PCOD9536959
Probable space group: I M M A
;
_chemical_formula_sum "Si O2"
_cell_formula_units_Z 112
_cell_length_a 20.443611
_cell_length_b 24.944383
_cell_length_c 12.217092
_cell_angle_alpha 90.000000
_cell_angle_beta 90.000000
_cell_angle_gamma 90.000000
_cell_volume 6230.145926
_symmetry_space_group_name_H-M "I M M A"
_symmetry_group_IT_number 74
_symmetry_cell_setting 'orthorhombic'
loop_
_space_group_symop_operation_xyz
x,y,z
-x,1/2-y,z
x,-y,-z
-x,1/2+y,-z
-x,-y,-z
x,1/2+y,-z
-x,y,z
x,1/2-y,z
1/2+x,1/2+y,1/2+z
1/2-x,-y,1/2+z
1/2+x,1/2-y,1/2-z
1/2-x,y,1/2-z
1/2-x,1/2-y,1/2-z
1/2+x,y,1/2-z
1/2-x,1/2+y,1/2+z
1/2+x,-y,1/2+z
loop_
_atom_site_type_symbol
_atom_site_label
_atom_site_fract_x
_atom_site_fract_y
_atom_site_fract_z
Si Si1 0.647101 0.989882 0.834258
Si Si2 0.191959 0.865003 0.167212
Si Si3 0.784072 0.814524 0.928729
Si Si4 0.424398 0.390176 0.063189
Si Si5 0.797560 0.490813 0.881046
Si Si6 0.347889 0.685753 0.797979
Si Si7 0.421790 0.106191 0.819140
O O1 0.720790 0.996325 0.877975
O O2 0.661622 0.976015 0.707601
O O3 0.605190 0.044790 0.830588
O O4 0.613975 0.943398 0.902524
O O5 0.250000 0.847008 0.250000
O O6 0.200051 0.928593 0.149685
O O7 0.122122 0.862449 0.229906
O O8 0.199412 0.838845 0.047198
O O9 0.784572 0.750000 0.938734
O O10 0.713206 0.829810 0.877697
O O11 0.832134 0.828950 0.827749
O O12 0.500000 0.404455 0.062065
O O13 0.408508 0.344911 0.151349
O O14 0.408180 0.370878 0.940525
O O15 0.824987 0.500000 0.000000
O O16 0.353467 0.750000 0.802262
O O17 0.500000 0.106744 0.797323
#
# Coordination Sequence:
#
# PCOD9536959 Si02
#       7
#    16  16  16  16  16  16  16
#     4  10  20  33  51  79 110 144 188 223 264 329
#     4  11  20  35  55  82 111 143 184 224 270 332
#     4   9  20  37  60  84 107 137 175 228 286 327
#     4  11  22  34  56  81 105 148 190 224 271 322
#     4  10  20  31  49  80 111 144 176 223 281 322
#     4   9  20  38  58  83 109 135 174 230 285 326
#     4  10  20  36  53  77 115 150 180 226 274 320
#
# _framework density 17.977108000000001
#
# number of rings (size 3 to 8) (size 9 to 14) (size 15 to 20)
#    0.000    2.000    2.857    3.429    4.000    2.857 
#    0.000    1.429    0.000    4.286    0.000    0.000 
#    0.000    0.000    0.000    0.000    0.000    0.000 
#
# Total GULP energy -312118.561690 kJ/mol
# GULP energy per Si atom -5573.545744 kJ/mol
# Density = 1.793619 g / cm^3
# Si number density = 17.977108 Si / 1000 Ang^3
#
#
#
# Elastic Constant Matrix: (Units=GPa)
#
#
# Indices 1 2 3 4 5 6 
#
# 1 70.8499 13.3244 53.2125 0.0000 0.0000 0.0000
# 2 13.3244 26.1494 25.2239 0.0000 0.0000 0.0000
# 3 53.2125 25.2239 164.1096 0.0000 0.0000 0.0000
# 4 0.0000 0.0000 0.0000 33.4232 0.0000 0.0000
# 5 0.0000 0.0000 0.0000 0.0000 18.2949 0.0000
# 6 0.0000 0.0000 0.0000 0.0000 0.0000 11.8596
#
#
#
# Elastic Compliance Matrix: (Units=1/GPa)
#
#
# Indices 1 2 3 4 5 6 
#
# 1 0.019081 -0.004408 -0.005510 0.000000 0.000000 0.000000
# 2 -0.004408 0.045917 -0.005628 0.000000 0.000000 0.000000
# 3 -0.005510 -0.005628 0.008745 0.000000 0.000000 0.000000
# 4 0.000000 0.000000 0.000000 0.029919 0.000000 0.000000
# 5 0.000000 0.000000 0.000000 0.000000 0.054660 0.000000
# 6 0.000000 0.000000 0.000000 0.000000 0.000000 0.084320
#
#
# Mechanical properties :
#
#
# Convention : Reuss Voigt Hill
#
# Bulk Modulus (GPa) = 23.44592 49.40338 36.42465
# Shear Modulus (GPa) = 17.36402 24.00543 20.68473
#
# Velocity S-wave (km/s) = 3.11126 3.65819 3.39575
# Velocity P-wave (km/s) = 5.09676 6.73677 5.97332
#
# Compressibility (1/GPa) = 0.04265134
#
# Stress axis : x y z
#
# Youngs Moduli (GPa) = 52.40708 21.77848 114.35080
#
# Poissons Ratio (x) = 0.09601 0.63002
# Poissons Ratio (y) = 0.23103 0.64358
# Poissons Ratio (z) = 0.28874 0.12257
#
# Static dielectric constant tensor:
#      x y z
#    x 1.620300 0.000000 0.000000 
#    y 0.000000 1.613200 0.000000 
#    z 0.000000 0.000000 1.670790 
# 
# From -- ./inp_files/24209.got.cif
#   From: 2010.05.17/outbox.cif.g08.bks.cpg/sg74_13_cif.got.tgz:24209.got - 2010.06.03 17:57:02.
