data_PCOD9536023
_publ_section_title
;
Structure prediction by ZEFSAII (Michael W. Deem and Ramdas Pophale) SiO2 
 PCOD9536023
Probable space group: I M M A
;
_chemical_formula_sum "Si O2"
_cell_formula_units_Z 88
_cell_length_a 19.043864
_cell_length_b 7.765138
_cell_length_c 29.183107
_cell_angle_alpha 90.000000
_cell_angle_beta 90.000000
_cell_angle_gamma 90.000000
_cell_volume 4315.546268
_symmetry_space_group_name_H-M "I M M A"
_symmetry_group_IT_number 74
_symmetry_cell_setting 'orthorhombic'
loop_
_space_group_symop_operation_xyz
x,y,z
-x,1/2-y,z
x,-y,-z
-x,1/2+y,-z
-x,-y,-z
x,1/2+y,-z
-x,y,z
x,1/2-y,z
1/2+x,1/2+y,1/2+z
1/2-x,-y,1/2+z
1/2+x,1/2-y,1/2-z
1/2-x,y,1/2-z
1/2-x,1/2-y,1/2-z
1/2+x,y,1/2-z
1/2-x,1/2+y,1/2+z
1/2+x,-y,1/2+z
loop_
_atom_site_type_symbol
_atom_site_label
_atom_site_fract_x
_atom_site_fract_y
_atom_site_fract_z
Si Si1 0.077771 0.542563 0.446648
Si Si2 0.685494 0.039496 0.782234
Si Si3 0.706188 0.956444 0.114226
Si Si4 0.500000 0.457844 0.446278
Si Si5 0.136120 0.954187 0.890512
Si Si6 0.421187 0.457494 0.708158
O O1 0.086386 0.500000 0.500000
O O2 0.076969 0.750000 0.442394
O O3 0.143633 0.476204 0.417714
O O4 0.000000 0.480012 0.432102
O O5 0.685235 0.250000 0.783704
O O6 0.750000 0.988289 0.750000
O O7 0.695767 0.977683 0.833873
O O8 0.616489 0.983542 0.754598
O O9 0.699083 0.750000 0.116217
O O10 0.785191 0.989708 0.097156
O O11 0.500000 0.250000 0.442016
O O12 0.500000 0.500000 0.500000
O O13 0.570760 0.523123 0.420767
O O14 0.134438 0.750000 0.894876
O O15 0.122037 0.999765 0.837462
O O16 0.500000 0.525099 0.703175
O O17 0.423977 0.250000 0.710290
#
# Coordination Sequence:
#
# PCOD9536023 Si02
#       6
#    16  16  16   8  16  16
#     4   9  19  36  58  82 109 143 179 221 276 331
#     4   9  16  29  50  77 108 136 171 221 266 303
#     4  10  20  35  57  83 112 145 185 228 270 324
#     4  10  24  42  58  78 106 142 182 234 285 328
#     4  11  22  37  55  78 110 144 181 225 279 329
#     4  10  19  32  54  80 104 141 188 224 264 321
#
# _framework density 20.391393999999998
#
# number of rings (size 3 to 8) (size 9 to 14) (size 15 to 20)
#    0.000    2.182    2.727    0.545    0.000    3.636 
#    0.000    9.091    0.000    0.000    0.000    2.545 
#    0.000    0.000    0.000    0.000    0.000    0.000 
#
# Total GULP energy -245556.543547 kJ/mol
# GULP energy per Si atom -5580.830535 kJ/mol
# Density = 2.034498 g / cm^3
# Si number density = 20.391394 Si / 1000 Ang^3
#
#
#
# Elastic Constant Matrix: (Units=GPa)
#
#
# Indices 1 2 3 4 5 6 
#
# 1 202.2736 10.3165 93.1836 0.0000 0.0000 0.0000
# 2 10.3165 27.9253 5.5275 0.0000 0.0000 0.0000
# 3 93.1836 5.5275 111.3627 0.0000 0.0000 0.0000
# 4 0.0000 0.0000 0.0000 -7.7062 0.0000 0.0000
# 5 0.0000 0.0000 0.0000 0.0000 44.7620 0.0000
# 6 0.0000 0.0000 0.0000 0.0000 0.0000 5.8858
#
#
#
# Elastic Compliance Matrix: (Units=1/GPa)
#
#
# Indices 1 2 3 4 5 6 
#
# 1 0.008121 -0.001672 -0.006713 0.000000 0.000000 0.000000
# 2 -0.001672 0.036509 -0.000413 0.000000 0.000000 0.000000
# 3 -0.006713 -0.000413 0.014617 0.000000 0.000000 0.000000
# 4 0.000000 0.000000 0.000000 -0.129766 0.000000 0.000000
# 5 0.000000 0.000000 0.000000 0.000000 0.022340 0.000000
# 6 0.000000 0.000000 0.000000 0.000000 0.000000 0.169901
#
#
# Mechanical properties :
#
#
# Convention : Reuss Voigt Hill
#
# Bulk Modulus (GPa) = 24.00831 62.17966 43.09399
# Shear Modulus (GPa) = 32.63646 24.09058 28.36352
#
# Velocity S-wave (km/s) = 4.00497 3.44089 3.73360
# Velocity P-wave (km/s) = 5.76070 6.80776 6.30600
#
# Compressibility (1/GPa) = 0.04165225
#
# Stress axis : x y z
#
# Youngs Moduli (GPa) = 123.13004 27.39039 68.41284
#
# Poissons Ratio (x) = 0.04579 0.45924
# Poissons Ratio (y) = 0.20583 0.02828
# Poissons Ratio (z) = 0.82654 0.01132
#
# Static dielectric constant tensor:
#      x y z
#    x 1.682880 0.000000 0.000000 
#    y 0.000000 1.758650 0.000000 
#    z 0.000000 0.000000 1.691250 
# 
# From -- ./inp_files/72950.got.cif
#   From: 2010.05.17/outbox.cif.g08.bks.cpg/sg74_37_cif.got.tgz:72950.got - 2010.06.03 17:57:02.
