data_PCOD9536178
_publ_section_title
;
Structure prediction by ZEFSAII (Michael W. Deem and Ramdas Pophale) SiO2 
 PCOD9536178
Probable space group: I M M A
;
_chemical_formula_sum "Si O2"
_cell_formula_units_Z 104
_cell_length_a 8.465974
_cell_length_b 21.290061
_cell_length_c 30.024107
_cell_angle_alpha 90.000000
_cell_angle_beta 90.000000
_cell_angle_gamma 90.000000
_cell_volume 5411.578159
_symmetry_space_group_name_H-M "I M M A"
_symmetry_group_IT_number 74
_symmetry_cell_setting 'orthorhombic'
loop_
_space_group_symop_operation_xyz
x,y,z
-x,1/2-y,z
x,-y,-z
-x,1/2+y,-z
-x,-y,-z
x,1/2+y,-z
-x,y,z
x,1/2-y,z
1/2+x,1/2+y,1/2+z
1/2-x,-y,1/2+z
1/2+x,1/2-y,1/2-z
1/2-x,y,1/2-z
1/2-x,1/2-y,1/2-z
1/2+x,y,1/2-z
1/2-x,1/2+y,1/2+z
1/2+x,-y,1/2+z
loop_
_atom_site_type_symbol
_atom_site_label
_atom_site_fract_x
_atom_site_fract_y
_atom_site_fract_z
Si Si1 0.310149 0.019175 0.200826
Si Si2 0.313246 0.368319 0.358007
Si Si3 0.310259 0.873917 0.201806
Si Si4 0.309194 0.573202 0.944866
Si Si5 0.806756 0.181192 0.610137
Si Si6 0.687620 0.750000 0.801234
Si Si7 0.307552 0.930929 0.047728
O O1 0.500000 0.022942 0.198837
O O2 0.250000 0.036543 0.250000
O O3 0.238131 0.067407 0.166175
O O4 0.262864 0.946597 0.193362
O O5 0.500000 0.360921 0.357025
O O6 0.257344 0.378256 0.408936
O O7 0.240874 0.310965 0.329640
O O8 0.500000 0.873207 0.202931
O O9 0.250000 0.854392 0.250000
O O10 0.257278 0.831765 0.160782
O O11 0.500000 0.575643 0.941897
O O12 0.258967 0.500545 0.936525
O O13 0.263744 0.582811 0.996531
O O14 0.756659 0.250000 0.594923
O O15 0.751763 0.124210 0.579581
O O16 0.000000 0.179895 0.609429
O O17 0.500000 0.750000 0.798218
O O18 0.750000 0.750000 0.750000
O O19 0.500000 0.932139 0.048494
#
# Coordination Sequence:
#
# PCOD9536178 Si02
#       7
#    16  16  16  16  16   8  16
#     4  10  19  33  53  77 105 137 178 223 271 323
#     4  12  24  38  56  83 115 147 183 226 278 335
#     4   9  18  31  49  74 104 138 176 222 269 314
#     4   9  17  33  57  82 108 140 183 233 285 334
#     4   9  16  27  45  72 104 137 176 222 271 319
#     4  12  26  46  66  84 112 152 194 234 281 342
#     4   8  15  30  53  79 108 142 183 236 287 335
#
# _framework density 19.218055
#
# number of rings (size 3 to 8) (size 9 to 14) (size 15 to 20)
#    0.000    2.308    0.000    4.846    0.000    3.385 
#    1.385    1.538    0.000    0.923    0.000    0.000 
#    0.000    0.000    0.000    0.000    0.000    0.000 
#
# Total GULP energy -290174.583596 kJ/mol
# GULP energy per Si atom -5580.280454 kJ/mol
# Density = 1.917431 g / cm^3
# Si number density = 19.218055 Si / 1000 Ang^3
#
#
#
# Elastic Constant Matrix: (Units=GPa)
#
#
# Indices 1 2 3 4 5 6 
#
# 1 53.0137 20.3183 28.5626 0.0000 0.0000 0.0000
# 2 20.3183 81.2913 73.7520 0.0000 0.0000 0.0000
# 3 28.5626 73.7520 115.2383 0.0000 0.0000 0.0000
# 4 0.0000 0.0000 0.0000 22.8837 0.0000 0.0000
# 5 0.0000 0.0000 0.0000 0.0000 27.0883 0.0000
# 6 0.0000 0.0000 0.0000 0.0000 0.0000 9.1058
#
#
#
# Elastic Compliance Matrix: (Units=1/GPa)
#
#
# Indices 1 2 3 4 5 6 
#
# 1 0.021828 -0.001305 -0.004575 0.000000 0.000000 0.000000
# 2 -0.001305 0.029412 -0.018500 0.000000 0.000000 0.000000
# 3 -0.004575 -0.018500 0.021652 0.000000 0.000000 0.000000
# 4 0.000000 0.000000 0.000000 0.043699 0.000000 0.000000
# 5 0.000000 0.000000 0.000000 0.000000 0.036916 0.000000
# 6 0.000000 0.000000 0.000000 0.000000 0.000000 0.109820
#
#
# Mechanical properties :
#
#
# Convention : Reuss Voigt Hill
#
# Bulk Modulus (GPa) = 41.43989 54.97880 48.20934
# Shear Modulus (GPa) = 15.61859 20.27623 17.94741
#
# Velocity S-wave (km/s) = 2.85389 3.25170 3.05927
# Velocity P-wave (km/s) = 5.69819 6.53973 6.13341
#
# Compressibility (1/GPa) = 0.02413134
#
# Stress axis : x y z
#
# Youngs Moduli (GPa) = 45.81234 33.99988 46.18616
#
# Poissons Ratio (x) = 0.04438 0.21130
# Poissons Ratio (y) = 0.05979 0.85444
# Poissons Ratio (z) = 0.20959 0.62900
#
# Static dielectric constant tensor:
#      x y z
#    x 1.662160 0.000000 0.000000 
#    y 0.000000 1.665000 0.000000 
#    z 0.000000 0.000000 1.663380 
# 
# From -- ./inp_files/64488.got.cif
#   From: 2010.05.17/outbox.cif.g08.bks.cpg/sg74_33_cif.got.tgz:64488.got - 2010.06.03 17:57:02.
