data_PCOD9536741
_publ_section_title
;
Structure prediction by ZEFSAII (Michael W. Deem and Ramdas Pophale) SiO2 
 PCOD9536741
Probable space group: I M M A
;
_chemical_formula_sum "Si O2"
_cell_formula_units_Z 116
_cell_length_a 23.032645
_cell_length_b 27.830503
_cell_length_c 9.724499
_cell_angle_alpha 90.000000
_cell_angle_beta 90.000000
_cell_angle_gamma 90.000000
_cell_volume 6233.502035
_symmetry_space_group_name_H-M "I M M A"
_symmetry_group_IT_number 74
_symmetry_cell_setting 'orthorhombic'
loop_
_space_group_symop_operation_xyz
x,y,z
-x,1/2-y,z
x,-y,-z
-x,1/2+y,-z
-x,-y,-z
x,1/2+y,-z
-x,y,z
x,1/2-y,z
1/2+x,1/2+y,1/2+z
1/2-x,-y,1/2+z
1/2+x,1/2-y,1/2-z
1/2-x,y,1/2-z
1/2-x,1/2-y,1/2-z
1/2+x,y,1/2-z
1/2-x,1/2+y,1/2+z
1/2+x,-y,1/2+z
loop_
_atom_site_type_symbol
_atom_site_label
_atom_site_fract_x
_atom_site_fract_y
_atom_site_fract_z
Si Si1 0.094050 0.335046 0.228776
Si Si2 0.500000 0.750000 0.680594
Si Si3 0.929192 0.014199 0.652166
Si Si4 0.569777 0.099605 0.663467
Si Si5 0.293290 0.193900 0.436864
Si Si6 0.335001 0.307294 0.027215
Si Si7 0.638609 0.195158 0.708744
Si Si8 0.566607 0.561539 0.624943
O O1 0.154387 0.330293 0.144758
O O2 0.112556 0.329866 0.387561
O O3 0.067807 0.386697 0.197241
O O4 0.050874 0.292405 0.186257
O O5 0.914358 0.067580 0.704286
O O6 0.000000 0.011385 0.649844
O O7 0.908939 0.000000 0.500000
O O8 0.907957 0.977145 0.769551
O O9 0.500000 0.102189 0.654418
O O10 0.594100 0.153252 0.669767
O O11 0.591424 0.071451 0.526960
O O12 0.293558 0.250000 0.395427
O O13 0.227988 0.175168 0.421360
O O14 0.309835 0.192312 0.598120
O O15 0.337164 0.250000 0.053875
O O16 0.341151 0.313134 0.864297
O O17 0.614783 0.250000 0.698948
O O18 0.500000 0.546186 0.602297
#
# Coordination Sequence:
#
# PCOD9536741 Si02
#       8
#    16   4  16  16  16  16  16  16
#     4  12  21  35  54  82 117 156 191 229 286 339
#     4  12  24  36  50  86 128 164 186 222 286 360
#     4   9  19  35  56  81 106 144 193 242 280 334
#     4  10  20  36  54  80 115 153 189 229 286 349
#     4  10  19  36  58  78 106 149 205 244 268 322
#     4  10  21  36  54  78 110 153 200 243 278 321
#     4  10  21  36  53  84 116 148 188 234 292 336
#     4  10  20  34  53  80 111 150 189 233 282 335
#
# _framework density 18.609121999999999
#
# number of rings (size 3 to 8) (size 9 to 14) (size 15 to 20)
#    0.000    1.793    3.448    1.241    1.931    4.690 
#    1.241    0.000    0.000    0.000    0.000    5.793 
#    0.000    0.000    0.000    0.000    0.000    0.000 
#
# Total GULP energy -322938.254029 kJ/mol
# GULP energy per Si atom -5567.900932 kJ/mol
# Density = 1.856677 g / cm^3
# Si number density = 18.609122 Si / 1000 Ang^3
#
#
#
# Elastic Constant Matrix: (Units=GPa)
#
#
# Indices 1 2 3 4 5 6 
#
# 1 39.1985 17.4651 20.6166 0.0000 0.0000 0.0000
# 2 17.4651 91.1264 26.2207 0.0000 0.0000 0.0000
# 3 20.6166 26.2207 100.2463 0.0000 0.0000 0.0000
# 4 0.0000 0.0000 0.0000 28.9261 0.0000 0.0000
# 5 0.0000 0.0000 0.0000 0.0000 15.0852 0.0000
# 6 0.0000 0.0000 0.0000 0.0000 0.0000 8.2142
#
#
#
# Elastic Compliance Matrix: (Units=1/GPa)
#
#
# Indices 1 2 3 4 5 6 
#
# 1 0.030094 -0.004311 -0.005061 0.000000 0.000000 0.000000
# 2 -0.004311 0.012485 -0.002379 0.000000 0.000000 0.000000
# 3 -0.005061 -0.002379 0.011639 0.000000 0.000000 0.000000
# 4 0.000000 0.000000 0.000000 0.034571 0.000000 0.000000
# 5 0.000000 0.000000 0.000000 0.000000 0.066290 0.000000
# 6 0.000000 0.000000 0.000000 0.000000 0.000000 0.121741
#
#
# Mechanical properties :
#
#
# Convention : Reuss Voigt Hill
#
# Bulk Modulus (GPa) = 32.55842 39.90844 36.23343
# Shear Modulus (GPa) = 16.09991 21.52968 18.81479
#
# Velocity S-wave (km/s) = 2.94455 3.40508 3.18315
# Velocity P-wave (km/s) = 5.39393 6.07878 5.74657
#
# Compressibility (1/GPa) = 0.03071402
#
# Stress axis : x y z
#
# Youngs Moduli (GPa) = 33.22890 80.09894 85.92114
#
# Poissons Ratio (x) = 0.34534 0.43489
# Poissons Ratio (y) = 0.14326 0.20439
# Poissons Ratio (z) = 0.16819 0.19054
#
# Static dielectric constant tensor:
#      x y z
#    x 1.624240 0.000000 0.000000 
#    y 0.000000 1.636930 0.000000 
#    z 0.000000 0.000000 1.707300 
# 
# From -- ./inp_files/14193.got.cif
#   From: 2010.05.17/outbox.cif.g08.bks.cpg/sg74_8_cif.got.tgz:14193.got - 2010.06.03 17:57:02.
