data_PCOD9536796
_publ_section_title
;
Structure prediction by ZEFSAII (Michael W. Deem and Ramdas Pophale) SiO2 
 PCOD9536796
Probable space group: I M M A
;
_chemical_formula_sum "Si O2"
_cell_formula_units_Z 96
_cell_length_a 15.511327
_cell_length_b 15.319343
_cell_length_c 18.657639
_cell_angle_alpha 90.000000
_cell_angle_beta 90.000000
_cell_angle_gamma 90.000000
_cell_volume 4433.490471
_symmetry_space_group_name_H-M "I M M A"
_symmetry_group_IT_number 74
_symmetry_cell_setting 'orthorhombic'
loop_
_space_group_symop_operation_xyz
x,y,z
-x,1/2-y,z
x,-y,-z
-x,1/2+y,-z
-x,-y,-z
x,1/2+y,-z
-x,y,z
x,1/2-y,z
1/2+x,1/2+y,1/2+z
1/2-x,-y,1/2+z
1/2+x,1/2-y,1/2-z
1/2-x,y,1/2-z
1/2-x,1/2-y,1/2-z
1/2+x,y,1/2-z
1/2-x,1/2+y,1/2+z
1/2+x,-y,1/2+z
loop_
_atom_site_type_symbol
_atom_site_label
_atom_site_fract_x
_atom_site_fract_y
_atom_site_fract_z
Si Si1 0.632262 0.584043 0.909676
Si Si2 0.901414 0.847349 0.743336
Si Si3 0.402830 0.651557 0.525532
Si Si4 0.095470 0.617820 0.429894
Si Si5 0.322454 0.537360 0.641112
Si Si6 0.213934 0.345347 0.885032
O O1 0.598505 0.634599 0.841037
O O2 0.595538 0.486203 0.915315
O O3 0.733210 0.569265 0.894315
O O4 0.611672 0.629221 0.984940
O O5 0.869446 0.750000 0.757489
O O6 0.843776 0.916244 0.784786
O O7 0.000000 0.854268 0.769265
O O8 0.500000 0.646003 0.495457
O O9 0.394305 0.750000 0.558082
O O10 0.389982 0.575437 0.583305
O O11 0.331617 0.646491 0.463164
O O12 0.182312 0.651616 0.392418
O O13 0.000000 0.650757 0.410652
O O14 0.317364 0.433784 0.652440
O O15 0.189006 0.250000 0.855520
#
# Coordination Sequence:
#
# PCOD9536796 Si02
#       6
#    16  16  16  16  16  16
#     4  10  20  36  58  88 121 158 200 244 294 359
#     4  11  24  39  57  87 124 162 204 246 299 370
#     4  10  20  35  57  85 117 154 199 252 306 363
#     4  10  19  36  63  89 120 160 200 247 301 357
#     4  11  21  36  58  82 118 165 200 243 303 360
#     4  10  22  38  57  87 119 153 207 259 301 354
#
# _framework density 21.653369000000001
#
# number of rings (size 3 to 8) (size 9 to 14) (size 15 to 20)
#    0.000    1.667    1.667    4.000    0.000    6.333 
#    0.000    0.000    0.000    8.000    0.000    0.000 
#    0.000    0.000    0.000    0.000    0.000    0.000 
#
# Total GULP energy -268102.023792 kJ/mol
# GULP energy per Si atom -5585.458829 kJ/mol
# Density = 2.160408 g / cm^3
# Si number density = 21.653369 Si / 1000 Ang^3
#
#
#
# Elastic Constant Matrix: (Units=GPa)
#
#
# Indices 1 2 3 4 5 6 
#
# 1 101.2647 33.3303 11.6255 0.0000 0.0000 0.0000
# 2 33.3303 161.9508 39.9226 0.0000 0.0000 0.0000
# 3 11.6255 39.9226 45.6688 0.0000 0.0000 0.0000
# 4 0.0000 0.0000 0.0000 2.3743 0.0000 0.0000
# 5 0.0000 0.0000 0.0000 0.0000 34.2323 0.0000
# 6 0.0000 0.0000 0.0000 0.0000 0.0000 -11.3744
#
#
#
# Elastic Compliance Matrix: (Units=1/GPa)
#
#
# Indices 1 2 3 4 5 6 
#
# 1 0.010629 -0.001938 -0.001011 0.000000 0.000000 0.000000
# 2 -0.001938 0.008224 -0.006696 0.000000 0.000000 0.000000
# 3 -0.001011 -0.006696 0.028008 0.000000 0.000000 0.000000
# 4 0.000000 0.000000 0.000000 0.421172 0.000000 0.000000
# 5 0.000000 0.000000 0.000000 0.000000 0.029212 0.000000
# 6 0.000000 0.000000 0.000000 0.000000 0.000000 -0.087917
#
#
# Mechanical properties :
#
#
# Convention : Reuss Voigt Hill
#
# Bulk Modulus (GPa) = 36.27160 53.18235 44.72698
# Shear Modulus (GPa) = 11.42047 19.98017 15.70032
#
# Velocity S-wave (km/s) = 2.29906 3.04094 2.69564
# Velocity P-wave (km/s) = 4.88210 6.07814 5.51266
#
# Compressibility (1/GPa) = 0.02756978
#
# Stress axis : x y z
#
# Youngs Moduli (GPa) = 94.08073 121.59154 35.70438
#
# Poissons Ratio (x) = 0.23567 0.03611
# Poissons Ratio (y) = 0.18235 0.23908
# Poissons Ratio (z) = 0.09516 0.81418
#
# Static dielectric constant tensor:
#      x y z
#    x 1.819270 0.000000 0.000000 
#    y 0.000000 1.802790 0.000000 
#    z 0.000000 0.000000 1.764200 
# 
# From -- ./inp_files/51869.got.cif
#   From: 2010.05.17/outbox.cif.g08.bks.cpg/sg74_26_cif.got.tgz:51869.got - 2010.06.03 17:57:02.
