data_PCOD9536031
_publ_section_title
;
Structure prediction by ZEFSAII (Michael W. Deem and Ramdas Pophale) SiO2 
 PCOD9536031
Probable space group: I M M A
;
_chemical_formula_sum "Si O2"
_cell_formula_units_Z 104
_cell_length_a 8.715008
_cell_length_b 20.167452
_cell_length_c 33.709814
_cell_angle_alpha 90.000000
_cell_angle_beta 90.000000
_cell_angle_gamma 90.000000
_cell_volume 5924.820240
_symmetry_space_group_name_H-M "I M M A"
_symmetry_group_IT_number 74
_symmetry_cell_setting 'orthorhombic'
loop_
_space_group_symop_operation_xyz
x,y,z
-x,1/2-y,z
x,-y,-z
-x,1/2+y,-z
-x,-y,-z
x,1/2+y,-z
-x,y,z
x,1/2-y,z
1/2+x,1/2+y,1/2+z
1/2-x,-y,1/2+z
1/2+x,1/2-y,1/2-z
1/2-x,y,1/2-z
1/2-x,1/2-y,1/2-z
1/2+x,y,1/2-z
1/2-x,1/2+y,1/2+z
1/2+x,-y,1/2+z
loop_
_atom_site_type_symbol
_atom_site_label
_atom_site_fract_x
_atom_site_fract_y
_atom_site_fract_z
Si Si1 0.316654 0.477772 0.207280
Si Si2 0.684042 0.075488 0.993486
Si Si3 0.315306 0.077338 0.373345
Si Si4 0.314287 0.673014 0.936085
Si Si5 0.820034 0.060467 0.911928
Si Si6 0.182607 0.250000 0.706088
Si Si7 0.319122 0.614136 0.324355
O O1 0.500000 0.475568 0.207854
O O2 0.250000 0.457464 0.250000
O O3 0.252992 0.434733 0.170348
O O4 0.260002 0.552811 0.198187
O O5 0.500000 0.074109 0.995954
O O6 0.737620 0.127316 0.026773
O O7 0.732700 0.091620 0.948797
O O8 0.741458 0.000000 0.000000
O O9 0.500000 0.075827 0.370668
O O10 0.256319 0.141597 0.396329
O O11 0.266129 0.013903 0.400409
O O12 0.500000 0.668944 0.933694
O O13 0.272822 0.750000 0.941328
O O14 0.803954 0.100271 0.871141
O O15 0.000000 0.056642 0.921960
O O16 0.250000 0.250000 0.750000
O O17 0.244177 0.316411 0.685848
O O18 0.000000 0.250000 0.706923
O O19 0.500000 0.613975 0.314311
#
# Coordination Sequence:
#
# PCOD9536031 Si02
#       7
#    16  16  16  16  16   8  16
#     4  11  21  35  57  85 114 142 179 226 277 330
#     4  10  19  32  54  81 109 144 186 230 275 327
#     4  10  20  35  56  82 110 142 182 225 275 329
#     4  10  21  37  55  79 112 148 186 229 280 333
#     4   9  19  34  54  78 105 139 179 227 278 326
#     4  12  24  38  56  78 104 146 192 234 286 342
#     4  10  21  38  55  77 110 146 186 233 283 335
#
# _framework density 17.553273999999998
#
# number of rings (size 3 to 8) (size 9 to 14) (size 15 to 20)
#    0.000    1.846    1.538    4.385    0.000    4.308 
#    1.385    0.000    0.000    0.462    0.000    0.000 
#    0.000    0.000    0.000    0.000    0.000    0.000 
#
# Total GULP energy -290284.801795 kJ/mol
# GULP energy per Si atom -5582.400035 kJ/mol
# Density = 1.751332 g / cm^3
# Si number density = 17.553274 Si / 1000 Ang^3
#
#
#
# Elastic Constant Matrix: (Units=GPa)
#
#
# Indices 1 2 3 4 5 6 
#
# 1 74.4462 45.5952 48.0113 0.0000 0.0000 0.0000
# 2 45.5952 111.8625 59.8174 0.0000 0.0000 0.0000
# 3 48.0113 59.8174 117.7589 0.0000 0.0000 0.0000
# 4 0.0000 0.0000 0.0000 15.7827 0.0000 0.0000
# 5 0.0000 0.0000 0.0000 0.0000 33.9892 0.0000
# 6 0.0000 0.0000 0.0000 0.0000 0.0000 21.7737
#
#
#
# Elastic Compliance Matrix: (Units=1/GPa)
#
#
# Indices 1 2 3 4 5 6 
#
# 1 0.020263 -0.005274 -0.005582 0.000000 0.000000 0.000000
# 2 -0.005274 0.013646 -0.004781 0.000000 0.000000 0.000000
# 3 -0.005582 -0.004781 0.013197 0.000000 0.000000 0.000000
# 4 0.000000 0.000000 0.000000 0.063360 0.000000 0.000000
# 5 0.000000 0.000000 0.000000 0.000000 0.029421 0.000000
# 6 0.000000 0.000000 0.000000 0.000000 0.000000 0.045927
#
#
# Mechanical properties :
#
#
# Convention : Reuss Voigt Hill
#
# Bulk Modulus (GPa) = 63.17130 67.87948 65.52539
# Shear Modulus (GPa) = 22.48545 24.35205 23.41875
#
# Velocity S-wave (km/s) = 3.58297 3.72872 3.65657
# Velocity P-wave (km/s) = 7.29269 7.56917 7.43221
#
# Compressibility (1/GPa) = 0.01582997
#
# Stress axis : x y z
#
# Youngs Moduli (GPa) = 49.35173 73.28110 75.77667
#
# Poissons Ratio (x) = 0.38649 0.42300
# Poissons Ratio (y) = 0.26028 0.36232
# Poissons Ratio (z) = 0.27549 0.35039
#
# Static dielectric constant tensor:
#      x y z
#    x 1.591910 0.000000 0.000000 
#    y 0.000000 1.583060 0.000000 
#    z 0.000000 0.000000 1.595250 
# 
# From -- ./inp_files/70629.got.cif
#   From: 2010.05.17/outbox.cif.g08.bks.cpg/sg74_36_cif.got.tgz:70629.got - 2010.06.03 17:57:02.
