data_PCOD9536545
_publ_section_title
;
Structure prediction by ZEFSAII (Michael W. Deem and Ramdas Pophale) SiO2 
 PCOD9536545
Probable space group: I M M A
;
_chemical_formula_sum "Si O2"
_cell_formula_units_Z 96
_cell_length_a 14.536516
_cell_length_b 21.587025
_cell_length_c 16.025909
_cell_angle_alpha 90.000000
_cell_angle_beta 90.000000
_cell_angle_gamma 90.000000
_cell_volume 5028.932397
_symmetry_space_group_name_H-M "I M M A"
_symmetry_group_IT_number 74
_symmetry_cell_setting 'orthorhombic'
loop_
_space_group_symop_operation_xyz
x,y,z
-x,1/2-y,z
x,-y,-z
-x,1/2+y,-z
-x,-y,-z
x,1/2+y,-z
-x,y,z
x,1/2-y,z
1/2+x,1/2+y,1/2+z
1/2-x,-y,1/2+z
1/2+x,1/2-y,1/2-z
1/2-x,y,1/2-z
1/2-x,1/2-y,1/2-z
1/2+x,y,1/2-z
1/2-x,1/2+y,1/2+z
1/2+x,-y,1/2+z
loop_
_atom_site_type_symbol
_atom_site_label
_atom_site_fract_x
_atom_site_fract_y
_atom_site_fract_z
Si Si1 0.611684 0.627487 0.991896
Si Si2 0.647057 0.250000 0.722375
Si Si3 0.395174 0.750000 0.086215
Si Si4 0.889176 0.957777 0.356919
Si Si5 0.605492 0.506437 0.598655
Si Si6 0.226209 0.582378 0.658719
Si Si7 0.109832 0.885467 0.195330
O O1 0.500000 0.628145 0.978352
O O2 0.668743 0.623107 0.906781
O O3 0.642516 0.687059 0.046211
O O4 0.630648 0.567932 0.050836
O O5 0.750000 0.250000 0.750000
O O6 0.599502 0.250000 0.813499
O O7 0.631685 0.314536 0.675759
O O8 0.500000 0.750000 0.056992
O O9 0.862888 0.904967 0.289331
O O10 0.000000 0.967166 0.351648
O O11 0.836217 0.020043 0.333180
O O12 0.602420 0.500000 0.500000
O O13 0.500000 0.517265 0.628791
O O14 0.676458 0.559685 0.622204
O O15 0.641592 0.441357 0.636713
O O16 0.250000 0.608433 0.750000
O O17 0.000000 0.888120 0.192892
#
# Coordination Sequence:
#
# PCOD9536545 Si02
#       7
#    16   8   8  16  16  16  16
#     4  10  21  37  61  89 114 150 192 240 302 362
#     4  12  24  30  54  89 124 157 190 231 287 357
#     4  10  20  40  61  81 118 157 190 237 307 370
#     4  10  19  34  58  84 116 147 185 238 293 353
#     4  10  22  38  56  75 107 159 202 234 279 342
#     4  12  23  34  55  82 118 147 186 243 296 342
#     4  10  20  36  55  79 113 154 194 233 284 347
#
# _framework density 19.089538999999998
#
# number of rings (size 3 to 8) (size 9 to 14) (size 15 to 20)
#    0.000    1.500    3.333    2.750    2.333    3.333 
#    0.000    0.417    0.000    0.000    0.000    0.583 
#    0.000    0.000    0.000    0.000    0.000    0.000 
#
# Total GULP energy -267811.480671 kJ/mol
# GULP energy per Si atom -5579.405847 kJ/mol
# Density = 1.904609 g / cm^3
# Si number density = 19.089539 Si / 1000 Ang^3
#
#
#
# Elastic Constant Matrix: (Units=GPa)
#
#
# Indices 1 2 3 4 5 6 
#
# 1 60.9958 4.7265 19.9324 0.0001 0.0000 0.0000
# 2 4.7265 51.7881 10.7569 0.0003 0.0000 0.0000
# 3 19.9324 10.7569 85.9807 0.0004 0.0000 0.0000
# 4 0.0001 0.0003 0.0004 23.3100 0.0000 0.0000
# 5 0.0000 0.0000 0.0000 0.0000 29.2908 0.0000
# 6 0.0000 0.0000 0.0000 0.0000 0.0000 12.3493
#
#
#
# Elastic Compliance Matrix: (Units=1/GPa)
#
#
# Indices 1 2 3 4 5 6 
#
# 1 0.017770 -0.000787 -0.004021 0.000000 0.000000 0.000000
# 2 -0.000787 0.019859 -0.002302 0.000000 0.000000 0.000000
# 3 -0.004021 -0.002302 0.012851 0.000000 0.000000 0.000000
# 4 0.000000 0.000000 0.000000 0.042900 0.000000 0.000000
# 5 0.000000 0.000000 0.000000 0.000000 0.034140 0.000000
# 6 0.000000 0.000000 0.000000 0.000000 0.000000 0.080976
#
#
# Mechanical properties :
#
#
# Convention : Reuss Voigt Hill
#
# Bulk Modulus (GPa) = 27.57852 29.95513 28.76682
# Shear Modulus (GPa) = 21.29449 23.87995 22.58722
#
# Velocity S-wave (km/s) = 3.34354 3.54071 3.44354
# Velocity P-wave (km/s) = 5.42070 5.69574 5.55992
#
# Compressibility (1/GPa) = 0.03626011
#
# Stress axis : x y z
#
# Youngs Moduli (GPa) = 56.27611 50.35386 77.81669
#
# Poissons Ratio (x) = 0.03961 0.31290
# Poissons Ratio (y) = 0.04426 0.17915
# Poissons Ratio (z) = 0.22629 0.11593
#
# Static dielectric constant tensor:
#      x y z
#    x 1.697840 0.000000 0.000000 
#    y 0.000000 1.441330 0.000010 
#    z 0.000000 0.000010 3.704620 
# 
# From -- ./inp_files/32419.got.cif
#   From: 2010.05.17/outbox.cif.g08.bks.cpg/sg74_17_cif.got.tgz:32419.got - 2010.06.03 17:57:02.
