data_PCOD9536095
_publ_section_title
;
Structure prediction by ZEFSAII (Michael W. Deem and Ramdas Pophale) SiO2 
 PCOD9536095
Probable space group: I M M A
;
_chemical_formula_sum "Si O2"
_cell_formula_units_Z 104
_cell_length_a 9.134581
_cell_length_b 28.095138
_cell_length_c 23.987495
_cell_angle_alpha 90.000000
_cell_angle_beta 90.000000
_cell_angle_gamma 90.000000
_cell_volume 6156.086281
_symmetry_space_group_name_H-M "I M M A"
_symmetry_group_IT_number 74
_symmetry_cell_setting 'orthorhombic'
loop_
_space_group_symop_operation_xyz
x,y,z
-x,1/2-y,z
x,-y,-z
-x,1/2+y,-z
-x,-y,-z
x,1/2+y,-z
-x,y,z
x,1/2-y,z
1/2+x,1/2+y,1/2+z
1/2-x,-y,1/2+z
1/2+x,1/2-y,1/2-z
1/2-x,y,1/2-z
1/2-x,1/2-y,1/2-z
1/2+x,y,1/2-z
1/2-x,1/2+y,1/2+z
1/2+x,-y,1/2+z
loop_
_atom_site_type_symbol
_atom_site_label
_atom_site_fract_x
_atom_site_fract_y
_atom_site_fract_z
Si Si1 0.171423 0.556567 0.992998
Si Si2 0.171714 0.384133 0.585554
Si Si3 0.324497 0.305474 0.189620
Si Si4 0.673518 0.750000 0.309273
Si Si5 0.831631 0.694065 0.018769
Si Si6 0.325290 0.144541 0.689707
Si Si7 0.830289 0.365537 0.094521
O O1 0.210504 0.583627 0.934714
O O2 0.000000 0.570229 0.002370
O O3 0.180238 0.500000 0.000000
O O4 0.272450 0.577931 0.040868
O O5 0.219858 0.334891 0.556359
O O6 0.257537 0.389458 0.643491
O O7 0.000000 0.386027 0.594963
O O8 0.500000 0.309528 0.194239
O O9 0.291090 0.250000 0.173254
O O10 0.250000 0.313153 0.250000
O O11 0.263931 0.343036 0.144329
O O12 0.500000 0.750000 0.301888
O O13 0.750000 0.750000 0.250000
O O14 0.709180 0.698299 0.332831
O O15 0.804070 0.750000 0.018161
O O16 0.000000 0.686607 0.039029
O O17 0.823068 0.671605 0.957119
O O18 0.500000 0.139638 0.694672
O O19 0.250000 0.139417 0.750000
O O20 0.000000 0.368810 0.112661
#
# Coordination Sequence:
#
# PCOD9536095 Si02
#       7
#    16  16  16   8  16  16  16
#     4   9  19  38  61  80  99 129 169 213 263 317
#     4  11  22  33  48  75 105 133 167 208 257 310
#     4  10  20  32  48  73 107 147 184 214 246 294
#     4   8  16  28  44  64  88 124 166 204 237 276
#     4   9  18  32  49  69  98 137 175 210 250 298
#     4  10  19  33  50  70  97 133 173 211 251 295
#     4   9  17  31  52  77 102 130 166 210 258 306
#
# _framework density 16.893851000000002
#
# number of rings (size 3 to 8) (size 9 to 14) (size 15 to 20)
#    0.000    2.462    0.000    3.692    1.077    5.231 
#    0.000    0.000    0.000    0.923    0.000    4.308 
#    0.000    0.000    0.000    0.000    0.000    0.000 
#
# Total GULP energy -289654.162865 kJ/mol
# GULP energy per Si atom -5570.272363 kJ/mol
# Density = 1.685540 g / cm^3
# Si number density = 16.893851 Si / 1000 Ang^3
#
#
#
# Elastic Constant Matrix: (Units=GPa)
#
#
# Indices 1 2 3 4 5 6 
#
# 1 76.5267 32.8379 54.9360 0.0000 0.0000 0.0000
# 2 32.8379 85.1087 33.2449 0.0000 0.0000 0.0000
# 3 54.9360 33.2449 91.2961 0.0000 0.0000 0.0000
# 4 0.0000 0.0000 0.0000 16.6675 0.0000 0.0000
# 5 0.0000 0.0000 0.0000 0.0000 29.4330 0.0000
# 6 0.0000 0.0000 0.0000 0.0000 0.0000 17.2146
#
#
#
# Elastic Compliance Matrix: (Units=1/GPa)
#
#
# Indices 1 2 3 4 5 6 
#
# 1 0.024264 -0.004265 -0.013047 0.000000 0.000000 0.000000
# 2 -0.004265 0.014448 -0.002695 0.000000 0.000000 0.000000
# 3 -0.013047 -0.002695 0.019785 0.000000 0.000000 0.000000
# 4 0.000000 0.000000 0.000000 0.059997 0.000000 0.000000
# 5 0.000000 0.000000 0.000000 0.000000 0.033975 0.000000
# 6 0.000000 0.000000 0.000000 0.000000 0.000000 0.058090
#
#
# Mechanical properties :
#
#
# Convention : Reuss Voigt Hill
#
# Bulk Modulus (GPa) = 54.10335 54.99656 54.54995
# Shear Modulus (GPa) = 19.47537 21.45721 20.46629
#
# Velocity S-wave (km/s) = 3.39899 3.56774 3.48438
# Velocity P-wave (km/s) = 6.89196 7.04248 6.96763
#
# Compressibility (1/GPa) = 0.01848314
#
# Stress axis : x y z
#
# Youngs Moduli (GPa) = 41.21384 69.21404 50.54226
#
# Poissons Ratio (x) = 0.29522 0.65943
# Poissons Ratio (y) = 0.17579 0.13619
# Poissons Ratio (z) = 0.53772 0.18650
#
# Static dielectric constant tensor:
#      x y z
#    x 1.565120 0.000000 0.000000 
#    y 0.000000 1.595720 0.000000 
#    z 0.000000 0.000000 1.566250 
# 
# From -- ./inp_files/57828.got.cif
#   From: 2010.05.17/outbox.cif.g08.bks.cpg/sg74_29_cif.got.tgz:57828.got - 2010.06.03 17:57:02.
