data_PCOD9536169
_publ_section_title
;
Structure prediction by ZEFSAII (Michael W. Deem and Ramdas Pophale) SiO2 
 PCOD9536169
Probable space group: I M M A
;
_chemical_formula_sum "Si O2"
_cell_formula_units_Z 64
_cell_length_a 19.547855
_cell_length_b 8.611954
_cell_length_c 23.723363
_cell_angle_alpha 90.000000
_cell_angle_beta 90.000000
_cell_angle_gamma 90.000000
_cell_volume 3993.714955
_symmetry_space_group_name_H-M "I M M A"
_symmetry_group_IT_number 74
_symmetry_cell_setting 'orthorhombic'
loop_
_space_group_symop_operation_xyz
x,y,z
-x,1/2-y,z
x,-y,-z
-x,1/2+y,-z
-x,-y,-z
x,1/2+y,-z
-x,y,z
x,1/2-y,z
1/2+x,1/2+y,1/2+z
1/2-x,-y,1/2+z
1/2+x,1/2-y,1/2-z
1/2-x,y,1/2-z
1/2-x,1/2-y,1/2-z
1/2+x,y,1/2-z
1/2-x,1/2+y,1/2+z
1/2+x,-y,1/2+z
loop_
_atom_site_type_symbol
_atom_site_label
_atom_site_fract_x
_atom_site_fract_y
_atom_site_fract_z
Si Si1 0.225888 0.935163 0.836499
Si Si2 0.650021 0.564151 0.226096
Si Si3 0.859782 0.435670 0.937332
Si Si4 0.000000 0.936628 0.241787
Si Si5 0.000000 0.935290 0.884609
O O1 0.219187 0.750000 0.835078
O O2 0.302917 0.985009 0.820989
O O3 0.179912 0.007325 0.786172
O O4 0.197801 0.001362 0.894808
O O5 0.658154 0.750000 0.222685
O O6 0.569868 0.525286 0.225748
O O7 0.859743 0.250000 0.937425
O O8 0.932406 0.495781 0.913513
O O9 0.850094 0.500000 0.000000
O O10 0.000000 0.750000 0.231571
O O11 0.000000 0.018505 0.181120
O O12 0.000000 0.750000 0.890447
#
# Coordination Sequence:
#
# PCOD9536169 Si02
#       5
#    16  16  16   8   8
#     4  11  21  34  51  76 104 136 176 219 262 309
#     4  10  19  33  53  76 104 139 174 215 264 313
#     4  12  24  39  55  74 103 140 181 220 261 309
#     4  10  20  33  53  78 107 141 177 213 260 313
#     4  12  23  35  52  76 107 141 179 217 256 305
#
# _framework density 16.025179000000001
#
# number of rings (size 3 to 8) (size 9 to 14) (size 15 to 20)
#    0.000    1.000    2.500    8.250    0.000    1.000 
#    0.000    0.000    0.000    0.000    0.000    0.875 
#    0.000    0.000    0.000    0.000    0.000    0.000 
#
# Total GULP energy -178859.939246 kJ/mol
# GULP energy per Si atom -5589.373101 kJ/mol
# Density = 1.598871 g / cm^3
# Si number density = 16.025179 Si / 1000 Ang^3
#
#
#
# Elastic Constant Matrix: (Units=GPa)
#
#
# Indices 1 2 3 4 5 6 
#
# 1 126.7165 39.0473 63.3871 0.0000 0.0000 0.0000
# 2 39.0473 94.3147 33.6949 0.0000 0.0000 0.0000
# 3 63.3871 33.6949 96.7026 0.0000 0.0000 0.0000
# 4 0.0000 0.0000 0.0000 27.4204 0.0000 0.0000
# 5 0.0000 0.0000 0.0000 0.0000 12.7902 0.0000
# 6 0.0000 0.0000 0.0000 0.0000 0.0000 -19.9162
#
#
#
# Elastic Compliance Matrix: (Units=1/GPa)
#
#
# Indices 1 2 3 4 5 6 
#
# 1 0.012242 -0.002515 -0.007149 0.000000 0.000000 0.000000
# 2 -0.002515 0.012627 -0.002751 0.000000 0.000000 0.000000
# 3 -0.007149 -0.002751 0.015985 0.000000 0.000000 0.000000
# 4 0.000000 0.000000 0.000000 0.036469 0.000000 0.000000
# 5 0.000000 0.000000 0.000000 0.000000 0.078185 0.000000
# 6 0.000000 0.000000 0.000000 0.000000 0.000000 -0.050210
#
#
# Mechanical properties :
#
#
# Convention : Reuss Voigt Hill
#
# Bulk Modulus (GPa) = 62.40007 65.55472 63.97739
# Shear Modulus (GPa) = 36.90877 16.16585 26.53731
#
# Velocity S-wave (km/s) = 4.80435 3.17957 4.07378
# Velocity P-wave (km/s) = 8.35458 7.38077 7.88272
#
# Compressibility (1/GPa) = 0.01602562
#
# Stress axis : x y z
#
# Youngs Moduli (GPa) = 81.68340 79.19644 62.55692
#
# Poissons Ratio (x) = 0.19915 0.44719
# Poissons Ratio (y) = 0.20540 0.17212
# Poissons Ratio (z) = 0.58392 0.21790
#
# Static dielectric constant tensor:
#      x y z
#    x 1.548340 0.000000 0.000000 
#    y 0.000000 1.534190 0.000000 
#    z 0.000000 0.000000 1.504090 
# 
# From -- ./inp_files/39132.got.cif
#   From: 2010.05.17/outbox.cif.g08.bks.cpg/sg74_20_cif.got.tgz:39132.got - 2010.06.03 17:57:02.
