data_PCOD9536198
_publ_section_title
;
Structure prediction by ZEFSAII (Michael W. Deem and Ramdas Pophale) SiO2 
 PCOD9536198
Probable space group: I M M A
;
_chemical_formula_sum "Si O2"
_cell_formula_units_Z 96
_cell_length_a 24.455474
_cell_length_b 19.745462
_cell_length_c 11.631877
_cell_angle_alpha 90.000000
_cell_angle_beta 90.000000
_cell_angle_gamma 90.000000
_cell_volume 5616.854651
_symmetry_space_group_name_H-M "I M M A"
_symmetry_group_IT_number 74
_symmetry_cell_setting 'orthorhombic'
loop_
_space_group_symop_operation_xyz
x,y,z
-x,1/2-y,z
x,-y,-z
-x,1/2+y,-z
-x,-y,-z
x,1/2+y,-z
-x,y,z
x,1/2-y,z
1/2+x,1/2+y,1/2+z
1/2-x,-y,1/2+z
1/2+x,1/2-y,1/2-z
1/2-x,y,1/2-z
1/2-x,1/2-y,1/2-z
1/2+x,y,1/2-z
1/2-x,1/2+y,1/2+z
1/2+x,-y,1/2+z
loop_
_atom_site_type_symbol
_atom_site_label
_atom_site_fract_x
_atom_site_fract_y
_atom_site_fract_z
Si Si1 0.750000 0.990989 0.250000
Si Si2 0.619700 0.500000 0.000000
Si Si3 0.368624 0.326290 0.745837
Si Si4 0.350762 0.955616 0.613930
Si Si5 0.798806 0.389944 0.559265
Si Si6 0.187356 0.672127 0.998322
Si Si7 0.935289 0.536239 0.260468
O O1 0.772235 0.943526 0.351833
O O2 0.699401 0.032584 0.299333
O O3 0.658904 0.565564 0.985628
O O4 0.583832 0.513701 0.112424
O O5 0.391555 0.250000 0.746709
O O6 0.331798 0.338445 0.859000
O O7 0.331000 0.332664 0.632145
O O8 0.411468 0.387894 0.742189
O O9 0.350650 0.878218 0.574039
O O10 0.339187 0.000000 0.500000
O O11 0.404505 0.986402 0.672171
O O12 0.749514 0.354853 0.492453
O O13 0.183511 0.750000 0.963429
O O14 0.000000 0.534648 0.248211
#
# Coordination Sequence:
#
# PCOD9536198 Si02
#       7
#     8   8  16  16  16  16  16
#     4  12  18  30  58  86 116 150 182 224 278 342
#     4  10  21  36  58  84 112 146 191 242 286 328
#     4  10  19  33  53  83 119 148 182 233 295 346
#     4  12  21  37  57  87 114 151 192 233 288 334
#     4  11  16  31  53  85 115 153 182 220 281 345
#     4  11  21  33  53  85 124 153 181 227 284 353
#     4  11  23  39  60  83 109 150 202 249 285 330
#
# _framework density 17.091415999999999
#
# number of rings (size 3 to 8) (size 9 to 14) (size 15 to 20)
#    0.000    1.000    8.333    1.750    0.000    2.000 
#    0.000    0.417    0.000    1.500    0.000    0.000 
#    0.000    0.000    0.000    0.000    0.000    0.000 
#
# Total GULP energy -268023.434974 kJ/mol
# GULP energy per Si atom -5583.821562 kJ/mol
# Density = 1.705252 g / cm^3
# Si number density = 17.091416 Si / 1000 Ang^3
#
#
#
# Elastic Constant Matrix: (Units=GPa)
#
#
# Indices 1 2 3 4 5 6 
#
# 1 117.4235 56.0704 30.7962 0.0000 0.0000 0.0000
# 2 56.0704 138.6881 38.4120 0.0000 0.0000 0.0000
# 3 30.7962 38.4120 38.4031 0.0000 0.0000 0.0000
# 4 0.0000 0.0000 0.0000 22.2916 0.0000 0.0000
# 5 0.0000 0.0000 0.0000 0.0000 19.9223 0.0000
# 6 0.0000 0.0000 0.0000 0.0000 0.0000 4.9060
#
#
#
# Elastic Compliance Matrix: (Units=1/GPa)
#
#
# Indices 1 2 3 4 5 6 
#
# 1 0.011579 -0.002918 -0.006367 0.000000 0.000000 0.000000
# 2 -0.002918 0.010709 -0.008371 0.000000 0.000000 0.000000
# 3 -0.006367 -0.008371 0.039519 0.000000 0.000000 0.000000
# 4 0.000000 0.000000 0.000000 0.044860 0.000000 0.000000
# 5 0.000000 0.000000 0.000000 0.000000 0.050195 0.000000
# 6 0.000000 0.000000 0.000000 0.000000 0.000000 0.203833
#
#
# Mechanical properties :
#
#
# Convention : Reuss Voigt Hill
#
# Bulk Modulus (GPa) = 37.74417 60.56355 49.15386
# Shear Modulus (GPa) = 12.35060 20.70640 16.52850
#
# Velocity S-wave (km/s) = 2.69108 3.48445 3.11314
# Velocity P-wave (km/s) = 5.63804 7.19031 6.46096
#
# Compressibility (1/GPa) = 0.02649416
#
# Stress axis : x y z
#
# Youngs Moduli (GPa) = 86.36024 93.38223 25.30456
#
# Poissons Ratio (x) = 0.27249 0.16112
# Poissons Ratio (y) = 0.25200 0.21183
# Poissons Ratio (z) = 0.54986 0.78172
#
# Static dielectric constant tensor:
#      x y z
#    x 1.568870 0.000000 0.000000 
#    y 0.000000 1.587670 0.000000 
#    z 0.000000 0.000000 1.588210 
# 
# From -- ./inp_files/25205.got.cif
#   From: 2010.05.17/outbox.cif.g08.bks.cpg/sg74_13_cif.got.tgz:25205.got - 2010.06.03 17:57:02.
