data_PCOD9536363
_publ_section_title
;
Structure prediction by ZEFSAII (Michael W. Deem and Ramdas Pophale) SiO2 
 PCOD9536363
Probable space group: I M M A
;
_chemical_formula_sum "Si O2"
_cell_formula_units_Z 88
_cell_length_a 7.536460
_cell_length_b 29.344259
_cell_length_c 19.484638
_cell_angle_alpha 90.000000
_cell_angle_beta 90.000000
_cell_angle_gamma 90.000000
_cell_volume 4309.063432
_symmetry_space_group_name_H-M "I M M A"
_symmetry_group_IT_number 74
_symmetry_cell_setting 'orthorhombic'
loop_
_space_group_symop_operation_xyz
x,y,z
-x,1/2-y,z
x,-y,-z
-x,1/2+y,-z
-x,-y,-z
x,1/2+y,-z
-x,y,z
x,1/2-y,z
1/2+x,1/2+y,1/2+z
1/2-x,-y,1/2+z
1/2+x,1/2-y,1/2-z
1/2-x,y,1/2-z
1/2-x,1/2-y,1/2-z
1/2+x,y,1/2-z
1/2-x,1/2+y,1/2+z
1/2+x,-y,1/2+z
loop_
_atom_site_type_symbol
_atom_site_label
_atom_site_fract_x
_atom_site_fract_y
_atom_site_fract_z
Si Si1 0.787081 0.123787 0.830795
Si Si2 0.707115 0.160844 0.415193
Si Si3 0.782174 0.302477 0.939269
Si Si4 0.209658 0.750000 0.669660
Si Si5 0.286170 0.925006 0.668783
Si Si6 0.712261 0.475476 0.668553
O O1 0.750000 0.129311 0.750000
O O2 0.723329 0.165528 0.876815
O O3 0.719790 0.073883 0.855377
O O4 0.000000 0.122551 0.837774
O O5 0.500000 0.150541 0.427182
O O6 0.779847 0.175619 0.488991
O O7 0.717730 0.204703 0.366151
O O8 0.783512 0.116939 0.376193
O O9 0.725600 0.250000 0.933831
O O10 0.000000 0.301785 0.940074
O O11 0.250000 0.750000 0.750000
O O12 0.000000 0.750000 0.659471
O O13 0.500000 0.925601 0.663203
O O14 0.250000 0.918734 0.750000
O O15 0.220167 0.975049 0.645151
O O16 0.500000 0.475561 0.657879
O O17 0.750000 0.475347 0.750000
#
# Coordination Sequence:
#
# PCOD9536363 Si02
#       6
#    16  16  16   8  16  16
#     4   9  17  30  50  73  96 125 160 199 243 292
#     4  10  19  34  52  70  95 130 166 199 240 290
#     4   9  17  31  51  70  93 129 165 196 244 299
#     4  12  24  36  52  74  99 128 165 206 243 278
#     4   9  17  28  46  70  95 124 159 198 239 280
#     4   8  14  26  43  67  96 122 153 194 239 285
#
# _framework density 20.422070000000001
#
# number of rings (size 3 to 8) (size 9 to 14) (size 15 to 20)
#    0.000    2.727    0.909    1.364    0.000    2.545 
#    0.000    1.818    0.000    5.455    0.000    0.000 
#    0.000   16.000    0.000    0.000    0.000    0.000 
#
# Total GULP energy -245289.474457 kJ/mol
# GULP energy per Si atom -5574.760783 kJ/mol
# Density = 2.037559 g / cm^3
# Si number density = 20.422070 Si / 1000 Ang^3
#
#
#
# Elastic Constant Matrix: (Units=GPa)
#
#
# Indices 1 2 3 4 5 6 
#
# 1 53.6434 6.3652 -5.1425 0.0000 0.0000 0.0000
# 2 6.3652 242.6046 112.7047 0.0000 0.0000 0.0000
# 3 -5.1425 112.7047 110.3123 0.0000 0.0000 0.0000
# 4 0.0000 0.0000 0.0000 -48.4489 0.0000 0.0000
# 5 0.0000 0.0000 0.0000 0.0000 10.9237 0.0000
# 6 0.0000 0.0000 0.0000 0.0000 0.0000 -11.4193
#
#
#
# Elastic Compliance Matrix: (Units=1/GPa)
#
#
# Indices 1 2 3 4 5 6 
#
# 1 0.019104 -0.001742 0.002670 0.000000 0.000000 0.000000
# 2 -0.001742 0.008005 -0.008259 0.000000 0.000000 0.000000
# 3 0.002670 -0.008259 0.017628 0.000000 0.000000 0.000000
# 4 0.000000 0.000000 0.000000 -0.020640 0.000000 0.000000
# 5 0.000000 0.000000 0.000000 0.000000 0.091544 0.000000
# 6 0.000000 0.000000 0.000000 0.000000 0.000000 -0.087571
#
#
# Mechanical properties :
#
#
# Convention : Reuss Voigt Hill
#
# Bulk Modulus (GPa) = 33.25025 70.49056 51.87040
# Shear Modulus (GPa) = 94.77498 9.71997 52.24748
#
# Velocity S-wave (km/s) = 6.81974 2.18400 5.06353
# Velocity P-wave (km/s) = 8.85035 6.39935 7.72270
#
# Compressibility (1/GPa) = 0.03007496
#
# Stress axis : x y z
#
# Youngs Moduli (GPa) = 52.34442 124.92757 56.72728
#
# Poissons Ratio (x) = 0.21757 -0.15146
# Poissons Ratio (y) = 0.09116 0.46854
# Poissons Ratio (z) = -0.13976 1.03183
#
# Static dielectric constant tensor:
#      x y z
#    x 1.778120 0.000000 0.000000 
#    y 0.000000 1.766390 0.000000 
#    z 0.000000 0.000000 1.674450 
# 
# From -- ./inp_files/40118.got.cif
#   From: 2010.05.17/outbox.cif.g08.bks.cpg/sg74_21_cif.got.tgz:40118.got - 2010.06.03 17:57:02.
