data_PCOD9536764
_publ_section_title
;
Structure prediction by ZEFSAII (Michael W. Deem and Ramdas Pophale) SiO2 
 PCOD9536764
Probable space group: I M M A
;
_chemical_formula_sum "Si O2"
_cell_formula_units_Z 72
_cell_length_a 18.238971
_cell_length_b 8.451102
_cell_length_c 24.379623
_cell_angle_alpha 90.000000
_cell_angle_beta 90.000000
_cell_angle_gamma 90.000000
_cell_volume 3757.860566
_symmetry_space_group_name_H-M "I M M A"
_symmetry_group_IT_number 74
_symmetry_cell_setting 'orthorhombic'
loop_
_space_group_symop_operation_xyz
x,y,z
-x,1/2-y,z
x,-y,-z
-x,1/2+y,-z
-x,-y,-z
x,1/2+y,-z
-x,y,z
x,1/2-y,z
1/2+x,1/2+y,1/2+z
1/2-x,-y,1/2+z
1/2+x,1/2-y,1/2-z
1/2-x,y,1/2-z
1/2-x,1/2-y,1/2-z
1/2+x,y,1/2-z
1/2-x,1/2+y,1/2+z
1/2+x,-y,1/2+z
loop_
_atom_site_type_symbol
_atom_site_label
_atom_site_fract_x
_atom_site_fract_y
_atom_site_fract_z
Si Si1 0.584029 0.943206 0.856685
Si Si2 0.164423 0.059002 0.244815
Si Si3 0.000000 0.941100 0.061600
Si Si4 0.211208 0.939428 0.562150
Si Si5 0.854949 0.439198 0.875252
O O1 0.500000 0.995780 0.862478
O O2 0.583888 0.750000 0.856807
O O3 0.619228 0.991989 0.798417
O O4 0.638294 0.994494 0.905429
O O5 0.160673 0.250000 0.241981
O O6 0.250000 0.015169 0.250000
O O7 0.137297 0.989238 0.187757
O O8 0.926448 0.995248 0.091937
O O9 0.000000 0.750000 0.062319
O O10 0.000000 0.000000 0.000000
O O11 0.210198 0.750000 0.560887
O O12 0.215017 0.000000 0.500000
O O13 0.281726 0.991641 0.597320
O O14 0.850526 0.250000 0.878817
#
# Coordination Sequence:
#
# PCOD9536764 Si02
#       5
#    16  16   8  16  16
#     4   9  19  36  58  85 119 156 193 236 286 341
#     4  10  19  36  60  87 115 150 194 237 284 342
#     4  10  24  42  58  82 118 154 193 238 287 344
#     4  11  22  39  61  86 115 150 196 242 288 345
#     4  11  23  39  59  86 118 153 192 238 293 345
#
# _framework density 19.159837
#
# number of rings (size 3 to 8) (size 9 to 14) (size 15 to 20)
#    0.000    1.778    2.222    2.000    1.556    4.444 
#    0.000    0.000    0.000    4.667    0.000    0.000 
#    0.000    0.000    0.000    0.000    0.000    0.000 
#
# Total GULP energy -201118.899555 kJ/mol
# GULP energy per Si atom -5586.636099 kJ/mol
# Density = 1.911623 g / cm^3
# Si number density = 19.159837 Si / 1000 Ang^3
#
#
#
# Elastic Constant Matrix: (Units=GPa)
#
#
# Indices 1 2 3 4 5 6 
#
# 1 122.4565 14.3410 33.0599 0.0000 0.0000 0.0000
# 2 14.3410 14.9055 12.5806 0.0000 0.0000 0.0000
# 3 33.0599 12.5806 116.4804 0.0000 0.0000 0.0000
# 4 0.0000 0.0000 0.0000 32.3469 0.0000 0.0000
# 5 0.0000 0.0000 0.0000 0.0000 34.5715 0.0000
# 6 0.0000 0.0000 0.0000 0.0000 0.0000 16.2650
#
#
#
# Elastic Compliance Matrix: (Units=1/GPa)
#
#
# Indices 1 2 3 4 5 6 
#
# 1 0.009568 -0.007607 -0.001894 0.000000 0.000000 0.000000
# 2 -0.007607 0.079867 -0.006467 0.000000 0.000000 0.000000
# 3 -0.001894 -0.006467 0.009821 0.000000 0.000000 0.000000
# 4 0.000000 0.000000 0.000000 0.030915 0.000000 0.000000
# 5 0.000000 0.000000 0.000000 0.000000 0.028926 0.000000
# 6 0.000000 0.000000 0.000000 0.000000 0.000000 0.061482
#
#
# Mechanical properties :
#
#
# Convention : Reuss Voigt Hill
#
# Bulk Modulus (GPa) = 14.85451 41.53395 28.19423
# Shear Modulus (GPa) = 18.18476 29.56075 23.87276
#
# Velocity S-wave (km/s) = 3.08410 3.93217 3.53367
# Velocity P-wave (km/s) = 4.52239 6.50697 5.60324
#
# Compressibility (1/GPa) = 0.06731960
#
# Stress axis : x y z
#
# Youngs Moduli (GPa) = 104.51039 12.52082 101.82054
#
# Poissons Ratio (x) = 0.09525 0.19286
# Poissons Ratio (y) = 0.79505 0.65847
# Poissons Ratio (z) = 0.19795 0.08097
#
# Static dielectric constant tensor:
#      x y z
#    x 1.675380 0.000000 0.000000 
#    y 0.000000 1.663700 0.000000 
#    z 0.000000 0.000000 1.637610 
# 
# From -- ./inp_files/56649.got.cif
#   From: 2010.05.17/outbox.cif.g08.bks.cpg/sg74_29_cif.got.tgz:56649.got - 2010.06.03 17:57:02.
