data_PCOD9536173
_publ_section_title
;
Structure prediction by ZEFSAII (Michael W. Deem and Ramdas Pophale) SiO2 
 PCOD9536173
Probable space group: I M M A
;
_chemical_formula_sum "Si O2"
_cell_formula_units_Z 56
_cell_length_a 8.594676
_cell_length_b 37.064811
_cell_length_c 10.115050
_cell_angle_alpha 90.000000
_cell_angle_beta 90.000000
_cell_angle_gamma 90.000000
_cell_volume 3222.250748
_symmetry_space_group_name_H-M "I M M A"
_symmetry_group_IT_number 74
_symmetry_cell_setting 'orthorhombic'
loop_
_space_group_symop_operation_xyz
x,y,z
-x,1/2-y,z
x,-y,-z
-x,1/2+y,-z
-x,-y,-z
x,1/2+y,-z
-x,y,z
x,1/2-y,z
1/2+x,1/2+y,1/2+z
1/2-x,-y,1/2+z
1/2+x,1/2-y,1/2-z
1/2-x,y,1/2-z
1/2-x,1/2-y,1/2-z
1/2+x,y,1/2-z
1/2-x,1/2+y,1/2+z
1/2+x,-y,1/2+z
loop_
_atom_site_type_symbol
_atom_site_label
_atom_site_fract_x
_atom_site_fract_y
_atom_site_fract_z
Si Si1 0.313327 0.387752 0.896804
Si Si2 0.812258 0.970304 0.395587
Si Si3 0.687184 0.250000 0.399187
Si Si4 0.187116 0.829205 0.899977
O O1 0.500000 0.386144 0.894389
O O2 0.250000 0.379570 0.750000
O O3 0.265822 0.429134 0.928818
O O4 0.249989 0.360048 0.004517
O O5 0.750000 0.978495 0.250000
O O6 0.000000 0.971174 0.392612
O O7 0.757438 0.000000 0.500000
O O8 0.500000 0.250000 0.397170
O O9 0.750000 0.250000 0.250000
O O10 0.735234 0.289184 0.453341
O O11 0.250000 0.833012 0.750000
O O12 0.000000 0.830735 0.895553
#
# Coordination Sequence:
#
# PCOD9536173 Si02
#       4
#    16  16   8  16
#     4  10  20  35  53  74 102 135 169 206 251 299
#     4   9  19  35  53  74 100 130 165 204 246 294
#     4   8  16  30  49  72  99 130 164 204 248 294
#     4  10  19  33  53  77 103 132 168 208 250 296
#
# _framework density 17.379156999999999
#
# number of rings (size 3 to 8) (size 9 to 14) (size 15 to 20)
#    0.000    2.571    0.000    1.714    0.000    4.000 
#    0.000    3.571    0.000    0.000    0.000    0.000 
#    0.000    0.000    0.000    0.000    0.000    0.000 
#
# Total GULP energy -156042.802438 kJ/mol
# GULP energy per Si atom -5572.957230 kJ/mol
# Density = 1.733960 g / cm^3
# Si number density = 17.379157 Si / 1000 Ang^3
#
#
#
# Elastic Constant Matrix: (Units=GPa)
#
#
# Indices 1 2 3 4 5 6 
#
# 1 34.7451 41.8397 33.0499 -0.0003 0.0000 0.0000
# 2 41.8397 178.3702 122.0996 -0.0002 -0.0001 0.0000
# 3 33.0499 122.0996 108.4076 -0.0009 -0.0001 0.0000
# 4 -0.0003 -0.0002 -0.0009 35.3904 -0.0001 0.0000
# 5 0.0000 -0.0001 -0.0001 -0.0001 31.1876 0.0000
# 6 0.0000 0.0000 0.0000 0.0000 0.0000 20.9472
#
#
#
# Elastic Compliance Matrix: (Units=1/GPa)
#
#
# Indices 1 2 3 4 5 6 
#
# 1 0.041412 -0.004679 -0.007355 0.000000 0.000000 0.000000
# 2 -0.004679 0.025009 -0.026741 -0.000001 0.000000 0.000000
# 3 -0.007355 -0.026741 0.041585 0.000001 0.000000 0.000000
# 4 0.000000 -0.000001 0.000001 0.028256 0.000000 0.000000
# 5 0.000000 0.000000 0.000000 0.000000 0.032064 0.000000
# 6 0.000000 0.000000 0.000000 0.000000 0.000000 0.047739
#
#
# Mechanical properties :
#
#
# Convention : Reuss Voigt Hill
#
# Bulk Modulus (GPa) = 32.83474 79.50013 56.16744
# Shear Modulus (GPa) = 16.45997 25.80728 21.13362
#
# Velocity S-wave (km/s) = 3.08085 3.85769 3.49095
# Velocity P-wave (km/s) = 5.62047 8.10470 6.97409
#
# Compressibility (1/GPa) = 0.03045555
#
# Stress axis : x y z
#
# Youngs Moduli (GPa) = 24.14775 39.98580 24.04701
#
# Poissons Ratio (x) = 0.18710 0.17687
# Poissons Ratio (y) = 0.11299 0.64304
# Poissons Ratio (z) = 0.17761 1.06926
#
# Static dielectric constant tensor:
#      x y z
#    x 1.590590 0.000000 0.000000 
#    y 0.000000 1.628650 0.000000 
#    z 0.000000 0.000000 1.537400 
# 
# From -- ./inp_files/15777.got.cif
#   From: 2010.05.17/outbox.cif.g08.bks.cpg/sg74_8_cif.got.tgz:15777.got - 2010.06.03 17:57:02.
