data_PCOD9536749
_publ_section_title
;
Structure prediction by ZEFSAII (Michael W. Deem and Ramdas Pophale) SiO2 
 PCOD9536749
Probable space group: I M M A
;
_chemical_formula_sum "Si O2"
_cell_formula_units_Z 84
_cell_length_a 11.563061
_cell_length_b 20.418907
_cell_length_c 20.450101
_cell_angle_alpha 90.000000
_cell_angle_beta 90.000000
_cell_angle_gamma 90.000000
_cell_volume 4828.372471
_symmetry_space_group_name_H-M "I M M A"
_symmetry_group_IT_number 74
_symmetry_cell_setting 'orthorhombic'
loop_
_space_group_symop_operation_xyz
x,y,z
-x,1/2-y,z
x,-y,-z
-x,1/2+y,-z
-x,-y,-z
x,1/2+y,-z
-x,y,z
x,1/2-y,z
1/2+x,1/2+y,1/2+z
1/2-x,-y,1/2+z
1/2+x,1/2-y,1/2-z
1/2-x,y,1/2-z
1/2-x,1/2-y,1/2-z
1/2+x,y,1/2-z
1/2-x,1/2+y,1/2+z
1/2+x,-y,1/2+z
loop_
_atom_site_type_symbol
_atom_site_label
_atom_site_fract_x
_atom_site_fract_y
_atom_site_fract_z
Si Si1 0.500000 0.995869 0.390561
Si Si2 0.755084 0.499141 0.822113
Si Si3 0.362545 0.556038 0.051247
Si Si4 0.500000 0.610320 0.501621
Si Si5 0.247836 0.825881 0.979226
Si Si6 0.500000 0.250000 0.213872
Si Si7 0.869998 0.634114 0.654297
O O1 0.386149 0.003316 0.346999
O O2 0.500000 0.053508 0.443929
O O3 0.500000 0.928037 0.432115
O O4 0.750000 0.469616 0.750000
O O5 0.688323 0.459695 0.878138
O O6 0.693499 0.570241 0.819349
O O7 0.500000 0.553142 0.052729
O O8 0.319824 0.625279 0.024836
O O9 0.319584 0.500000 0.000000
O O10 0.614921 0.652726 0.512335
O O11 0.263738 0.750000 0.995011
O O12 0.295341 0.838526 0.905957
O O13 0.400523 0.191648 0.205155
O O14 0.000000 0.615122 0.628576
#
# Coordination Sequence:
#
# PCOD9536749 Si02
#       7
#     8  16  16   8  16   4  16
#     4  11  22  39  62  86 125 161 193 251 305 345
#     4  12  25  39  61  90 122 158 207 252 295 360
#     4  11  22  38  64  92 120 153 202 260 307 353
#     4  11  21  38  58  90 125 162 194 243 303 367
#     4  12  21  36  60  93 124 156 201 248 306 365
#     4   8  20  34  62  80 126 166 190 256 300 340
#     4  10  19  36  58  84 118 157 198 243 297 343
#
# _framework density 17.397165999999999
#
# number of rings (size 3 to 8) (size 9 to 14) (size 15 to 20)
#    0.571    0.381    6.667    1.429    2.667    1.143 
#    0.000    0.476    0.000    0.571    0.000    0.000 
#    0.000    0.000    0.000    0.000    0.000    0.000 
#
# Total GULP energy -233891.658870 kJ/mol
# GULP energy per Si atom -5568.849021 kJ/mol
# Density = 1.735757 g / cm^3
# Si number density = 17.397166 Si / 1000 Ang^3
#
#
#
# Elastic Constant Matrix: (Units=GPa)
#
#
# Indices 1 2 3 4 5 6 
#
# 1 95.7859 14.6814 15.1533 0.0000 0.0000 0.0000
# 2 14.6814 80.7045 17.8385 0.0000 0.0000 0.0000
# 3 15.1533 17.8385 74.2715 0.0000 0.0000 0.0000
# 4 0.0000 0.0000 0.0000 12.8877 0.0000 0.0000
# 5 0.0000 0.0000 0.0000 0.0000 -18.2447 0.0000
# 6 0.0000 0.0000 0.0000 0.0000 0.0000 29.7061
#
#
#
# Elastic Compliance Matrix: (Units=1/GPa)
#
#
# Indices 1 2 3 4 5 6 
#
# 1 0.010977 -0.001586 -0.001859 0.000000 0.000000 0.000000
# 2 -0.001586 0.013315 -0.002874 0.000000 0.000000 0.000000
# 3 -0.001859 -0.002874 0.014534 0.000000 0.000000 0.000000
# 4 0.000000 0.000000 0.000000 0.077593 0.000000 0.000000
# 5 0.000000 0.000000 0.000000 0.000000 -0.054810 0.000000
# 6 0.000000 0.000000 0.000000 0.000000 0.000000 0.033663
#
#
# Mechanical properties :
#
#
# Convention : Reuss Voigt Hill
#
# Bulk Modulus (GPa) = 38.18634 38.45648 38.32141
# Shear Modulus (GPa) = 42.86739 18.40906 30.63823
#
# Velocity S-wave (km/s) = 4.96930 3.25647 4.20110
# Velocity P-wave (km/s) = 7.41098 6.02433 6.75334
#
# Compressibility (1/GPa) = 0.02618738
#
# Stress axis : x y z
#
# Youngs Moduli (GPa) = 91.09883 75.10467 68.80571
#
# Poissons Ratio (x) = 0.11912 0.12789
# Poissons Ratio (y) = 0.14449 0.19777
# Poissons Ratio (z) = 0.16932 0.21588
#
# Static dielectric constant tensor:
#      x y z
#    x 1.617220 0.000000 0.000000 
#    y 0.000000 1.573350 0.000000 
#    z 0.000000 0.000000 1.601890 
# 
# From -- ./inp_files/50720.got.cif
#   From: 2010.05.17/outbox.cif.g08.bks.cpg/sg74_26_cif.got.tgz:50720.got - 2010.06.03 17:57:02.
