data_PCOD9536249
_publ_section_title
;
Structure prediction by ZEFSAII (Michael W. Deem and Ramdas Pophale) SiO2 
 PCOD9536249
Probable space group: I M M A
;
_chemical_formula_sum "Si O2"
_cell_formula_units_Z 120
_cell_length_a 27.768567
_cell_length_b 8.919756
_cell_length_c 28.305484
_cell_angle_alpha 90.000000
_cell_angle_beta 90.000000
_cell_angle_gamma 90.000000
_cell_volume 7010.952557
_symmetry_space_group_name_H-M "I M M A"
_symmetry_group_IT_number 74
_symmetry_cell_setting 'orthorhombic'
loop_
_space_group_symop_operation_xyz
x,y,z
-x,1/2-y,z
x,-y,-z
-x,1/2+y,-z
-x,-y,-z
x,1/2+y,-z
-x,y,z
x,1/2-y,z
1/2+x,1/2+y,1/2+z
1/2-x,-y,1/2+z
1/2+x,1/2-y,1/2-z
1/2-x,y,1/2-z
1/2-x,1/2-y,1/2-z
1/2+x,y,1/2-z
1/2-x,1/2+y,1/2+z
1/2+x,-y,1/2+z
loop_
_atom_site_type_symbol
_atom_site_label
_atom_site_fract_x
_atom_site_fract_y
_atom_site_fract_z
Si Si1 0.857332 0.427674 0.196724
Si Si2 0.391025 0.572175 0.451130
Si Si3 0.000000 0.430251 0.447828
Si Si4 0.555968 0.571106 0.354659
Si Si5 0.393550 0.568611 0.947444
Si Si6 0.304703 0.068907 0.118885
Si Si7 0.697404 0.070718 0.400515
Si Si8 0.200984 0.429126 0.722703
O O1 0.854933 0.250000 0.204671
O O2 0.909692 0.479140 0.179781
O O3 0.821728 0.464115 0.152550
O O4 0.840983 0.515651 0.242797
O O5 0.406619 0.500000 0.500000
O O6 0.388813 0.750000 0.456014
O O7 0.426547 0.535444 0.407819
O O8 0.338700 0.510416 0.436002
O O9 0.000000 0.500000 0.500000
O O10 0.052794 0.472512 0.427931
O O11 0.000000 0.250000 0.450801
O O12 0.500000 0.538740 0.348526
O O13 0.563806 0.750000 0.347809
O O14 0.391634 0.750000 0.951533
O O15 0.350257 0.521793 0.912841
O O16 0.388334 0.500000 0.000000
O O17 0.305696 0.250000 0.122894
O O18 0.253242 0.028157 0.095613
O O19 0.304292 0.001132 0.171279
O O20 0.692835 0.250000 0.406834
O O21 0.201564 0.250000 0.718342
O O22 0.250000 0.476308 0.750000
#
# Coordination Sequence:
#
# PCOD9536249 Si02
#       8
#    16  16   8  16  16  16  16  16
#     4  10  19  33  55  78 102 133 172 216 262 315
#     4  10  20  33  50  72 101 137 176 216 264 315
#     4   8  14  28  50  74  96 126 166 204 244 290
#     4   9  19  36  56  77 103 136 175 222 272 320
#     4   9  18  32  52  76 104 136 171 210 252 301
#     4  10  20  34  52  77 107 138 173 214 262 310
#     4   9  18  32  49  70  98 132 169 209 258 315
#     4  11  22  34  53  80 107 137 176 216 259 312
#
# _framework density 17.116076
#
# number of rings (size 3 to 8) (size 9 to 14) (size 15 to 20)
#    0.000    2.400    1.333    1.200    0.000    3.733 
#    0.000    1.333    1.467    0.000    0.000    0.000 
#    0.000    0.000    0.000    0.000    0.000    0.000 
#
# Total GULP energy -334546.904521 kJ/mol
# GULP energy per Si atom -5575.781742 kJ/mol
# Density = 1.707712 g / cm^3
# Si number density = 17.116076 Si / 1000 Ang^3
#
#
#
# Elastic Constant Matrix: (Units=GPa)
#
#
# Indices 1 2 3 4 5 6 
#
# 1 117.5183 21.4085 27.6020 0.0000 0.0000 0.0000
# 2 21.4085 9.6921 16.1977 0.0000 0.0000 0.0000
# 3 27.6020 16.1977 53.6558 0.0000 0.0000 0.0000
# 4 0.0000 0.0000 0.0000 27.8086 0.0000 0.0000
# 5 0.0000 0.0000 0.0000 0.0000 16.2120 0.0000
# 6 0.0000 0.0000 0.0000 0.0000 0.0000 20.1695
#
#
#
# Elastic Compliance Matrix: (Units=1/GPa)
#
#
# Indices 1 2 3 4 5 6 
#
# 1 0.014768 -0.040210 0.004542 0.000000 0.000000 0.000000
# 2 -0.040210 0.317717 -0.075228 0.000000 0.000000 0.000000
# 3 0.004542 -0.075228 0.039011 0.000000 0.000000 0.000000
# 4 0.000000 0.000000 0.000000 0.035960 0.000000 0.000000
# 5 0.000000 0.000000 0.000000 0.000000 0.061683 0.000000
# 6 0.000000 0.000000 0.000000 0.000000 0.000000 0.049580
#
#
# Mechanical properties :
#
#
# Convention : Reuss Voigt Hill
#
# Bulk Modulus (GPa) = 6.67987 34.58696 20.63342
# Shear Modulus (GPa) = 6.32582 20.54855 13.43719
#
# Velocity S-wave (km/s) = 1.92454 3.46864 2.80494
# Velocity P-wave (km/s) = 2.97483 6.02438 4.75094
#
# Compressibility (1/GPa) = 0.14970355
#
# Stress axis : x y z
#
# Youngs Moduli (GPa) = 67.71545 3.14745 25.63391
#
# Poissons Ratio (x) = 0.12656 -0.11642
# Poissons Ratio (y) = 2.72283 1.92838
# Poissons Ratio (z) = -0.30755 0.23678
#
# Static dielectric constant tensor:
#      x y z
#    x 1.599450 0.000000 0.000000 
#    y 0.000000 1.566580 0.000000 
#    z 0.000000 0.000000 1.551450 
# 
# From -- ./inp_files/69001.got.cif
#   From: 2010.05.17/outbox.cif.g08.bks.cpg/sg74_35_cif.got.tgz:69001.got - 2010.06.03 17:57:02.
