data_PCOD9536327
_publ_section_title
;
Structure prediction by ZEFSAII (Michael W. Deem and Ramdas Pophale) SiO2 
 PCOD9536327
Probable space group: I M M A
;
_chemical_formula_sum "Si O2"
_cell_formula_units_Z 84
_cell_length_a 19.554154
_cell_length_b 14.145693
_cell_length_c 18.350262
_cell_angle_alpha 90.000000
_cell_angle_beta 90.000000
_cell_angle_gamma 90.000000
_cell_volume 5075.812010
_symmetry_space_group_name_H-M "I M M A"
_symmetry_group_IT_number 74
_symmetry_cell_setting 'orthorhombic'
loop_
_space_group_symop_operation_xyz
x,y,z
-x,1/2-y,z
x,-y,-z
-x,1/2+y,-z
-x,-y,-z
x,1/2+y,-z
-x,y,z
x,1/2-y,z
1/2+x,1/2+y,1/2+z
1/2-x,-y,1/2+z
1/2+x,1/2-y,1/2-z
1/2-x,y,1/2-z
1/2-x,1/2-y,1/2-z
1/2+x,y,1/2-z
1/2-x,1/2+y,1/2+z
1/2+x,-y,1/2+z
loop_
_atom_site_type_symbol
_atom_site_label
_atom_site_fract_x
_atom_site_fract_y
_atom_site_fract_z
Si Si1 0.000000 0.750000 0.372776
Si Si2 0.356649 0.250000 0.206511
Si Si3 0.000000 0.456346 0.579471
Si Si4 0.578067 0.250000 0.728324
Si Si5 0.320220 0.421068 0.714857
Si Si6 0.726930 0.454692 0.421000
Si Si7 0.203418 0.750000 0.863314
Si Si8 0.128944 0.049602 0.346134
O O1 0.000000 0.843539 0.419940
O O2 0.063831 0.750000 0.315909
O O3 0.279344 0.250000 0.173166
O O4 0.347396 0.250000 0.293855
O O5 0.390625 0.155484 0.176444
O O6 0.000000 0.500000 0.500000
O O7 0.933556 0.492220 0.621782
O O8 0.500000 0.250000 0.698240
O O9 0.622051 0.158437 0.707862
O O10 0.250000 0.380252 0.750000
O O11 0.304036 0.475446 0.640205
O O12 0.343998 0.499012 0.773331
O O13 0.715814 0.500000 0.500000
O O14 0.698628 0.347916 0.408383
O O15 0.807930 0.448757 0.402603
#
# Coordination Sequence:
#
# PCOD9536327 Si02
#       8
#     4   8   8   8  16  16   8  16
#     4  10  22  38  56  76 108 152 184 216 278 324
#     4   9  16  30  56  76 100 142 193 223 262 320
#     4  12  24  38  56  78 118 150 183 219 275 330
#     4  10  19  36  58  81 104 148 192 224 272 325
#     4  10  19  33  57  82 107 142 194 231 266 324
#     4  10  20  33  53  84 116 139 178 233 289 325
#     4   9  16  31  51  76 107 144 174 222 285 328
#     4  10  19  35  54  81 108 152 186 225 264 329
#
# _framework density 16.549075999999999
#
# number of rings (size 3 to 8) (size 9 to 14) (size 15 to 20)
#    0.286    1.714    3.810    0.857    0.000    1.905 
#    0.000    3.810    0.000    0.571    0.000    0.000 
#    0.000    0.000    0.000    0.000    0.000    0.000 
#
# Total GULP energy -234115.668352 kJ/mol
# GULP energy per Si atom -5574.182580 kJ/mol
# Density = 1.651141 g / cm^3
# Si number density = 16.549076 Si / 1000 Ang^3
#
#
#
# Elastic Constant Matrix: (Units=GPa)
#
#
# Indices 1 2 3 4 5 6 
#
# 1 69.1449 45.4701 28.6594 0.0000 0.0000 0.0000
# 2 45.4701 153.3963 56.2348 0.0000 0.0000 0.0000
# 3 28.6594 56.2348 123.7194 0.0000 0.0000 0.0000
# 4 0.0000 0.0000 0.0000 22.8341 0.0000 0.0000
# 5 0.0000 0.0000 0.0000 0.0000 7.3563 0.0000
# 6 0.0000 0.0000 0.0000 0.0000 0.0000 15.1077
#
#
#
# Elastic Compliance Matrix: (Units=1/GPa)
#
#
# Indices 1 2 3 4 5 6 
#
# 1 0.018426 -0.004676 -0.002143 0.000000 0.000000 0.000000
# 2 -0.004676 0.009009 -0.003012 0.000000 0.000000 0.000000
# 3 -0.002143 -0.003012 0.009948 0.000000 0.000000 0.000000
# 4 0.000000 0.000000 0.000000 0.043794 0.000000 0.000000
# 5 0.000000 0.000000 0.000000 0.000000 0.135938 0.000000
# 6 0.000000 0.000000 0.000000 0.000000 0.000000 0.066191
#
#
# Mechanical properties :
#
#
# Convention : Reuss Voigt Hill
#
# Bulk Modulus (GPa) = 56.42861 67.44324 61.93592
# Shear Modulus (GPa) = 16.18774 23.45271 19.82023
#
# Velocity S-wave (km/s) = 3.13096 3.76860 3.46448
# Velocity P-wave (km/s) = 6.87330 7.73165 7.31508
#
# Compressibility (1/GPa) = 0.01772151
#
# Stress axis : x y z
#
# Youngs Moduli (GPa) = 54.27218 110.99609 100.52131
#
# Poissons Ratio (x) = 0.51904 0.21539
# Poissons Ratio (y) = 0.25379 0.30275
# Poissons Ratio (z) = 0.11629 0.33430
#
# Static dielectric constant tensor:
#      x y z
#    x 1.563600 0.000000 0.000000 
#    y 0.000000 1.557720 0.000000 
#    z 0.000000 0.000000 1.562410 
# 
# From -- ./inp_files/45105.got.cif
#   From: 2010.05.17/outbox.cif.g08.bks.cpg/sg74_23_cif.got.tgz:45105.got - 2010.06.03 17:57:02.
