data_PCOD9536061
_publ_section_title
;
Structure prediction by ZEFSAII (Michael W. Deem and Ramdas Pophale) SiO2 
 PCOD9536061
Probable space group: I M M A
;
_chemical_formula_sum "Si O2"
_cell_formula_units_Z 96
_cell_length_a 25.102323
_cell_length_b 8.272249
_cell_length_c 23.026682
_cell_angle_alpha 90.000000
_cell_angle_beta 90.000000
_cell_angle_gamma 90.000000
_cell_volume 4781.551914
_symmetry_space_group_name_H-M "I M M A"
_symmetry_group_IT_number 74
_symmetry_cell_setting 'orthorhombic'
loop_
_space_group_symop_operation_xyz
x,y,z
-x,1/2-y,z
x,-y,-z
-x,1/2+y,-z
-x,-y,-z
x,1/2+y,-z
-x,y,z
x,1/2-y,z
1/2+x,1/2+y,1/2+z
1/2-x,-y,1/2+z
1/2+x,1/2-y,1/2-z
1/2-x,y,1/2-z
1/2-x,1/2-y,1/2-z
1/2+x,y,1/2-z
1/2-x,1/2+y,1/2+z
1/2+x,-y,1/2+z
loop_
_atom_site_type_symbol
_atom_site_label
_atom_site_fract_x
_atom_site_fract_y
_atom_site_fract_z
Si Si1 0.500000 0.947646 0.286586
Si Si2 0.884773 0.445396 0.826272
Si Si3 0.199975 0.940298 0.594013
Si Si4 0.085814 0.556368 0.561602
Si Si5 0.182504 0.056507 0.063551
Si Si6 0.500000 0.943037 0.152615
Si Si7 0.808541 0.560776 0.277846
O O1 0.500000 0.750000 0.286078
O O2 0.445649 0.999090 0.317995
O O3 0.500000 0.001083 0.219192
O O4 0.883571 0.250000 0.826118
O O5 0.855831 0.501434 0.884621
O O6 0.850631 0.497833 0.769967
O O7 0.201250 0.750000 0.580314
O O8 0.146240 0.009783 0.566281
O O9 0.257209 0.008872 0.574990
O O10 0.192701 0.963935 0.662693
O O11 0.063125 0.500000 0.500000
O O12 0.086578 0.750000 0.562836
O O13 0.051069 0.498844 0.615884
O O14 0.184462 0.250000 0.064706
O O15 0.164938 0.000000 0.000000
O O16 0.500000 0.750000 0.154402
O O17 0.820075 0.750000 0.291076
O O18 0.750000 0.553040 0.250000
#
# Coordination Sequence:
#
# PCOD9536061 Si02
#       7
#     8  16  16  16  16   8  16
#     4   9  20  38  63  88 113 148 188 233 286 343
#     4  10  20  38  60  86 117 149 189 234 282 339
#     4  10  22  37  56  84 119 154 192 237 289 341
#     4  11  23  39  57  82 115 156 200 243 286 338
#     4  11  23  39  59  85 115 151 190 234 287 343
#     4  11  22  40  63  86 113 152 195 241 288 339
#     4  10  19  32  55  86 117 151 189 232 283 340
#
# _framework density 20.077165000000001
#
# number of rings (size 3 to 8) (size 9 to 14) (size 15 to 20)
#    0.000    1.667    1.667    3.000    0.000    4.333 
#    0.000    2.500    0.000    0.000    0.000    0.000 
#    0.000    0.000    0.000    0.000    0.000    0.000 
#
# Total GULP energy -268213.921144 kJ/mol
# GULP energy per Si atom -5587.790024 kJ/mol
# Density = 2.003147 g / cm^3
# Si number density = 20.077165 Si / 1000 Ang^3
#
#
#
# Elastic Constant Matrix: (Units=GPa)
#
#
# Indices 1 2 3 4 5 6 
#
# 1 142.2164 15.1947 54.0976 0.0000 0.0000 0.0000
# 2 15.1947 19.6097 1.2679 0.0000 0.0000 0.0000
# 3 54.0976 1.2679 110.8819 0.0000 0.0000 0.0000
# 4 0.0000 0.0000 0.0000 29.8364 0.0000 0.0000
# 5 0.0000 0.0000 0.0000 0.0000 2.2656 0.0000
# 6 0.0000 0.0000 0.0000 0.0000 0.0000 -48.5003
#
#
#
# Elastic Compliance Matrix: (Units=1/GPa)
#
#
# Indices 1 2 3 4 5 6 
#
# 1 0.009526 -0.007086 -0.004566 0.000000 0.000000 0.000000
# 2 -0.007086 0.056304 0.002813 0.000000 0.000000 0.000000
# 3 -0.004566 0.002813 0.011214 0.000000 0.000000 0.000000
# 4 0.000000 0.000000 0.000000 0.033516 0.000000 0.000000
# 5 0.000000 0.000000 0.000000 0.000000 0.441377 0.000000
# 6 0.000000 0.000000 0.000000 0.000000 0.000000 -0.020618
#
#
# Mechanical properties :
#
#
# Convention : Reuss Voigt Hill
#
# Bulk Modulus (GPa) = 16.84470 45.98094 31.41282
# Shear Modulus (GPa) = 8.79067 10.19685 9.49376
#
# Velocity S-wave (km/s) = 2.09474 2.25607 2.17690
# Velocity P-wave (km/s) = 3.77608 5.45328 4.69026
#
# Compressibility (1/GPa) = 0.05936585
#
# Stress axis : x y z
#
# Youngs Moduli (GPa) = 104.98035 17.76080 89.17185
#
# Poissons Ratio (x) = 0.12585 0.40719
# Poissons Ratio (y) = 0.74386 -0.25086
# Poissons Ratio (z) = 0.47938 -0.04996
#
# Static dielectric constant tensor:
#      x y z
#    x 1.735340 0.000000 0.000000 
#    y 0.000000 1.712650 0.000000 
#    z 0.000000 0.000000 1.682780 
# 
# From -- ./inp_files/61963.got.cif
#   From: 2010.05.17/outbox.cif.g08.bks.cpg/sg74_31_cif.got.tgz:61963.got - 2010.06.03 17:57:02.
