data_PCOD9536199
_publ_section_title
;
Structure prediction by ZEFSAII (Michael W. Deem and Ramdas Pophale) SiO2 
 PCOD9536199
Probable space group: I M M A
;
_chemical_formula_sum "Si O2"
_cell_formula_units_Z 96
_cell_length_a 14.892283
_cell_length_b 25.262498
_cell_length_c 14.584286
_cell_angle_alpha 90.000000
_cell_angle_beta 90.000000
_cell_angle_gamma 90.000000
_cell_volume 5486.845672
_symmetry_space_group_name_H-M "I M M A"
_symmetry_group_IT_number 74
_symmetry_cell_setting 'orthorhombic'
loop_
_space_group_symop_operation_xyz
x,y,z
-x,1/2-y,z
x,-y,-z
-x,1/2+y,-z
-x,-y,-z
x,1/2+y,-z
-x,y,z
x,1/2-y,z
1/2+x,1/2+y,1/2+z
1/2-x,-y,1/2+z
1/2+x,1/2-y,1/2-z
1/2-x,y,1/2-z
1/2-x,1/2-y,1/2-z
1/2+x,y,1/2-z
1/2-x,1/2+y,1/2+z
1/2+x,-y,1/2+z
loop_
_atom_site_type_symbol
_atom_site_label
_atom_site_fract_x
_atom_site_fract_y
_atom_site_fract_z
Si Si1 0.204023 0.099034 0.513242
Si Si2 0.500000 0.143708 0.841369
Si Si3 0.500000 0.538422 0.269109
Si Si4 0.000000 0.896074 0.534877
Si Si5 0.000000 0.088558 0.251941
Si Si6 0.184662 0.311169 0.664763
Si Si7 0.695420 0.531815 0.340250
Si Si8 0.690054 0.095142 0.334217
O O1 0.201485 0.148796 0.581707
O O2 0.255423 0.054443 0.571297
O O3 0.264528 0.114838 0.426776
O O4 0.102013 0.081257 0.484363
O O5 0.500000 0.081512 0.812977
O O6 0.586205 0.172312 0.802525
O O7 0.500000 0.147655 0.952810
O O8 0.500000 0.476454 0.237504
O O9 0.591176 0.546928 0.326717
O O10 0.000000 0.887911 0.644797
O O11 0.087468 0.104518 0.193975
O O12 0.188157 0.250000 0.636305
O O13 0.250000 0.318972 0.750000
O O14 0.750000 0.549963 0.250000
O O15 0.699283 0.468512 0.341587
O O16 0.750000 0.114055 0.250000
#
# Coordination Sequence:
#
# PCOD9536199 Si02
#       8
#    16   8   8   8   8  16  16  16
#     4  11  20  35  54  79 103 141 184 222 268 324
#     4  10  19  33  53  84 104 139 172 221 270 318
#     4  10  20  33  50  73 115 147 179 213 259 321
#     4  10  20  32  51  78 102 137 181 224 261 310
#     4  10  20  36  50  75 109 149 185 218 260 307
#     4  10  21  37  57  81 109 137 172 220 276 331
#     4  10  20  33  49  76 112 146 178 221 258 317
#     4  10  20  34  51  74 109 145 179 218 261 309
#
# _framework density 17.496390999999999
#
# number of rings (size 3 to 8) (size 9 to 14) (size 15 to 20)
#    0.000    1.833    1.667    4.250    0.000    1.000 
#    6.000    3.333    0.000    0.500    0.000    0.000 
#    0.000    0.000    0.000    0.000    0.000    0.000 
#
# Total GULP energy -267342.162582 kJ/mol
# GULP energy per Si atom -5569.628387 kJ/mol
# Density = 1.745657 g / cm^3
# Si number density = 17.496391 Si / 1000 Ang^3
#
#
#
# Elastic Constant Matrix: (Units=GPa)
#
#
# Indices 1 2 3 4 5 6 
#
# 1 168.4413 20.3447 59.9731 0.0000 0.0000 0.0000
# 2 20.3447 33.6291 10.0772 0.0000 0.0000 0.0000
# 3 59.9731 10.0772 86.6987 0.0000 0.0000 -0.0001
# 4 0.0000 0.0000 0.0000 13.8886 0.0000 -0.0001
# 5 0.0000 0.0000 0.0000 0.0000 19.5142 0.0000
# 6 0.0000 0.0000 -0.0001 -0.0001 0.0000 23.2736
#
#
#
# Elastic Compliance Matrix: (Units=1/GPa)
#
#
# Indices 1 2 3 4 5 6 
#
# 1 0.008234 -0.003393 -0.005302 0.000000 0.000000 0.000000
# 2 -0.003393 0.032207 -0.001397 0.000000 0.000000 0.000000
# 3 -0.005302 -0.001397 0.015364 0.000000 0.000000 0.000000
# 4 0.000000 0.000000 0.000000 0.072001 0.000000 0.000000
# 5 0.000000 0.000000 0.000000 0.000000 0.051245 0.000000
# 6 0.000000 0.000000 0.000000 0.000000 0.000000 0.042967
#
#
# Mechanical properties :
#
#
# Convention : Reuss Voigt Hill
#
# Bulk Modulus (GPa) = 28.07148 52.17325 40.12237
# Shear Modulus (GPa) = 19.67923 24.56022 22.11972
#
# Velocity S-wave (km/s) = 3.35738 3.75070 3.55948
# Velocity P-wave (km/s) = 5.57748 6.97432 6.31465
#
# Compressibility (1/GPa) = 0.03562334
#
# Stress axis : x y z
#
# Youngs Moduli (GPa) = 121.44480 31.04892 65.08784
#
# Poissons Ratio (x) = 0.10534 0.34507
# Poissons Ratio (y) = 0.41204 0.09090
# Poissons Ratio (z) = 0.64385 0.04336
#
# Static dielectric constant tensor:
#      x y z
#    x 1.639020 0.000000 0.000000 
#    y 0.000000 1.590570 0.000000 
#    z 0.000000 0.000000 1.605080 
# 
# From -- ./inp_files/21093.got.cif
#   From: 2010.05.17/outbox.cif.g08.bks.cpg/sg74_11_cif.got.tgz:21093.got - 2010.06.03 17:57:02.
