data_PCOD9536922
_publ_section_title
;
Structure prediction by ZEFSAII (Michael W. Deem and Ramdas Pophale) SiO2 
 PCOD9536922
Probable space group: I M M A
;
_chemical_formula_sum "Si O2"
_cell_formula_units_Z 88
_cell_length_a 9.377422
_cell_length_b 23.818050
_cell_length_c 23.484067
_cell_angle_alpha 90.000000
_cell_angle_beta 90.000000
_cell_angle_gamma 90.000000
_cell_volume 5245.211127
_symmetry_space_group_name_H-M "I M M A"
_symmetry_group_IT_number 74
_symmetry_cell_setting 'orthorhombic'
loop_
_space_group_symop_operation_xyz
x,y,z
-x,1/2-y,z
x,-y,-z
-x,1/2+y,-z
-x,-y,-z
x,1/2+y,-z
-x,y,z
x,1/2-y,z
1/2+x,1/2+y,1/2+z
1/2-x,-y,1/2+z
1/2+x,1/2-y,1/2-z
1/2-x,y,1/2-z
1/2-x,1/2-y,1/2-z
1/2+x,y,1/2-z
1/2-x,1/2+y,1/2+z
1/2+x,-y,1/2+z
loop_
_atom_site_type_symbol
_atom_site_label
_atom_site_fract_x
_atom_site_fract_y
_atom_site_fract_z
Si Si1 0.168895 0.186546 0.562220
Si Si2 0.333666 0.687705 0.556816
Si Si3 0.833728 0.502511 0.308594
Si Si4 0.157091 0.588197 0.594435
Si Si5 0.165029 0.579235 0.103413
Si Si6 0.749015 0.000000 0.500000
O O1 0.187642 0.250000 0.585353
O O2 0.235347 0.186961 0.499089
O O3 0.255470 0.137874 0.593197
O O4 0.000000 0.174203 0.560764
O O5 0.500000 0.680443 0.541193
O O6 0.319464 0.750000 0.583213
O O7 0.278112 0.635122 0.592189
O O8 0.750000 0.495042 0.250000
O O9 0.832427 0.447025 0.347782
O O10 0.751050 0.547528 0.347315
O O11 0.000000 0.517794 0.299479
O O12 0.171025 0.543953 0.541820
O O13 0.000000 0.614508 0.590399
O O14 0.000000 0.587053 0.118032
O O15 0.171620 0.540734 0.045750
#
# Coordination Sequence:
#
# PCOD9536922 Si02
#       6
#    16  16  16  16  16   8
#     4  10  20  33  50  74 107 144 179 215 258 310
#     4  10  20  32  48  74 108 142 176 214 258 312
#     4  10  22  39  57  79 105 137 178 220 266 314
#     4  10  20  33  53  77 106 139 173 217 263 314
#     4  11  21  33  53  79 109 141 175 217 262 313
#     4  10  20  30  48  78 110 138 174 210 260 316
#
# _framework density 16.777208000000002
#
# number of rings (size 3 to 8) (size 9 to 14) (size 15 to 20)
#    0.000    1.818    1.818    2.727    0.000    7.273 
#    0.000    0.000    0.000    1.091    0.000    0.000 
#    0.000    0.000    0.000    0.000    0.000    0.000 
#
# Total GULP energy -245235.190607 kJ/mol
# GULP energy per Si atom -5573.527059 kJ/mol
# Density = 1.673902 g / cm^3
# Si number density = 16.777208 Si / 1000 Ang^3
#
#
#
# Elastic Constant Matrix: (Units=GPa)
#
#
# Indices 1 2 3 4 5 6 
#
# 1 150.7918 64.4660 42.6928 0.0000 0.0000 0.0000
# 2 64.4660 96.2343 26.9112 0.0000 0.0000 0.0000
# 3 42.6928 26.9112 86.6245 0.0000 0.0000 0.0000
# 4 0.0000 0.0000 0.0000 10.7992 0.0000 0.0000
# 5 0.0000 0.0000 0.0000 0.0000 18.0452 0.0000
# 6 0.0000 0.0000 0.0000 0.0000 0.0000 -30.3247
#
#
#
# Elastic Compliance Matrix: (Units=1/GPa)
#
#
# Indices 1 2 3 4 5 6 
#
# 1 0.010008 -0.005832 -0.003121 0.000000 0.000000 0.000000
# 2 -0.005832 0.014778 -0.001717 0.000000 0.000000 0.000000
# 3 -0.003121 -0.001717 0.013616 0.000000 0.000000 0.000000
# 4 0.000000 0.000000 0.000000 0.092599 0.000000 0.000000
# 5 0.000000 0.000000 0.000000 0.000000 0.055416 0.000000
# 6 0.000000 0.000000 0.000000 0.000000 0.000000 -0.032976
#
#
# Mechanical properties :
#
#
# Convention : Reuss Voigt Hill
#
# Bulk Modulus (GPa) = 58.60636 66.86563 62.73600
# Shear Modulus (GPa) = 27.70576 13.00932 20.35754
#
# Velocity S-wave (km/s) = 4.06814 2.78765 3.48717
# Velocity P-wave (km/s) = 7.55476 7.09245 7.32725
#
# Compressibility (1/GPa) = 0.01706299
#
# Stress axis : x y z
#
# Youngs Moduli (GPa) = 99.91549 67.66793 73.44524
#
# Poissons Ratio (x) = 0.39463 0.22922
# Poissons Ratio (y) = 0.58269 0.12609
# Poissons Ratio (z) = 0.31183 0.11617
#
# Static dielectric constant tensor:
#      x y z
#    x 1.566700 0.000000 0.000000 
#    y 0.000000 1.588330 0.000000 
#    z 0.000000 0.000000 1.539130 
# 
# From -- ./inp_files/48750.got.cif
#   From: 2010.05.17/outbox.cif.g08.bks.cpg/sg74_25_cif.got.tgz:48750.got - 2010.06.03 17:57:02.
