data_PCOD9536051
_publ_section_title
;
Structure prediction by ZEFSAII (Michael W. Deem and Ramdas Pophale) SiO2 
 PCOD9536051
Probable space group: I M M A
;
_chemical_formula_sum "Si O2"
_cell_formula_units_Z 88
_cell_length_a 14.260675
_cell_length_b 27.444279
_cell_length_c 12.097267
_cell_angle_alpha 90.000000
_cell_angle_beta 90.000000
_cell_angle_gamma 90.000000
_cell_volume 4734.555090
_symmetry_space_group_name_H-M "I M M A"
_symmetry_group_IT_number 74
_symmetry_cell_setting 'orthorhombic'
loop_
_space_group_symop_operation_xyz
x,y,z
-x,1/2-y,z
x,-y,-z
-x,1/2+y,-z
-x,-y,-z
x,1/2+y,-z
-x,y,z
x,1/2-y,z
1/2+x,1/2+y,1/2+z
1/2-x,-y,1/2+z
1/2+x,1/2-y,1/2-z
1/2-x,y,1/2-z
1/2-x,1/2-y,1/2-z
1/2+x,y,1/2-z
1/2-x,1/2+y,1/2+z
1/2+x,-y,1/2+z
loop_
_atom_site_type_symbol
_atom_site_label
_atom_site_fract_x
_atom_site_fract_y
_atom_site_fract_z
Si Si1 0.500000 0.556673 0.528335
Si Si2 0.815486 0.696005 0.149412
Si Si3 0.500000 0.860755 0.348562
Si Si4 0.317871 0.667805 0.967751
Si Si5 0.000000 0.189594 0.608751
Si Si6 0.308000 0.097587 0.361692
Si Si7 0.388006 0.196786 0.269715
O O1 0.500000 0.500000 0.500000
O O2 0.500000 0.587875 0.413340
O O3 0.599297 0.568803 0.593914
O O4 0.846218 0.750000 0.185325
O O5 0.750000 0.676659 0.250000
O O6 0.903987 0.664469 0.116545
O O7 0.754110 0.697490 0.040945
O O8 0.500000 0.843549 0.219495
O O9 0.273699 0.613635 0.948376
O O10 0.341973 0.690982 0.850229
O O11 0.411279 0.672300 0.038980
O O12 0.000000 0.250000 0.621653
O O13 0.250000 0.080554 0.250000
O O14 0.351588 0.150535 0.334797
O O15 0.500000 0.193409 0.258564
O O16 0.366172 0.250000 0.316648
#
# Coordination Sequence:
#
# PCOD9536051 Si02
#       7
#     8  16   8  16   8  16  16
#     4  12  26  51  71  91 118 157 203 278 351 384
#     4  11  21  33  53  85 130 173 205 241 290 362
#     4  12  24  40  56  88 119 155 211 257 308 377
#     4  11  21  34  55  86 133 174 215 240 286 358
#     4  12  22  35  57  91 139 184 211 241 295 367
#     4  10  23  42  64  94 123 162 213 259 313 376
#     4  10  19  32  54  87 129 169 207 243 286 353
#
# _framework density 18.586751
#
# number of rings (size 3 to 8) (size 9 to 14) (size 15 to 20)
#    0.000    1.091    5.455    2.455    0.000    4.727 
#    0.000    2.727    0.000    0.000    0.000    3.818 
#    0.000    0.000    0.000    0.000    0.000    0.000 
#
# Total GULP energy -244994.947880 kJ/mol
# GULP energy per Si atom -5568.066997 kJ/mol
# Density = 1.854445 g / cm^3
# Si number density = 18.586751 Si / 1000 Ang^3
#
#
#
# Elastic Constant Matrix: (Units=GPa)
#
#
# Indices 1 2 3 4 5 6 
#
# 1 148.7578 65.9723 48.6912 0.0000 0.0000 0.0000
# 2 65.9723 94.5478 47.1268 -0.0001 0.0000 0.0000
# 3 48.6912 47.1268 88.0181 -0.0002 -0.0001 0.0001
# 4 0.0000 -0.0001 -0.0002 16.8023 0.0000 0.0000
# 5 0.0000 0.0000 -0.0001 0.0000 39.2078 0.0000
# 6 0.0000 0.0000 0.0001 0.0000 0.0000 10.0590
#
#
#
# Elastic Compliance Matrix: (Units=1/GPa)
#
#
# Indices 1 2 3 4 5 6 
#
# 1 0.010116 -0.005823 -0.002478 0.000000 0.000000 0.000000
# 2 -0.005823 0.017779 -0.006298 0.000000 0.000000 0.000000
# 3 -0.002478 -0.006298 0.016104 0.000000 0.000000 0.000000
# 4 0.000000 0.000000 0.000000 0.059516 0.000000 0.000000
# 5 0.000000 0.000000 0.000000 0.000000 0.025505 0.000000
# 6 0.000000 0.000000 0.000000 0.000000 0.000000 0.099413
#
#
# Mechanical properties :
#
#
# Convention : Reuss Voigt Hill
#
# Bulk Modulus (GPa) = 67.56508 72.76716 70.16612
# Shear Modulus (GPa) = 19.04283 24.51606 21.77945
#
# Velocity S-wave (km/s) = 3.20431 3.63575 3.42683
# Velocity P-wave (km/s) = 7.07957 7.54055 7.31369
#
# Compressibility (1/GPa) = 0.01480054
#
# Stress axis : x y z
#
# Youngs Moduli (GPa) = 98.85209 56.24546 62.09549
#
# Poissons Ratio (x) = 0.32754 0.15388
# Poissons Ratio (y) = 0.57566 0.39107
# Poissons Ratio (z) = 0.24497 0.35423
#
# Static dielectric constant tensor:
#      x y z
#    x 1.754810 0.000000 0.000000 
#    y 0.000000 1.610850 0.000000 
#    z 0.000000 0.000000 1.727280 
# 
# From -- ./inp_files/20929.got.cif
#   From: 2010.05.17/outbox.cif.g08.bks.cpg/sg74_11_cif.got.tgz:20929.got - 2010.06.03 17:57:02.
