data_PCOD9536526
_publ_section_title
;
Structure prediction by ZEFSAII (Michael W. Deem and Ramdas Pophale) SiO2 
 PCOD9536526
Probable space group: I M M A
;
_chemical_formula_sum "Si O2"
_cell_formula_units_Z 112
_cell_length_a 23.905764
_cell_length_b 14.562222
_cell_length_c 14.959295
_cell_angle_alpha 90.000000
_cell_angle_beta 90.000000
_cell_angle_gamma 90.000000
_cell_volume 5207.645370
_symmetry_space_group_name_H-M "I M M A"
_symmetry_group_IT_number 74
_symmetry_cell_setting 'orthorhombic'
loop_
_space_group_symop_operation_xyz
x,y,z
-x,1/2-y,z
x,-y,-z
-x,1/2+y,-z
-x,-y,-z
x,1/2+y,-z
-x,y,z
x,1/2-y,z
1/2+x,1/2+y,1/2+z
1/2-x,-y,1/2+z
1/2+x,1/2-y,1/2-z
1/2-x,y,1/2-z
1/2-x,1/2-y,1/2-z
1/2+x,y,1/2-z
1/2-x,1/2+y,1/2+z
1/2+x,-y,1/2+z
loop_
_atom_site_type_symbol
_atom_site_label
_atom_site_fract_x
_atom_site_fract_y
_atom_site_fract_z
Si Si1 0.283836 0.145711 0.025000
Si Si2 0.618266 0.496282 0.718376
Si Si3 0.935995 0.646205 0.086630
Si Si4 0.437115 0.896002 0.033812
Si Si5 0.339091 0.095106 0.450333
Si Si6 0.385917 0.353255 0.143973
Si Si7 0.667634 0.856978 0.155267
O O1 0.304143 0.250000 0.012672
O O2 0.219391 0.146676 0.049240
O O3 0.326196 0.112615 0.101663
O O4 0.292498 0.106762 0.925093
O O5 0.577768 0.430120 0.661178
O O6 0.644145 0.567949 0.648796
O O7 0.593401 0.564166 0.793161
O O8 0.663197 0.426232 0.762027
O O9 0.930797 0.750000 0.123353
O O10 0.000000 0.634004 0.054835
O O11 0.890659 0.636545 0.006882
O O12 0.500000 0.885867 0.066222
O O13 0.425736 0.844797 0.941369
O O14 0.393251 0.864417 0.107957
O O15 0.427263 0.000000 0.000000
O O16 0.326404 0.000000 0.500000
O O17 0.379808 0.250000 0.183993
O O18 0.679634 0.750000 0.179446
#
# Coordination Sequence:
#
# PCOD9536526 Si02
#       7
#    16  16  16  16  16  16  16
#     4   9  20  39  62  88 125 169 214 256 305 380
#     4  11  23  39  61  97 127 159 205 267 315 385
#     4  10  23  46  71  92 123 167 217 273 330 383
#     4  10  19  34  57  85 122 169 213 252 300 371
#     4  10  23  39  63  91 119 164 210 263 319 384
#     4  10  22  38  58  89 129 172 209 259 315 371
#     4  10  21  38  62  92 127 168 208 257 315 370
#
# _framework density 21.506841000000001
#
# number of rings (size 3 to 8) (size 9 to 14) (size 15 to 20)
#    0.000    2.000    1.429    2.143    2.000    6.571 
#    2.571    1.429    0.000    4.286    0.000    0.000 
#    0.000    0.000    0.000    0.000    0.000    0.000 
#
# Total GULP energy -312277.689288 kJ/mol
# GULP energy per Si atom -5576.387309 kJ/mol
# Density = 2.145789 g / cm^3
# Si number density = 21.506841 Si / 1000 Ang^3
#
#
#
# Elastic Constant Matrix: (Units=GPa)
#
#
# Indices 1 2 3 4 5 6 
#
# 1 92.7165 22.0309 12.2896 0.0000 0.0000 0.0000
# 2 22.0309 111.4849 22.9665 0.0000 0.0000 0.0000
# 3 12.2896 22.9665 64.9952 0.0000 0.0000 0.0000
# 4 0.0000 0.0000 0.0000 21.1695 0.0000 0.0000
# 5 0.0000 0.0000 0.0000 0.0000 5.6287 0.0000
# 6 0.0000 0.0000 0.0000 0.0000 0.0000 -2.4576
#
#
#
# Elastic Compliance Matrix: (Units=1/GPa)
#
#
# Indices 1 2 3 4 5 6 
#
# 1 0.011446 -0.001959 -0.001472 0.000000 0.000000 0.000000
# 2 -0.001959 0.010009 -0.003166 0.000000 0.000000 0.000000
# 3 -0.001472 -0.003166 0.016783 0.000000 0.000000 0.000000
# 4 0.000000 0.000000 0.000000 0.047238 0.000000 0.000000
# 5 0.000000 0.000000 0.000000 0.000000 0.177660 0.000000
# 6 0.000000 0.000000 0.000000 0.000000 0.000000 -0.406903
#
#
# Mechanical properties :
#
#
# Convention : Reuss Voigt Hill
#
# Bulk Modulus (GPa) = 39.93014 42.64118 41.28566
# Shear Modulus (GPa) = -40.90830 18.99543 -10.95643
#
# Velocity S-wave (km/s) = -4.36605 2.97514 -2.25953
# Velocity P-wave (km/s) = 2.60958 5.62777 3.52575
#
# Compressibility (1/GPa) = 0.02504374
#
# Stress axis : x y z
#
# Youngs Moduli (GPa) = 87.36592 99.90823 59.58405
#
# Poissons Ratio (x) = 0.19568 0.08772
# Poissons Ratio (y) = 0.17112 0.18867
# Poissons Ratio (z) = 0.12862 0.31636
#
# Static dielectric constant tensor:
#      x y z
#    x 1.767900 0.000000 0.000000 
#    y 0.000000 1.822030 0.000000 
#    z 0.000000 0.000000 1.865100 
# 
# From -- ./inp_files/36553.got.cif
#   From: 2010.05.17/outbox.cif.g08.bks.cpg/sg74_19_cif.got.tgz:36553.got - 2010.06.03 17:57:02.
