data_PCOD9536433
_publ_section_title
;
Structure prediction by ZEFSAII (Michael W. Deem and Ramdas Pophale) SiO2 
 PCOD9536433
Probable space group: I M M A
;
_chemical_formula_sum "Si O2"
_cell_formula_units_Z 88
_cell_length_a 8.140766
_cell_length_b 28.001959
_cell_length_c 18.007910
_cell_angle_alpha 90.000000
_cell_angle_beta 90.000000
_cell_angle_gamma 90.000000
_cell_volume 4105.036267
_symmetry_space_group_name_H-M "I M M A"
_symmetry_group_IT_number 74
_symmetry_cell_setting 'orthorhombic'
loop_
_space_group_symop_operation_xyz
x,y,z
-x,1/2-y,z
x,-y,-z
-x,1/2+y,-z
-x,-y,-z
x,1/2+y,-z
-x,y,z
x,1/2-y,z
1/2+x,1/2+y,1/2+z
1/2-x,-y,1/2+z
1/2+x,1/2-y,1/2-z
1/2-x,y,1/2-z
1/2-x,1/2-y,1/2-z
1/2+x,y,1/2-z
1/2-x,1/2+y,1/2+z
1/2+x,-y,1/2+z
loop_
_atom_site_type_symbol
_atom_site_label
_atom_site_fract_x
_atom_site_fract_y
_atom_site_fract_z
Si Si1 0.807304 0.408033 0.628837
Si Si2 0.195893 0.750000 0.834156
Si Si3 0.306602 0.667187 0.938618
Si Si4 0.190438 0.507977 0.829578
Si Si5 0.301037 0.302778 0.893573
Si Si6 0.810240 0.568486 0.965086
O O1 0.716980 0.451146 0.669049
O O2 0.744917 0.353566 0.641134
O O3 0.784493 0.421561 0.541728
O O4 0.000000 0.409580 0.647197
O O5 0.250000 0.750000 0.750000
O O6 0.270409 0.704586 0.875443
O O7 0.000000 0.750000 0.841633
O O8 0.500000 0.654961 0.941121
O O9 0.201527 0.619875 0.926420
O O10 0.265172 0.690632 0.018686
O O11 0.250000 0.526597 0.750000
O O12 0.260982 0.530706 0.905875
O O13 0.000000 0.519280 0.834486
O O14 0.500000 0.302511 0.886203
O O15 0.241522 0.250000 0.868764
O O16 0.000000 0.556737 0.984485
#
# Coordination Sequence:
#
# PCOD9536433 Si02
#       6
#    16   8  16  16  16  16
#     4  10  20  34  58  88 115 148 188 232 281 337
#     4  12  24  36  50  70 102 146 189 230 277 334
#     4  10  19  34  55  78 106 140 180 230 278 326
#     4  11  24  40  58  79 111 150 188 236 288 344
#     4   8  14  28  53  82 110 138 172 217 269 320
#     4  10  21  37  57  83 113 147 188 235 284 334
#
# _framework density 21.437083000000001
#
# number of rings (size 3 to 8) (size 9 to 14) (size 15 to 20)
#    0.000    2.000    0.909    4.636    0.000    5.818 
#    0.000    1.818    0.000    0.545    0.000    0.000 
#    0.000    0.000    0.000    0.000    0.000    0.000 
#
# Total GULP energy -245507.215057 kJ/mol
# GULP energy per Si atom -5579.709433 kJ/mol
# Density = 2.138829 g / cm^3
# Si number density = 21.437083 Si / 1000 Ang^3
#
#
#
# Elastic Constant Matrix: (Units=GPa)
#
#
# Indices 1 2 3 4 5 6 
#
# 1 35.0537 -8.5381 -10.4881 0.0000 0.0000 0.0000
# 2 -8.5381 116.9128 -2.1440 -0.0001 0.0000 -0.0001
# 3 -10.4881 -2.1440 24.2059 -0.0004 -0.0001 -0.0003
# 4 0.0000 -0.0001 -0.0004 7.4664 0.0000 -0.0001
# 5 0.0000 0.0000 -0.0001 0.0000 18.1802 0.0000
# 6 0.0000 -0.0001 -0.0003 -0.0001 0.0000 -6.2980
#
#
#
# Elastic Compliance Matrix: (Units=1/GPa)
#
#
# Indices 1 2 3 4 5 6 
#
# 1 0.033623 0.002727 0.014810 0.000001 0.000000 -0.000001
# 2 0.002727 0.008788 0.001960 0.000000 0.000000 0.000000
# 3 0.014810 0.001960 0.047903 0.000003 0.000000 -0.000002
# 4 0.000001 0.000000 0.000003 0.133933 0.000000 -0.000001
# 5 0.000000 0.000000 0.000000 0.000000 0.055005 0.000000
# 6 -0.000001 0.000000 -0.000002 -0.000001 0.000000 -0.158779
#
#
# Mechanical properties :
#
#
# Convention : Reuss Voigt Hill
#
# Bulk Modulus (GPa) = 7.73343 14.87022 11.30183
# Shear Modulus (GPa) = 40.13448 17.02590 28.58019
#
# Velocity S-wave (km/s) = 4.33159 2.82126 3.65528
# Velocity P-wave (km/s) = 5.35090 4.19099 4.80607
#
# Compressibility (1/GPa) = 0.12930870
#
# Stress axis : x y z
#
# Youngs Moduli (GPa) = 29.74147 113.78530 20.87559
#
# Poissons Ratio (x) = -0.31030 -0.30917
# Poissons Ratio (y) = -0.08111 -0.04092
# Poissons Ratio (z) = -0.44047 -0.22302
#
# Static dielectric constant tensor:
#      x y z
#    x 1.757250 0.000000 0.000000 
#    y 0.000000 1.824820 0.000000 
#    z 0.000000 0.000000 1.795630 
# 
# From -- ./inp_files/40081.got.cif
#   From: 2010.05.17/outbox.cif.g08.bks.cpg/sg74_21_cif.got.tgz:40081.got - 2010.06.03 17:57:02.
