data_PCOD9536478
_publ_section_title
;
Structure prediction by ZEFSAII (Michael W. Deem and Ramdas Pophale) SiO2 
 PCOD9536478
Probable space group: I M M A
;
_chemical_formula_sum "Si O2"
_cell_formula_units_Z 116
_cell_length_a 7.589233
_cell_length_b 30.308357
_cell_length_c 25.109536
_cell_angle_alpha 90.000000
_cell_angle_beta 90.000000
_cell_angle_gamma 90.000000
_cell_volume 5775.624740
_symmetry_space_group_name_H-M "I M M A"
_symmetry_group_IT_number 74
_symmetry_cell_setting 'orthorhombic'
loop_
_space_group_symop_operation_xyz
x,y,z
-x,1/2-y,z
x,-y,-z
-x,1/2+y,-z
-x,-y,-z
x,1/2+y,-z
-x,y,z
x,1/2-y,z
1/2+x,1/2+y,1/2+z
1/2-x,-y,1/2+z
1/2+x,1/2-y,1/2-z
1/2-x,y,1/2-z
1/2-x,1/2-y,1/2-z
1/2+x,y,1/2-z
1/2-x,1/2+y,1/2+z
1/2+x,-y,1/2+z
loop_
_atom_site_type_symbol
_atom_site_label
_atom_site_fract_x
_atom_site_fract_y
_atom_site_fract_z
Si Si1 0.205158 0.498824 0.330439
Si Si2 0.290190 0.594564 0.191607
Si Si3 0.709184 0.098168 0.191795
Si Si4 0.795314 0.876026 0.924183
Si Si5 0.292037 0.200744 0.996758
Si Si6 0.500000 0.250000 0.655677
Si Si7 0.716658 0.676900 0.122902
Si Si8 0.714510 0.473683 0.447624
O O1 0.285942 0.545032 0.312057
O O2 0.283773 0.452098 0.311213
O O3 0.218270 0.496819 0.394211
O O4 0.000000 0.498233 0.314114
O O5 0.500000 0.590081 0.186406
O O6 0.250000 0.613080 0.250000
O O7 0.238547 0.628766 0.146057
O O8 0.500000 0.095440 0.185982
O O9 0.750000 0.116794 0.250000
O O10 0.772512 0.123948 0.139607
O O11 0.732412 0.833219 0.955279
O O12 0.720515 0.922930 0.944911
O O13 0.000000 0.878225 0.936064
O O14 0.500000 0.205607 0.991028
O O15 0.216155 0.250000 0.005096
O O16 0.234339 0.181928 0.939514
O O17 0.341855 0.211823 0.652391
O O18 0.500000 0.683844 0.128902
O O19 0.768565 0.500000 0.500000
O O20 0.500000 0.473703 0.445389
#
# Coordination Sequence:
#
# PCOD9536478 Si02
#       8
#    16  16  16  16  16   4  16  16
#     4   9  19  34  53  80 109 152 194 233 281 341
#     4  10  22  39  58  82 117 147 192 245 296 350
#     4  10  19  34  56  81 115 152 197 234 281 338
#     4  10  21  34  54  84 115 148 192 237 283 344
#     4  10  21  39  61  83 115 150 187 241 300 345
#     4  12  22  40  70  86 110 150 208 230 316 368
#     4  10  23  41  62  88 119 148 192 252 299 360
#     4   9  19  34  48  75 116 152 186 232 282 333
#
# _framework density 20.084408
#
# number of rings (size 3 to 8) (size 9 to 14) (size 15 to 20)
#    0.000    2.207    0.690    1.448    3.862    2.207 
#    0.000    0.345    0.000    0.414    0.000    0.000 
#    0.000    0.000    0.000    0.000    0.000    0.000 
#
# Total GULP energy -322913.630748 kJ/mol
# GULP energy per Si atom -5567.476392 kJ/mol
# Density = 2.003869 g / cm^3
# Si number density = 20.084408 Si / 1000 Ang^3
#
#
#
# Elastic Constant Matrix: (Units=GPa)
#
#
# Indices 1 2 3 4 5 6 
#
# 1 55.2825 8.9531 -13.7144 0.0000 0.0000 0.0000
# 2 8.9531 110.7591 61.8383 0.0000 0.0000 0.0000
# 3 -13.7144 61.8383 97.0595 0.0000 0.0000 0.0000
# 4 0.0000 0.0000 0.0000 -39.3215 0.0000 0.0000
# 5 0.0000 0.0000 0.0000 0.0000 17.8514 0.0000
# 6 0.0000 0.0000 0.0000 0.0000 0.0000 8.9627
#
#
#
# Elastic Compliance Matrix: (Units=1/GPa)
#
#
# Indices 1 2 3 4 5 6 
#
# 1 0.020425 -0.005064 0.006112 0.000000 0.000000 0.000000
# 2 -0.005064 0.015269 -0.010443 0.000000 0.000000 0.000000
# 3 0.006112 -0.010443 0.017820 0.000000 0.000000 0.000000
# 4 0.000000 0.000000 0.000000 -0.025431 0.000000 0.000000
# 5 0.000000 0.000000 0.000000 0.000000 0.056018 0.000000
# 6 0.000000 0.000000 0.000000 0.000000 0.000000 0.111573
#
#
# Mechanical properties :
#
#
# Convention : Reuss Voigt Hill
#
# Bulk Modulus (GPa) = 28.79808 41.91724 35.35766
# Shear Modulus (GPa) = 22.12017 11.23347 16.67682
#
# Velocity S-wave (km/s) = 3.32228 2.36755 2.88468
# Velocity P-wave (km/s) = 5.39318 5.32818 5.36078
#
# Compressibility (1/GPa) = 0.03472453
#
# Stress axis : x y z
#
# Youngs Moduli (GPa) = 48.95905 65.49397 56.11597
#
# Poissons Ratio (x) = 0.33163 -0.34299
# Poissons Ratio (y) = 0.24791 0.58604
# Poissons Ratio (z) = -0.29924 0.68398
#
# Static dielectric constant tensor:
#      x y z
#    x 1.742060 0.000000 0.000000 
#    y 0.000000 1.768100 0.000000 
#    z 0.000000 0.000000 1.564290 
# 
# From -- ./inp_files/65060.got.cif
#   From: 2010.05.17/outbox.cif.g08.bks.cpg/sg74_33_cif.got.tgz:65060.got - 2010.06.03 17:57:02.
