data_PCOD9536004
_publ_section_title
;
Structure prediction by ZEFSAII (Michael W. Deem and Ramdas Pophale) SiO2 
 PCOD9536004
Probable space group: I M M A
;
_chemical_formula_sum "Si O2"
_cell_formula_units_Z 64
_cell_length_a 33.524585
_cell_length_b 19.266766
_cell_length_c 5.221741
_cell_angle_alpha 90.000000
_cell_angle_beta 90.000000
_cell_angle_gamma 90.000000
_cell_volume 3372.776476
_symmetry_space_group_name_H-M "I M M A"
_symmetry_group_IT_number 74
_symmetry_cell_setting 'orthorhombic'
loop_
_space_group_symop_operation_xyz
x,y,z
-x,1/2-y,z
x,-y,-z
-x,1/2+y,-z
-x,-y,-z
x,1/2+y,-z
-x,y,z
x,1/2-y,z
1/2+x,1/2+y,1/2+z
1/2-x,-y,1/2+z
1/2+x,1/2-y,1/2-z
1/2-x,y,1/2-z
1/2-x,1/2-y,1/2-z
1/2+x,y,1/2-z
1/2-x,1/2+y,1/2+z
1/2+x,-y,1/2+z
loop_
_atom_site_type_symbol
_atom_site_label
_atom_site_fract_x
_atom_site_fract_y
_atom_site_fract_z
Si Si1 0.454607 0.421858 0.118043
Si Si2 0.776052 0.500000 0.000000
Si Si3 0.152381 0.402257 0.866516
Si Si4 0.911421 0.000000 0.000000
Si Si5 0.121069 0.668008 0.608843
O O1 0.500000 0.398598 0.093446
O O2 0.440675 0.439833 0.406124
O O3 0.421741 0.366238 0.035645
O O4 0.451844 0.500000 0.000000
O O5 0.750000 0.482603 0.250000
O O6 0.805301 0.562838 0.080489
O O7 0.150255 0.352235 0.624111
O O8 0.120617 0.464795 0.809337
O O9 0.136916 0.365921 0.127021
O O10 0.117477 0.750000 0.638278
#
# Coordination Sequence:
#
# PCOD9536004 Si02
#       5
#    16   8  16   8  16
#     4  10  19  32  53  81 114 152 198 255 301 332
#     4  11  22  38  67 100 123 140 181 244 295 342
#     4  10  21  37  61  85 118 150 194 236 285 350
#     4   9  17  32  55  80 110 150 196 246 297 338
#     4  11  22  38  58  83 118 163 202 236 282 346
#
# _framework density 18.975462
#
# number of rings (size 3 to 8) (size 9 to 14) (size 15 to 20)
#    0.000    1.750    2.500    2.625    0.000    0.500 
#    0.000    0.000    0.000   18.000    0.000    0.000 
#    0.000    0.000    0.000    0.000    0.000    0.000 
#
# Total GULP energy -178240.899545 kJ/mol
# GULP energy per Si atom -5570.028111 kJ/mol
# Density = 1.893227 g / cm^3
# Si number density = 18.975462 Si / 1000 Ang^3
#
#
#
# Elastic Constant Matrix: (Units=GPa)
#
#
# Indices 1 2 3 4 5 6 
#
# 1 128.9515 50.3007 47.1079 0.0002 -0.0001 0.0000
# 2 50.3007 97.9865 27.0997 -0.0002 0.0000 0.0000
# 3 47.1079 27.0997 93.9574 -0.0025 -0.0009 0.0009
# 4 0.0002 -0.0002 -0.0025 22.8874 -0.0001 -0.0001
# 5 -0.0001 0.0000 -0.0009 -0.0001 22.4633 0.0001
# 6 0.0000 0.0000 0.0009 -0.0001 0.0001 12.0542
#
#
#
# Elastic Compliance Matrix: (Units=1/GPa)
#
#
# Indices 1 2 3 4 5 6 
#
# 1 0.011064 -0.004505 -0.004248 -0.000001 0.000000 0.000000
# 2 -0.004505 0.012924 -0.001469 0.000000 0.000000 0.000000
# 3 -0.004248 -0.001469 0.013197 0.000001 0.000000 -0.000001
# 4 -0.000001 0.000000 0.000001 0.043692 0.000000 0.000000
# 5 0.000000 0.000000 0.000000 0.000000 0.044517 0.000000
# 6 0.000000 0.000000 -0.000001 0.000000 0.000000 0.082958
#
#
# Mechanical properties :
#
#
# Convention : Reuss Voigt Hill
#
# Bulk Modulus (GPa) = 59.73250 63.32356 61.52803
# Shear Modulus (GPa) = 21.33324 24.57347 22.95336
#
# Velocity S-wave (km/s) = 3.35663 3.60253 3.48175
# Velocity P-wave (km/s) = 6.82420 7.12377 6.97559
#
# Compressibility (1/GPa) = 0.01674130
#
# Stress axis : x y z
#
# Youngs Moduli (GPa) = 90.38451 77.37375 75.77698
#
# Poissons Ratio (x) = 0.34855 0.32189
# Poissons Ratio (y) = 0.40716 0.11133
# Poissons Ratio (z) = 0.38394 0.11367
#
# Static dielectric constant tensor:
#      x y z
#    x 1.649490 0.000000 0.000000 
#    y 0.000000 1.663190 0.000000 
#    z 0.000000 0.000000 1.812870 
# 
# From -- ./inp_files/2383.got.cif
#   From: 2010.05.17/outbox.cif.g08.bks.cpg/sg74_2_cif.got.tgz:2383.got - 2010.06.03 17:57:02.
