data_PCOD9536822
_publ_section_title
;
Structure prediction by ZEFSAII (Michael W. Deem and Ramdas Pophale) SiO2 
 PCOD9536822
Probable space group: I M M A
;
_chemical_formula_sum "Si O2"
_cell_formula_units_Z 116
_cell_length_a 7.898105
_cell_length_b 26.649484
_cell_length_c 25.119328
_cell_angle_alpha 90.000000
_cell_angle_beta 90.000000
_cell_angle_gamma 90.000000
_cell_volume 5287.126779
_symmetry_space_group_name_H-M "I M M A"
_symmetry_group_IT_number 74
_symmetry_cell_setting 'orthorhombic'
loop_
_space_group_symop_operation_xyz
x,y,z
-x,1/2-y,z
x,-y,-z
-x,1/2+y,-z
-x,-y,-z
x,1/2+y,-z
-x,y,z
x,1/2-y,z
1/2+x,1/2+y,1/2+z
1/2-x,-y,1/2+z
1/2+x,1/2-y,1/2-z
1/2-x,y,1/2-z
1/2-x,1/2-y,1/2-z
1/2+x,y,1/2-z
1/2-x,1/2+y,1/2+z
1/2+x,-y,1/2+z
loop_
_atom_site_type_symbol
_atom_site_label
_atom_site_fract_x
_atom_site_fract_y
_atom_site_fract_z
Si Si1 0.808851 0.321468 0.970731
Si Si2 0.000000 0.250000 0.559492
Si Si3 0.188017 0.535618 0.806155
Si Si4 0.292617 0.856062 0.920137
Si Si5 0.304209 0.422337 0.922829
Si Si6 0.808163 0.465089 0.419922
Si Si7 0.796466 0.692091 0.690590
Si Si8 0.811964 0.584881 0.193092
O O1 0.652260 0.292930 0.943579
O O2 0.793958 0.379131 0.952508
O O3 0.000000 0.304670 0.959096
O O4 0.772831 0.319253 0.034146
O O5 0.250000 0.556132 0.750000
O O6 0.309527 0.542187 0.855858
O O7 0.176741 0.475358 0.800180
O O8 0.000000 0.554168 0.819062
O O9 0.500000 0.856221 0.921751
O O10 0.231095 0.912064 0.936057
O O11 0.239127 0.839663 0.860744
O O12 0.500000 0.422195 0.939714
O O13 0.234598 0.479464 0.930149
O O14 0.297176 0.409265 0.859824
O O15 0.000000 0.466927 0.439961
O O16 0.736086 0.750000 0.685646
O O17 0.750000 0.674429 0.750000
O O18 0.000000 0.692694 0.687978
O O19 0.750000 0.605005 0.250000
O O20 0.000000 0.604278 0.181865
#
# Coordination Sequence:
#
# PCOD9536822 Si02
#       8
#    16   4  16  16  16  16  16  16
#     4  12  26  44  71 101 126 164 208 261 327 390
#     4  12  26  52  72  96 132 152 206 268 334 372
#     4   9  16  26  42  66 104 151 205 260 303 351
#     4  10  21  39  60  88 127 167 215 268 328 389
#     4  10  19  37  59  87 132 171 212 264 315 379
#     4   9  19  33  54  81 118 172 211 250 317 383
#     4   9  19  35  58  82 114 160 213 276 341 391
#     4   9  16  27  47  79 116 159 208 253 302 361
#
# _framework density 21.940083000000001
#
# number of rings (size 3 to 8) (size 9 to 14) (size 15 to 20)
#    0.000    2.207    1.379    1.448    0.966    6.069 
#    0.000    4.138    0.000    0.000    0.000    0.483 
#    0.000    0.000    0.000    0.000    0.000    0.000 
#
# Total GULP energy -322979.460228 kJ/mol
# GULP energy per Si atom -5568.611383 kJ/mol
# Density = 2.189015 g / cm^3
# Si number density = 21.940083 Si / 1000 Ang^3
#
#
#
# Elastic Constant Matrix: (Units=GPa)
#
#
# Indices 1 2 3 4 5 6 
#
# 1 106.7751 23.0548 17.0262 0.0000 0.0000 0.0000
# 2 23.0548 105.7227 29.2297 0.0000 0.0000 0.0000
# 3 17.0262 29.2297 84.3388 0.0000 0.0000 0.0000
# 4 0.0000 0.0000 0.0000 23.9103 0.0000 0.0000
# 5 0.0000 0.0000 0.0000 0.0000 21.6751 0.0000
# 6 0.0000 0.0000 0.0000 0.0000 0.0000 -7.9109
#
#
#
# Elastic Compliance Matrix: (Units=1/GPa)
#
#
# Indices 1 2 3 4 5 6 
#
# 1 0.009974 -0.001790 -0.001393 0.000000 0.000000 0.000000
# 2 -0.001790 0.010782 -0.003376 0.000000 0.000000 0.000000
# 3 -0.001393 -0.003376 0.013308 0.000000 0.000000 0.000000
# 4 0.000000 0.000000 0.000000 0.041823 0.000000 0.000000
# 5 0.000000 0.000000 0.000000 0.000000 0.046136 0.000000
# 6 0.000000 0.000000 0.000000 0.000000 0.000000 -0.126408
#
#
# Mechanical properties :
#
#
# Convention : Reuss Voigt Hill
#
# Bulk Modulus (GPa) = 47.73903 48.38422 48.06163
# Shear Modulus (GPa) = 318.16077 22.70329 170.43203
#
# Velocity S-wave (km/s) = 12.05522 3.22030 8.82323
# Velocity P-wave (km/s) = 14.68254 5.99399 11.21394
#
# Compressibility (1/GPa) = 0.02094722
#
# Stress axis : x y z
#
# Youngs Moduli (GPa) = 100.25964 92.74484 75.14231
#
# Poissons Ratio (x) = 0.16600 0.10469
# Poissons Ratio (y) = 0.17945 0.25365
# Poissons Ratio (z) = 0.13969 0.31306
#
# Static dielectric constant tensor:
#      x y z
#    x 1.809420 0.000000 0.000000 
#    y 0.000000 1.839250 0.000000 
#    z 0.000000 0.000000 1.833970 
# 
# From -- ./inp_files/57684.got.cif
#   From: 2010.05.17/outbox.cif.g08.bks.cpg/sg74_29_cif.got.tgz:57684.got - 2010.06.03 17:57:02.
