data_PCOD9536438
_publ_section_title
;
Structure prediction by ZEFSAII (Michael W. Deem and Ramdas Pophale) SiO2 
 PCOD9536438
Probable space group: I M M A
;
_chemical_formula_sum "Si O2"
_cell_formula_units_Z 104
_cell_length_a 7.829741
_cell_length_b 22.964471
_cell_length_c 26.962409
_cell_angle_alpha 90.000000
_cell_angle_beta 90.000000
_cell_angle_gamma 90.000000
_cell_volume 4847.999141
_symmetry_space_group_name_H-M "I M M A"
_symmetry_group_IT_number 74
_symmetry_cell_setting 'orthorhombic'
loop_
_space_group_symop_operation_xyz
x,y,z
-x,1/2-y,z
x,-y,-z
-x,1/2+y,-z
-x,-y,-z
x,1/2+y,-z
-x,y,z
x,1/2-y,z
1/2+x,1/2+y,1/2+z
1/2-x,-y,1/2+z
1/2+x,1/2-y,1/2-z
1/2-x,y,1/2-z
1/2-x,1/2-y,1/2-z
1/2+x,y,1/2-z
1/2-x,1/2+y,1/2+z
1/2+x,-y,1/2+z
loop_
_atom_site_type_symbol
_atom_site_label
_atom_site_fract_x
_atom_site_fract_y
_atom_site_fract_z
Si Si1 0.791482 0.185426 0.146921
Si Si2 0.704530 0.315794 0.467725
Si Si3 0.305658 0.562124 0.016980
Si Si4 0.705642 0.068954 0.305631
Si Si5 0.305180 0.027453 0.621597
Si Si6 0.795541 0.750000 0.308250
Si Si7 0.705180 0.874724 0.192167
O O1 0.735851 0.250000 0.161700
O O2 0.738866 0.175384 0.089579
O O3 0.733948 0.134240 0.183013
O O4 0.000000 0.184731 0.146967
O O5 0.500000 0.311920 0.466837
O O6 0.765925 0.250000 0.483576
O O7 0.742105 0.374631 0.498688
O O8 0.500000 0.560541 0.998854
O O9 0.294411 0.555342 0.076031
O O10 0.223406 0.500000 0.000000
O O11 0.500000 0.066615 0.308792
O O12 0.750000 0.049656 0.250000
O O13 0.769180 0.029275 0.351238
O O14 0.500000 0.015775 0.605366
O O15 0.301602 0.074677 0.664795
O O16 0.750000 0.750000 0.250000
O O17 0.737440 0.811705 0.328788
O O18 0.000000 0.750000 0.311350
O O19 0.500000 0.880949 0.186505
O O20 0.750000 0.875931 0.250000
#
# Coordination Sequence:
#
# PCOD9536438 Si02
#       7
#    16  16  16  16  16   8  16
#     4   8  15  31  56  83 110 143 183 225 270 327
#     4   9  18  36  63  90 115 149 195 242 289 345
#     4  11  24  40  59  85 116 150 188 236 296 357
#     4  10  21  35  53  79 111 147 186 229 278 328
#     4  11  23  38  56  79 106 144 191 235 283 335
#     4   8  16  30  50  74 100 134 172 212 260 312
#     4  10  19  34  55  79 108 141 180 224 274 330
#
# _framework density 21.45215
#
# number of rings (size 3 to 8) (size 9 to 14) (size 15 to 20)
#    0.000    2.308    0.000    3.692    0.000    6.154 
#    1.385    0.769    0.000    0.923    0.000    0.000 
#    0.000    0.000    0.000    0.000    0.000    0.000 
#
# Total GULP energy -289821.833265 kJ/mol
# GULP energy per Si atom -5573.496794 kJ/mol
# Density = 2.140332 g / cm^3
# Si number density = 21.452150 Si / 1000 Ang^3
#
#
#
# Elastic Constant Matrix: (Units=GPa)
#
#
# Indices 1 2 3 4 5 6 
#
# 1 35.0554 9.2669 -1.1301 0.0000 0.0000 0.0000
# 2 9.2669 113.1135 14.8046 0.0000 0.0000 0.0000
# 3 -1.1301 14.8046 35.8097 0.0000 0.0000 0.0000
# 4 0.0000 0.0000 0.0000 33.9215 0.0000 0.0000
# 5 0.0000 0.0000 0.0000 0.0000 11.1388 0.0000
# 6 0.0000 0.0000 0.0000 0.0000 0.0000 14.0567
#
#
#
# Elastic Compliance Matrix: (Units=1/GPa)
#
#
# Indices 1 2 3 4 5 6 
#
# 1 0.029296 -0.002665 0.002026 0.000000 0.000000 0.000000
# 2 -0.002665 0.009589 -0.004048 0.000000 0.000000 0.000000
# 3 0.002026 -0.004048 0.029663 0.000000 0.000000 0.000000
# 4 0.000000 0.000000 0.000000 0.029480 0.000000 0.000000
# 5 0.000000 0.000000 0.000000 0.000000 0.089776 0.000000
# 6 0.000000 0.000000 0.000000 0.000000 0.000000 0.071141
#
#
# Mechanical properties :
#
#
# Convention : Reuss Voigt Hill
#
# Bulk Modulus (GPa) = 16.89943 25.54016 21.21980
# Shear Modulus (GPa) = 17.35846 22.55922 19.95884
#
# Velocity S-wave (km/s) = 2.84768 3.24637 3.05354
# Velocity P-wave (km/s) = 4.32518 5.09739 4.72708
#
# Compressibility (1/GPa) = 0.05917359
#
# Stress axis : x y z
#
# Youngs Moduli (GPa) = 34.13409 104.28727 33.71201
#
# Poissons Ratio (x) = 0.27796 -0.06832
# Poissons Ratio (y) = 0.09098 0.13648
# Poissons Ratio (z) = -0.06917 0.42220
#
# Static dielectric constant tensor:
#      x y z
#    x 1.840780 0.000000 0.000000 
#    y 0.000000 1.850080 0.000000 
#    z 0.000000 0.000000 1.732820 
# 
# From -- ./inp_files/64435.got.cif
#   From: 2010.05.17/outbox.cif.g08.bks.cpg/sg74_33_cif.got.tgz:64435.got - 2010.06.03 17:57:02.
