data_PCOD9536418
_publ_section_title
;
Structure prediction by ZEFSAII (Michael W. Deem and Ramdas Pophale) SiO2 
 PCOD9536418
Probable space group: I M M A
;
_chemical_formula_sum "Si O2"
_cell_formula_units_Z 88
_cell_length_a 7.605763
_cell_length_b 24.073865
_cell_length_c 21.907385
_cell_angle_alpha 90.000000
_cell_angle_beta 90.000000
_cell_angle_gamma 90.000000
_cell_volume 4011.244640
_symmetry_space_group_name_H-M "I M M A"
_symmetry_group_IT_number 74
_symmetry_cell_setting 'orthorhombic'
loop_
_space_group_symop_operation_xyz
x,y,z
-x,1/2-y,z
x,-y,-z
-x,1/2+y,-z
-x,-y,-z
x,1/2+y,-z
-x,y,z
x,1/2-y,z
1/2+x,1/2+y,1/2+z
1/2-x,-y,1/2+z
1/2+x,1/2-y,1/2-z
1/2-x,y,1/2-z
1/2-x,1/2-y,1/2-z
1/2+x,y,1/2-z
1/2-x,1/2+y,1/2+z
1/2+x,-y,1/2+z
loop_
_atom_site_type_symbol
_atom_site_label
_atom_site_fract_x
_atom_site_fract_y
_atom_site_fract_z
Si Si1 0.250000 0.903619 0.750000
Si Si2 0.787848 0.022355 0.142242
Si Si3 0.705759 0.186350 0.158066
Si Si4 0.203181 0.907669 0.088336
Si Si5 0.290492 0.186630 0.819376
Si Si6 0.208827 0.882006 0.954889
O O1 0.308967 0.948429 0.801192
O O2 0.188883 0.857350 0.800238
O O3 0.765192 0.061711 0.083577
O O4 0.000000 0.021998 0.157509
O O5 0.724605 0.961315 0.123693
O O6 0.500000 0.180995 0.176243
O O7 0.760759 0.250000 0.166012
O O8 0.718009 0.166767 0.087975
O O9 0.210260 0.855371 0.132646
O O10 0.000000 0.923496 0.075717
O O11 0.280880 0.891025 0.022787
O O12 0.500000 0.186162 0.827573
O O13 0.226881 0.250000 0.826970
O O14 0.250000 0.169646 0.750000
O O15 0.000000 0.871289 0.959210
#
# Coordination Sequence:
#
# PCOD9536418 Si02
#       6
#     8  16  16  16  16  16
#     4  10  19  34  54  80 113 146 184 228 278 332
#     4   9  18  33  54  79 110 147 183 222 270 326
#     4  10  21  36  55  80 112 149 188 232 280 327
#     4  10  20  35  58  85 111 143 183 226 275 330
#     4  10  22  40  59  80 108 142 179 223 275 329
#     4   9  19  36  56  79 110 148 187 226 271 326
#
# _framework density 21.938327000000001
#
# number of rings (size 3 to 8) (size 9 to 14) (size 15 to 20)
#    0.000    2.364    0.000    1.909    1.273    5.818 
#    0.000    7.273    0.000    5.455    0.000    0.000 
#    0.000    0.000    0.000    0.000    0.000    0.000 
#
# Total GULP energy -245132.484579 kJ/mol
# GULP energy per Si atom -5571.192831 kJ/mol
# Density = 2.188839 g / cm^3
# Si number density = 21.938327 Si / 1000 Ang^3
#
#
#
# Elastic Constant Matrix: (Units=GPa)
#
#
# Indices 1 2 3 4 5 6 
#
# 1 67.2274 11.2596 14.3402 0.0000 0.0000 0.0000
# 2 11.2596 96.5773 99.9942 0.0000 0.0000 0.0000
# 3 14.3402 99.9942 175.1919 0.0000 0.0000 0.0000
# 4 0.0000 0.0000 0.0000 23.1050 0.0000 0.0000
# 5 0.0000 0.0000 0.0000 0.0000 -3.0359 0.0000
# 6 0.0000 0.0000 0.0000 0.0000 0.0000 145.9746
#
#
#
# Elastic Compliance Matrix: (Units=1/GPa)
#
#
# Indices 1 2 3 4 5 6 
#
# 1 0.015194 -0.001183 -0.000569 0.000000 0.000000 0.000000
# 2 -0.001183 0.025406 -0.014404 0.000000 0.000000 0.000000
# 3 -0.000569 -0.014404 0.013976 0.000000 0.000000 0.000000
# 4 0.000000 0.000000 0.000000 0.043281 0.000000 0.000000
# 5 0.000000 0.000000 0.000000 0.000000 -0.329391 0.000000
# 6 0.000000 0.000000 0.000000 0.000000 0.000000 0.006851
#
#
# Mechanical properties :
#
#
# Convention : Reuss Voigt Hill
#
# Bulk Modulus (GPa) = 44.91284 65.57605 55.24445
# Shear Modulus (GPa) = -27.03433 47.43559 10.20063
#
# Velocity S-wave (km/s) = -3.51420 4.65502 2.15865
# Velocity P-wave (km/s) = 2.01261 7.67126 5.60798
#
# Compressibility (1/GPa) = 0.02226535
#
# Stress axis : x y z
#
# Youngs Moduli (GPa) = 65.81434 39.36049 71.55070
#
# Poissons Ratio (x) = 0.04655 0.04069
# Poissons Ratio (y) = 0.07783 1.03064
# Poissons Ratio (z) = 0.03743 0.56696
#
# Static dielectric constant tensor:
#      x y z
#    x 1.947210 0.000000 0.000000 
#    y 0.000000 1.768270 0.000000 
#    z 0.000000 0.000000 1.779160 
# 
# From -- ./inp_files/48728.got.cif
#   From: 2010.05.17/outbox.cif.g08.bks.cpg/sg74_25_cif.got.tgz:48728.got - 2010.06.03 17:57:02.
