data_PCOD9536135
_publ_section_title
;
Structure prediction by ZEFSAII (Michael W. Deem and Ramdas Pophale) SiO2 
 PCOD9536135
Probable space group: I M M A
;
_chemical_formula_sum "Si O2"
_cell_formula_units_Z 112
_cell_length_a 24.591020
_cell_length_b 15.069106
_cell_length_c 15.843632
_cell_angle_alpha 90.000000
_cell_angle_beta 90.000000
_cell_angle_gamma 90.000000
_cell_volume 5871.090533
_symmetry_space_group_name_H-M "I M M A"
_symmetry_group_IT_number 74
_symmetry_cell_setting 'orthorhombic'
loop_
_space_group_symop_operation_xyz
x,y,z
-x,1/2-y,z
x,-y,-z
-x,1/2+y,-z
-x,-y,-z
x,1/2+y,-z
-x,y,z
x,1/2-y,z
1/2+x,1/2+y,1/2+z
1/2-x,-y,1/2+z
1/2+x,1/2-y,1/2-z
1/2-x,y,1/2-z
1/2-x,1/2-y,1/2-z
1/2+x,y,1/2-z
1/2-x,1/2+y,1/2+z
1/2+x,-y,1/2+z
loop_
_atom_site_type_symbol
_atom_site_label
_atom_site_fract_x
_atom_site_fract_y
_atom_site_fract_z
Si Si1 0.345546 0.902158 0.037804
Si Si2 0.255623 0.345843 0.431837
Si Si3 0.385244 0.989601 0.203599
Si Si4 0.712438 0.002528 0.681805
Si Si5 0.647483 0.405798 0.539118
Si Si6 0.435698 0.148426 0.092138
Si Si7 0.936720 0.848568 0.172157
O O1 0.357476 0.922624 0.135438
O O2 0.290654 0.855943 0.004004
O O3 0.397960 0.860260 0.991140
O O4 0.339850 0.000000 0.000000
O O5 0.247962 0.250000 0.391679
O O6 0.254073 0.425018 0.364354
O O7 0.315945 0.354404 0.471693
O O8 0.421720 0.926722 0.262879
O O9 0.339843 0.030409 0.265945
O O10 0.415479 0.069444 0.154321
O O11 0.750000 0.049077 0.750000
O O12 0.690650 0.067446 0.611114
O O13 0.629154 0.500000 0.500000
O O14 0.598918 0.359179 0.587583
O O15 0.500000 0.135994 0.074330
O O16 0.428679 0.250000 0.124781
O O17 0.925560 0.750000 0.208237
O O18 0.000000 0.854123 0.151805
#
# Coordination Sequence:
#
# PCOD9536135 Si02
#       7
#    16  16  16  16  16  16  16
#     4  10  20  35  54  76 106 144 183 221 265 320
#     4  11  21  33  53  79 107 138 176 223 272 325
#     4  10  21  36  56  78 109 148 182 223 276 331
#     4  10  19  33  52  75 103 136 173 215 265 319
#     4   9  19  36  55  75 102 139 179 221 271 325
#     4  10  21  36  55  80 110 145 186 230 274 325
#     4  10  21  36  55  81 110 141 182 230 277 327
#
# _framework density 19.076523000000002
#
# number of rings (size 3 to 8) (size 9 to 14) (size 15 to 20)
#    0.000    2.000    0.000    5.143    0.000    5.429 
#    0.000    1.429    0.000    4.714    0.000   14.000 
#    0.000    0.000    0.000    0.000    0.000    0.000 
#
# Total GULP energy -312051.415012 kJ/mol
# GULP energy per Si atom -5572.346697 kJ/mol
# Density = 1.903310 g / cm^3
# Si number density = 19.076523 Si / 1000 Ang^3
#
#
#
# Elastic Constant Matrix: (Units=GPa)
#
#
# Indices 1 2 3 4 5 6 
#
# 1 81.9248 37.1714 23.4781 0.0000 0.0000 0.0000
# 2 37.1714 77.9056 13.7730 0.0000 0.0000 0.0000
# 3 23.4781 13.7730 58.0894 0.0000 0.0000 0.0000
# 4 0.0000 0.0000 0.0000 8.5127 0.0000 0.0000
# 5 0.0000 0.0000 0.0000 0.0000 23.6134 0.0000
# 6 0.0000 0.0000 0.0000 0.0000 0.0000 8.7044
#
#
#
# Elastic Compliance Matrix: (Units=1/GPa)
#
#
# Indices 1 2 3 4 5 6 
#
# 1 0.016934 -0.007170 -0.005144 0.000000 0.000000 0.000000
# 2 -0.007170 0.016434 -0.000998 0.000000 0.000000 0.000000
# 3 -0.005144 -0.000998 0.019531 0.000000 0.000000 0.000000
# 4 0.000000 0.000000 0.000000 0.117472 0.000000 0.000000
# 5 0.000000 0.000000 0.000000 0.000000 0.042349 0.000000
# 6 0.000000 0.000000 0.000000 0.000000 0.000000 0.114885
#
#
# Mechanical properties :
#
#
# Convention : Reuss Voigt Hill
#
# Bulk Modulus (GPa) = 38.06240 40.75165 39.40702
# Shear Modulus (GPa) = 13.77459 17.73257 15.75358
#
# Velocity S-wave (km/s) = 2.69005 3.05216 2.87681
# Velocity P-wave (km/s) = 5.44466 5.81631 5.63355
#
# Compressibility (1/GPa) = 0.02627265
#
# Stress axis : x y z
#
# Youngs Moduli (GPa) = 59.05323 60.85034 51.20150
#
# Poissons Ratio (x) = 0.43632 0.26339
# Poissons Ratio (y) = 0.42343 0.05112
# Poissons Ratio (z) = 0.30378 0.06075
#
# Static dielectric constant tensor:
#      x y z
#    x 1.688950 0.000000 0.000000 
#    y 0.000000 1.688740 0.000000 
#    z 0.000000 0.000000 1.678470 
# 
# From -- ./inp_files/36507.got.cif
#   From: 2010.05.17/outbox.cif.g08.bks.cpg/sg74_19_cif.got.tgz:36507.got - 2010.06.03 17:57:02.
