data_PCOD9536809
_publ_section_title
;
Structure prediction by ZEFSAII (Michael W. Deem and Ramdas Pophale) SiO2 
 PCOD9536809
Probable space group: I M M A
;
_chemical_formula_sum "Si O2"
_cell_formula_units_Z 108
_cell_length_a 14.789770
_cell_length_b 15.238902
_cell_length_c 20.166104
_cell_angle_alpha 90.000000
_cell_angle_beta 90.000000
_cell_angle_gamma 90.000000
_cell_volume 4545.033608
_symmetry_space_group_name_H-M "I M M A"
_symmetry_group_IT_number 74
_symmetry_cell_setting 'orthorhombic'
loop_
_space_group_symop_operation_xyz
x,y,z
-x,1/2-y,z
x,-y,-z
-x,1/2+y,-z
-x,-y,-z
x,1/2+y,-z
-x,y,z
x,1/2-y,z
1/2+x,1/2+y,1/2+z
1/2-x,-y,1/2+z
1/2+x,1/2-y,1/2-z
1/2-x,y,1/2-z
1/2-x,1/2-y,1/2-z
1/2+x,y,1/2-z
1/2-x,1/2+y,1/2+z
1/2+x,-y,1/2+z
loop_
_atom_site_type_symbol
_atom_site_label
_atom_site_fract_x
_atom_site_fract_y
_atom_site_fract_z
Si Si1 0.602854 0.565232 0.127018
Si Si2 0.596902 0.853507 0.509496
Si Si3 0.856660 0.650389 0.243542
Si Si4 0.500000 0.007187 0.701388
Si Si5 0.166938 0.378693 0.353297
Si Si6 0.500000 0.250000 0.179881
Si Si7 0.206377 0.853851 0.491284
Si Si8 0.628387 0.347875 0.331699
O O1 0.500000 0.536327 0.120438
O O2 0.608641 0.641726 0.180830
O O3 0.655384 0.482159 0.155561
O O4 0.641868 0.595448 0.057733
O O5 0.500000 0.892763 0.489065
O O6 0.595108 0.750000 0.492837
O O7 0.690986 0.889157 0.482026
O O8 0.606047 0.856619 0.589367
O O9 0.865197 0.750000 0.218392
O O10 0.750000 0.629871 0.250000
O O11 0.919648 0.583144 0.203909
O O12 0.422371 0.928778 0.700173
O O13 0.176108 0.363375 0.432791
O O14 0.263853 0.351048 0.324951
O O15 0.080919 0.325731 0.327822
O O16 0.205839 0.750000 0.476200
O O17 0.597430 0.250000 0.310786
#
# Coordination Sequence:
#
# PCOD9536809 Si02
#       8
#    16  16  16   8  16   4  16  16
#     4  12  25  40  66  96 130 176 232 295 351 413
#     4   8  14  30  57  91 135 185 218 261 329 410
#     4  11  26  50  74  97 131 176 236 304 368 421
#     4  12  22  39  76 106 132 172 238 290 349 423
#     4  11  22  39  64  99 142 190 232 275 339 425
#     4  12  20  38  62  90 144 200 224 256 324 416
#     4  10  21  35  59  96 138 180 232 284 341 416
#     4  10  19  36  66 105 143 179 224 276 348 432
#
# _framework density 23.7622
#
# number of rings (size 3 to 8) (size 9 to 14) (size 15 to 20)
#    0.000    1.481    3.704    3.111    1.037    1.481 
#    0.000    0.000   13.037    4.444    0.000    0.000 
#    0.000    0.000    0.000    0.000    0.000    0.000 
#
# Total GULP energy -300659.842289 kJ/mol
# GULP energy per Si atom -5567.774857 kJ/mol
# Density = 2.370812 g / cm^3
# Si number density = 23.762200 Si / 1000 Ang^3
#
#
#
# Elastic Constant Matrix: (Units=GPa)
#
#
# Indices 1 2 3 4 5 6 
#
# 1 183.8263 68.9990 -11.6869 0.0000 0.0000 0.0000
# 2 68.9990 165.0864 -6.1244 0.0000 0.0000 0.0000
# 3 -11.6869 -6.1244 9.3799 0.0000 0.0000 0.0000
# 4 0.0000 0.0000 0.0000 13.6806 0.0000 0.0000
# 5 0.0000 0.0000 0.0000 0.0000 39.9588 0.0000
# 6 0.0000 0.0000 0.0000 0.0000 0.0000 42.7905
#
#
#
# Elastic Compliance Matrix: (Units=1/GPa)
#
#
# Indices 1 2 3 4 5 6 
#
# 1 0.006855 -0.002611 0.006836 0.000000 0.000000 0.000000
# 2 -0.002611 0.007203 0.001449 0.000000 0.000000 0.000000
# 3 0.006836 0.001449 0.116074 0.000000 0.000000 0.000000
# 4 0.000000 0.000000 0.000000 0.073096 0.000000 0.000000
# 5 0.000000 0.000000 0.000000 0.000000 0.025026 0.000000
# 6 0.000000 0.000000 0.000000 0.000000 0.000000 0.023370
#
#
# Mechanical properties :
#
#
# Convention : Reuss Voigt Hill
#
# Bulk Modulus (GPa) = 7.06826 51.18533 29.12679
# Shear Modulus (GPa) = 17.39522 39.75964 28.57743
#
# Velocity S-wave (km/s) = 2.70859 4.09495 3.47168
# Velocity P-wave (km/s) = 3.57253 6.62915 5.32487
#
# Compressibility (1/GPa) = 0.14147757
#
# Stress axis : x y z
#
# Youngs Moduli (GPa) = 145.88603 138.83807 8.61522
#
# Poissons Ratio (x) = 0.36256 -0.05889
# Poissons Ratio (y) = 0.38096 -0.01248
# Poissons Ratio (z) = -0.99721 -0.20120
#
# Static dielectric constant tensor:
#      x y z
#    x 1.847840 0.000000 0.000000 
#    y 0.000000 1.868080 0.000000 
#    z 0.000000 0.000000 1.937980 
# 
# From -- ./inp_files/60213.got.cif
#   From: 2010.05.17/outbox.cif.g08.bks.cpg/sg74_31_cif.got.tgz:60213.got - 2010.06.03 17:57:02.
