data_PCOD9536682
_publ_section_title
;
Structure prediction by ZEFSAII (Michael W. Deem and Ramdas Pophale) SiO2 
 PCOD9536682
Probable space group: I M M A
;
_chemical_formula_sum "Si O2"
_cell_formula_units_Z 88
_cell_length_a 15.495178
_cell_length_b 28.353326
_cell_length_c 10.860895
_cell_angle_alpha 90.000000
_cell_angle_beta 90.000000
_cell_angle_gamma 90.000000
_cell_volume 4771.623798
_symmetry_space_group_name_H-M "I M M A"
_symmetry_group_IT_number 74
_symmetry_cell_setting 'orthorhombic'
loop_
_space_group_symop_operation_xyz
x,y,z
-x,1/2-y,z
x,-y,-z
-x,1/2+y,-z
-x,-y,-z
x,1/2+y,-z
-x,y,z
x,1/2-y,z
1/2+x,1/2+y,1/2+z
1/2-x,-y,1/2+z
1/2+x,1/2-y,1/2-z
1/2-x,y,1/2-z
1/2-x,1/2-y,1/2-z
1/2+x,y,1/2-z
1/2-x,1/2+y,1/2+z
1/2+x,-y,1/2+z
loop_
_atom_site_type_symbol
_atom_site_label
_atom_site_fract_x
_atom_site_fract_y
_atom_site_fract_z
Si Si1 0.500000 0.589970 0.659784
Si Si2 0.000000 0.897396 0.132228
Si Si3 0.160170 0.454033 0.543744
Si Si4 0.659357 0.864095 0.208641
Si Si5 0.601020 0.694730 0.976791
Si Si6 0.339893 0.115095 0.185283
Si Si7 0.500000 0.989090 0.204432
O O1 0.500000 0.595342 0.513436
O O2 0.585194 0.613544 0.714838
O O3 0.500000 0.537685 0.720924
O O4 0.087446 0.873310 0.186425
O O5 0.000000 0.948382 0.194790
O O6 0.215371 0.500000 0.500000
O O7 0.186982 0.413422 0.640495
O O8 0.140068 0.422982 0.422521
O O9 0.081388 0.478914 0.616132
O O10 0.750000 0.842519 0.250000
O O11 0.615663 0.830947 0.106828
O O12 0.500000 0.688491 0.943218
O O13 0.619947 0.750000 0.982081
O O14 0.658536 0.665736 0.880534
O O15 0.250000 0.103964 0.250000
#
# Coordination Sequence:
#
# PCOD9536682 Si02
#       7
#     8   8  16  16  16  16   8
#     4  12  22  38  60  86 128 168 196 257 298 366
#     4  10  23  37  54  89 127 163 198 253 302 356
#     4  10  19  35  60  83 118 159 210 247 283 343
#     4  10  22  39  61  89 121 159 197 251 304 360
#     4  10  21  42  71  91 110 151 208 258 300 365
#     4  11  24  38  60  94 122 161 201 249 312 363
#     4  10  19  38  59  84 114 169 217 251 291 331
#
# _framework density 18.442359
#
# number of rings (size 3 to 8) (size 9 to 14) (size 15 to 20)
#    0.000    1.636    3.636    1.091    7.636    1.455 
#    0.000    0.000    0.000    1.091    0.000    0.000 
#    0.000    0.000    0.000    0.000    0.000    0.000 
#
# Total GULP energy -245154.663902 kJ/mol
# GULP energy per Si atom -5571.696907 kJ/mol
# Density = 1.840038 g / cm^3
# Si number density = 18.442359 Si / 1000 Ang^3
#
#
#
# Elastic Constant Matrix: (Units=GPa)
#
#
# Indices 1 2 3 4 5 6 
#
# 1 79.1868 7.4644 44.5532 0.0000 0.0000 0.0000
# 2 7.4644 93.4132 35.3222 0.0003 0.0000 0.0000
# 3 44.5532 35.3222 155.4487 0.0003 -0.0001 0.0000
# 4 0.0000 0.0003 0.0003 13.1742 -0.0001 0.0000
# 5 0.0000 0.0000 -0.0001 -0.0001 8.2057 0.0000
# 6 0.0000 0.0000 0.0000 0.0000 0.0000 10.8877
#
#
#
# Elastic Compliance Matrix: (Units=1/GPa)
#
#
# Indices 1 2 3 4 5 6 
#
# 1 0.015075 0.000469 -0.004427 0.000000 0.000000 0.000000
# 2 0.000469 0.011726 -0.002799 0.000000 0.000000 0.000000
# 3 -0.004427 -0.002799 0.008338 0.000000 0.000000 0.000000
# 4 0.000000 0.000000 0.000000 0.075906 0.000001 0.000000
# 5 0.000000 0.000000 0.000000 0.000001 0.121866 0.000000
# 6 0.000000 0.000000 0.000000 0.000000 0.000000 0.091846
#
#
# Mechanical properties :
#
#
# Convention : Reuss Voigt Hill
#
# Bulk Modulus (GPa) = 46.24225 55.85870 51.05048
# Shear Modulus (GPa) = 14.47263 22.50080 18.48672
#
# Velocity S-wave (km/s) = 2.80438 3.49673 3.16951
# Velocity P-wave (km/s) = 5.96778 6.83058 6.41370
#
# Compressibility (1/GPa) = 0.02162525
#
# Stress axis : x y z
#
# Youngs Moduli (GPa) = 66.33454 85.28059 119.93378
#
# Poissons Ratio (x) = -0.04004 0.53099
# Poissons Ratio (y) = -0.03114 0.33570
# Poissons Ratio (z) = 0.29369 0.23870
#
# Static dielectric constant tensor:
#      x y z
#    x 1.631130 0.000000 0.000000 
#    y 0.000000 1.645200 0.000000 
#    z 0.000000 0.000000 1.656280 
# 
# From -- ./inp_files/11281.got.cif
#   From: 2010.05.17/outbox.cif.g08.bks.cpg/sg74_6_cif.got.tgz:11281.got - 2010.06.03 17:57:02.
