data_PCOD9536853
_publ_section_title
;
Structure prediction by ZEFSAII (Michael W. Deem and Ramdas Pophale) SiO2 
 PCOD9536853
Probable space group: I M M A
;
_chemical_formula_sum "Si O2"
_cell_formula_units_Z 64
_cell_length_a 24.068825
_cell_length_b 9.139050
_cell_length_c 15.045989
_cell_angle_alpha 90.000000
_cell_angle_beta 90.000000
_cell_angle_gamma 90.000000
_cell_volume 3309.608952
_symmetry_space_group_name_H-M "I M M A"
_symmetry_group_IT_number 74
_symmetry_cell_setting 'orthorhombic'
loop_
_space_group_symop_operation_xyz
x,y,z
-x,1/2-y,z
x,-y,-z
-x,1/2+y,-z
-x,-y,-z
x,1/2+y,-z
-x,y,z
x,1/2-y,z
1/2+x,1/2+y,1/2+z
1/2-x,-y,1/2+z
1/2+x,1/2-y,1/2-z
1/2-x,y,1/2-z
1/2-x,1/2-y,1/2-z
1/2+x,y,1/2-z
1/2-x,1/2+y,1/2+z
1/2+x,-y,1/2+z
loop_
_atom_site_type_symbol
_atom_site_label
_atom_site_fract_x
_atom_site_fract_y
_atom_site_fract_z
Si Si1 0.816175 0.922261 0.758146
Si Si2 0.000000 0.543327 0.395750
Si Si3 0.612599 0.924262 0.404477
Si Si4 0.000000 0.424576 0.793102
Si Si5 0.129697 0.413968 0.591796
O O1 0.830100 0.750000 0.761738
O O2 0.750000 0.936732 0.750000
O O3 0.839620 0.003489 0.844719
O O4 0.844547 0.996876 0.672939
O O5 0.000000 0.500000 0.500000
O O6 0.936599 0.600634 0.392973
O O7 0.000000 0.475432 0.295489
O O8 0.620852 0.750000 0.413103
O O9 0.554768 0.947520 0.351479
O O10 0.609875 0.000000 0.500000
O O11 0.000000 0.250000 0.765042
O O12 0.138687 0.500000 0.500000
O O13 0.153127 0.250000 0.587299
#
# Coordination Sequence:
#
# PCOD9536853 Si02
#       5
#    16   8  16   8  16
#     4  11  25  44  64  89 122 161 211 264 311 365
#     4  10  20  35  62  98 133 165 200 248 309 377
#     4  11  23  41  67  94 127 166 207 257 311 372
#     4  10  19  37  64  94 129 165 203 251 308 373
#     4  11  22  39  64  93 128 164 202 248 306 372
#
# _framework density 19.337633
#
# number of rings (size 3 to 8) (size 9 to 14) (size 15 to 20)
#    0.000    1.250    2.500    3.750    0.000    3.000 
#    0.000    5.000    0.000    0.000    0.000    0.000 
#    0.000    0.000    0.000    0.000    0.000    0.000 
#
# Total GULP energy -178303.088825 kJ/mol
# GULP energy per Si atom -5571.971526 kJ/mol
# Density = 1.929362 g / cm^3
# Si number density = 19.337633 Si / 1000 Ang^3
#
#
#
# Elastic Constant Matrix: (Units=GPa)
#
#
# Indices 1 2 3 4 5 6 
#
# 1 83.7749 63.8565 57.1475 0.0000 0.0000 0.0000
# 2 63.8565 141.9851 88.5317 0.0000 0.0000 0.0000
# 3 57.1475 88.5317 201.8226 0.0000 0.0000 0.0000
# 4 0.0000 0.0000 0.0000 29.4301 0.0000 0.0000
# 5 0.0000 0.0000 0.0000 0.0000 10.2878 0.0000
# 6 0.0000 0.0000 0.0000 0.0000 0.0000 -81.1342
#
#
#
# Elastic Compliance Matrix: (Units=1/GPa)
#
#
# Indices 1 2 3 4 5 6 
#
# 1 0.018865 -0.007094 -0.002230 0.000000 0.000000 0.000000
# 2 -0.007094 0.012362 -0.003414 0.000000 0.000000 0.000000
# 3 -0.002230 -0.003414 0.007084 0.000000 0.000000 0.000000
# 4 0.000000 0.000000 0.000000 0.033979 0.000000 0.000000
# 5 0.000000 0.000000 0.000000 0.000000 0.097203 0.000000
# 6 0.000000 0.000000 0.000000 0.000000 0.000000 -0.012325
#
#
# Mechanical properties :
#
#
# Convention : Reuss Voigt Hill
#
# Bulk Modulus (GPa) = 77.91058 94.07268 85.99163
# Shear Modulus (GPa) = 26.74909 6.25319 16.50114
#
# Velocity S-wave (km/s) = 3.72326 1.80020 2.92433
# Velocity P-wave (km/s) = 7.67207 7.28519 7.48113
#
# Compressibility (1/GPa) = 0.01283523
#
# Stress axis : x y z
#
# Youngs Moduli (GPa) = 53.00738 80.89127 141.16489
#
# Poissons Ratio (x) = 0.57385 0.31479
# Poissons Ratio (y) = 0.37604 0.48195
# Poissons Ratio (z) = 0.11820 0.27617
#
# Static dielectric constant tensor:
#      x y z
#    x 1.647020 0.000000 0.000000 
#    y 0.000000 1.687120 0.000000 
#    z 0.000000 0.000000 1.648500 
# 
# From -- ./inp_files/36002.got.cif
#   From: 2010.05.17/outbox.cif.g08.bks.cpg/sg74_19_cif.got.tgz:36002.got - 2010.06.03 17:57:02.
