data_PCOD9536234
_publ_section_title
;
Structure prediction by ZEFSAII (Michael W. Deem and Ramdas Pophale) SiO2 
 PCOD9536234
Probable space group: I M M A
;
_chemical_formula_sum "Si O2"
_cell_formula_units_Z 80
_cell_length_a 23.957064
_cell_length_b 15.073091
_cell_length_c 9.504075
_cell_angle_alpha 90.000000
_cell_angle_beta 90.000000
_cell_angle_gamma 90.000000
_cell_volume 3431.988066
_symmetry_space_group_name_H-M "I M M A"
_symmetry_group_IT_number 74
_symmetry_cell_setting 'orthorhombic'
loop_
_space_group_symop_operation_xyz
x,y,z
-x,1/2-y,z
x,-y,-z
-x,1/2+y,-z
-x,-y,-z
x,1/2+y,-z
-x,y,z
x,1/2-y,z
1/2+x,1/2+y,1/2+z
1/2-x,-y,1/2+z
1/2+x,1/2-y,1/2-z
1/2-x,y,1/2-z
1/2-x,1/2-y,1/2-z
1/2+x,y,1/2-z
1/2-x,1/2+y,1/2+z
1/2+x,-y,1/2+z
loop_
_atom_site_type_symbol
_atom_site_label
_atom_site_fract_x
_atom_site_fract_y
_atom_site_fract_z
Si Si1 0.215418 0.643166 0.541724
Si Si2 0.397076 0.077088 0.171814
Si Si3 0.061941 0.620834 0.391099
Si Si4 0.658057 0.356861 0.438800
Si Si5 0.674483 0.151986 0.744411
O O1 0.203276 0.750000 0.553940
O O2 0.166184 0.586793 0.611330
O O3 0.276969 0.629415 0.603243
O O4 0.213067 0.620136 0.373835
O O5 0.387369 0.103728 0.332608
O O6 0.425436 0.982130 0.148620
O O7 0.431245 0.135345 0.058867
O O8 0.114623 0.662807 0.317354
O O9 0.000000 0.644969 0.346006
O O10 0.648472 0.250000 0.438380
O O11 0.660033 0.395097 0.597729
O O12 0.694662 0.250000 0.701937
#
# Coordination Sequence:
#
# PCOD9536234 Si02
#       5
#    16  16  16  16  16
#     4   9  17  32  55  81 114 152 177 201 253 325
#     4  10  19  33  54  81 106 137 180 221 265 320
#     4  10  22  41  58  71  99 144 187 231 282 327
#     4  10  19  33  55  85 118 143 169 216 269 316
#     4   9  19  36  57  81 108 142 184 220 260 324
#
# _framework density 23.310105
#
# number of rings (size 3 to 8) (size 9 to 14) (size 15 to 20)
#    0.000    2.400    0.000    3.000    0.000    6.000 
#    0.000   17.000    0.000    9.600    0.000    0.000 
#    0.000    0.000    0.000    0.000    0.000    0.000 
#
# Total GULP energy -222962.173798 kJ/mol
# GULP energy per Si atom -5574.054345 kJ/mol
# Density = 2.325705 g / cm^3
# Si number density = 23.310105 Si / 1000 Ang^3
#
#
#
# Elastic Constant Matrix: (Units=GPa)
#
#
# Indices 1 2 3 4 5 6 
#
# 1 95.4753 11.1668 15.9896 0.0000 0.0000 0.0000
# 2 11.1668 46.6256 3.7041 0.0000 0.0000 0.0000
# 3 15.9896 3.7041 125.6992 0.0000 0.0000 0.0000
# 4 0.0000 0.0000 0.0000 31.5977 0.0000 0.0000
# 5 0.0000 0.0000 0.0000 0.0000 21.5904 0.0000
# 6 0.0000 0.0000 0.0000 0.0000 0.0000 36.0246
#
#
#
# Elastic Compliance Matrix: (Units=1/GPa)
#
#
# Indices 1 2 3 4 5 6 
#
# 1 0.010991 -0.002527 -0.001324 0.000000 0.000000 0.000000
# 2 -0.002527 0.022079 -0.000329 0.000000 0.000000 0.000000
# 3 -0.001324 -0.000329 0.008134 0.000000 0.000000 0.000000
# 4 0.000000 0.000000 0.000000 0.031648 0.000000 0.000000
# 5 0.000000 0.000000 0.000000 0.000000 0.046317 0.000000
# 6 0.000000 0.000000 0.000000 0.000000 0.000000 0.027759
#
#
# Mechanical properties :
#
#
# Convention : Reuss Voigt Hill
#
# Bulk Modulus (GPa) = 30.44735 36.61345 33.53040
# Shear Modulus (GPa) = 30.07789 33.63853 31.85821
#
# Velocity S-wave (km/s) = 3.59602 3.80292 3.70092
# Velocity P-wave (km/s) = 5.50746 5.91812 5.71648
#
# Compressibility (1/GPa) = 0.03284358
#
# Stress axis : x y z
#
# Youngs Moduli (GPa) = 90.98212 45.29217 122.94718
#
# Poissons Ratio (x) = 0.11446 0.16274
# Poissons Ratio (y) = 0.22993 0.04047
# Poissons Ratio (z) = 0.12043 0.01491
#
# Static dielectric constant tensor:
#      x y z
#    x 1.823040 0.000000 0.000000 
#    y 0.000000 2.043230 0.000000 
#    z 0.000000 0.000000 1.988240 
# 
# From -- ./inp_files/14938.got.cif
#   From: 2010.05.17/outbox.cif.g08.bks.cpg/sg74_8_cif.got.tgz:14938.got - 2010.06.03 17:57:02.
