data_PCOD9536326
_publ_section_title
;
Structure prediction by ZEFSAII (Michael W. Deem and Ramdas Pophale) SiO2 
 PCOD9536326
Probable space group: I M M A
;
_chemical_formula_sum "Si O2"
_cell_formula_units_Z 64
_cell_length_a 17.640747
_cell_length_b 20.997859
_cell_length_c 10.005219
_cell_angle_alpha 90.000000
_cell_angle_beta 90.000000
_cell_angle_gamma 90.000000
_cell_volume 3706.112393
_symmetry_space_group_name_H-M "I M M A"
_symmetry_group_IT_number 74
_symmetry_cell_setting 'orthorhombic'
loop_
_space_group_symop_operation_xyz
x,y,z
-x,1/2-y,z
x,-y,-z
-x,1/2+y,-z
-x,-y,-z
x,1/2+y,-z
-x,y,z
x,1/2-y,z
1/2+x,1/2+y,1/2+z
1/2-x,-y,1/2+z
1/2+x,1/2-y,1/2-z
1/2-x,y,1/2-z
1/2-x,1/2-y,1/2-z
1/2+x,y,1/2-z
1/2-x,1/2+y,1/2+z
1/2+x,-y,1/2+z
loop_
_atom_site_type_symbol
_atom_site_label
_atom_site_fract_x
_atom_site_fract_y
_atom_site_fract_z
Si Si1 0.322640 0.679874 0.583765
Si Si2 0.591250 0.750000 0.368751
Si Si3 0.220639 0.445062 0.394335
Si Si4 0.409588 0.141494 0.147438
Si Si5 0.408881 0.750000 0.063631
O O1 0.284398 0.750000 0.598187
O O2 0.375194 0.690553 0.453452
O O3 0.266678 0.620333 0.574185
O O4 0.374119 0.668528 0.714888
O O5 0.500000 0.750000 0.373344
O O6 0.619504 0.750000 0.215829
O O7 0.232979 0.500000 0.500000
O O8 0.250000 0.466491 0.250000
O O9 0.133273 0.424258 0.381296
O O10 0.500000 0.136931 0.159050
O O11 0.390251 0.188739 0.025390
O O12 0.500000 0.750000 0.075476
#
# Coordination Sequence:
#
# PCOD9536326 Si02
#       5
#    16   8  16  16   8
#     4   9  19  34  57  82 106 143 182 230 272 332
#     4   9  17  30  51  82 113 139 170 224 278 321
#     4  10  23  39  56  77 111 149 187 228 273 328
#     4  10  19  33  57  82 107 141 182 225 274 330
#     4   9  17  28  47  82 114 131 162 222 282 323
#
# _framework density 17.26877
#
# number of rings (size 3 to 8) (size 9 to 14) (size 15 to 20)
#    0.750    1.750    1.250    0.750    1.750    4.000 
#    0.000    1.250    0.000   18.750    0.000    0.000 
#    0.000    0.000    0.000    0.000    0.000    0.000 
#
# Total GULP energy -178222.744988 kJ/mol
# GULP energy per Si atom -5569.460781 kJ/mol
# Density = 1.722947 g / cm^3
# Si number density = 17.268770 Si / 1000 Ang^3
#
#
#
# Elastic Constant Matrix: (Units=GPa)
#
#
# Indices 1 2 3 4 5 6 
#
# 1 80.1529 45.6923 44.1187 0.0000 0.0000 0.0000
# 2 45.6923 107.4053 67.3641 0.0000 0.0000 0.0000
# 3 44.1187 67.3641 143.0520 0.0000 0.0000 0.0000
# 4 0.0000 0.0000 0.0000 18.7989 0.0000 0.0000
# 5 0.0000 0.0000 0.0000 0.0000 19.7362 0.0000
# 6 0.0000 0.0000 0.0000 0.0000 0.0000 3.8992
#
#
#
# Elastic Compliance Matrix: (Units=1/GPa)
#
#
# Indices 1 2 3 4 5 6 
#
# 1 0.017140 -0.005643 -0.002629 0.000000 0.000000 0.000000
# 2 -0.005643 0.015071 -0.005357 0.000000 0.000000 0.000000
# 3 -0.002629 -0.005357 0.010324 0.000000 0.000000 0.000000
# 4 0.000000 0.000000 0.000000 0.053195 0.000000 0.000000
# 5 0.000000 0.000000 0.000000 0.000000 0.050668 0.000000
# 6 0.000000 0.000000 0.000000 0.000000 0.000000 0.256465
#
#
# Mechanical properties :
#
#
# Convention : Reuss Voigt Hill
#
# Bulk Modulus (GPa) = 65.45472 71.66228 68.55850
# Shear Modulus (GPa) = 11.48867 20.04919 15.76893
#
# Velocity S-wave (km/s) = 2.58211 3.41105 3.02511
# Velocity P-wave (km/s) = 6.84657 7.55659 7.21032
#
# Compressibility (1/GPa) = 0.01527774
#
# Stress axis : x y z
#
# Youngs Moduli (GPa) = 58.34315 66.35367 96.86456
#
# Poissons Ratio (x) = 0.37442 0.25464
# Poissons Ratio (y) = 0.32922 0.51886
# Poissons Ratio (z) = 0.15338 0.35543
#
# Static dielectric constant tensor:
#      x y z
#    x 1.606060 0.000000 0.000000 
#    y 0.000000 1.574070 0.000000 
#    z 0.000000 0.000000 1.589590 
# 
# From -- ./inp_files/12077.got.cif
#   From: 2010.05.17/outbox.cif.g08.bks.cpg/sg74_7_cif.got.tgz:12077.got - 2010.06.03 17:57:02.
