data_PCOD9536222
_publ_section_title
;
Structure prediction by ZEFSAII (Michael W. Deem and Ramdas Pophale) SiO2 
 PCOD9536222
Probable space group: I M M A
;
_chemical_formula_sum "Si O2"
_cell_formula_units_Z 88
_cell_length_a 19.095820
_cell_length_b 7.799414
_cell_length_c 28.947787
_cell_angle_alpha 90.000000
_cell_angle_beta 90.000000
_cell_angle_gamma 90.000000
_cell_volume 4311.373564
_symmetry_space_group_name_H-M "I M M A"
_symmetry_group_IT_number 74
_symmetry_cell_setting 'orthorhombic'
loop_
_space_group_symop_operation_xyz
x,y,z
-x,1/2-y,z
x,-y,-z
-x,1/2+y,-z
-x,-y,-z
x,1/2+y,-z
-x,y,z
x,1/2-y,z
1/2+x,1/2+y,1/2+z
1/2-x,-y,1/2+z
1/2+x,1/2-y,1/2-z
1/2-x,y,1/2-z
1/2-x,1/2-y,1/2-z
1/2+x,y,1/2-z
1/2-x,1/2+y,1/2+z
1/2+x,-y,1/2+z
loop_
_atom_site_type_symbol
_atom_site_label
_atom_site_fract_x
_atom_site_fract_y
_atom_site_fract_z
Si Si1 0.187965 0.457289 0.214793
Si Si2 0.367821 0.545970 0.887184
Si Si3 0.711012 0.550252 0.390675
Si Si4 0.422361 0.043149 0.553918
Si Si5 0.500000 0.456908 0.053780
Si Si6 0.080277 0.540438 0.711522
O O1 0.188914 0.250000 0.210602
O O2 0.250000 0.504070 0.250000
O O3 0.198548 0.527715 0.163914
O O4 0.118040 0.513116 0.241468
O O5 0.377803 0.750000 0.884786
O O6 0.288226 0.517755 0.902442
O O7 0.429705 0.479354 0.920266
O O8 0.379721 0.481514 0.834733
O O9 0.713491 0.750000 0.401891
O O10 0.644059 0.475021 0.417600
O O11 0.500000 0.980519 0.568621
O O12 0.423372 0.250000 0.558638
O O13 0.414160 0.000000 0.500000
O O14 0.500000 0.250000 0.057234
O O15 0.500000 0.500000 0.000000
O O16 0.082242 0.750000 0.711513
O O17 0.000000 0.487311 0.708694
#
# Coordination Sequence:
#
# PCOD9536222 Si02
#       6
#    16  16  16  16   8  16
#     4  10  19  33  54  79 107 144 186 228 269 317
#     4  10  19  36  59  80 105 147 193 230 274 328
#     4  11  23  36  55  85 119 148 179 228 286 340
#     4   9  20  40  62  82 108 145 184 227 280 336
#     4  10  22  38  60  84 112 150 190 238 289 334
#     4   9  16  30  54  79 102 135 188 237 268 310
#
# _framework density 20.411128999999999
#
# number of rings (size 3 to 8) (size 9 to 14) (size 15 to 20)
#    0.000    2.182    2.727    0.545    0.000    4.000 
#    0.000    3.636    0.000    1.091    0.000    0.000 
#    0.000    0.000    0.000    0.000    0.000    0.000 
#
# Total GULP energy -245536.794605 kJ/mol
# GULP energy per Si atom -5580.381696 kJ/mol
# Density = 2.036467 g / cm^3
# Si number density = 20.411129 Si / 1000 Ang^3
#
#
#
# Elastic Constant Matrix: (Units=GPa)
#
#
# Indices 1 2 3 4 5 6 
#
# 1 188.0437 3.1607 76.7263 0.0000 0.0000 0.0000
# 2 3.1607 19.0165 -4.4836 0.0000 0.0000 0.0000
# 3 76.7263 -4.4836 87.7022 0.0000 0.0000 0.0000
# 4 0.0000 0.0000 0.0000 22.7803 0.0000 0.0000
# 5 0.0000 0.0000 0.0000 0.0000 40.6465 0.0000
# 6 0.0000 0.0000 0.0000 0.0000 0.0000 16.5304
#
#
#
# Elastic Compliance Matrix: (Units=1/GPa)
#
#
# Indices 1 2 3 4 5 6 
#
# 1 0.008457 -0.003188 -0.007561 0.000000 0.000000 0.000000
# 2 -0.003188 0.054429 0.005572 0.000000 0.000000 0.000000
# 3 -0.007561 0.005572 0.018302 0.000000 0.000000 0.000000
# 4 0.000000 0.000000 0.000000 0.043898 0.000000 0.000000
# 5 0.000000 0.000000 0.000000 0.000000 0.024602 0.000000
# 6 0.000000 0.000000 0.000000 0.000000 0.000000 0.060494
#
#
# Mechanical properties :
#
#
# Convention : Reuss Voigt Hill
#
# Bulk Modulus (GPa) = 14.11777 49.50768 31.81273
# Shear Modulus (GPa) = 20.47929 30.61538 25.54733
#
# Velocity S-wave (km/s) = 3.17099 3.87710 3.54169
# Velocity P-wave (km/s) = 4.50984 6.65961 5.68723
#
# Compressibility (1/GPa) = 0.07083272
#
# Stress axis : x y z
#
# Youngs Moduli (GPa) = 118.24917 18.37241 54.63845
#
# Poissons Ratio (x) = 0.05858 0.41314
# Poissons Ratio (y) = 0.37702 -0.30444
# Poissons Ratio (z) = 0.89412 -0.10237
#
# Static dielectric constant tensor:
#      x y z
#    x 1.756400 0.000000 0.000000 
#    y 0.000000 1.759720 0.000000 
#    z 0.000000 0.000000 1.687730 
# 
# From -- ./inp_files/70295.got.cif
#   From: 2010.05.17/outbox.cif.g08.bks.cpg/sg74_36_cif.got.tgz:70295.got - 2010.06.03 17:57:02.
