data_PCOD9536017
_publ_section_title
;
Structure prediction by ZEFSAII (Michael W. Deem and Ramdas Pophale) SiO2 
 PCOD9536017
Probable space group: I M M A
;
_chemical_formula_sum "Si O2"
_cell_formula_units_Z 104
_cell_length_a 9.213764
_cell_length_b 23.327382
_cell_length_c 25.345504
_cell_angle_alpha 90.000000
_cell_angle_beta 90.000000
_cell_angle_gamma 90.000000
_cell_volume 5447.585021
_symmetry_space_group_name_H-M "I M M A"
_symmetry_group_IT_number 74
_symmetry_cell_setting 'orthorhombic'
loop_
_space_group_symop_operation_xyz
x,y,z
-x,1/2-y,z
x,-y,-z
-x,1/2+y,-z
-x,-y,-z
x,1/2+y,-z
-x,y,z
x,1/2-y,z
1/2+x,1/2+y,1/2+z
1/2-x,-y,1/2+z
1/2+x,1/2-y,1/2-z
1/2-x,y,1/2-z
1/2-x,1/2-y,1/2-z
1/2+x,y,1/2-z
1/2-x,1/2+y,1/2+z
1/2+x,-y,1/2+z
loop_
_atom_site_type_symbol
_atom_site_label
_atom_site_fract_x
_atom_site_fract_y
_atom_site_fract_z
Si Si1 0.841913 0.814805 0.832162
Si Si2 0.329558 0.625203 0.919810
Si Si3 0.171149 0.317416 0.626912
Si Si4 0.750000 0.595220 0.750000
Si Si5 0.828365 0.817068 0.014900
Si Si6 0.672998 0.087117 0.693655
Si Si7 0.835569 0.481767 0.347053
O O1 0.823451 0.750000 0.812718
O O2 0.718456 0.831583 0.873317
O O3 0.841506 0.861121 0.785715
O O4 0.000000 0.818057 0.859364
O O5 0.500000 0.630659 0.931196
O O6 0.235832 0.641739 0.970316
O O7 0.303687 0.562503 0.894371
O O8 0.184180 0.250000 0.640019
O O9 0.240548 0.325396 0.569061
O O10 0.260445 0.356457 0.667029
O O11 0.000000 0.332166 0.627077
O O12 0.828398 0.555055 0.707295
O O13 0.808577 0.750000 0.998773
O O14 0.000000 0.826179 0.023152
O O15 0.500000 0.089838 0.699021
O O16 0.750000 0.079106 0.750000
O O17 0.722171 0.032832 0.658526
O O18 0.000000 0.503901 0.353033
#
# Coordination Sequence:
#
# PCOD9536017 Si02
#       7
#    16  16  16   8  16  16  16
#     4  10  20  32  47  72 107 147 194 247 301 354
#     4  10  21  35  54  81 114 154 201 250 297 345
#     4  10  22  42  68  96 125 155 189 233 288 350
#     4  10  19  32  54  74 103 144 196 244 300 352
#     4  10  20  36  60  89 122 159 199 243 295 354
#     4  12  25  41  65  92 123 158 195 239 289 350
#     4  10  21  37  56  81 113 151 201 251 296 346
#
# _framework density 19.091028999999999
#
# number of rings (size 3 to 8) (size 9 to 14) (size 15 to 20)
#    0.000    1.692    0.769    3.923    0.000    8.000 
#    0.000    0.769    0.000    4.615    0.000    0.000 
#    0.000    0.000    0.000    0.000    0.000    0.000 
#
# Total GULP energy -290311.749470 kJ/mol
# GULP energy per Si atom -5582.918259 kJ/mol
# Density = 1.904758 g / cm^3
# Si number density = 19.091029 Si / 1000 Ang^3
#
#
#
# Elastic Constant Matrix: (Units=GPa)
#
#
# Indices 1 2 3 4 5 6 
#
# 1 154.2930 61.8940 41.7747 0.0000 0.0000 0.0000
# 2 61.8940 76.8672 31.1720 0.0000 0.0000 0.0000
# 3 41.7747 31.1720 38.1519 0.0000 0.0000 0.0000
# 4 0.0000 0.0000 0.0000 25.1335 0.0000 0.0000
# 5 0.0000 0.0000 0.0000 0.0000 29.0425 0.0000
# 6 0.0000 0.0000 0.0000 0.0000 0.0000 37.1294
#
#
#
# Elastic Compliance Matrix: (Units=1/GPa)
#
#
# Indices 1 2 3 4 5 6 
#
# 1 0.010689 -0.005773 -0.006987 0.000000 0.000000 0.000000
# 2 -0.005773 0.022574 -0.012123 0.000000 0.000000 0.000000
# 3 -0.006987 -0.012123 0.043766 0.000000 0.000000 0.000000
# 4 0.000000 0.000000 0.000000 0.039788 0.000000 0.000000
# 5 0.000000 0.000000 0.000000 0.000000 0.034432 0.000000
# 6 0.000000 0.000000 0.000000 0.000000 0.000000 0.026933
#
#
# Mechanical properties :
#
#
# Convention : Reuss Voigt Hill
#
# Bulk Modulus (GPa) = 36.67897 59.88817 48.28357
# Shear Modulus (GPa) = 21.09393 27.22585 24.15989
#
# Velocity S-wave (km/s) = 3.32763 3.78048 3.56126
# Velocity P-wave (km/s) = 5.83254 7.10591 6.50048
#
# Compressibility (1/GPa) = 0.02726358
#
# Stress axis : x y z
#
# Youngs Moduli (GPa) = 93.55617 44.29801 22.84883
#
# Poissons Ratio (x) = 0.25575 0.15964
# Poissons Ratio (y) = 0.54014 0.27699
# Poissons Ratio (z) = 0.65364 0.53701
#
# Static dielectric constant tensor:
#      x y z
#    x 1.656760 0.000000 0.000000 
#    y 0.000000 1.662940 0.000000 
#    z 0.000000 0.000000 1.651650 
# 
# From -- ./inp_files/64527.got.cif
#   From: 2010.05.17/outbox.cif.g08.bks.cpg/sg74_33_cif.got.tgz:64527.got - 2010.06.03 17:57:02.
