data_PCOD9536963
_publ_section_title
;
Structure prediction by ZEFSAII (Michael W. Deem and Ramdas Pophale) SiO2 
 PCOD9536963
Probable space group: I M M A
;
_chemical_formula_sum "Si O2"
_cell_formula_units_Z 112
_cell_length_a 28.178222
_cell_length_b 14.116226
_cell_length_c 14.432759
_cell_angle_alpha 90.000000
_cell_angle_beta 90.000000
_cell_angle_gamma 90.000000
_cell_volume 5740.920713
_symmetry_space_group_name_H-M "I M M A"
_symmetry_group_IT_number 74
_symmetry_cell_setting 'orthorhombic'
loop_
_space_group_symop_operation_xyz
x,y,z
-x,1/2-y,z
x,-y,-z
-x,1/2+y,-z
-x,-y,-z
x,1/2+y,-z
-x,y,z
x,1/2-y,z
1/2+x,1/2+y,1/2+z
1/2-x,-y,1/2+z
1/2+x,1/2-y,1/2-z
1/2-x,y,1/2-z
1/2-x,1/2-y,1/2-z
1/2+x,y,1/2-z
1/2-x,1/2+y,1/2+z
1/2+x,-y,1/2+z
loop_
_atom_site_type_symbol
_atom_site_label
_atom_site_fract_x
_atom_site_fract_y
_atom_site_fract_z
Si Si1 0.662506 0.138333 0.456090
Si Si2 0.865895 0.051346 0.853672
Si Si3 0.646113 0.089120 0.068829
Si Si4 0.947568 0.638651 0.484561
Si Si5 0.556817 0.137316 0.775873
Si Si6 0.235596 0.854570 0.460851
Si Si7 0.295933 0.512054 0.207171
O O1 0.657306 0.250000 0.431184
O O2 0.637497 0.114947 0.554296
O O3 0.718383 0.118742 0.478276
O O4 0.642770 0.057859 0.386285
O O5 0.913064 0.076728 0.796768
O O6 0.822117 0.074111 0.784705
O O7 0.664060 0.057339 0.168307
O O8 0.593332 0.127109 0.059544
O O9 0.688964 0.148755 0.025054
O O10 0.644759 0.000000 0.000000
O O11 0.951938 0.750000 0.468610
O O12 0.932999 0.603002 0.381756
O O13 0.000000 0.603375 0.510509
O O14 0.500000 0.129773 0.763402
O O15 0.569278 0.250000 0.767476
O O16 0.245085 0.750000 0.422395
O O17 0.223265 0.926453 0.378702
O O18 0.250000 0.462555 0.250000
#
# Coordination Sequence:
#
# PCOD9536963 Si02
#       7
#    16  16  16  16  16  16  16
#     4  10  22  38  56  80 110 152 195 237 293 351
#     4  11  21  36  60  82 110 152 189 242 289 342
#     4  10  20  31  50  78 113 150 183 223 270 336
#     4   9  18  35  58  84 116 149 183 229 281 335
#     4   9  18  34  59  92 123 148 184 235 289 343
#     4  10  20  34  53  78 112 149 187 233 283 343
#     4  11  21  34  53  82 114 149 189 234 282 335
#
# _framework density 19.509065
#
# number of rings (size 3 to 8) (size 9 to 14) (size 15 to 20)
#    0.000    2.000    1.429    4.286    4.000    2.857 
#    0.000    3.571    0.000    5.143    0.000    0.000 
#    0.000    1.143    0.000    0.000    0.000    0.000 
#
# Total GULP energy -312188.546629 kJ/mol
# GULP energy per Si atom -5574.795476 kJ/mol
# Density = 1.946466 g / cm^3
# Si number density = 19.509065 Si / 1000 Ang^3
#
#
#
# Elastic Constant Matrix: (Units=GPa)
#
#
# Indices 1 2 3 4 5 6 
#
# 1 124.4257 32.4218 57.9959 0.0000 0.0000 0.0000
# 2 32.4218 88.6490 19.3935 0.0000 0.0000 0.0000
# 3 57.9959 19.3935 76.4343 0.0000 0.0000 0.0000
# 4 0.0000 0.0000 0.0000 7.2249 0.0000 0.0000
# 5 0.0000 0.0000 0.0000 0.0000 24.4788 0.0000
# 6 0.0000 0.0000 0.0000 0.0000 0.0000 26.0266
#
#
#
# Elastic Compliance Matrix: (Units=1/GPa)
#
#
# Indices 1 2 3 4 5 6 
#
# 1 0.013042 -0.002758 -0.009196 0.000000 0.000000 0.000000
# 2 -0.002758 0.012527 -0.001086 0.000000 0.000000 0.000000
# 3 -0.009196 -0.001086 0.020336 0.000000 0.000000 0.000000
# 4 0.000000 0.000000 0.000000 0.138410 0.000000 0.000000
# 5 0.000000 0.000000 0.000000 0.000000 0.040852 0.000000
# 6 0.000000 0.000000 0.000000 0.000000 0.000000 0.038422
#
#
# Mechanical properties :
#
#
# Convention : Reuss Voigt Hill
#
# Bulk Modulus (GPa) = 50.44030 56.57015 53.50523
# Shear Modulus (GPa) = 16.87611 23.52590 20.20101
#
# Velocity S-wave (km/s) = 2.94435 3.47637 3.22136
# Velocity P-wave (km/s) = 6.12126 6.72111 6.42819
#
# Compressibility (1/GPa) = 0.01982542
#
# Stress axis : x y z
#
# Youngs Moduli (GPa) = 76.67575 79.82974 49.17334
#
# Poissons Ratio (x) = 0.22018 0.45220
# Poissons Ratio (y) = 0.21148 0.05338
# Poissons Ratio (z) = 0.70511 0.08666
#
# Static dielectric constant tensor:
#      x y z
#    x 1.725150 0.000000 0.000000 
#    y 0.000000 1.747840 0.000000 
#    z 0.000000 0.000000 1.695390 
# 
# From -- ./inp_files/37369.got.cif
#   From: 2010.05.17/outbox.cif.g08.bks.cpg/sg74_19_cif.got.tgz:37369.got - 2010.06.03 17:57:02.
