data_PCOD9536608
_publ_section_title
;
Structure prediction by ZEFSAII (Michael W. Deem and Ramdas Pophale) SiO2 
 PCOD9536608
Probable space group: I M M A
;
_chemical_formula_sum "Si O2"
_cell_formula_units_Z 116
_cell_length_a 27.068557
_cell_length_b 17.336844
_cell_length_c 11.174996
_cell_angle_alpha 90.000000
_cell_angle_beta 90.000000
_cell_angle_gamma 90.000000
_cell_volume 5244.239559
_symmetry_space_group_name_H-M "I M M A"
_symmetry_group_IT_number 74
_symmetry_cell_setting 'orthorhombic'
loop_
_space_group_symop_operation_xyz
x,y,z
-x,1/2-y,z
x,-y,-z
-x,1/2+y,-z
-x,-y,-z
x,1/2+y,-z
-x,y,z
x,1/2-y,z
1/2+x,1/2+y,1/2+z
1/2-x,-y,1/2+z
1/2+x,1/2-y,1/2-z
1/2-x,y,1/2-z
1/2-x,1/2-y,1/2-z
1/2+x,y,1/2-z
1/2-x,1/2+y,1/2+z
1/2+x,-y,1/2+z
loop_
_atom_site_type_symbol
_atom_site_label
_atom_site_fract_x
_atom_site_fract_y
_atom_site_fract_z
Si Si1 0.500000 0.750000 0.395910
Si Si2 0.297141 0.002456 0.369909
Si Si3 0.187963 0.057413 0.389612
Si Si4 0.309991 0.334770 0.685663
Si Si5 0.445345 0.960454 0.126392
Si Si6 0.941498 0.544488 0.850745
Si Si7 0.362199 0.162592 0.934395
Si Si8 0.086913 0.627226 0.061517
O O1 0.543355 0.816492 0.402249
O O2 0.247919 0.053769 0.386638
O O3 0.323654 0.029847 0.247020
O O4 0.323509 0.000000 0.500000
O O5 0.282518 0.913122 0.349518
O O6 0.162426 0.133647 0.441653
O O7 0.174080 0.000000 0.500000
O O8 0.289281 0.250000 0.656184
O O9 0.322340 0.338057 0.826628
O O10 0.362147 0.343741 0.616400
O O11 0.500000 0.930756 0.162438
O O12 0.405527 0.893043 0.114911
O O13 0.433505 0.033105 0.211149
O O14 0.448635 0.000000 0.000000
O O15 0.926153 0.458490 0.892113
O O16 0.000000 0.556056 0.874781
O O17 0.913187 0.612259 0.918724
O O18 0.380505 0.250000 0.946212
#
# Coordination Sequence:
#
# PCOD9536608 Si02
#       8
#     4  16  16  16  16  16  16  16
#     4  12  20  34  56  92 134 192 226 270 358 392
#     4  10  23  41  70 101 126 169 221 278 343 411
#     4  10  20  44  71  96 128 169 225 264 332 420
#     4  11  23  38  58 100 140 172 221 284 347 402
#     4  10  22  39  63  92 130 178 235 280 316 382
#     4  10  19  35  55  86 122 173 234 283 322 382
#     4  11  23  40  67 101 137 181 222 275 337 403
#     4  11  20  33  57  88 131 176 224 276 332 399
#
# _framework density 22.119509999999998
#
# number of rings (size 3 to 8) (size 9 to 14) (size 15 to 20)
#    0.000    1.517    4.828    0.828    1.931    0.276 
#    0.000    6.207    1.517    0.000    0.000    0.000 
#    0.000    0.000    0.000    0.000    0.000    0.000 
#
# Total GULP energy -323160.885822 kJ/mol
# GULP energy per Si atom -5571.739411 kJ/mol
# Density = 2.206916 g / cm^3
# Si number density = 22.119510 Si / 1000 Ang^3
#
#
#
# Elastic Constant Matrix: (Units=GPa)
#
#
# Indices 1 2 3 4 5 6 
#
# 1 115.1619 20.3026 18.6559 0.0000 0.0000 0.0000
# 2 20.3026 68.0038 22.0226 0.0000 0.0000 0.0000
# 3 18.6559 22.0226 165.3469 0.0000 0.0000 0.0000
# 4 0.0000 0.0000 0.0000 11.7944 0.0000 0.0000
# 5 0.0000 0.0000 0.0000 0.0000 25.4561 0.0000
# 6 0.0000 0.0000 0.0000 0.0000 0.0000 16.1929
#
#
#
# Elastic Compliance Matrix: (Units=1/GPa)
#
#
# Indices 1 2 3 4 5 6 
#
# 1 0.009244 -0.002531 -0.000706 0.000000 0.000000 0.000000
# 2 -0.002531 0.016061 -0.001854 0.000000 0.000000 0.000000
# 3 -0.000706 -0.001854 0.006374 0.000000 0.000000 0.000000
# 4 0.000000 0.000000 0.000000 0.084786 0.000000 0.000000
# 5 0.000000 0.000000 0.000000 0.000000 0.039283 0.000000
# 6 0.000000 0.000000 0.000000 0.000000 0.000000 0.061755
#
#
# Mechanical properties :
#
#
# Convention : Reuss Voigt Hill
#
# Bulk Modulus (GPa) = 46.51565 52.27498 49.39531
# Shear Modulus (GPa) = 21.29004 29.85745 25.57374
#
# Velocity S-wave (km/s) = 3.10579 3.67798 3.40393
# Velocity P-wave (km/s) = 5.82547 6.45918 6.15049
#
# Compressibility (1/GPa) = 0.02149814
#
# Stress axis : x y z
#
# Youngs Moduli (GPa) = 108.17808 62.26246 156.87724
#
# Poissons Ratio (x) = 0.15760 0.11073
# Poissons Ratio (y) = 0.27382 0.29078
# Poissons Ratio (z) = 0.07636 0.11541
#
# Static dielectric constant tensor:
#      x y z
#    x 1.915170 0.000000 0.000000 
#    y 0.000000 1.796810 0.000000 
#    z 0.000000 0.000000 2.024070 
# 
# From -- ./inp_files/27376.got.cif
#   From: 2010.05.17/outbox.cif.g08.bks.cpg/sg74_14_cif.got.tgz:27376.got - 2010.06.03 17:57:02.
