data_PCOD9536569
_publ_section_title
;
Structure prediction by ZEFSAII (Michael W. Deem and Ramdas Pophale) SiO2 
 PCOD9536569
Probable space group: I M M A
;
_chemical_formula_sum "Si O2"
_cell_formula_units_Z 104
_cell_length_a 29.333217
_cell_length_b 7.868019
_cell_length_c 21.875081
_cell_angle_alpha 90.000000
_cell_angle_beta 90.000000
_cell_angle_gamma 90.000000
_cell_volume 5048.644197
_symmetry_space_group_name_H-M "I M M A"
_symmetry_group_IT_number 74
_symmetry_cell_setting 'orthorhombic'
loop_
_space_group_symop_operation_xyz
x,y,z
-x,1/2-y,z
x,-y,-z
-x,1/2+y,-z
-x,-y,-z
x,1/2+y,-z
-x,y,z
x,1/2-y,z
1/2+x,1/2+y,1/2+z
1/2-x,-y,1/2+z
1/2+x,1/2-y,1/2-z
1/2-x,y,1/2-z
1/2-x,1/2-y,1/2-z
1/2+x,y,1/2-z
1/2-x,1/2+y,1/2+z
1/2+x,-y,1/2+z
loop_
_atom_site_type_symbol
_atom_site_label
_atom_site_fract_x
_atom_site_fract_y
_atom_site_fract_z
Si Si1 0.868172 0.044356 0.656169
Si Si2 0.875868 0.454259 0.794773
Si Si3 0.448351 0.045308 0.930966
Si Si4 0.316046 0.948562 0.406122
Si Si5 0.114806 0.500000 0.000000
Si Si6 0.714022 0.550178 0.931781
Si Si7 0.053035 0.950544 0.894754
O O1 0.869785 0.250000 0.657786
O O2 0.869942 0.982502 0.725927
O O3 0.911830 0.982287 0.617791
O O4 0.823190 0.996714 0.618683
O O5 0.881086 0.250000 0.792299
O O6 0.832017 0.489168 0.837532
O O7 0.919252 0.523457 0.832067
O O8 0.500000 0.981710 0.921213
O O9 0.449535 0.250000 0.926834
O O10 0.434569 0.000000 0.000000
O O11 0.328804 0.750000 0.418421
O O12 0.346897 0.062399 0.451051
O O13 0.262916 0.967215 0.418127
O O14 0.078457 0.444125 0.947969
O O15 0.721376 0.750000 0.931174
O O16 0.698426 0.500000 0.000000
O O17 0.056531 0.750000 0.912258
O O18 0.000000 0.994134 0.889030
#
# Coordination Sequence:
#
# PCOD9536569 Si02
#       7
#    16  16  16  16   8  16  16
#     4  10  21  39  60  83 115 150 188 235 286 341
#     4   9  21  39  59  83 112 151 194 239 289 346
#     4   9  18  33  55  82 109 140 179 224 274 328
#     4  10  20  36  58  83 112 147 192 238 289 347
#     4  10  19  34  60  84 114 154 199 242 294 348
#     4  12  25  39  59  86 116 148 188 237 289 345
#     4  10  21  36  56  86 122 157 197 246 295 346
#
# _framework density 20.599589999999999
#
# number of rings (size 3 to 8) (size 9 to 14) (size 15 to 20)
#    0.000    2.000    0.769    2.538    0.000    7.077 
#    0.000    4.615    0.000    1.846    0.000    0.000 
#    0.000    0.000    0.000    0.000    0.000    0.000 
#
# Total GULP energy -289854.545087 kJ/mol
# GULP energy per Si atom -5574.125867 kJ/mol
# Density = 2.055270 g / cm^3
# Si number density = 20.599590 Si / 1000 Ang^3
#
#
#
# Elastic Constant Matrix: (Units=GPa)
#
#
# Indices 1 2 3 4 5 6 
#
# 1 132.1012 12.5900 101.7637 0.0000 0.0000 0.0000
# 2 12.5900 54.2459 22.6123 0.0000 0.0000 0.0000
# 3 101.7637 22.6123 200.2223 0.0000 0.0000 0.0000
# 4 0.0000 0.0000 0.0000 -4.2431 0.0000 0.0000
# 5 0.0000 0.0000 0.0000 0.0000 17.4579 0.0000
# 6 0.0000 0.0000 0.0000 0.0000 0.0000 8.5349
#
#
#
# Elastic Compliance Matrix: (Units=1/GPa)
#
#
# Indices 1 2 3 4 5 6 
#
# 1 0.012445 -0.000264 -0.006295 0.000000 0.000000 0.000000
# 2 -0.000264 0.019351 -0.002051 0.000000 0.000000 0.000000
# 3 -0.006295 -0.002051 0.008426 0.000000 0.000000 0.000000
# 4 0.000000 0.000000 0.000000 -0.235679 0.000000 0.000000
# 5 0.000000 0.000000 0.000000 0.000000 0.057281 0.000000
# 6 0.000000 0.000000 0.000000 0.000000 0.000000 0.117167
#
#
# Mechanical properties :
#
#
# Convention : Reuss Voigt Hill
#
# Bulk Modulus (GPa) = 43.47794 73.38905 58.43349
# Shear Modulus (GPa) = 1289.55534 20.99017 655.27276
#
# Velocity S-wave (km/s) = 25.04734 3.19558 17.85470
# Velocity P-wave (km/s) = 29.28556 7.02278 21.29511
#
# Compressibility (1/GPa) = 0.02300017
#
# Stress axis : x y z
#
# Youngs Moduli (GPa) = 80.35616 51.67718 118.68525
#
# Poissons Ratio (x) = 0.01365 0.74714
# Poissons Ratio (y) = 0.02123 0.24344
# Poissons Ratio (z) = 0.50586 0.10600
#
# Static dielectric constant tensor:
#      x y z
#    x 1.704290 0.000000 0.000000 
#    y 0.000000 1.847220 0.000000 
#    z 0.000000 0.000000 1.719790 
# 
# From -- ./inp_files/55263.got.cif
#   From: 2010.05.17/outbox.cif.g08.bks.cpg/sg74_28_cif.got.tgz:55263.got - 2010.06.03 17:57:02.
