data_PCOD9536279
_publ_section_title
;
Structure prediction by ZEFSAII (Michael W. Deem and Ramdas Pophale) SiO2 
 PCOD9536279
Probable space group: I M M A
;
_chemical_formula_sum "Si O2"
_cell_formula_units_Z 104
_cell_length_a 9.037330
_cell_length_b 21.312649
_cell_length_c 29.389629
_cell_angle_alpha 90.000000
_cell_angle_beta 90.000000
_cell_angle_gamma 90.000000
_cell_volume 5660.720048
_symmetry_space_group_name_H-M "I M M A"
_symmetry_group_IT_number 74
_symmetry_cell_setting 'orthorhombic'
loop_
_space_group_symop_operation_xyz
x,y,z
-x,1/2-y,z
x,-y,-z
-x,1/2+y,-z
-x,-y,-z
x,1/2+y,-z
-x,y,z
x,1/2-y,z
1/2+x,1/2+y,1/2+z
1/2-x,-y,1/2+z
1/2+x,1/2-y,1/2-z
1/2-x,y,1/2-z
1/2-x,1/2-y,1/2-z
1/2+x,y,1/2-z
1/2-x,1/2+y,1/2+z
1/2+x,-y,1/2+z
loop_
_atom_site_type_symbol
_atom_site_label
_atom_site_fract_x
_atom_site_fract_y
_atom_site_fract_z
Si Si1 0.821593 0.110773 0.801029
Si Si2 0.335510 0.917577 0.789294
Si Si3 0.668947 0.014463 0.869964
Si Si4 0.322394 0.677282 0.940940
Si Si5 0.165918 0.676976 0.843959
Si Si6 0.323658 0.046907 0.457715
Si Si7 0.324372 0.250000 0.701113
O O1 0.750000 0.104002 0.750000
O O2 0.755073 0.065486 0.839494
O O3 0.787626 0.181874 0.818555
O O4 0.000000 0.102559 0.796921
O O5 0.500000 0.902272 0.774297
O O6 0.250000 0.954343 0.750000
O O7 0.239262 0.858037 0.802229
O O8 0.341949 0.956899 0.835011
O O9 0.500000 0.034589 0.880923
O O10 0.752306 0.987954 0.914076
O O11 0.500000 0.672039 0.942933
O O12 0.283441 0.750000 0.955215
O O13 0.265250 0.670902 0.889056
O O14 0.248742 0.616253 0.964565
O O15 0.156813 0.750000 0.833978
O O16 0.000000 0.652534 0.853124
O O17 0.500000 0.054868 0.451206
O O18 0.299825 0.000000 0.500000
O O19 0.500000 0.250000 0.707034
O O20 0.250000 0.250000 0.750000
#
# Coordination Sequence:
#
# PCOD9536279 Si02
#       7
#    16  16  16  16  16  16   8
#     4  10  19  33  55  83 116 153 195 240 287 343
#     4  11  23  36  52  76 109 150 192 234 283 333
#     4  11  23  38  57  83 114 150 190 235 288 342
#     4  10  20  36  61  91 120 152 191 236 286 343
#     4  10  20  34  54  79 108 146 191 237 282 329
#     4  11  24  41  64  92 119 150 192 239 292 350
#     4   8  16  30  50  78 110 148 192 236 282 334
#
# _framework density 18.372222000000001
#
# number of rings (size 3 to 8) (size 9 to 14) (size 15 to 20)
#    0.000    1.692    1.538    3.231    0.000    7.077 
#    0.000    0.000    1.692    0.000    0.000    0.000 
#    0.000    0.000    0.000    0.000    0.000    0.000 
#
# Total GULP energy -289788.559115 kJ/mol
# GULP energy per Si atom -5572.856906 kJ/mol
# Density = 1.833041 g / cm^3
# Si number density = 18.372222 Si / 1000 Ang^3
#
#
#
# Elastic Constant Matrix: (Units=GPa)
#
#
# Indices 1 2 3 4 5 6 
#
# 1 119.9101 67.2396 52.2923 0.0000 0.0000 0.0000
# 2 67.2396 133.1792 45.5181 0.0000 0.0000 0.0000
# 3 52.2923 45.5181 78.7576 0.0000 0.0000 0.0000
# 4 0.0000 0.0000 0.0000 35.0864 0.0000 0.0000
# 5 0.0000 0.0000 0.0000 0.0000 25.0651 0.0000
# 6 0.0000 0.0000 0.0000 0.0000 0.0000 14.4047
#
#
#
# Elastic Compliance Matrix: (Units=1/GPa)
#
#
# Indices 1 2 3 4 5 6 
#
# 1 0.013818 -0.004786 -0.006409 0.000000 0.000000 0.000000
# 2 -0.004786 0.011015 -0.003188 0.000000 0.000000 0.000000
# 3 -0.006409 -0.003188 0.018795 0.000000 0.000000 0.000000
# 4 0.000000 0.000000 0.000000 0.028501 0.000000 0.000000
# 5 0.000000 0.000000 0.000000 0.000000 0.039896 0.000000
# 6 0.000000 0.000000 0.000000 0.000000 0.000000 0.069422
#
#
# Mechanical properties :
#
#
# Convention : Reuss Voigt Hill
#
# Bulk Modulus (GPa) = 67.28591 73.54965 70.41778
# Shear Modulus (GPa) = 23.23779 26.03104 24.63442
#
# Velocity S-wave (km/s) = 3.56031 3.76822 3.66574
# Velocity P-wave (km/s) = 7.32149 7.68457 7.50523
#
# Compressibility (1/GPa) = 0.01486195
#
# Stress axis : x y z
#
# Youngs Moduli (GPa) = 72.36833 90.78709 53.20599
#
# Poissons Ratio (x) = 0.43452 0.34098
# Poissons Ratio (y) = 0.34637 0.16963
# Poissons Ratio (z) = 0.46378 0.28944
#
# Static dielectric constant tensor:
#      x y z
#    x 1.655490 0.000000 0.000000 
#    y 0.000000 1.686270 0.000000 
#    z 0.000000 0.000000 1.651290 
# 
# From -- ./inp_files/64515.got.cif
#   From: 2010.05.17/outbox.cif.g08.bks.cpg/sg74_33_cif.got.tgz:64515.got - 2010.06.03 17:57:02.
