data_PCOD9536282
_publ_section_title
;
Structure prediction by ZEFSAII (Michael W. Deem and Ramdas Pophale) SiO2 
 PCOD9536282
Probable space group: I M M A
;
_chemical_formula_sum "Si O2"
_cell_formula_units_Z 96
_cell_length_a 28.289851
_cell_length_b 18.940966
_cell_length_c 9.933337
_cell_angle_alpha 90.000000
_cell_angle_beta 90.000000
_cell_angle_gamma 90.000000
_cell_volume 5322.650550
_symmetry_space_group_name_H-M "I M M A"
_symmetry_group_IT_number 74
_symmetry_cell_setting 'orthorhombic'
loop_
_space_group_symop_operation_xyz
x,y,z
-x,1/2-y,z
x,-y,-z
-x,1/2+y,-z
-x,-y,-z
x,1/2+y,-z
-x,y,z
x,1/2-y,z
1/2+x,1/2+y,1/2+z
1/2-x,-y,1/2+z
1/2+x,1/2-y,1/2-z
1/2-x,y,1/2-z
1/2-x,1/2-y,1/2-z
1/2+x,y,1/2-z
1/2-x,1/2+y,1/2+z
1/2+x,-y,1/2+z
loop_
_atom_site_type_symbol
_atom_site_label
_atom_site_fract_x
_atom_site_fract_y
_atom_site_fract_z
Si Si1 0.054598 0.068603 0.904993
Si Si2 0.363144 0.164468 0.040135
Si Si3 0.802266 0.835697 0.792279
Si Si4 0.859635 0.331899 0.954512
Si Si5 0.945149 0.571698 0.414930
Si Si6 0.297514 0.167381 0.808429
O O1 0.092637 0.124352 0.956810
O O2 0.063915 0.057782 0.744477
O O3 0.000000 0.092610 0.915960
O O4 0.059128 0.000000 0.000000
O O5 0.367754 0.250000 0.030966
O O6 0.344284 0.146043 0.188223
O O7 0.409820 0.127972 0.982012
O O8 0.320374 0.139464 0.943476
O O9 0.798920 0.750000 0.791453
O O10 0.750000 0.861459 0.750000
O O11 0.820227 0.857337 0.939250
O O12 0.869511 0.250000 0.985222
O O13 0.836770 0.335135 0.807045
O O14 0.939819 0.500000 0.500000
O O15 0.000000 0.594661 0.425886
O O16 0.286399 0.250000 0.838680
O O17 0.250000 0.134337 0.750000
#
# Coordination Sequence:
#
# PCOD9536282 Si02
#       6
#    16  16  16  16  16  16
#     4  10  22  39  58  79 106 143 181 220 272 330
#     4  10  19  33  55  84 110 139 180 224 269 311
#     4   9  18  32  52  81 116 148 177 215 266 321
#     4  10  19  33  55  84 110 139 180 224 269 311
#     4  10  22  39  58  79 106 143 181 220 272 330
#     4   9  16  28  50  79 108 136 173 219 264 315
#
# _framework density 18.036127
#
# number of rings (size 3 to 8) (size 9 to 14) (size 15 to 20)
#    0.000    2.333    1.667    1.000    2.333    4.667 
#    0.000    1.667    0.000    9.000    0.000    0.000 
#    0.000    0.000    0.000    0.000    0.000    0.000 
#
# Total GULP energy -267379.960334 kJ/mol
# GULP energy per Si atom -5570.415840 kJ/mol
# Density = 1.799508 g / cm^3
# Si number density = 18.036127 Si / 1000 Ang^3
#
#
#
# Elastic Constant Matrix: (Units=GPa)
#
#
# Indices 1 2 3 4 5 6 
#
# 1 73.8684 31.2296 -6.3110 0.0000 0.0000 0.0000
# 2 31.2296 24.7707 1.7477 0.0000 0.0000 0.0000
# 3 -6.3110 1.7477 50.6985 0.0000 0.0000 0.0000
# 4 0.0000 0.0000 0.0000 17.6263 0.0000 0.0000
# 5 0.0000 0.0000 0.0000 0.0000 26.2040 0.0000
# 6 0.0000 0.0000 0.0000 0.0000 0.0000 198.9417
#
#
#
# Elastic Compliance Matrix: (Units=1/GPa)
#
#
# Indices 1 2 3 4 5 6 
#
# 1 0.030246 -0.038492 0.005092 0.000000 0.000000 0.000000
# 2 -0.038492 0.089454 -0.007875 0.000000 0.000000 0.000000
# 3 0.005092 -0.007875 0.020630 0.000000 0.000000 0.000000
# 4 0.000000 0.000000 0.000000 0.056733 0.000000 0.000000
# 5 0.000000 0.000000 0.000000 0.000000 0.038162 0.000000
# 6 0.000000 0.000000 0.000000 0.000000 0.000000 0.005027
#
#
# Mechanical properties :
#
#
# Convention : Reuss Voigt Hill
#
# Bulk Modulus (GPa) = 17.30701 22.51892 19.91296
# Shear Modulus (GPa) = 14.61723 56.73249 35.67486
#
# Velocity S-wave (km/s) = 2.84991 5.61455 4.45226
# Velocity P-wave (km/s) = 4.52172 7.38536 6.12329
#
# Compressibility (1/GPa) = 0.05778005
#
# Stress axis : x y z
#
# Youngs Moduli (GPa) = 33.06233 11.17889 48.47364
#
# Poissons Ratio (x) = 0.43029 -0.24682
# Poissons Ratio (y) = 1.27263 0.38174
# Poissons Ratio (z) = -0.16835 0.08804
#
# Static dielectric constant tensor:
#      x y z
#    x 1.625430 0.000000 0.000000 
#    y 0.000000 1.598130 0.000000 
#    z 0.000000 0.000000 1.634220 
# 
# From -- ./inp_files/12642.got.cif
#   From: 2010.05.17/outbox.cif.g08.bks.cpg/sg74_7_cif.got.tgz:12642.got - 2010.06.03 17:57:02.
