data_PCOD9536188
_publ_section_title
;
Structure prediction by ZEFSAII (Michael W. Deem and Ramdas Pophale) SiO2 
 PCOD9536188
Probable space group: I M M A
;
_chemical_formula_sum "Si O2"
_cell_formula_units_Z 116
_cell_length_a 7.836842
_cell_length_b 32.041684
_cell_length_c 24.001684
_cell_angle_alpha 90.000000
_cell_angle_beta 90.000000
_cell_angle_gamma 90.000000
_cell_volume 6026.957620
_symmetry_space_group_name_H-M "I M M A"
_symmetry_group_IT_number 74
_symmetry_cell_setting 'orthorhombic'
loop_
_space_group_symop_operation_xyz
x,y,z
-x,1/2-y,z
x,-y,-z
-x,1/2+y,-z
-x,-y,-z
x,1/2+y,-z
-x,y,z
x,1/2-y,z
1/2+x,1/2+y,1/2+z
1/2-x,-y,1/2+z
1/2+x,1/2-y,1/2-z
1/2-x,y,1/2-z
1/2-x,1/2-y,1/2-z
1/2+x,y,1/2-z
1/2-x,1/2+y,1/2+z
1/2+x,-y,1/2+z
loop_
_atom_site_type_symbol
_atom_site_label
_atom_site_fract_x
_atom_site_fract_y
_atom_site_fract_z
Si Si1 0.296670 0.453271 0.815189
Si Si2 0.703236 0.873647 0.387466
Si Si3 0.705145 0.955484 0.815377
Si Si4 0.808928 0.184559 0.526687
Si Si5 0.704370 0.864446 0.815170
Si Si6 0.000000 0.750000 0.050217
Si Si7 0.299367 0.297725 0.405214
Si Si8 0.705686 0.704058 0.314691
O O1 0.500000 0.455104 0.816181
O O2 0.250000 0.445637 0.750000
O O3 0.242905 0.416508 0.856280
O O4 0.229877 0.499072 0.834112
O O5 0.500000 0.871222 0.391829
O O6 0.781229 0.861280 0.446858
O O7 0.768658 0.835514 0.348504
O O8 0.500000 0.955361 0.821830
O O9 0.750000 0.955051 0.750000
O O10 0.767202 0.910258 0.835942
O O11 0.652967 0.213758 0.547808
O O12 0.793632 0.185423 0.459943
O O13 0.000000 0.199000 0.541648
O O14 0.500000 0.863741 0.819396
O O15 0.750000 0.859882 0.750000
O O16 0.774609 0.827372 0.852697
O O17 0.500000 0.295985 0.419551
O O18 0.243649 0.250000 0.394442
O O19 0.500000 0.705176 0.320391
O O20 0.768803 0.750000 0.332321
O O21 0.750000 0.699130 0.250000
#
# Coordination Sequence:
#
# PCOD9536188 Si02
#       8
#    16  16  16  16  16   4  16  16
#     4  10  19  33  53  79 109 148 189 238 299 355
#     4  11  22  35  53  76 108 141 186 246 291 342
#     4   8  16  31  52  78 111 144 187 235 282 342
#     4  12  24  40  63  86 112 153 194 244 297 340
#     4  10  20  35  57  88 119 154 191 231 283 340
#     4  12  22  44  60  86 116 142 202 252 284 340
#     4  11  22  40  60  84 119 154 191 239 280 332
#     4   9  19  32  46  62  92 131 169 217 277 336
#
# _framework density 19.246859000000001
#
# number of rings (size 3 to 8) (size 9 to 14) (size 15 to 20)
#    0.000    1.793    2.069    2.276    0.966    4.414 
#    0.000    0.000    0.000    0.828    0.000    5.793 
#    0.000    0.000    0.000    0.000    0.000    0.000 
#
# Total GULP energy -323011.520727 kJ/mol
# GULP energy per Si atom -5569.164150 kJ/mol
# Density = 1.920305 g / cm^3
# Si number density = 19.246859 Si / 1000 Ang^3
#
#
#
# Elastic Constant Matrix: (Units=GPa)
#
#
# Indices 1 2 3 4 5 6 
#
# 1 85.4919 19.7371 18.1166 0.0000 0.0000 0.0000
# 2 19.7371 166.1763 82.0622 0.0000 0.0000 0.0000
# 3 18.1166 82.0622 74.2756 0.0000 0.0000 0.0000
# 4 0.0000 0.0000 0.0000 32.9635 0.0000 0.0000
# 5 0.0000 0.0000 0.0000 0.0000 25.0123 0.0000
# 6 0.0000 0.0000 0.0000 0.0000 0.0000 15.9063
#
#
#
# Elastic Compliance Matrix: (Units=1/GPa)
#
#
# Indices 1 2 3 4 5 6 
#
# 1 0.012335 0.000046 -0.003059 0.000000 0.000000 0.000000
# 2 0.000046 0.013243 -0.014643 0.000000 0.000000 0.000000
# 3 -0.003059 -0.014643 0.030387 0.000000 0.000000 0.000000
# 4 0.000000 0.000000 0.000000 0.030337 0.000000 0.000000
# 5 0.000000 0.000000 0.000000 0.000000 0.039980 0.000000
# 6 0.000000 0.000000 0.000000 0.000000 0.000000 0.062868
#
#
# Mechanical properties :
#
#
# Convention : Reuss Voigt Hill
#
# Bulk Modulus (GPa) = 48.41888 62.86396 55.64142
# Shear Modulus (GPa) = 21.61258 28.51160 25.06209
#
# Velocity S-wave (km/s) = 3.35463 3.85302 3.61243
# Velocity P-wave (km/s) = 6.34161 7.24757 6.80967
#
# Compressibility (1/GPa) = 0.02065310
#
# Stress axis : x y z
#
# Youngs Moduli (GPa) = 81.07200 75.51029 32.90860
#
# Poissons Ratio (x) = -0.00344 0.10066
# Poissons Ratio (y) = -0.00369 0.48187
# Poissons Ratio (z) = 0.24799 1.10567
#
# Static dielectric constant tensor:
#      x y z
#    x 1.661750 0.000000 0.000000 
#    y 0.000000 1.719980 0.000000 
#    z 0.000000 0.000000 1.679540 
# 
# From -- ./inp_files/57937.got.cif
#   From: 2010.05.17/outbox.cif.g08.bks.cpg/sg74_29_cif.got.tgz:57937.got - 2010.06.03 17:57:02.
