data_PCOD9536964
_publ_section_title
;
Structure prediction by ZEFSAII (Michael W. Deem and Ramdas Pophale) SiO2 
 PCOD9536964
Probable space group: I M M A
;
_chemical_formula_sum "Si O2"
_cell_formula_units_Z 104
_cell_length_a 27.422416
_cell_length_b 12.058587
_cell_length_c 17.096173
_cell_angle_alpha 90.000000
_cell_angle_beta 90.000000
_cell_angle_gamma 90.000000
_cell_volume 5653.287078
_symmetry_space_group_name_H-M "I M M A"
_symmetry_group_IT_number 74
_symmetry_cell_setting 'orthorhombic'
loop_
_space_group_symop_operation_xyz
x,y,z
-x,1/2-y,z
x,-y,-z
-x,1/2+y,-z
-x,-y,-z
x,1/2+y,-z
-x,y,z
x,1/2-y,z
1/2+x,1/2+y,1/2+z
1/2-x,-y,1/2+z
1/2+x,1/2-y,1/2-z
1/2-x,y,1/2-z
1/2-x,1/2-y,1/2-z
1/2+x,y,1/2-z
1/2-x,1/2+y,1/2+z
1/2+x,-y,1/2+z
loop_
_atom_site_type_symbol
_atom_site_label
_atom_site_fract_x
_atom_site_fract_y
_atom_site_fract_z
Si Si1 0.553977 0.496446 0.740211
Si Si2 0.131948 0.250000 0.618092
Si Si3 0.847774 0.377814 0.202279
Si Si4 0.819162 0.377363 0.382479
Si Si5 0.055302 0.750000 0.244565
Si Si6 0.412733 0.519601 0.081997
Si Si7 0.778317 0.485894 0.911251
Si Si8 0.246506 0.750000 0.344869
O O1 0.500000 0.539966 0.722768
O O2 0.598289 0.571509 0.711785
O O3 0.558003 0.371150 0.705586
O O4 0.559165 0.484915 0.835248
O O5 0.101723 0.250000 0.698956
O O6 0.113560 0.361375 0.577854
O O7 0.189291 0.250000 0.632683
O O8 0.849368 0.250000 0.176654
O O9 0.823347 0.380335 0.288295
O O10 0.815363 0.451818 0.145783
O O11 0.813254 0.250000 0.408114
O O12 0.869524 0.429725 0.411699
O O13 0.773748 0.451507 0.407312
O O14 0.000000 0.750000 0.281607
O O15 0.439848 0.500000 0.000000
O O16 0.770282 0.360562 0.881390
O O17 0.795737 0.500000 0.000000
O O18 0.250000 0.750000 0.250000
#
# Coordination Sequence:
#
# PCOD9536964 Si02
#       8
#    16   8  16  16   8  16  16   8
#     4   9  19  36  59  85 108 143 193 241 291 348
#     4  10  20  34  52  74 115 149 194 238 283 342
#     4  10  22  40  61  83 114 154 194 235 290 351
#     4  10  20  35  58  79 112 157 199 231 274 342
#     4   8  16  32  56  82 112 141 179 236 290 333
#     4  10  20  31  50  78 115 156 189 233 285 340
#     4  12  26  38  58  85 122 156 193 245 298 351
#     4  12  26  38  60  90 120 161 208 253 293 343
#
# _framework density 18.396377000000001
#
# number of rings (size 3 to 8) (size 9 to 14) (size 15 to 20)
#    0.000    1.846    1.538    2.308    7.538    1.846 
#    0.000    0.000    0.000    0.462    0.000    0.000 
#    0.000    0.000    0.000    0.000    0.000    0.000 
#
# Total GULP energy -290110.337182 kJ/mol
# GULP energy per Si atom -5579.044946 kJ/mol
# Density = 1.835451 g / cm^3
# Si number density = 18.396377 Si / 1000 Ang^3
#
#
#
# Elastic Constant Matrix: (Units=GPa)
#
#
# Indices 1 2 3 4 5 6 
#
# 1 69.7194 28.8912 11.7560 0.0000 0.0000 0.0000
# 2 28.8912 136.6924 29.7701 0.0000 0.0000 0.0000
# 3 11.7560 29.7701 50.8666 0.0000 0.0000 0.0000
# 4 0.0000 0.0000 0.0000 41.2892 0.0000 0.0000
# 5 0.0000 0.0000 0.0000 0.0000 -1.0996 0.0000
# 6 0.0000 0.0000 0.0000 0.0000 0.0000 2.5469
#
#
#
# Elastic Compliance Matrix: (Units=1/GPa)
#
#
# Indices 1 2 3 4 5 6 
#
# 1 0.015888 -0.002932 -0.001956 0.000000 0.000000 0.000000
# 2 -0.002932 0.008926 -0.004546 0.000000 0.000000 0.000000
# 3 -0.001956 -0.004546 0.022772 0.000000 0.000000 0.000000
# 4 0.000000 0.000000 0.000000 0.024219 0.000000 0.000000
# 5 0.000000 0.000000 0.000000 0.000000 -0.909395 0.000000
# 6 0.000000 0.000000 0.000000 0.000000 0.000000 0.392636
#
#
# Mechanical properties :
#
#
# Convention : Reuss Voigt Hill
#
# Bulk Modulus (GPa) = 34.82221 44.23476 39.52849
# Shear Modulus (GPa) = -12.00439 21.00472 4.50016
#
# Velocity S-wave (km/s) = -2.55726 3.38270 1.56574
# Velocity P-wave (km/s) = 3.20164 6.27331 4.98021
#
# Compressibility (1/GPa) = 0.02871731
#
# Stress axis : x y z
#
# Youngs Moduli (GPa) = 62.94041 112.03841 43.91372
#
# Poissons Ratio (x) = 0.32851 0.08589
# Poissons Ratio (y) = 0.18455 0.19964
# Poissons Ratio (z) = 0.12311 0.50934
#
# Static dielectric constant tensor:
#      x y z
#    x 1.607220 0.000000 0.000000 
#    y 0.000000 1.650010 0.000000 
#    z 0.000000 0.000000 1.662960 
# 
# From -- ./inp_files/41738.got.cif
#   From: 2010.05.17/outbox.cif.g08.bks.cpg/sg74_21_cif.got.tgz:41738.got - 2010.06.03 17:57:02.
