data_PCOD9536139
_publ_section_title
;
Structure prediction by ZEFSAII (Michael W. Deem and Ramdas Pophale) SiO2 
 PCOD9536139
Probable space group: I M M A
;
_chemical_formula_sum "Si O2"
_cell_formula_units_Z 116
_cell_length_a 7.952025
_cell_length_b 28.623965
_cell_length_c 26.392792
_cell_angle_alpha 90.000000
_cell_angle_beta 90.000000
_cell_angle_gamma 90.000000
_cell_volume 6007.487337
_symmetry_space_group_name_H-M "I M M A"
_symmetry_group_IT_number 74
_symmetry_cell_setting 'orthorhombic'
loop_
_space_group_symop_operation_xyz
x,y,z
-x,1/2-y,z
x,-y,-z
-x,1/2+y,-z
-x,-y,-z
x,1/2+y,-z
-x,y,z
x,1/2-y,z
1/2+x,1/2+y,1/2+z
1/2-x,-y,1/2+z
1/2+x,1/2-y,1/2-z
1/2-x,y,1/2-z
1/2-x,1/2-y,1/2-z
1/2+x,y,1/2-z
1/2-x,1/2+y,1/2+z
1/2+x,-y,1/2+z
loop_
_atom_site_type_symbol
_atom_site_label
_atom_site_fract_x
_atom_site_fract_y
_atom_site_fract_z
Si Si1 0.308685 0.475739 0.382629
Si Si2 0.500000 0.750000 0.388082
Si Si3 0.699757 0.930362 0.090047
Si Si4 0.201493 0.895133 0.691471
Si Si5 0.307725 0.177879 0.472682
Si Si6 0.799184 0.699904 0.638999
Si Si7 0.694308 0.075906 0.022616
Si Si8 0.303370 0.320153 0.914009
O O1 0.500000 0.468303 0.397510
O O2 0.279853 0.530699 0.374094
O O3 0.267447 0.441154 0.336809
O O4 0.201630 0.459197 0.430980
O O5 0.652485 0.790172 0.390351
O O6 0.500000 0.936296 0.094227
O O7 0.732525 0.875244 0.096281
O O8 0.751937 0.942060 0.032026
O O9 0.250000 0.894943 0.750000
O O10 0.266792 0.847370 0.664949
O O11 0.000000 0.895644 0.686257
O O12 0.500000 0.193152 0.479468
O O13 0.234590 0.197933 0.421025
O O14 0.298234 0.122108 0.465216
O O15 0.212418 0.187957 0.525070
O O16 0.732854 0.750000 0.658410
O O17 0.000000 0.699674 0.646606
O O18 0.500000 0.091160 0.016055
O O19 0.500000 0.310620 0.899643
#
# Coordination Sequence:
#
# PCOD9536139 Si02
#       8
#    16   4  16  16  16  16  16  16
#     4  12  23  34  56  84 109 141 183 229 286 349
#     4  12  22  36  56  78 110 160 210 232 282 326
#     4   9  20  36  54  78 114 152 188 229 284 335
#     4  11  24  43  63  80 107 138 182 235 293 362
#     4  11  20  32  50  76 108 142 191 242 287 342
#     4  10  22  38  57  78 102 140 182 234 299 357
#     4  10  19  33  52  75 108 147 183 229 286 346
#     4  10  22  37  53  78 114 156 198 244 283 329
#
# _framework density 19.309239000000002
#
# number of rings (size 3 to 8) (size 9 to 14) (size 15 to 20)
#    0.000    1.517    2.069    4.759    1.931    3.862 
#    0.000    0.000    0.000    0.000    0.000    0.000 
#    0.000    0.000    0.000    0.621    4.414    1.793 
#
# Total GULP energy -323188.909022 kJ/mol
# GULP energy per Si atom -5572.222569 kJ/mol
# Density = 1.926529 g / cm^3
# Si number density = 19.309239 Si / 1000 Ang^3
#
#
#
# Elastic Constant Matrix: (Units=GPa)
#
#
# Indices 1 2 3 4 5 6 
#
# 1 78.6412 31.9449 4.0199 0.0000 0.0000 0.0000
# 2 31.9449 137.7816 50.6901 0.0000 0.0000 0.0000
# 3 4.0199 50.6901 35.4241 0.0000 0.0000 0.0000
# 4 0.0000 0.0000 0.0000 -22.6043 0.0000 0.0000
# 5 0.0000 0.0000 0.0000 0.0000 14.5336 0.0000
# 6 0.0000 0.0000 0.0000 0.0000 0.0000 15.6369
#
#
#
# Elastic Compliance Matrix: (Units=1/GPa)
#
#
# Indices 1 2 3 4 5 6 
#
# 1 0.014778 -0.005932 0.006812 0.000000 0.000000 0.000000
# 2 -0.005932 0.017708 -0.024666 0.000000 0.000000 0.000000
# 3 0.006812 -0.024666 0.062752 0.000000 0.000000 0.000000
# 4 0.000000 0.000000 0.000000 -0.044239 0.000000 0.000000
# 5 0.000000 0.000000 0.000000 0.000000 0.068806 0.000000
# 6 0.000000 0.000000 0.000000 0.000000 0.000000 0.063951
#
#
# Mechanical properties :
#
#
# Convention : Reuss Voigt Hill
#
# Bulk Modulus (GPa) = 20.97978 47.23964 34.10971
# Shear Modulus (GPa) = 20.22512 12.52603 16.37557
#
# Velocity S-wave (km/s) = 3.23992 2.54973 2.91532
# Velocity P-wave (km/s) = 4.98847 5.76074 5.38846
#
# Compressibility (1/GPa) = 0.04766494
#
# Stress axis : x y z
#
# Youngs Moduli (GPa) = 67.67019 56.47168 15.93567
#
# Poissons Ratio (x) = 0.33501 -0.10855
# Poissons Ratio (y) = 0.40144 0.39307
# Poissons Ratio (z) = -0.46097 1.39293
#
# Static dielectric constant tensor:
#      x y z
#    x 1.684570 0.000000 0.000000 
#    y 0.000000 1.790520 0.000000 
#    z 0.000000 0.000000 1.634230 
# 
# From -- ./inp_files/71067.got.cif
#   From: 2010.05.17/outbox.cif.g08.bks.cpg/sg74_36_cif.got.tgz:71067.got - 2010.06.03 17:57:02.
