data_PCOD9536284
_publ_section_title
;
Structure prediction by ZEFSAII (Michael W. Deem and Ramdas Pophale) SiO2 
 PCOD9536284
Probable space group: I M M A
;
_chemical_formula_sum "Si O2"
_cell_formula_units_Z 96
_cell_length_a 15.799857
_cell_length_b 15.069405
_cell_length_c 21.516238
_cell_angle_alpha 90.000000
_cell_angle_beta 90.000000
_cell_angle_gamma 90.000000
_cell_volume 5122.896725
_symmetry_space_group_name_H-M "I M M A"
_symmetry_group_IT_number 74
_symmetry_cell_setting 'orthorhombic'
loop_
_space_group_symop_operation_xyz
x,y,z
-x,1/2-y,z
x,-y,-z
-x,1/2+y,-z
-x,-y,-z
x,1/2+y,-z
-x,y,z
x,1/2-y,z
1/2+x,1/2+y,1/2+z
1/2-x,-y,1/2+z
1/2+x,1/2-y,1/2-z
1/2-x,y,1/2-z
1/2-x,1/2-y,1/2-z
1/2+x,y,1/2-z
1/2-x,1/2+y,1/2+z
1/2+x,-y,1/2+z
loop_
_atom_site_type_symbol
_atom_site_label
_atom_site_fract_x
_atom_site_fract_y
_atom_site_fract_z
Si Si1 0.264610 0.850425 0.634578
Si Si2 0.162054 0.506859 0.216779
Si Si3 0.901634 0.147493 0.883188
Si Si4 0.226456 0.607199 0.005677
Si Si5 0.093294 0.914580 0.454376
Si Si6 0.093738 0.046626 0.345013
O O1 0.271916 0.750000 0.657220
O O2 0.316377 0.920022 0.675943
O O3 0.291741 0.856449 0.562758
O O4 0.167786 0.885032 0.638382
O O5 0.250000 0.534805 0.250000
O O6 0.127103 0.581812 0.171451
O O7 0.101755 0.479815 0.273276
O O8 0.894448 0.250000 0.863439
O O9 0.841444 0.133178 0.942637
O O10 0.000000 0.130056 0.898959
O O11 0.321463 0.635424 0.026340
O O12 0.227008 0.500000 0.000000
O O13 0.000000 0.871272 0.456968
O O14 0.089154 0.000000 0.500000
O O15 0.106602 0.958602 0.386773
O O16 0.000000 0.080854 0.359666
#
# Coordination Sequence:
#
# PCOD9536284 Si02
#       6
#    16  16  16  16  16  16
#     4  11  22  36  56  83 116 154 197 242 286 342
#     4  10  21  39  60  83 115 155 198 241 295 350
#     4  11  24  41  62  90 120 152 197 250 301 355
#     4  11  18  37  62  87 114 157 195 240 297 352
#     4   9  16  30  58  88 113 147 190 235 290 347
#     4  10  19  33  55  84 115 149 191 236 285 347
#
# _framework density 18.739398999999999
#
# number of rings (size 3 to 8) (size 9 to 14) (size 15 to 20)
#    0.000    1.667    5.000    2.000    0.000    4.000 
#    0.000    0.000    0.000    4.000    0.000    2.333 
#    0.000    0.000    0.000    0.000    0.000    0.000 
#
# Total GULP energy -267865.682626 kJ/mol
# GULP energy per Si atom -5580.535055 kJ/mol
# Density = 1.869675 g / cm^3
# Si number density = 18.739399 Si / 1000 Ang^3
#
#
#
# Elastic Constant Matrix: (Units=GPa)
#
#
# Indices 1 2 3 4 5 6 
#
# 1 87.3621 23.5114 41.0106 0.0000 0.0000 0.0000
# 2 23.5114 61.5868 27.8427 0.0000 0.0000 0.0000
# 3 41.0106 27.8427 126.5045 0.0000 0.0000 0.0000
# 4 0.0000 0.0000 0.0000 0.7291 0.0000 0.0000
# 5 0.0000 0.0000 0.0000 0.0000 -10.2672 0.0000
# 6 0.0000 0.0000 0.0000 0.0000 0.0000 8.7875
#
#
#
# Elastic Compliance Matrix: (Units=1/GPa)
#
#
# Indices 1 2 3 4 5 6 
#
# 1 0.014228 -0.003716 -0.003795 0.000000 0.000000 0.000000
# 2 -0.003716 0.019002 -0.002977 0.000000 0.000000 0.000000
# 3 -0.003795 -0.002977 0.009790 0.000000 0.000000 0.000000
# 4 0.000000 0.000000 0.000000 1.371603 0.000000 0.000000
# 5 0.000000 0.000000 0.000000 0.000000 -0.097397 0.000000
# 6 0.000000 0.000000 0.000000 0.000000 0.000000 0.113799
#
#
# Mechanical properties :
#
#
# Convention : Reuss Voigt Hill
#
# Bulk Modulus (GPa) = 45.36412 51.13143 48.24777
# Shear Modulus (GPa) = 3.42618 12.05577 7.74098
#
# Velocity S-wave (km/s) = 1.35363 2.53916 2.03466
# Velocity P-wave (km/s) = 5.16754 5.99510 5.59664
#
# Compressibility (1/GPa) = 0.02204385
#
# Stress axis : x y z
#
# Youngs Moduli (GPa) = 70.28373 52.62592 102.14179
#
# Poissons Ratio (x) = 0.19557 0.38758
# Poissons Ratio (y) = 0.26119 0.30412
# Poissons Ratio (z) = 0.26670 0.15669
#
# Static dielectric constant tensor:
#      x y z
#    x 1.670900 0.000000 0.000000 
#    y 0.000000 1.635550 0.000000 
#    z 0.000000 0.000000 1.646090 
# 
# From -- ./inp_files/51846.got.cif
#   From: 2010.05.17/outbox.cif.g08.bks.cpg/sg74_26_cif.got.tgz:51846.got - 2010.06.03 17:57:02.
