data_PCOD9536590
_publ_section_title
;
Structure prediction by ZEFSAII (Michael W. Deem and Ramdas Pophale) SiO2 
 PCOD9536590
Probable space group: I M M A
;
_chemical_formula_sum "Si O2"
_cell_formula_units_Z 112
_cell_length_a 15.126462
_cell_length_b 27.619881
_cell_length_c 15.640941
_cell_angle_alpha 90.000000
_cell_angle_beta 90.000000
_cell_angle_gamma 90.000000
_cell_volume 6534.645639
_symmetry_space_group_name_H-M "I M M A"
_symmetry_group_IT_number 74
_symmetry_cell_setting 'orthorhombic'
loop_
_space_group_symop_operation_xyz
x,y,z
-x,1/2-y,z
x,-y,-z
-x,1/2+y,-z
-x,-y,-z
x,1/2+y,-z
-x,y,z
x,1/2-y,z
1/2+x,1/2+y,1/2+z
1/2-x,-y,1/2+z
1/2+x,1/2-y,1/2-z
1/2-x,y,1/2-z
1/2-x,1/2-y,1/2-z
1/2+x,y,1/2-z
1/2-x,1/2+y,1/2+z
1/2+x,-y,1/2+z
loop_
_atom_site_type_symbol
_atom_site_label
_atom_site_fract_x
_atom_site_fract_y
_atom_site_fract_z
Si Si1 0.902745 0.307014 0.431590
Si Si2 0.273242 0.948771 0.158076
Si Si3 0.216175 0.889476 0.509948
Si Si4 0.598668 0.613286 0.597402
Si Si5 0.397805 0.972633 0.907792
Si Si6 0.404214 0.997581 0.603567
Si Si7 0.644520 0.194234 0.263836
O O1 0.892064 0.250000 0.446473
O O2 0.828691 0.338076 0.476813
O O3 0.896521 0.314039 0.329421
O O4 0.000000 0.322634 0.460796
O O5 0.250000 0.927514 0.250000
O O6 0.295907 0.910687 0.084446
O O7 0.349653 0.990066 0.156502
O O8 0.182817 0.975095 0.130989
O O9 0.319204 0.885651 0.532885
O O10 0.164632 0.926179 0.574920
O O11 0.500000 0.619449 0.559925
O O12 0.601125 0.558332 0.632553
O O13 0.613771 0.654280 0.668742
O O14 0.500000 0.961212 0.885469
O O15 0.398942 0.000000 0.000000
O O16 0.500000 0.017284 0.631992
O O17 0.404057 0.000000 0.500000
O O18 0.624812 0.250000 0.290357
O O19 0.750000 0.190515 0.250000
#
# Coordination Sequence:
#
# PCOD9536590 Si02
#       7
#    16  16  16  16  16  16  16
#     4  10  21  37  58  81 108 144 179 215 268 332
#     4  11  22  35  53  78 108 140 181 229 278 319
#     4  11  20  36  56  77 107 142 184 228 267 317
#     4  11  21  32  54  79 105 147 189 220 264 316
#     4   9  18  34  54  75 102 139 176 220 275 322
#     4  10  19  35  54  73 101 142 188 226 262 316
#     4  10  20  35  54  81 116 145 172 217 270 323
#
# _framework density 17.139413999999999
#
# number of rings (size 3 to 8) (size 9 to 14) (size 15 to 20)
#    0.000    1.714    4.286    1.286    0.000    3.714 
#    0.000    1.429    0.000    0.429    0.000    0.000 
#    0.000    0.000    0.000    0.000    0.000    0.000 
#
# Total GULP energy -312392.144709 kJ/mol
# GULP energy per Si atom -5578.431156 kJ/mol
# Density = 1.710040 g / cm^3
# Si number density = 17.139414 Si / 1000 Ang^3
#
#
#
# Elastic Constant Matrix: (Units=GPa)
#
#
# Indices 1 2 3 4 5 6 
#
# 1 118.4267 19.9300 15.3787 0.0000 0.0000 0.0000
# 2 19.9300 56.6331 23.7938 -0.0003 0.0000 0.0001
# 3 15.3787 23.7938 45.2206 -0.0001 0.0000 0.0000
# 4 0.0000 -0.0003 -0.0001 21.8448 0.0000 0.0001
# 5 0.0000 0.0000 0.0000 0.0000 12.8486 0.0000
# 6 0.0000 0.0001 0.0000 0.0001 0.0000 8.7756
#
#
#
# Elastic Compliance Matrix: (Units=1/GPa)
#
#
# Indices 1 2 3 4 5 6 
#
# 1 0.009089 -0.002439 -0.001808 0.000000 0.000000 0.000000
# 2 -0.002439 0.023323 -0.011443 0.000000 0.000000 0.000000
# 3 -0.001808 -0.011443 0.028749 0.000000 0.000000 0.000000
# 4 0.000000 0.000000 0.000000 0.045777 0.000000 0.000000
# 5 0.000000 0.000000 0.000000 0.000000 0.077830 0.000000
# 6 0.000000 0.000000 0.000000 0.000000 0.000000 0.113952
#
#
# Mechanical properties :
#
#
# Convention : Reuss Voigt Hill
#
# Bulk Modulus (GPa) = 33.57607 37.60950 35.59279
# Shear Modulus (GPa) = 14.70467 19.43898 17.07182
#
# Velocity S-wave (km/s) = 2.93225 3.37140 3.15946
# Velocity P-wave (km/s) = 5.57643 6.09475 5.84134
#
# Compressibility (1/GPa) = 0.02978311
#
# Stress axis : x y z
#
# Youngs Moduli (GPa) = 110.01980 42.87544 34.78342
#
# Poissons Ratio (x) = 0.10458 0.06288
# Poissons Ratio (y) = 0.26836 0.39801
# Poissons Ratio (z) = 0.19888 0.49061
#
# Static dielectric constant tensor:
#      x y z
#    x 1.619270 0.000000 0.000000 
#    y 0.000000 1.578520 0.000000 
#    z 0.000000 0.000000 1.593130 
# 
# From -- ./inp_files/32895.got.cif
#   From: 2010.05.17/outbox.cif.g08.bks.cpg/sg74_17_cif.got.tgz:32895.got - 2010.06.03 17:57:02.
