data_PCOD9536468
_publ_section_title
;
Structure prediction by ZEFSAII (Michael W. Deem and Ramdas Pophale) SiO2 
 PCOD9536468
Probable space group: I M M A
;
_chemical_formula_sum "Si O2"
_cell_formula_units_Z 80
_cell_length_a 16.100408
_cell_length_b 27.208869
_cell_length_c 9.010234
_cell_angle_alpha 90.000000
_cell_angle_beta 90.000000
_cell_angle_gamma 90.000000
_cell_volume 3947.148277
_symmetry_space_group_name_H-M "I M M A"
_symmetry_group_IT_number 74
_symmetry_cell_setting 'orthorhombic'
loop_
_space_group_symop_operation_xyz
x,y,z
-x,1/2-y,z
x,-y,-z
-x,1/2+y,-z
-x,-y,-z
x,1/2+y,-z
-x,y,z
x,1/2-y,z
1/2+x,1/2+y,1/2+z
1/2-x,-y,1/2+z
1/2+x,1/2-y,1/2-z
1/2-x,y,1/2-z
1/2-x,1/2-y,1/2-z
1/2+x,y,1/2-z
1/2-x,1/2+y,1/2+z
1/2+x,-y,1/2+z
loop_
_atom_site_type_symbol
_atom_site_label
_atom_site_fract_x
_atom_site_fract_y
_atom_site_fract_z
Si Si1 0.093541 0.121508 0.112053
Si Si2 0.814682 0.025018 0.142547
Si Si3 0.093382 0.459457 0.629868
Si Si4 0.238480 0.305345 0.070794
Si Si5 0.904616 0.357804 0.467203
O O1 0.164768 0.155788 0.041499
O O2 0.094364 0.130633 0.290474
O O3 0.000000 0.131669 0.059015
O O4 0.117611 0.064497 0.093334
O O5 0.750000 0.052454 0.250000
O O6 0.649545 0.981304 0.258205
O O7 0.774634 0.000000 0.000000
O O8 0.090550 0.500000 0.500000
O O9 0.115394 0.407743 0.555947
O O10 0.000000 0.454591 0.689874
O O11 0.216146 0.250000 0.025137
O O12 0.250000 0.305114 0.250000
O O13 0.328107 0.321140 0.007168
O O14 0.000000 0.342374 0.504065
#
# Coordination Sequence:
#
# PCOD9536468 Si02
#       5
#    16  16  16  16  16
#     4  10  20  34  53  77 111 154 199 244 293 348
#     4  12  25  36  55  83 117 156 193 244 299 357
#     4  10  19  34  56  80 112 155 196 230 281 353
#     4   9  18  31  50  78 115 154 198 251 298 344
#     4   9  17  31  55  81 112 154 196 239 289 350
#
# _framework density 20.267797999999999
#
# number of rings (size 3 to 8) (size 9 to 14) (size 15 to 20)
#    0.000    2.000    2.000    3.000    2.800    2.400 
#    0.000    4.000    0.000    0.000    0.000    2.800 
#    0.000    3.200    0.000    0.000    0.000    0.000 
#
# Total GULP energy -223223.801513 kJ/mol
# GULP energy per Si atom -5580.595038 kJ/mol
# Density = 2.022167 g / cm^3
# Si number density = 20.267798 Si / 1000 Ang^3
#
#
#
# Elastic Constant Matrix: (Units=GPa)
#
#
# Indices 1 2 3 4 5 6 
#
# 1 135.9101 62.3773 22.4611 0.0000 0.0002 0.0000
# 2 62.3773 77.2831 20.0967 0.0000 0.0000 0.0001
# 3 22.4611 20.0967 33.7158 -0.0003 0.0003 0.0002
# 4 0.0000 0.0000 -0.0003 8.9444 0.0001 0.0001
# 5 0.0002 0.0000 0.0003 0.0001 13.9801 0.0000
# 6 0.0000 0.0001 0.0002 0.0001 0.0000 19.0930
#
#
#
# Elastic Compliance Matrix: (Units=1/GPa)
#
#
# Indices 1 2 3 4 5 6 
#
# 1 0.011877 -0.008910 -0.002602 0.000000 0.000000 0.000000
# 2 -0.008910 0.021997 -0.007176 0.000000 0.000000 0.000000
# 3 -0.002602 -0.007176 0.035670 0.000001 -0.000001 0.000000
# 4 0.000000 0.000000 0.000001 0.111801 0.000000 -0.000001
# 5 0.000000 0.000000 -0.000001 0.000000 0.071530 0.000000
# 6 0.000000 0.000000 0.000000 -0.000001 0.000000 0.052375
#
#
# Mechanical properties :
#
#
# Convention : Reuss Voigt Hill
#
# Bulk Modulus (GPa) = 31.08534 50.75324 40.91929
# Shear Modulus (GPa) = 14.15035 17.86843 16.00939
#
# Velocity S-wave (km/s) = 2.64516 2.97242 2.81355
# Velocity P-wave (km/s) = 4.96988 6.07257 5.54869
#
# Compressibility (1/GPa) = 0.03216950
#
# Stress axis : x y z
#
# Youngs Moduli (GPa) = 84.19682 45.46135 28.03469
#
# Poissons Ratio (x) = 0.40505 0.07293
# Poissons Ratio (y) = 0.75017 0.20117
# Poissons Ratio (z) = 0.21904 0.32622
#
# Static dielectric constant tensor:
#      x y z
#    x 1.764660 0.000000 0.000000 
#    y 0.000000 1.698800 0.000000 
#    z 0.000000 0.000000 1.718940 
# 
# From -- ./inp_files/20529.got.cif
#   From: 2010.05.17/outbox.cif.g08.bks.cpg/sg74_11_cif.got.tgz:20529.got - 2010.06.03 17:57:02.
