data_PCOD9536036
_publ_section_title
;
Structure prediction by ZEFSAII (Michael W. Deem and Ramdas Pophale) SiO2 
 PCOD9536036
Probable space group: I M M A
;
_chemical_formula_sum "Si O2"
_cell_formula_units_Z 116
_cell_length_a 22.124336
_cell_length_b 7.882893
_cell_length_c 30.677927
_cell_angle_alpha 90.000000
_cell_angle_beta 90.000000
_cell_angle_gamma 90.000000
_cell_volume 5350.346228
_symmetry_space_group_name_H-M "I M M A"
_symmetry_group_IT_number 74
_symmetry_cell_setting 'orthorhombic'
loop_
_space_group_symop_operation_xyz
x,y,z
-x,1/2-y,z
x,-y,-z
-x,1/2+y,-z
-x,-y,-z
x,1/2+y,-z
-x,y,z
x,1/2-y,z
1/2+x,1/2+y,1/2+z
1/2-x,-y,1/2+z
1/2+x,1/2-y,1/2-z
1/2-x,y,1/2-z
1/2-x,1/2-y,1/2-z
1/2+x,y,1/2-z
1/2-x,1/2+y,1/2+z
1/2+x,-y,1/2+z
loop_
_atom_site_type_symbol
_atom_site_label
_atom_site_fract_x
_atom_site_fract_y
_atom_site_fract_z
Si Si1 0.268424 0.557864 0.905169
Si Si2 0.500000 0.250000 0.927951
Si Si3 0.590563 0.447896 0.096272
Si Si4 0.112958 0.456787 0.692403
Si Si5 0.750622 0.056067 0.813704
Si Si6 0.619642 0.955529 0.287471
Si Si7 0.567561 0.451754 0.380434
Si Si8 0.160552 0.444865 0.954129
O O1 0.266694 0.750000 0.888365
O O2 0.338368 0.518531 0.913364
O O3 0.241856 0.447106 0.865842
O O4 0.222886 0.542830 0.944965
O O5 0.551822 0.403131 0.925199
O O6 0.577141 0.250000 0.084621
O O7 0.583276 0.468530 0.148993
O O8 0.110393 0.250000 0.687678
O O9 0.183369 0.514188 0.692592
O O10 0.090970 0.502554 0.740842
O O11 0.746484 0.250000 0.798695
O O12 0.810629 0.981573 0.792094
O O13 0.622249 0.750000 0.288215
O O14 0.585299 0.012413 0.330503
O O15 0.500000 0.516525 0.388597
O O16 0.568563 0.250000 0.386622
O O17 0.615095 0.525949 0.414361
O O18 0.176696 0.250000 0.956509
O O19 0.132797 0.500000 0.000000
#
# Coordination Sequence:
#
# PCOD9536036 Si02
#       8
#    16   4  16  16  16  16  16  16
#     4  10  20  36  60  92 129 158 196 251 311 371
#     4  12  22  40  64  86 128 172 222 260 312 370
#     4  10  22  38  60  90 127 171 217 266 313 368
#     4   9  17  32  51  80 120 161 210 265 321 369
#     4   9  16  28  52  82 114 156 199 252 315 374
#     4  10  19  32  54  82 112 158 210 261 313 372
#     4  11  25  44  61  82 119 166 212 258 314 376
#     4  12  25  42  69  98 126 155 193 249 313 377
#
# _framework density 21.680841000000001
#
# number of rings (size 3 to 8) (size 9 to 14) (size 15 to 20)
#    0.000    1.793    2.069    2.690    1.931    3.586 
#    1.241    0.000    0.000    4.138    0.000    0.483 
#    0.000    0.000    0.000    0.000    0.000    0.000 
#
# Total GULP energy -323234.618079 kJ/mol
# GULP energy per Si atom -5573.010657 kJ/mol
# Density = 2.163149 g / cm^3
# Si number density = 21.680841 Si / 1000 Ang^3
#
#
#
# Elastic Constant Matrix: (Units=GPa)
#
#
# Indices 1 2 3 4 5 6 
#
# 1 61.2544 19.1376 8.8425 0.0000 0.0000 0.0000
# 2 19.1376 77.4143 -7.6728 0.0000 0.0000 0.0000
# 3 8.8425 -7.6728 41.4647 0.0000 0.0000 0.0000
# 4 0.0000 0.0000 0.0000 17.6127 0.0000 0.0000
# 5 0.0000 0.0000 0.0000 0.0000 -2.3825 0.0000
# 6 0.0000 0.0000 0.0000 0.0000 0.0000 25.4349
#
#
#
# Elastic Compliance Matrix: (Units=1/GPa)
#
#
# Indices 1 2 3 4 5 6 
#
# 1 0.018625 -0.005091 -0.004914 0.000000 0.000000 0.000000
# 2 -0.005091 0.014551 0.003778 0.000000 0.000000 0.000000
# 3 -0.004914 0.003778 0.025864 0.000000 0.000000 0.000000
# 4 0.000000 0.000000 0.000000 0.056777 0.000000 0.000000
# 5 0.000000 0.000000 0.000000 0.000000 -0.419730 0.000000
# 6 0.000000 0.000000 0.000000 0.000000 0.000000 0.039316
#
#
# Mechanical properties :
#
#
# Convention : Reuss Voigt Hill
#
# Bulk Modulus (GPa) = 21.46586 24.52755 22.99670
# Shear Modulus (GPa) = -21.13150 18.78811 -1.17169
#
# Velocity S-wave (km/s) = -3.12534 2.94696 -0.73594
# Velocity P-wave (km/s) = 1.76107 4.78717 3.14767
#
# Compressibility (1/GPa) = 0.04658561
#
# Stress axis : x y z
#
# Youngs Moduli (GPa) = 53.69002 68.72548 38.66377
#
# Poissons Ratio (x) = 0.34991 0.19000
# Poissons Ratio (y) = 0.27336 -0.14608
# Poissons Ratio (z) = 0.26384 -0.25966
#
# Static dielectric constant tensor:
#      x y z
#    x 1.811830 0.000000 0.000000 
#    y 0.000000 1.803130 0.000000 
#    z 0.000000 0.000000 1.827560 
# 
# From -- ./inp_files/73761.got.cif
#   From: 2010.05.17/outbox.cif.g08.bks.cpg/sg74_37_cif.got.tgz:73761.got - 2010.06.03 17:57:02.
