data_PCOD9536248
_publ_section_title
;
Structure prediction by ZEFSAII (Michael W. Deem and Ramdas Pophale) SiO2 
 PCOD9536248
Probable space group: I M M A
;
_chemical_formula_sum "Si O2"
_cell_formula_units_Z 100
_cell_length_a 21.357988
_cell_length_b 8.856228
_cell_length_c 31.861431
_cell_angle_alpha 90.000000
_cell_angle_beta 90.000000
_cell_angle_gamma 90.000000
_cell_volume 6026.628269
_symmetry_space_group_name_H-M "I M M A"
_symmetry_group_IT_number 74
_symmetry_cell_setting 'orthorhombic'
loop_
_space_group_symop_operation_xyz
x,y,z
-x,1/2-y,z
x,-y,-z
-x,1/2+y,-z
-x,-y,-z
x,1/2+y,-z
-x,y,z
x,1/2-y,z
1/2+x,1/2+y,1/2+z
1/2-x,-y,1/2+z
1/2+x,1/2-y,1/2-z
1/2-x,y,1/2-z
1/2-x,1/2-y,1/2-z
1/2+x,y,1/2-z
1/2-x,1/2+y,1/2+z
1/2+x,-y,1/2+z
loop_
_atom_site_type_symbol
_atom_site_label
_atom_site_fract_x
_atom_site_fract_y
_atom_site_fract_z
Si Si1 0.193789 0.069217 0.218337
Si Si2 0.240718 0.925833 0.133573
Si Si3 0.744650 0.073625 0.044855
Si Si4 0.390589 0.424826 0.853997
Si Si5 0.070896 0.931324 0.259052
Si Si6 0.403680 0.078005 0.061936
Si Si7 0.500000 0.500000 0.000000
O O1 0.193813 0.250000 0.218896
O O2 0.250000 0.017739 0.250000
O O3 0.207143 0.011161 0.171506
O O4 0.127254 0.008214 0.234191
O O5 0.223365 0.750000 0.133494
O O6 0.314985 0.935176 0.144310
O O7 0.230168 0.994376 0.087170
O O8 0.761537 0.250000 0.044735
O O9 0.669096 0.064098 0.050335
O O10 0.761294 0.000000 0.000000
O O11 0.406880 0.250000 0.863781
O O12 0.416620 0.461322 0.808307
O O13 0.413033 0.537984 0.889705
O O14 0.075261 0.750000 0.253560
O O15 0.000000 0.978236 0.247907
O O16 0.424753 0.250000 0.052395
O O17 0.445353 0.968440 0.034698
#
# Coordination Sequence:
#
# PCOD9536248 Si02
#       7
#    16  16  16  16  16  16   4
#     4  11  22  35  54  80 108 141 181 225 271 322
#     4  10  19  33  55  78 101 135 176 220 270 319
#     4  10  19  34  51  71  99 129 165 212 267 319
#     4   9  19  34  52  72  96 128 169 218 268 317
#     4  10  21  37  55  77 106 141 178 218 269 324
#     4  10  22  34  46  63  87 122 167 217 265 313
#     4  12  22  36  44  62  86 128 176 222 272 316
#
# _framework density 16.593025000000001
#
# number of rings (size 3 to 8) (size 9 to 14) (size 15 to 20)
#    0.000    1.920    2.400    1.680    1.120    4.160 
#    0.000    0.000    0.000    0.000    0.000    0.000 
#    0.000    0.640    0.000    2.400    0.000    3.680 
#
# Total GULP energy -278449.571827 kJ/mol
# GULP energy per Si atom -5568.991437 kJ/mol
# Density = 1.655526 g / cm^3
# Si number density = 16.593025 Si / 1000 Ang^3
#
#
#
# Elastic Constant Matrix: (Units=GPa)
#
#
# Indices 1 2 3 4 5 6 
#
# 1 65.8615 33.6914 50.1822 0.0000 0.0000 0.0000
# 2 33.6914 54.4994 48.6959 0.0000 0.0000 0.0000
# 3 50.1822 48.6959 126.1281 0.0000 0.0000 0.0000
# 4 0.0000 0.0000 0.0000 24.7008 0.0000 0.0000
# 5 0.0000 0.0000 0.0000 0.0000 33.2601 0.0000
# 6 0.0000 0.0000 0.0000 0.0000 0.0000 12.7640
#
#
#
# Elastic Compliance Matrix: (Units=1/GPa)
#
#
# Indices 1 2 3 4 5 6 
#
# 1 0.024904 -0.009988 -0.006052 0.000000 0.000000 0.000000
# 2 -0.009988 0.032018 -0.008388 0.000000 0.000000 0.000000
# 3 -0.006052 -0.008388 0.013575 0.000000 0.000000 0.000000
# 4 0.000000 0.000000 0.000000 0.040484 0.000000 0.000000
# 5 0.000000 0.000000 0.000000 0.000000 0.030066 0.000000
# 6 0.000000 0.000000 0.000000 0.000000 0.000000 0.078345
#
#
# Mechanical properties :
#
#
# Convention : Reuss Voigt Hill
#
# Bulk Modulus (GPa) = 46.20870 56.84758 51.52814
# Shear Modulus (GPa) = 18.15131 21.73962 19.94547
#
# Velocity S-wave (km/s) = 3.31102 3.62355 3.47080
# Velocity P-wave (km/s) = 6.52119 7.20008 6.86902
#
# Compressibility (1/GPa) = 0.02164095
#
# Stress axis : x y z
#
# Youngs Moduli (GPa) = 40.15386 31.23266 73.66550
#
# Poissons Ratio (x) = 0.31195 0.44586
# Poissons Ratio (y) = 0.40105 0.61788
# Poissons Ratio (z) = 0.24303 0.26197
#
# Static dielectric constant tensor:
#      x y z
#    x 1.606930 0.000000 0.000000 
#    y 0.000000 1.597160 0.000000 
#    z 0.000000 0.000000 1.564020 
# 
# From -- ./inp_files/73398.got.cif
#   From: 2010.05.17/outbox.cif.g08.bks.cpg/sg74_37_cif.got.tgz:73398.got - 2010.06.03 17:57:02.
