data_PCOD9536512
_publ_section_title
;
Structure prediction by ZEFSAII (Michael W. Deem and Ramdas Pophale) SiO2 
 PCOD9536512
Probable space group: I M M A
;
_chemical_formula_sum "Si O2"
_cell_formula_units_Z 80
_cell_length_a 14.087030
_cell_length_b 16.663684
_cell_length_c 18.079502
_cell_angle_alpha 90.000000
_cell_angle_beta 90.000000
_cell_angle_gamma 90.000000
_cell_volume 4244.015139
_symmetry_space_group_name_H-M "I M M A"
_symmetry_group_IT_number 74
_symmetry_cell_setting 'orthorhombic'
loop_
_space_group_symop_operation_xyz
x,y,z
-x,1/2-y,z
x,-y,-z
-x,1/2+y,-z
-x,-y,-z
x,1/2+y,-z
-x,y,z
x,1/2-y,z
1/2+x,1/2+y,1/2+z
1/2-x,-y,1/2+z
1/2+x,1/2-y,1/2-z
1/2-x,y,1/2-z
1/2-x,1/2-y,1/2-z
1/2+x,y,1/2-z
1/2-x,1/2+y,1/2+z
1/2+x,-y,1/2+z
loop_
_atom_site_type_symbol
_atom_site_label
_atom_site_fract_x
_atom_site_fract_y
_atom_site_fract_z
Si Si1 0.887926 0.020550 0.413802
Si Si2 0.232719 0.841404 0.665602
Si Si3 0.390094 0.658766 0.441507
Si Si4 0.387999 0.075994 0.406558
Si Si5 0.734265 0.070536 0.662899
O O1 0.836048 0.100441 0.381794
O O2 0.000000 0.026264 0.401232
O O3 0.871214 0.000000 0.500000
O O4 0.836898 0.948510 0.370874
O O5 0.198099 0.750000 0.666229
O O6 0.250000 0.869143 0.750000
O O7 0.336877 0.848037 0.630209
O O8 0.500000 0.647984 0.418091
O O9 0.381310 0.750000 0.469923
O O10 0.372251 0.593409 0.506236
O O11 0.317530 0.645251 0.374905
O O12 0.500000 0.070154 0.394744
O O13 0.333911 0.002166 0.367058
O O14 0.750000 0.073910 0.750000
#
# Coordination Sequence:
#
# PCOD9536512 Si02
#       5
#    16  16  16  16  16
#     4  10  21  37  55  75 104 147 196 236 267 312
#     4  10  21  35  53  81 114 146 180 224 283 341
#     4  10  21  37  59  86 113 144 183 228 281 337
#     4  10  19  34  57  83 111 142 179 226 278 333
#     4  11  22  35  56  82 111 147 183 225 278 331
#
# _framework density 18.850075
#
# number of rings (size 3 to 8) (size 9 to 14) (size 15 to 20)
#    0.000    1.800    0.000    6.600    0.000    7.600 
#    0.000    2.000    0.000    1.800    0.000    0.000 
#    0.000    0.000    0.000    0.000    0.000    0.000 
#
# Total GULP energy -222885.162078 kJ/mol
# GULP energy per Si atom -5572.129052 kJ/mol
# Density = 1.880717 g / cm^3
# Si number density = 18.850075 Si / 1000 Ang^3
#
#
#
# Elastic Constant Matrix: (Units=GPa)
#
#
# Indices 1 2 3 4 5 6 
#
# 1 94.6975 30.0247 71.6422 0.0000 0.0000 0.0000
# 2 30.0247 73.8696 31.8729 0.0000 0.0000 0.0000
# 3 71.6422 31.8729 148.5476 0.0000 0.0000 0.0000
# 4 0.0000 0.0000 0.0000 26.6289 0.0000 0.0000
# 5 0.0000 0.0000 0.0000 0.0000 -12.7834 0.0000
# 6 0.0000 0.0000 0.0000 0.0000 0.0000 17.5328
#
#
#
# Elastic Compliance Matrix: (Units=1/GPa)
#
#
# Indices 1 2 3 4 5 6 
#
# 1 0.017562 -0.003839 -0.007646 0.000000 0.000000 0.000000
# 2 -0.003839 0.015758 -0.001530 0.000000 0.000000 0.000000
# 3 -0.007646 -0.001530 0.010748 0.000000 0.000000 0.000000
# 4 0.000000 0.000000 0.000000 0.037553 0.000000 0.000000
# 5 0.000000 0.000000 0.000000 0.000000 -0.078226 0.000000
# 6 0.000000 0.000000 0.000000 0.000000 0.000000 0.057036
#
#
# Mechanical properties :
#
#
# Convention : Reuss Voigt Hill
#
# Bulk Modulus (GPa) = 55.43892 64.91048 60.17470
# Shear Modulus (GPa) = 54.07090 18.51399 36.29244
#
# Velocity S-wave (km/s) = 5.36162 3.13736 4.39261
# Velocity P-wave (km/s) = 8.23430 6.90173 7.59729
#
# Compressibility (1/GPa) = 0.01803787
#
# Stress axis : x y z
#
# Youngs Moduli (GPa) = 56.94252 63.46103 93.04435
#
# Poissons Ratio (x) = 0.24362 0.71141
# Poissons Ratio (y) = 0.21860 0.14232
# Poissons Ratio (z) = 0.43538 0.09707
#
# Static dielectric constant tensor:
#      x y z
#    x 1.641260 0.000000 0.000000 
#    y 0.000000 1.715610 0.000000 
#    z 0.000000 0.000000 1.683410 
# 
# From -- ./inp_files/32128.got.cif
#   From: 2010.05.17/outbox.cif.g08.bks.cpg/sg74_17_cif.got.tgz:32128.got - 2010.06.03 17:57:02.
