data_PCOD9536289
_publ_section_title
;
Structure prediction by ZEFSAII (Michael W. Deem and Ramdas Pophale) SiO2 
 PCOD9536289
Probable space group: I M M A
;
_chemical_formula_sum "Si O2"
_cell_formula_units_Z 116
_cell_length_a 27.295130
_cell_length_b 17.787796
_cell_length_c 12.998011
_cell_angle_alpha 90.000000
_cell_angle_beta 90.000000
_cell_angle_gamma 90.000000
_cell_volume 6310.796955
_symmetry_space_group_name_H-M "I M M A"
_symmetry_group_IT_number 74
_symmetry_cell_setting 'orthorhombic'
loop_
_space_group_symop_operation_xyz
x,y,z
-x,1/2-y,z
x,-y,-z
-x,1/2+y,-z
-x,-y,-z
x,1/2+y,-z
-x,y,z
x,1/2-y,z
1/2+x,1/2+y,1/2+z
1/2-x,-y,1/2+z
1/2+x,1/2-y,1/2-z
1/2-x,y,1/2-z
1/2-x,1/2-y,1/2-z
1/2+x,y,1/2-z
1/2-x,1/2+y,1/2+z
1/2+x,-y,1/2+z
loop_
_atom_site_type_symbol
_atom_site_label
_atom_site_fract_x
_atom_site_fract_y
_atom_site_fract_z
Si Si1 0.271392 0.336479 0.850821
Si Si2 0.141692 0.838968 0.843014
Si Si3 0.732374 0.920768 0.548289
Si Si4 0.379464 0.663587 0.081940
Si Si5 0.921302 0.974878 0.326646
Si Si6 0.660288 0.088896 0.128246
Si Si7 0.557334 0.955621 0.606232
Si Si8 0.000000 0.000000 0.500000
O O1 0.254967 0.250000 0.853380
O O2 0.250000 0.374660 0.750000
O O3 0.329854 0.336855 0.851268
O O4 0.250887 0.373128 0.952119
O O5 0.139178 0.750000 0.863623
O O6 0.188652 0.878059 0.895714
O O7 0.149213 0.854816 0.721706
O O8 0.093648 0.884917 0.879368
O O9 0.782042 0.927658 0.615735
O O10 0.716455 0.000000 0.500000
O O11 0.394502 0.750000 0.065153
O O12 0.418550 0.612319 0.140887
O O13 0.362802 0.624936 0.974931
O O14 0.957802 0.010709 0.409775
O O15 0.868344 0.012134 0.347187
O O16 0.935192 0.993223 0.209088
O O17 0.500000 0.933658 0.602731
O O18 0.568438 0.000000 0.500000
#
# Coordination Sequence:
#
# PCOD9536289 Si02
#       8
#    16  16  16  16  16  16  16   4
#     4   9  19  34  52  75 109 151 189 228 279 338
#     4  11  24  39  60  90 120 154 199 252 305 357
#     4  11  22  35  55  83 117 156 194 241 290 356
#     4  10  19  33  55  85 120 153 188 237 301 364
#     4  11  21  38  63  89 117 154 196 249 301 359
#     4  10  20  37  58  84 121 159 200 239 299 367
#     4  10  23  44  67  87 115 159 205 247 298 362
#     4  12  20  36  68  88 116 152 202 250 310 348
#
# _framework density 18.381197
#
# number of rings (size 3 to 8) (size 9 to 14) (size 15 to 20)
#    0.000    1.655    2.069    3.310    0.000    6.897 
#    0.000    2.414    0.000    0.828    0.000    0.000 
#    0.000    0.000    0.000    0.000    0.000    0.000 
#
# Total GULP energy -323054.554114 kJ/mol
# GULP energy per Si atom -5569.906105 kJ/mol
# Density = 1.833936 g / cm^3
# Si number density = 18.381197 Si / 1000 Ang^3
#
#
#
# Elastic Constant Matrix: (Units=GPa)
#
#
# Indices 1 2 3 4 5 6 
#
# 1 99.6861 37.6084 48.5421 0.0000 0.0000 0.0000
# 2 37.6084 101.6346 30.3671 0.0000 0.0000 0.0000
# 3 48.5421 30.3671 107.7249 0.0000 0.0000 0.0000
# 4 0.0000 0.0000 0.0000 18.3040 0.0000 0.0000
# 5 0.0000 0.0000 0.0000 0.0000 26.5589 0.0000
# 6 0.0000 0.0000 0.0000 0.0000 0.0000 5.2402
#
#
#
# Elastic Compliance Matrix: (Units=1/GPa)
#
#
# Indices 1 2 3 4 5 6 
#
# 1 0.013954 -0.003587 -0.005277 0.000000 0.000000 0.000000
# 2 -0.003587 0.011666 -0.001672 0.000000 0.000000 0.000000
# 3 -0.005277 -0.001672 0.012132 0.000000 0.000000 0.000000
# 4 0.000000 0.000000 0.000000 0.054633 0.000000 0.000000
# 5 0.000000 0.000000 0.000000 0.000000 0.037652 0.000000
# 6 0.000000 0.000000 0.000000 0.000000 0.000000 0.190832
#
#
# Mechanical properties :
#
#
# Convention : Reuss Voigt Hill
#
# Bulk Modulus (GPa) = 59.95062 60.23121 60.09091
# Shear Modulus (GPa) = 14.38841 22.85583 18.62212
#
# Velocity S-wave (km/s) = 2.80085 3.53006 3.18639
# Velocity P-wave (km/s) = 6.56854 7.03236 6.80440
#
# Compressibility (1/GPa) = 0.01668039
#
# Stress axis : x y z
#
# Youngs Moduli (GPa) = 71.66267 85.71830 82.42581
#
# Poissons Ratio (x) = 0.30746 0.43495
# Poissons Ratio (y) = 0.25705 0.13784
# Poissons Ratio (z) = 0.37815 0.14335
#
# Static dielectric constant tensor:
#      x y z
#    x 1.635930 0.000000 0.000000 
#    y 0.000000 1.507790 0.000000 
#    z 0.000000 0.000000 1.662750 
# 
# From -- ./inp_files/27367.got.cif
#   From: 2010.05.17/outbox.cif.g08.bks.cpg/sg74_14_cif.got.tgz:27367.got - 2010.06.03 17:57:02.
