data_PCOD9536844
_publ_section_title
;
Structure prediction by ZEFSAII (Michael W. Deem and Ramdas Pophale) SiO2 
 PCOD9536844
Probable space group: I M M A
;
_chemical_formula_sum "Si O2"
_cell_formula_units_Z 72
_cell_length_a 13.808611
_cell_length_b 14.332394
_cell_length_c 17.143616
_cell_angle_alpha 90.000000
_cell_angle_beta 90.000000
_cell_angle_gamma 90.000000
_cell_volume 3392.900816
_symmetry_space_group_name_H-M "I M M A"
_symmetry_group_IT_number 74
_symmetry_cell_setting 'orthorhombic'
loop_
_space_group_symop_operation_xyz
x,y,z
-x,1/2-y,z
x,-y,-z
-x,1/2+y,-z
-x,-y,-z
x,1/2+y,-z
-x,y,z
x,1/2-y,z
1/2+x,1/2+y,1/2+z
1/2-x,-y,1/2+z
1/2+x,1/2-y,1/2-z
1/2-x,y,1/2-z
1/2-x,1/2-y,1/2-z
1/2+x,y,1/2-z
1/2-x,1/2+y,1/2+z
1/2+x,-y,1/2+z
loop_
_atom_site_type_symbol
_atom_site_label
_atom_site_fract_x
_atom_site_fract_y
_atom_site_fract_z
Si Si1 0.299588 0.858095 0.113087
Si Si2 0.606957 0.636609 0.952885
Si Si3 0.200741 0.855027 0.857363
Si Si4 0.607578 0.609966 0.483339
Si Si5 0.750000 0.491420 0.750000
O O1 0.323211 0.750000 0.130935
O O2 0.365372 0.892998 0.040825
O O3 0.191155 0.861471 0.076386
O O4 0.301204 0.923921 0.187797
O O5 0.500000 0.604598 0.930120
O O6 0.606188 0.750000 0.956057
O O7 0.694945 0.616202 0.894604
O O8 0.204997 0.750000 0.825373
O O9 0.179688 0.936460 0.795992
O O10 0.130398 0.850855 0.931191
O O11 0.613833 0.500000 0.500000
O O12 0.500000 0.634038 0.456539
#
# Coordination Sequence:
#
# PCOD9536844 Si02
#       5
#    16  16  16  16   8
#     4  10  21  37  59  83 111 149 186 228 279 328
#     4   8  16  35  61  84 105 136 185 234 273 318
#     4  10  21  37  59  83 111 149 186 228 279 328
#     4  10  19  37  63  85 108 142 190 243 285 327
#     4  12  22  38  54  78 124 152 182 224 270 344
#
# _framework density 21.220779
#
# number of rings (size 3 to 8) (size 9 to 14) (size 15 to 20)
#    0.000    2.222    2.222    2.667    0.000    1.778 
#    0.000    6.667    0.000    5.333    0.000    0.000 
#    0.000    0.000    0.000    0.000    0.000    0.000 
#
# Total GULP energy -200956.949762 kJ/mol
# GULP energy per Si atom -5582.137493 kJ/mol
# Density = 2.117248 g / cm^3
# Si number density = 21.220779 Si / 1000 Ang^3
#
#
#
# Elastic Constant Matrix: (Units=GPa)
#
#
# Indices 1 2 3 4 5 6 
#
# 1 66.8819 -9.5568 -9.9711 0.0000 0.0000 0.0000
# 2 -9.5568 125.5197 44.6910 0.0000 0.0000 0.0000
# 3 -9.9711 44.6910 82.0389 0.0000 0.0000 0.0000
# 4 0.0000 0.0000 0.0000 -50.0160 0.0000 0.0000
# 5 0.0000 0.0000 0.0000 0.0000 3.7536 0.0000
# 6 0.0000 0.0000 0.0000 0.0000 0.0000 14.3855
#
#
#
# Elastic Compliance Matrix: (Units=1/GPa)
#
#
# Indices 1 2 3 4 5 6 
#
# 1 0.015267 0.000622 0.001516 0.000000 0.000000 0.000000
# 2 0.000622 0.009909 -0.005322 0.000000 0.000000 0.000000
# 3 0.001516 -0.005322 0.015273 0.000000 0.000000 0.000000
# 4 0.000000 0.000000 0.000000 -0.019994 0.000000 0.000000
# 5 0.000000 0.000000 0.000000 0.000000 0.266408 0.000000
# 6 0.000000 0.000000 0.000000 0.000000 0.000000 0.069514
#
#
# Mechanical properties :
#
#
# Convention : Reuss Voigt Hill
#
# Bulk Modulus (GPa) = 29.34100 36.08520 32.71310
# Shear Modulus (GPa) = 13.36520 10.24313 11.80416
#
# Velocity S-wave (km/s) = 2.51234 2.19941 2.36106
# Velocity P-wave (km/s) = 4.71936 4.84680 4.78350
#
# Compressibility (1/GPa) = 0.03408200
#
# Stress axis : x y z
#
# Youngs Moduli (GPa) = 65.50182 100.91508 65.47464
#
# Poissons Ratio (x) = -0.06281 -0.09929
# Poissons Ratio (y) = -0.04077 0.34849
# Poissons Ratio (z) = -0.09933 0.53712
#
# Static dielectric constant tensor:
#      x y z
#    x 1.744950 0.000000 0.000000 
#    y 0.000000 1.813670 0.000000 
#    z 0.000000 0.000000 1.774640 
# 
# From -- ./inp_files/42511.got.cif
#   From: 2010.05.17/outbox.cif.g08.bks.cpg/sg74_22_cif.got.tgz:42511.got - 2010.06.03 17:57:02.
