data_PCOD9536241
_publ_section_title
;
Structure prediction by ZEFSAII (Michael W. Deem and Ramdas Pophale) SiO2 
 PCOD9536241
Probable space group: I M M A
;
_chemical_formula_sum "Si O2"
_cell_formula_units_Z 116
_cell_length_a 7.609579
_cell_length_b 23.937444
_cell_length_c 29.999277
_cell_angle_alpha 90.000000
_cell_angle_beta 90.000000
_cell_angle_gamma 90.000000
_cell_volume 5464.484438
_symmetry_space_group_name_H-M "I M M A"
_symmetry_group_IT_number 74
_symmetry_cell_setting 'orthorhombic'
loop_
_space_group_symop_operation_xyz
x,y,z
-x,1/2-y,z
x,-y,-z
-x,1/2+y,-z
-x,-y,-z
x,1/2+y,-z
-x,y,z
x,1/2-y,z
1/2+x,1/2+y,1/2+z
1/2-x,-y,1/2+z
1/2+x,1/2-y,1/2-z
1/2-x,y,1/2-z
1/2-x,1/2-y,1/2-z
1/2+x,y,1/2-z
1/2-x,1/2+y,1/2+z
1/2+x,-y,1/2+z
loop_
_atom_site_type_symbol
_atom_site_label
_atom_site_fract_x
_atom_site_fract_y
_atom_site_fract_z
Si Si1 0.211296 0.687470 0.967305
Si Si2 0.286984 0.515730 0.050651
Si Si3 0.794291 0.144791 0.937140
Si Si4 0.289619 0.407411 0.104206
Si Si5 0.291292 0.449291 0.799508
Si Si6 0.297437 0.163129 0.840658
Si Si7 0.210999 0.924149 0.700591
Si Si8 0.500000 0.250000 0.686260
O O1 0.274682 0.750000 0.957251
O O2 0.253227 0.642329 0.929776
O O3 0.000000 0.689170 0.970328
O O4 0.275782 0.667180 0.015699
O O5 0.500000 0.517137 0.052243
O O6 0.224765 0.577724 0.062107
O O7 0.225238 0.466370 0.083588
O O8 0.235566 0.500000 0.000000
O O9 0.706648 0.171383 0.893802
O O10 0.000000 0.159255 0.933749
O O11 0.500000 0.413238 0.106322
O O12 0.226199 0.396380 0.154652
O O13 0.500000 0.455135 0.805129
O O14 0.250000 0.428267 0.750000
O O15 0.238314 0.401161 0.833120
O O16 0.218716 0.511914 0.802241
O O17 0.500000 0.170118 0.824709
O O18 0.156297 0.201999 0.817172
O O19 0.250000 0.901585 0.750000
O O20 0.000000 0.925623 0.698989
#
# Coordination Sequence:
#
# PCOD9536241 Si02
#       8
#    16  16  16  16  16  16  16   4
#     4  10  23  39  56  79 114 156 198 247 295 344
#     4  10  19  33  54  82 119 156 191 236 300 361
#     4  11  22  36  59  85 118 156 204 253 298 360
#     4  10  20  36  57  83 120 154 192 244 293 354
#     4   9  19  36  62  88 117 152 191 237 304 369
#     4  11  24  42  63  86 117 158 202 261 316 362
#     4   9  18  34  57  89 120 150 186 235 292 360
#     4  12  26  44  62  86 116 152 218 258 312 364
#
# _framework density 21.227986000000001
#
# number of rings (size 3 to 8) (size 9 to 14) (size 15 to 20)
#    0.000    1.931    2.069    1.448    1.931    4.414 
#    0.000    0.345    0.000    0.414    0.000    0.000 
#    0.000    0.000    0.000    0.000    0.000    0.000 
#
# Total GULP energy -323347.690105 kJ/mol
# GULP energy per Si atom -5574.960174 kJ/mol
# Density = 2.117967 g / cm^3
# Si number density = 21.227986 Si / 1000 Ang^3
#
#
#
# Elastic Constant Matrix: (Units=GPa)
#
#
# Indices 1 2 3 4 5 6 
#
# 1 63.1879 2.4674 -6.3936 0.0000 0.0000 0.0000
# 2 2.4674 41.0210 -2.5021 0.0000 0.0000 0.0000
# 3 -6.3936 -2.5021 87.7610 0.0000 0.0000 0.0000
# 4 0.0000 0.0000 0.0000 -15.4470 0.0000 0.0000
# 5 0.0000 0.0000 0.0000 0.0000 19.8015 0.0000
# 6 0.0000 0.0000 0.0000 0.0000 0.0000 25.3061
#
#
#
# Elastic Compliance Matrix: (Units=1/GPa)
#
#
# Indices 1 2 3 4 5 6 
#
# 1 0.015976 -0.000891 0.001138 0.000000 0.000000 0.000000
# 2 -0.000891 0.024470 0.000633 0.000000 0.000000 0.000000
# 3 0.001138 0.000633 0.011496 0.000000 0.000000 0.000000
# 4 0.000000 0.000000 0.000000 -0.064737 0.000000 0.000000
# 5 0.000000 0.000000 0.000000 0.000000 0.050501 0.000000
# 6 0.000000 0.000000 0.000000 0.000000 0.000000 0.039516
#
#
# Mechanical properties :
#
#
# Convention : Reuss Voigt Hill
#
# Bulk Modulus (GPa) = 18.62175 19.90149 19.26162
# Shear Modulus (GPa) = 53.55493 19.15868 36.35681
#
# Velocity S-wave (km/s) = 5.02824 3.00746 4.14295
# Velocity P-wave (km/s) = 6.51938 4.63197 5.65497
#
# Compressibility (1/GPa) = 0.05370064
#
# Stress axis : x y z
#
# Youngs Moduli (GPa) = 62.59457 40.86646 86.99014
#
# Poissons Ratio (x) = 0.03643 -0.09904
# Poissons Ratio (y) = 0.05580 -0.05504
# Poissons Ratio (z) = -0.07126 -0.02586
#
# Static dielectric constant tensor:
#      x y z
#    x 1.802360 0.000000 0.000000 
#    y 0.000000 1.746350 0.000000 
#    z 0.000000 0.000000 1.795970 
# 
# From -- ./inp_files/70878.got.cif
#   From: 2010.05.17/outbox.cif.g08.bks.cpg/sg74_36_cif.got.tgz:70878.got - 2010.06.03 17:57:02.
