data_PCOD9536265
_publ_section_title
;
Structure prediction by ZEFSAII (Michael W. Deem and Ramdas Pophale) SiO2 
 PCOD9536265
Probable space group: I M M A
;
_chemical_formula_sum "Si O2"
_cell_formula_units_Z 104
_cell_length_a 29.842050
_cell_length_b 8.857823
_cell_length_c 22.319254
_cell_angle_alpha 90.000000
_cell_angle_beta 90.000000
_cell_angle_gamma 90.000000
_cell_volume 5899.773327
_symmetry_space_group_name_H-M "I M M A"
_symmetry_group_IT_number 74
_symmetry_cell_setting 'orthorhombic'
loop_
_space_group_symop_operation_xyz
x,y,z
-x,1/2-y,z
x,-y,-z
-x,1/2+y,-z
-x,-y,-z
x,1/2+y,-z
-x,y,z
x,1/2-y,z
1/2+x,1/2+y,1/2+z
1/2-x,-y,1/2+z
1/2+x,1/2-y,1/2-z
1/2-x,y,1/2-z
1/2-x,1/2-y,1/2-z
1/2+x,y,1/2-z
1/2-x,1/2+y,1/2+z
1/2+x,-y,1/2+z
loop_
_atom_site_type_symbol
_atom_site_label
_atom_site_fract_x
_atom_site_fract_y
_atom_site_fract_z
Si Si1 0.406593 0.078750 0.596483
Si Si2 0.551827 0.928974 0.815262
Si Si3 0.785083 0.569987 0.801112
Si Si4 0.054204 0.421474 0.559859
Si Si5 0.812343 0.067585 0.063758
Si Si6 0.375502 0.418748 0.732374
Si Si7 0.500000 0.430301 0.434364
O O1 0.410033 0.250000 0.571018
O O2 0.395404 0.091142 0.666134
O O3 0.363789 0.991458 0.569360
O O4 0.453566 0.992607 0.592207
O O5 0.500000 0.973218 0.803647
O O6 0.555307 0.750000 0.807164
O O7 0.562941 0.975681 0.883003
O O8 0.586218 0.015416 0.773929
O O9 0.779374 0.750000 0.804408
O O10 0.750000 0.512982 0.750000
O O11 0.787879 0.520593 0.872440
O O12 0.832923 0.526282 0.773427
O O13 0.071579 0.500000 0.500000
O O14 0.070431 0.250000 0.567414
O O15 0.000000 0.413195 0.554700
O O16 0.811668 0.250000 0.060925
O O17 0.794938 0.000000 0.000000
O O18 0.361930 0.250000 0.751560
O O19 0.500000 0.250000 0.433620
O O20 0.500000 0.500000 0.500000
#
# Coordination Sequence:
#
# PCOD9536265 Si02
#       7
#    16  16  16  16  16  16   8
#     4  10  21  36  51  71 101 138 179 222 267 312
#     4  10  20  32  48  72 102 138 177 216 259 312
#     4   9  19  37  60  83 107 138 176 219 268 323
#     4   9  16  27  44  66  93 126 166 212 258 306
#     4  10  19  33  55  82 110 139 174 218 266 319
#     4  10  21  35  53  77 105 136 172 217 266 316
#     4  12  24  36  50  68  96 136 181 222 263 306
#
# _framework density 17.627794999999999
#
# number of rings (size 3 to 8) (size 9 to 14) (size 15 to 20)
#    0.000    2.154    0.000    3.462    1.077    5.538 
#    0.000    0.000    0.000    0.923    0.000    4.308 
#    0.000    0.000    0.000    0.000    0.000    0.000 
#
# Total GULP energy -289622.954446 kJ/mol
# GULP energy per Si atom -5569.672201 kJ/mol
# Density = 1.758767 g / cm^3
# Si number density = 17.627795 Si / 1000 Ang^3
#
#
#
# Elastic Constant Matrix: (Units=GPa)
#
#
# Indices 1 2 3 4 5 6 
#
# 1 56.4736 5.6956 39.8704 0.0000 0.0000 0.0000
# 2 5.6956 41.9526 11.3497 0.0000 0.0000 0.0000
# 3 39.8704 11.3497 102.0654 0.0000 0.0000 0.0000
# 4 0.0000 0.0000 0.0000 28.0056 0.0000 0.0000
# 5 0.0000 0.0000 0.0000 0.0000 8.1793 0.0000
# 6 0.0000 0.0000 0.0000 0.0000 0.0000 16.0646
#
#
#
# Elastic Compliance Matrix: (Units=1/GPa)
#
#
# Indices 1 2 3 4 5 6 
#
# 1 0.024474 -0.000759 -0.009476 0.000000 0.000000 0.000000
# 2 -0.000759 0.024599 -0.002439 0.000000 0.000000 0.000000
# 3 -0.009476 -0.002439 0.013771 0.000000 0.000000 0.000000
# 4 0.000000 0.000000 0.000000 0.035707 0.000000 0.000000
# 5 0.000000 0.000000 0.000000 0.000000 0.122260 0.000000
# 6 0.000000 0.000000 0.000000 0.000000 0.000000 0.062249
#
#
# Mechanical properties :
#
#
# Convention : Reuss Voigt Hill
#
# Bulk Modulus (GPa) = 26.66962 34.92478 30.79720
# Shear Modulus (GPa) = 15.58087 20.02161 17.80124
#
# Velocity S-wave (km/s) = 2.97624 3.37382 3.18124
# Velocity P-wave (km/s) = 5.19353 5.91880 5.56799
#
# Compressibility (1/GPa) = 0.03749585
#
# Stress axis : x y z
#
# Youngs Moduli (GPa) = 40.85968 40.65153 72.61886
#
# Poissons Ratio (x) = 0.03086 0.68814
# Poissons Ratio (y) = 0.03101 0.17711
# Poissons Ratio (z) = 0.38719 0.09915
#
# Static dielectric constant tensor:
#      x y z
#    x 1.541010 0.000000 0.000000 
#    y 0.000000 1.657310 0.000000 
#    z 0.000000 0.000000 1.641890 
# 
# From -- ./inp_files/49630.got.cif
#   From: 2010.05.17/outbox.cif.g08.bks.cpg/sg74_25_cif.got.tgz:49630.got - 2010.06.03 17:57:02.
