data_PCOD9536386
_publ_section_title
;
Structure prediction by ZEFSAII (Michael W. Deem and Ramdas Pophale) SiO2 
 PCOD9536386
Probable space group: I M M A
;
_chemical_formula_sum "Si O2"
_cell_formula_units_Z 72
_cell_length_a 15.561609
_cell_length_b 12.925265
_cell_length_c 22.738362
_cell_angle_alpha 90.000000
_cell_angle_beta 90.000000
_cell_angle_gamma 90.000000
_cell_volume 4573.546840
_symmetry_space_group_name_H-M "I M M A"
_symmetry_group_IT_number 74
_symmetry_cell_setting 'orthorhombic'
loop_
_space_group_symop_operation_xyz
x,y,z
-x,1/2-y,z
x,-y,-z
-x,1/2+y,-z
-x,-y,-z
x,1/2+y,-z
-x,y,z
x,1/2-y,z
1/2+x,1/2+y,1/2+z
1/2-x,-y,1/2+z
1/2+x,1/2-y,1/2-z
1/2-x,y,1/2-z
1/2-x,1/2-y,1/2-z
1/2+x,y,1/2-z
1/2-x,1/2+y,1/2+z
1/2+x,-y,1/2+z
loop_
_atom_site_type_symbol
_atom_site_label
_atom_site_fract_x
_atom_site_fract_y
_atom_site_fract_z
Si Si1 0.353663 0.500000 0.000000
Si Si2 0.000000 0.868082 0.700533
Si Si3 0.405357 0.626782 0.338655
Si Si4 0.842332 0.518246 0.276235
Si Si5 0.000000 0.866983 0.559859
Si Si6 0.227104 0.875627 0.393730
O O1 0.416339 0.574220 0.963052
O O2 0.301789 0.429928 0.953813
O O3 0.000000 0.750000 0.722448
O O4 0.000000 0.866079 0.629918
O O5 0.086261 0.929309 0.718435
O O6 0.500000 0.583739 0.352573
O O7 0.409634 0.750000 0.342093
O O8 0.379106 0.596564 0.272570
O O9 0.326444 0.596269 0.380232
O O10 0.750000 0.482458 0.250000
O O11 0.825420 0.576091 0.338266
O O12 0.000000 0.750000 0.537201
O O13 0.217584 0.750000 0.394989
#
# Coordination Sequence:
#
# PCOD9536386 Si02
#       6
#     8   8  16  16   8  16
#     4  11  20  34  51  72 100 132 167 204 254 295
#     4  11  21  35  51  73 104 135 173 207 240 298
#     4   9  17  31  54  79 103 128 159 205 257 303
#     4  10  19  34  53  77 105 132 166 206 255 300
#     4  10  21  35  49  68  98 134 169 204 240 292
#     4  10  20  33  51  77 104 131 166 207 251 300
#
# _framework density 15.742705000000001
#
# number of rings (size 3 to 8) (size 9 to 14) (size 15 to 20)
#    0.000    2.000    3.333    1.333    0.000    3.111 
#    0.000    1.667    0.000    0.000    0.000    0.000 
#    0.000    0.000    0.000    0.000    0.000    0.000 
#
# Total GULP energy -200532.156992 kJ/mol
# GULP energy per Si atom -5570.337694 kJ/mol
# Density = 1.570687 g / cm^3
# Si number density = 15.742705 Si / 1000 Ang^3
#
#
#
# Elastic Constant Matrix: (Units=GPa)
#
#
# Indices 1 2 3 4 5 6 
#
# 1 122.9333 42.8599 42.7780 0.0000 0.0000 0.0000
# 2 42.8599 65.1608 27.1033 0.0000 0.0000 0.0000
# 3 42.7780 27.1033 80.0986 0.0000 0.0000 0.0000
# 4 0.0000 0.0000 0.0000 25.8043 0.0000 0.0000
# 5 0.0000 0.0000 0.0000 0.0000 8.6681 0.0000
# 6 0.0000 0.0000 0.0000 0.0000 0.0000 24.3491
#
#
#
# Elastic Compliance Matrix: (Units=1/GPa)
#
#
# Indices 1 2 3 4 5 6 
#
# 1 0.011669 -0.005916 -0.004230 0.000000 0.000000 0.000000
# 2 -0.005916 0.020860 -0.003899 0.000000 0.000000 0.000000
# 3 -0.004230 -0.003899 0.016063 0.000000 0.000000 0.000000
# 4 0.000000 0.000000 0.000000 0.038753 0.000000 0.000000
# 5 0.000000 0.000000 0.000000 0.000000 0.115366 0.000000
# 6 0.000000 0.000000 0.000000 0.000000 0.000000 0.041069
#
#
# Mechanical properties :
#
#
# Convention : Reuss Voigt Hill
#
# Bulk Modulus (GPa) = 48.77634 54.85280 51.81457
# Shear Modulus (GPa) = 17.94017 22.12773 20.03395
#
# Velocity S-wave (km/s) = 3.37944 3.75318 3.57120
# Velocity P-wave (km/s) = 6.80281 7.32808 7.07032
#
# Compressibility (1/GPa) = 0.02050174
#
# Stress axis : x y z
#
# Youngs Moduli (GPa) = 85.69679 47.93971 62.25435
#
# Poissons Ratio (x) = 0.28360 0.26335
# Poissons Ratio (y) = 0.50697 0.24272
# Poissons Ratio (z) = 0.36252 0.18691
#
# Static dielectric constant tensor:
#      x y z
#    x 1.566810 0.000000 0.000000 
#    y 0.000000 1.515570 0.000000 
#    z 0.000000 0.000000 1.502860 
# 
# From -- ./inp_files/58423.got.cif
#   From: 2010.05.17/outbox.cif.g08.bks.cpg/sg74_30_cif.got.tgz:58423.got - 2010.06.03 17:57:02.
