data_PCOD9536205
_publ_section_title
;
Structure prediction by ZEFSAII (Michael W. Deem and Ramdas Pophale) SiO2 
 PCOD9536205
Probable space group: I M M A
;
_chemical_formula_sum "Si O2"
_cell_formula_units_Z 112
_cell_length_a 29.799915
_cell_length_b 14.795801
_cell_length_c 14.879723
_cell_angle_alpha 90.000000
_cell_angle_beta 90.000000
_cell_angle_gamma 90.000000
_cell_volume 6560.672416
_symmetry_space_group_name_H-M "I M M A"
_symmetry_group_IT_number 74
_symmetry_cell_setting 'orthorhombic'
loop_
_space_group_symop_operation_xyz
x,y,z
-x,1/2-y,z
x,-y,-z
-x,1/2+y,-z
-x,-y,-z
x,1/2+y,-z
-x,y,z
x,1/2-y,z
1/2+x,1/2+y,1/2+z
1/2-x,-y,1/2+z
1/2+x,1/2-y,1/2-z
1/2-x,y,1/2-z
1/2-x,1/2-y,1/2-z
1/2+x,y,1/2-z
1/2-x,1/2+y,1/2+z
1/2+x,-y,1/2+z
loop_
_atom_site_type_symbol
_atom_site_label
_atom_site_fract_x
_atom_site_fract_y
_atom_site_fract_z
Si Si1 0.200060 0.144307 0.208633
Si Si2 0.288343 0.358646 0.676705
Si Si3 0.433623 0.351267 0.009128
Si Si4 0.160409 0.094966 0.528016
Si Si5 0.242037 0.641493 0.976372
Si Si6 0.950460 0.008118 0.649733
Si Si7 0.647214 0.527041 0.222808
O O1 0.184590 0.250000 0.212133
O O2 0.250000 0.142917 0.250000
O O3 0.169280 0.071672 0.260250
O O4 0.209801 0.114272 0.105314
O O5 0.292758 0.250000 0.682611
O O6 0.250000 0.385517 0.750000
O O7 0.274224 0.382958 0.575756
O O8 0.334156 0.409531 0.698896
O O9 0.451673 0.250000 0.013742
O O10 0.379776 0.341545 0.999023
O O11 0.448436 0.409256 0.922057
O O12 0.445495 0.414818 0.093465
O O13 0.206522 0.108509 0.475250
O O14 0.165732 0.080947 0.634342
O O15 0.140005 0.000000 0.500000
O O16 0.244516 0.750000 0.970852
O O17 0.000000 0.009460 0.692597
O O18 0.906123 0.018237 0.710611
#
# Coordination Sequence:
#
# PCOD9536205 Si02
#       7
#    16  16  16  16  16  16  16
#     4  10  22  36  51  76 109 142 178 215 255 310
#     4  10  20  33  52  79 108 138 177 219 256 310
#     4  10  19  33  54  76 104 140 177 218 264 313
#     4  11  19  31  47  77 107 145 181 210 247 305
#     4  10  21  34  51  75 108 148 183 215 254 307
#     4  10  22  38  51  74 104 132 180 230 270 319
#     4  11  21  35  52  74 103 142 174 218 267 307
#
# _framework density 17.07142
#
# number of rings (size 3 to 8) (size 9 to 14) (size 15 to 20)
#    0.000    1.714    4.286    2.571    2.000    4.000 
#    0.000    0.000    0.000    0.000    0.000    2.000 
#    0.000    3.429    0.000    0.000    0.000    0.000 
#
# Total GULP energy -312052.299614 kJ/mol
# GULP energy per Si atom -5572.362493 kJ/mol
# Density = 1.703257 g / cm^3
# Si number density = 17.071420 Si / 1000 Ang^3
#
#
#
# Elastic Constant Matrix: (Units=GPa)
#
#
# Indices 1 2 3 4 5 6 
#
# 1 122.3105 20.3671 23.2327 0.0000 0.0000 0.0000
# 2 20.3671 52.7178 -2.1786 0.0000 0.0000 0.0000
# 3 23.2327 -2.1786 49.0330 0.0000 0.0000 0.0000
# 4 0.0000 0.0000 0.0000 -15.3172 0.0000 0.0000
# 5 0.0000 0.0000 0.0000 0.0000 11.2918 0.0000
# 6 0.0000 0.0000 0.0000 0.0000 0.0000 -6.2398
#
#
#
# Elastic Compliance Matrix: (Units=1/GPa)
#
#
# Indices 1 2 3 4 5 6 
#
# 1 0.009747 -0.003964 -0.004794 0.000000 0.000000 0.000000
# 2 -0.003964 0.020616 0.002794 0.000000 0.000000 0.000000
# 3 -0.004794 0.002794 0.022790 0.000000 0.000000 0.000000
# 4 0.000000 0.000000 0.000000 -0.065286 0.000000 0.000000
# 5 0.000000 0.000000 0.000000 0.000000 0.088560 0.000000
# 6 0.000000 0.000000 0.000000 0.000000 0.000000 -0.160262
#
#
# Mechanical properties :
#
#
# Convention : Reuss Voigt Hill
#
# Bulk Modulus (GPa) = 24.25725 34.10040 29.17883
# Shear Modulus (GPa) = -85.96066 10.12297 -37.91884
#
# Velocity S-wave (km/s) = -7.10372 2.43776 -4.71806
# Velocity P-wave (km/s) = 7.28311 5.28602 3.54271
#
# Compressibility (1/GPa) = 0.04122478
#
# Stress axis : x y z
#
# Youngs Moduli (GPa) = 102.60005 48.50676 43.87856
#
# Poissons Ratio (x) = 0.19226 0.21036
# Poissons Ratio (y) = 0.40667 -0.12260
# Poissons Ratio (z) = 0.49189 -0.13553
#
# Static dielectric constant tensor:
#      x y z
#    x 1.606660 0.000000 0.000000 
#    y 0.000000 1.569280 0.000000 
#    z 0.000000 0.000000 1.726850 
# 
# From -- ./inp_files/37960.got.cif
#   From: 2010.05.17/outbox.cif.g08.bks.cpg/sg74_19_cif.got.tgz:37960.got - 2010.06.03 17:57:02.
