data_PCOD9536258
_publ_section_title
;
Structure prediction by ZEFSAII (Michael W. Deem and Ramdas Pophale) SiO2 
 PCOD9536258
Probable space group: I M M A
;
_chemical_formula_sum "Si O2"
_cell_formula_units_Z 80
_cell_length_a 15.775566
_cell_length_b 27.766250
_cell_length_c 8.183211
_cell_angle_alpha 90.000000
_cell_angle_beta 90.000000
_cell_angle_gamma 90.000000
_cell_volume 3584.478080
_symmetry_space_group_name_H-M "I M M A"
_symmetry_group_IT_number 74
_symmetry_cell_setting 'orthorhombic'
loop_
_space_group_symop_operation_xyz
x,y,z
-x,1/2-y,z
x,-y,-z
-x,1/2+y,-z
-x,-y,-z
x,1/2+y,-z
-x,y,z
x,1/2-y,z
1/2+x,1/2+y,1/2+z
1/2-x,-y,1/2+z
1/2+x,1/2-y,1/2-z
1/2-x,y,1/2-z
1/2-x,1/2-y,1/2-z
1/2+x,y,1/2-z
1/2-x,1/2+y,1/2+z
1/2+x,-y,1/2+z
loop_
_atom_site_type_symbol
_atom_site_label
_atom_site_fract_x
_atom_site_fract_y
_atom_site_fract_z
Si Si1 0.897736 0.134971 0.513009
Si Si2 0.694360 0.041499 0.104850
Si Si3 0.406229 0.470624 0.665889
Si Si4 0.603783 0.805336 0.692614
Si Si5 0.896997 0.636095 0.123973
O O1 0.851768 0.083593 0.491548
O O2 0.872141 0.168309 0.360912
O O3 0.878187 0.155196 0.693820
O O4 0.000000 0.128581 0.502967
O O5 0.750000 0.063399 0.250000
O O6 0.630603 0.006424 0.200930
O O7 0.741992 0.000000 0.000000
O O8 0.415139 0.500000 0.500000
O O9 0.500000 0.457444 0.726856
O O10 0.364223 0.419100 0.625472
O O11 0.500000 0.805339 0.689228
O O12 0.631443 0.750000 0.688882
O O13 0.634108 0.834211 0.531987
O O14 0.000000 0.635508 0.106563
#
# Coordination Sequence:
#
# PCOD9536258 Si02
#       5
#    16  16  16  16  16
#     4  10  20  36  59  84 112 150 191 228 278 341
#     4  12  24  37  53  79 114 151 189 237 285 333
#     4  10  19  33  55  80 109 147 188 228 274 334
#     4   9  18  32  53  85 119 144 175 230 289 335
#     4   9  17  30  51  79 108 142 182 223 270 328
#
# _framework density 22.318451
#
# number of rings (size 3 to 8) (size 9 to 14) (size 15 to 20)
#    0.000    2.000    2.000    2.400    0.000    4.800 
#    0.000    4.000    0.000    0.600    0.000    1.400 
#    0.000    0.000    0.000    0.000    0.000    0.000 
#
# Total GULP energy -223337.698878 kJ/mol
# GULP energy per Si atom -5583.442472 kJ/mol
# Density = 2.226765 g / cm^3
# Si number density = 22.318451 Si / 1000 Ang^3
#
#
#
# Elastic Constant Matrix: (Units=GPa)
#
#
# Indices 1 2 3 4 5 6 
#
# 1 25.9064 6.1086 9.5944 0.0000 0.0000 0.0002
# 2 6.1086 135.8224 83.6475 0.0013 0.0009 0.0001
# 3 9.5944 83.6475 174.1603 0.0044 0.0016 -0.0050
# 4 0.0000 0.0013 0.0044 32.2831 0.0001 0.0002
# 5 0.0000 0.0009 0.0016 0.0001 4.3700 0.0006
# 6 0.0002 0.0001 -0.0050 0.0002 0.0006 21.6720
#
#
#
# Elastic Compliance Matrix: (Units=1/GPa)
#
#
# Indices 1 2 3 4 5 6 
#
# 1 0.039441 -0.000619 -0.001876 0.000000 0.000000 -0.000001
# 2 -0.000619 0.010465 -0.004992 0.000000 0.000000 -0.000001
# 3 -0.001876 -0.004992 0.008243 -0.000001 -0.000002 0.000002
# 4 0.000000 0.000000 -0.000001 0.030976 0.000000 0.000000
# 5 0.000000 0.000000 -0.000002 0.000000 0.228835 -0.000006
# 6 -0.000001 -0.000001 0.000002 0.000000 -0.000006 0.046142
#
#
# Mechanical properties :
#
#
# Convention : Reuss Voigt Hill
#
# Bulk Modulus (GPa) = 23.16114 59.39888 41.28001
# Shear Modulus (GPa) = 12.70756 27.43427 20.07091
#
# Velocity S-wave (km/s) = 2.38875 3.50983 3.00208
# Velocity P-wave (km/s) = 4.24361 6.56485 5.52745
#
# Compressibility (1/GPa) = 0.04317577
#
# Stress axis : x y z
#
# Youngs Moduli (GPa) = 25.35434 95.55864 121.31817
#
# Poissons Ratio (x) = 0.05913 0.22754
# Poissons Ratio (y) = 0.01569 0.60563
# Poissons Ratio (z) = 0.04755 0.47703
#
# Static dielectric constant tensor:
#      x y z
#    x 1.891270 0.000000 0.000000 
#    y 0.000000 1.768380 0.000000 
#    z 0.000000 0.000000 1.893400 
# 
# From -- ./inp_files/10871.got.cif
#   From: 2010.05.17/outbox.cif.g08.bks.cpg/sg74_6_cif.got.tgz:10871.got - 2010.06.03 17:57:02.
