data_PCOD9536214
_publ_section_title
;
Structure prediction by ZEFSAII (Michael W. Deem and Ramdas Pophale) SiO2 
 PCOD9536214
Probable space group: I M M A
;
_chemical_formula_sum "Si O2"
_cell_formula_units_Z 88
_cell_length_a 9.004051
_cell_length_b 31.243860
_cell_length_c 17.648154
_cell_angle_alpha 90.000000
_cell_angle_beta 90.000000
_cell_angle_gamma 90.000000
_cell_volume 4964.801783
_symmetry_space_group_name_H-M "I M M A"
_symmetry_group_IT_number 74
_symmetry_cell_setting 'orthorhombic'
loop_
_space_group_symop_operation_xyz
x,y,z
-x,1/2-y,z
x,-y,-z
-x,1/2+y,-z
-x,-y,-z
x,1/2+y,-z
-x,y,z
x,1/2-y,z
1/2+x,1/2+y,1/2+z
1/2-x,-y,1/2+z
1/2+x,1/2-y,1/2-z
1/2-x,y,1/2-z
1/2-x,1/2-y,1/2-z
1/2+x,y,1/2-z
1/2-x,1/2+y,1/2+z
1/2+x,-y,1/2+z
loop_
_atom_site_type_symbol
_atom_site_label
_atom_site_fract_x
_atom_site_fract_y
_atom_site_fract_z
Si Si1 0.675543 0.415447 0.176710
Si Si2 0.676717 0.548698 0.991511
Si Si3 0.829131 0.666821 0.886350
Si Si4 0.328131 0.868887 0.442878
Si Si5 0.821562 0.799202 0.333410
Si Si6 0.824786 0.250000 0.332173
O O1 0.500000 0.409568 0.188624
O O2 0.750000 0.436791 0.250000
O O3 0.758767 0.370580 0.163938
O O4 0.696657 0.439331 0.096891
O O5 0.500000 0.550309 0.007739
O O6 0.755536 0.584337 0.043776
O O7 0.729514 0.500000 0.000000
O O8 0.732097 0.708571 0.875758
O O9 0.000000 0.674676 0.864332
O O10 0.825413 0.651766 0.973221
O O11 0.500000 0.872970 0.419027
O O12 0.243235 0.836228 0.387396
O O13 0.787528 0.750000 0.359597
O O14 0.750000 0.803577 0.250000
O O15 0.000000 0.802947 0.328973
O O16 0.750000 0.250000 0.250000
O O17 0.000000 0.250000 0.324470
#
# Coordination Sequence:
#
# PCOD9536214 Si02
#       6
#    16  16  16  16  16   8
#     4  10  19  33  54  78 104 136 175 218 266 320
#     4   9  19  37  59  81 108 144 185 230 280 334
#     4  10  21  36  52  74 104 139 178 218 261 309
#     4  10  21  36  57  83 111 144 181 226 277 332
#     4  10  21  37  58  84 114 150 190 234 283 338
#     4  12  24  36  50  70 101 138 177 218 262 306
#
# _framework density 17.724775999999999
#
# number of rings (size 3 to 8) (size 9 to 14) (size 15 to 20)
#    0.000    2.000    0.000    3.545    1.273    4.364 
#    0.000    0.909    0.000    2.182    0.000    0.000 
#    0.000    0.000    0.000    0.000    0.000    0.000 
#
# Total GULP energy -245537.967569 kJ/mol
# GULP energy per Si atom -5580.408354 kJ/mol
# Density = 1.768443 g / cm^3
# Si number density = 17.724776 Si / 1000 Ang^3
#
#
#
# Elastic Constant Matrix: (Units=GPa)
#
#
# Indices 1 2 3 4 5 6 
#
# 1 133.0143 73.8710 47.7171 0.0000 0.0000 0.0000
# 2 73.8710 138.8619 42.5448 0.0000 0.0000 0.0000
# 3 47.7171 42.5448 62.2945 -0.0002 -0.0001 -0.0001
# 4 0.0000 0.0000 -0.0002 23.6583 0.0000 0.0000
# 5 0.0000 0.0000 -0.0001 0.0000 32.0993 0.0000
# 6 0.0000 0.0000 -0.0001 0.0000 0.0000 25.0047
#
#
#
# Elastic Compliance Matrix: (Units=1/GPa)
#
#
# Indices 1 2 3 4 5 6 
#
# 1 0.012354 -0.004645 -0.006291 0.000000 0.000000 0.000000
# 2 -0.004645 0.010853 -0.003855 0.000000 0.000000 0.000000
# 3 -0.006291 -0.003855 0.023504 0.000000 0.000000 0.000000
# 4 0.000000 0.000000 0.000000 0.042269 0.000000 0.000000
# 5 0.000000 0.000000 0.000000 0.000000 0.031153 0.000000
# 6 0.000000 0.000000 0.000000 0.000000 0.000000 0.039993
#
#
# Mechanical properties :
#
#
# Convention : Reuss Voigt Hill
#
# Bulk Modulus (GPa) = 58.37364 73.60405 65.98885
# Shear Modulus (GPa) = 25.58626 27.48830 26.53728
#
# Velocity S-wave (km/s) = 3.80350 3.94234 3.87355
# Velocity P-wave (km/s) = 7.23144 7.89550 7.57076
#
# Compressibility (1/GPa) = 0.01713102
#
# Stress axis : x y z
#
# Youngs Moduli (GPa) = 80.94317 92.13854 42.54544
#
# Poissons Ratio (x) = 0.42796 0.26766
# Poissons Ratio (y) = 0.37596 0.16399
# Poissons Ratio (z) = 0.50923 0.35515
#
# Static dielectric constant tensor:
#      x y z
#    x 1.598830 0.000000 0.000000 
#    y 0.000000 1.607700 0.000000 
#    z 0.000000 0.000000 1.581590 
# 
# From -- ./inp_files/40138.got.cif
#   From: 2010.05.17/outbox.cif.g08.bks.cpg/sg74_21_cif.got.tgz:40138.got - 2010.06.03 17:57:02.
