data_PCOD9536172
_publ_section_title
;
Structure prediction by ZEFSAII (Michael W. Deem and Ramdas Pophale) SiO2 
 PCOD9536172
Probable space group: I M M A
;
_chemical_formula_sum "Si O2"
_cell_formula_units_Z 96
_cell_length_a 18.458058
_cell_length_b 18.532266
_cell_length_c 15.717643
_cell_angle_alpha 90.000000
_cell_angle_beta 90.000000
_cell_angle_gamma 90.000000
_cell_volume 5376.528494
_symmetry_space_group_name_H-M "I M M A"
_symmetry_group_IT_number 74
_symmetry_cell_setting 'orthorhombic'
loop_
_space_group_symop_operation_xyz
x,y,z
-x,1/2-y,z
x,-y,-z
-x,1/2+y,-z
-x,-y,-z
x,1/2+y,-z
-x,y,z
x,1/2-y,z
1/2+x,1/2+y,1/2+z
1/2-x,-y,1/2+z
1/2+x,1/2-y,1/2-z
1/2-x,y,1/2-z
1/2-x,1/2-y,1/2-z
1/2+x,y,1/2-z
1/2-x,1/2+y,1/2+z
1/2+x,-y,1/2+z
loop_
_atom_site_type_symbol
_atom_site_label
_atom_site_fract_x
_atom_site_fract_y
_atom_site_fract_z
Si Si1 0.579250 0.624407 0.372102
Si Si2 0.084035 0.500034 0.268726
Si Si3 0.293321 0.522961 0.096578
Si Si4 0.581261 0.334493 0.443341
Si Si5 0.306908 0.102019 0.316918
Si Si6 0.267024 0.828014 0.348653
O O1 0.500000 0.656047 0.355148
O O2 0.586389 0.555007 0.311486
O O3 0.583396 0.614065 0.473836
O O4 0.646848 0.673352 0.352547
O O5 0.133765 0.526654 0.346741
O O6 0.126103 0.429870 0.236675
O O7 0.000000 0.489673 0.291131
O O8 0.238146 0.464745 0.140129
O O9 0.259064 0.602654 0.099873
O O10 0.306829 0.500000 0.000000
O O11 0.500000 0.345405 0.404139
O O12 0.583570 0.250000 0.469613
O O13 0.651483 0.350513 0.386494
O O14 0.250000 0.136314 0.250000
O O15 0.237001 0.750000 0.375291
O O16 0.250000 0.840921 0.250000
#
# Coordination Sequence:
#
# PCOD9536172 Si02
#       6
#    16  16  16  16  16  16
#     4  10  19  33  53  76 108 141 176 220 269 336
#     4  10  20  35  55  79 107 143 189 230 281 338
#     4  11  21  36  55  80 110 143 189 238 278 332
#     4  10  21  35  53  83 118 150 185 227 281 337
#     4  10  20  35  56  80 109 143 186 232 277 330
#     4  11  20  34  54  78 112 148 184 227 284 344
#
# _framework density 17.855387
#
# number of rings (size 3 to 8) (size 9 to 14) (size 15 to 20)
#    0.000    1.667    3.333    2.500    0.000    1.667 
#    0.000    2.500    0.000    1.500    0.000    0.000 
#    0.000    0.000    0.000    0.000    0.000    0.000 
#
# Total GULP energy -267355.974746 kJ/mol
# GULP energy per Si atom -5569.916141 kJ/mol
# Density = 1.781475 g / cm^3
# Si number density = 17.855387 Si / 1000 Ang^3
#
#
#
# Elastic Constant Matrix: (Units=GPa)
#
#
# Indices 1 2 3 4 5 6 
#
# 1 142.6030 30.1886 58.0433 0.0000 0.0000 0.0000
# 2 30.1886 49.4972 28.3570 0.0000 0.0000 0.0000
# 3 58.0433 28.3570 88.3312 0.0000 0.0000 0.0000
# 4 0.0000 0.0000 0.0000 58.5259 0.0000 0.0000
# 5 0.0000 0.0000 0.0000 0.0000 32.8080 0.0000
# 6 0.0000 0.0000 0.0000 0.0000 0.0000 5.1016
#
#
#
# Elastic Compliance Matrix: (Units=1/GPa)
#
#
# Indices 1 2 3 4 5 6 
#
# 1 0.009886 -0.002828 -0.005588 0.000000 0.000000 0.000000
# 2 -0.002828 0.025565 -0.006349 0.000000 0.000000 0.000000
# 3 -0.005588 -0.006349 0.017031 0.000000 0.000000 0.000000
# 4 0.000000 0.000000 0.000000 0.017086 0.000000 0.000000
# 5 0.000000 0.000000 0.000000 0.000000 0.030480 0.000000
# 6 0.000000 0.000000 0.000000 0.000000 0.000000 0.196018
#
#
# Mechanical properties :
#
#
# Convention : Reuss Voigt Hill
#
# Bulk Modulus (GPa) = 43.56889 57.06770 50.31830
# Shear Modulus (GPa) = 15.00388 30.20993 22.60691
#
# Velocity S-wave (km/s) = 2.90194 4.11776 3.56211
# Velocity P-wave (km/s) = 5.97346 7.39178 6.72014
#
# Compressibility (1/GPa) = 0.02295216
#
# Stress axis : x y z
#
# Youngs Moduli (GPa) = 101.15676 39.11566 58.71560
#
# Poissons Ratio (x) = 0.11061 0.32811
# Poissons Ratio (y) = 0.28606 0.37278
# Poissons Ratio (z) = 0.56528 0.24834
#
# Static dielectric constant tensor:
#      x y z
#    x 1.635010 0.000000 0.000000 
#    y 0.000000 1.626970 0.000000 
#    z 0.000000 0.000000 1.644350 
# 
# From -- ./inp_files/44134.got.cif
#   From: 2010.05.17/outbox.cif.g08.bks.cpg/sg74_23_cif.got.tgz:44134.got - 2010.06.03 17:57:02.
