data_PCOD9536170
_publ_section_title
;
Structure prediction by ZEFSAII (Michael W. Deem and Ramdas Pophale) SiO2 
 PCOD9536170
Probable space group: I M M A
;
_chemical_formula_sum "Si O2"
_cell_formula_units_Z 88
_cell_length_a 7.455852
_cell_length_b 22.985054
_cell_length_c 24.435045
_cell_angle_alpha 90.000000
_cell_angle_beta 90.000000
_cell_angle_gamma 90.000000
_cell_volume 4187.510897
_symmetry_space_group_name_H-M "I M M A"
_symmetry_group_IT_number 74
_symmetry_cell_setting 'orthorhombic'
loop_
_space_group_symop_operation_xyz
x,y,z
-x,1/2-y,z
x,-y,-z
-x,1/2+y,-z
-x,-y,-z
x,1/2+y,-z
-x,y,z
x,1/2-y,z
1/2+x,1/2+y,1/2+z
1/2-x,-y,1/2+z
1/2+x,1/2-y,1/2-z
1/2-x,y,1/2-z
1/2-x,1/2-y,1/2-z
1/2+x,y,1/2-z
1/2-x,1/2+y,1/2+z
1/2+x,-y,1/2+z
loop_
_atom_site_type_symbol
_atom_site_label
_atom_site_fract_x
_atom_site_fract_y
_atom_site_fract_z
Si Si1 0.291267 0.593752 0.395351
Si Si2 0.280252 0.476186 0.439555
Si Si3 0.284799 0.187118 0.984431
Si Si4 0.284354 0.750000 0.684504
Si Si5 0.208482 0.850972 0.896038
Si Si6 0.785058 0.313770 0.813470
O O1 0.500000 0.585396 0.382023
O O2 0.218607 0.529507 0.401837
O O3 0.283133 0.631724 0.450902
O O4 0.208411 0.635331 0.350177
O O5 0.226665 0.500000 0.500000
O O6 0.500000 0.472925 0.441790
O O7 0.217223 0.414594 0.414588
O O8 0.500000 0.184937 0.983423
O O9 0.226608 0.250000 0.961152
O O10 0.222463 0.183407 0.046827
O O11 0.500000 0.750000 0.677577
O O12 0.250000 0.750000 0.750000
O O13 0.218596 0.808326 0.651894
O O14 0.000000 0.861166 0.882086
O O15 0.713557 0.250000 0.827982
O O16 0.750000 0.323528 0.750000
O O17 0.000000 0.312090 0.821639
#
# Coordination Sequence:
#
# PCOD9536170 Si02
#       6
#    16  16  16   8  16  16
#     4  10  19  33  53  76 104 139 178 215 253 314
#     4   9  16  29  53  81 106 135 172 218 263 310
#     4  11  22  32  47  77 112 141 169 215 271 314
#     4  10  22  38  60  82 106 144 187 234 277 324
#     4  10  19  35  57  80 103 136 182 220 264 324
#     4   9  18  32  50  71  96 131 172 213 254 296
#
# _framework density 21.014870999999999
#
# number of rings (size 3 to 8) (size 9 to 14) (size 15 to 20)
#    0.000    2.182    2.727    1.091    0.000    3.273 
#    0.000    4.545    0.000    0.000    0.000    0.000 
#    0.000    0.000    0.000    0.000    0.000    0.000 
#
# Total GULP energy -245317.043500 kJ/mol
# GULP energy per Si atom -5575.387352 kJ/mol
# Density = 2.096704 g / cm^3
# Si number density = 21.014871 Si / 1000 Ang^3
#
#
#
# Elastic Constant Matrix: (Units=GPa)
#
#
# Indices 1 2 3 4 5 6 
#
# 1 68.1718 5.4592 -9.9588 0.0000 0.0000 0.0000
# 2 5.4592 215.6234 90.0732 0.0000 0.0000 0.0000
# 3 -9.9588 90.0732 117.3588 0.0000 0.0000 0.0000
# 4 0.0000 0.0000 0.0000 -44.2916 0.0000 0.0000
# 5 0.0000 0.0000 0.0000 0.0000 17.6443 0.0000
# 6 0.0000 0.0000 0.0000 0.0000 0.0000 1.9881
#
#
#
# Elastic Compliance Matrix: (Units=1/GPa)
#
#
# Indices 1 2 3 4 5 6 
#
# 1 0.015116 -0.001352 0.002320 0.000000 0.000000 0.000000
# 2 -0.001352 0.006947 -0.005447 0.000000 0.000000 0.000000
# 3 0.002320 -0.005447 0.012898 0.000000 0.000000 0.000000
# 4 0.000000 0.000000 0.000000 -0.022578 0.000000 0.000000
# 5 0.000000 0.000000 0.000000 0.000000 0.056675 0.000000
# 6 0.000000 0.000000 0.000000 0.000000 0.000000 0.502987
#
#
# Mechanical properties :
#
#
# Convention : Reuss Voigt Hill
#
# Bulk Modulus (GPa) = 38.45456 63.58904 51.02180
# Shear Modulus (GPa) = 8.47930 16.10687 12.29308
#
# Velocity S-wave (km/s) = 2.01089 2.77149 2.42124
# Velocity P-wave (km/s) = 4.87135 6.36917 5.66993
#
# Compressibility (1/GPa) = 0.02600472
#
# Stress axis : x y z
#
# Youngs Moduli (GPa) = 66.15481 143.94198 77.53030
#
# Poissons Ratio (x) = 0.19461 -0.17990
# Poissons Ratio (y) = 0.08944 0.42229
# Poissons Ratio (z) = -0.15351 0.78402
#
# Static dielectric constant tensor:
#      x y z
#    x 1.767060 0.000000 0.000000 
#    y 0.000000 1.833740 0.000000 
#    z 0.000000 0.000000 1.741920 
# 
# From -- ./inp_files/54501.got.cif
#   From: 2010.05.17/outbox.cif.g08.bks.cpg/sg74_28_cif.got.tgz:54501.got - 2010.06.03 17:57:02.
