data_PCOD9536908
_publ_section_title
;
Structure prediction by ZEFSAII (Michael W. Deem and Ramdas Pophale) SiO2 
 PCOD9536908
Probable space group: I M M A
;
_chemical_formula_sum "Si O2"
_cell_formula_units_Z 104
_cell_length_a 8.657409
_cell_length_b 32.586834
_cell_length_c 21.388166
_cell_angle_alpha 90.000000
_cell_angle_beta 90.000000
_cell_angle_gamma 90.000000
_cell_volume 6033.976990
_symmetry_space_group_name_H-M "I M M A"
_symmetry_group_IT_number 74
_symmetry_cell_setting 'orthorhombic'
loop_
_space_group_symop_operation_xyz
x,y,z
-x,1/2-y,z
x,-y,-z
-x,1/2+y,-z
-x,-y,-z
x,1/2+y,-z
-x,y,z
x,1/2-y,z
1/2+x,1/2+y,1/2+z
1/2-x,-y,1/2+z
1/2+x,1/2-y,1/2-z
1/2-x,y,1/2-z
1/2-x,1/2-y,1/2-z
1/2+x,y,1/2-z
1/2-x,1/2+y,1/2+z
1/2+x,-y,1/2+z
loop_
_atom_site_type_symbol
_atom_site_label
_atom_site_fract_x
_atom_site_fract_y
_atom_site_fract_z
Si Si1 0.184594 0.750000 0.317898
Si Si2 0.313634 0.963106 0.182103
Si Si3 0.815613 0.795004 0.948499
Si Si4 0.682682 0.591254 0.064706
Si Si5 0.182580 0.686184 0.418595
Si Si6 0.815079 0.559190 0.682807
Si Si7 0.814630 0.112530 0.069755
O O1 0.250000 0.750000 0.250000
O O2 0.232263 0.710531 0.357728
O O3 0.000000 0.750000 0.314400
O O4 0.500000 0.959677 0.184449
O O5 0.250000 0.949211 0.250000
O O6 0.260592 0.938545 0.120160
O O7 0.272153 0.011132 0.174907
O O8 0.756864 0.750000 0.925883
O O9 0.776071 0.798227 0.021795
O O10 0.000000 0.794739 0.939441
O O11 0.758633 0.839686 0.924430
O O12 0.500000 0.582847 0.055065
O O13 0.700141 0.637774 0.088758
O O14 0.760601 0.592823 0.996343
O O15 0.000000 0.694485 0.430334
O O16 0.750000 0.572639 0.750000
O O17 0.748393 0.586006 0.626782
O O18 0.000000 0.561836 0.683082
O O19 0.000000 0.113051 0.070202
#
# Coordination Sequence:
#
# PCOD9536908 Si02
#       7
#     8  16  16  16  16  16  16
#     4  10  20  30  40  60  88 122 163 204 245 290
#     4   9  19  34  52  73  98 133 175 212 252 301
#     4   9  17  30  50  73  97 125 157 196 242 290
#     4   9  18  33  51  72 100 133 168 210 255 298
#     4   9  17  30  46  64  90 123 161 203 245 289
#     4  10  20  36  56  76 101 133 167 205 249 301
#     4  10  20  33  51  79 107 131 165 206 250 300
#
# _framework density 17.23573
#
# number of rings (size 3 to 8) (size 9 to 14) (size 15 to 20)
#    0.000    2.615    0.769    0.923    0.000    3.692 
#    0.000    3.077    0.000    0.462    0.000    0.000 
#    0.000    0.000    0.000    0.000    0.000    0.000 
#
# Total GULP energy -289631.118216 kJ/mol
# GULP energy per Si atom -5569.829196 kJ/mol
# Density = 1.719650 g / cm^3
# Si number density = 17.235730 Si / 1000 Ang^3
#
#
#
# Elastic Constant Matrix: (Units=GPa)
#
#
# Indices 1 2 3 4 5 6 
#
# 1 18.2159 28.2283 32.7820 0.0000 0.0000 0.0000
# 2 28.2283 92.2811 77.1529 0.0000 0.0000 0.0000
# 3 32.7820 77.1529 132.4436 -0.0001 0.0000 0.0000
# 4 0.0000 0.0000 -0.0001 -24.3225 0.0000 0.0000
# 5 0.0000 0.0000 0.0000 0.0000 31.7865 0.0000
# 6 0.0000 0.0000 0.0000 0.0000 0.0000 18.8764
#
#
#
# Elastic Compliance Matrix: (Units=1/GPa)
#
#
# Indices 1 2 3 4 5 6 
#
# 1 0.119901 -0.023130 -0.016204 0.000000 0.000000 0.000000
# 2 -0.023130 0.025587 -0.009180 0.000000 0.000000 0.000000
# 3 -0.016204 -0.009180 0.016909 0.000000 0.000000 0.000000
# 4 0.000000 0.000000 0.000000 -0.041114 0.000000 0.000000
# 5 0.000000 0.000000 0.000000 0.000000 0.031460 0.000000
# 6 0.000000 0.000000 0.000000 0.000000 0.000000 0.052976
#
#
# Mechanical properties :
#
#
# Convention : Reuss Voigt Hill
#
# Bulk Modulus (GPa) = 15.29763 57.69634 36.49699
# Shear Modulus (GPa) = 15.40655 12.25322 13.82989
#
# Velocity S-wave (km/s) = 2.99301 2.66920 2.83573
# Velocity P-wave (km/s) = 4.56497 6.56102 5.65181
#
# Compressibility (1/GPa) = 0.06536962
#
# Stress axis : x y z
#
# Youngs Moduli (GPa) = 8.34019 39.08208 59.14051
#
# Poissons Ratio (x) = 0.90397 0.95829
# Poissons Ratio (y) = 0.19291 0.54293
# Poissons Ratio (z) = 0.13514 0.35879
#
# Static dielectric constant tensor:
#      x y z
#    x 1.596710 0.000000 0.000000 
#    y 0.000000 1.621800 0.000000 
#    z 0.000000 0.000000 1.548150 
# 
# From -- ./inp_files/49610.got.cif
#   From: 2010.05.17/outbox.cif.g08.bks.cpg/sg74_25_cif.got.tgz:49610.got - 2010.06.03 17:57:02.
