data_PCOD9536996
_publ_section_title
;
Structure prediction by ZEFSAII (Michael W. Deem and Ramdas Pophale) SiO2 
 PCOD9536996
Probable space group: I M M A
;
_chemical_formula_sum "Si O2"
_cell_formula_units_Z 80
_cell_length_a 19.681288
_cell_length_b 8.693771
_cell_length_c 33.982139
_cell_angle_alpha 90.000000
_cell_angle_beta 90.000000
_cell_angle_gamma 90.000000
_cell_volume 5814.500670
_symmetry_space_group_name_H-M "I M M A"
_symmetry_group_IT_number 74
_symmetry_cell_setting 'orthorhombic'
loop_
_space_group_symop_operation_xyz
x,y,z
-x,1/2-y,z
x,-y,-z
-x,1/2+y,-z
-x,-y,-z
x,1/2+y,-z
-x,y,z
x,1/2-y,z
1/2+x,1/2+y,1/2+z
1/2-x,-y,1/2+z
1/2+x,1/2-y,1/2-z
1/2-x,y,1/2-z
1/2-x,1/2-y,1/2-z
1/2+x,y,1/2-z
1/2-x,1/2+y,1/2+z
1/2+x,-y,1/2+z
loop_
_atom_site_type_symbol
_atom_site_label
_atom_site_fract_x
_atom_site_fract_y
_atom_site_fract_z
Si Si1 0.634902 0.565711 0.120765
Si Si2 0.000000 0.933996 0.242026
Si Si3 0.500000 0.063232 0.832689
Si Si4 0.356537 0.564771 0.732793
Si Si5 0.278751 0.064529 0.187949
Si Si6 0.578996 0.565808 0.957096
O O1 0.635235 0.750000 0.118932
O O2 0.567288 0.513309 0.144468
O O3 0.697031 0.507524 0.147239
O O4 0.626498 0.498552 0.077268
O O5 0.000000 0.988834 0.287656
O O6 0.000000 0.750000 0.241488
O O7 0.929796 0.994929 0.224198
O O8 0.500000 0.250000 0.832339
O O9 0.361101 0.750000 0.733146
O O10 0.329193 0.516849 0.776208
O O11 0.296808 0.522020 0.702391
O O12 0.281832 0.250000 0.185451
O O13 0.500000 0.519357 0.948926
O O14 0.581662 0.750000 0.957818
O O15 0.596222 0.500000 0.000000
#
# Coordination Sequence:
#
# PCOD9536996 Si02
#       6
#    16   8   8  16  16  16
#     4  11  19  30  45  61  85 112 142 180 219 258
#     4  11  19  29  43  62  84 109 144 183 219 258
#     4   9  18  27  36  58  85 109 140 177 214 251
#     4   9  18  31  44  59  82 111 142 179 219 256
#     4   9  18  31  44  60  82 109 144 180 215 257
#     4  10  20  32  45  62  83 110 143 178 217 256
#
# _framework density 13.758706
#
# number of rings (size 3 to 8) (size 9 to 14) (size 15 to 20)
#    0.000    2.200    3.000    2.700    0.000    1.600 
#    0.000    2.000    0.000    0.000    0.000    0.000 
#    0.000    0.000    0.000    0.900    0.000   11.800 
#
# Total GULP energy -223064.077695 kJ/mol
# GULP energy per Si atom -5576.601942 kJ/mol
# Density = 1.372739 g / cm^3
# Si number density = 13.758706 Si / 1000 Ang^3
#
#
#
# Elastic Constant Matrix: (Units=GPa)
#
#
# Indices 1 2 3 4 5 6 
#
# 1 97.9211 29.7371 47.9414 0.0000 0.0000 0.0000
# 2 29.7371 33.1931 32.0897 0.0000 0.0000 0.0000
# 3 47.9414 32.0897 100.7319 0.0000 0.0000 0.0000
# 4 0.0000 0.0000 0.0000 20.6269 0.0000 0.0000
# 5 0.0000 0.0000 0.0000 0.0000 23.0985 0.0000
# 6 0.0000 0.0000 0.0000 0.0000 0.0000 17.7953
#
#
#
# Elastic Compliance Matrix: (Units=1/GPa)
#
#
# Indices 1 2 3 4 5 6 
#
# 1 0.015152 -0.009542 -0.004172 0.000000 0.000000 0.000000
# 2 -0.009542 0.049543 -0.011241 0.000000 0.000000 0.000000
# 3 -0.004172 -0.011241 0.015494 0.000000 0.000000 0.000000
# 4 0.000000 0.000000 0.000000 0.048480 0.000000 0.000000
# 5 0.000000 0.000000 0.000000 0.000000 0.043293 0.000000
# 6 0.000000 0.000000 0.000000 0.000000 0.000000 0.056195
#
#
# Mechanical properties :
#
#
# Convention : Reuss Voigt Hill
#
# Bulk Modulus (GPa) = 33.02595 50.15360 41.58978
# Shear Modulus (GPa) = 17.35150 20.44268 18.89709
#
# Velocity S-wave (km/s) = 3.55509 3.85879 3.71005
# Velocity P-wave (km/s) = 6.39588 7.50900 6.97468
#
# Compressibility (1/GPa) = 0.03027922
#
# Stress axis : x y z
#
# Youngs Moduli (GPa) = 65.99590 20.18468 64.54121
#
# Poissons Ratio (x) = 0.19259 0.26926
# Poissons Ratio (y) = 0.62971 0.72553
# Poissons Ratio (z) = 0.27533 0.22690
#
# Static dielectric constant tensor:
#      x y z
#    x 1.449150 0.000000 0.000000 
#    y 0.000000 1.457610 0.000000 
#    z 0.000000 0.000000 1.440570 
# 
# From -- ./inp_files/64203.got.cif
#   From: 2010.05.17/outbox.cif.g08.bks.cpg/sg74_33_cif.got.tgz:64203.got - 2010.06.03 17:57:02.
