data_PCOD9536621
_publ_section_title
;
Structure prediction by ZEFSAII (Michael W. Deem and Ramdas Pophale) SiO2 
 PCOD9536621
Probable space group: I M M A
;
_chemical_formula_sum "Si O2"
_cell_formula_units_Z 116
_cell_length_a 24.924303
_cell_length_b 7.981020
_cell_length_c 29.451268
_cell_angle_alpha 90.000000
_cell_angle_beta 90.000000
_cell_angle_gamma 90.000000
_cell_volume 5858.486306
_symmetry_space_group_name_H-M "I M M A"
_symmetry_group_IT_number 74
_symmetry_cell_setting 'orthorhombic'
loop_
_space_group_symop_operation_xyz
x,y,z
-x,1/2-y,z
x,-y,-z
-x,1/2+y,-z
-x,-y,-z
x,1/2+y,-z
-x,y,z
x,1/2-y,z
1/2+x,1/2+y,1/2+z
1/2-x,-y,1/2+z
1/2+x,1/2-y,1/2-z
1/2-x,y,1/2-z
1/2-x,1/2-y,1/2-z
1/2+x,y,1/2-z
1/2-x,1/2+y,1/2+z
1/2+x,-y,1/2+z
loop_
_atom_site_type_symbol
_atom_site_label
_atom_site_fract_x
_atom_site_fract_y
_atom_site_fract_z
Si Si1 0.186588 0.055739 0.644199
Si Si2 0.000000 0.750000 0.338953
Si Si3 0.921761 0.945739 0.686476
Si Si4 0.224611 0.451106 0.449036
Si Si5 0.942237 0.053724 0.886501
Si Si6 0.596427 0.951108 0.708803
Si Si7 0.281050 0.951910 0.705199
Si Si8 0.846250 0.552747 0.949901
O O1 0.179005 0.250000 0.654136
O O2 0.139953 0.956409 0.670085
O O3 0.187618 0.023443 0.590514
O O4 0.244668 0.001069 0.662869
O O5 0.953928 0.597374 0.336937
O O6 0.938748 0.750000 0.679512
O O7 0.924553 0.982740 0.740552
O O8 0.208470 0.500000 0.500000
O O9 0.224033 0.250000 0.444745
O O10 0.286058 0.517543 0.442755
O O11 0.943125 0.250000 0.896191
O O12 0.000000 0.980210 0.901029
O O13 0.935963 0.027079 0.832730
O O14 0.890176 0.986099 0.912134
O O15 0.596054 0.750000 0.702785
O O16 0.657958 0.012142 0.704807
O O17 0.283286 0.750000 0.707163
O O18 0.250000 0.012471 0.750000
O O19 0.839177 0.750000 0.950609
O O20 0.865151 0.500000 0.000000
#
# Coordination Sequence:
#
# PCOD9536621 Si02
#       8
#    16   4  16  16  16  16  16  16
#     4  12  23  37  59  93 130 164 209 253 303 374
#     4  12  26  44  64  92 122 160 222 252 318 370
#     4  11  24  43  65  90 124 166 209 264 312 364
#     4  10  21  38  62  93 127 160 194 240 308 373
#     4  11  25  39  55  78 110 153 205 264 315 359
#     4  10  22  38  58  83 116 161 209 253 316 371
#     4  10  19  35  56  81 119 163 202 249 308 374
#     4  10  21  39  62  85 114 152 197 248 310 377
#
# _framework density 19.800336999999999
#
# number of rings (size 3 to 8) (size 9 to 14) (size 15 to 20)
#    0.000    1.379    2.069    3.517    1.931    7.172 
#    0.000    0.000    0.000    0.000    0.000    0.483 
#    0.000    0.000    0.000    0.000    0.000    0.000 
#
# Total GULP energy -323444.683537 kJ/mol
# GULP energy per Si atom -5576.632475 kJ/mol
# Density = 1.975527 g / cm^3
# Si number density = 19.800337 Si / 1000 Ang^3
#
#
#
# Elastic Constant Matrix: (Units=GPa)
#
#
# Indices 1 2 3 4 5 6 
#
# 1 40.0950 6.2361 -4.4711 0.0000 0.0000 0.0000
# 2 6.2361 61.9230 -7.7370 0.0000 0.0000 0.0000
# 3 -4.4711 -7.7370 68.8560 0.0000 0.0000 0.0000
# 4 0.0000 0.0000 0.0000 26.8588 0.0000 0.0000
# 5 0.0000 0.0000 0.0000 0.0000 42.5884 0.0000
# 6 0.0000 0.0000 0.0000 0.0000 0.0000 33.2203
#
#
#
# Elastic Compliance Matrix: (Units=1/GPa)
#
#
# Indices 1 2 3 4 5 6 
#
# 1 0.025467 -0.002392 0.001385 0.000000 0.000000 0.000000
# 2 -0.002392 0.016604 0.001710 0.000000 0.000000 0.000000
# 3 0.001385 0.001710 0.014805 0.000000 0.000000 0.000000
# 4 0.000000 0.000000 0.000000 0.037232 0.000000 0.000000
# 5 0.000000 0.000000 0.000000 0.000000 0.023481 0.000000
# 6 0.000000 0.000000 0.000000 0.000000 0.000000 0.030102
#
#
# Mechanical properties :
#
#
# Convention : Reuss Voigt Hill
#
# Bulk Modulus (GPa) = 17.15759 17.65889 17.40824
# Shear Modulus (GPa) = 30.17302 32.32322 31.24812
#
# Velocity S-wave (km/s) = 3.90791 4.04475 3.97692
# Velocity P-wave (km/s) = 5.38947 5.54538 5.46798
#
# Compressibility (1/GPa) = 0.05828324
#
# Stress axis : x y z
#
# Youngs Moduli (GPa) = 39.26623 60.22770 67.54397
#
# Poissons Ratio (x) = 0.14405 -0.09354
# Poissons Ratio (y) = 0.09391 -0.11552
# Poissons Ratio (z) = -0.05438 -0.10301
#
# Static dielectric constant tensor:
#      x y z
#    x 1.748490 0.000000 0.000000 
#    y 0.000000 1.703860 0.000000 
#    z 0.000000 0.000000 1.685210 
# 
# From -- ./inp_files/64881.got.cif
#   From: 2010.05.17/outbox.cif.g08.bks.cpg/sg74_33_cif.got.tgz:64881.got - 2010.06.03 17:57:02.
