data_PCOD9536648
_publ_section_title
;
Structure prediction by ZEFSAII (Michael W. Deem and Ramdas Pophale) SiO2 
 PCOD9536648
Probable space group: I M M A
;
_chemical_formula_sum "Si O2"
_cell_formula_units_Z 112
_cell_length_a 24.521582
_cell_length_b 14.273767
_cell_length_c 14.958528
_cell_angle_alpha 90.000000
_cell_angle_beta 90.000000
_cell_angle_gamma 90.000000
_cell_volume 5235.714383
_symmetry_space_group_name_H-M "I M M A"
_symmetry_group_IT_number 74
_symmetry_cell_setting 'orthorhombic'
loop_
_space_group_symop_operation_xyz
x,y,z
-x,1/2-y,z
x,-y,-z
-x,1/2+y,-z
-x,-y,-z
x,1/2+y,-z
-x,y,z
x,1/2-y,z
1/2+x,1/2+y,1/2+z
1/2-x,-y,1/2+z
1/2+x,1/2-y,1/2-z
1/2-x,y,1/2-z
1/2-x,1/2-y,1/2-z
1/2+x,y,1/2-z
1/2-x,1/2+y,1/2+z
1/2+x,-y,1/2+z
loop_
_atom_site_type_symbol
_atom_site_label
_atom_site_fract_x
_atom_site_fract_y
_atom_site_fract_z
Si Si1 0.726663 0.137211 0.492880
Si Si2 0.937837 0.606628 0.035796
Si Si3 0.561459 0.857265 0.103021
Si Si4 0.838132 0.359868 0.833395
Si Si5 0.118407 0.003381 0.286416
Si Si6 0.629331 0.145881 0.367751
Si Si7 0.650298 0.638856 0.947163
O O1 0.722458 0.250000 0.491568
O O2 0.703975 0.110051 0.589550
O O3 0.684963 0.108229 0.414364
O O4 0.789074 0.113162 0.478907
O O5 0.897084 0.626377 0.117805
O O6 0.000000 0.632106 0.056113
O O7 0.936579 0.500000 0.000000
O O8 0.912236 0.655693 0.949511
O O9 0.500000 0.864076 0.066951
O O10 0.568759 0.750000 0.136974
O O11 0.570888 0.935909 0.177555
O O12 0.606214 0.872720 0.026049
O O13 0.830641 0.250000 0.811719
O O14 0.837214 0.428064 0.748827
O O15 0.107360 0.072551 0.203864
O O16 0.136137 0.071571 0.365657
O O17 0.639152 0.250000 0.329002
O O18 0.650065 0.750000 0.922985
#
# Coordination Sequence:
#
# PCOD9536648 Si02
#       7
#    16  16  16  16  16  16  16
#     4   8  18  40  65  88 126 173 214 253 304 381
#     4  10  19  35  57  85 123 169 215 253 298 369
#     4  10  24  48  71  89 121 170 220 272 330 384
#     4  10  21  39  62  90 128 171 209 256 313 370
#     4  12  23  38  60 101 127 156 206 269 316 383
#     4  10  21  38  60  90 131 172 206 258 319 374
#     4  10  22  44  69  92 122 167 216 264 324 385
#
# _framework density 21.391542000000001
#
# number of rings (size 3 to 8) (size 9 to 14) (size 15 to 20)
#    0.000    2.000    1.429    2.571    0.000    4.000 
#    7.714    2.143    0.000    6.000    0.000    0.000 
#    0.000    0.000    0.000    0.000    0.000    0.000 
#
# Total GULP energy -312753.389243 kJ/mol
# GULP energy per Si atom -5584.881951 kJ/mol
# Density = 2.134285 g / cm^3
# Si number density = 21.391542 Si / 1000 Ang^3
#
#
#
# Elastic Constant Matrix: (Units=GPa)
#
#
# Indices 1 2 3 4 5 6 
#
# 1 106.0495 23.4300 34.0679 0.0000 0.0000 0.0000
# 2 23.4300 148.4709 49.9898 0.0000 0.0000 0.0000
# 3 34.0679 49.9898 66.8773 0.0000 0.0000 0.0000
# 4 0.0000 0.0000 0.0000 26.4805 0.0000 0.0000
# 5 0.0000 0.0000 0.0000 0.0000 9.1986 0.0000
# 6 0.0000 0.0000 0.0000 0.0000 0.0000 340.0218
#
#
#
# Elastic Compliance Matrix: (Units=1/GPa)
#
#
# Indices 1 2 3 4 5 6 
#
# 1 0.011279 0.000207 -0.005900 0.000000 0.000000 0.000000
# 2 0.000207 0.009004 -0.006836 0.000000 0.000000 0.000000
# 3 -0.005900 -0.006836 0.023068 0.000000 0.000000 0.000000
# 4 0.000000 0.000000 0.000000 0.037764 0.000000 0.000000
# 5 0.000000 0.000000 0.000000 0.000000 0.108712 0.000000
# 6 0.000000 0.000000 0.000000 0.000000 0.000000 0.002941
#
#
# Mechanical properties :
#
#
# Convention : Reuss Voigt Hill
#
# Bulk Modulus (GPa) = 54.66634 59.59702 57.13168
# Shear Modulus (GPa) = 22.32890 89.40086 55.86488
#
# Velocity S-wave (km/s) = 3.23432 6.47173 5.11587
# Velocity P-wave (km/s) = 6.28955 9.15232 7.85250
#
# Compressibility (1/GPa) = 0.01829279
#
# Stress axis : x y z
#
# Youngs Moduli (GPa) = 88.65772 111.05755 43.34992
#
# Poissons Ratio (x) = -0.02295 0.25578
# Poissons Ratio (y) = -0.01832 0.29633
# Poissons Ratio (z) = 0.52310 0.75917
#
# Static dielectric constant tensor:
#      x y z
#    x 1.752540 0.000000 0.000000 
#    y 0.000000 1.843290 0.000000 
#    z 0.000000 0.000000 1.754160 
# 
# From -- ./inp_files/36534.got.cif
#   From: 2010.05.17/outbox.cif.g08.bks.cpg/sg74_19_cif.got.tgz:36534.got - 2010.06.03 17:57:02.
