data_PCOD9536266
_publ_section_title
;
Structure prediction by ZEFSAII (Michael W. Deem and Ramdas Pophale) SiO2 
 PCOD9536266
Probable space group: I M M A
;
_chemical_formula_sum "Si O2"
_cell_formula_units_Z 104
_cell_length_a 8.655597
_cell_length_b 29.627999
_cell_length_c 22.482879
_cell_angle_alpha 90.000000
_cell_angle_beta 90.000000
_cell_angle_gamma 90.000000
_cell_volume 5765.689787
_symmetry_space_group_name_H-M "I M M A"
_symmetry_group_IT_number 74
_symmetry_cell_setting 'orthorhombic'
loop_
_space_group_symop_operation_xyz
x,y,z
-x,1/2-y,z
x,-y,-z
-x,1/2+y,-z
-x,-y,-z
x,1/2+y,-z
-x,y,z
x,1/2-y,z
1/2+x,1/2+y,1/2+z
1/2-x,-y,1/2+z
1/2+x,1/2-y,1/2-z
1/2-x,y,1/2-z
1/2-x,1/2-y,1/2-z
1/2+x,y,1/2-z
1/2-x,1/2+y,1/2+z
1/2+x,-y,1/2+z
loop_
_atom_site_type_symbol
_atom_site_label
_atom_site_fract_x
_atom_site_fract_y
_atom_site_fract_z
Si Si1 0.325187 0.864875 0.531757
Si Si2 0.675481 0.304614 0.689280
Si Si3 0.320068 0.969081 0.552974
Si Si4 0.318884 0.803200 0.064377
Si Si5 0.322888 0.655075 0.850356
Si Si6 0.314217 0.940127 0.685652
Si Si7 0.183218 0.750000 0.815488
O O1 0.500000 0.854363 0.553736
O O2 0.318837 0.918643 0.526056
O O3 0.287253 0.835428 0.474742
O O4 0.195906 0.853303 0.579835
O O5 0.500000 0.320734 0.680751
O O6 0.667909 0.250000 0.693873
O O7 0.750000 0.321881 0.750000
O O8 0.781755 0.313720 0.632830
O O9 0.500000 0.983388 0.559801
O O10 0.262383 0.963940 0.622373
O O11 0.249838 0.000000 0.500000
O O12 0.500000 0.809902 0.051915
O O13 0.283288 0.750000 0.053956
O O14 0.500000 0.655978 0.830406
O O15 0.237750 0.612309 0.820834
O O16 0.245744 0.703439 0.841706
O O17 0.500000 0.942106 0.686779
O O18 0.250000 0.956599 0.750000
O O19 0.250000 0.750000 0.750000
O O20 0.000000 0.750000 0.817023
#
# Coordination Sequence:
#
# PCOD9536266 Si02
#       7
#    16  16  16  16  16  16   8
#     4  10  20  34  53  77 103 134 174 218 264 315
#     4   9  16  27  44  66  92 123 163 209 256 305
#     4   8  16  33  57  82 105 134 174 219 268 322
#     4  10  20  32  47  69 100 137 175 214 257 308
#     4  11  22  36  52  72 102 139 179 221 266 312
#     4  10  19  33  55  82 110 139 175 219 268 320
#     4  12  24  38  52  70  98 136 181 222 261 304
#
# _framework density 18.037738999999998
#
# number of rings (size 3 to 8) (size 9 to 14) (size 15 to 20)
#    0.000    2.154    0.000    5.308    1.077    2.769 
#    0.000    0.000    0.000   17.538    0.000    2.154 
#    0.000    0.000    0.000    0.000    0.000    0.000 
#
# Total GULP energy -289566.137769 kJ/mol
# GULP energy per Si atom -5568.579572 kJ/mol
# Density = 1.799668 g / cm^3
# Si number density = 18.037739 Si / 1000 Ang^3
#
#
#
# Elastic Constant Matrix: (Units=GPa)
#
#
# Indices 1 2 3 4 5 6 
#
# 1 72.1378 20.8543 14.8884 0.0000 0.0000 0.0000
# 2 20.8543 49.1114 42.7211 0.0000 0.0000 0.0000
# 3 14.8884 42.7211 108.6473 0.0001 0.0000 0.0000
# 4 0.0000 0.0000 0.0001 19.4656 0.0000 0.0000
# 5 0.0000 0.0000 0.0000 0.0000 29.6472 0.0000
# 6 0.0000 0.0000 0.0000 0.0000 0.0000 11.4979
#
#
#
# Elastic Compliance Matrix: (Units=1/GPa)
#
#
# Indices 1 2 3 4 5 6 
#
# 1 0.015839 -0.007353 0.000721 0.000000 0.000000 0.000000
# 2 -0.007353 0.034360 -0.012503 0.000000 0.000000 0.000000
# 3 0.000721 -0.012503 0.014022 0.000000 0.000000 0.000000
# 4 0.000000 0.000000 0.000000 0.051373 0.000000 0.000000
# 5 0.000000 0.000000 0.000000 0.000000 0.033730 0.000000
# 6 0.000000 0.000000 0.000000 0.000000 0.000000 0.086973
#
#
# Mechanical properties :
#
#
# Convention : Reuss Voigt Hill
#
# Bulk Modulus (GPa) = 38.53459 42.98046 40.75753
# Shear Modulus (GPa) = 17.65425 22.21764 19.93595
#
# Velocity S-wave (km/s) = 3.13188 3.51341 3.32811
# Velocity P-wave (km/s) = 5.87264 6.35126 6.11663
#
# Compressibility (1/GPa) = 0.02595071
#
# Stress axis : x y z
#
# Youngs Moduli (GPa) = 63.13440 29.10319 71.31787
#
# Poissons Ratio (x) = 0.21399 -0.05140
# Poissons Ratio (y) = 0.46421 0.89171
# Poissons Ratio (z) = -0.04550 0.36389
#
# Static dielectric constant tensor:
#      x y z
#    x 1.633320 0.000000 0.000000 
#    y 0.000000 1.574510 0.000000 
#    z 0.000000 0.000000 1.678750 
# 
# From -- ./inp_files/57631.got.cif
#   From: 2010.05.17/outbox.cif.g08.bks.cpg/sg74_29_cif.got.tgz:57631.got - 2010.06.03 17:57:02.
