data_PCOD9536387
_publ_section_title
;
Structure prediction by ZEFSAII (Michael W. Deem and Ramdas Pophale) SiO2 
 PCOD9536387
Probable space group: I M M A
;
_chemical_formula_sum "Si O2"
_cell_formula_units_Z 64
_cell_length_a 9.609898
_cell_length_b 22.627711
_cell_length_c 17.445288
_cell_angle_alpha 90.000000
_cell_angle_beta 90.000000
_cell_angle_gamma 90.000000
_cell_volume 3793.477783
_symmetry_space_group_name_H-M "I M M A"
_symmetry_group_IT_number 74
_symmetry_cell_setting 'orthorhombic'
loop_
_space_group_symop_operation_xyz
x,y,z
-x,1/2-y,z
x,-y,-z
-x,1/2+y,-z
-x,-y,-z
x,1/2+y,-z
-x,y,z
x,1/2-y,z
1/2+x,1/2+y,1/2+z
1/2-x,-y,1/2+z
1/2+x,1/2-y,1/2-z
1/2-x,y,1/2-z
1/2-x,1/2-y,1/2-z
1/2+x,y,1/2-z
1/2-x,1/2+y,1/2+z
1/2+x,-y,1/2+z
loop_
_atom_site_type_symbol
_atom_site_label
_atom_site_fract_x
_atom_site_fract_y
_atom_site_fract_z
Si Si1 0.666783 0.250000 0.830125
Si Si2 0.842352 0.565151 0.680858
Si Si3 0.250000 0.052621 0.750000
Si Si4 0.342731 0.642169 0.379703
Si Si5 0.659217 0.434253 0.467322
O O1 0.500000 0.250000 0.821456
O O2 0.750000 0.250000 0.750000
O O3 0.724919 0.191531 0.871247
O O4 0.750000 0.591165 0.750000
O O5 0.839480 0.494390 0.700395
O O6 0.765946 0.576089 0.601007
O O7 0.000000 0.585834 0.681173
O O8 0.326363 0.094661 0.689192
O O9 0.500000 0.667220 0.374463
O O10 0.328533 0.609291 0.460742
O O11 0.679704 0.500000 0.500000
O O12 0.500000 0.431199 0.437351
#
# Coordination Sequence:
#
# PCOD9536387 Si02
#       5
#     8  16   8  16  16
#     4  12  26  40  56  76 105 142 189 232 266 312
#     4  10  20  32  49  76 109 143 177 215 264 320
#     4  10  20  31  54  78 108 147 180 224 262 316
#     4  11  22  38  57  77 108 146 184 224 269 318
#     4  10  19  34  53  77 108 140 175 219 272 324
#
# _framework density 16.871061999999998
#
# number of rings (size 3 to 8) (size 9 to 14) (size 15 to 20)
#    0.750    0.750    3.750    2.625    0.000    2.500 
#    0.000    0.000    0.000    0.000    0.000    0.875 
#    0.000    0.000    0.000    0.000    0.000    0.000 
#
# Total GULP energy -178347.108045 kJ/mol
# GULP energy per Si atom -5573.347126 kJ/mol
# Density = 1.683266 g / cm^3
# Si number density = 16.871062 Si / 1000 Ang^3
#
#
#
# Elastic Constant Matrix: (Units=GPa)
#
#
# Indices 1 2 3 4 5 6 
#
# 1 157.8868 19.8150 75.1254 0.0000 0.0000 0.0000
# 2 19.8150 35.5933 15.7078 0.0000 0.0000 0.0000
# 3 75.1254 15.7078 105.4528 0.0000 0.0000 0.0000
# 4 0.0000 0.0000 0.0000 17.7021 0.0000 0.0000
# 5 0.0000 0.0000 0.0000 0.0000 28.2042 0.0000
# 6 0.0000 0.0000 0.0000 0.0000 0.0000 15.4231
#
#
#
# Elastic Compliance Matrix: (Units=1/GPa)
#
#
# Indices 1 2 3 4 5 6 
#
# 1 0.009791 -0.002540 -0.006597 0.000000 0.000000 0.000000
# 2 -0.002540 0.030731 -0.002768 0.000000 0.000000 0.000000
# 3 -0.006597 -0.002768 0.014595 0.000000 0.000000 0.000000
# 4 0.000000 0.000000 0.000000 0.056490 0.000000 0.000000
# 5 0.000000 0.000000 0.000000 0.000000 0.035456 0.000000
# 6 0.000000 0.000000 0.000000 0.000000 0.000000 0.064838
#
#
# Mechanical properties :
#
#
# Convention : Reuss Voigt Hill
#
# Bulk Modulus (GPa) = 31.94160 57.80325 44.87243
# Shear Modulus (GPa) = 20.31308 24.81821 22.56565
#
# Velocity S-wave (km/s) = 3.47366 3.83959 3.66120
# Velocity P-wave (km/s) = 5.92134 7.34798 6.67290
#
# Compressibility (1/GPa) = 0.03130714
#
# Stress axis : x y z
#
# Youngs Moduli (GPa) = 102.12990 32.54082 68.51574
#
# Poissons Ratio (x) = 0.08264 0.45201
# Poissons Ratio (y) = 0.25936 0.18967
# Poissons Ratio (z) = 0.67377 0.09008
#
# Static dielectric constant tensor:
#      x y z
#    x 1.582220 0.000000 0.000000 
#    y 0.000000 1.563080 0.000000 
#    z 0.000000 0.000000 1.560820 
# 
# From -- ./inp_files/39376.got.cif
#   From: 2010.05.17/outbox.cif.g08.bks.cpg/sg74_20_cif.got.tgz:39376.got - 2010.06.03 17:57:02.
