data_PCOD9536273
_publ_section_title
;
Structure prediction by ZEFSAII (Michael W. Deem and Ramdas Pophale) SiO2 
 PCOD9536273
Probable space group: I M M A
;
_chemical_formula_sum "Si O2"
_cell_formula_units_Z 96
_cell_length_a 19.316346
_cell_length_b 20.299541
_cell_length_c 13.109859
_cell_angle_alpha 90.000000
_cell_angle_beta 90.000000
_cell_angle_gamma 90.000000
_cell_volume 5140.545586
_symmetry_space_group_name_H-M "I M M A"
_symmetry_group_IT_number 74
_symmetry_cell_setting 'orthorhombic'
loop_
_space_group_symop_operation_xyz
x,y,z
-x,1/2-y,z
x,-y,-z
-x,1/2+y,-z
-x,-y,-z
x,1/2+y,-z
-x,y,z
x,1/2-y,z
1/2+x,1/2+y,1/2+z
1/2-x,-y,1/2+z
1/2+x,1/2-y,1/2-z
1/2-x,y,1/2-z
1/2-x,1/2-y,1/2-z
1/2+x,y,1/2-z
1/2-x,1/2+y,1/2+z
1/2+x,-y,1/2+z
loop_
_atom_site_type_symbol
_atom_site_label
_atom_site_fract_x
_atom_site_fract_y
_atom_site_fract_z
Si Si1 0.920782 0.889358 0.190047
Si Si2 0.082814 0.071423 0.462545
Si Si3 0.577972 0.043232 0.268647
Si Si4 0.222097 0.404630 0.916569
Si Si5 0.646315 0.826713 0.118788
Si Si6 0.718545 0.443312 0.358988
O O1 0.857866 0.887907 0.108986
O O2 0.899424 0.841010 0.281157
O O3 0.000000 0.878272 0.154226
O O4 0.919472 0.963551 0.237480
O O5 0.095246 0.072915 0.341757
O O6 0.114330 0.129887 0.527711
O O7 0.000000 0.072135 0.477914
O O8 0.108989 0.000000 0.500000
O O9 0.500000 0.061570 0.297147
O O10 0.635877 0.062899 0.348285
O O11 0.276687 0.355763 0.865502
O O12 0.234351 0.479055 0.875778
O O13 0.237791 0.406344 0.037593
O O14 0.648068 0.750000 0.095319
O O15 0.750000 0.423111 0.250000
#
# Coordination Sequence:
#
# PCOD9536273 Si02
#       6
#    16  16  16  16  16  16
#     4  10  20  36  55  80 114 151 189 229 283 347
#     4  10  19  33  57  85 112 149 191 233 283 340
#     4   9  17  31  54  83 112 140 181 236 289 339
#     4  10  22  35  54  81 113 153 192 237 285 339
#     4  12  24  36  54  83 118 153 191 235 283 341
#     4  10  19  33  55  83 110 146 192 237 287 337
#
# _framework density 18.675059999999998
#
# number of rings (size 3 to 8) (size 9 to 14) (size 15 to 20)
#    0.000    1.833    1.667    4.000    2.333    3.333 
#    0.000    3.333    0.000    4.500    0.000    0.000 
#    0.000    0.000    0.000    0.000    0.000    0.000 
#
# Total GULP energy -267939.920724 kJ/mol
# GULP energy per Si atom -5582.081682 kJ/mol
# Density = 1.863256 g / cm^3
# Si number density = 18.675060 Si / 1000 Ang^3
#
#
#
# Elastic Constant Matrix: (Units=GPa)
#
#
# Indices 1 2 3 4 5 6 
#
# 1 80.9593 18.3863 25.0630 0.0000 0.0000 0.0000
# 2 18.3863 61.0114 18.2073 0.0000 0.0000 0.0000
# 3 25.0630 18.2073 69.1899 0.0000 0.0000 0.0000
# 4 0.0000 0.0000 0.0000 12.0767 0.0000 0.0000
# 5 0.0000 0.0000 0.0000 0.0000 30.8416 0.0000
# 6 0.0000 0.0000 0.0000 0.0000 0.0000 2.0314
#
#
#
# Elastic Compliance Matrix: (Units=1/GPa)
#
#
# Indices 1 2 3 4 5 6 
#
# 1 0.014408 -0.003022 -0.004424 0.000000 0.000000 0.000000
# 2 -0.003022 0.018421 -0.003753 0.000000 0.000000 0.000000
# 3 -0.004424 -0.003753 0.017043 0.000000 0.000000 0.000000
# 4 0.000000 0.000000 0.000000 0.082804 0.000000 0.000000
# 5 0.000000 0.000000 0.000000 0.000000 0.032424 0.000000
# 6 0.000000 0.000000 0.000000 0.000000 0.000000 0.492269
#
#
# Mechanical properties :
#
#
# Convention : Reuss Voigt Hill
#
# Bulk Modulus (GPa) = 36.39696 37.16373 36.78034
# Shear Modulus (GPa) = 7.25770 18.95686 13.10728
#
# Velocity S-wave (km/s) = 1.97351 3.18950 2.65214
# Velocity P-wave (km/s) = 4.97241 5.78855 5.39593
#
# Compressibility (1/GPa) = 0.02747483
#
# Stress axis : x y z
#
# Youngs Moduli (GPa) = 69.40768 54.28599 58.67513
#
# Poissons Ratio (x) = 0.16404 0.25957
# Poissons Ratio (y) = 0.20973 0.22020
# Poissons Ratio (z) = 0.30704 0.20373
#
# Static dielectric constant tensor:
#      x y z
#    x 1.706240 0.000000 0.000000 
#    y 0.000000 1.599020 0.000000 
#    z 0.000000 0.000000 1.649290 
# 
# From -- ./inp_files/23940.got.cif
#   From: 2010.05.17/outbox.cif.g08.bks.cpg/sg74_12_cif.got.tgz:23940.got - 2010.06.03 17:57:02.
