data_PCOD9536843
_publ_section_title
;
Structure prediction by ZEFSAII (Michael W. Deem and Ramdas Pophale) SiO2 
 PCOD9536843
Probable space group: I M M A
;
_chemical_formula_sum "Si O2"
_cell_formula_units_Z 68
_cell_length_a 28.055611
_cell_length_b 7.607072
_cell_length_c 13.394348
_cell_angle_alpha 90.000000
_cell_angle_beta 90.000000
_cell_angle_gamma 90.000000
_cell_volume 2858.635853
_symmetry_space_group_name_H-M "I M M A"
_symmetry_group_IT_number 74
_symmetry_cell_setting 'orthorhombic'
loop_
_space_group_symop_operation_xyz
x,y,z
-x,1/2-y,z
x,-y,-z
-x,1/2+y,-z
-x,-y,-z
x,1/2+y,-z
-x,y,z
x,1/2-y,z
1/2+x,1/2+y,1/2+z
1/2-x,-y,1/2+z
1/2+x,1/2-y,1/2-z
1/2-x,y,1/2-z
1/2-x,1/2-y,1/2-z
1/2+x,y,1/2-z
1/2-x,1/2+y,1/2+z
1/2+x,-y,1/2+z
loop_
_atom_site_type_symbol
_atom_site_label
_atom_site_fract_x
_atom_site_fract_y
_atom_site_fract_z
Si Si1 0.000000 0.750000 0.131441
Si Si2 0.571855 0.057407 0.312061
Si Si3 0.175258 0.459785 0.882867
Si Si4 0.721157 0.038925 0.881324
Si Si5 0.885506 0.460152 0.616789
O O1 0.041270 0.595767 0.139795
O O2 0.554373 0.250000 0.339981
O O3 0.626739 0.040096 0.343952
O O4 0.575205 0.035535 0.191803
O O5 0.173019 0.250000 0.865927
O O6 0.226959 0.522915 0.843218
O O7 0.175990 0.500000 0.000000
O O8 0.720917 0.250000 0.866820
O O9 0.668087 0.975828 0.853418
O O10 0.722297 0.000000 0.000000
O O11 0.892975 0.500000 0.500000
O O12 0.886037 0.250000 0.629630
#
# Coordination Sequence:
#
# PCOD9536843 Si02
#       5
#     4  16  16  16  16
#     4  12  26  52  68  88 124 154 218 280 344 356
#     4  12  25  44  70  93 122 167 207 269 328 382
#     4  10  19  37  62  95 134 171 211 253 308 376
#     4   8  16  29  54  89 132 173 203 246 296 362
#     4  10  19  37  62  95 134 171 211 253 308 376
#
# _framework density 23.787571
#
# number of rings (size 3 to 8) (size 9 to 14) (size 15 to 20)
#    0.000    1.882    2.353    1.765    0.000    2.824 
#    0.000    5.882    0.000    0.000    0.000    0.000 
#    0.000    0.000    0.000    0.000    0.000    0.000 
#
# Total GULP energy -189539.051754 kJ/mol
# GULP energy per Si atom -5574.677993 kJ/mol
# Density = 2.373343 g / cm^3
# Si number density = 23.787571 Si / 1000 Ang^3
#
#
#
# Elastic Constant Matrix: (Units=GPa)
#
#
# Indices 1 2 3 4 5 6 
#
# 1 68.1236 20.5418 5.3068 0.0000 0.0000 0.0000
# 2 20.5418 149.3261 -8.4049 0.0000 0.0000 0.0000
# 3 5.3068 -8.4049 46.6076 0.0000 0.0000 0.0000
# 4 0.0000 0.0000 0.0000 13.8943 0.0000 0.0000
# 5 0.0000 0.0000 0.0000 0.0000 -36.3631 0.0000
# 6 0.0000 0.0000 0.0000 0.0000 0.0000 -26.5547
#
#
#
# Elastic Compliance Matrix: (Units=1/GPa)
#
#
# Indices 1 2 3 4 5 6 
#
# 1 0.015530 -0.002259 -0.002176 0.000000 0.000000 0.000000
# 2 -0.002259 0.007094 0.001536 0.000000 0.000000 0.000000
# 3 -0.002176 0.001536 0.021981 0.000000 0.000000 0.000000
# 4 0.000000 0.000000 0.000000 0.071972 0.000000 0.000000
# 5 0.000000 0.000000 0.000000 0.000000 -0.027500 0.000000
# 6 0.000000 0.000000 0.000000 0.000000 0.000000 -0.037658
#
#
# Mechanical properties :
#
#
# Convention : Reuss Voigt Hill
#
# Bulk Modulus (GPa) = 25.76756 33.21608 29.49182
# Shear Modulus (GPa) = 71.27611 6.63618 38.95615
#
# Velocity S-wave (km/s) = 5.47984 1.67207 4.05120
# Velocity P-wave (km/s) = 7.13401 4.20972 5.85729
#
# Compressibility (1/GPa) = 0.03880849
#
# Stress axis : x y z
#
# Youngs Moduli (GPa) = 64.39234 140.96493 45.49480
#
# Poissons Ratio (x) = 0.31841 0.09898
# Poissons Ratio (y) = 0.14545 -0.06990
# Poissons Ratio (z) = 0.14009 -0.21659
#
# Static dielectric constant tensor:
#      x y z
#    x 1.881670 0.000000 0.000000 
#    y 0.000000 1.902100 0.000000 
#    z 0.000000 0.000000 1.927850 
# 
# From -- ./inp_files/36990.got.cif
#   From: 2010.05.17/outbox.cif.g08.bks.cpg/sg74_19_cif.got.tgz:36990.got - 2010.06.03 17:57:02.
