data_PCOD9536780
_publ_section_title
;
Structure prediction by ZEFSAII (Michael W. Deem and Ramdas Pophale) SiO2 
 PCOD9536780
Probable space group: I M M A
;
_chemical_formula_sum "Si O2"
_cell_formula_units_Z 80
_cell_length_a 25.760418
_cell_length_b 18.785097
_cell_length_c 8.499002
_cell_angle_alpha 90.000000
_cell_angle_beta 90.000000
_cell_angle_gamma 90.000000
_cell_volume 4112.768638
_symmetry_space_group_name_H-M "I M M A"
_symmetry_group_IT_number 74
_symmetry_cell_setting 'orthorhombic'
loop_
_space_group_symop_operation_xyz
x,y,z
-x,1/2-y,z
x,-y,-z
-x,1/2+y,-z
-x,-y,-z
x,1/2+y,-z
-x,y,z
x,1/2-y,z
1/2+x,1/2+y,1/2+z
1/2-x,-y,1/2+z
1/2+x,1/2-y,1/2-z
1/2-x,y,1/2-z
1/2-x,1/2-y,1/2-z
1/2+x,y,1/2-z
1/2-x,1/2+y,1/2+z
1/2+x,-y,1/2+z
loop_
_atom_site_type_symbol
_atom_site_label
_atom_site_fract_x
_atom_site_fract_y
_atom_site_fract_z
Si Si1 0.302514 0.168528 0.349384
Si Si2 0.396387 0.410214 0.177052
Si Si3 0.500000 0.667233 0.203256
Si Si4 0.000000 0.669142 0.680398
Si Si5 0.706043 0.933042 0.380229
Si Si6 0.600712 0.577942 0.191304
O O1 0.321666 0.250000 0.357415
O O2 0.250000 0.167206 0.250000
O O3 0.346462 0.117831 0.271782
O O4 0.285221 0.136557 0.515504
O O5 0.447226 0.368228 0.231186
O O6 0.409981 0.493423 0.192827
O O7 0.387796 0.399390 0.989476
O O8 0.500000 0.750000 0.252843
O O9 0.551954 0.624322 0.249553
O O10 0.500000 0.666426 0.011360
O O11 0.000000 0.750000 0.731776
O O12 0.750000 0.946392 0.250000
O O13 0.651885 0.917767 0.294951
O O14 0.703890 0.000000 0.500000
#
# Coordination Sequence:
#
# PCOD9536780 Si02
#       6
#    16  16   8   8  16  16
#     4  11  24  42  62  89 126 166 208 263 323 379
#     4  10  19  36  61  92 126 161 210 260 305 371
#     4   9  19  37  59  91 132 169 208 259 316 372
#     4   9  17  31  56  88 122 165 207 250 305 369
#     4  12  25  41  65  92 125 166 214 269 322 384
#     4  10  21  36  64  94 124 166 212 261 312 376
#
# _framework density 19.451616999999999
#
# number of rings (size 3 to 8) (size 9 to 14) (size 15 to 20)
#    0.000    1.600    2.000    3.000    2.800    4.400 
#    0.000    1.500    0.000    1.200    0.000    0.000 
#    0.000    0.000    0.000    0.000    0.000    0.000 
#
# Total GULP energy -223290.593269 kJ/mol
# GULP energy per Si atom -5582.264832 kJ/mol
# Density = 1.940734 g / cm^3
# Si number density = 19.451617 Si / 1000 Ang^3
#
#
#
# Elastic Constant Matrix: (Units=GPa)
#
#
# Indices 1 2 3 4 5 6 
#
# 1 129.1767 55.7948 49.8770 0.0000 0.0000 0.0000
# 2 55.7948 106.2517 39.4193 0.0000 0.0000 0.0000
# 3 49.8770 39.4193 66.2897 0.0000 0.0000 0.0000
# 4 0.0000 0.0000 0.0000 16.1170 0.0000 0.0000
# 5 0.0000 0.0000 0.0000 0.0000 20.0028 0.0000
# 6 0.0000 0.0000 0.0000 0.0000 0.0000 29.4496
#
#
#
# Elastic Compliance Matrix: (Units=1/GPa)
#
#
# Indices 1 2 3 4 5 6 
#
# 1 0.011990 -0.003784 -0.006771 0.000000 0.000000 0.000000
# 2 -0.003784 0.013270 -0.005044 0.000000 0.000000 0.000000
# 3 -0.006771 -0.005044 0.023179 0.000000 0.000000 0.000000
# 4 0.000000 0.000000 0.000000 0.062046 0.000000 0.000000
# 5 0.000000 0.000000 0.000000 0.000000 0.049993 0.000000
# 6 0.000000 0.000000 0.000000 0.000000 0.000000 0.033956
#
#
# Mechanical properties :
#
#
# Convention : Reuss Voigt Hill
#
# Bulk Modulus (GPa) = 58.00089 65.76669 61.88379
# Shear Modulus (GPa) = 21.60938 23.55569 22.58254
#
# Velocity S-wave (km/s) = 3.33668 3.48370 3.41098
# Velocity P-wave (km/s) = 6.68785 7.07569 6.88450
#
# Compressibility (1/GPa) = 0.01724112
#
# Stress axis : x y z
#
# Youngs Moduli (GPa) = 83.40042 75.35799 43.14172
#
# Poissons Ratio (x) = 0.28517 0.29213
# Poissons Ratio (y) = 0.31560 0.21760
# Poissons Ratio (z) = 0.56474 0.38009
#
# Static dielectric constant tensor:
#      x y z
#    x 1.665840 0.000000 0.000000 
#    y 0.000000 1.694130 0.000000 
#    z 0.000000 0.000000 1.702440 
# 
# From -- ./inp_files/14979.got.cif
#   From: 2010.05.17/outbox.cif.g08.bks.cpg/sg74_8_cif.got.tgz:14979.got - 2010.06.03 17:57:02.
