data_PCOD9536042
_publ_section_title
;
Structure prediction by ZEFSAII (Michael W. Deem and Ramdas Pophale) SiO2 
 PCOD9536042
Probable space group: I M M A
;
_chemical_formula_sum "Si O2"
_cell_formula_units_Z 96
_cell_length_a 25.431711
_cell_length_b 7.617611
_cell_length_c 22.608305
_cell_angle_alpha 90.000000
_cell_angle_beta 90.000000
_cell_angle_gamma 90.000000
_cell_volume 4379.881639
_symmetry_space_group_name_H-M "I M M A"
_symmetry_group_IT_number 74
_symmetry_cell_setting 'orthorhombic'
loop_
_space_group_symop_operation_xyz
x,y,z
-x,1/2-y,z
x,-y,-z
-x,1/2+y,-z
-x,-y,-z
x,1/2+y,-z
-x,y,z
x,1/2-y,z
1/2+x,1/2+y,1/2+z
1/2-x,-y,1/2+z
1/2+x,1/2-y,1/2-z
1/2-x,y,1/2-z
1/2-x,1/2-y,1/2-z
1/2+x,y,1/2-z
1/2-x,1/2+y,1/2+z
1/2+x,-y,1/2+z
loop_
_atom_site_type_symbol
_atom_site_label
_atom_site_fract_x
_atom_site_fract_y
_atom_site_fract_z
Si Si1 0.500000 0.956284 0.295859
Si Si2 0.886025 0.458392 0.821395
Si Si3 0.199068 0.951348 0.587141
Si Si4 0.085764 0.539281 0.564159
Si Si5 0.184342 0.041557 0.066003
Si Si6 0.500000 0.036654 0.157542
Si Si7 0.806633 0.961889 0.278340
O O1 0.500000 0.750000 0.311601
O O2 0.445100 0.031586 0.320173
O O3 0.500000 0.972451 0.224626
O O4 0.890095 0.250000 0.811017
O O5 0.853957 0.480301 0.881979
O O6 0.851263 0.526442 0.766628
O O7 0.200816 0.750000 0.565438
O O8 0.145048 0.034955 0.564495
O O9 0.256003 0.031923 0.572714
O O10 0.192068 0.954097 0.657598
O O11 0.062040 0.500000 0.500000
O O12 0.089029 0.750000 0.570405
O O13 0.050466 0.477955 0.619021
O O14 0.187936 0.250000 0.073127
O O15 0.165379 0.000000 0.000000
O O16 0.500000 0.250000 0.159378
O O17 0.810879 0.750000 0.285421
O O18 0.750000 0.998004 0.250000
#
# Coordination Sequence:
#
# PCOD9536042 Si02
#       7
#     8  16  16  16  16   8  16
#     4  10  22  39  62  87 111 144 182 226 279 332
#     4  10  21  39  59  84 116 145 182 228 274 329
#     4  10  21  35  53  81 115 148 187 230 277 330
#     4  10  21  36  53  78 111 151 194 235 275 321
#     4  11  23  38  58  83 111 147 185 227 279 333
#     4  10  21  37  57  81 113 148 187 234 280 324
#     4  10  19  32  54  83 113 146 181 223 275 326
#
# _framework density 21.918400999999999
#
# number of rings (size 3 to 8) (size 9 to 14) (size 15 to 20)
#    0.000    1.833    1.667    2.250    0.000    3.667 
#    0.000    0.417    0.000    0.000    0.000    0.000 
#    0.000    0.000    0.000    0.000    0.000    0.000 
#
# Total GULP energy -268231.096274 kJ/mol
# GULP energy per Si atom -5588.147839 kJ/mol
# Density = 2.186851 g / cm^3
# Si number density = 21.918401 Si / 1000 Ang^3
#
#
#
# Elastic Constant Matrix: (Units=GPa)
#
#
# Indices 1 2 3 4 5 6 
#
# 1 154.5297 12.1397 40.3892 0.0000 0.0000 0.0000
# 2 12.1397 42.9906 -19.1436 0.0000 0.0000 0.0000
# 3 40.3892 -19.1436 103.2432 0.0000 0.0000 0.0000
# 4 0.0000 0.0000 0.0000 26.5541 0.0000 0.0000
# 5 0.0000 0.0000 0.0000 0.0000 31.7661 0.0000
# 6 0.0000 0.0000 0.0000 0.0000 0.0000 25.7912
#
#
#
# Elastic Compliance Matrix: (Units=1/GPa)
#
#
# Indices 1 2 3 4 5 6 
#
# 1 0.007754 -0.003859 -0.003749 0.000000 0.000000 0.000000
# 2 -0.003859 0.027275 0.006567 0.000000 0.000000 0.000000
# 3 -0.003749 0.006567 0.012370 0.000000 0.000000 0.000000
# 4 0.000000 0.000000 0.000000 0.037659 0.000000 0.000000
# 5 0.000000 0.000000 0.000000 0.000000 0.031480 0.000000
# 6 0.000000 0.000000 0.000000 0.000000 0.000000 0.038773
#
#
# Mechanical properties :
#
#
# Convention : Reuss Voigt Hill
#
# Bulk Modulus (GPa) = 22.06665 40.83714 31.45189
# Shear Modulus (GPa) = 28.98558 34.64748 31.81653
#
# Velocity S-wave (km/s) = 3.64047 3.98018 3.81411
# Velocity P-wave (km/s) = 5.26879 6.30827 5.81182
#
# Compressibility (1/GPa) = 0.04531725
#
# Stress axis : x y z
#
# Youngs Moduli (GPa) = 128.96054 36.66364 80.83937
#
# Poissons Ratio (x) = 0.14149 0.30307
# Poissons Ratio (y) = 0.49768 -0.53088
# Poissons Ratio (z) = 0.48348 -0.24077
#
# Static dielectric constant tensor:
#      x y z
#    x 1.849710 0.000000 0.000000 
#    y 0.000000 1.818010 0.000000 
#    z 0.000000 0.000000 1.787390 
# 
# From -- ./inp_files/61962.got.cif
#   From: 2010.05.17/outbox.cif.g08.bks.cpg/sg74_31_cif.got.tgz:61962.got - 2010.06.03 17:57:02.
