data_PCOD9536008
_publ_section_title
;
Structure prediction by ZEFSAII (Michael W. Deem and Ramdas Pophale) SiO2 
 PCOD9536008
Probable space group: I M M A
;
_chemical_formula_sum "Si O2"
_cell_formula_units_Z 112
_cell_length_a 24.233942
_cell_length_b 15.325714
_cell_length_c 14.052849
_cell_angle_alpha 90.000000
_cell_angle_beta 90.000000
_cell_angle_gamma 90.000000
_cell_volume 5219.262747
_symmetry_space_group_name_H-M "I M M A"
_symmetry_group_IT_number 74
_symmetry_cell_setting 'orthorhombic'
loop_
_space_group_symop_operation_xyz
x,y,z
-x,1/2-y,z
x,-y,-z
-x,1/2+y,-z
-x,-y,-z
x,1/2+y,-z
-x,y,z
x,1/2-y,z
1/2+x,1/2+y,1/2+z
1/2-x,-y,1/2+z
1/2+x,1/2-y,1/2-z
1/2-x,y,1/2-z
1/2-x,1/2-y,1/2-z
1/2+x,y,1/2-z
1/2-x,1/2+y,1/2+z
1/2+x,-y,1/2+z
loop_
_atom_site_type_symbol
_atom_site_label
_atom_site_fract_x
_atom_site_fract_y
_atom_site_fract_z
Si Si1 0.628028 0.347153 0.632628
Si Si2 0.163026 0.606119 0.334722
Si Si3 0.436675 0.476703 0.138215
Si Si4 0.642670 0.154079 0.043266
Si Si5 0.658498 0.351746 0.425961
Si Si6 0.063178 0.969094 0.857067
Si Si7 0.239393 0.458853 0.393922
O O1 0.601179 0.250000 0.623833
O O2 0.659596 0.348510 0.733221
O O3 0.667369 0.355142 0.540430
O O4 0.589380 0.433445 0.633548
O O5 0.104133 0.558001 0.350246
O O6 0.165025 0.655725 0.434935
O O7 0.211719 0.535247 0.333517
O O8 0.500000 0.497204 0.114703
O O9 0.435975 0.440612 0.246149
O O10 0.407600 0.411724 0.064156
O O11 0.625872 0.250000 0.072327
O O12 0.693568 0.116909 0.103414
O O13 0.660284 0.250000 0.397469
O O14 0.600000 0.398438 0.411030
O O15 0.702684 0.413394 0.373266
O O16 0.000000 0.971291 0.888577
O O17 0.242274 0.500000 0.500000
#
# Coordination Sequence:
#
# PCOD9536008 Si02
#       7
#    16  16  16  16  16  16  16
#     4  10  21  38  62  93 124 156 199 247 302 368
#     4   9  19  36  58  85 117 155 194 241 299 357
#     4   9  19  36  56  78 108 150 197 242 295 358
#     4  10  19  32  53  82 115 150 191 240 293 352
#     4  11  23  39  62  89 119 158 201 248 302 359
#     4  10  22  41  63  86 117 157 201 253 308 362
#     4   9  18  36  58  80 112 153 192 236 288 348
#
# _framework density 21.458969
#
# number of rings (size 3 to 8) (size 9 to 14) (size 15 to 20)
#    0.000    2.286    0.000    3.429    0.000    3.714 
#    0.000   20.714    0.000   24.000    0.000    0.000 
#    0.000    0.000    0.000    0.000    0.000    0.000 
#
# Total GULP energy -312353.720795 kJ/mol
# GULP energy per Si atom -5577.745014 kJ/mol
# Density = 2.141013 g / cm^3
# Si number density = 21.458969 Si / 1000 Ang^3
#
#
#
# Elastic Constant Matrix: (Units=GPa)
#
#
# Indices 1 2 3 4 5 6 
#
# 1 94.9501 40.7274 12.1305 0.0000 0.0000 0.0000
# 2 40.7274 111.7016 16.3496 0.0000 0.0000 0.0000
# 3 12.1305 16.3496 78.9916 0.0000 0.0000 0.0000
# 4 0.0000 0.0000 0.0000 20.1162 0.0000 0.0000
# 5 0.0000 0.0000 0.0000 0.0000 19.8523 0.0000
# 6 0.0000 0.0000 0.0000 0.0000 0.0000 4.1919
#
#
#
# Elastic Compliance Matrix: (Units=1/GPa)
#
#
# Indices 1 2 3 4 5 6 
#
# 1 0.012562 -0.004432 -0.001012 0.000000 0.000000 0.000000
# 2 -0.004432 0.010796 -0.001554 0.000000 0.000000 0.000000
# 3 -0.001012 -0.001554 0.013137 0.000000 0.000000 0.000000
# 4 0.000000 0.000000 0.000000 0.049711 0.000000 0.000000
# 5 0.000000 0.000000 0.000000 0.000000 0.050372 0.000000
# 6 0.000000 0.000000 0.000000 0.000000 0.000000 0.238554
#
#
# Mechanical properties :
#
#
# Convention : Reuss Voigt Hill
#
# Bulk Modulus (GPa) = 44.44648 47.11759 45.78203
# Shear Modulus (GPa) = 12.60628 23.26113 17.93370
#
# Velocity S-wave (km/s) = 2.42639 3.29596 2.89402
# Velocity P-wave (km/s) = 5.34856 6.04063 5.70510
#
# Compressibility (1/GPa) = 0.02249897
#
# Stress axis : x y z
#
# Youngs Moduli (GPa) = 79.60361 92.62790 76.12338
#
# Poissons Ratio (x) = 0.41055 0.07702
# Poissons Ratio (y) = 0.35282 0.11829
# Poissons Ratio (z) = 0.08054 0.14393
#
# Static dielectric constant tensor:
#      x y z
#    x 1.761340 0.000000 0.000000 
#    y 0.000000 1.777220 0.000000 
#    z 0.000000 0.000000 1.871200 
# 
# From -- ./inp_files/36498.got.cif
#   From: 2010.05.17/outbox.cif.g08.bks.cpg/sg74_19_cif.got.tgz:36498.got - 2010.06.03 17:57:02.
