data_PCOD9536018
_publ_section_title
;
Structure prediction by ZEFSAII (Michael W. Deem and Ramdas Pophale) SiO2 
 PCOD9536018
Probable space group: I M M A
;
_chemical_formula_sum "Si O2"
_cell_formula_units_Z 96
_cell_length_a 28.689265
_cell_length_b 14.329319
_cell_length_c 13.999130
_cell_angle_alpha 90.000000
_cell_angle_beta 90.000000
_cell_angle_gamma 90.000000
_cell_volume 5755.009166
_symmetry_space_group_name_H-M "I M M A"
_symmetry_group_IT_number 74
_symmetry_cell_setting 'orthorhombic'
loop_
_space_group_symop_operation_xyz
x,y,z
-x,1/2-y,z
x,-y,-z
-x,1/2+y,-z
-x,-y,-z
x,1/2+y,-z
-x,y,z
x,1/2-y,z
1/2+x,1/2+y,1/2+z
1/2-x,-y,1/2+z
1/2+x,1/2-y,1/2-z
1/2-x,y,1/2-z
1/2-x,1/2-y,1/2-z
1/2+x,y,1/2-z
1/2-x,1/2+y,1/2+z
1/2+x,-y,1/2+z
loop_
_atom_site_type_symbol
_atom_site_label
_atom_site_fract_x
_atom_site_fract_y
_atom_site_fract_z
Si Si1 0.267695 0.568930 0.854568
Si Si2 0.181902 0.950247 0.100403
Si Si3 0.554208 0.447226 0.898507
Si Si4 0.282799 0.750000 0.966553
Si Si5 0.776627 0.250000 0.853461
Si Si6 0.444151 0.750000 0.018947
Si Si7 0.366247 0.955304 0.780246
Si Si8 0.622548 0.250000 0.154677
O O1 0.250000 0.599928 0.750000
O O2 0.234273 0.486900 0.883857
O O3 0.261466 0.656337 0.922642
O O4 0.320739 0.535379 0.848194
O O5 0.190266 0.840052 0.121440
O O6 0.149335 0.997285 0.181552
O O7 0.167576 0.000000 0.000000
O O8 0.500000 0.448567 0.867194
O O9 0.569220 0.342065 0.922844
O O10 0.588973 0.495912 0.825468
O O11 0.556448 0.500000 0.000000
O O12 0.335171 0.750000 0.923473
O O13 0.268002 0.750000 0.075454
O O14 0.750000 0.250000 0.750000
O O15 0.500000 0.750000 0.009479
O O16 0.422332 0.750000 0.913505
O O17 0.374102 0.843338 0.781978
#
# Coordination Sequence:
#
# PCOD9536018 Si02
#       8
#    16  16  16   8   8   8  16   8
#     4   9  18  34  54  78 105 144 188 234 275 325
#     4  11  23  39  56  75 109 154 193 236 284 329
#     4  10  20  35  56  82 116 148 175 222 286 346
#     4  10  19  32  54  76 111 145 186 228 278 326
#     4  12  24  38  52  80 111 152 192 237 282 342
#     4  10  20  34  54  83 116 150 181 213 278 352
#     4  10  21  35  54  84 111 143 191 231 277 337
#     4  10  20  32  54  85 107 141 183 238 275 326
#
# _framework density 16.68112
#
# number of rings (size 3 to 8) (size 9 to 14) (size 15 to 20)
#    0.000    1.833    3.333    1.750    0.000    6.667 
#    0.000    0.000    0.000    0.500    0.000    0.000 
#    0.000    0.000    0.000    0.000    0.000    0.000 
#
# Total GULP energy -267330.921484 kJ/mol
# GULP energy per Si atom -5569.394198 kJ/mol
# Density = 1.664315 g / cm^3
# Si number density = 16.681120 Si / 1000 Ang^3
#
#
#
# Elastic Constant Matrix: (Units=GPa)
#
#
# Indices 1 2 3 4 5 6 
#
# 1 57.1381 48.6953 30.3605 0.0000 0.0000 0.0000
# 2 48.6953 155.9916 64.8188 0.0000 0.0000 0.0000
# 3 30.3605 64.8188 102.3765 0.0000 0.0000 0.0000
# 4 0.0000 0.0000 0.0000 18.5906 0.0000 0.0000
# 5 0.0000 0.0000 0.0000 0.0000 7.1942 0.0000
# 6 0.0000 0.0000 0.0000 0.0000 0.0000 -2.2172
#
#
#
# Elastic Compliance Matrix: (Units=1/GPa)
#
#
# Indices 1 2 3 4 5 6 
#
# 1 0.024644 -0.006319 -0.003308 0.000000 0.000000 0.000000
# 2 -0.006319 0.010319 -0.004660 0.000000 0.000000 0.000000
# 3 -0.003308 -0.004660 0.013699 0.000000 0.000000 0.000000
# 4 0.000000 0.000000 0.000000 0.053791 0.000000 0.000000
# 5 0.000000 0.000000 0.000000 0.000000 0.139000 0.000000
# 6 0.000000 0.000000 0.000000 0.000000 0.000000 -0.451027
#
#
# Mechanical properties :
#
#
# Convention : Reuss Voigt Hill
#
# Bulk Modulus (GPa) = 49.77564 67.02839 58.40202
# Shear Modulus (GPa) = -28.68537 16.15564 -6.26487
#
# Velocity S-wave (km/s) = -4.15134 3.11545 -1.94006
# Velocity P-wave (km/s) = 2.63175 7.29457 5.48347
#
# Compressibility (1/GPa) = 0.02009015
#
# Stress axis : x y z
#
# Youngs Moduli (GPa) = 40.57783 96.90591 72.99734
#
# Poissons Ratio (x) = 0.61230 0.24146
# Poissons Ratio (y) = 0.25639 0.34015
# Poissons Ratio (z) = 0.13423 0.45156
#
# Static dielectric constant tensor:
#      x y z
#    x 1.556620 0.000000 0.000000 
#    y 0.000000 1.614980 0.000000 
#    z 0.000000 0.000000 1.587410 
# 
# From -- ./inp_files/37350.got.cif
#   From: 2010.05.17/outbox.cif.g08.bks.cpg/sg74_19_cif.got.tgz:37350.got - 2010.06.03 17:57:02.
