data_PCOD9536771
_publ_section_title
;
Structure prediction by ZEFSAII (Michael W. Deem and Ramdas Pophale) SiO2 
 PCOD9536771
Probable space group: I M M A
;
_chemical_formula_sum "Si O2"
_cell_formula_units_Z 112
_cell_length_a 18.834613
_cell_length_b 18.216495
_cell_length_c 18.088186
_cell_angle_alpha 90.000000
_cell_angle_beta 90.000000
_cell_angle_gamma 90.000000
_cell_volume 6206.068076
_symmetry_space_group_name_H-M "I M M A"
_symmetry_group_IT_number 74
_symmetry_cell_setting 'orthorhombic'
loop_
_space_group_symop_operation_xyz
x,y,z
-x,1/2-y,z
x,-y,-z
-x,1/2+y,-z
-x,-y,-z
x,1/2+y,-z
-x,y,z
x,1/2-y,z
1/2+x,1/2+y,1/2+z
1/2-x,-y,1/2+z
1/2+x,1/2-y,1/2-z
1/2-x,y,1/2-z
1/2-x,1/2-y,1/2-z
1/2+x,y,1/2-z
1/2-x,1/2+y,1/2+z
1/2+x,-y,1/2+z
loop_
_atom_site_type_symbol
_atom_site_label
_atom_site_fract_x
_atom_site_fract_y
_atom_site_fract_z
Si Si1 0.914581 0.664088 0.339031
Si Si2 0.918822 0.099641 0.235955
Si Si3 0.291544 0.421059 0.174423
Si Si4 0.916630 0.072264 0.806463
Si Si5 0.328567 0.551289 0.067526
Si Si6 0.334228 0.422070 0.539677
Si Si7 0.336888 0.335943 0.399408
O O1 0.894534 0.750000 0.341515
O O2 0.895452 0.626700 0.260125
O O3 0.878805 0.615546 0.403222
O O4 0.000000 0.659111 0.345281
O O5 0.862496 0.120465 0.299361
O O6 0.894692 0.138278 0.160480
O O7 0.000000 0.115447 0.254646
O O8 0.911221 0.011919 0.221738
O O9 0.250000 0.438136 0.250000
O O10 0.314161 0.494284 0.133384
O O11 0.236184 0.376777 0.124104
O O12 0.870579 0.081052 0.880469
O O13 0.000000 0.085231 0.823451
O O14 0.250937 0.582068 0.047139
O O15 0.355270 0.500000 0.000000
O O16 0.350117 0.500000 0.500000
O O17 0.357935 0.361039 0.481304
O O18 0.326451 0.250000 0.394605
#
# Coordination Sequence:
#
# PCOD9536771 Si02
#       7
#    16  16  16  16  16  16  16
#     4  10  23  42  62  89 124 155 190 246 305 349
#     4  10  20  35  60  87 111 150 201 245 280 344
#     4  10  19  36  61  84 113 154 194 238 283 349
#     4  10  20  36  62  88 117 158 201 236 289 355
#     4  11  21  36  61  90 116 153 196 242 285 345
#     4  11  20  36  58  87 120 153 197 247 286 346
#     4  11  23  38  56  83 119 157 190 239 306 349
#
# _framework density 18.046852999999999
#
# number of rings (size 3 to 8) (size 9 to 14) (size 15 to 20)
#    0.000    1.571    5.714    0.857    0.000    5.143 
#    0.000    0.714    0.000    0.000    0.000    0.000 
#    0.000    0.000    0.000    0.000    0.000    0.000 
#
# Total GULP energy -312494.861324 kJ/mol
# GULP energy per Si atom -5580.265381 kJ/mol
# Density = 1.800578 g / cm^3
# Si number density = 18.046853 Si / 1000 Ang^3
#
#
#
# Elastic Constant Matrix: (Units=GPa)
#
#
# Indices 1 2 3 4 5 6 
#
# 1 65.7287 18.1200 33.1931 0.0000 0.0000 0.0000
# 2 18.1200 97.3902 41.2828 0.0000 0.0000 0.0000
# 3 33.1931 41.2828 89.2232 0.0000 0.0000 0.0000
# 4 0.0000 0.0000 0.0000 24.9902 0.0000 0.0000
# 5 0.0000 0.0000 0.0000 0.0000 9.1540 0.0000
# 6 0.0000 0.0000 0.0000 0.0000 0.0000 19.6320
#
#
#
# Elastic Compliance Matrix: (Units=1/GPa)
#
#
# Indices 1 2 3 4 5 6 
#
# 1 0.018768 -0.000662 -0.006676 0.000000 0.000000 0.000000
# 2 -0.000662 0.012797 -0.005675 0.000000 0.000000 0.000000
# 3 -0.006676 -0.005675 0.016317 0.000000 0.000000 0.000000
# 4 0.000000 0.000000 0.000000 0.040016 0.000000 0.000000
# 5 0.000000 0.000000 0.000000 0.000000 0.109241 0.000000
# 6 0.000000 0.000000 0.000000 0.000000 0.000000 0.050937
#
#
# Mechanical properties :
#
#
# Convention : Reuss Voigt Hill
#
# Bulk Modulus (GPa) = 45.75276 48.61488 47.18382
# Shear Modulus (GPa) = 17.76919 21.40499 19.58709
#
# Velocity S-wave (km/s) = 3.14126 3.44769 3.29803
# Velocity P-wave (km/s) = 6.20999 6.54564 6.38002
#
# Compressibility (1/GPa) = 0.02185661
#
# Stress axis : x y z
#
# Youngs Moduli (GPa) = 53.28268 78.14607 61.28601
#
# Poissons Ratio (x) = 0.05174 0.40913
# Poissons Ratio (y) = 0.03528 0.34777
# Poissons Ratio (z) = 0.35570 0.44344
#
# Static dielectric constant tensor:
#      x y z
#    x 1.640840 0.000000 0.000000 
#    y 0.000000 1.605900 0.000000 
#    z 0.000000 0.000000 1.627790 
# 
# From -- ./inp_files/45438.got.cif
#   From: 2010.05.17/outbox.cif.g08.bks.cpg/sg74_23_cif.got.tgz:45438.got - 2010.06.03 17:57:02.
