data_PCOD9536641
_publ_section_title
;
Structure prediction by ZEFSAII (Michael W. Deem and Ramdas Pophale) SiO2 
 PCOD9536641
Probable space group: I M M A
;
_chemical_formula_sum "Si O2"
_cell_formula_units_Z 100
_cell_length_a 19.171794
_cell_length_b 8.847312
_cell_length_c 33.775616
_cell_angle_alpha 90.000000
_cell_angle_beta 90.000000
_cell_angle_gamma 90.000000
_cell_volume 5728.980912
_symmetry_space_group_name_H-M "I M M A"
_symmetry_group_IT_number 74
_symmetry_cell_setting 'orthorhombic'
loop_
_space_group_symop_operation_xyz
x,y,z
-x,1/2-y,z
x,-y,-z
-x,1/2+y,-z
-x,-y,-z
x,1/2+y,-z
-x,y,z
x,1/2-y,z
1/2+x,1/2+y,1/2+z
1/2-x,-y,1/2+z
1/2+x,1/2-y,1/2-z
1/2-x,y,1/2-z
1/2-x,1/2-y,1/2-z
1/2+x,y,1/2-z
1/2-x,1/2+y,1/2+z
1/2+x,-y,1/2+z
loop_
_atom_site_type_symbol
_atom_site_label
_atom_site_fract_x
_atom_site_fract_y
_atom_site_fract_z
Si Si1 0.620319 0.576495 0.179867
Si Si2 0.500000 0.073058 0.943343
Si Si3 0.000000 0.920277 0.637744
Si Si4 0.765706 0.426858 0.613652
Si Si5 0.500000 0.250000 0.360900
Si Si6 0.349527 0.930611 0.959423
Si Si7 0.675510 0.072356 0.734193
Si Si8 0.142509 0.915823 0.847546
O O1 0.596954 0.750000 0.171636
O O2 0.567397 0.453700 0.163645
O O3 0.691829 0.557624 0.155129
O O4 0.628326 0.562412 0.226779
O O5 0.500000 0.250000 0.953671
O O6 0.500000 0.044681 0.896485
O O7 0.428546 0.994252 0.956715
O O8 0.000000 0.750000 0.621417
O O9 0.765708 0.250000 0.603436
O O10 0.806928 0.514129 0.579083
O O11 0.688238 0.486577 0.622150
O O12 0.562950 0.379586 0.359186
O O13 0.350781 0.750000 0.961075
O O14 0.319136 0.000000 0.000000
O O15 0.684712 0.250000 0.723864
O O16 0.750000 0.014396 0.750000
O O17 0.647134 0.988199 0.695962
O O18 0.177708 0.750000 0.845790
#
# Coordination Sequence:
#
# PCOD9536641 Si02
#       8
#    16   8   8  16   4  16  16  16
#     4  10  21  36  55  77 112 157 205 257 304 354
#     4  12  23  39  59  81 123 178 217 256 295 342
#     4  12  24  36  52  79 116 159 212 261 301 345
#     4  11  21  38  64  90 116 153 201 251 300 360
#     4   8  24  42  56  84 126 148 196 242 318 382
#     4  12  25  41  61  91 127 164 207 251 297 350
#     4  10  19  35  57  83 112 151 203 254 304 359
#     4  10  21  39  60  83 121 154 192 250 308 369
#
# _framework density 17.455110999999999
#
# number of rings (size 3 to 8) (size 9 to 14) (size 15 to 20)
#    0.480    0.800    3.200    4.080    0.000    2.240 
#    1.440    2.400    0.000    0.000    0.000    0.560 
#    0.000    0.000    0.000    0.000    0.000    0.000 
#
# Total GULP energy -278396.943231 kJ/mol
# GULP energy per Si atom -5567.938865 kJ/mol
# Density = 1.741538 g / cm^3
# Si number density = 17.455111 Si / 1000 Ang^3
#
#
#
# Elastic Constant Matrix: (Units=GPa)
#
#
# Indices 1 2 3 4 5 6 
#
# 1 98.7408 37.6916 28.2567 0.0000 0.0000 0.0000
# 2 37.6916 109.8705 35.3406 0.0000 0.0000 0.0000
# 3 28.2567 35.3406 80.7686 0.0000 0.0000 0.0000
# 4 0.0000 0.0000 0.0000 25.5329 0.0000 0.0000
# 5 0.0000 0.0000 0.0000 0.0000 13.9539 0.0000
# 6 0.0000 0.0000 0.0000 0.0000 0.0000 41.8741
#
#
#
# Elastic Compliance Matrix: (Units=1/GPa)
#
#
# Indices 1 2 3 4 5 6 
#
# 1 0.012186 -0.003269 -0.002833 0.000000 0.000000 0.000000
# 2 -0.003269 0.011470 -0.003875 0.000000 0.000000 0.000000
# 3 -0.002833 -0.003875 0.015068 0.000000 0.000000 0.000000
# 4 0.000000 0.000000 0.000000 0.039165 0.000000 0.000000
# 5 0.000000 0.000000 0.000000 0.000000 0.071664 0.000000
# 6 0.000000 0.000000 0.000000 0.000000 0.000000 0.023881
#
#
# Mechanical properties :
#
#
# Convention : Reuss Voigt Hill
#
# Bulk Modulus (GPa) = 53.27812 54.66195 53.97003
# Shear Modulus (GPa) = 25.04456 28.81159 26.92807
#
# Velocity S-wave (km/s) = 3.79198 4.06718 3.93199
# Velocity P-wave (km/s) = 7.05417 7.31024 7.18335
#
# Compressibility (1/GPa) = 0.01876943
#
# Stress axis : x y z
#
# Youngs Moduli (GPa) = 82.06021 87.18754 66.36795
#
# Poissons Ratio (x) = 0.28505 0.18801
# Poissons Ratio (y) = 0.26828 0.25716
# Poissons Ratio (z) = 0.23246 0.33783
#
# Static dielectric constant tensor:
#      x y z
#    x 1.597010 0.000000 0.000000 
#    y 0.000000 1.605940 0.000000 
#    z 0.000000 0.000000 1.605590 
# 
# From -- ./inp_files/73453.got.cif
#   From: 2010.05.17/outbox.cif.g08.bks.cpg/sg74_37_cif.got.tgz:73453.got - 2010.06.03 17:57:02.
