data_PCOD9536342
_publ_section_title
;
Structure prediction by ZEFSAII (Michael W. Deem and Ramdas Pophale) SiO2 
 PCOD9536342
Probable space group: I M M A
;
_chemical_formula_sum "Si O2"
_cell_formula_units_Z 88
_cell_length_a 28.153220
_cell_length_b 14.979608
_cell_length_c 10.474718
_cell_angle_alpha 90.000000
_cell_angle_beta 90.000000
_cell_angle_gamma 90.000000
_cell_volume 4417.442064
_symmetry_space_group_name_H-M "I M M A"
_symmetry_group_IT_number 74
_symmetry_cell_setting 'orthorhombic'
loop_
_space_group_symop_operation_xyz
x,y,z
-x,1/2-y,z
x,-y,-z
-x,1/2+y,-z
-x,-y,-z
x,1/2+y,-z
-x,y,z
x,1/2-y,z
1/2+x,1/2+y,1/2+z
1/2-x,-y,1/2+z
1/2+x,1/2-y,1/2-z
1/2-x,y,1/2-z
1/2-x,1/2-y,1/2-z
1/2+x,y,1/2-z
1/2-x,1/2+y,1/2+z
1/2+x,-y,1/2+z
loop_
_atom_site_type_symbol
_atom_site_label
_atom_site_fract_x
_atom_site_fract_y
_atom_site_fract_z
Si Si1 0.945762 0.750000 0.056340
Si Si2 0.554141 0.931830 0.281647
Si Si3 0.054560 0.644457 0.501214
Si Si4 0.251768 0.250000 0.096004
Si Si5 0.721595 0.556685 0.883400
Si Si6 0.645738 0.750000 0.622298
Si Si7 0.623629 0.074032 0.219569
O O1 0.941270 0.839901 0.140394
O O2 0.000000 0.750000 0.002265
O O3 0.902425 0.750000 0.958716
O O4 0.500000 0.964716 0.301335
O O5 0.593288 0.007097 0.307742
O O6 0.560254 0.905958 0.132699
O O7 0.061799 0.750000 0.479933
O O8 0.088883 0.609697 0.610005
O O9 0.000000 0.631348 0.542691
O O10 0.250000 0.250000 0.250000
O O11 0.277939 0.158457 0.065260
O O12 0.196785 0.250000 0.051700
O O13 0.750000 0.551582 0.750000
O O14 0.668447 0.527623 0.847256
O O15 0.741984 0.500000 0.000000
O O16 0.643756 0.840275 0.705466
#
# Coordination Sequence:
#
# PCOD9536342 Si02
#       7
#     8  16  16   8  16   8  16
#     4  10  24  43  61  88 130 177 218 257 314 383
#     4  10  21  40  60  85 128 170 201 255 323 374
#     4  10  19  33  58  87 119 161 202 248 310 376
#     4  10  20  46  65  83 122 173 202 252 336 393
#     4  11  23  42  68  95 125 167 214 269 327 391
#     4  12  24  41  65  87 118 170 216 251 312 387
#     4  12  22  38  61  94 123 157 210 267 321 373
#
# _framework density 19.921030999999999
#
# number of rings (size 3 to 8) (size 9 to 14) (size 15 to 20)
#    0.000    1.273    5.455    2.182    0.000    5.091 
#    0.000    2.273    0.000    0.000    0.000    0.000 
#    0.000    0.000    0.000    0.000    0.000    0.000 
#
# Total GULP energy -245732.879418 kJ/mol
# GULP energy per Si atom -5584.838169 kJ/mol
# Density = 1.987569 g / cm^3
# Si number density = 19.921031 Si / 1000 Ang^3
#
#
#
# Elastic Constant Matrix: (Units=GPa)
#
#
# Indices 1 2 3 4 5 6 
#
# 1 91.1061 13.7351 9.2294 0.0000 0.0000 0.0000
# 2 13.7351 79.0518 6.5510 0.0000 0.0000 0.0000
# 3 9.2294 6.5510 34.0850 0.0000 0.0000 0.0000
# 4 0.0000 0.0000 0.0000 8.2592 0.0000 0.0000
# 5 0.0000 0.0000 0.0000 0.0000 21.4723 0.0000
# 6 0.0000 0.0000 0.0000 0.0000 0.0000 29.7354
#
#
#
# Elastic Compliance Matrix: (Units=1/GPa)
#
#
# Indices 1 2 3 4 5 6 
#
# 1 0.011525 -0.001772 -0.002780 0.000000 0.000000 0.000000
# 2 -0.001772 0.013127 -0.002043 0.000000 0.000000 0.000000
# 3 -0.002780 -0.002043 0.030484 0.000000 0.000000 0.000000
# 4 0.000000 0.000000 0.000000 0.121077 0.000000 0.000000
# 5 0.000000 0.000000 0.000000 0.000000 0.046572 0.000000
# 6 0.000000 0.000000 0.000000 0.000000 0.000000 0.033630
#
#
# Mechanical properties :
#
#
# Convention : Reuss Voigt Hill
#
# Bulk Modulus (GPa) = 23.84053 29.25267 26.54660
# Shear Modulus (GPa) = 17.63125 23.54188 20.58656
#
# Velocity S-wave (km/s) = 2.97822 3.44140 3.21815
# Velocity P-wave (km/s) = 4.88056 5.52333 5.21187
#
# Compressibility (1/GPa) = 0.04194538
#
# Stress axis : x y z
#
# Youngs Moduli (GPa) = 86.76790 76.17807 32.80422
#
# Poissons Ratio (x) = 0.13499 0.09120
# Poissons Ratio (y) = 0.15376 0.06702
# Poissons Ratio (z) = 0.24122 0.15564
#
# Static dielectric constant tensor:
#      x y z
#    x 1.715060 0.000000 0.000000 
#    y 0.000000 1.733650 0.000000 
#    z 0.000000 0.000000 1.689900 
# 
# From -- ./inp_files/21034.got.cif
#   From: 2010.05.17/outbox.cif.g08.bks.cpg/sg74_11_cif.got.tgz:21034.got - 2010.06.03 17:57:02.
