data_PCOD9536784
_publ_section_title
;
Structure prediction by ZEFSAII (Michael W. Deem and Ramdas Pophale) SiO2 
 PCOD9536784
Probable space group: I M M A
;
_chemical_formula_sum "Si O2"
_cell_formula_units_Z 72
_cell_length_a 8.434563
_cell_length_b 23.342863
_cell_length_c 19.547803
_cell_angle_alpha 90.000000
_cell_angle_beta 90.000000
_cell_angle_gamma 90.000000
_cell_volume 3848.705329
_symmetry_space_group_name_H-M "I M M A"
_symmetry_group_IT_number 74
_symmetry_cell_setting 'orthorhombic'
loop_
_space_group_symop_operation_xyz
x,y,z
-x,1/2-y,z
x,-y,-z
-x,1/2+y,-z
-x,-y,-z
x,1/2+y,-z
-x,y,z
x,1/2-y,z
1/2+x,1/2+y,1/2+z
1/2-x,-y,1/2+z
1/2+x,1/2-y,1/2-z
1/2-x,y,1/2-z
1/2-x,1/2-y,1/2-z
1/2+x,y,1/2-z
1/2-x,1/2+y,1/2+z
1/2+x,-y,1/2+z
loop_
_atom_site_type_symbol
_atom_site_label
_atom_site_fract_x
_atom_site_fract_y
_atom_site_fract_z
Si Si1 0.808213 0.645650 0.076448
Si Si2 0.689816 0.417538 0.327183
Si Si3 0.193361 0.184986 0.075783
Si Si4 0.310227 0.981941 0.076338
Si Si5 0.191579 0.250000 0.827343
O O1 0.744719 0.582517 0.090869
O O2 0.756614 0.693555 0.130869
O O3 0.000000 0.643873 0.076945
O O4 0.758516 0.665075 0.000203
O O5 0.500000 0.416566 0.326762
O O6 0.750000 0.418119 0.250000
O O7 0.746883 0.361311 0.368630
O O8 0.744997 0.473031 0.369127
O O9 0.246059 0.250000 0.088877
O O10 0.000000 0.185277 0.076169
O O11 0.500000 0.984329 0.077124
O O12 0.254710 0.000000 0.000000
O O13 0.250000 0.250000 0.750000
O O14 0.000000 0.250000 0.827574
#
# Coordination Sequence:
#
# PCOD9536784 Si02
#       5
#    16  16  16  16   8
#     4  10  19  36  62  88 113 152 202 241 285 347
#     4  11  23  39  61  87 120 157 195 242 296 351
#     4   9  17  33  60  89 114 148 197 242 285 347
#     4  11  23  38  59  88 121 154 196 247 294 345
#     4  10  22  38  60  88 121 154 190 241 292 349
#
# _framework density 18.707588999999999
#
# number of rings (size 3 to 8) (size 9 to 14) (size 15 to 20)
#    0.000    1.778    3.333    1.333    0.000    3.111 
#    0.000    2.222    0.000    4.667    0.000    0.000 
#    0.000    0.000    0.000    0.000    0.000    0.000 
#
# Total GULP energy -201105.504952 kJ/mol
# GULP energy per Si atom -5586.264026 kJ/mol
# Density = 1.866501 g / cm^3
# Si number density = 18.707589 Si / 1000 Ang^3
#
#
#
# Elastic Constant Matrix: (Units=GPa)
#
#
# Indices 1 2 3 4 5 6 
#
# 1 25.3453 32.9420 32.6296 0.0000 0.0000 0.0000
# 2 32.9420 225.4187 125.1246 0.0000 0.0000 0.0000
# 3 32.6296 125.1246 198.1994 0.0000 0.0000 0.0000
# 4 0.0000 0.0000 0.0000 34.0783 0.0000 0.0000
# 5 0.0000 0.0000 0.0000 0.0000 20.7707 0.0000
# 6 0.0000 0.0000 0.0000 0.0000 0.0000 0.8291
#
#
#
# Elastic Compliance Matrix: (Units=1/GPa)
#
#
# Indices 1 2 3 4 5 6 
#
# 1 0.052818 -0.004452 -0.005885 0.000000 0.000000 0.000000
# 2 -0.004452 0.007205 -0.003815 0.000000 0.000000 0.000000
# 3 -0.005885 -0.003815 0.008423 0.000000 0.000000 0.000000
# 4 0.000000 0.000000 0.000000 0.029344 0.000000 0.000000
# 5 0.000000 0.000000 0.000000 0.000000 0.048145 0.000000
# 6 0.000000 0.000000 0.000000 0.000000 0.000000 1.206102
#
#
# Mechanical properties :
#
#
# Convention : Reuss Voigt Hill
#
# Bulk Modulus (GPa) = 24.91238 92.26178 58.58708
# Shear Modulus (GPa) = 3.58752 28.35343 15.97048
#
# Velocity S-wave (km/s) = 1.38631 3.89731 2.92497
# Velocity P-wave (km/s) = 3.98850 8.34727 6.54160
#
# Compressibility (1/GPa) = 0.04014068
#
# Stress axis : x y z
#
# Youngs Moduli (GPa) = 18.93308 138.79948 118.72406
#
# Poissons Ratio (x) = 0.61796 0.69866
# Poissons Ratio (y) = 0.08429 0.45298
# Poissons Ratio (z) = 0.11142 0.52957
#
# Static dielectric constant tensor:
#      x y z
#    x 1.641660 0.000000 0.000000 
#    y 0.000000 1.625390 0.000000 
#    z 0.000000 0.000000 1.619740 
# 
# From -- ./inp_files/39478.got.cif
#   From: 2010.05.17/outbox.cif.g08.bks.cpg/sg74_20_cif.got.tgz:39478.got - 2010.06.03 17:57:02.
