data_PCOD9536375
_publ_section_title
;
Structure prediction by ZEFSAII (Michael W. Deem and Ramdas Pophale) SiO2 
 PCOD9536375
Probable space group: I M M A
;
_chemical_formula_sum "Si O2"
_cell_formula_units_Z 96
_cell_length_a 24.332591
_cell_length_b 14.554112
_cell_length_c 10.090155
_cell_angle_alpha 90.000000
_cell_angle_beta 90.000000
_cell_angle_gamma 90.000000
_cell_volume 3573.319971
_symmetry_space_group_name_H-M "I M M A"
_symmetry_group_IT_number 74
_symmetry_cell_setting 'orthorhombic'
loop_
_space_group_symop_operation_xyz
x,y,z
-x,1/2-y,z
x,-y,-z
-x,1/2+y,-z
-x,-y,-z
x,1/2+y,-z
-x,y,z
x,1/2-y,z
1/2+x,1/2+y,1/2+z
1/2-x,-y,1/2+z
1/2+x,1/2-y,1/2-z
1/2-x,y,1/2-z
1/2-x,1/2-y,1/2-z
1/2+x,y,1/2-z
1/2-x,1/2+y,1/2+z
1/2+x,-y,1/2+z
loop_
_atom_site_type_symbol
_atom_site_label
_atom_site_fract_x
_atom_site_fract_y
_atom_site_fract_z
Si Si1 0.559284 0.644726 0.055595
Si Si2 0.414059 0.902209 0.343502
Si Si3 0.060097 0.383781 0.139661
Si Si4 0.822837 0.645869 0.789146
Si Si5 0.818535 0.362552 0.499582
Si Si6 0.296490 0.637736 0.416627
O O1 0.500000 0.604386 0.012736
O O2 0.559810 0.750000 0.009477
O O3 0.560921 0.644004 0.215414
O O4 0.619396 0.604005 0.022793
O O5 0.430119 0.859268 0.485141
O O6 0.347668 0.899215 0.333013
O O7 0.435057 0.006232 0.349376
O O8 0.111225 0.349497 0.222730
O O9 0.000000 0.354502 0.181877
O O10 0.802855 0.750000 0.801469
O O11 0.802274 0.607939 0.650135
O O12 0.811434 0.604938 0.933102
O O13 0.820227 0.250000 0.501504
O O14 0.767804 0.386627 0.596299
O O15 0.300253 0.750000 0.406574
#
# Coordination Sequence:
#
# PCOD9536375 Si02
#       6
#    16  16  16  16  16  16
#     4  10  20  33  52  78 109 144 177 213 261 320
#     4  10  19  34  53  73 105 140 178 222 267 322
#     4  10  20  34  55  77 102 142 180 219 273 319
#     4   9  18  33  55  80 105 135 177 227 270 317
#     4   9  18  33  54  79 108 141 175 215 270 325
#     4   9  17  31  56  82 103 134 177 224 271 316
#
# _framework density 26.865773000000001
#
# number of rings (size 3 to 8) (size 9 to 14) (size 15 to 20)
#    0.000    2.500    0.000    3.000    0.000    4.333 
#    0.000    5.000   25.667    2.000    0.000    0.000 
#    0.000    0.000    0.000    0.000    0.000    0.000 
#
# Total GULP energy -268393.571276 kJ/mol
# GULP energy per Si atom -5591.532735 kJ/mol
# Density = 2.680462 g / cm^3
# Si number density = 26.865773 Si / 1000 Ang^3
#
#
#
# Elastic Constant Matrix: (Units=GPa)
#
#
# Indices 1 2 3 4 5 6 
#
# 1 234.4840 18.9365 13.9204 0.0000 0.0000 0.0000
# 2 18.9365 97.6149 -1.6442 0.0000 0.0000 0.0000
# 3 13.9204 -1.6442 63.5266 0.0000 0.0000 0.0000
# 4 0.0000 0.0000 0.0000 53.3256 0.0000 0.0000
# 5 0.0000 0.0000 0.0000 0.0000 24.3160 0.0000
# 6 0.0000 0.0000 0.0000 0.0000 0.0000 -382.4192
#
#
#
# Elastic Compliance Matrix: (Units=1/GPa)
#
#
# Indices 1 2 3 4 5 6 
#
# 1 0.004393 -0.000869 -0.000985 0.000000 0.000000 0.000000
# 2 -0.000869 0.010421 0.000460 0.000000 0.000000 0.000000
# 3 -0.000985 0.000460 0.015969 0.000000 0.000000 0.000000
# 4 0.000000 0.000000 0.000000 0.018753 0.000000 0.000000
# 5 0.000000 0.000000 0.000000 0.000000 0.041125 0.000000
# 6 0.000000 0.000000 0.000000 0.000000 0.000000 -0.002615
#
#
# Mechanical properties :
#
#
# Convention : Reuss Voigt Hill
#
# Bulk Modulus (GPa) = 35.72030 50.89455 43.30743
# Shear Modulus (GPa) = 49.91726 -36.66133 6.62796
#
# Velocity S-wave (km/s) = 4.31516 -3.69807 1.57239
# Velocity P-wave (km/s) = 6.17674 0.86650 4.41038
#
# Compressibility (1/GPa) = 0.02799529
#
# Stress axis : x y z
#
# Youngs Moduli (GPa) = 227.61728 95.96334 62.62047
#
# Poissons Ratio (x) = 0.08338 0.06169
# Poissons Ratio (y) = 0.19777 -0.02881
# Poissons Ratio (z) = 0.22425 -0.04415
#
# Static dielectric constant tensor:
#      x y z
#    x 2.125800 0.000000 0.000000 
#    y 0.000000 2.046870 0.000000 
#    z 0.000000 0.000000 2.062630 
# 
# From -- ./inp_files/22686.got.cif
#   From: 2010.05.17/outbox.cif.g08.bks.cpg/sg74_12_cif.got.tgz:22686.got - 2010.06.03 17:57:02.
