data_PCOD9536769
_publ_section_title
;
Structure prediction by ZEFSAII (Michael W. Deem and Ramdas Pophale) SiO2 
 PCOD9536769
Probable space group: I M M A
;
_chemical_formula_sum "Si O2"
_cell_formula_units_Z 64
_cell_length_a 34.715586
_cell_length_b 10.391368
_cell_length_c 10.215472
_cell_angle_alpha 90.000000
_cell_angle_beta 90.000000
_cell_angle_gamma 90.000000
_cell_volume 3685.154187
_symmetry_space_group_name_H-M "I M M A"
_symmetry_group_IT_number 74
_symmetry_cell_setting 'orthorhombic'
loop_
_space_group_symop_operation_xyz
x,y,z
-x,1/2-y,z
x,-y,-z
-x,1/2+y,-z
-x,-y,-z
x,1/2+y,-z
-x,y,z
x,1/2-y,z
1/2+x,1/2+y,1/2+z
1/2-x,-y,1/2+z
1/2+x,1/2-y,1/2-z
1/2-x,y,1/2-z
1/2-x,1/2-y,1/2-z
1/2+x,y,1/2-z
1/2-x,1/2+y,1/2+z
1/2+x,-y,1/2+z
loop_
_atom_site_type_symbol
_atom_site_label
_atom_site_fract_x
_atom_site_fract_y
_atom_site_fract_z
Si Si1 0.045257 0.750000 0.638383
Si Si2 0.386687 0.250000 0.336688
Si Si3 0.845598 0.750000 0.102022
Si Si4 0.256606 0.750000 0.409196
Si Si5 0.919666 0.000000 0.500000
Si Si6 0.355262 0.508428 0.209970
Si Si7 0.288900 0.000000 0.000000
O O1 0.070774 0.750000 0.771701
O O2 0.056817 0.621510 0.556432
O O3 0.000000 0.750000 0.664642
O O4 0.378272 0.250000 0.490728
O O5 0.366592 0.377302 0.280869
O O6 0.801536 0.750000 0.053042
O O7 0.849169 0.623435 0.190096
O O8 0.250000 0.750000 0.250000
O O9 0.236540 0.875762 0.469150
O O10 0.890566 0.045123 0.614148
O O11 0.317465 0.484332 0.123198
#
# Coordination Sequence:
#
# PCOD9536769 Si02
#       7
#     8   8   8   8   8  16   8
#     4  10  19  36  60  91 122 146 185 238 290 343
#     4  10  23  36  57  85 111 158 196 225 292 357
#     4  12  23  38  56  79 116 156 198 240 284 356
#     4  12  25  38  56  85 117 153 196 249 305 344
#     4   9  19  34  61  90 112 150 188 234 287 340
#     4  10  20  38  59  81 113 152 197 241 287 345
#     4  11  22  40  59  82 117 148 199 258 301 336
#
# _framework density 17.366980000000002
#
# number of rings (size 3 to 8) (size 9 to 14) (size 15 to 20)
#    0.000    1.500    2.500    2.625    3.500    4.000 
#    0.000    1.875    0.000   15.000    0.000    0.000 
#    0.000    0.000    0.000    0.000    0.000    0.000 
#
# Total GULP energy -178645.052116 kJ/mol
# GULP energy per Si atom -5582.657879 kJ/mol
# Density = 1.732745 g / cm^3
# Si number density = 17.366980 Si / 1000 Ang^3
#
#
#
# Elastic Constant Matrix: (Units=GPa)
#
#
# Indices 1 2 3 4 5 6 
#
# 1 129.5231 83.1220 55.8010 0.0000 0.0000 0.0000
# 2 83.1220 141.0715 62.9562 0.0000 0.0000 0.0000
# 3 55.8010 62.9562 107.2415 0.0000 0.0000 0.0000
# 4 0.0000 0.0000 0.0000 44.5299 0.0000 0.0000
# 5 0.0000 0.0000 0.0000 0.0000 16.8115 0.0000
# 6 0.0000 0.0000 0.0000 0.0000 0.0000 26.6000
#
#
#
# Elastic Compliance Matrix: (Units=1/GPa)
#
#
# Indices 1 2 3 4 5 6 
#
# 1 0.013136 -0.006355 -0.003105 0.000000 0.000000 0.000000
# 2 -0.006355 0.012679 -0.004137 0.000000 0.000000 0.000000
# 3 -0.003105 -0.004137 0.013369 0.000000 0.000000 0.000000
# 4 0.000000 0.000000 0.000000 0.022457 0.000000 0.000000
# 5 0.000000 0.000000 0.000000 0.000000 0.059483 0.000000
# 6 0.000000 0.000000 0.000000 0.000000 0.000000 0.037594
#
#
# Mechanical properties :
#
#
# Convention : Reuss Voigt Hill
#
# Bulk Modulus (GPa) = 83.38987 86.84383 85.11685
# Shear Modulus (GPa) = 26.32866 29.31875 27.82371
#
# Velocity S-wave (km/s) = 3.89783 4.11322 4.00697
# Velocity P-wave (km/s) = 8.26910 8.52477 8.39791
#
# Compressibility (1/GPa) = 0.01199186
#
# Stress axis : x y z
#
# Youngs Moduli (GPa) = 76.12495 78.87094 74.80172
#
# Poissons Ratio (x) = 0.50119 0.23224
# Poissons Ratio (y) = 0.48374 0.30943
# Poissons Ratio (z) = 0.23635 0.32626
#
# Static dielectric constant tensor:
#      x y z
#    x 1.572740 0.000000 0.000000 
#    y 0.000000 1.527000 0.000000 
#    z 0.000000 0.000000 1.603190 
# 
# From -- ./inp_files/7412.got.cif
#   From: 2010.05.17/outbox.cif.g08.bks.cpg/sg74_4_cif.got.tgz:7412.got - 2010.06.03 17:57:02.
