data_PCOD9536338
_publ_section_title
;
Structure prediction by ZEFSAII (Michael W. Deem and Ramdas Pophale) SiO2 
 PCOD9536338
Probable space group: I M M A
;
_chemical_formula_sum "Si O2"
_cell_formula_units_Z 100
_cell_length_a 20.804790
_cell_length_b 23.879146
_cell_length_c 9.657646
_cell_angle_alpha 90.000000
_cell_angle_beta 90.000000
_cell_angle_gamma 90.000000
_cell_volume 4797.924500
_symmetry_space_group_name_H-M "I M M A"
_symmetry_group_IT_number 74
_symmetry_cell_setting 'orthorhombic'
loop_
_space_group_symop_operation_xyz
x,y,z
-x,1/2-y,z
x,-y,-z
-x,1/2+y,-z
-x,-y,-z
x,1/2+y,-z
-x,y,z
x,1/2-y,z
1/2+x,1/2+y,1/2+z
1/2-x,-y,1/2+z
1/2+x,1/2-y,1/2-z
1/2-x,y,1/2-z
1/2-x,1/2-y,1/2-z
1/2+x,y,1/2-z
1/2-x,1/2+y,1/2+z
1/2+x,-y,1/2+z
loop_
_atom_site_type_symbol
_atom_site_label
_atom_site_fract_x
_atom_site_fract_y
_atom_site_fract_z
Si Si1 0.426507 0.524737 0.649704
Si Si2 0.706329 0.317057 0.464623
Si Si3 0.000000 0.750000 0.848784
Si Si4 0.688042 0.016010 0.837776
Si Si5 0.357124 0.184866 0.016965
Si Si6 0.821641 0.354622 0.751740
Si Si7 0.597573 0.349921 0.286404
O O1 0.406722 0.500000 0.500000
O O2 0.500000 0.506088 0.675935
O O3 0.376475 0.506957 0.767605
O O4 0.424099 0.591736 0.651014
O O5 0.701641 0.250000 0.482057
O O6 0.781793 0.331384 0.466974
O O7 0.666217 0.348622 0.586013
O O8 0.670963 0.336038 0.326635
O O9 0.944688 0.700871 0.840658
O O10 0.750000 0.995175 0.750000
O O11 0.684768 0.082815 0.807856
O O12 0.693495 0.000000 0.000000
O O13 0.364314 0.250000 0.054139
O O14 0.402064 0.150085 0.119019
O O15 0.368390 0.176561 0.853511
O O16 0.750000 0.327351 0.750000
#
# Coordination Sequence:
#
# PCOD9536338 Si02
#       7
#    16  16   4  16  16  16  16
#     4  11  25  43  64  90 123 168 214 260 310 367
#     4  10  19  33  58  90 120 152 193 243 301 359
#     4  12  24  40  56  86 114 160 194 246 302 356
#     4  11  23  41  64  92 124 162 210 258 313 372
#     4  10  19  33  57  90 120 151 192 240 301 361
#     4   9  19  35  56  86 122 155 187 240 303 361
#     4  12  22  39  61  84 120 155 199 250 296 361
#
# _framework density 20.842345000000002
#
# number of rings (size 3 to 8) (size 9 to 14) (size 15 to 20)
#    0.000    1.440    2.400    3.360    0.000    7.360 
#    0.000    0.000    0.000    0.960    0.000    0.000 
#    0.000    0.000    0.000    0.000    0.000    0.000 
#
# Total GULP energy -278447.263922 kJ/mol
# GULP energy per Si atom -5568.945278 kJ/mol
# Density = 2.079491 g / cm^3
# Si number density = 20.842345 Si / 1000 Ang^3
#
#
#
# Elastic Constant Matrix: (Units=GPa)
#
#
# Indices 1 2 3 4 5 6 
#
# 1 56.6671 13.3729 25.2388 0.0000 0.0000 0.0000
# 2 13.3729 93.8421 39.4766 0.0000 0.0000 0.0000
# 3 25.2388 39.4766 135.3022 0.0000 0.0000 0.0000
# 4 0.0000 0.0000 0.0000 24.0342 0.0000 0.0000
# 5 0.0000 0.0000 0.0000 0.0000 3.7610 0.0000
# 6 0.0000 0.0000 0.0000 0.0000 0.0000 38.4366
#
#
#
# Elastic Compliance Matrix: (Units=1/GPa)
#
#
# Indices 1 2 3 4 5 6 
#
# 1 0.019410 -0.001417 -0.003207 0.000000 0.000000 0.000000
# 2 -0.001417 0.012251 -0.003310 0.000000 0.000000 0.000000
# 3 -0.003207 -0.003310 0.008955 0.000000 0.000000 0.000000
# 4 0.000000 0.000000 0.000000 0.041607 0.000000 0.000000
# 5 0.000000 0.000000 0.000000 0.000000 0.265884 0.000000
# 6 0.000000 0.000000 0.000000 0.000000 0.000000 0.026017
#
#
# Mechanical properties :
#
#
# Convention : Reuss Voigt Hill
#
# Bulk Modulus (GPa) = 40.40882 49.10976 44.75929
# Shear Modulus (GPa) = 12.55522 27.09457 19.82489
#
# Velocity S-wave (km/s) = 2.45703 3.60943 3.08747
# Velocity P-wave (km/s) = 5.24206 6.40190 5.85079
#
# Compressibility (1/GPa) = 0.02474707
#
# Stress axis : x y z
#
# Youngs Moduli (GPa) = 51.52056 81.62917 111.67095
#
# Poissons Ratio (x) = 0.11565 0.35816
# Poissons Ratio (y) = 0.07299 0.36963
# Poissons Ratio (z) = 0.16524 0.27019
#
# Static dielectric constant tensor:
#      x y z
#    x 1.760820 0.000000 0.000000 
#    y 0.000000 1.753830 0.000000 
#    z 0.000000 0.000000 1.825180 
# 
# From -- ./inp_files/12764.got.cif
#   From: 2010.05.17/outbox.cif.g08.bks.cpg/sg74_7_cif.got.tgz:12764.got - 2010.06.03 17:57:02.
