data_PCOD9536055
_publ_section_title
;
Structure prediction by ZEFSAII (Michael W. Deem and Ramdas Pophale) SiO2 
 PCOD9536055
Probable space group: I M M A
;
_chemical_formula_sum "Si O2"
_cell_formula_units_Z 88
_cell_length_a 28.859152
_cell_length_b 8.576146
_cell_length_c 19.565986
_cell_angle_alpha 90.000000
_cell_angle_beta 90.000000
_cell_angle_gamma 90.000000
_cell_volume 4842.587424
_symmetry_space_group_name_H-M "I M M A"
_symmetry_group_IT_number 74
_symmetry_cell_setting 'orthorhombic'
loop_
_space_group_symop_operation_xyz
x,y,z
-x,1/2-y,z
x,-y,-z
-x,1/2+y,-z
-x,-y,-z
x,1/2+y,-z
-x,y,z
x,1/2-y,z
1/2+x,1/2+y,1/2+z
1/2-x,-y,1/2+z
1/2+x,1/2-y,1/2-z
1/2-x,y,1/2-z
1/2-x,1/2-y,1/2-z
1/2+x,y,1/2-z
1/2-x,1/2+y,1/2+z
1/2+x,-y,1/2+z
loop_
_atom_site_type_symbol
_atom_site_label
_atom_site_fract_x
_atom_site_fract_y
_atom_site_fract_z
Si Si1 0.553465 0.559729 0.192456
Si Si2 0.500000 0.561995 0.423697
Si Si3 0.279617 0.936801 0.922466
Si Si4 0.323044 0.436691 0.422435
Si Si5 0.409417 0.061476 0.660998
Si Si6 0.376091 0.063308 0.922933
O O1 0.500000 0.507693 0.192986
O O2 0.552544 0.750000 0.192889
O O3 0.579994 0.511695 0.261458
O O4 0.582208 0.511094 0.125940
O O5 0.500000 0.750000 0.424596
O O6 0.500000 0.500000 0.500000
O O7 0.546164 0.512205 0.383897
O O8 0.283500 0.750000 0.922791
O O9 0.228585 0.980392 0.895710
O O10 0.326675 0.007270 0.892540
O O11 0.279131 0.000000 0.000000
O O12 0.328854 0.500000 0.500000
O O13 0.324997 0.250000 0.426346
O O14 0.363146 0.497703 0.373414
O O15 0.407371 0.250000 0.659981
O O16 0.375536 0.250000 0.926147
O O17 0.380934 0.000000 0.000000
#
# Coordination Sequence:
#
# PCOD9536055 Si02
#       6
#    16   8  16  16  16  16
#     4   9  18  35  56  76 102 138 176 212 258 310
#     4  10  20  32  50  74  99 130 170 212 253 296
#     4   9  17  31  51  74 104 137 168 209 258 307
#     4  10  20  33  51  77 106 138 175 214 258 305
#     4  10  19  34  54  74 100 137 176 215 257 303
#     4  10  19  32  55  82 105 132 169 214 258 310
#
# _framework density 18.172103
#
# number of rings (size 3 to 8) (size 9 to 14) (size 15 to 20)
#    0.000    2.364    0.909    3.273    0.000    4.727 
#    0.000    2.727    0.000    9.273    0.000    0.000 
#    0.000    0.000    0.000    0.000    0.000    0.000 
#
# Total GULP energy -245333.435819 kJ/mol
# GULP energy per Si atom -5575.759905 kJ/mol
# Density = 1.813074 g / cm^3
# Si number density = 18.172103 Si / 1000 Ang^3
#
#
#
# Elastic Constant Matrix: (Units=GPa)
#
#
# Indices 1 2 3 4 5 6 
#
# 1 162.5497 31.1034 82.0526 0.0000 0.0000 0.0000
# 2 31.1034 29.8473 22.7322 0.0000 0.0000 0.0000
# 3 82.0526 22.7322 105.9191 0.0000 0.0000 0.0000
# 4 0.0000 0.0000 0.0000 18.6618 0.0000 0.0000
# 5 0.0000 0.0000 0.0000 0.0000 -23.6824 0.0000
# 6 0.0000 0.0000 0.0000 0.0000 0.0000 24.9935
#
#
#
# Elastic Compliance Matrix: (Units=1/GPa)
#
#
# Indices 1 2 3 4 5 6 
#
# 1 0.010906 -0.005894 -0.007184 0.000000 0.000000 0.000000
# 2 -0.005894 0.043235 -0.004713 0.000000 0.000000 0.000000
# 3 -0.007184 -0.004713 0.016018 0.000000 0.000000 0.000000
# 4 0.000000 0.000000 0.000000 0.053585 0.000000 0.000000
# 5 0.000000 0.000000 0.000000 0.000000 -0.042226 0.000000
# 6 0.000000 0.000000 0.000000 0.000000 0.000000 0.040010
#
#
# Mechanical properties :
#
#
# Convention : Reuss Voigt Hill
#
# Bulk Modulus (GPa) = 28.92047 63.34361 46.13204
# Shear Modulus (GPa) = 29.64956 14.82311 22.23633
#
# Velocity S-wave (km/s) = 4.04369 2.85916 3.50187
# Velocity P-wave (km/s) = 6.14420 6.77001 6.46468
#
# Compressibility (1/GPa) = 0.03457758
#
# Stress axis : x y z
#
# Youngs Moduli (GPa) = 91.69367 23.12915 62.43102
#
# Poissons Ratio (x) = 0.13632 0.44848
# Poissons Ratio (y) = 0.54042 0.29426
# Poissons Ratio (z) = 0.65869 0.10902
#
# Static dielectric constant tensor:
#      x y z
#    x 1.650680 0.000000 0.000000 
#    y 0.000000 1.627220 0.000000 
#    z 0.000000 0.000000 1.593760 
# 
# From -- ./inp_files/47018.got.cif
#   From: 2010.05.17/outbox.cif.g08.bks.cpg/sg74_24_cif.got.tgz:47018.got - 2010.06.03 17:57:02.
