data_PCOD9536264
_publ_section_title
;
Structure prediction by ZEFSAII (Michael W. Deem and Ramdas Pophale) SiO2 
 PCOD9536264
Probable space group: I M M A
;
_chemical_formula_sum "Si O2"
_cell_formula_units_Z 72
_cell_length_a 8.869269
_cell_length_b 26.013563
_cell_length_c 17.559104
_cell_angle_alpha 90.000000
_cell_angle_beta 90.000000
_cell_angle_gamma 90.000000
_cell_volume 4051.259089
_symmetry_space_group_name_H-M "I M M A"
_symmetry_group_IT_number 74
_symmetry_cell_setting 'orthorhombic'
loop_
_space_group_symop_operation_xyz
x,y,z
-x,1/2-y,z
x,-y,-z
-x,1/2+y,-z
-x,-y,-z
x,1/2+y,-z
-x,y,z
x,1/2-y,z
1/2+x,1/2+y,1/2+z
1/2-x,-y,1/2+z
1/2+x,1/2-y,1/2-z
1/2-x,y,1/2-z
1/2-x,1/2-y,1/2-z
1/2+x,y,1/2-z
1/2-x,1/2+y,1/2+z
1/2+x,-y,1/2+z
loop_
_atom_site_type_symbol
_atom_site_label
_atom_site_fract_x
_atom_site_fract_y
_atom_site_fract_z
Si Si1 0.818111 0.250000 0.164512
Si Si2 0.322749 0.589153 0.324697
Si Si3 0.180841 0.306404 0.891414
Si Si4 0.680240 0.164810 0.053279
Si Si5 0.175164 0.940282 0.479832
O O1 0.750000 0.250000 0.250000
O O2 0.760579 0.199397 0.117759
O O3 0.000000 0.250000 0.166878
O O4 0.500000 0.587169 0.315634
O O5 0.250000 0.565447 0.250000
O O6 0.272638 0.648334 0.335439
O O7 0.274782 0.566043 0.404998
O O8 0.210844 0.250000 0.860729
O O9 0.000000 0.311319 0.905669
O O10 0.265200 0.313418 0.971672
O O11 0.500000 0.170471 0.062556
O O12 0.715512 0.103321 0.043240
O O13 0.000000 0.928891 0.460427
O O14 0.184926 0.000000 0.500000
#
# Coordination Sequence:
#
# PCOD9536264 Si02
#       5
#     8  16  16  16  16
#     4  12  24  38  56  80 113 148 185 232 286 338
#     4  10  20  33  50  75 107 141 178 219 264 311
#     4   9  17  30  49  73 103 141 177 210 251 305
#     4  10  19  33  55  82 109 139 179 222 270 328
#     4   9  19  37  60  83 108 141 182 227 274 329
#
# _framework density 17.772252999999999
#
# number of rings (size 3 to 8) (size 9 to 14) (size 15 to 20)
#    0.000    2.222    1.111    2.333    0.000    2.667 
#    0.000    1.111    0.000    0.000    0.000    0.000 
#    0.000    0.000    0.000    0.000    0.000    0.000 
#
# Total GULP energy -200516.054240 kJ/mol
# GULP energy per Si atom -5569.890396 kJ/mol
# Density = 1.773180 g / cm^3
# Si number density = 17.772253 Si / 1000 Ang^3
#
#
#
# Elastic Constant Matrix: (Units=GPa)
#
#
# Indices 1 2 3 4 5 6 
#
# 1 41.5524 20.1668 35.3392 0.0001 0.0000 0.0000
# 2 20.1668 63.9708 11.8412 0.0001 0.0000 0.0000
# 3 35.3392 11.8412 94.0185 0.0003 0.0000 0.0000
# 4 0.0001 0.0001 0.0003 4.2122 0.0000 0.0000
# 5 0.0000 0.0000 0.0000 0.0000 28.4742 0.0000
# 6 0.0000 0.0000 0.0000 0.0000 0.0000 16.6783
#
#
#
# Elastic Compliance Matrix: (Units=1/GPa)
#
#
# Indices 1 2 3 4 5 6 
#
# 1 0.041125 -0.010345 -0.014155 0.000001 0.000000 0.000000
# 2 -0.010345 0.018607 0.001545 0.000000 0.000000 0.000000
# 3 -0.014155 0.001545 0.015762 -0.000001 0.000000 0.000000
# 4 0.000001 0.000000 -0.000001 0.237403 0.000000 0.000000
# 5 0.000000 0.000000 0.000000 0.000000 0.035120 0.000000
# 6 0.000000 0.000000 0.000000 0.000000 0.000000 0.059958
#
#
# Mechanical properties :
#
#
# Convention : Reuss Voigt Hill
#
# Bulk Modulus (GPa) = 33.80105 37.13735 35.46920
# Shear Modulus (GPa) = 10.78175 18.68590 14.73383
#
# Velocity S-wave (km/s) = 2.46572 3.24606 2.88242
# Velocity P-wave (km/s) = 5.21217 5.91531 5.57483
#
# Compressibility (1/GPa) = 0.02958488
#
# Stress axis : x y z
#
# Youngs Moduli (GPa) = 24.31611 53.74225 63.44313
#
# Poissons Ratio (x) = 0.55594 0.89804
# Poissons Ratio (y) = 0.25154 -0.09800
# Poissons Ratio (z) = 0.34419 -0.08302
#
# Static dielectric constant tensor:
#      x y z
#    x 1.599370 0.000000 0.000000 
#    y 0.000000 1.650190 0.000000 
#    z 0.000000 0.000000 1.572520 
# 
# From -- ./inp_files/29141.got.cif
#   From: 2010.05.17/outbox.cif.g08.bks.cpg/sg74_15_cif.got.tgz:29141.got - 2010.06.03 17:57:02.
