data_PCOD9536589
_publ_section_title
;
Structure prediction by ZEFSAII (Michael W. Deem and Ramdas Pophale) SiO2 
 PCOD9536589
Probable space group: I M M A
;
_chemical_formula_sum "Si O2"
_cell_formula_units_Z 112
_cell_length_a 14.526523
_cell_length_b 14.560446
_cell_length_c 30.591693
_cell_angle_alpha 90.000000
_cell_angle_beta 90.000000
_cell_angle_gamma 90.000000
_cell_volume 6470.530168
_symmetry_space_group_name_H-M "I M M A"
_symmetry_group_IT_number 74
_symmetry_cell_setting 'orthorhombic'
loop_
_space_group_symop_operation_xyz
x,y,z
-x,1/2-y,z
x,-y,-z
-x,1/2+y,-z
-x,-y,-z
x,1/2+y,-z
-x,y,z
x,1/2-y,z
1/2+x,1/2+y,1/2+z
1/2-x,-y,1/2+z
1/2+x,1/2-y,1/2-z
1/2-x,y,1/2-z
1/2-x,1/2-y,1/2-z
1/2+x,y,1/2-z
1/2-x,1/2+y,1/2+z
1/2+x,-y,1/2+z
loop_
_atom_site_type_symbol
_atom_site_label
_atom_site_fract_x
_atom_site_fract_y
_atom_site_fract_z
Si Si1 0.612045 0.145339 0.270992
Si Si2 0.604002 0.011814 0.195701
Si Si3 0.394030 0.359363 0.055168
Si Si4 0.605417 0.359519 0.952169
Si Si5 0.108391 0.990640 0.158548
Si Si6 0.715913 0.494527 0.892627
Si Si7 0.857450 0.855225 0.237224
O O1 0.500000 0.146353 0.268714
O O2 0.644114 0.250000 0.274593
O O3 0.633429 0.079996 0.311953
O O4 0.641885 0.093342 0.226736
O O5 0.500000 0.035121 0.181527
O O6 0.599513 0.922857 0.226901
O O7 0.667089 0.992180 0.154586
O O8 0.500000 0.384300 0.066771
O O9 0.385317 0.250000 0.060665
O O10 0.320776 0.414381 0.083414
O O11 0.382427 0.380254 0.003609
O O12 0.500000 0.385591 0.940468
O O13 0.613207 0.250000 0.946990
O O14 0.676779 0.412573 0.922213
O O15 0.176150 0.988861 0.117443
O O16 0.000000 0.994212 0.148243
O O17 0.126216 0.903801 0.190593
O O18 0.889679 0.750000 0.237857
O O19 0.750000 0.854968 0.250000
#
# Coordination Sequence:
#
# PCOD9536589 Si02
#       7
#    16  16  16  16  16  16  16
#     4   8  16  33  52  67  94 138 178 213 256 301
#     4  10  20  31  47  76 105 129 165 215 265 314
#     4   9  19  36  57  82 110 137 165 199 252 325
#     4   9  19  36  57  81 108 137 166 199 252 326
#     4  10  22  37  52  73 104 141 186 227 258 302
#     4  12  21  32  53  79 107 136 172 214 264 306
#     4  10  19  35  54  69  96 140 182 219 263 308
#
# _framework density 17.309246999999999
#
# number of rings (size 3 to 8) (size 9 to 14) (size 15 to 20)
#    0.000    2.286    1.429    3.857    0.000    4.571 
#    0.000    2.143    0.000    1.714    0.000    2.000 
#    0.000    0.000    0.000    0.000    0.000    0.000 
#
# Total GULP energy -312528.516059 kJ/mol
# GULP energy per Si atom -5580.866358 kJ/mol
# Density = 1.726985 g / cm^3
# Si number density = 17.309247 Si / 1000 Ang^3
#
#
#
# Elastic Constant Matrix: (Units=GPa)
#
#
# Indices 1 2 3 4 5 6 
#
# 1 109.6998 28.1947 49.1338 0.0000 0.0000 0.0000
# 2 28.1947 116.8317 40.2344 0.0000 0.0000 0.0000
# 3 49.1338 40.2344 73.6747 0.0000 0.0000 0.0000
# 4 0.0000 0.0000 0.0000 16.7487 0.0000 0.0000
# 5 0.0000 0.0000 0.0000 0.0000 28.4855 0.0000
# 6 0.0000 0.0000 0.0000 0.0000 0.0000 60.2996
#
#
#
# Elastic Compliance Matrix: (Units=1/GPa)
#
#
# Indices 1 2 3 4 5 6 
#
# 1 0.013002 -0.000187 -0.008569 0.000000 0.000000 0.000000
# 2 -0.000187 0.010545 -0.005634 0.000000 0.000000 0.000000
# 3 -0.008569 -0.005634 0.022365 0.000000 0.000000 0.000000
# 4 0.000000 0.000000 0.000000 0.059706 0.000000 0.000000
# 5 0.000000 0.000000 0.000000 0.000000 0.035106 0.000000
# 6 0.000000 0.000000 0.000000 0.000000 0.000000 0.016584
#
#
# Mechanical properties :
#
#
# Convention : Reuss Voigt Hill
#
# Bulk Modulus (GPa) = 58.37138 59.48135 58.92637
# Shear Modulus (GPa) = 26.06931 33.28297 29.67614
#
# Velocity S-wave (km/s) = 3.88505 4.38978 4.14511
# Velocity P-wave (km/s) = 7.34307 7.75449 7.55158
#
# Compressibility (1/GPa) = 0.01713168
#
# Stress axis : x y z
#
# Youngs Moduli (GPa) = 76.91272 94.83525 44.71358
#
# Poissons Ratio (x) = 0.01771 0.38315
# Poissons Ratio (y) = 0.01436 0.25191
# Poissons Ratio (z) = 0.65906 0.53430
#
# Static dielectric constant tensor:
#      x y z
#    x 1.638610 0.000000 0.000000 
#    y 0.000000 1.602650 0.000000 
#    z 0.000000 0.000000 1.559770 
# 
# From -- ./inp_files/67229.got.cif
#   From: 2010.05.17/outbox.cif.g08.bks.cpg/sg74_34_cif.got.tgz:67229.got - 2010.06.03 17:57:02.
