data_PCOD9536456
_publ_section_title
;
Structure prediction by ZEFSAII (Michael W. Deem and Ramdas Pophale) SiO2 
 PCOD9536456
Probable space group: I M M A
;
_chemical_formula_sum "Si O2"
_cell_formula_units_Z 72
_cell_length_a 8.562078
_cell_length_b 29.762848
_cell_length_c 14.149787
_cell_angle_alpha 90.000000
_cell_angle_beta 90.000000
_cell_angle_gamma 90.000000
_cell_volume 3605.816060
_symmetry_space_group_name_H-M "I M M A"
_symmetry_group_IT_number 74
_symmetry_cell_setting 'orthorhombic'
loop_
_space_group_symop_operation_xyz
x,y,z
-x,1/2-y,z
x,-y,-z
-x,1/2+y,-z
-x,-y,-z
x,1/2+y,-z
-x,y,z
x,1/2-y,z
1/2+x,1/2+y,1/2+z
1/2-x,-y,1/2+z
1/2+x,1/2-y,1/2-z
1/2-x,y,1/2-z
1/2-x,1/2-y,1/2-z
1/2+x,y,1/2-z
1/2-x,1/2+y,1/2+z
1/2+x,-y,1/2+z
loop_
_atom_site_type_symbol
_atom_site_label
_atom_site_fract_x
_atom_site_fract_y
_atom_site_fract_z
Si Si1 0.687780 0.877765 0.856372
Si Si2 0.688629 0.424405 0.857678
Si Si3 0.314484 0.163084 0.536322
Si Si4 0.814228 0.250000 0.643566
Si Si5 0.811591 0.977591 0.642448
O O1 0.500000 0.875819 0.856433
O O2 0.750000 0.872409 0.750000
O O3 0.736398 0.928124 0.891764
O O4 0.755918 0.841991 0.928978
O O5 0.500000 0.421634 0.859121
O O6 0.750000 0.422783 0.750000
O O7 0.757402 0.382029 0.911388
O O8 0.734509 0.473780 0.898727
O O9 0.500000 0.165720 0.539322
O O10 0.243910 0.205914 0.588913
O O11 0.750000 0.250000 0.750000
O O12 0.000000 0.250000 0.647211
O O13 0.750000 0.978729 0.750000
O O14 0.000000 0.977460 0.641870
#
# Coordination Sequence:
#
# PCOD9536456 Si02
#       5
#    16  16  16   8  16
#     4  10  20  38  61  88 121 161 203 248 296 347
#     4  10  19  34  55  84 120 160 202 249 298 352
#     4  12  25  41  61  89 120 156 199 245 296 357
#     4  12  26  48  73  96 121 152 188 238 298 358
#     4   8  16  30  52  80 116 158 201 244 292 344
#
# _framework density 19.967741
#
# number of rings (size 3 to 8) (size 9 to 14) (size 15 to 20)
#    0.000    1.778    0.000    5.000    0.000    2.667 
#    0.000    5.000    0.000    0.000    0.000    0.000 
#    0.000    0.000    0.000    0.000    0.000    0.000 
#
# Total GULP energy -201085.125143 kJ/mol
# GULP energy per Si atom -5585.697921 kJ/mol
# Density = 1.992229 g / cm^3
# Si number density = 19.967741 Si / 1000 Ang^3
#
#
#
# Elastic Constant Matrix: (Units=GPa)
#
#
# Indices 1 2 3 4 5 6 
#
# 1 121.5580 64.5152 52.2892 0.0000 0.0000 0.0000
# 2 64.5152 156.9746 93.1412 0.0001 0.0000 0.0000
# 3 52.2892 93.1412 127.9316 0.0004 0.0000 0.0001
# 4 0.0000 0.0001 0.0004 37.3045 0.0000 0.0000
# 5 0.0000 0.0000 0.0000 0.0000 28.0468 0.0000
# 6 0.0000 0.0000 0.0001 0.0000 0.0000 14.8623
#
#
#
# Elastic Compliance Matrix: (Units=1/GPa)
#
#
# Indices 1 2 3 4 5 6 
#
# 1 0.010829 -0.003212 -0.002088 0.000000 0.000000 0.000000
# 2 -0.003212 0.012168 -0.007546 0.000000 0.000000 0.000000
# 3 -0.002088 -0.007546 0.014164 0.000000 0.000000 0.000000
# 4 0.000000 0.000000 0.000000 0.026806 0.000000 0.000000
# 5 0.000000 0.000000 0.000000 0.000000 0.035655 0.000000
# 6 0.000000 0.000000 0.000000 0.000000 0.000000 0.067284
#
#
# Mechanical properties :
#
#
# Convention : Reuss Voigt Hill
#
# Bulk Modulus (GPa) = 87.18712 91.81725 89.50219
# Shear Modulus (GPa) = 25.45538 29.14396 27.29967
#
# Velocity S-wave (km/s) = 3.57434 3.82455 3.70156
# Velocity P-wave (km/s) = 7.79701 8.09849 7.94918
#
# Compressibility (1/GPa) = 0.01146958
#
# Stress axis : x y z
#
# Youngs Moduli (GPa) = 92.34204 82.18194 70.60129
#
# Poissons Ratio (x) = 0.26397 0.14740
# Poissons Ratio (y) = 0.29660 0.53277
# Poissons Ratio (z) = 0.19278 0.62016
#
# Static dielectric constant tensor:
#      x y z
#    x 1.669030 0.000000 0.000000 
#    y 0.000000 1.712550 0.000000 
#    z 0.000000 0.000000 1.703880 
# 
# From -- ./inp_files/29219.got.cif
#   From: 2010.05.17/outbox.cif.g08.bks.cpg/sg74_15_cif.got.tgz:29219.got - 2010.06.03 17:57:02.
