data_PCOD9536481
_publ_section_title
;
Structure prediction by ZEFSAII (Michael W. Deem and Ramdas Pophale) SiO2 
 PCOD9536481
Probable space group: I M M A
;
_chemical_formula_sum "Si O2"
_cell_formula_units_Z 88
_cell_length_a 19.776965
_cell_length_b 19.220308
_cell_length_c 12.820314
_cell_angle_alpha 90.000000
_cell_angle_beta 90.000000
_cell_angle_gamma 90.000000
_cell_volume 4873.249535
_symmetry_space_group_name_H-M "I M M A"
_symmetry_group_IT_number 74
_symmetry_cell_setting 'orthorhombic'
loop_
_space_group_symop_operation_xyz
x,y,z
-x,1/2-y,z
x,-y,-z
-x,1/2+y,-z
-x,-y,-z
x,1/2+y,-z
-x,y,z
x,1/2-y,z
1/2+x,1/2+y,1/2+z
1/2-x,-y,1/2+z
1/2+x,1/2-y,1/2-z
1/2-x,y,1/2-z
1/2-x,1/2-y,1/2-z
1/2+x,y,1/2-z
1/2-x,1/2+y,1/2+z
1/2+x,-y,1/2+z
loop_
_atom_site_type_symbol
_atom_site_label
_atom_site_fract_x
_atom_site_fract_y
_atom_site_fract_z
Si Si1 0.140533 0.457480 0.400489
Si Si2 0.423437 0.916600 0.202427
Si Si3 0.846242 0.332016 0.535839
Si Si4 0.250000 0.400882 0.250000
Si Si5 0.078152 0.576205 0.050435
Si Si6 0.195542 0.668988 0.954414
O O1 0.168986 0.500000 0.500000
O O2 0.084549 0.508215 0.352932
O O3 0.121180 0.381923 0.446402
O O4 0.196510 0.446667 0.312853
O O5 0.500000 0.891219 0.187824
O O6 0.372753 0.864087 0.144041
O O7 0.410677 0.925098 0.325054
O O8 0.861263 0.250000 0.525749
O O9 0.765612 0.341252 0.518729
O O10 0.212790 0.354745 0.163085
O O11 0.000000 0.598756 0.032685
O O12 0.085140 0.500000 0.000000
O O13 0.134006 0.625091 0.999332
O O14 0.179145 0.750000 0.957083
#
# Coordination Sequence:
#
# PCOD9536481 Si02
#       6
#    16  16  16   8  16  16
#     4   9  19  33  53  79 106 140 181 223 268 322
#     4  10  21  36  55  79 109 146 186 229 276 326
#     4   9  20  36  53  80 113 143 181 228 277 326
#     4  10  19  34  56  82 111 142 178 224 275 324
#     4  10  22  39  58  82 112 145 182 226 275 326
#     4  10  21  37  58  83 112 145 183 228 274 326
#
# _framework density 18.057766000000001
#
# number of rings (size 3 to 8) (size 9 to 14) (size 15 to 20)
#    0.000    2.364    0.000    1.364    0.000   16.364 
#    0.000    3.636    0.000    1.091    0.000   15.273 
#    0.000    0.000    0.000    0.000    0.000    0.000 
#
# Total GULP energy -245314.694642 kJ/mol
# GULP energy per Si atom -5575.333969 kJ/mol
# Density = 1.801667 g / cm^3
# Si number density = 18.057766 Si / 1000 Ang^3
#
#
#
# Elastic Constant Matrix: (Units=GPa)
#
#
# Indices 1 2 3 4 5 6 
#
# 1 86.1420 68.7961 78.6026 0.0000 0.0000 0.0000
# 2 68.7961 120.2852 60.9954 0.0000 0.0000 0.0000
# 3 78.6026 60.9954 132.6947 0.0000 0.0000 0.0000
# 4 0.0000 0.0000 0.0000 15.6412 0.0000 0.0000
# 5 0.0000 0.0000 0.0000 0.0000 -11.1582 0.0000
# 6 0.0000 0.0000 0.0000 0.0000 0.0000 -3.3917
#
#
#
# Elastic Compliance Matrix: (Units=1/GPa)
#
#
# Indices 1 2 3 4 5 6 
#
# 1 0.035696 -0.012640 -0.015335 0.000000 0.000000 0.000000
# 2 -0.012640 0.015316 0.000447 0.000000 0.000000 0.000000
# 3 -0.015335 0.000447 0.016414 0.000000 0.000000 0.000000
# 4 0.000000 0.000000 0.000000 0.063934 0.000000 0.000000
# 5 0.000000 0.000000 0.000000 0.000000 -0.089620 0.000000
# 6 0.000000 0.000000 0.000000 0.000000 0.000000 -0.294836
#
#
# Mechanical properties :
#
#
# Convention : Reuss Voigt Hill
#
# Bulk Modulus (GPa) = 80.83248 83.99001 82.41124
# Shear Modulus (GPa) = -25.78414 8.93345 -8.42534
#
# Velocity S-wave (km/s) = -3.78282 2.22663 -2.16238
# Velocity P-wave (km/s) = 5.07749 7.29543 6.28507
#
# Compressibility (1/GPa) = 0.01237127
#
# Stress axis : x y z
#
# Youngs Moduli (GPa) = 28.01443 65.29020 60.92316
#
# Poissons Ratio (x) = 0.82527 0.93423
# Poissons Ratio (y) = 0.35410 -0.02723
# Poissons Ratio (z) = 0.42959 -0.02919
#
# Static dielectric constant tensor:
#      x y z
#    x 1.606900 0.000000 0.000000 
#    y 0.000000 1.617310 0.000000 
#    z 0.000000 0.000000 1.615070 
# 
# From -- ./inp_files/22179.got.cif
#   From: 2010.05.17/outbox.cif.g08.bks.cpg/sg74_12_cif.got.tgz:22179.got - 2010.06.03 17:57:02.
