data_PCOD9536760
_publ_section_title
;
Structure prediction by ZEFSAII (Michael W. Deem and Ramdas Pophale) SiO2 
 PCOD9536760
Probable space group: I M M A
;
_chemical_formula_sum "Si O2"
_cell_formula_units_Z 104
_cell_length_a 26.843100
_cell_length_b 8.232315
_cell_length_c 22.868443
_cell_angle_alpha 90.000000
_cell_angle_beta 90.000000
_cell_angle_gamma 90.000000
_cell_volume 5053.488082
_symmetry_space_group_name_H-M "I M M A"
_symmetry_group_IT_number 74
_symmetry_cell_setting 'orthorhombic'
loop_
_space_group_symop_operation_xyz
x,y,z
-x,1/2-y,z
x,-y,-z
-x,1/2+y,-z
-x,-y,-z
x,1/2+y,-z
-x,y,z
x,1/2-y,z
1/2+x,1/2+y,1/2+z
1/2-x,-y,1/2+z
1/2+x,1/2-y,1/2-z
1/2-x,y,1/2-z
1/2-x,1/2-y,1/2-z
1/2+x,y,1/2-z
1/2-x,1/2+y,1/2+z
1/2+x,-y,1/2+z
loop_
_atom_site_type_symbol
_atom_site_label
_atom_site_fract_x
_atom_site_fract_y
_atom_site_fract_z
Si Si1 0.945516 0.943959 0.933539
Si Si2 0.268213 0.053387 0.684969
Si Si3 0.000000 0.944840 0.434439
Si Si4 0.710942 0.440423 0.066569
Si Si5 0.443189 0.447868 0.771625
Si Si6 0.893327 0.946109 0.386741
Si Si7 0.880088 0.056079 0.834582
O O1 0.943723 0.750000 0.930509
O O2 0.000000 0.998879 0.910237
O O3 0.900142 0.016874 0.898125
O O4 0.943138 0.000000 0.000000
O O5 0.267186 0.250000 0.686726
O O6 0.250000 0.999030 0.750000
O O7 0.324934 0.993979 0.677482
O O8 0.238665 0.008498 0.625070
O O9 0.052601 0.000805 0.409338
O O10 0.000000 0.750000 0.426836
O O11 0.000000 0.000000 0.500000
O O12 0.719864 0.250000 0.066298
O O13 0.652722 0.477763 0.079607
O O14 0.723294 0.500000 0.000000
O O15 0.500000 0.503960 0.783827
O O16 0.446237 0.250000 0.772646
O O17 0.400011 0.487492 0.818484
O O18 0.422109 0.506186 0.710084
O O19 0.888799 0.750000 0.392544
O O20 0.878041 0.250000 0.826674
#
# Coordination Sequence:
#
# PCOD9536760 Si02
#       7
#    16  16   8  16  16  16  16
#     4  10  21  37  57  82 116 156 194 235 287 349
#     4  10  22  43  68  94 122 158 204 257 314 372
#     4  10  20  32  52  80 112 150 191 234 283 338
#     4  12  26  43  64  90 121 163 209 260 314 369
#     4   9  16  30  56  89 122 156 195 236 284 346
#     4  10  19  36  59  86 119 157 198 243 293 350
#     4  10  20  34  59  90 116 148 192 241 293 352
#
# _framework density 20.579843
#
# number of rings (size 3 to 8) (size 9 to 14) (size 15 to 20)
#    0.000    1.846    0.769    3.692    0.000    7.385 
#    0.000    2.308    0.000    0.923    0.000    0.000 
#    0.000    0.000    0.000    0.000    0.000    0.000 
#
# Total GULP energy -289926.715512 kJ/mol
# GULP energy per Si atom -5575.513760 kJ/mol
# Density = 2.053300 g / cm^3
# Si number density = 20.579843 Si / 1000 Ang^3
#
#
#
# Elastic Constant Matrix: (Units=GPa)
#
#
# Indices 1 2 3 4 5 6 
#
# 1 109.2665 14.6838 63.0710 0.0000 0.0000 0.0000
# 2 14.6838 18.6792 11.7343 0.0000 0.0000 0.0000
# 3 63.0710 11.7343 132.0139 0.0000 0.0000 0.0000
# 4 0.0000 0.0000 0.0000 21.2917 0.0000 0.0000
# 5 0.0000 0.0000 0.0000 0.0000 33.5012 0.0000
# 6 0.0000 0.0000 0.0000 0.0000 0.0000 17.4566
#
#
#
# Elastic Compliance Matrix: (Units=1/GPa)
#
#
# Indices 1 2 3 4 5 6 
#
# 1 0.013430 -0.006913 -0.005802 0.000000 0.000000 0.000000
# 2 -0.006913 0.060260 -0.002054 0.000000 0.000000 0.000000
# 3 -0.005802 -0.002054 0.010529 0.000000 0.000000 0.000000
# 4 0.000000 0.000000 0.000000 0.046967 0.000000 0.000000
# 5 0.000000 0.000000 0.000000 0.000000 0.029850 0.000000
# 6 0.000000 0.000000 0.000000 0.000000 0.000000 0.057285
#
#
# Mechanical properties :
#
#
# Convention : Reuss Voigt Hill
#
# Bulk Modulus (GPa) = 18.28732 48.77087 33.52910
# Shear Modulus (GPa) = 18.79106 25.81459 22.30283
#
# Velocity S-wave (km/s) = 3.02500 3.54554 3.29556
# Velocity P-wave (km/s) = 4.59414 6.36482 5.55055
#
# Compressibility (1/GPa) = 0.05468270
#
# Stress axis : x y z
#
# Youngs Moduli (GPa) = 74.46135 16.59483 94.97236
#
# Poissons Ratio (x) = 0.11471 0.55101
# Poissons Ratio (y) = 0.51472 0.19505
# Poissons Ratio (z) = 0.43201 0.03408
#
# Static dielectric constant tensor:
#      x y z
#    x 1.736930 0.000000 0.000000 
#    y 0.000000 1.724370 0.000000 
#    z 0.000000 0.000000 1.777480 
# 
# From -- ./inp_files/55248.got.cif
#   From: 2010.05.17/outbox.cif.g08.bks.cpg/sg74_28_cif.got.tgz:55248.got - 2010.06.03 17:57:02.
