data_PCOD9536798
_publ_section_title
;
Structure prediction by ZEFSAII (Michael W. Deem and Ramdas Pophale) SiO2 
 PCOD9536798
Probable space group: I M M A
;
_chemical_formula_sum "Si O2"
_cell_formula_units_Z 48
_cell_length_a 27.097852
_cell_length_b 5.504614
_cell_length_c 14.961210
_cell_angle_alpha 90.000000
_cell_angle_beta 90.000000
_cell_angle_gamma 90.000000
_cell_volume 2231.662191
_symmetry_space_group_name_H-M "I M M A"
_symmetry_group_IT_number 74
_symmetry_cell_setting 'orthorhombic'
loop_
_space_group_symop_operation_xyz
x,y,z
-x,1/2-y,z
x,-y,-z
-x,1/2+y,-z
-x,-y,-z
x,1/2+y,-z
-x,y,z
x,1/2-y,z
1/2+x,1/2+y,1/2+z
1/2-x,-y,1/2+z
1/2+x,1/2-y,1/2-z
1/2-x,y,1/2-z
1/2-x,1/2-y,1/2-z
1/2+x,y,1/2-z
1/2-x,1/2+y,1/2+z
1/2+x,-y,1/2+z
loop_
_atom_site_type_symbol
_atom_site_label
_atom_site_fract_x
_atom_site_fract_y
_atom_site_fract_z
Si Si1 0.202310 0.250000 0.820481
Si Si2 0.737172 0.750000 0.642128
Si Si3 0.159025 0.750000 0.553326
Si Si4 0.500000 0.250000 0.555858
Si Si5 0.584811 0.250000 0.702638
Si Si6 0.918294 0.750000 0.697110
Si Si7 0.500000 0.250000 0.051454
O O1 0.250000 0.250000 0.750000
O O2 0.208728 0.500433 0.872704
O O3 0.144960 0.250000 0.792077
O O4 0.750000 0.750000 0.750000
O O5 0.783568 0.750000 0.576954
O O6 0.146364 0.500000 0.500000
O O7 0.135460 0.750000 0.652335
O O8 0.500000 0.500000 0.500000
O O9 0.550720 0.250000 0.614417
O O10 0.571465 0.503298 0.750417
O O11 0.952221 0.750000 0.611402
O O12 0.500000 0.500000 0.000000
#
# Coordination Sequence:
#
# PCOD9536798 Si02
#       7
#     8   8   8   4   8   8   4
#     4  10  19  36  63  95 123 158 212 275 330 391
#     4  10  20  37  59  86 124 171 220 269 327 407
#     4  12  24  40  61  95 138 181 220 279 349 409
#     4  12  28  52  74 104 142 178 232 306 360 406
#     4  12  24  44  74 100 128 178 230 282 349 419
#     4  12  23  41  66  97 129 170 227 269 323 417
#     4  12  24  40  58  88 132 174 210 266 324 376
#
# _framework density 21.508634000000001
#
# number of rings (size 3 to 8) (size 9 to 14) (size 15 to 20)
#    0.000    0.667    0.000   11.000    0.000    0.000 
#    0.000    5.000    0.000    0.000    0.000    0.000 
#    0.000    0.000    0.000    0.000    0.000    0.000 
#
# Total GULP energy -133897.598070 kJ/mol
# GULP energy per Si atom -5579.066586 kJ/mol
# Density = 2.145968 g / cm^3
# Si number density = 21.508634 Si / 1000 Ang^3
#
#
#
# Elastic Constant Matrix: (Units=GPa)
#
#
# Indices 1 2 3 4 5 6 
#
# 1 89.8406 38.3028 30.4657 0.0000 0.0000 0.0000
# 2 38.3028 278.7417 81.8156 0.0000 0.0000 0.0000
# 3 30.4657 81.8156 86.6229 0.0000 0.0000 0.0000
# 4 0.0000 0.0000 0.0000 54.7426 0.0000 0.0000
# 5 0.0000 0.0000 0.0000 0.0000 54.7795 0.0000
# 6 0.0000 0.0000 0.0000 0.0000 0.0000 36.2999
#
#
#
# Elastic Compliance Matrix: (Units=1/GPa)
#
#
# Indices 1 2 3 4 5 6 
#
# 1 0.012711 -0.000601 -0.003903 0.000000 0.000000 0.000000
# 2 -0.000601 0.004992 -0.004504 0.000000 0.000000 0.000000
# 3 -0.003903 -0.004504 0.017171 0.000000 0.000000 0.000000
# 4 0.000000 0.000000 0.000000 0.018267 0.000000 0.000000
# 5 0.000000 0.000000 0.000000 0.000000 0.018255 0.000000
# 6 0.000000 0.000000 0.000000 0.000000 0.000000 0.027548
#
#
# Mechanical properties :
#
#
# Convention : Reuss Voigt Hill
#
# Bulk Modulus (GPa) = 59.31736 84.04150 71.67943
# Shear Modulus (GPa) = 40.79046 49.47248 45.13147
#
# Velocity S-wave (km/s) = 4.35957 4.80116 4.58568
# Velocity P-wave (km/s) = 7.27870 8.36021 7.83813
#
# Compressibility (1/GPa) = 0.01685847
#
# Stress axis : x y z
#
# Youngs Moduli (GPa) = 78.67508 200.31931 58.23941
#
# Poissons Ratio (x) = 0.12041 0.22728
# Poissons Ratio (y) = 0.04729 0.26229
# Poissons Ratio (z) = 0.30704 0.90215
#
# Static dielectric constant tensor:
#      x y z
#    x 1.510960 0.000000 0.000000 
#    y 0.000000 1.726550 0.000000 
#    z 0.000000 0.000000 1.779520 
# 
# From -- ./inp_files/36858.got.cif
#   From: 2010.05.17/outbox.cif.g08.bks.cpg/sg74_19_cif.got.tgz:36858.got - 2010.06.03 17:57:02.
