data_PCOD9536930
_publ_section_title
;
Structure prediction by ZEFSAII (Michael W. Deem and Ramdas Pophale) SiO2 
 PCOD9536930
Probable space group: I M M A
;
_chemical_formula_sum "Si O2"
_cell_formula_units_Z 56
_cell_length_a 5.325829
_cell_length_b 28.218586
_cell_length_c 20.000929
_cell_angle_alpha 90.000000
_cell_angle_beta 90.000000
_cell_angle_gamma 90.000000
_cell_volume 3005.886890
_symmetry_space_group_name_H-M "I M M A"
_symmetry_group_IT_number 74
_symmetry_cell_setting 'orthorhombic'
loop_
_space_group_symop_operation_xyz
x,y,z
-x,1/2-y,z
x,-y,-z
-x,1/2+y,-z
-x,-y,-z
x,1/2+y,-z
-x,y,z
x,1/2-y,z
1/2+x,1/2+y,1/2+z
1/2-x,-y,1/2+z
1/2+x,1/2-y,1/2-z
1/2-x,y,1/2-z
1/2-x,1/2-y,1/2-z
1/2+x,y,1/2-z
1/2-x,1/2+y,1/2+z
1/2+x,-y,1/2+z
loop_
_atom_site_type_symbol
_atom_site_label
_atom_site_fract_x
_atom_site_fract_y
_atom_site_fract_z
Si Si1 0.000000 0.431699 0.208286
Si Si2 0.500000 0.802795 0.227760
Si Si3 0.500000 0.695668 0.934078
Si Si4 0.000000 0.545400 0.206646
Si Si5 0.500000 0.608761 0.424800
Si Si6 0.000000 0.329777 0.583995
Si Si7 0.000000 0.867636 0.922109
O O1 0.750000 0.419432 0.250000
O O2 0.000000 0.488376 0.197905
O O3 0.000000 0.404243 0.138548
O O4 0.500000 0.750000 0.260384
O O5 0.250000 0.828216 0.250000
O O6 0.500000 0.798564 0.149391
O O7 0.500000 0.750000 0.908334
O O8 0.751728 0.665730 0.917412
O O9 0.500000 0.697408 0.014661
O O10 0.750000 0.557421 0.250000
O O11 0.000000 0.568318 0.132292
O O12 0.248594 0.638623 0.412674
O O13 0.500000 0.603967 0.506443
#
# Coordination Sequence:
#
# PCOD9536930 Si02
#       7
#     8   8   8   8   8   8   8
#     4  10  21  39  62  84 110 146 181 219 274 338
#     4  10  20  31  43  62  90 128 176 222 262 310
#     4  10  20  36  58  81 109 142 178 225 274 327
#     4  10  21  36  55  81 113 150 188 224 270 324
#     4  10  21  34  52  80 109 139 181 227 265 310
#     4  10  20  33  49  72 102 139 179 219 271 319
#     4  10  21  37  59  86 111 142 185 226 272 326
#
# _framework density 18.630109999999998
#
# number of rings (size 3 to 8) (size 9 to 14) (size 15 to 20)
#    0.000    2.000    0.000    3.429    0.000    4.000 
#    0.000    4.286    0.000   18.857    0.000    0.000 
#    0.000    0.000    0.000    0.000    0.000    0.000 
#
# Total GULP energy -156062.465950 kJ/mol
# GULP energy per Si atom -5573.659498 kJ/mol
# Density = 1.858771 g / cm^3
# Si number density = 18.630110 Si / 1000 Ang^3
#
#
#
# Elastic Constant Matrix: (Units=GPa)
#
#
# Indices 1 2 3 4 5 6 
#
# 1 191.8105 53.0962 62.5529 0.0000 0.0000 0.0000
# 2 53.0962 89.4122 74.9118 0.0000 0.0000 0.0000
# 3 62.5529 74.9118 139.1628 0.0000 0.0000 0.0000
# 4 0.0000 0.0000 0.0000 26.3688 0.0000 0.0000
# 5 0.0000 0.0000 0.0000 0.0000 25.8250 0.0000
# 6 0.0000 0.0000 0.0000 0.0000 0.0000 13.5191
#
#
#
# Elastic Compliance Matrix: (Units=1/GPa)
#
#
# Indices 1 2 3 4 5 6 
#
# 1 0.006410 -0.002536 -0.001516 0.000000 0.000000 0.000000
# 2 -0.002536 0.021376 -0.010367 0.000000 0.000000 0.000000
# 3 -0.001516 -0.010367 0.013448 0.000000 0.000000 0.000000
# 4 0.000000 0.000000 0.000000 0.037924 0.000000 0.000000
# 5 0.000000 0.000000 0.000000 0.000000 0.038722 0.000000
# 6 0.000000 0.000000 0.000000 0.000000 0.000000 0.073970
#
#
# Mechanical properties :
#
#
# Convention : Reuss Voigt Hill
#
# Bulk Modulus (GPa) = 80.67391 89.05635 84.86513
# Shear Modulus (GPa) = 22.24020 28.46421 25.35221
#
# Velocity S-wave (km/s) = 3.45886 3.91303 3.69293
# Velocity P-wave (km/s) = 7.70380 8.26570 7.98969
#
# Compressibility (1/GPa) = 0.01239558
#
# Stress axis : x y z
#
# Youngs Moduli (GPa) = 156.00729 46.78203 74.36302
#
# Poissons Ratio (x) = 0.11866 0.11272
# Poissons Ratio (y) = 0.39570 0.77089
# Poissons Ratio (z) = 0.23649 0.48497
#
# Static dielectric constant tensor:
#      x y z
#    x 1.678570 0.000000 0.000000 
#    y 0.000000 1.628480 0.000000 
#    z 0.000000 0.000000 1.629710 
# 
# From -- ./inp_files/38226.got.cif
#   From: 2010.05.17/outbox.cif.g08.bks.cpg/sg74_20_cif.got.tgz:38226.got - 2010.06.03 17:57:02.
