data_PCOD9536359
_publ_section_title
;
Structure prediction by ZEFSAII (Michael W. Deem and Ramdas Pophale) SiO2 
 PCOD9536359
Probable space group: I M M A
;
_chemical_formula_sum "Si O2"
_cell_formula_units_Z 104
_cell_length_a 7.631370
_cell_length_b 27.468316
_cell_length_c 25.180868
_cell_angle_alpha 90.000000
_cell_angle_beta 90.000000
_cell_angle_gamma 90.000000
_cell_volume 5278.435777
_symmetry_space_group_name_H-M "I M M A"
_symmetry_group_IT_number 74
_symmetry_cell_setting 'orthorhombic'
loop_
_space_group_symop_operation_xyz
x,y,z
-x,1/2-y,z
x,-y,-z
-x,1/2+y,-z
-x,-y,-z
x,1/2+y,-z
-x,y,z
x,1/2-y,z
1/2+x,1/2+y,1/2+z
1/2-x,-y,1/2+z
1/2+x,1/2-y,1/2-z
1/2-x,y,1/2-z
1/2-x,1/2-y,1/2-z
1/2+x,y,1/2-z
1/2-x,1/2+y,1/2+z
1/2+x,-y,1/2+z
loop_
_atom_site_type_symbol
_atom_site_label
_atom_site_fract_x
_atom_site_fract_y
_atom_site_fract_z
Si Si1 0.799880 0.019812 0.869425
Si Si2 0.288603 0.432698 0.310131
Si Si3 0.705424 0.656376 0.619296
Si Si4 0.702178 0.892094 0.440071
Si Si5 0.803960 0.953663 0.537452
Si Si6 0.207636 0.250000 0.312233
Si Si7 0.784440 0.693762 0.995286
O O1 0.721647 0.068162 0.898107
O O2 0.000000 0.032277 0.855739
O O3 0.718905 0.987598 0.822188
O O4 0.798957 0.977029 0.913987
O O5 0.500000 0.434748 0.315071
O O6 0.250000 0.418097 0.250000
O O7 0.221440 0.391092 0.350623
O O8 0.500000 0.646349 0.610655
O O9 0.721176 0.702208 0.658447
O O10 0.776353 0.672090 0.561634
O O11 0.500000 0.885892 0.424621
O O12 0.708148 0.916592 0.498701
O O13 0.777159 0.839309 0.454966
O O14 0.000000 0.936842 0.551942
O O15 0.826034 0.000000 0.500000
O O16 0.250000 0.250000 0.250000
O O17 0.000000 0.250000 0.318816
O O18 0.732587 0.750000 0.998884
O O19 0.000000 0.692618 0.995244
#
# Coordination Sequence:
#
# PCOD9536359 Si02
#       7
#    16  16  16  16  16   8  16
#     4   9  17  30  46  65  89 116 148 183 222 271
#     4  10  21  34  49  68  90 118 152 192 236 275
#     4  10  19  34  51  66  87 117 151 188 231 273
#     4   9  16  27  46  68  89 117 150 181 216 268
#     4   9  16  25  39  62  89 115 143 176 215 260
#     4  12  24  36  50  66  84 112 156 204 243 270
#     4   9  16  28  49  72  93 119 150 183 223 269
#
# _framework density 19.702808000000001
#
# number of rings (size 3 to 8) (size 9 to 14) (size 15 to 20)
#    0.000    2.462    0.769    2.538    0.000    6.769 
#    0.000    2.308    0.000    0.000    0.000    0.000 
#    0.000    0.615    0.000    0.462    0.000    0.923 
#
# Total GULP energy -289537.439461 kJ/mol
# GULP energy per Si atom -5568.027682 kJ/mol
# Density = 1.965796 g / cm^3
# Si number density = 19.702808 Si / 1000 Ang^3
#
#
#
# Elastic Constant Matrix: (Units=GPa)
#
#
# Indices 1 2 3 4 5 6 
#
# 1 49.7579 0.4104 1.1467 0.0000 0.0000 0.0000
# 2 0.4104 159.3973 65.1090 0.0000 0.0000 0.0000
# 3 1.1467 65.1090 34.8096 0.0000 0.0000 -0.0001
# 4 0.0000 0.0000 0.0000 27.9880 0.0000 0.0000
# 5 0.0000 0.0000 0.0000 0.0000 8.0808 0.0000
# 6 0.0000 0.0000 -0.0001 0.0000 0.0000 168.9278
#
#
#
# Elastic Compliance Matrix: (Units=1/GPa)
#
#
# Indices 1 2 3 4 5 6 
#
# 1 0.020145 0.000929 -0.002401 0.000000 0.000000 0.000000
# 2 0.000929 0.026628 -0.049837 0.000000 0.000000 0.000000
# 3 -0.002401 -0.049837 0.122023 0.000000 0.000000 0.000000
# 4 0.000000 0.000000 0.000000 0.035730 0.000000 0.000000
# 5 0.000000 0.000000 0.000000 0.000000 0.123751 0.000000
# 6 0.000000 0.000000 0.000000 0.000000 0.000000 0.005920
#
#
# Mechanical properties :
#
#
# Convention : Reuss Voigt Hill
#
# Bulk Modulus (GPa) = 15.11062 41.92189 28.51625
# Shear Modulus (GPa) = 10.89626 52.81922 31.85774
#
# Velocity S-wave (km/s) = 2.35421 5.18326 4.02545
# Velocity P-wave (km/s) = 3.88274 7.55942 6.00918
#
# Compressibility (1/GPa) = 0.06617864
#
# Stress axis : x y z
#
# Youngs Moduli (GPa) = 49.64013 37.55444 8.19517
#
# Poissons Ratio (x) = -0.03488 0.01968
# Poissons Ratio (y) = -0.04611 0.40842
# Poissons Ratio (z) = 0.11918 1.87159
#
# Static dielectric constant tensor:
#      x y z
#    x 1.785310 0.000000 0.000000 
#    y 0.000000 1.767200 0.000000 
#    z 0.000000 0.000000 1.673480 
# 
# From -- ./inp_files/64977.got.cif
#   From: 2010.05.17/outbox.cif.g08.bks.cpg/sg74_33_cif.got.tgz:64977.got - 2010.06.03 17:57:02.
