data_PCOD9536814
_publ_section_title
;
Structure prediction by ZEFSAII (Michael W. Deem and Ramdas Pophale) SiO2 
 PCOD9536814
Probable space group: I M M A
;
_chemical_formula_sum "Si O2"
_cell_formula_units_Z 48
_cell_length_a 13.597722
_cell_length_b 14.363828
_cell_length_c 10.891074
_cell_angle_alpha 90.000000
_cell_angle_beta 90.000000
_cell_angle_gamma 90.000000
_cell_volume 2127.193821
_symmetry_space_group_name_H-M "I M M A"
_symmetry_group_IT_number 74
_symmetry_cell_setting 'orthorhombic'
loop_
_space_group_symop_operation_xyz
x,y,z
-x,1/2-y,z
x,-y,-z
-x,1/2+y,-z
-x,-y,-z
x,1/2+y,-z
-x,y,z
x,1/2-y,z
1/2+x,1/2+y,1/2+z
1/2-x,-y,1/2+z
1/2+x,1/2-y,1/2-z
1/2-x,y,1/2-z
1/2-x,1/2-y,1/2-z
1/2+x,y,1/2-z
1/2-x,1/2+y,1/2+z
1/2+x,-y,1/2+z
loop_
_atom_site_type_symbol
_atom_site_label
_atom_site_fract_x
_atom_site_fract_y
_atom_site_fract_z
Si Si1 0.500000 0.858678 0.280114
Si Si2 0.000000 0.889303 0.511807
Si Si3 0.287665 0.887622 0.881013
Si Si4 0.207514 0.402243 0.868738
O O1 0.500000 0.750000 0.318674
O O2 0.593998 0.911081 0.335558
O O3 0.500000 0.857682 0.130835
O O4 0.900322 0.865047 0.584848
O O5 0.000000 0.000000 0.500000
O O6 0.250000 0.852759 0.750000
O O7 0.267275 0.999860 0.874208
O O8 0.225232 0.857387 0.999616
O O9 0.250000 0.350658 0.750000
#
# Coordination Sequence:
#
# PCOD9536814 Si02
#       4
#     8   8  16  16
#     4  12  26  40  64  96 134 176 214 262 324 398
#     4  12  18  39  64  89 128 167 224 262 316 378
#     4  10  20  33  63  96 125 161 207 281 324 365
#     4  10  19  37  58  93 123 161 212 264 322 366
#
# _framework density 22.56494
#
# number of rings (size 3 to 8) (size 9 to 14) (size 15 to 20)
#    0.000    1.333    6.667    2.000    0.000    4.667 
#    0.000    0.000    0.000    6.000    0.000    0.000 
#    0.000    0.000    0.000    0.000    0.000    0.000 
#
# Total GULP energy -133920.078250 kJ/mol
# GULP energy per Si atom -5580.003260 kJ/mol
# Density = 2.251358 g / cm^3
# Si number density = 22.564940 Si / 1000 Ang^3
#
#
#
# Elastic Constant Matrix: (Units=GPa)
#
#
# Indices 1 2 3 4 5 6 
#
# 1 240.7636 -5.0706 105.3655 0.0000 0.0000 0.0000
# 2 -5.0706 102.7119 -1.1645 0.0000 0.0000 0.0000
# 3 105.3655 -1.1645 269.7308 0.0000 0.0000 0.0000
# 4 0.0000 0.0000 0.0000 -14.7238 0.0000 0.0000
# 5 0.0000 0.0000 0.0000 0.0000 50.2808 0.0000
# 6 0.0000 0.0000 0.0000 0.0000 0.0000 -10.2036
#
#
#
# Elastic Compliance Matrix: (Units=1/GPa)
#
#
# Indices 1 2 3 4 5 6 
#
# 1 0.005015 0.000225 -0.001958 0.000000 0.000000 0.000000
# 2 0.000225 0.009747 -0.000046 0.000000 0.000000 0.000000
# 3 -0.001958 -0.000046 0.004472 0.000000 0.000000 0.000000
# 4 0.000000 0.000000 0.000000 -0.067917 0.000000 0.000000
# 5 0.000000 0.000000 0.000000 0.000000 0.019888 0.000000
# 6 0.000000 0.000000 0.000000 0.000000 0.000000 -0.098005
#
#
# Mechanical properties :
#
#
# Convention : Reuss Voigt Hill
#
# Bulk Modulus (GPa) = 63.78996 90.16300 76.97648
# Shear Modulus (GPa) = -42.36686 39.34240 -1.51223
#
# Velocity S-wave (km/s) = -4.33777 4.18008 -0.81953
# Velocity P-wave (km/s) = 1.80069 7.95872 5.76991
#
# Compressibility (1/GPa) = 0.01567645
#
# Stress axis : x y z
#
# Youngs Moduli (GPa) = 199.39701 102.60010 223.60877
#
# Poissons Ratio (x) = -0.02312 0.43785
# Poissons Ratio (y) = -0.04494 0.01028
# Poissons Ratio (z) = 0.39044 0.00472
#
# Static dielectric constant tensor:
#      x y z
#    x 1.875950 0.000000 0.000000 
#    y 0.000000 1.869990 0.000000 
#    z 0.000000 0.000000 1.878940 
# 
# From -- ./inp_files/18183.got.cif
#   From: 2010.05.17/outbox.cif.g08.bks.cpg/sg74_10_cif.got.tgz:18183.got - 2010.06.03 17:57:02.
