data_PCOD9536340
_publ_section_title
;
Structure prediction by ZEFSAII (Michael W. Deem and Ramdas Pophale) SiO2 
 PCOD9536340
Probable space group: I M M A
;
_chemical_formula_sum "Si O2"
_cell_formula_units_Z 56
_cell_length_a 7.766574
_cell_length_b 26.507754
_cell_length_c 14.430233
_cell_angle_alpha 90.000000
_cell_angle_beta 90.000000
_cell_angle_gamma 90.000000
_cell_volume 2970.816037
_symmetry_space_group_name_H-M "I M M A"
_symmetry_group_IT_number 74
_symmetry_cell_setting 'orthorhombic'
loop_
_space_group_symop_operation_xyz
x,y,z
-x,1/2-y,z
x,-y,-z
-x,1/2+y,-z
-x,-y,-z
x,1/2+y,-z
-x,y,z
x,1/2-y,z
1/2+x,1/2+y,1/2+z
1/2-x,-y,1/2+z
1/2+x,1/2-y,1/2-z
1/2-x,y,1/2-z
1/2-x,1/2-y,1/2-z
1/2+x,y,1/2-z
1/2-x,1/2+y,1/2+z
1/2+x,-y,1/2+z
loop_
_atom_site_type_symbol
_atom_site_label
_atom_site_fract_x
_atom_site_fract_y
_atom_site_fract_z
Si Si1 0.697642 0.855859 0.054281
Si Si2 0.000000 0.540644 0.875497
Si Si3 0.500000 0.570864 0.407901
Si Si4 0.705284 0.750000 0.358321
Si Si5 0.701871 0.382756 0.155358
O O1 0.500000 0.872414 0.067009
O O2 0.721761 0.800414 0.095099
O O3 0.832043 0.894118 0.101804
O O4 0.734612 0.856043 0.943385
O O5 0.000000 0.481521 0.852561
O O6 0.828890 0.569289 0.842344
O O7 0.000000 0.551733 0.985648
O O8 0.500000 0.750000 0.369608
O O9 0.750000 0.750000 0.250000
O O10 0.500000 0.395573 0.156688
O O11 0.750000 0.353478 0.250000
#
# Coordination Sequence:
#
# PCOD9536340 Si02
#       5
#    16   8   8   8  16
#     4  10  21  38  60  88 114 150 193 239 289 343
#     4   9  18  32  54  82 116 151 197 229 277 332
#     4   9  18  35  56  82 112 152 191 240 279 331
#     4  12  24  42  67  85 112 146 190 240 297 346
#     4  10  19  33  58  85 120 158 192 228 280 341
#
# _framework density 18.850041000000001
#
# number of rings (size 3 to 8) (size 9 to 14) (size 15 to 20)
#    0.000    2.000    2.857    1.286    0.000    1.143 
#    0.000    7.857    0.000    0.000    0.000    0.000 
#    0.000    0.000    0.000    0.000    0.000    0.000 
#
# Total GULP energy -156084.239105 kJ/mol
# GULP energy per Si atom -5574.437111 kJ/mol
# Density = 1.880714 g / cm^3
# Si number density = 18.850041 Si / 1000 Ang^3
#
#
#
# Elastic Constant Matrix: (Units=GPa)
#
#
# Indices 1 2 3 4 5 6 
#
# 1 128.9758 46.3628 38.7111 0.0000 0.0000 0.0000
# 2 46.3628 121.8066 54.1087 0.0000 0.0000 0.0000
# 3 38.7111 54.1087 86.6789 -0.0001 0.0000 0.0000
# 4 0.0000 0.0000 -0.0001 16.3262 0.0000 0.0000
# 5 0.0000 0.0000 0.0000 0.0000 24.7311 0.0000
# 6 0.0000 0.0000 0.0000 0.0000 0.0000 3.0082
#
#
#
# Elastic Compliance Matrix: (Units=1/GPa)
#
#
# Indices 1 2 3 4 5 6 
#
# 1 0.009426 -0.002377 -0.002726 0.000000 0.000000 0.000000
# 2 -0.002377 0.011959 -0.006404 0.000000 0.000000 0.000000
# 3 -0.002726 -0.006404 0.016752 0.000000 0.000000 0.000000
# 4 0.000000 0.000000 0.000000 0.061251 0.000000 0.000000
# 5 0.000000 0.000000 0.000000 0.000000 0.040435 0.000000
# 6 0.000000 0.000000 0.000000 0.000000 0.000000 0.332427
#
#
# Mechanical properties :
#
#
# Convention : Reuss Voigt Hill
#
# Bulk Modulus (GPa) = 66.12197 68.42516 67.27357
# Shear Modulus (GPa) = 9.99390 22.03167 16.01278
#
# Velocity S-wave (km/s) = 2.30506 3.42246 2.91775
# Velocity P-wave (km/s) = 6.49911 7.21084 6.86421
#
# Compressibility (1/GPa) = 0.01512357
#
# Stress axis : x y z
#
# Youngs Moduli (GPa) = 106.08988 83.61783 59.69490
#
# Poissons Ratio (x) = 0.19875 0.16272
# Poissons Ratio (y) = 0.25216 0.38228
# Poissons Ratio (z) = 0.28919 0.53548
#
# Static dielectric constant tensor:
#      x y z
#    x 1.658770 0.000000 0.000000 
#    y 0.000000 1.623740 0.000000 
#    z 0.000000 0.000000 1.693530 
# 
# From -- ./inp_files/28559.got.cif
#   From: 2010.05.17/outbox.cif.g08.bks.cpg/sg74_15_cif.got.tgz:28559.got - 2010.06.03 17:57:02.
