data_PCOD9536597
_publ_section_title
;
Structure prediction by ZEFSAII (Michael W. Deem and Ramdas Pophale) SiO2 
 PCOD9536597
Probable space group: I M M A
;
_chemical_formula_sum "Si O2"
_cell_formula_units_Z 104
_cell_length_a 31.699117
_cell_length_b 22.042310
_cell_length_c 7.917170
_cell_angle_alpha 90.000000
_cell_angle_beta 90.000000
_cell_angle_gamma 90.000000
_cell_volume 5531.898985
_symmetry_space_group_name_H-M "I M M A"
_symmetry_group_IT_number 74
_symmetry_cell_setting 'orthorhombic'
loop_
_space_group_symop_operation_xyz
x,y,z
-x,1/2-y,z
x,-y,-z
-x,1/2+y,-z
-x,-y,-z
x,1/2+y,-z
-x,y,z
x,1/2-y,z
1/2+x,1/2+y,1/2+z
1/2-x,-y,1/2+z
1/2+x,1/2-y,1/2-z
1/2-x,y,1/2-z
1/2-x,1/2-y,1/2-z
1/2+x,y,1/2-z
1/2-x,1/2+y,1/2+z
1/2+x,-y,1/2+z
loop_
_atom_site_type_symbol
_atom_site_label
_atom_site_fract_x
_atom_site_fract_y
_atom_site_fract_z
Si Si1 0.750000 0.097943 0.250000
Si Si2 0.731689 0.321789 0.933891
Si Si3 0.048687 0.017085 0.769691
Si Si4 0.914937 0.081855 0.438527
Si Si5 0.161501 0.539691 0.751626
Si Si6 0.873381 0.080572 0.905288
Si Si7 0.632042 0.821232 0.120250
O O1 0.747546 0.140012 0.416035
O O2 0.790677 0.056405 0.274202
O O3 0.740472 0.250000 0.956175
O O4 0.750000 0.339393 0.750000
O O5 0.680816 0.329577 0.937773
O O6 0.060635 0.054097 0.598472
O O7 0.080083 0.050648 0.897983
O O8 0.000000 0.022938 0.811464
O O9 0.059900 0.947273 0.719625
O O10 0.868467 0.054229 0.405052
O O11 0.901915 0.150018 0.488875
O O12 0.154481 0.470802 0.810227
O O13 0.143925 0.581758 0.905596
O O14 0.872391 0.141105 0.794882
O O15 0.625151 0.750000 0.143720
#
# Coordination Sequence:
#
# PCOD9536597 Si02
#       7
#     8  16  16  16  16  16  16
#     4  12  21  36  56  82 115 154 214 234 302 346
#     4  10  21  36  54  79 112 152 205 255 285 339
#     4   9  17  32  60  84 105 144 178 225 287 351
#     4   9  16  31  51  77 113 130 179 231 277 332
#     4  10  20  36  52  81 111 153 180 245 290 338
#     4   9  20  38  53  78 120 141 188 236 291 349
#     4  10  19  35  55  74 104 153 193 228 290 343
#
# _framework density 18.800055
#
# number of rings (size 3 to 8) (size 9 to 14) (size 15 to 20)
#    0.000    2.308    1.538    3.000    0.000    0.000 
#    6.923    8.462    0.000   11.538    0.000    0.000 
#    0.000   24.615    0.000    0.000    0.000    0.000 
#
# Total GULP energy -289740.542860 kJ/mol
# GULP energy per Si atom -5571.933517 kJ/mol
# Density = 1.875727 g / cm^3
# Si number density = 18.800055 Si / 1000 Ang^3
#
#
#
# Elastic Constant Matrix: (Units=GPa)
#
#
# Indices 1 2 3 4 5 6 
#
# 1 105.5411 24.4957 10.6322 0.0000 0.0000 0.0000
# 2 24.4957 105.6211 22.6023 0.0000 0.0000 0.0000
# 3 10.6322 22.6023 64.5917 0.0000 0.0000 0.0000
# 4 0.0000 0.0000 0.0000 25.9372 0.0000 0.0000
# 5 0.0000 0.0000 0.0000 0.0000 1.6886 0.0000
# 6 0.0000 0.0000 0.0000 0.0000 0.0000 8.3065
#
#
#
# Elastic Compliance Matrix: (Units=1/GPa)
#
#
# Indices 1 2 3 4 5 6 
#
# 1 0.010063 -0.002140 -0.000908 0.000000 0.000000 0.000000
# 2 -0.002140 0.010689 -0.003388 0.000000 0.000000 0.000000
# 3 -0.000908 -0.003388 0.016817 0.000000 0.000000 0.000000
# 4 0.000000 0.000000 0.000000 0.038555 0.000000 0.000000
# 5 0.000000 0.000000 0.000000 0.000000 0.592213 0.000000
# 6 0.000000 0.000000 0.000000 0.000000 0.000000 0.120387
#
#
# Mechanical properties :
#
#
# Convention : Reuss Voigt Hill
#
# Bulk Modulus (GPa) = 40.48915 43.46825 41.97870
# Shear Modulus (GPa) = 6.17415 21.72139 13.94777
#
# Velocity S-wave (km/s) = 1.81418 3.40279 2.72674
# Velocity P-wave (km/s) = 5.09625 6.21371 5.68252
#
# Compressibility (1/GPa) = 0.02469797
#
# Stress axis : x y z
#
# Youngs Moduli (GPa) = 99.37378 93.55350 59.46400
#
# Poissons Ratio (x) = 0.20016 0.05398
# Poissons Ratio (y) = 0.21262 0.20148
# Poissons Ratio (z) = 0.09021 0.31698
#
# Static dielectric constant tensor:
#      x y z
#    x 1.654550 0.000000 0.000000 
#    y 0.000000 1.652030 0.000000 
#    z 0.000000 0.000000 1.737330 
# 
# From -- ./inp_files/16181.got.cif
#   From: 2010.05.17/outbox.cif.g08.bks.cpg/sg74_9_cif.got.tgz:16181.got - 2010.06.03 17:57:02.
