data_PCOD9536084
_publ_section_title
;
Structure prediction by ZEFSAII (Michael W. Deem and Ramdas Pophale) SiO2 
 PCOD9536084
Probable space group: I M M A
;
_chemical_formula_sum "Si O2"
_cell_formula_units_Z 72
_cell_length_a 28.492730
_cell_length_b 9.718923
_cell_length_c 17.387311
_cell_angle_alpha 90.000000
_cell_angle_beta 90.000000
_cell_angle_gamma 90.000000
_cell_volume 4814.870671
_symmetry_space_group_name_H-M "I M M A"
_symmetry_group_IT_number 74
_symmetry_cell_setting 'orthorhombic'
loop_
_space_group_symop_operation_xyz
x,y,z
-x,1/2-y,z
x,-y,-z
-x,1/2+y,-z
-x,-y,-z
x,1/2+y,-z
-x,y,z
x,1/2-y,z
1/2+x,1/2+y,1/2+z
1/2-x,-y,1/2+z
1/2+x,1/2-y,1/2-z
1/2-x,y,1/2-z
1/2-x,1/2-y,1/2-z
1/2+x,y,1/2-z
1/2-x,1/2+y,1/2+z
1/2+x,-y,1/2+z
loop_
_atom_site_type_symbol
_atom_site_label
_atom_site_fract_x
_atom_site_fract_y
_atom_site_fract_z
Si Si1 0.134182 0.406665 0.864853
Si Si2 0.703841 0.906418 0.931554
Si Si3 0.053414 0.088219 0.078479
Si Si4 0.297492 0.000000 0.500000
Si Si5 0.698013 0.594023 0.214928
O O1 0.115882 0.250000 0.868389
O O2 0.093004 0.517885 0.870073
O O3 0.169373 0.427189 0.937451
O O4 0.162823 0.423302 0.786006
O O5 0.687767 0.750000 0.932269
O O6 0.760045 0.909684 0.951270
O O7 0.694170 0.982756 0.851896
O O8 0.683172 0.000000 0.000000
O O9 0.062961 0.250000 0.064570
O O10 0.000000 0.077034 0.108479
O O11 0.055206 0.000000 0.000000
O O12 0.692527 0.750000 0.183270
O O13 0.750000 0.585347 0.250000
#
# Coordination Sequence:
#
# PCOD9536084 Si02
#       5
#    16  16  16   8  16
#     4  11  21  33  50  70  95 128 162 200 241 281
#     4  10  20  32  47  65  90 126 163 197 235 277
#     4  10  21  35  50  68  92 122 158 202 244 283
#     4  10  20  30  47  68  92 130 165 200 234 278
#     4  10  19  33  47  65  96 126 157 197 239 280
#
# _framework density 14.953671999999999
#
# number of rings (size 3 to 8) (size 9 to 14) (size 15 to 20)
#    0.667    1.111    3.333    2.000    0.000    3.556 
#    0.000    0.000    0.000    0.000    0.000    0.000 
#    0.000    0.889    0.000    2.889    0.000    4.222 
#
# Total GULP energy -200507.289234 kJ/mol
# GULP energy per Si atom -5569.646923 kJ/mol
# Density = 1.491964 g / cm^3
# Si number density = 14.953672 Si / 1000 Ang^3
#
#
#
# Elastic Constant Matrix: (Units=GPa)
#
#
# Indices 1 2 3 4 5 6 
#
# 1 55.7569 39.5932 20.0913 0.0000 0.0000 0.0000
# 2 39.5932 144.6706 62.1735 0.0000 0.0000 0.0000
# 3 20.0913 62.1735 77.5527 0.0000 0.0000 0.0000
# 4 0.0000 0.0000 0.0000 25.7095 0.0000 0.0000
# 5 0.0000 0.0000 0.0000 0.0000 16.3329 0.0000
# 6 0.0000 0.0000 0.0000 0.0000 0.0000 13.1493
#
#
#
# Elastic Compliance Matrix: (Units=1/GPa)
#
#
# Indices 1 2 3 4 5 6 
#
# 1 0.022354 -0.005536 -0.001353 0.000000 0.000000 0.000000
# 2 -0.005536 0.011917 -0.008119 0.000000 0.000000 0.000000
# 3 -0.001353 -0.008119 0.019754 0.000000 0.000000 0.000000
# 4 0.000000 0.000000 0.000000 0.038896 0.000000 0.000000
# 5 0.000000 0.000000 0.000000 0.000000 0.061226 0.000000
# 6 0.000000 0.000000 0.000000 0.000000 0.000000 0.076050
#
#
# Mechanical properties :
#
#
# Convention : Reuss Voigt Hill
#
# Bulk Modulus (GPa) = 41.65278 57.96624 49.80951
# Shear Modulus (GPa) = 18.64166 21.44647 20.04407
#
# Velocity S-wave (km/s) = 3.53459 3.79118 3.66513
# Velocity P-wave (km/s) = 6.67629 7.61657 7.16188
#
# Compressibility (1/GPa) = 0.02400800
#
# Stress axis : x y z
#
# Youngs Moduli (GPa) = 44.73506 83.91490 50.62245
#
# Poissons Ratio (x) = 0.46459 0.06847
# Poissons Ratio (y) = 0.24767 0.41102
# Poissons Ratio (z) = 0.06051 0.68133
#
# Static dielectric constant tensor:
#      x y z
#    x 1.488960 0.000000 0.000000 
#    y 0.000000 1.512990 0.000000 
#    z 0.000000 0.000000 1.485710 
# 
# From -- ./inp_files/37652.got.cif
#   From: 2010.05.17/outbox.cif.g08.bks.cpg/sg74_19_cif.got.tgz:37652.got - 2010.06.03 17:57:02.
