data_PCOD9536540
_publ_section_title
;
Structure prediction by ZEFSAII (Michael W. Deem and Ramdas Pophale) SiO2 
 PCOD9536540
Probable space group: I M M A
;
_chemical_formula_sum "Si O2"
_cell_formula_units_Z 64
_cell_length_a 21.037862
_cell_length_b 8.623833
_cell_length_c 17.954448
_cell_angle_alpha 90.000000
_cell_angle_beta 90.000000
_cell_angle_gamma 90.000000
_cell_volume 3257.421791
_symmetry_space_group_name_H-M "I M M A"
_symmetry_group_IT_number 74
_symmetry_cell_setting 'orthorhombic'
loop_
_space_group_symop_operation_xyz
x,y,z
-x,1/2-y,z
x,-y,-z
-x,1/2+y,-z
-x,-y,-z
x,1/2+y,-z
-x,y,z
x,1/2-y,z
1/2+x,1/2+y,1/2+z
1/2-x,-y,1/2+z
1/2+x,1/2-y,1/2-z
1/2-x,y,1/2-z
1/2-x,1/2-y,1/2-z
1/2+x,y,1/2-z
1/2-x,1/2+y,1/2+z
1/2+x,-y,1/2+z
loop_
_atom_site_type_symbol
_atom_site_label
_atom_site_fract_x
_atom_site_fract_y
_atom_site_fract_z
Si Si1 0.500000 0.070629 0.615622
Si Si2 0.229573 0.435304 0.423053
Si Si3 0.500000 0.929382 0.202878
Si Si4 0.865785 0.935517 0.707516
Si Si5 0.362368 0.063530 0.625860
O O1 0.500000 0.250000 0.590764
O O2 0.500000 0.069938 0.706289
O O3 0.430961 0.002591 0.596030
O O4 0.202200 0.500000 0.500000
O O5 0.230904 0.250000 0.425339
O O6 0.187527 0.482585 0.351913
O O7 0.300888 0.497926 0.414277
O O8 0.500000 0.750000 0.179703
O O9 0.564499 0.014058 0.179692
O O10 0.863253 0.750000 0.717353
O O11 0.856286 0.014204 0.787666
O O12 0.363418 0.250000 0.621533
#
# Coordination Sequence:
#
# PCOD9536540 Si02
#       5
#     8  16   8  16  16
#     4   7  14  29  50  79 108 133 167 212 258 309
#     4  11  24  39  54  76 108 145 185 227 272 323
#     4   9  17  31  54  83 110 137 175 220 267 321
#     4  10  20  35  56  82 111 141 177 223 272 322
#     4  10  19  34  58  84 110 141 179 221 267 323
#
# _framework density 19.647441000000001
#
# number of rings (size 3 to 8) (size 9 to 14) (size 15 to 20)
#    0.000    2.250    0.000    4.875    0.000    7.000 
#    0.000    3.125    0.000    0.000    0.000    0.000 
#    0.000    0.000    0.000    0.000    0.000    0.000 
#
# Total GULP energy -178603.915820 kJ/mol
# GULP energy per Si atom -5581.372369 kJ/mol
# Density = 1.960272 g / cm^3
# Si number density = 19.647441 Si / 1000 Ang^3
#
#
#
# Elastic Constant Matrix: (Units=GPa)
#
#
# Indices 1 2 3 4 5 6 
#
# 1 102.5190 10.9777 27.3283 0.0000 0.0000 0.0000
# 2 10.9777 34.2997 8.5562 0.0000 0.0000 0.0000
# 3 27.3283 8.5562 61.4384 0.0000 0.0000 0.0000
# 4 0.0000 0.0000 0.0000 23.5787 0.0000 0.0000
# 5 0.0000 0.0000 0.0000 0.0000 -20.7354 0.0000
# 6 0.0000 0.0000 0.0000 0.0000 0.0000 26.0049
#
#
#
# Elastic Compliance Matrix: (Units=1/GPa)
#
#
# Indices 1 2 3 4 5 6 
#
# 1 0.011260 -0.002439 -0.004669 0.000000 0.000000 0.000000
# 2 -0.002439 0.030732 -0.003195 0.000000 0.000000 0.000000
# 3 -0.004669 -0.003195 0.018798 0.000000 0.000000 0.000000
# 4 0.000000 0.000000 0.000000 0.042411 0.000000 0.000000
# 5 0.000000 0.000000 0.000000 0.000000 -0.048227 0.000000
# 6 0.000000 0.000000 0.000000 0.000000 0.000000 0.038454
#
#
# Mechanical properties :
#
#
# Convention : Reuss Voigt Hill
#
# Bulk Modulus (GPa) = 24.88513 32.44240 28.66376
# Shear Modulus (GPa) = 39.23719 15.86265 27.54992
#
# Velocity S-wave (km/s) = 4.47370 2.84450 3.74868
# Velocity P-wave (km/s) = 6.27524 5.22842 5.77560
#
# Compressibility (1/GPa) = 0.04018464
#
# Stress axis : x y z
#
# Youngs Moduli (GPa) = 88.80954 32.53891 53.19669
#
# Poissons Ratio (x) = 0.07937 0.24837
# Poissons Ratio (y) = 0.21662 0.16996
# Poissons Ratio (z) = 0.41464 0.10396
#
# Static dielectric constant tensor:
#      x y z
#    x 1.721290 0.000000 0.000000 
#    y 0.000000 1.661520 0.000000 
#    z 0.000000 0.000000 1.681770 
# 
# From -- ./inp_files/39080.got.cif
#   From: 2010.05.17/outbox.cif.g08.bks.cpg/sg74_20_cif.got.tgz:39080.got - 2010.06.03 17:57:02.
