data_PCOD9536946
_publ_section_title
;
Structure prediction by ZEFSAII (Michael W. Deem and Ramdas Pophale) SiO2 
 PCOD9536946
Probable space group: I M M A
;
_chemical_formula_sum "Si O2"
_cell_formula_units_Z 96
_cell_length_a 17.773793
_cell_length_b 26.990405
_cell_length_c 11.339149
_cell_angle_alpha 90.000000
_cell_angle_beta 90.000000
_cell_angle_gamma 90.000000
_cell_volume 5439.637779
_symmetry_space_group_name_H-M "I M M A"
_symmetry_group_IT_number 74
_symmetry_cell_setting 'orthorhombic'
loop_
_space_group_symop_operation_xyz
x,y,z
-x,1/2-y,z
x,-y,-z
-x,1/2+y,-z
-x,-y,-z
x,1/2+y,-z
-x,y,z
x,1/2-y,z
1/2+x,1/2+y,1/2+z
1/2-x,-y,1/2+z
1/2+x,1/2-y,1/2-z
1/2-x,y,1/2-z
1/2-x,1/2-y,1/2-z
1/2+x,y,1/2-z
1/2-x,1/2+y,1/2+z
1/2+x,-y,1/2+z
loop_
_atom_site_type_symbol
_atom_site_label
_atom_site_fract_x
_atom_site_fract_y
_atom_site_fract_z
Si Si1 0.681209 0.380882 0.179112
Si Si2 0.212300 0.804706 0.480447
Si Si3 0.661839 0.623236 0.211019
Si Si4 0.616918 0.305046 0.601436
Si Si5 0.411394 0.058892 0.984365
Si Si6 0.585519 0.694299 0.670021
O O1 0.750000 0.405692 0.250000
O O2 0.632567 0.415612 0.093523
O O3 0.629733 0.349702 0.268234
O O4 0.717061 0.339285 0.093646
O O5 0.185144 0.750000 0.510098
O O6 0.162489 0.832171 0.384058
O O7 0.293736 0.801330 0.421287
O O8 0.750000 0.614102 0.250000
O O9 0.611906 0.646689 0.316070
O O10 0.626787 0.577872 0.137623
O O11 0.592765 0.250000 0.646202
O O12 0.584157 0.312082 0.471227
O O13 0.500000 0.072633 0.985049
O O14 0.405704 0.000000 0.000000
O O15 0.500000 0.694210 0.714073
O O16 0.617953 0.750000 0.690529
#
# Coordination Sequence:
#
# PCOD9536946 Si02
#       6
#    16  16  16  16  16  16
#     4  11  20  33  56  80 103 136 179 224 265 312
#     4   9  16  27  47  78 110 139 173 209 248 299
#     4   9  18  32  55  81 106 135 177 220 260 307
#     4   9  16  28  47  75 110 143 172 202 244 303
#     4  10  23  42  60  77 101 136 177 227 286 331
#     4  10  20  31  46  75 115 151 177 205 248 307
#
# _framework density 17.648233999999999
#
# number of rings (size 3 to 8) (size 9 to 14) (size 15 to 20)
#    0.000    2.333    1.667    1.500    0.000    4.000 
#    0.000    0.000    0.000    9.500    0.000    3.500 
#    0.000    0.000    0.000    0.000    0.000    0.000 
#
# Total GULP energy -267254.841534 kJ/mol
# GULP energy per Si atom -5567.809199 kJ/mol
# Density = 1.760807 g / cm^3
# Si number density = 17.648234 Si / 1000 Ang^3
#
#
#
# Elastic Constant Matrix: (Units=GPa)
#
#
# Indices 1 2 3 4 5 6 
#
# 1 64.0154 40.4301 29.6507 0.0000 0.0001 0.0000
# 2 40.4301 84.1156 39.9926 0.0000 0.0001 0.0000
# 3 29.6507 39.9926 77.7753 0.0000 0.0005 0.0000
# 4 0.0000 0.0000 0.0000 19.8568 0.0001 0.0000
# 5 0.0001 0.0001 0.0005 0.0001 -47.3016 0.0000
# 6 0.0000 0.0000 0.0000 0.0000 0.0000 11.1060
#
#
#
# Elastic Compliance Matrix: (Units=1/GPa)
#
#
# Indices 1 2 3 4 5 6 
#
# 1 0.023402 -0.009273 -0.004153 0.000000 0.000000 0.000000
# 2 -0.009273 0.019410 -0.006445 0.000000 0.000000 0.000000
# 3 -0.004153 -0.006445 0.017755 0.000000 0.000000 0.000000
# 4 0.000000 0.000000 0.000000 0.050360 0.000000 0.000000
# 5 0.000000 0.000000 0.000000 0.000000 -0.021141 0.000000
# 6 0.000000 0.000000 0.000000 0.000000 0.000000 0.090041
#
#
# Mechanical properties :
#
#
# Convention : Reuss Voigt Hill
#
# Bulk Modulus (GPa) = 48.02379 49.56146 48.79263
# Shear Modulus (GPa) = 22.07381 4.45445 13.26413
#
# Velocity S-wave (km/s) = 3.54045 1.59044 2.74448
# Velocity P-wave (km/s) = 6.63203 5.61396 6.14412
#
# Compressibility (1/GPa) = 0.02082301
#
# Stress axis : x y z
#
# Youngs Moduli (GPa) = 42.73200 51.51948 56.32167
#
# Poissons Ratio (x) = 0.47776 0.23391
# Poissons Ratio (y) = 0.39627 0.36302
# Poissons Ratio (z) = 0.17747 0.33207
#
# Static dielectric constant tensor:
#      x y z
#    x 1.633900 0.000000 0.000000 
#    y 0.000000 1.601390 0.000000 
#    z 0.000000 0.000000 1.630000 
# 
# From -- ./inp_files/22628.got.cif
#   From: 2010.05.17/outbox.cif.g08.bks.cpg/sg74_12_cif.got.tgz:22628.got - 2010.06.03 17:57:02.
