data_PCOD9536158
_publ_section_title
;
Structure prediction by ZEFSAII (Michael W. Deem and Ramdas Pophale) SiO2 
 PCOD9536158
Probable space group: I M M A
;
_chemical_formula_sum "Si O2"
_cell_formula_units_Z 96
_cell_length_a 18.347904
_cell_length_b 15.076341
_cell_length_c 18.668279
_cell_angle_alpha 90.000000
_cell_angle_beta 90.000000
_cell_angle_gamma 90.000000
_cell_volume 5164.005473
_symmetry_space_group_name_H-M "I M M A"
_symmetry_group_IT_number 74
_symmetry_cell_setting 'orthorhombic'
loop_
_space_group_symop_operation_xyz
x,y,z
-x,1/2-y,z
x,-y,-z
-x,1/2+y,-z
-x,-y,-z
x,1/2+y,-z
-x,y,z
x,1/2-y,z
1/2+x,1/2+y,1/2+z
1/2-x,-y,1/2+z
1/2+x,1/2-y,1/2-z
1/2-x,y,1/2-z
1/2-x,1/2-y,1/2-z
1/2+x,y,1/2-z
1/2-x,1/2+y,1/2+z
1/2+x,-y,1/2+z
loop_
_atom_site_type_symbol
_atom_site_label
_atom_site_fract_x
_atom_site_fract_y
_atom_site_fract_z
Si Si1 0.338784 0.033455 0.828601
Si Si2 0.836452 0.962540 0.166915
Si Si3 0.414557 0.855368 0.047240
Si Si4 0.660316 0.350508 0.104667
Si Si5 0.665178 0.654641 0.608253
Si Si6 0.917015 0.899333 0.030479
O O1 0.251366 0.044309 0.838260
O O2 0.357842 0.060550 0.747799
O O3 0.356575 0.929441 0.840653
O O4 0.378832 0.089697 0.888958
O O5 0.855323 0.066142 0.151451
O O6 0.874949 0.904945 0.105654
O O7 0.500000 0.875987 0.041056
O O8 0.406671 0.750000 0.060813
O O9 0.375342 0.873469 0.971644
O O10 0.637740 0.250000 0.124796
O O11 0.747860 0.349870 0.096756
O O12 0.648664 0.750000 0.643318
O O13 0.626320 0.651106 0.531353
O O14 0.000000 0.868224 0.038761
O O15 0.919217 0.000000 0.000000
#
# Coordination Sequence:
#
# PCOD9536158 Si02
#       6
#    16  16  16  16  16  16
#     4  10  19  33  53  75 103 137 168 201 250 305
#     4   9  19  33  49  74 104 132 165 204 247 300
#     4  10  21  36  53  74 100 131 171 215 252 291
#     4   9  18  32  52  78 104 131 166 207 248 296
#     4   9  17  31  52  75 100 131 165 203 248 297
#     4   9  17  30  47  66  92 127 165 204 243 284
#
# _framework density 18.590221
#
# number of rings (size 3 to 8) (size 9 to 14) (size 15 to 20)
#    0.000    2.667    0.000    1.500    0.000    5.667 
#    0.000    5.833    0.000    0.000    0.000    4.667 
#    0.000    0.000    0.000    0.000    0.000    0.000 
#
# Total GULP energy -267651.648478 kJ/mol
# GULP energy per Si atom -5576.076010 kJ/mol
# Density = 1.854791 g / cm^3
# Si number density = 18.590221 Si / 1000 Ang^3
#
#
#
# Elastic Constant Matrix: (Units=GPa)
#
#
# Indices 1 2 3 4 5 6 
#
# 1 9.4772 2.3817 7.8477 0.0000 0.0000 0.0000
# 2 2.3817 16.2299 -8.3221 0.0000 0.0000 0.0000
# 3 7.8477 -8.3221 57.5706 0.0000 0.0000 0.0000
# 4 0.0000 0.0000 0.0000 13.9398 0.0000 0.0000
# 5 0.0000 0.0000 0.0000 0.0000 -1.9953 0.0000
# 6 0.0000 0.0000 0.0000 0.0000 0.0000 14.8072
#
#
#
# Elastic Compliance Matrix: (Units=1/GPa)
#
#
# Indices 1 2 3 4 5 6 
#
# 1 0.131844 -0.030850 -0.022432 0.000000 0.000000 0.000000
# 2 -0.030850 0.073766 0.014869 0.000000 0.000000 0.000000
# 3 -0.022432 0.014869 0.022577 0.000000 0.000000 0.000000
# 4 0.000000 0.000000 0.000000 0.071737 0.000000 0.000000
# 5 0.000000 0.000000 0.000000 0.000000 -0.501171 0.000000
# 6 0.000000 0.000000 0.000000 0.000000 0.000000 0.067535
#
#
# Mechanical properties :
#
#
# Convention : Reuss Voigt Hill
#
# Bulk Modulus (GPa) = 6.60672 9.67691 8.14182
# Shear Modulus (GPa) = -777.24962 10.77503 -383.23729
#
# Velocity S-wave (km/s) = -20.46958 2.41012 -14.37350
# Velocity P-wave (km/s) = 23.56077 3.60022 16.46433
#
# Compressibility (1/GPa) = 0.15136095
#
# Stress axis : x y z
#
# Youngs Moduli (GPa) = 7.58474 13.55639 44.29278
#
# Poissons Ratio (x) = 0.41821 0.99356
# Poissons Ratio (y) = 0.23399 -0.65857
# Poissons Ratio (z) = 0.17014 -0.20156
#
# Static dielectric constant tensor:
#      x y z
#    x 1.624610 0.000000 0.000000 
#    y 0.000000 1.672320 0.000000 
#    z 0.000000 0.000000 1.602670 
# 
# From -- ./inp_files/44136.got.cif
#   From: 2010.05.17/outbox.cif.g08.bks.cpg/sg74_23_cif.got.tgz:44136.got - 2010.06.03 17:57:02.
