data_PCOD9536651
_publ_section_title
;
Structure prediction by ZEFSAII (Michael W. Deem and Ramdas Pophale) SiO2 
 PCOD9536651
Probable space group: I M M A
;
_chemical_formula_sum "Si O2"
_cell_formula_units_Z 100
_cell_length_a 26.217684
_cell_length_b 7.632701
_cell_length_c 20.189269
_cell_angle_alpha 90.000000
_cell_angle_beta 90.000000
_cell_angle_gamma 90.000000
_cell_volume 4040.109807
_symmetry_space_group_name_H-M "I M M A"
_symmetry_group_IT_number 74
_symmetry_cell_setting 'orthorhombic'
loop_
_space_group_symop_operation_xyz
x,y,z
-x,1/2-y,z
x,-y,-z
-x,1/2+y,-z
-x,-y,-z
x,1/2+y,-z
-x,y,z
x,1/2-y,z
1/2+x,1/2+y,1/2+z
1/2-x,-y,1/2+z
1/2+x,1/2-y,1/2-z
1/2-x,y,1/2-z
1/2-x,1/2-y,1/2-z
1/2+x,y,1/2-z
1/2-x,1/2+y,1/2+z
1/2+x,-y,1/2+z
loop_
_atom_site_type_symbol
_atom_site_label
_atom_site_fract_x
_atom_site_fract_y
_atom_site_fract_z
Si Si1 0.831503 0.554545 0.603074
Si Si2 0.687093 0.950622 0.245364
Si Si3 0.071718 0.443835 0.791601
Si Si4 0.276184 0.960650 0.612275
Si Si5 0.610646 0.458523 0.425744
Si Si6 0.555710 0.539382 0.921819
Si Si7 0.000000 0.250000 0.253532
O O1 0.835973 0.750000 0.572979
O O2 0.820068 0.566602 0.680869
O O3 0.777179 0.471914 0.580776
O O4 0.887973 0.471328 0.598207
O O5 0.696077 0.750000 0.224358
O O6 0.631097 0.957050 0.276771
O O7 0.721534 0.998182 0.308697
O O8 0.054848 0.250000 0.773043
O O9 0.071670 0.468481 0.871093
O O10 0.043449 0.596326 0.753675
O O11 0.274983 0.750000 0.605116
O O12 0.330381 0.024769 0.583330
O O13 0.594762 0.500000 0.500000
O O14 0.612298 0.250000 0.414738
O O15 0.500000 0.476457 0.895131
O O16 0.555527 0.750000 0.909048
O O17 0.553960 0.500000 0.000000
#
# Coordination Sequence:
#
# PCOD9536651 Si02
#       7
#    16  16  16  16  16  16   4
#     4  10  20  34  55  83 114 147 195 240 282 347
#     4  10  21  36  55  83 116 151 185 233 292 348
#     4  10  22  40  60  86 119 152 198 247 299 353
#     4   9  19  34  54  80 112 153 189 232 292 352
#     4  10  19  35  58  81 112 154 195 239 301 364
#     4   9  19  37  57  78 107 148 189 233 285 338
#     4  12  22  40  66  86 112 160 198 248 302 354
#
# _framework density 24.751802000000001
#
# number of rings (size 3 to 8) (size 9 to 14) (size 15 to 20)
#    0.000    2.240    0.800    1.680    2.240    4.480 
#    1.440    0.400    0.000    0.000    0.000    0.000 
#    0.000    0.000    0.000    0.000    0.000    0.000 
#
# Total GULP energy -278489.383615 kJ/mol
# GULP energy per Si atom -5569.787672 kJ/mol
# Density = 2.469547 g / cm^3
# Si number density = 24.751802 Si / 1000 Ang^3
#
#
#
# Elastic Constant Matrix: (Units=GPa)
#
#
# Indices 1 2 3 4 5 6 
#
# 1 158.2450 22.7914 -12.3741 0.0000 0.0000 0.0000
# 2 22.7914 104.3796 -10.9956 0.0000 0.0000 0.0000
# 3 -12.3741 -10.9956 54.4990 0.0000 0.0000 0.0000
# 4 0.0000 0.0000 0.0000 13.9647 0.0000 0.0000
# 5 0.0000 0.0000 0.0000 0.0000 16.5348 0.0000
# 6 0.0000 0.0000 0.0000 0.0000 0.0000 14.2930
#
#
#
# Elastic Compliance Matrix: (Units=1/GPa)
#
#
# Indices 1 2 3 4 5 6 
#
# 1 0.006605 -0.001312 0.001235 0.000000 0.000000 0.000000
# 2 -0.001312 0.010049 0.001730 0.000000 0.000000 0.000000
# 3 0.001235 0.001730 0.018978 0.000000 0.000000 0.000000
# 4 0.000000 0.000000 0.000000 0.071609 0.000000 0.000000
# 5 0.000000 0.000000 0.000000 0.000000 0.060478 0.000000
# 6 0.000000 0.000000 0.000000 0.000000 0.000000 0.069964
#
#
# Mechanical properties :
#
#
# Convention : Reuss Voigt Hill
#
# Bulk Modulus (GPa) = 25.68246 35.10745 30.39495
# Shear Modulus (GPa) = 20.21363 30.13865 25.17614
#
# Velocity S-wave (km/s) = 2.86081 3.49325 3.19273
# Velocity P-wave (km/s) = 4.61637 5.52132 5.08900
#
# Compressibility (1/GPa) = 0.03893708
#
# Stress axis : x y z
#
# Youngs Moduli (GPa) = 151.40376 99.51133 52.69173
#
# Poissons Ratio (x) = 0.13057 -0.06507
# Poissons Ratio (y) = 0.19866 -0.09113
# Poissons Ratio (z) = -0.18697 -0.17211
#
# Static dielectric constant tensor:
#      x y z
#    x 2.102070 0.000000 0.000000 
#    y 0.000000 1.932000 0.000000 
#    z 0.000000 0.000000 1.993870 
# 
# From -- ./inp_files/55224.got.cif
#   From: 2010.05.17/outbox.cif.g08.bks.cpg/sg74_28_cif.got.tgz:55224.got - 2010.06.03 17:57:02.
