data_PCOD9536317
_publ_section_title
;
Structure prediction by ZEFSAII (Michael W. Deem and Ramdas Pophale) SiO2 
 PCOD9536317
Probable space group: I M M A
;
_chemical_formula_sum "Si O2"
_cell_formula_units_Z 120
_cell_length_a 21.044862
_cell_length_b 22.242037
_cell_length_c 11.347709
_cell_angle_alpha 90.000000
_cell_angle_beta 90.000000
_cell_angle_gamma 90.000000
_cell_volume 5311.642429
_symmetry_space_group_name_H-M "I M M A"
_symmetry_group_IT_number 74
_symmetry_cell_setting 'orthorhombic'
loop_
_space_group_symop_operation_xyz
x,y,z
-x,1/2-y,z
x,-y,-z
-x,1/2+y,-z
-x,-y,-z
x,1/2+y,-z
-x,y,z
x,1/2-y,z
1/2+x,1/2+y,1/2+z
1/2-x,-y,1/2+z
1/2+x,1/2-y,1/2-z
1/2-x,y,1/2-z
1/2-x,1/2-y,1/2-z
1/2+x,y,1/2-z
1/2-x,1/2+y,1/2+z
1/2+x,-y,1/2+z
loop_
_atom_site_type_symbol
_atom_site_label
_atom_site_fract_x
_atom_site_fract_y
_atom_site_fract_z
Si Si1 0.614958 0.608408 0.663554
Si Si2 0.925482 0.481863 0.749289
Si Si3 0.750000 0.137631 0.250000
Si Si4 0.429507 0.420708 0.974798
Si Si5 0.237011 0.317518 0.513138
Si Si6 0.143870 0.617203 0.100914
Si Si7 0.610507 0.184529 0.824769
Si Si8 0.075774 0.182995 0.360731
O O1 0.578867 0.549907 0.708112
O O2 0.688426 0.601919 0.704809
O O3 0.609583 0.614761 0.524209
O O4 0.590271 0.668757 0.725822
O O5 0.905498 0.474317 0.610840
O O6 0.877194 0.442290 0.827738
O O7 0.000000 0.463945 0.760048
O O8 0.769797 0.172966 0.370950
O O9 0.500000 0.436034 0.017019
O O10 0.432032 0.368418 0.874710
O O11 0.399185 0.378366 0.075594
O O12 0.264517 0.250000 0.526640
O O13 0.283390 0.368771 0.565143
O O14 0.174873 0.318543 0.596388
O O15 0.125299 0.670243 0.190024
O O16 0.582019 0.250000 0.839351
O O17 0.099647 0.250000 0.393848
O O18 0.000000 0.183712 0.381320
#
# Coordination Sequence:
#
# PCOD9536317 Si02
#       8
#    16  16   8  16  16  16  16  16
#     4  11  23  40  59  84 118 159 206 252 305 371
#     4  10  22  42  66  87 113 158 209 260 314 372
#     4  10  23  38  56  88 122 156 203 246 316 370
#     4   9  19  36  58  87 118 151 197 249 305 365
#     4  10  20  37  61  87 121 161 203 248 303 376
#     4  10  22  37  57  84 115 152 205 256 306 356
#     4  10  19  33  56  86 118 157 203 247 303 367
#     4  10  21  37  60  90 124 159 195 245 307 372
#
# _framework density 22.591881999999998
#
# number of rings (size 3 to 8) (size 9 to 14) (size 15 to 20)
#    0.000    2.000    0.000    3.000    0.000    8.267 
#    4.800    2.000    2.933    1.200    0.000    0.000 
#    0.000    0.000    0.000    0.000    0.000    0.000 
#
# Total GULP energy -334342.006799 kJ/mol
# GULP energy per Si atom -5572.366780 kJ/mol
# Density = 2.254046 g / cm^3
# Si number density = 22.591882 Si / 1000 Ang^3
#
#
#
# Elastic Constant Matrix: (Units=GPa)
#
#
# Indices 1 2 3 4 5 6 
#
# 1 62.6602 28.2009 24.6459 0.0000 0.0000 0.0000
# 2 28.2009 74.1965 36.4200 0.0000 0.0000 0.0000
# 3 24.6459 36.4200 171.0210 0.0000 0.0000 0.0000
# 4 0.0000 0.0000 0.0000 22.7333 0.0000 0.0000
# 5 0.0000 0.0000 0.0000 0.0000 26.8671 0.0000
# 6 0.0000 0.0000 0.0000 0.0000 0.0000 29.2020
#
#
#
# Elastic Compliance Matrix: (Units=1/GPa)
#
#
# Indices 1 2 3 4 5 6 
#
# 1 0.019539 -0.006750 -0.001378 0.000000 0.000000 0.000000
# 2 -0.006750 0.017383 -0.002729 0.000000 0.000000 0.000000
# 3 -0.001378 -0.002729 0.006627 0.000000 0.000000 0.000000
# 4 0.000000 0.000000 0.000000 0.043988 0.000000 0.000000
# 5 0.000000 0.000000 0.000000 0.000000 0.037220 0.000000
# 6 0.000000 0.000000 0.000000 0.000000 0.000000 0.034244
#
#
# Mechanical properties :
#
#
# Convention : Reuss Voigt Hill
#
# Bulk Modulus (GPa) = 45.79943 54.04570 49.92256
# Shear Modulus (GPa) = 26.59653 30.33455 28.46554
#
# Velocity S-wave (km/s) = 3.43484 3.66829 3.55348
# Velocity P-wave (km/s) = 6.00395 6.47428 6.24355
#
# Compressibility (1/GPa) = 0.02183434
#
# Stress axis : x y z
#
# Youngs Moduli (GPa) = 51.17943 57.52804 150.89700
#
# Poissons Ratio (x) = 0.38831 0.20799
# Poissons Ratio (y) = 0.34546 0.41181
# Poissons Ratio (z) = 0.07054 0.15700
#
# Static dielectric constant tensor:
#      x y z
#    x 1.865040 0.000000 0.000000 
#    y 0.000000 1.869040 0.000000 
#    z 0.000000 0.000000 1.900580 
# 
# From -- ./inp_files/25458.got.cif
#   From: 2010.05.17/outbox.cif.g08.bks.cpg/sg74_13_cif.got.tgz:25458.got - 2010.06.03 17:57:02.
