data_PCOD9536542
_publ_section_title
;
Structure prediction by ZEFSAII (Michael W. Deem and Ramdas Pophale) SiO2 
 PCOD9536542
Probable space group: I M M A
;
_chemical_formula_sum "Si O2"
_cell_formula_units_Z 96
_cell_length_a 18.557785
_cell_length_b 23.096765
_cell_length_c 12.136387
_cell_angle_alpha 90.000000
_cell_angle_beta 90.000000
_cell_angle_gamma 90.000000
_cell_volume 5201.956439
_symmetry_space_group_name_H-M "I M M A"
_symmetry_group_IT_number 74
_symmetry_cell_setting 'orthorhombic'
loop_
_space_group_symop_operation_xyz
x,y,z
-x,1/2-y,z
x,-y,-z
-x,1/2+y,-z
-x,-y,-z
x,1/2+y,-z
-x,y,z
x,1/2-y,z
1/2+x,1/2+y,1/2+z
1/2-x,-y,1/2+z
1/2+x,1/2-y,1/2-z
1/2-x,y,1/2-z
1/2-x,1/2-y,1/2-z
1/2+x,y,1/2-z
1/2-x,1/2+y,1/2+z
1/2+x,-y,1/2+z
loop_
_atom_site_type_symbol
_atom_site_label
_atom_site_fract_x
_atom_site_fract_y
_atom_site_fract_z
Si Si1 0.216347 0.510191 0.125026
Si Si2 0.178935 0.137892 0.802939
Si Si3 0.916505 0.313756 0.987756
Si Si4 0.415168 0.923862 0.642661
Si Si5 0.585911 0.940415 0.882087
Si Si6 0.086569 0.076023 0.619466
O O1 0.250000 0.494617 0.250000
O O2 0.203877 0.578795 0.135484
O O3 0.141226 0.474633 0.117487
O O4 0.249638 0.500000 0.000000
O O5 0.250000 0.164786 0.750000
O O6 0.136003 0.177920 0.885587
O O7 0.126346 0.114841 0.707405
O O8 0.906584 0.250000 0.038489
O O9 0.000000 0.317678 0.951320
O O10 0.904643 0.367774 0.068299
O O11 0.500000 0.942357 0.634332
O O12 0.400218 0.907764 0.769717
O O13 0.500000 0.943524 0.897843
O O14 0.605985 0.007916 0.865848
O O15 0.612004 0.912118 0.994601
O O16 0.000000 0.081645 0.631186
#
# Coordination Sequence:
#
# PCOD9536542 Si02
#       6
#    16  16  16  16  16  16
#     4  11  23  37  54  86 123 158 187 225 289 360
#     4  11  22  34  52  83 115 150 186 222 285 346
#     4  10  22  40  61  81 104 142 197 253 294 328
#     4  10  19  34  58  84 111 145 189 240 292 339
#     4   8  15  27  48  79 109 143 178 216 273 340
#     4   9  16  29  49  77 113 147 179 216 269 344
#
# _framework density 18.454595999999999
#
# number of rings (size 3 to 8) (size 9 to 14) (size 15 to 20)
#    0.000    2.167    3.333    1.500    0.000    4.000 
#    0.000    0.000    0.000    1.500    0.000    4.667 
#    0.000    0.000    0.000    0.000    0.000    0.000 
#
# Total GULP energy -267322.502164 kJ/mol
# GULP energy per Si atom -5569.218795 kJ/mol
# Density = 1.841259 g / cm^3
# Si number density = 18.454596 Si / 1000 Ang^3
#
#
#
# Elastic Constant Matrix: (Units=GPa)
#
#
# Indices 1 2 3 4 5 6 
#
# 1 73.1968 20.4964 42.9617 0.0000 0.0000 0.0000
# 2 20.4964 34.8099 12.3849 0.0000 0.0000 0.0000
# 3 42.9617 12.3849 117.7317 0.0000 0.0000 0.0000
# 4 0.0000 0.0000 0.0000 10.8447 0.0000 0.0000
# 5 0.0000 0.0000 0.0000 0.0000 22.2484 0.0000
# 6 0.0000 0.0000 0.0000 0.0000 0.0000 14.9863
#
#
#
# Elastic Compliance Matrix: (Units=1/GPa)
#
#
# Indices 1 2 3 4 5 6 
#
# 1 0.020040 -0.009555 -0.006307 0.000000 0.000000 0.000000
# 2 -0.009555 0.034401 -0.000132 0.000000 0.000000 0.000000
# 3 -0.006307 -0.000132 0.010809 0.000000 0.000000 0.000000
# 4 0.000000 0.000000 0.000000 0.092211 0.000000 0.000000
# 5 0.000000 0.000000 0.000000 0.000000 0.044947 0.000000
# 6 0.000000 0.000000 0.000000 0.000000 0.000000 0.066728
#
#
# Mechanical properties :
#
#
# Convention : Reuss Voigt Hill
#
# Bulk Modulus (GPa) = 30.06602 41.93602 36.00102
# Shear Modulus (GPa) = 16.01476 19.60890 17.81183
#
# Velocity S-wave (km/s) = 2.94903 3.26321 3.11009
# Velocity P-wave (km/s) = 5.28422 6.08040 5.69624
#
# Compressibility (1/GPa) = 0.03326014
#
# Stress axis : x y z
#
# Youngs Moduli (GPa) = 49.90134 29.06915 92.51174
#
# Poissons Ratio (x) = 0.27777 0.58352
# Poissons Ratio (y) = 0.47682 0.01221
# Poissons Ratio (z) = 0.31475 0.00384
#
# Static dielectric constant tensor:
#      x y z
#    x 1.705820 0.000000 0.000000 
#    y 0.000000 1.588520 0.000000 
#    z 0.000000 0.000000 1.708620 
# 
# From -- ./inp_files/24098.got.cif
#   From: 2010.05.17/outbox.cif.g08.bks.cpg/sg74_13_cif.got.tgz:24098.got - 2010.06.03 17:57:02.
