data_PCOD9536917
_publ_section_title
;
Structure prediction by ZEFSAII (Michael W. Deem and Ramdas Pophale) SiO2 
 PCOD9536917
Probable space group: I M M A
;
_chemical_formula_sum "Si O2"
_cell_formula_units_Z 112
_cell_length_a 14.918505
_cell_length_b 14.476702
_cell_length_c 26.969368
_cell_angle_alpha 90.000000
_cell_angle_beta 90.000000
_cell_angle_gamma 90.000000
_cell_volume 5824.594666
_symmetry_space_group_name_H-M "I M M A"
_symmetry_group_IT_number 74
_symmetry_cell_setting 'orthorhombic'
loop_
_space_group_symop_operation_xyz
x,y,z
-x,1/2-y,z
x,-y,-z
-x,1/2+y,-z
-x,-y,-z
x,1/2+y,-z
-x,y,z
x,1/2-y,z
1/2+x,1/2+y,1/2+z
1/2-x,-y,1/2+z
1/2+x,1/2-y,1/2-z
1/2-x,y,1/2-z
1/2-x,1/2-y,1/2-z
1/2+x,y,1/2-z
1/2-x,1/2+y,1/2+z
1/2+x,-y,1/2+z
loop_
_atom_site_type_symbol
_atom_site_label
_atom_site_fract_x
_atom_site_fract_y
_atom_site_fract_z
Si Si1 0.608110 0.855758 0.874878
Si Si2 0.604763 0.465928 0.328528
Si Si3 0.893405 0.639353 0.925013
Si Si4 0.897803 0.637004 0.514556
Si Si5 0.608093 0.355994 0.622489
Si Si6 0.351452 0.645350 0.767137
Si Si7 0.788471 0.862562 0.023234
O O1 0.500000 0.853160 0.871558
O O2 0.642730 0.750000 0.875703
O O3 0.626257 0.894999 0.929402
O O4 0.641592 0.894744 0.822625
O O5 0.500000 0.468011 0.339861
O O6 0.642431 0.404428 0.373789
O O7 0.635326 0.571224 0.335234
O O8 0.610803 0.420409 0.275090
O O9 0.884334 0.750000 0.920713
O O10 0.000000 0.620799 0.932399
O O11 0.838810 0.607307 0.973139
O O12 0.899389 0.750000 0.516370
O O13 0.815879 0.609439 0.479307
O O14 0.000000 0.609032 0.501977
O O15 0.500000 0.356921 0.615067
O O16 0.633067 0.250000 0.633123
O O17 0.656644 0.388158 0.572116
O O18 0.391276 0.750000 0.767046
O O19 0.250000 0.654713 0.750000
O O20 0.790244 0.750000 0.022363
#
# Coordination Sequence:
#
# PCOD9536917 Si02
#       7
#    16  16  16  16  16  16  16
#     4   8  14  25  40  59  88 127 163 191 224 274
#     4  10  20  32  47  69  99 132 164 202 246 294
#     4   9  17  27  41  65  97 129 159 192 233 289
#     4   8  14  24  40  65  94 125 164 202 235 282
#     4   9  18  33  51  71  95 127 169 211 252 298
#     4  10  20  30  45  70 102 134 162 194 234 292
#     4   9  16  26  44  66  95 131 165 203 247 292
#
# _framework density 19.228805999999999
#
# number of rings (size 3 to 8) (size 9 to 14) (size 15 to 20)
#    0.000    3.000    0.000    2.143    2.000    3.714 
#    0.000    2.143    0.000    0.429    0.000    4.000 
#    0.000    0.000    0.000    0.000    0.000    0.000 
#
# Total GULP energy -311966.355224 kJ/mol
# GULP energy per Si atom -5570.827772 kJ/mol
# Density = 1.918504 g / cm^3
# Si number density = 19.228806 Si / 1000 Ang^3
#
#
#
# Elastic Constant Matrix: (Units=GPa)
#
#
# Indices 1 2 3 4 5 6 
#
# 1 44.3354 18.3373 11.1720 0.0000 0.0000 0.0000
# 2 18.3373 58.1665 22.6344 0.0000 0.0000 0.0000
# 3 11.1720 22.6344 31.8962 0.0000 0.0000 0.0000
# 4 0.0000 0.0000 0.0000 5.9852 0.0000 0.0000
# 5 0.0000 0.0000 0.0000 0.0000 16.8507 0.0000
# 6 0.0000 0.0000 0.0000 0.0000 0.0000 4.5048
#
#
#
# Elastic Compliance Matrix: (Units=1/GPa)
#
#
# Indices 1 2 3 4 5 6 
#
# 1 0.026421 -0.006532 -0.004619 0.000000 0.000000 0.000000
# 2 -0.006532 0.025365 -0.015712 0.000000 0.000000 0.000000
# 3 -0.004619 -0.015712 0.044119 0.000000 0.000000 0.000000
# 4 0.000000 0.000000 0.000000 0.167080 0.000000 0.000000
# 5 0.000000 0.000000 0.000000 0.000000 0.059345 0.000000
# 6 0.000000 0.000000 0.000000 0.000000 0.000000 0.221987
#
#
# Mechanical properties :
#
#
# Convention : Reuss Voigt Hill
#
# Bulk Modulus (GPa) = 23.70818 26.52062 25.11440
# Shear Modulus (GPa) = 8.16856 10.95175 9.56015
#
# Velocity S-wave (km/s) = 2.06332 2.38911 2.23217
# Velocity P-wave (km/s) = 4.24649 4.62953 4.44214
#
# Compressibility (1/GPa) = 0.04217953
#
# Stress axis : x y z
#
# Youngs Moduli (GPa) = 37.84875 39.42392 22.66585
#
# Poissons Ratio (x) = 0.25752 0.10469
# Poissons Ratio (y) = 0.24723 0.35613
# Poissons Ratio (z) = 0.17482 0.61943
#
# Static dielectric constant tensor:
#      x y z
#    x 1.761310 0.000000 0.000000 
#    y 0.000000 1.726140 0.000000 
#    z 0.000000 0.000000 1.672930 
# 
# From -- ./inp_files/67247.got.cif
#   From: 2010.05.17/outbox.cif.g08.bks.cpg/sg74_34_cif.got.tgz:67247.got - 2010.06.03 17:57:02.
