data_PCOD9536513
_publ_section_title
;
Structure prediction by ZEFSAII (Michael W. Deem and Ramdas Pophale) SiO2 
 PCOD9536513
Probable space group: I M M A
;
_chemical_formula_sum "Si O2"
_cell_formula_units_Z 116
_cell_length_a 26.301149
_cell_length_b 8.017470
_cell_length_c 26.329194
_cell_angle_alpha 90.000000
_cell_angle_beta 90.000000
_cell_angle_gamma 90.000000
_cell_volume 5552.002202
_symmetry_space_group_name_H-M "I M M A"
_symmetry_group_IT_number 74
_symmetry_cell_setting 'orthorhombic'
loop_
_space_group_symop_operation_xyz
x,y,z
-x,1/2-y,z
x,-y,-z
-x,1/2+y,-z
-x,-y,-z
x,1/2+y,-z
-x,y,z
x,1/2-y,z
1/2+x,1/2+y,1/2+z
1/2-x,-y,1/2+z
1/2+x,1/2-y,1/2-z
1/2-x,y,1/2-z
1/2-x,1/2-y,1/2-z
1/2+x,y,1/2-z
1/2-x,1/2+y,1/2+z
1/2+x,-y,1/2+z
loop_
_atom_site_type_symbol
_atom_site_label
_atom_site_fract_x
_atom_site_fract_y
_atom_site_fract_z
Si Si1 0.647622 0.560299 0.726707
Si Si2 0.810205 0.050664 0.946700
Si Si3 0.856929 0.056505 0.664678
Si Si4 0.000000 0.750000 0.449665
Si Si5 0.554639 0.562278 0.907726
Si Si6 0.741376 0.049061 0.659449
Si Si7 0.925416 0.940944 0.944802
Si Si8 0.444867 0.556884 0.336224
O O1 0.650191 0.750000 0.743728
O O2 0.631562 0.454202 0.775512
O O3 0.701471 0.512361 0.701563
O O4 0.603650 0.538668 0.684977
O O5 0.819173 0.250000 0.946384
O O6 0.779902 0.006809 0.896174
O O7 0.864321 0.959680 0.945167
O O8 0.784871 0.000000 0.000000
O O9 0.856538 0.250000 0.648710
O O10 0.799232 0.988630 0.662260
O O11 0.898209 0.966349 0.629510
O O12 0.043930 0.597878 0.443819
O O13 0.500000 0.562122 0.878080
O O14 0.557896 0.750000 0.931340
O O15 0.742379 0.250000 0.664544
O O16 0.939489 0.750000 0.936697
O O17 0.943831 0.045279 0.897073
O O18 0.942716 0.000000 0.000000
O O19 0.500000 0.493754 0.318397
O O20 0.439753 0.750000 0.321524
#
# Coordination Sequence:
#
# PCOD9536513 Si02
#       8
#    16  16  16   4  16  16  16  16
#     4  12  25  38  54  77 107 142 184 233 284 342
#     4  10  19  34  57  83 111 144 182 223 275 337
#     4  11  21  37  57  79 109 149 190 231 282 331
#     4   8  14  32  52  74 106 148 172 228 270 322
#     4   9  17  31  52  78 106 140 183 227 266 319
#     4  10  22  38  58  80 109 147 185 226 275 339
#     4  11  21  35  58  83 107 139 176 226 285 344
#     4  11  24  42  60  78 103 140 186 237 290 344
#
# _framework density 20.893362
#
# number of rings (size 3 to 8) (size 9 to 14) (size 15 to 20)
#    0.414    1.103    2.069    4.966    0.000    5.241 
#    0.000    0.000    0.000    0.000    0.000    0.000 
#    0.000    0.552    0.000    2.345    0.000    4.690 
#
# Total GULP energy -323118.907858 kJ/mol
# GULP energy per Si atom -5571.015653 kJ/mol
# Density = 2.084581 g / cm^3
# Si number density = 20.893362 Si / 1000 Ang^3
#
#
#
# Elastic Constant Matrix: (Units=GPa)
#
#
# Indices 1 2 3 4 5 6 
#
# 1 104.4280 21.1260 12.3998 0.0000 0.0000 0.0000
# 2 21.1260 96.4407 7.5837 0.0000 0.0000 0.0000
# 3 12.3998 7.5837 43.6504 0.0000 0.0000 0.0000
# 4 0.0000 0.0000 0.0000 22.2594 0.0000 0.0000
# 5 0.0000 0.0000 0.0000 0.0000 85.3858 0.0000
# 6 0.0000 0.0000 0.0000 0.0000 0.0000 -0.8971
#
#
#
# Elastic Compliance Matrix: (Units=1/GPa)
#
#
# Indices 1 2 3 4 5 6 
#
# 1 0.010296 -0.002054 -0.002568 0.000000 0.000000 0.000000
# 2 -0.002054 0.010922 -0.001314 0.000000 0.000000 0.000000
# 3 -0.002568 -0.001314 0.023867 0.000000 0.000000 0.000000
# 4 0.000000 0.000000 0.000000 0.044925 0.000000 0.000000
# 5 0.000000 0.000000 0.000000 0.000000 0.011712 0.000000
# 6 0.000000 0.000000 0.000000 0.000000 0.000000 -1.114664
#
#
# Mechanical properties :
#
#
# Convention : Reuss Voigt Hill
#
# Bulk Modulus (GPa) = 30.10783 36.30424 33.20604
# Shear Modulus (GPa) = -5.05051 34.91023 14.92986
#
# Velocity S-wave (km/s) = -1.55645 4.09207 2.67605
# Velocity P-wave (km/s) = 3.34836 6.30400 5.04737
#
# Compressibility (1/GPa) = 0.03321395
#
# Stress axis : x y z
#
# Youngs Moduli (GPa) = 97.12174 91.55616 41.89853
#
# Poissons Ratio (x) = 0.18801 0.10760
# Poissons Ratio (y) = 0.19944 0.05507
# Poissons Ratio (z) = 0.24942 0.12033
#
# Static dielectric constant tensor:
#      x y z
#    x 1.758370 0.000000 0.000000 
#    y 0.000000 1.756970 0.000000 
#    z 0.000000 0.000000 1.753910 
# 
# From -- ./inp_files/73781.got.cif
#   From: 2010.05.17/outbox.cif.g08.bks.cpg/sg74_37_cif.got.tgz:73781.got - 2010.06.03 17:57:02.
