data_PCOD9536464
_publ_section_title
;
Structure prediction by ZEFSAII (Michael W. Deem and Ramdas Pophale) SiO2 
 PCOD9536464
Probable space group: I M M A
;
_chemical_formula_sum "Si O2"
_cell_formula_units_Z 96
_cell_length_a 28.365220
_cell_length_b 8.542115
_cell_length_c 21.060250
_cell_angle_alpha 90.000000
_cell_angle_beta 90.000000
_cell_angle_gamma 90.000000
_cell_volume 5102.876909
_symmetry_space_group_name_H-M "I M M A"
_symmetry_group_IT_number 74
_symmetry_cell_setting 'orthorhombic'
loop_
_space_group_symop_operation_xyz
x,y,z
-x,1/2-y,z
x,-y,-z
-x,1/2+y,-z
-x,-y,-z
x,1/2+y,-z
-x,y,z
x,1/2-y,z
1/2+x,1/2+y,1/2+z
1/2-x,-y,1/2+z
1/2+x,1/2-y,1/2-z
1/2-x,y,1/2-z
1/2-x,1/2-y,1/2-z
1/2+x,y,1/2-z
1/2-x,1/2+y,1/2+z
1/2+x,-y,1/2+z
loop_
_atom_site_type_symbol
_atom_site_label
_atom_site_fract_x
_atom_site_fract_y
_atom_site_fract_z
Si Si1 0.608522 0.937810 0.191719
Si Si2 0.774120 0.437930 0.930910
Si Si3 0.716693 0.940923 0.192284
Si Si4 0.054206 0.939296 0.814389
Si Si5 0.444996 0.062438 0.069341
Si Si6 0.620372 0.938061 0.569319
O O1 0.608105 0.750000 0.192541
O O2 0.662713 0.992101 0.198704
O O3 0.577876 0.999800 0.250233
O O4 0.586431 0.995535 0.125774
O O5 0.775539 0.250000 0.932721
O O6 0.739595 0.488614 0.874557
O O7 0.826980 0.498949 0.918125
O O8 0.759654 0.500000 0.000000
O O9 0.716618 0.750000 0.193405
O O10 0.750000 0.993517 0.250000
O O11 0.054611 0.750000 0.812734
O O12 0.085043 0.988710 0.875147
O O13 0.000000 0.990937 0.819293
O O14 0.500000 0.016719 0.079419
O O15 0.442528 0.250000 0.069625
O O16 0.430849 0.000000 0.000000
O O17 0.621999 0.750000 0.567376
O O18 0.605950 0.000000 0.500000
#
# Coordination Sequence:
#
# PCOD9536464 Si02
#       6
#    16  16  16  16  16  16
#     4  11  22  36  57  84 111 141 181 226 270 320
#     4  10  19  34  56  79 107 141 175 215 264 319
#     4   9  19  35  54  77 106 140 178 221 267 314
#     4  10  22  39  56  77 109 146 181 221 270 321
#     4  10  21  38  59  82 111 146 182 222 269 321
#     4  10  20  35  56  81 109 141 179 223 269 319
#
# _framework density 18.812916999999999
#
# number of rings (size 3 to 8) (size 9 to 14) (size 15 to 20)
#    0.000    2.000    0.000    4.500    0.000    7.000 
#    0.000    5.000    0.000    6.000    0.000    0.000 
#    0.000    0.000    0.000    0.000    0.000    0.000 
#
# Total GULP energy -268154.257438 kJ/mol
# GULP energy per Si atom -5586.547030 kJ/mol
# Density = 1.877010 g / cm^3
# Si number density = 18.812917 Si / 1000 Ang^3
#
#
#
# Elastic Constant Matrix: (Units=GPa)
#
#
# Indices 1 2 3 4 5 6 
#
# 1 43.1424 1.3180 12.1057 0.0000 0.0000 0.0000
# 2 1.3180 23.5231 0.6347 0.0000 0.0000 0.0000
# 3 12.1057 0.6347 50.7106 0.0000 0.0000 0.0000
# 4 0.0000 0.0000 0.0000 34.1451 0.0000 0.0000
# 5 0.0000 0.0000 0.0000 0.0000 43.4106 0.0000
# 6 0.0000 0.0000 0.0000 0.0000 0.0000 21.4299
#
#
#
# Elastic Compliance Matrix: (Units=1/GPa)
#
#
# Indices 1 2 3 4 5 6 
#
# 1 0.024879 -0.001234 -0.005924 0.000000 0.000000 0.000000
# 2 -0.001234 0.042587 -0.000238 0.000000 0.000000 0.000000
# 3 -0.005924 -0.000238 0.021137 0.000000 0.000000 0.000000
# 4 0.000000 0.000000 0.000000 0.029287 0.000000 0.000000
# 5 0.000000 0.000000 0.000000 0.000000 0.023036 0.000000
# 6 0.000000 0.000000 0.000000 0.000000 0.000000 0.046664
#
#
# Mechanical properties :
#
#
# Convention : Reuss Voigt Hill
#
# Bulk Modulus (GPa) = 13.54823 16.16587 14.85705
# Shear Modulus (GPa) = 22.02787 26.68496 24.35641
#
# Velocity S-wave (km/s) = 3.42554 3.77030 3.60205
# Velocity P-wave (km/s) = 4.78152 5.25026 5.02136
#
# Compressibility (1/GPa) = 0.07381036
#
# Stress axis : x y z
#
# Youngs Moduli (GPa) = 40.19463 23.48131 47.31074
#
# Poissons Ratio (x) = 0.02898 0.28025
# Poissons Ratio (y) = 0.04961 0.01128
# Poissons Ratio (z) = 0.23810 0.00560
#
# Static dielectric constant tensor:
#      x y z
#    x 1.635720 0.000000 0.000000 
#    y 0.000000 1.645270 0.000000 
#    z 0.000000 0.000000 1.623550 
# 
# From -- ./inp_files/55042.got.cif
#   From: 2010.05.17/outbox.cif.g08.bks.cpg/sg74_28_cif.got.tgz:55042.got - 2010.06.03 17:57:02.
