data_PCOD9536719
_publ_section_title
;
Structure prediction by ZEFSAII (Michael W. Deem and Ramdas Pophale) SiO2 
 PCOD9536719
Probable space group: I M M A
;
_chemical_formula_sum "Si O2"
_cell_formula_units_Z 76
_cell_length_a 14.427528
_cell_length_b 19.928009
_cell_length_c 13.864377
_cell_angle_alpha 90.000000
_cell_angle_beta 90.000000
_cell_angle_gamma 90.000000
_cell_volume 3986.173482
_symmetry_space_group_name_H-M "I M M A"
_symmetry_group_IT_number 74
_symmetry_cell_setting 'orthorhombic'
loop_
_space_group_symop_operation_xyz
x,y,z
-x,1/2-y,z
x,-y,-z
-x,1/2+y,-z
-x,-y,-z
x,1/2+y,-z
-x,y,z
x,1/2-y,z
1/2+x,1/2+y,1/2+z
1/2-x,-y,1/2+z
1/2+x,1/2-y,1/2-z
1/2-x,y,1/2-z
1/2-x,1/2-y,1/2-z
1/2+x,y,1/2-z
1/2-x,1/2+y,1/2+z
1/2+x,-y,1/2+z
loop_
_atom_site_type_symbol
_atom_site_label
_atom_site_fract_x
_atom_site_fract_y
_atom_site_fract_z
Si Si1 0.608358 0.328452 0.394906
Si Si2 0.647574 0.642893 0.221174
Si Si3 0.000000 0.750000 0.343505
Si Si4 0.205284 0.509484 0.391381
Si Si5 0.250000 0.105271 0.250000
Si Si6 0.102822 0.420772 0.918209
O O1 0.500000 0.336135 0.367342
O O2 0.623290 0.250000 0.419043
O O3 0.677145 0.351328 0.310706
O O4 0.623592 0.375578 0.488174
O O5 0.750000 0.668673 0.250000
O O6 0.581710 0.692120 0.163831
O O7 0.662470 0.573690 0.162341
O O8 0.603335 0.626324 0.324505
O O9 0.169620 0.500000 0.500000
O O10 0.197870 0.444046 0.325250
O O11 0.315272 0.526521 0.400757
O O12 0.000000 0.450245 0.925489
#
# Coordination Sequence:
#
# PCOD9536719 Si02
#       6
#    16  16   4  16   8  16
#     4  10  23  39  63  97 127 160 210 256 312 378
#     4  10  22  38  61  96 127 160 204 257 313 385
#     4  12  22  40  66  86 130 174 204 248 328 364
#     4  11  22  41  59  90 129 164 209 258 313 371
#     4  12  21  40  66  89 126 172 202 254 320 365
#     4  10  19  35  63  98 124 152 198 261 317 376
#
# _framework density 19.065904
#
# number of rings (size 3 to 8) (size 9 to 14) (size 15 to 20)
#    0.000    1.474    6.316    0.632    1.474    1.263 
#    3.789    0.526    0.000    0.000    0.000    0.000 
#    0.000    0.000    0.000    0.000    0.000    0.000 
#
# Total GULP energy -211612.501186 kJ/mol
# GULP energy per Si atom -5568.750031 kJ/mol
# Density = 1.902251 g / cm^3
# Si number density = 19.065904 Si / 1000 Ang^3
#
#
#
# Elastic Constant Matrix: (Units=GPa)
#
#
# Indices 1 2 3 4 5 6 
#
# 1 94.6081 34.6224 24.8919 0.0000 0.0000 0.0000
# 2 34.6224 69.4517 17.2395 0.0000 0.0000 0.0000
# 3 24.8919 17.2395 101.6480 0.0000 0.0000 -0.0001
# 4 0.0000 0.0000 0.0000 -3.6157 0.0000 0.0000
# 5 0.0000 0.0000 0.0000 0.0000 14.3991 0.0000
# 6 0.0000 0.0000 -0.0001 0.0000 0.0000 53.2236
#
#
#
# Elastic Compliance Matrix: (Units=1/GPa)
#
#
# Indices 1 2 3 4 5 6 
#
# 1 0.013401 -0.006124 -0.002243 0.000000 0.000000 0.000000
# 2 -0.006124 0.017830 -0.001524 0.000000 0.000000 0.000000
# 3 -0.002243 -0.001524 0.010646 0.000000 0.000000 0.000000
# 4 0.000000 0.000000 0.000000 -0.276570 0.000000 0.000000
# 5 0.000000 0.000000 0.000000 0.000000 0.069449 0.000000
# 6 0.000000 0.000000 0.000000 0.000000 0.000000 0.018789
#
#
# Mechanical properties :
#
#
# Convention : Reuss Voigt Hill
#
# Bulk Modulus (GPa) = 45.26110 46.57950 45.92030
# Shear Modulus (GPa) = -41.90804 25.39833 -8.25485
#
# Velocity S-wave (km/s) = -4.69344 3.65380 -2.08304
# Velocity P-wave (km/s) = 2.36226 6.50263 4.28392
#
# Compressibility (1/GPa) = 0.02209403
#
# Stress axis : x y z
#
# Youngs Moduli (GPa) = 74.62056 56.08642 93.93465
#
# Poissons Ratio (x) = 0.34346 0.21071
# Poissons Ratio (y) = 0.45696 0.14318
# Poissons Ratio (z) = 0.16738 0.08549
#
# Static dielectric constant tensor:
#      x y z
#    x 1.675050 0.000000 0.000000 
#    y 0.000000 1.675350 0.000000 
#    z 0.000000 0.000000 1.666170 
# 
# From -- ./inp_files/32143.got.cif
#   From: 2010.05.17/outbox.cif.g08.bks.cpg/sg74_17_cif.got.tgz:32143.got - 2010.06.03 17:57:02.
