data_PCOD9536186
_publ_section_title
;
Structure prediction by ZEFSAII (Michael W. Deem and Ramdas Pophale) SiO2 
 PCOD9536186
Probable space group: I M M A
;
_chemical_formula_sum "Si O2"
_cell_formula_units_Z 100
_cell_length_a 22.967221
_cell_length_b 25.782393
_cell_length_c 9.361230
_cell_angle_alpha 90.000000
_cell_angle_beta 90.000000
_cell_angle_gamma 90.000000
_cell_volume 5543.251576
_symmetry_space_group_name_H-M "I M M A"
_symmetry_group_IT_number 74
_symmetry_cell_setting 'orthorhombic'
loop_
_space_group_symop_operation_xyz
x,y,z
-x,1/2-y,z
x,-y,-z
-x,1/2+y,-z
-x,-y,-z
x,1/2+y,-z
-x,y,z
x,1/2-y,z
1/2+x,1/2+y,1/2+z
1/2-x,-y,1/2+z
1/2+x,1/2-y,1/2-z
1/2-x,y,1/2-z
1/2-x,1/2-y,1/2-z
1/2+x,y,1/2-z
1/2-x,1/2+y,1/2+z
1/2+x,-y,1/2+z
loop_
_atom_site_type_symbol
_atom_site_label
_atom_site_fract_x
_atom_site_fract_y
_atom_site_fract_z
Si Si1 0.885952 0.193211 0.720710
Si Si2 0.107196 0.393796 0.943834
Si Si3 0.432184 0.089856 0.237472
Si Si4 0.351150 0.895562 0.017359
Si Si5 0.500000 0.250000 0.862022
Si Si6 0.767050 0.945787 0.081291
Si Si7 0.934767 0.033274 0.702909
O O1 0.858704 0.250000 0.744733
O O2 0.896633 0.161473 0.865606
O O3 0.851290 0.154983 0.617192
O O4 0.948319 0.205696 0.649729
O O5 0.173658 0.413511 0.932675
O O6 0.071113 0.435496 0.850622
O O7 0.083798 0.393224 0.103275
O O8 0.500000 0.101500 0.205775
O O9 0.424457 0.027403 0.226747
O O10 0.386855 0.114210 0.126421
O O11 0.286329 0.916786 0.004319
O O12 0.388156 0.940134 0.099647
O O13 0.750000 0.952128 0.250000
O O14 0.775722 0.000000 0.000000
O O15 0.000000 0.040133 0.644343
#
# Coordination Sequence:
#
# PCOD9536186 Si02
#       7
#    16  16  16  16   4  16  16
#     4   9  21  39  64  87 114 154 212 259 320 361
#     4  11  23  37  58  86 122 160 211 253 307 366
#     4  11  23  34  54  89 123 159 197 252 320 377
#     4  11  23  37  58  86 122 160 211 253 307 366
#     4   8  20  36  72  84 116 156 212 270 334 356
#     4  12  24  40  62  90 127 170 214 247 299 363
#     4  10  19  33  53  78 117 159 196 243 303 373
#
# _framework density 18.039954000000002
#
# number of rings (size 3 to 8) (size 9 to 14) (size 15 to 20)
#    0.480    0.960    3.200    3.840    8.960    2.560 
#    0.000    2.400    0.000    1.920    0.000    2.240 
#    0.000    0.000    0.000    0.000    0.000    0.000 
#
# Total GULP energy -278577.215014 kJ/mol
# GULP energy per Si atom -5571.544300 kJ/mol
# Density = 1.799889 g / cm^3
# Si number density = 18.039954 Si / 1000 Ang^3
#
#
#
# Elastic Constant Matrix: (Units=GPa)
#
#
# Indices 1 2 3 4 5 6 
#
# 1 69.4184 8.0793 -7.4432 0.0000 0.0000 0.0000
# 2 8.0793 80.8521 0.1233 0.0000 0.0000 0.0000
# 3 -7.4432 0.1233 72.8766 0.0000 0.0000 0.0000
# 4 0.0000 0.0000 0.0000 -1.6734 0.0000 0.0000
# 5 0.0000 0.0000 0.0000 0.0000 23.2081 0.0000
# 6 0.0000 0.0000 0.0000 0.0000 0.0000 18.9465
#
#
#
# Elastic Compliance Matrix: (Units=1/GPa)
#
#
# Indices 1 2 3 4 5 6 
#
# 1 0.014739 -0.001475 0.001508 0.000000 0.000000 0.000000
# 2 -0.001475 0.012516 -0.000172 0.000000 0.000000 0.000000
# 3 0.001508 -0.000172 0.013876 0.000000 0.000000 0.000000
# 4 0.000000 0.000000 0.000000 -0.597601 0.000000 0.000000
# 5 0.000000 0.000000 0.000000 0.000000 0.043088 0.000000
# 6 0.000000 0.000000 0.000000 0.000000 0.000000 0.052780
#
#
# Mechanical properties :
#
#
# Convention : Reuss Voigt Hill
#
# Bulk Modulus (GPa) = 24.47825 24.96288 24.72056
# Shear Modulus (GPa) = -11.19304 22.92210 5.86453
#
# Velocity S-wave (km/s) = -2.49360 3.56846 1.80497
# Velocity P-wave (km/s) = 2.30383 5.55393 4.25169
#
# Compressibility (1/GPa) = 0.04085259
#
# Stress axis : x y z
#
# Youngs Moduli (GPa) = 67.84835 79.89820 72.06627
#
# Poissons Ratio (x) = 0.11786 -0.10866
# Poissons Ratio (y) = 0.10008 0.01238
# Poissons Ratio (z) = -0.10230 0.01373
#
# Static dielectric constant tensor:
#      x y z
#    x 1.618360 0.000000 0.000000 
#    y 0.000000 1.616410 0.000000 
#    z 0.000000 0.000000 1.648160 
# 
# From -- ./inp_files/12803.got.cif
#   From: 2010.05.17/outbox.cif.g08.bks.cpg/sg74_7_cif.got.tgz:12803.got - 2010.06.03 17:57:02.
