data_PCOD9536993
_publ_section_title
;
Structure prediction by ZEFSAII (Michael W. Deem and Ramdas Pophale) SiO2 
 PCOD9536993
Probable space group: I M M A
;
_chemical_formula_sum "Si O2"
_cell_formula_units_Z 96
_cell_length_a 29.436840
_cell_length_b 9.178690
_cell_length_c 26.718943
_cell_angle_alpha 90.000000
_cell_angle_beta 90.000000
_cell_angle_gamma 90.000000
_cell_volume 7219.234733
_symmetry_space_group_name_H-M "I M M A"
_symmetry_group_IT_number 74
_symmetry_cell_setting 'orthorhombic'
loop_
_space_group_symop_operation_xyz
x,y,z
-x,1/2-y,z
x,-y,-z
-x,1/2+y,-z
-x,-y,-z
x,1/2+y,-z
-x,y,z
x,1/2-y,z
1/2+x,1/2+y,1/2+z
1/2-x,-y,1/2+z
1/2+x,1/2-y,1/2-z
1/2-x,y,1/2-z
1/2-x,1/2-y,1/2-z
1/2+x,y,1/2-z
1/2-x,1/2+y,1/2+z
1/2+x,-y,1/2+z
loop_
_atom_site_type_symbol
_atom_site_label
_atom_site_fract_x
_atom_site_fract_y
_atom_site_fract_z
Si Si1 0.722086 0.081411 0.802520
Si Si2 0.552473 0.076563 0.598552
Si Si3 0.448390 0.922890 0.705761
Si Si4 0.137873 0.074949 0.051231
Si Si5 0.355819 0.923042 0.750096
Si Si6 0.801647 0.923169 0.852441
O O1 0.716087 0.250000 0.814495
O O2 0.750000 0.070630 0.750000
O O3 0.674247 0.005546 0.790828
O O4 0.754332 0.003948 0.842742
O O5 0.500000 0.051580 0.583194
O O6 0.561083 0.250000 0.597403
O O7 0.556889 0.014905 0.655035
O O8 0.588808 0.991021 0.565480
O O9 0.500000 0.942465 0.723999
O O10 0.442406 0.750000 0.693348
O O11 0.408781 0.961111 0.744625
O O12 0.135209 0.250000 0.046672
O O13 0.171760 0.039070 0.097044
O O14 0.153108 0.000000 0.000000
O O15 0.351395 0.750000 0.758407
O O16 0.334072 0.954823 0.695297
O O17 0.793615 0.750000 0.852181
#
# Coordination Sequence:
#
# PCOD9536993 Si02
#       6
#    16  16  16  16  16  16
#     4   9  17  26  39  61  81 100 125 157 196 234
#     4  10  20  32  45  60  77 100 131 169 212 250
#     4   9  16  27  43  61  81 107 137 166 199 240
#     4  11  22  35  48  62  77 100 132 167 210 251
#     4   9  15  26  42  60  80 104 130 159 196 237
#     4   9  17  30  44  58  77 101 127 159 200 244
#
# _framework density 13.297809000000001
#
# number of rings (size 3 to 8) (size 9 to 14) (size 15 to 20)
#    0.000    2.500    1.667    1.500    0.000    5.333 
#    0.000    0.000    0.000    0.000    0.000    0.000 
#    0.000    0.000    0.000    0.000    0.000    0.833 
#
# Total GULP energy -267472.018698 kJ/mol
# GULP energy per Si atom -5572.333723 kJ/mol
# Density = 1.326754 g / cm^3
# Si number density = 13.297809 Si / 1000 Ang^3
#
#
#
# Elastic Constant Matrix: (Units=GPa)
#
#
# Indices 1 2 3 4 5 6 
#
# 1 86.1233 47.4041 45.2532 0.0000 0.0000 0.0000
# 2 47.4041 48.2645 36.2694 0.0000 0.0000 0.0000
# 3 45.2532 36.2694 47.5170 0.0000 0.0000 0.0000
# 4 0.0000 0.0000 0.0000 16.5897 0.0000 0.0000
# 5 0.0000 0.0000 0.0000 0.0000 17.2377 0.0000
# 6 0.0000 0.0000 0.0000 0.0000 0.0000 14.2699
#
#
#
# Elastic Compliance Matrix: (Units=1/GPa)
#
#
# Indices 1 2 3 4 5 6 
#
# 1 0.028582 -0.017864 -0.013585 0.000000 0.000000 0.000000
# 2 -0.017864 0.059755 -0.028598 0.000000 0.000000 0.000000
# 3 -0.013585 -0.028598 0.055811 0.000000 0.000000 0.000000
# 4 0.000000 0.000000 0.000000 0.060278 0.000000 0.000000
# 5 0.000000 0.000000 0.000000 0.000000 0.058013 0.000000
# 6 0.000000 0.000000 0.000000 0.000000 0.000000 0.070077
#
#
# Mechanical properties :
#
#
# Convention : Reuss Voigt Hill
#
# Bulk Modulus (GPa) = 41.57115 48.86203 45.21659
# Shear Modulus (GPa) = 10.85474 13.15133 12.00303
#
# Velocity S-wave (km/s) = 2.86016 3.14822 3.00764
# Velocity P-wave (km/s) = 6.49899 7.07384 6.79250
#
# Compressibility (1/GPa) = 0.02405515
#
# Stress axis : x y z
#
# Youngs Moduli (GPa) = 34.98691 16.73502 17.91750
#
# Poissons Ratio (x) = 0.29895 0.24341
# Poissons Ratio (y) = 0.62500 0.51240
# Poissons Ratio (z) = 0.47530 0.47858
#
# Static dielectric constant tensor:
#      x y z
#    x 1.448690 0.000000 0.000000 
#    y 0.000000 1.442930 0.000000 
#    z 0.000000 0.000000 1.407660 
# 
# From -- ./inp_files/55038.got.cif
#   From: 2010.05.17/outbox.cif.g08.bks.cpg/sg74_28_cif.got.tgz:55038.got - 2010.06.03 17:57:02.
