data_PCOD9536628
_publ_section_title
;
Structure prediction by ZEFSAII (Michael W. Deem and Ramdas Pophale) SiO2 
 PCOD9536628
Probable space group: I M M A
;
_chemical_formula_sum "Si O2"
_cell_formula_units_Z 104
_cell_length_a 9.450780
_cell_length_b 21.797141
_cell_length_c 27.153743
_cell_angle_alpha 90.000000
_cell_angle_beta 90.000000
_cell_angle_gamma 90.000000
_cell_volume 5593.670630
_symmetry_space_group_name_H-M "I M M A"
_symmetry_group_IT_number 74
_symmetry_cell_setting 'orthorhombic'
loop_
_space_group_symop_operation_xyz
x,y,z
-x,1/2-y,z
x,-y,-z
-x,1/2+y,-z
-x,-y,-z
x,1/2+y,-z
-x,y,z
x,1/2-y,z
1/2+x,1/2+y,1/2+z
1/2-x,-y,1/2+z
1/2+x,1/2-y,1/2-z
1/2-x,y,1/2-z
1/2-x,1/2-y,1/2-z
1/2+x,y,1/2-z
1/2-x,1/2+y,1/2+z
1/2+x,-y,1/2+z
loop_
_atom_site_type_symbol
_atom_site_label
_atom_site_fract_x
_atom_site_fract_y
_atom_site_fract_z
Si Si1 0.171670 0.179525 0.978873
Si Si2 0.833450 0.365937 0.869382
Si Si3 0.834693 0.545308 0.300527
Si Si4 0.168762 0.178529 0.299702
Si Si5 0.670560 0.556727 0.536061
Si Si6 0.840085 0.750000 0.201500
Si Si7 0.165188 0.569970 0.634470
O O1 0.221233 0.250000 0.987979
O O2 0.207789 0.157060 0.923635
O O3 0.000000 0.181890 0.980716
O O4 0.215139 0.123538 0.014516
O O5 0.735773 0.417087 0.845130
O O6 0.819998 0.308716 0.832699
O O7 0.000000 0.384793 0.871131
O O8 0.750000 0.555843 0.250000
O O9 0.824822 0.475352 0.318855
O O10 0.000000 0.561425 0.294036
O O11 0.197809 0.250000 0.309209
O O12 0.250000 0.160893 0.250000
O O13 0.209926 0.136289 0.345458
O O14 0.000000 0.170969 0.292263
O O15 0.708524 0.500000 0.500000
O O16 0.500000 0.556521 0.540103
O O17 0.741208 0.548584 0.588994
O O18 0.750000 0.750000 0.250000
O O19 0.000000 0.750000 0.218965
O O20 0.000000 0.571193 0.619501
#
# Coordination Sequence:
#
# PCOD9536628 Si02
#       7
#    16  16  16  16  16   8  16
#     4   9  17  33  57  82 109 142 182 227 273 323
#     4  10  19  35  57  79 106 142 182 221 269 318
#     4  11  23  37  54  79 110 145 183 223 270 322
#     4   9  18  34  56  81 109 142 178 217 265 322
#     4  10  21  36  56  83 109 138 182 232 276 321
#     4  10  20  32  50  76 104 138 176 216 263 312
#     4  10  22  38  55  78 110 144 178 221 273 329
#
# _framework density 18.592441999999998
#
# number of rings (size 3 to 8) (size 9 to 14) (size 15 to 20)
#    0.000    2.154    0.769    2.308    0.000    5.846 
#    0.000    0.769    0.000    0.923    0.000    0.000 
#    0.000    0.000    0.000    0.000    0.000    0.000 
#
# Total GULP energy -290075.896583 kJ/mol
# GULP energy per Si atom -5578.382627 kJ/mol
# Density = 1.855012 g / cm^3
# Si number density = 18.592442 Si / 1000 Ang^3
#
#
#
# Elastic Constant Matrix: (Units=GPa)
#
#
# Indices 1 2 3 4 5 6 
#
# 1 30.3526 31.2784 24.6945 0.0000 0.0000 0.0000
# 2 31.2784 84.7269 25.8066 0.0000 0.0000 0.0000
# 3 24.6945 25.8066 54.5553 0.0000 0.0000 0.0000
# 4 0.0000 0.0000 0.0000 54.5163 0.0000 0.0000
# 5 0.0000 0.0000 0.0000 0.0000 26.6137 0.0000
# 6 0.0000 0.0000 0.0000 0.0000 0.0000 20.0731
#
#
#
# Elastic Compliance Matrix: (Units=1/GPa)
#
#
# Indices 1 2 3 4 5 6 
#
# 1 0.072052 -0.019471 -0.023404 0.000000 0.000000 0.000000
# 2 -0.019471 0.019051 -0.000198 0.000000 0.000000 0.000000
# 3 -0.023404 -0.000198 0.029018 0.000000 0.000000 0.000000
# 4 0.000000 0.000000 0.000000 0.018343 0.000000 0.000000
# 5 0.000000 0.000000 0.000000 0.000000 0.037575 0.000000
# 6 0.000000 0.000000 0.000000 0.000000 0.000000 0.049818
#
#
# Mechanical properties :
#
#
# Convention : Reuss Voigt Hill
#
# Bulk Modulus (GPa) = 29.43389 37.02154 33.22771
# Shear Modulus (GPa) = 15.46421 26.09762 20.78092
#
# Velocity S-wave (km/s) = 2.88713 3.75062 3.34684
# Velocity P-wave (km/s) = 5.19418 6.22186 5.73110
#
# Compressibility (1/GPa) = 0.03397445
#
# Stress axis : x y z
#
# Youngs Moduli (GPa) = 13.87891 52.49063 34.46175
#
# Poissons Ratio (x) = 1.02203 0.80654
# Poissons Ratio (y) = 0.27023 0.00684
# Poissons Ratio (z) = 0.32482 0.01041
#
# Static dielectric constant tensor:
#      x y z
#    x 1.623190 0.000000 0.000000 
#    y 0.000000 1.686230 0.000000 
#    z 0.000000 0.000000 1.618870 
# 
# From -- ./inp_files/64455.got.cif
#   From: 2010.05.17/outbox.cif.g08.bks.cpg/sg74_33_cif.got.tgz:64455.got - 2010.06.03 17:57:02.
