data_PCOD9536477
_publ_section_title
;
Structure prediction by ZEFSAII (Michael W. Deem and Ramdas Pophale) SiO2 
 PCOD9536477
Probable space group: I M M A
;
_chemical_formula_sum "Si O2"
_cell_formula_units_Z 112
_cell_length_a 19.013780
_cell_length_b 17.413449
_cell_length_c 19.360477
_cell_angle_alpha 90.000000
_cell_angle_beta 90.000000
_cell_angle_gamma 90.000000
_cell_volume 6410.166587
_symmetry_space_group_name_H-M "I M M A"
_symmetry_group_IT_number 74
_symmetry_cell_setting 'orthorhombic'
loop_
_space_group_symop_operation_xyz
x,y,z
-x,1/2-y,z
x,-y,-z
-x,1/2+y,-z
-x,-y,-z
x,1/2+y,-z
-x,y,z
x,1/2-y,z
1/2+x,1/2+y,1/2+z
1/2-x,-y,1/2+z
1/2+x,1/2-y,1/2-z
1/2-x,y,1/2-z
1/2-x,1/2-y,1/2-z
1/2+x,y,1/2-z
1/2-x,1/2+y,1/2+z
1/2+x,-y,1/2+z
loop_
_atom_site_type_symbol
_atom_site_label
_atom_site_fract_x
_atom_site_fract_y
_atom_site_fract_z
Si Si1 0.191730 0.337851 0.643349
Si Si2 0.352637 0.338766 0.593606
Si Si3 0.916695 0.006513 0.842169
Si Si4 0.579565 0.840929 0.021076
Si Si5 0.177672 0.938780 0.563154
Si Si6 0.823102 0.990015 0.285330
Si Si7 0.335085 0.580432 0.542052
O O1 0.186105 0.250000 0.666779
O O2 0.269097 0.348476 0.609904
O O3 0.131953 0.352576 0.585825
O O4 0.181906 0.398397 0.703733
O O5 0.371533 0.250000 0.609739
O O6 0.391361 0.407921 0.633803
O O7 0.362957 0.357328 0.512315
O O8 0.886090 0.992506 0.766191
O O9 0.000000 0.002925 0.845777
O O10 0.882005 0.943203 0.892894
O O11 0.500000 0.868657 0.034245
O O12 0.577185 0.750000 0.009975
O O13 0.615451 0.881431 0.956120
O O14 0.254923 0.900659 0.561867
O O15 0.176514 0.000000 0.500000
O O16 0.169697 0.976571 0.637941
O O17 0.750000 0.015503 0.250000
O O18 0.331567 0.500000 0.500000
#
# Coordination Sequence:
#
# PCOD9536477 Si02
#       7
#    16  16  16  16  16  16  16
#     4  10  19  34  56  81 114 154 188 222 273 339
#     4  10  19  34  60  87 110 146 194 234 272 333
#     4  11  24  38  53  79 117 153 185 232 292 336
#     4  10  21  36  56  86 119 146 180 234 291 333
#     4  11  19  35  60  84 110 146 194 238 274 327
#     4  12  21  36  57  84 113 150 193 235 277 336
#     4   9  17  33  57  81 106 144 190 232 271 326
#
# _framework density 17.472245000000001
#
# number of rings (size 3 to 8) (size 9 to 14) (size 15 to 20)
#    0.000    1.571    5.714    0.857    0.000    5.143 
#    0.000    0.000    0.000    1.286    0.000    0.000 
#    0.000    0.000    0.000    0.000    0.000    0.000 
#
# Total GULP energy -312325.903561 kJ/mol
# GULP energy per Si atom -5577.248278 kJ/mol
# Density = 1.743248 g / cm^3
# Si number density = 17.472245 Si / 1000 Ang^3
#
#
#
# Elastic Constant Matrix: (Units=GPa)
#
#
# Indices 1 2 3 4 5 6 
#
# 1 110.4209 12.1051 31.1785 0.0000 0.0000 0.0000
# 2 12.1051 12.3617 5.1609 0.0000 0.0000 0.0000
# 3 31.1785 5.1609 92.6267 0.0000 0.0000 0.0000
# 4 0.0000 0.0000 0.0000 26.5174 0.0000 0.0000
# 5 0.0000 0.0000 0.0000 0.0000 21.5670 0.0000
# 6 0.0000 0.0000 0.0000 0.0000 0.0000 20.9563
#
#
#
# Elastic Compliance Matrix: (Units=1/GPa)
#
#
# Indices 1 2 3 4 5 6 
#
# 1 0.010986 -0.009434 -0.003172 0.000000 0.000000 0.000000
# 2 -0.009434 0.090922 -0.001891 0.000000 0.000000 0.000000
# 3 -0.003172 -0.001891 0.011969 0.000000 0.000000 0.000000
# 4 0.000000 0.000000 0.000000 0.037711 0.000000 0.000000
# 5 0.000000 0.000000 0.000000 0.000000 0.046367 0.000000
# 6 0.000000 0.000000 0.000000 0.000000 0.000000 0.047718
#
#
# Mechanical properties :
#
#
# Convention : Reuss Voigt Hill
#
# Bulk Modulus (GPa) = 11.78074 34.69979 23.24027
# Shear Modulus (GPa) = 16.50372 24.93912 20.72142
#
# Velocity S-wave (km/s) = 3.07672 3.78214 3.44752
# Velocity P-wave (km/s) = 4.40213 6.24306 5.40160
#
# Compressibility (1/GPa) = 0.08488433
#
# Stress axis : x y z
#
# Youngs Moduli (GPa) = 91.02340 10.99843 83.54784
#
# Poissons Ratio (x) = 0.10376 0.26504
# Poissons Ratio (y) = 0.85868 0.15795
# Poissons Ratio (z) = 0.28876 0.02079
#
# Static dielectric constant tensor:
#      x y z
#    x 1.601840 0.000000 0.000000 
#    y 0.000000 1.610820 0.000000 
#    z 0.000000 0.000000 1.614700 
# 
# From -- ./inp_files/44414.got.cif
#   From: 2010.05.17/outbox.cif.g08.bks.cpg/sg74_23_cif.got.tgz:44414.got - 2010.06.03 17:57:02.
