data_PCOD9536365
_publ_section_title
;
Structure prediction by ZEFSAII (Michael W. Deem and Ramdas Pophale) SiO2 
 PCOD9536365
Probable space group: I M M A
;
_chemical_formula_sum "Si O2"
_cell_formula_units_Z 120
_cell_length_a 8.732213
_cell_length_b 27.921166
_cell_length_c 28.538958
_cell_angle_alpha 90.000000
_cell_angle_beta 90.000000
_cell_angle_gamma 90.000000
_cell_volume 6958.185198
_symmetry_space_group_name_H-M "I M M A"
_symmetry_group_IT_number 74
_symmetry_cell_setting 'orthorhombic'
loop_
_space_group_symop_operation_xyz
x,y,z
-x,1/2-y,z
x,-y,-z
-x,1/2+y,-z
-x,-y,-z
x,1/2+y,-z
-x,y,z
x,1/2-y,z
1/2+x,1/2+y,1/2+z
1/2-x,-y,1/2+z
1/2+x,1/2-y,1/2-z
1/2-x,y,1/2-z
1/2-x,1/2-y,1/2-z
1/2+x,y,1/2-z
1/2-x,1/2+y,1/2+z
1/2+x,-y,1/2+z
loop_
_atom_site_type_symbol
_atom_site_label
_atom_site_fract_x
_atom_site_fract_y
_atom_site_fract_z
Si Si1 0.183621 0.946179 0.133572
Si Si2 0.684492 0.250000 0.697504
Si Si3 0.685409 0.356034 0.697151
Si Si4 0.816306 0.952065 0.649001
Si Si5 0.684292 0.196095 0.391223
Si Si6 0.316649 0.862317 0.700423
Si Si7 0.816345 0.108164 0.442642
Si Si8 0.315309 0.547746 0.029349
O O1 0.233693 0.899347 0.163056
O O2 0.240885 0.946411 0.079894
O O3 0.000000 0.947691 0.134153
O O4 0.248902 0.995295 0.155181
O O5 0.500000 0.250000 0.698576
O O6 0.750000 0.250000 0.750000
O O7 0.730439 0.302629 0.678472
O O8 0.500000 0.357225 0.700088
O O9 0.750000 0.361717 0.750000
O O10 0.751624 0.913663 0.685587
O O11 0.772117 0.930535 0.597633
O O12 0.000000 0.953698 0.651315
O O13 0.500000 0.196206 0.393215
O O14 0.740225 0.250000 0.397449
O O15 0.727822 0.174594 0.340591
O O16 0.746434 0.158623 0.428647
O O17 0.500000 0.865363 0.702181
O O18 0.250000 0.847398 0.750000
O O19 0.773069 0.090241 0.493894
O O20 0.000000 0.110920 0.440695
O O21 0.500000 0.545959 0.035582
O O22 0.273438 0.500000 0.000000
#
# Coordination Sequence:
#
# PCOD9536365 Si02
#       8
#    16   8  16  16  16  16  16  16
#     4  11  22  33  49  80 112 137 172 214 256 309
#     4   8  14  30  54  74  94 126 164 204 244 288
#     4   9  19  34  53  77 104 134 170 208 248 297
#     4  10  19  34  52  71  99 137 173 211 260 311
#     4   9  19  35  54  76 103 134 172 219 268 317
#     4  10  20  34  51  74 103 137 176 219 265 316
#     4   9  18  33  54  76  98 129 172 215 259 311
#     4  10  19  35  55  77 104 137 174 214 258 307
#
# _framework density 17.245875999999999
#
# number of rings (size 3 to 8) (size 9 to 14) (size 15 to 20)
#    0.000    2.400    1.333    1.200    0.000    4.000 
#    0.000    1.333    1.467    0.000    0.000    0.000 
#    0.000    0.000    0.000    0.000    0.000    0.000 
#
# Total GULP energy -334501.332457 kJ/mol
# GULP energy per Si atom -5575.022208 kJ/mol
# Density = 1.720662 g / cm^3
# Si number density = 17.245876 Si / 1000 Ang^3
#
#
#
# Elastic Constant Matrix: (Units=GPa)
#
#
# Indices 1 2 3 4 5 6 
#
# 1 22.1960 29.8978 18.0306 0.0000 0.0000 0.0000
# 2 29.8978 167.3796 49.7758 0.0000 0.0000 0.0000
# 3 18.0306 49.7758 63.4386 0.0000 0.0000 0.0000
# 4 0.0000 0.0000 0.0000 15.7261 0.0000 0.0000
# 5 0.0000 0.0000 0.0000 0.0000 27.1928 0.0000
# 6 0.0000 0.0000 0.0000 0.0000 0.0000 19.0624
#
#
#
# Elastic Compliance Matrix: (Units=1/GPa)
#
#
# Indices 1 2 3 4 5 6 
#
# 1 0.066059 -0.008108 -0.012413 0.000000 0.000000 0.000000
# 2 -0.008108 0.008788 -0.004591 0.000000 0.000000 0.000000
# 3 -0.012413 -0.004591 0.022894 0.000000 0.000000 0.000000
# 4 0.000000 0.000000 0.000000 0.063588 0.000000 0.000000
# 5 0.000000 0.000000 0.000000 0.000000 0.036774 0.000000
# 6 0.000000 0.000000 0.000000 0.000000 0.000000 0.052459
#
#
# Mechanical properties :
#
#
# Convention : Reuss Voigt Hill
#
# Bulk Modulus (GPa) = 21.04578 49.82472 35.43525
# Shear Modulus (GPa) = 15.79154 22.75026 19.27090
#
# Velocity S-wave (km/s) = 3.02929 3.63598 3.34641
# Velocity P-wave (km/s) = 4.94624 6.82500 5.96012
#
# Compressibility (1/GPa) = 0.04751547
#
# Stress axis : x y z
#
# Youngs Moduli (GPa) = 15.13809 113.79227 43.68043
#
# Poissons Ratio (x) = 0.92263 0.54223
# Poissons Ratio (y) = 0.12274 0.20053
# Poissons Ratio (z) = 0.18792 0.52240
#
# Static dielectric constant tensor:
#      x y z
#    x 1.580330 0.000000 0.000000 
#    y 0.000000 1.603040 0.000000 
#    z 0.000000 0.000000 1.569840 
# 
# From -- ./inp_files/65045.got.cif
#   From: 2010.05.17/outbox.cif.g08.bks.cpg/sg74_33_cif.got.tgz:65045.got - 2010.06.03 17:57:02.
