data_PCOD9536022
_publ_section_title
;
Structure prediction by ZEFSAII (Michael W. Deem and Ramdas Pophale) SiO2 
 PCOD9536022
Probable space group: I M M A
;
_chemical_formula_sum "Si O2"
_cell_formula_units_Z 80
_cell_length_a 8.392213
_cell_length_b 26.698541
_cell_length_c 17.872241
_cell_angle_alpha 90.000000
_cell_angle_beta 90.000000
_cell_angle_gamma 90.000000
_cell_volume 4004.451510
_symmetry_space_group_name_H-M "I M M A"
_symmetry_group_IT_number 74
_symmetry_cell_setting 'orthorhombic'
loop_
_space_group_symop_operation_xyz
x,y,z
-x,1/2-y,z
x,-y,-z
-x,1/2+y,-z
-x,-y,-z
x,1/2+y,-z
-x,y,z
x,1/2-y,z
1/2+x,1/2+y,1/2+z
1/2-x,-y,1/2+z
1/2+x,1/2-y,1/2-z
1/2-x,y,1/2-z
1/2-x,1/2-y,1/2-z
1/2+x,y,1/2-z
1/2-x,1/2+y,1/2+z
1/2+x,-y,1/2+z
loop_
_atom_site_type_symbol
_atom_site_label
_atom_site_fract_x
_atom_site_fract_y
_atom_site_fract_z
Si Si1 0.188323 0.910380 0.462088
Si Si2 0.811378 0.803725 0.860680
Si Si3 0.689065 0.980460 0.171260
Si Si4 0.689639 0.587890 0.630537
Si Si5 0.812430 0.695100 0.042099
O O1 0.248687 0.949889 0.400916
O O2 0.275035 0.914981 0.541653
O O3 0.218230 0.853892 0.433232
O O4 0.000000 0.918337 0.475099
O O5 0.741348 0.750000 0.835590
O O6 0.745053 0.858382 0.839841
O O7 0.000000 0.803368 0.841865
O O8 0.801907 0.803711 0.951338
O O9 0.500000 0.976670 0.170169
O O10 0.750000 0.959873 0.250000
O O11 0.736771 0.038417 0.165203
O O12 0.500000 0.587514 0.641907
O O13 0.758211 0.750000 0.068843
O O14 0.000000 0.689428 0.059814
#
# Coordination Sequence:
#
# PCOD9536022 Si02
#       5
#    16  16  16  16  16
#     4  10  20  33  51  77 106 134 167 210 256 301
#     4   7  11  22  42  70 101 128 156 193 236 283
#     4  11  24  39  53  71  99 134 172 216 262 307
#     4  10  19  32  54  80 104 134 170 207 250 302
#     4   8  14  26  46  73 103 133 165 202 246 297
#
# _framework density 19.977767
#
# number of rings (size 3 to 8) (size 9 to 14) (size 15 to 20)
#    0.000    2.800    0.000    4.800    0.000    6.000 
#    0.000    0.000    0.000    3.000    0.000    0.000 
#    0.000    0.000    0.000    0.000    0.000    0.000 
#
# Total GULP energy -222974.709989 kJ/mol
# GULP energy per Si atom -5574.367750 kJ/mol
# Density = 1.993230 g / cm^3
# Si number density = 19.977767 Si / 1000 Ang^3
#
#
#
# Elastic Constant Matrix: (Units=GPa)
#
#
# Indices 1 2 3 4 5 6 
#
# 1 11.1797 -3.7378 -0.4872 -0.0001 0.0000 0.0000
# 2 -3.7378 104.6256 34.3661 0.0000 0.0000 0.0000
# 3 -0.4872 34.3661 62.8587 -0.0006 0.0000 0.0001
# 4 -0.0001 0.0000 -0.0006 -25.3777 0.0000 0.0000
# 5 0.0000 0.0000 0.0000 0.0000 17.1102 0.0000
# 6 0.0000 0.0000 0.0001 0.0000 0.0000 13.8422
#
#
#
# Elastic Compliance Matrix: (Units=1/GPa)
#
#
# Indices 1 2 3 4 5 6 
#
# 1 0.090617 0.003665 -0.001301 0.000000 0.000000 0.000000
# 2 0.003665 0.011798 -0.006422 0.000000 0.000000 0.000000
# 3 -0.001301 -0.006422 0.019410 0.000000 0.000000 0.000000
# 4 0.000000 0.000000 0.000000 -0.039405 0.000000 0.000000
# 5 0.000000 0.000000 0.000000 0.000000 0.058445 0.000000
# 6 0.000000 0.000000 0.000000 0.000000 0.000000 0.072243
#
#
# Mechanical properties :
#
#
# Convention : Reuss Voigt Hill
#
# Bulk Modulus (GPa) = 8.79447 26.54957 17.67202
# Shear Modulus (GPa) = 19.29557 11.01646 15.15602
#
# Velocity S-wave (km/s) = 3.11119 2.35082 2.75734
# Velocity P-wave (km/s) = 4.16145 4.54828 4.35916
#
# Compressibility (1/GPa) = 0.11370777
#
# Stress axis : x y z
#
# Youngs Moduli (GPa) = 11.03548 84.75860 51.52091
#
# Poissons Ratio (x) = -0.31062 0.06705
# Poissons Ratio (y) = -0.04044 0.33086
# Poissons Ratio (z) = 0.01436 0.54431
#
# Static dielectric constant tensor:
#      x y z
#    x 1.675690 0.000000 0.000000 
#    y 0.000000 1.776480 0.000000 
#    z 0.000000 0.000000 1.701300 
# 
# From -- ./inp_files/39686.got.cif
#   From: 2010.05.17/outbox.cif.g08.bks.cpg/sg74_20_cif.got.tgz:39686.got - 2010.06.03 17:57:02.
