data_PCOD9536925
_publ_section_title
;
Structure prediction by ZEFSAII (Michael W. Deem and Ramdas Pophale) SiO2 
 PCOD9536925
Probable space group: I M M A
;
_chemical_formula_sum "Si O2"
_cell_formula_units_Z 84
_cell_length_a 7.527614
_cell_length_b 21.466641
_cell_length_c 28.302844
_cell_angle_alpha 90.000000
_cell_angle_beta 90.000000
_cell_angle_gamma 90.000000
_cell_volume 4573.529791
_symmetry_space_group_name_H-M "I M M A"
_symmetry_group_IT_number 74
_symmetry_cell_setting 'orthorhombic'
loop_
_space_group_symop_operation_xyz
x,y,z
-x,1/2-y,z
x,-y,-z
-x,1/2+y,-z
-x,-y,-z
x,1/2+y,-z
-x,y,z
x,1/2-y,z
1/2+x,1/2+y,1/2+z
1/2-x,-y,1/2+z
1/2+x,1/2-y,1/2-z
1/2-x,y,1/2-z
1/2-x,1/2-y,1/2-z
1/2+x,y,1/2-z
1/2-x,1/2+y,1/2+z
1/2+x,-y,1/2+z
loop_
_atom_site_type_symbol
_atom_site_label
_atom_site_fract_x
_atom_site_fract_y
_atom_site_fract_z
Si Si1 0.292159 0.501044 0.447207
Si Si2 0.000000 0.250000 0.020227
Si Si3 0.216450 0.750000 0.437160
Si Si4 0.714247 0.621251 0.111136
Si Si5 0.500000 0.820332 0.614567
Si Si6 0.798391 0.417365 0.361277
Si Si7 0.712242 0.536823 0.195219
O O1 0.221478 0.500000 0.500000
O O2 0.500000 0.483248 0.447987
O O3 0.273978 0.570151 0.426728
O O4 0.199727 0.454881 0.410755
O O5 0.000000 0.191933 0.057439
O O6 0.171454 0.250000 0.985858
O O7 0.266795 0.810834 0.406593
O O8 0.000000 0.750000 0.445047
O O9 0.500000 0.621784 0.112432
O O10 0.777236 0.592771 0.161296
O O11 0.500000 0.750000 0.634022
O O12 0.330120 0.859324 0.631375
O O13 0.725201 0.469805 0.324768
O O14 0.000000 0.399873 0.348463
O O15 0.500000 0.534368 0.189193
O O16 0.750000 0.545717 0.250000
#
# Coordination Sequence:
#
# PCOD9536925 Si02
#       7
#    16   4   8  16   8  16  16
#     4  10  20  30  51  79 111 144 188 243 290 338
#     4  10  26  38  56  88 116 156 218 234 266 356
#     4  10  22  40  59  77 122 170 199 242 291 337
#     4   9  20  36  52  79 113 153 198 239 292 350
#     4  10  24  40  56  85 121 151 195 244 279 346
#     4  10  21  38  57  83 114 149 190 237 297 350
#     4   9  19  35  59  90 114 143 194 248 300 364
#
# _framework density 18.366558000000001
#
# number of rings (size 3 to 8) (size 9 to 14) (size 15 to 20)
#    0.286    2.095    0.952    1.714    5.333    3.429 
#    0.000    0.476    0.000    0.571    0.000    0.000 
#    0.000    0.000    0.000    0.000    0.000    0.000 
#
# Total GULP energy -234142.045570 kJ/mol
# GULP energy per Si atom -5574.810609 kJ/mol
# Density = 1.832476 g / cm^3
# Si number density = 18.366558 Si / 1000 Ang^3
#
#
#
# Elastic Constant Matrix: (Units=GPa)
#
#
# Indices 1 2 3 4 5 6 
#
# 1 72.7327 25.0356 -1.5964 0.0000 0.0000 0.0000
# 2 25.0356 82.0714 5.7931 0.0000 0.0000 0.0000
# 3 -1.5964 5.7931 87.9445 0.0000 0.0000 0.0000
# 4 0.0000 0.0000 0.0000 9.5351 0.0000 0.0000
# 5 0.0000 0.0000 0.0000 0.0000 16.8907 0.0000
# 6 0.0000 0.0000 0.0000 0.0000 0.0000 23.6637
#
#
#
# Elastic Compliance Matrix: (Units=1/GPa)
#
#
# Indices 1 2 3 4 5 6 
#
# 1 0.015393 -0.004737 0.000591 0.000000 0.000000 0.000000
# 2 -0.004737 0.013699 -0.000988 0.000000 0.000000 0.000000
# 3 0.000591 -0.000988 0.011447 0.000000 0.000000 0.000000
# 4 0.000000 0.000000 0.000000 0.104876 0.000000 0.000000
# 5 0.000000 0.000000 0.000000 0.000000 0.059204 0.000000
# 6 0.000000 0.000000 0.000000 0.000000 0.000000 0.042259
#
#
# Mechanical properties :
#
#
# Convention : Reuss Voigt Hill
#
# Bulk Modulus (GPa) = 33.03569 33.46814 33.25191
# Shear Modulus (GPa) = 18.71009 24.25233 21.48121
#
# Velocity S-wave (km/s) = 3.19518 3.63776 3.42363
# Velocity P-wave (km/s) = 5.62478 5.99218 5.81138
#
# Compressibility (1/GPa) = 0.03027029
#
# Stress axis : x y z
#
# Youngs Moduli (GPa) = 64.96644 72.99623 87.36178
#
# Poissons Ratio (x) = 0.34580 -0.05167
# Poissons Ratio (y) = 0.30776 0.08635
# Poissons Ratio (z) = -0.03842 0.07215
#
# Static dielectric constant tensor:
#      x y z
#    x 1.669140 0.000000 0.000000 
#    y 0.000000 1.624620 0.000000 
#    z 0.000000 0.000000 1.637860 
# 
# From -- ./inp_files/64232.got.cif
#   From: 2010.05.17/outbox.cif.g08.bks.cpg/sg74_33_cif.got.tgz:64232.got - 2010.06.03 17:57:02.
