data_PCOD9536552
_publ_section_title
;
Structure prediction by ZEFSAII (Michael W. Deem and Ramdas Pophale) SiO2 
 PCOD9536552
Probable space group: I M M A
;
_chemical_formula_sum "Si O2"
_cell_formula_units_Z 112
_cell_length_a 23.363885
_cell_length_b 18.500236
_cell_length_c 13.616320
_cell_angle_alpha 90.000000
_cell_angle_beta 90.000000
_cell_angle_gamma 90.000000
_cell_volume 5885.482569
_symmetry_space_group_name_H-M "I M M A"
_symmetry_group_IT_number 74
_symmetry_cell_setting 'orthorhombic'
loop_
_space_group_symop_operation_xyz
x,y,z
-x,1/2-y,z
x,-y,-z
-x,1/2+y,-z
-x,-y,-z
x,1/2+y,-z
-x,y,z
x,1/2-y,z
1/2+x,1/2+y,1/2+z
1/2-x,-y,1/2+z
1/2+x,1/2-y,1/2-z
1/2-x,y,1/2-z
1/2-x,1/2-y,1/2-z
1/2+x,y,1/2-z
1/2-x,1/2+y,1/2+z
1/2+x,-y,1/2+z
loop_
_atom_site_type_symbol
_atom_site_label
_atom_site_fract_x
_atom_site_fract_y
_atom_site_fract_z
Si Si1 0.147970 0.926919 0.437036
Si Si2 0.665411 0.508213 0.743111
Si Si3 0.224165 0.429835 0.931273
Si Si4 0.136150 0.330189 0.043792
Si Si5 0.937077 0.451059 0.096817
Si Si6 0.065654 0.334571 0.428895
Si Si7 0.835832 0.331891 0.272232
O O1 0.141122 0.956057 0.327024
O O2 0.212656 0.895747 0.439003
O O3 0.101056 0.876119 0.486922
O O4 0.147880 0.000000 0.500000
O O5 0.708394 0.463007 0.674311
O O6 0.612901 0.528753 0.671610
O O7 0.688335 0.585590 0.788028
O O8 0.223763 0.500000 0.000000
O O9 0.176632 0.376379 0.973294
O O10 0.129831 0.250000 0.006042
O O11 0.076499 0.370751 0.059453
O O12 0.162030 0.327604 0.154287
O O13 0.000000 0.457821 0.140326
O O14 0.933058 0.500000 0.000000
O O15 0.063638 0.250000 0.454265
O O16 0.103125 0.338790 0.328514
O O17 0.000000 0.360470 0.417410
O O18 0.813680 0.250000 0.303867
#
# Coordination Sequence:
#
# PCOD9536552 Si02
#       7
#    16  16  16  16  16  16  16
#     4  11  24  37  59  90 115 153 205 248 287 350
#     4  11  19  38  59  87 117 159 194 248 295 352
#     4  11  20  38  60  83 121 156 194 246 300 349
#     4  10  19  35  58  86 117 153 191 239 299 352
#     4  10  19  34  58  87 115 151 190 235 294 354
#     4  10  22  43  64  85 122 160 193 242 300 353
#     4   9  18  33  56  88 117 148 188 230 288 352
#
# _framework density 19.029876000000002
#
# number of rings (size 3 to 8) (size 9 to 14) (size 15 to 20)
#    0.000    1.714    5.714    0.429    0.000    4.000 
#    0.000    4.286    0.000    6.000    0.000    0.000 
#    0.000    0.000    0.000    0.000    0.000    0.000 
#
# Total GULP energy -311880.927419 kJ/mol
# GULP energy per Si atom -5569.302275 kJ/mol
# Density = 1.898656 g / cm^3
# Si number density = 19.029876 Si / 1000 Ang^3
#
#
#
# Elastic Constant Matrix: (Units=GPa)
#
#
# Indices 1 2 3 4 5 6 
#
# 1 98.3153 17.8865 40.1909 0.0000 0.0000 0.0000
# 2 17.8865 69.4270 38.2949 0.0000 0.0000 0.0000
# 3 40.1909 38.2949 90.3924 0.0000 0.0000 0.0000
# 4 0.0000 0.0000 0.0000 31.6749 0.0000 0.0000
# 5 0.0000 0.0000 0.0000 0.0000 25.1733 0.0000
# 6 0.0000 0.0000 0.0000 0.0000 0.0000 11.2052
#
#
#
# Elastic Compliance Matrix: (Units=1/GPa)
#
#
# Indices 1 2 3 4 5 6 
#
# 1 0.012433 -0.000201 -0.005443 0.000000 0.000000 0.000000
# 2 -0.000201 0.018799 -0.007875 0.000000 0.000000 0.000000
# 3 -0.005443 -0.007875 0.016819 0.000000 0.000000 0.000000
# 4 0.000000 0.000000 0.000000 0.031571 0.000000 0.000000
# 5 0.000000 0.000000 0.000000 0.000000 0.039725 0.000000
# 6 0.000000 0.000000 0.000000 0.000000 0.000000 0.089245
#
#
# Mechanical properties :
#
#
# Convention : Reuss Voigt Hill
#
# Bulk Modulus (GPa) = 47.58794 50.09769 48.84282
# Shear Modulus (GPa) = 20.60723 24.39482 22.50103
#
# Velocity S-wave (km/s) = 3.29430 3.58428 3.44234
# Velocity P-wave (km/s) = 6.28738 6.59639 6.44374
#
# Compressibility (1/GPa) = 0.02101373
#
# Stress axis : x y z
#
# Youngs Moduli (GPa) = 80.43138 53.19414 59.45587
#
# Poissons Ratio (x) = 0.01068 0.32362
# Poissons Ratio (y) = 0.01616 0.46821
# Poissons Ratio (z) = 0.43778 0.41890
#
# Static dielectric constant tensor:
#      x y z
#    x 1.704810 0.000000 0.000000 
#    y 0.000000 1.696750 0.000000 
#    z 0.000000 0.000000 1.687640 
# 
# From -- ./inp_files/36487.got.cif
#   From: 2010.05.17/outbox.cif.g08.bks.cpg/sg74_19_cif.got.tgz:36487.got - 2010.06.03 17:57:02.
