data_PCOD9536102
_publ_section_title
;
Structure prediction by ZEFSAII (Michael W. Deem and Ramdas Pophale) SiO2 
 PCOD9536102
Probable space group: I M M A
;
_chemical_formula_sum "Si O2"
_cell_formula_units_Z 80
_cell_length_a 15.043857
_cell_length_b 9.528755
_cell_length_c 33.047194
_cell_angle_alpha 90.000000
_cell_angle_beta 90.000000
_cell_angle_gamma 90.000000
_cell_volume 4737.289735
_symmetry_space_group_name_H-M "I M M A"
_symmetry_group_IT_number 74
_symmetry_cell_setting 'orthorhombic'
loop_
_space_group_symop_operation_xyz
x,y,z
-x,1/2-y,z
x,-y,-z
-x,1/2+y,-z
-x,-y,-z
x,1/2+y,-z
-x,y,z
x,1/2-y,z
1/2+x,1/2+y,1/2+z
1/2-x,-y,1/2+z
1/2+x,1/2-y,1/2-z
1/2-x,y,1/2-z
1/2-x,1/2-y,1/2-z
1/2+x,y,1/2-z
1/2-x,1/2+y,1/2+z
1/2+x,-y,1/2+z
loop_
_atom_site_type_symbol
_atom_site_label
_atom_site_fract_x
_atom_site_fract_y
_atom_site_fract_z
Si Si1 0.103690 0.417995 0.352913
Si Si2 0.734821 0.919254 0.385514
Si Si3 0.597267 0.583564 0.316604
Si Si4 0.645282 0.588596 0.760066
Si Si5 0.397858 0.082260 0.541654
O O1 0.117966 0.250000 0.356706
O O2 0.171933 0.501989 0.381051
O O3 0.124761 0.455468 0.305959
O O4 0.000000 0.447209 0.361027
O O5 0.746461 0.750000 0.384616
O O6 0.675000 0.961501 0.346729
O O7 0.675298 0.954127 0.424667
O O8 0.500000 0.558911 0.335352
O O9 0.606706 0.750000 0.310392
O O10 0.601966 0.507018 0.273911
O O11 0.615143 0.750000 0.756038
O O12 0.750000 0.584354 0.750000
O O13 0.500000 0.052799 0.555088
O O14 0.392492 0.250000 0.534882
O O15 0.383011 0.000000 0.500000
#
# Coordination Sequence:
#
# PCOD9536102 Si02
#       5
#    16  16  16  16  16
#     4  10  21  36  52  71  99 136 177 220 262 300
#     4  10  20  34  53  76 104 134 167 208 252 300
#     4  10  20  32  48  72 101 133 168 207 252 301
#     4  10  19  33  51  69  95 133 175 217 259 301
#     4   9  18  34  56  82 111 139 164 195 243 304
#
# _framework density 16.887294000000001
#
# number of rings (size 3 to 8) (size 9 to 14) (size 15 to 20)
#    0.000    2.200    2.000    1.200    0.000    6.000 
#    0.000    0.000    0.000    4.200    0.000    0.000 
#    0.000    0.000    0.000    0.000    0.000    0.000 
#
# Total GULP energy -223094.982953 kJ/mol
# GULP energy per Si atom -5577.374574 kJ/mol
# Density = 1.684886 g / cm^3
# Si number density = 16.887294 Si / 1000 Ang^3
#
#
#
# Elastic Constant Matrix: (Units=GPa)
#
#
# Indices 1 2 3 4 5 6 
#
# 1 138.4344 51.3975 67.6690 0.0000 0.0000 0.0000
# 2 51.3975 25.2543 40.0009 0.0000 0.0000 0.0000
# 3 67.6690 40.0009 96.4417 0.0000 0.0000 0.0000
# 4 0.0000 0.0000 0.0000 26.8166 0.0000 0.0000
# 5 0.0000 0.0000 0.0000 0.0000 28.2689 0.0000
# 6 0.0000 0.0000 0.0000 0.0000 0.0000 23.1037
#
#
#
# Elastic Compliance Matrix: (Units=1/GPa)
#
#
# Indices 1 2 3 4 5 6 
#
# 1 0.035558 -0.095759 0.014768 0.000000 0.000000 0.000000
# 2 -0.095759 0.373316 -0.087649 0.000000 0.000000 0.000000
# 3 0.014768 -0.087649 0.036361 0.000000 0.000000 0.000000
# 4 0.000000 0.000000 0.000000 0.037290 0.000000 0.000000
# 5 0.000000 0.000000 0.000000 0.000000 0.035375 0.000000
# 6 0.000000 0.000000 0.000000 0.000000 0.000000 0.043283
#
#
# Mechanical properties :
#
#
# Convention : Reuss Voigt Hill
#
# Bulk Modulus (GPa) = 9.26318 64.25171 36.75744
# Shear Modulus (GPa) = 5.35076 22.37537 13.86306
#
# Velocity S-wave (km/s) = 1.78196 3.64398 2.86827
# Velocity P-wave (km/s) = 3.11946 7.47227 5.72564
#
# Compressibility (1/GPa) = 0.10795426
#
# Stress axis : x y z
#
# Youngs Moduli (GPa) = 28.12322 2.67870 27.50229
#
# Poissons Ratio (x) = 0.25651 -0.40617
# Poissons Ratio (y) = 2.69306 2.41055
# Poissons Ratio (z) = -0.41534 0.23479
#
# Static dielectric constant tensor:
#      x y z
#    x 1.596320 0.000000 0.000000 
#    y 0.000000 1.560490 0.000000 
#    z 0.000000 0.000000 1.542990 
# 
# From -- ./inp_files/66893.got.cif
#   From: 2010.05.17/outbox.cif.g08.bks.cpg/sg74_34_cif.got.tgz:66893.got - 2010.06.03 17:57:02.
