data_PCOD9536132
_publ_section_title
;
Structure prediction by ZEFSAII (Michael W. Deem and Ramdas Pophale) SiO2 
 PCOD9536132
Probable space group: I M M A
;
_chemical_formula_sum "Si O2"
_cell_formula_units_Z 96
_cell_length_a 32.914085
_cell_length_b 8.461017
_cell_length_c 19.189913
_cell_angle_alpha 90.000000
_cell_angle_beta 90.000000
_cell_angle_gamma 90.000000
_cell_volume 5344.134254
_symmetry_space_group_name_H-M "I M M A"
_symmetry_group_IT_number 74
_symmetry_cell_setting 'orthorhombic'
loop_
_space_group_symop_operation_xyz
x,y,z
-x,1/2-y,z
x,-y,-z
-x,1/2+y,-z
-x,-y,-z
x,1/2+y,-z
-x,y,z
x,1/2-y,z
1/2+x,1/2+y,1/2+z
1/2-x,-y,1/2+z
1/2+x,1/2-y,1/2-z
1/2-x,y,1/2-z
1/2-x,1/2-y,1/2-z
1/2+x,y,1/2-z
1/2-x,1/2+y,1/2+z
1/2+x,-y,1/2+z
loop_
_atom_site_type_symbol
_atom_site_label
_atom_site_fract_x
_atom_site_fract_y
_atom_site_fract_z
Si Si1 0.870592 0.560698 0.670106
Si Si2 0.791025 0.560155 0.921089
Si Si3 0.203718 0.561999 0.421082
Si Si4 0.044255 0.560952 0.320814
Si Si5 0.543624 0.060129 0.338051
Si Si6 0.868214 0.057187 0.167578
O O1 0.870736 0.750000 0.668415
O O2 0.833458 0.497028 0.625302
O O3 0.914532 0.499608 0.644349
O O4 0.865859 0.510005 0.751204
O O5 0.790476 0.750000 0.921438
O O6 0.747311 0.500871 0.894759
O O7 0.829081 0.504180 0.875217
O O8 0.795573 0.500000 0.000000
O O9 0.198976 0.500000 0.500000
O O10 0.204762 0.750000 0.422464
O O11 0.046681 0.750000 0.312771
O O12 0.043860 0.482205 0.244061
O O13 0.000000 0.523479 0.353211
O O14 0.500000 0.999865 0.366341
O O15 0.543285 0.250000 0.345175
O O16 0.587976 0.003814 0.363080
O O17 0.868305 0.250000 0.166522
#
# Coordination Sequence:
#
# PCOD9536132 Si02
#       6
#    16  16  16  16  16  16
#     4  10  19  33  52  75 100 128 163 201 241 284
#     4  10  19  34  52  70  94 127 166 203 243 292
#     4  11  22  37  54  73  96 125 161 198 241 292
#     4   9  16  26  42  68 101 132 160 194 237 282
#     4   8  13  24  43  66  92 125 164 200 236 284
#     4   8  16  29  48  73  99 127 161 202 245 286
#
# _framework density 17.963622000000001
#
# number of rings (size 3 to 8) (size 9 to 14) (size 15 to 20)
#    0.000    2.667    0.000    5.000    0.000    1.667 
#    0.000   11.667    0.000    1.000    0.000    0.000 
#    0.000    0.000    0.000    0.000    0.000    0.667 
#
# Total GULP energy -267319.339002 kJ/mol
# GULP energy per Si atom -5569.152896 kJ/mol
# Density = 1.792274 g / cm^3
# Si number density = 17.963622 Si / 1000 Ang^3
#
#
#
# Elastic Constant Matrix: (Units=GPa)
#
#
# Indices 1 2 3 4 5 6 
#
# 1 236.7199 36.7442 61.4632 0.0000 0.0000 0.0000
# 2 36.7442 46.3615 11.7367 0.0000 0.0000 0.0000
# 3 61.4632 11.7367 29.3343 0.0000 0.0000 0.0000
# 4 0.0000 0.0000 0.0000 15.0413 0.0000 0.0000
# 5 0.0000 0.0000 0.0000 0.0000 8.4892 0.0000
# 6 0.0000 0.0000 0.0000 0.0000 0.0000 19.5370
#
#
#
# Elastic Compliance Matrix: (Units=1/GPa)
#
#
# Indices 1 2 3 4 5 6 
#
# 1 0.009579 -0.002794 -0.018953 0.000000 0.000000 0.000000
# 2 -0.002794 0.024816 -0.004075 0.000000 0.000000 0.000000
# 3 -0.018953 -0.004075 0.075432 0.000000 0.000000 0.000000
# 4 0.000000 0.000000 0.000000 0.066483 0.000000 0.000000
# 5 0.000000 0.000000 0.000000 0.000000 0.117797 0.000000
# 6 0.000000 0.000000 0.000000 0.000000 0.000000 0.051185
#
#
# Mechanical properties :
#
#
# Convention : Reuss Voigt Hill
#
# Bulk Modulus (GPa) = 17.18709 59.14490 38.16599
# Shear Modulus (GPa) = 12.00970 22.11160 17.06065
#
# Velocity S-wave (km/s) = 2.58845 3.51224 3.08512
# Velocity P-wave (km/s) = 4.30371 7.03165 5.82949
#
# Compressibility (1/GPa) = 0.05818321
#
# Stress axis : x y z
#
# Youngs Moduli (GPa) = 104.39325 40.29734 13.25697
#
# Poissons Ratio (x) = 0.11259 0.25126
# Poissons Ratio (y) = 0.29167 0.05402
# Poissons Ratio (z) = 1.97857 0.16420
#
# Static dielectric constant tensor:
#      x y z
#    x 1.678550 0.000000 0.000000 
#    y 0.000000 1.614670 0.000000 
#    z 0.000000 0.000000 1.580400 
# 
# From -- ./inp_files/62274.got.cif
#   From: 2010.05.17/outbox.cif.g08.bks.cpg/sg74_32_cif.got.tgz:62274.got - 2010.06.03 17:57:02.
