data_PCOD9536480
_publ_section_title
;
Structure prediction by ZEFSAII (Michael W. Deem and Ramdas Pophale) SiO2 
 PCOD9536480
Probable space group: I M M A
;
_chemical_formula_sum "Si O2"
_cell_formula_units_Z 112
_cell_length_a 15.275677
_cell_length_b 27.273550
_cell_length_c 15.119589
_cell_angle_alpha 90.000000
_cell_angle_beta 90.000000
_cell_angle_gamma 90.000000
_cell_volume 6299.152508
_symmetry_space_group_name_H-M "I M M A"
_symmetry_group_IT_number 74
_symmetry_cell_setting 'orthorhombic'
loop_
_space_group_symop_operation_xyz
x,y,z
-x,1/2-y,z
x,-y,-z
-x,1/2+y,-z
-x,-y,-z
x,1/2+y,-z
-x,y,z
x,1/2-y,z
1/2+x,1/2+y,1/2+z
1/2-x,-y,1/2+z
1/2+x,1/2-y,1/2-z
1/2-x,y,1/2-z
1/2-x,1/2-y,1/2-z
1/2+x,y,1/2-z
1/2-x,1/2+y,1/2+z
1/2+x,-y,1/2+z
loop_
_atom_site_type_symbol
_atom_site_label
_atom_site_fract_x
_atom_site_fract_y
_atom_site_fract_z
Si Si1 0.784286 0.305490 0.348892
Si Si2 0.173956 0.694193 0.025486
Si Si3 0.903329 0.631311 0.555698
Si Si4 0.902902 0.593118 0.086265
Si Si5 0.134947 0.194546 0.607782
Si Si6 0.712321 0.552612 0.044247
Si Si7 0.651776 0.102634 0.781114
O O1 0.815280 0.250000 0.367116
O O2 0.750000 0.307273 0.250000
O O3 0.711890 0.314891 0.425964
O O4 0.861547 0.344218 0.359046
O O5 0.138455 0.750000 0.028508
O O6 0.113263 0.649954 0.057837
O O7 0.260444 0.693147 0.088045
O O8 0.904652 0.675340 0.483981
O O9 0.836166 0.591928 0.517444
O O10 0.000000 0.611043 0.566705
O O11 0.815746 0.565191 0.052054
O O12 0.898175 0.587746 0.192812
O O13 0.000000 0.577638 0.055833
O O14 0.110497 0.250000 0.630310
O O15 0.113274 0.152430 0.677748
O O16 0.666591 0.562853 0.140262
O O17 0.700398 0.500000 0.000000
O O18 0.750000 0.114630 0.750000
#
# Coordination Sequence:
#
# PCOD9536480 Si02
#       7
#    16  16  16  16  16  16  16
#     4   9  17  32  55  80 112 152 191 232 280 330
#     4   9  16  31  53  81 114 155 193 220 263 325
#     4  10  19  34  56  82 108 140 185 234 285 337
#     4  11  21  36  58  85 118 152 186 223 271 338
#     4   9  16  28  51  79 114 152 185 220 262 315
#     4  10  21  40  62  80 104 143 187 238 295 337
#     4   9  17  33  51  81 110 145 183 224 271 322
#
# _framework density 17.780169999999998
#
# number of rings (size 3 to 8) (size 9 to 14) (size 15 to 20)
#    0.000    2.429    5.714    1.286    0.000    5.143 
#    0.000    2.857    0.000    2.571    0.000    0.000 
#    0.000    0.000    0.000    0.000    0.000    0.000 
#
# Total GULP energy -311781.853775 kJ/mol
# GULP energy per Si atom -5567.533103 kJ/mol
# Density = 1.773970 g / cm^3
# Si number density = 17.780170 Si / 1000 Ang^3
#
#
#
# Elastic Constant Matrix: (Units=GPa)
#
#
# Indices 1 2 3 4 5 6 
#
# 1 88.5881 29.4153 22.8429 0.0000 0.0000 0.0000
# 2 29.4153 95.2175 48.5350 0.0000 0.0000 0.0000
# 3 22.8429 48.5350 70.0566 0.0000 0.0000 0.0000
# 4 0.0000 0.0000 0.0000 17.2341 0.0000 0.0000
# 5 0.0000 0.0000 0.0000 0.0000 7.2362 0.0000
# 6 0.0000 0.0000 0.0000 0.0000 0.0000 -0.5393
#
#
#
# Elastic Compliance Matrix: (Units=1/GPa)
#
#
# Indices 1 2 3 4 5 6 
#
# 1 0.012797 -0.002824 -0.002217 0.000000 0.000000 0.000000
# 2 -0.002824 0.016859 -0.010759 0.000000 0.000000 0.000000
# 3 -0.002217 -0.010759 0.022451 0.000000 0.000000 0.000000
# 4 0.000000 0.000000 0.000000 0.058025 0.000000 0.000000
# 5 0.000000 0.000000 0.000000 0.000000 0.138195 0.000000
# 6 0.000000 0.000000 0.000000 0.000000 0.000000 -1.854212
#
#
# Mechanical properties :
#
#
# Convention : Reuss Voigt Hill
#
# Bulk Modulus (GPa) = 48.76042 50.60540 49.68291
# Shear Modulus (GPa) = -3.18989 14.99079 5.90045
#
# Velocity S-wave (km/s) = -1.34088 2.90680 1.82367
# Velocity P-wave (km/s) = 5.00862 6.30789 5.69543
#
# Compressibility (1/GPa) = 0.02050844
#
# Stress axis : x y z
#
# Youngs Moduli (GPa) = 78.14143 59.31652 44.54206
#
# Poissons Ratio (x) = 0.16749 0.09873
# Poissons Ratio (y) = 0.22064 0.47923
# Poissons Ratio (z) = 0.17320 0.63819
#
# Static dielectric constant tensor:
#      x y z
#    x 1.650800 0.000000 0.000000 
#    y 0.000000 1.606720 0.000000 
#    z 0.000000 0.000000 1.624060 
# 
# From -- ./inp_files/32923.got.cif
#   From: 2010.05.17/outbox.cif.g08.bks.cpg/sg74_17_cif.got.tgz:32923.got - 2010.06.03 17:57:02.
