data_PCOD9536999
_publ_section_title
;
Structure prediction by ZEFSAII (Michael W. Deem and Ramdas Pophale) SiO2 
 PCOD9536999
Probable space group: I M M A
;
_chemical_formula_sum "Si O2"
_cell_formula_units_Z 96
_cell_length_a 8.851244
_cell_length_b 24.069567
_cell_length_c 25.201429
_cell_angle_alpha 90.000000
_cell_angle_beta 90.000000
_cell_angle_gamma 90.000000
_cell_volume 5369.053827
_symmetry_space_group_name_H-M "I M M A"
_symmetry_group_IT_number 74
_symmetry_cell_setting 'orthorhombic'
loop_
_space_group_symop_operation_xyz
x,y,z
-x,1/2-y,z
x,-y,-z
-x,1/2+y,-z
-x,-y,-z
x,1/2+y,-z
-x,y,z
x,1/2-y,z
1/2+x,1/2+y,1/2+z
1/2-x,-y,1/2+z
1/2+x,1/2-y,1/2-z
1/2-x,y,1/2-z
1/2-x,1/2-y,1/2-z
1/2+x,y,1/2-z
1/2-x,1/2+y,1/2+z
1/2+x,-y,1/2+z
loop_
_atom_site_type_symbol
_atom_site_label
_atom_site_fract_x
_atom_site_fract_y
_atom_site_fract_z
Si Si1 0.818023 0.525801 0.692113
Si Si2 0.829111 0.816153 0.803501
Si Si3 0.181722 0.103095 0.693028
Si Si4 0.319235 0.313961 0.484327
Si Si5 0.818972 0.186007 0.600214
Si Si6 0.821469 0.881357 0.608321
O O1 0.750000 0.539899 0.750000
O O2 0.778789 0.461312 0.681898
O O3 0.769770 0.564857 0.642825
O O4 0.000000 0.530905 0.696061
O O5 0.840141 0.750000 0.800392
O O6 0.750000 0.836212 0.750000
O O7 0.722589 0.832253 0.851562
O O8 0.000000 0.838203 0.809841
O O9 0.250000 0.118366 0.750000
O O10 0.230775 0.143636 0.645825
O O11 0.000000 0.106300 0.696665
O O12 0.500000 0.315119 0.481904
O O13 0.271972 0.250000 0.469271
O O14 0.261778 0.323121 0.544087
O O15 0.255258 0.361747 0.446000
O O16 0.791218 0.250000 0.616329
O O17 0.000000 0.179643 0.592552
O O18 0.000000 0.886176 0.599991
#
# Coordination Sequence:
#
# PCOD9536999 Si02
#       6
#    16  16  16  16  16  16
#     4   9  19  34  51  73 101 135 172 209 252 298
#     4  10  20  32  45  64  92 124 160 207 261 309
#     4   9  18  34  55  79 108 137 165 201 246 298
#     4  10  21  36  53  74 101 133 169 211 258 304
#     4   9  18  34  56  80 105 134 167 203 246 298
#     4  11  21  32  49  71  95 129 173 213 251 299
#
# _framework density 17.880244999999999
#
# number of rings (size 3 to 8) (size 9 to 14) (size 15 to 20)
#    0.000    2.333    0.000    2.500    0.000    7.667 
#    0.000    0.833    0.000    5.000    0.000    0.000 
#    0.000    0.000    0.000    0.000    0.000    0.000 
#
# Total GULP energy -267600.125048 kJ/mol
# GULP energy per Si atom -5575.002605 kJ/mol
# Density = 1.783955 g / cm^3
# Si number density = 17.880245 Si / 1000 Ang^3
#
#
#
# Elastic Constant Matrix: (Units=GPa)
#
#
# Indices 1 2 3 4 5 6 
#
# 1 25.6699 36.3206 35.6083 0.0000 0.0000 0.0000
# 2 36.3206 106.8915 87.5946 0.0000 0.0000 0.0000
# 3 35.6083 87.5946 130.6632 0.0000 0.0000 0.0000
# 4 0.0000 0.0000 0.0000 40.4696 0.0000 0.0000
# 5 0.0000 0.0000 0.0000 0.0000 30.9078 0.0000
# 6 0.0000 0.0000 0.0000 0.0000 0.0000 31.9403
#
#
#
# Elastic Compliance Matrix: (Units=1/GPa)
#
#
# Indices 1 2 3 4 5 6 
#
# 1 0.078441 -0.020273 -0.007786 0.000000 0.000000 0.000000
# 2 -0.020273 0.026000 -0.011905 0.000000 0.000000 0.000000
# 3 -0.007786 -0.011905 0.017756 0.000000 0.000000 0.000000
# 4 0.000000 0.000000 0.000000 0.024710 0.000000 0.000000
# 5 0.000000 0.000000 0.000000 0.000000 0.032354 0.000000
# 6 0.000000 0.000000 0.000000 0.000000 0.000000 0.031308
#
#
# Mechanical properties :
#
#
# Convention : Reuss Voigt Hill
#
# Bulk Modulus (GPa) = 23.65813 64.69685 44.17749
# Shear Modulus (GPa) = 16.41567 27.57695 21.99631
#
# Velocity S-wave (km/s) = 3.03329 3.93149 3.51123
# Velocity P-wave (km/s) = 5.05252 7.54127 6.41867
#
# Compressibility (1/GPa) = 0.04226876
#
# Stress axis : x y z
#
# Youngs Moduli (GPa) = 12.74840 38.46213 56.31898
#
# Poissons Ratio (x) = 0.77974 0.43850
# Poissons Ratio (y) = 0.25845 0.67047
# Poissons Ratio (z) = 0.09926 0.45789
#
# Static dielectric constant tensor:
#      x y z
#    x 1.618340 0.000000 0.000000 
#    y 0.000000 1.637930 0.000000 
#    z 0.000000 0.000000 1.580680 
# 
# From -- ./inp_files/57262.got.cif
#   From: 2010.05.17/outbox.cif.g08.bks.cpg/sg74_29_cif.got.tgz:57262.got - 2010.06.03 17:57:02.
