data_PCOD9536085
_publ_section_title
;
Structure prediction by ZEFSAII (Michael W. Deem and Ramdas Pophale) SiO2 
 PCOD9536085
Probable space group: I M M A
;
_chemical_formula_sum "Si O2"
_cell_formula_units_Z 96
_cell_length_a 8.913378
_cell_length_b 29.266870
_cell_length_c 26.944865
_cell_angle_alpha 90.000000
_cell_angle_beta 90.000000
_cell_angle_gamma 90.000000
_cell_volume 7029.017346
_symmetry_space_group_name_H-M "I M M A"
_symmetry_group_IT_number 74
_symmetry_cell_setting 'orthorhombic'
loop_
_space_group_symop_operation_xyz
x,y,z
-x,1/2-y,z
x,-y,-z
-x,1/2+y,-z
-x,-y,-z
x,1/2+y,-z
-x,y,z
x,1/2-y,z
1/2+x,1/2+y,1/2+z
1/2-x,-y,1/2+z
1/2+x,1/2-y,1/2-z
1/2-x,y,1/2-z
1/2-x,1/2-y,1/2-z
1/2+x,y,1/2-z
1/2-x,1/2+y,1/2+z
1/2+x,-y,1/2+z
loop_
_atom_site_type_symbol
_atom_site_label
_atom_site_fract_x
_atom_site_fract_y
_atom_site_fract_z
Si Si1 0.178589 0.802048 0.036063
Si Si2 0.178839 0.107715 0.697040
Si Si3 0.822783 0.393116 0.510254
Si Si4 0.678625 0.302355 0.654702
Si Si5 0.326880 0.032065 0.450749
Si Si6 0.680743 0.055749 0.604881
O O1 0.217747 0.750000 0.022406
O O2 0.268035 0.841099 0.007756
O O3 0.205336 0.806729 0.095439
O O4 0.000000 0.808183 0.028776
O O5 0.250000 0.096274 0.750000
O O6 0.228824 0.159257 0.682833
O O7 0.246860 0.075370 0.654414
O O8 0.000000 0.104447 0.698235
O O9 0.772190 0.424328 0.463974
O O10 0.741371 0.414466 0.558703
O O11 0.000000 0.395872 0.517131
O O12 0.500000 0.309655 0.662715
O O13 0.713966 0.250000 0.668855
O O14 0.500000 0.045956 0.443745
O O15 0.322615 0.000000 0.500000
O O16 0.281470 0.997145 0.407317
O O17 0.500000 0.059835 0.606185
#
# Coordination Sequence:
#
# PCOD9536085 Si02
#       6
#    16  16  16  16  16  16
#     4   9  17  29  45  61  81 112 143 171 207 251
#     4  12  24  35  48  64  81 105 135 172 218 261
#     4  11  19  26  42  67  89 108 132 168 207 247
#     4   9  18  33  50  63  77 102 136 175 217 258
#     4   8  16  29  45  62  81 108 134 161 201 246
#     4  10  19  33  48  61  81 106 135 171 208 249
#
# _framework density 13.657671000000001
#
# number of rings (size 3 to 8) (size 9 to 14) (size 15 to 20)
#    0.000    2.167    1.667    5.500    0.000    4.667 
#    0.000    1.667    0.000    0.000    0.000    0.000 
#    0.000    0.000    0.000    0.000    0.000    0.833 
#
# Total GULP energy -267696.760391 kJ/mol
# GULP energy per Si atom -5577.015841 kJ/mol
# Density = 1.362659 g / cm^3
# Si number density = 13.657671 Si / 1000 Ang^3
#
#
#
# Elastic Constant Matrix: (Units=GPa)
#
#
# Indices 1 2 3 4 5 6 
#
# 1 78.6863 56.7688 38.2461 0.0000 0.0000 0.0000
# 2 56.7688 88.8693 50.4733 0.0000 0.0000 0.0000
# 3 38.2461 50.4733 54.2889 0.0000 0.0000 0.0000
# 4 0.0000 0.0000 0.0000 13.3510 0.0000 0.0000
# 5 0.0000 0.0000 0.0000 0.0000 15.7351 0.0000
# 6 0.0000 0.0000 0.0000 0.0000 0.0000 -11.0327
#
#
#
# Elastic Compliance Matrix: (Units=1/GPa)
#
#
# Indices 1 2 3 4 5 6 
#
# 1 0.024381 -0.012329 -0.005713 0.000000 0.000000 0.000000
# 2 -0.012329 0.030077 -0.019277 0.000000 0.000000 0.000000
# 3 -0.005713 -0.019277 0.040367 0.000000 0.000000 0.000000
# 4 0.000000 0.000000 0.000000 0.074900 0.000000 0.000000
# 5 0.000000 0.000000 0.000000 0.000000 0.063552 0.000000
# 6 0.000000 0.000000 0.000000 0.000000 0.000000 -0.090640
#
#
# Mechanical properties :
#
#
# Convention : Reuss Voigt Hill
#
# Bulk Modulus (GPa) = 49.54065 56.98009 53.26037
# Shear Modulus (GPa) = 22.32100 8.70111 15.51105
#
# Velocity S-wave (km/s) = 4.04706 2.52679 3.37367
# Velocity P-wave (km/s) = 7.62824 7.09392 7.36593
#
# Compressibility (1/GPa) = 0.02018544
#
# Stress axis : x y z
#
# Youngs Moduli (GPa) = 41.01593 33.24851 24.77281
#
# Poissons Ratio (x) = 0.40993 0.14153
# Poissons Ratio (y) = 0.50570 0.47754
# Poissons Ratio (z) = 0.23434 0.64092
#
# Static dielectric constant tensor:
#      x y z
#    x 1.449890 0.000000 0.000000 
#    y 0.000000 1.467340 0.000000 
#    z 0.000000 0.000000 1.429730 
# 
# From -- ./inp_files/57481.got.cif
#   From: 2010.05.17/outbox.cif.g08.bks.cpg/sg74_29_cif.got.tgz:57481.got - 2010.06.03 17:57:02.
