data_PCOD9536518
_publ_section_title
;
Structure prediction by ZEFSAII (Michael W. Deem and Ramdas Pophale) SiO2 
 PCOD9536518
Probable space group: I M M A
;
_chemical_formula_sum "Si O2"
_cell_formula_units_Z 80
_cell_length_a 17.959416
_cell_length_b 24.842612
_cell_length_c 9.804395
_cell_angle_alpha 90.000000
_cell_angle_beta 90.000000
_cell_angle_gamma 90.000000
_cell_volume 4374.317142
_symmetry_space_group_name_H-M "I M M A"
_symmetry_group_IT_number 74
_symmetry_cell_setting 'orthorhombic'
loop_
_space_group_symop_operation_xyz
x,y,z
-x,1/2-y,z
x,-y,-z
-x,1/2+y,-z
-x,-y,-z
x,1/2+y,-z
-x,y,z
x,1/2-y,z
1/2+x,1/2+y,1/2+z
1/2-x,-y,1/2+z
1/2+x,1/2-y,1/2-z
1/2-x,y,1/2-z
1/2-x,1/2-y,1/2-z
1/2+x,y,1/2-z
1/2-x,1/2+y,1/2+z
1/2+x,-y,1/2+z
loop_
_atom_site_type_symbol
_atom_site_label
_atom_site_fract_x
_atom_site_fract_y
_atom_site_fract_z
Si Si1 0.915602 0.592191 0.266046
Si Si2 0.322240 0.009868 0.162479
Si Si3 0.781823 0.689728 0.599539
Si Si4 0.417219 0.610424 0.909248
Si Si5 0.181009 0.187009 0.855278
O O1 0.858465 0.542120 0.263747
O O2 0.921320 0.602040 0.428185
O O3 0.880762 0.644852 0.194630
O O4 0.000000 0.580680 0.216849
O O5 0.250000 0.025851 0.250000
O O6 0.383863 0.056700 0.157680
O O7 0.304612 0.000000 0.000000
O O8 0.798447 0.750000 0.548428
O O9 0.750000 0.692048 0.750000
O O10 0.856604 0.656374 0.606724
O O11 0.718437 0.668521 0.497371
O O12 0.500000 0.622661 0.858286
O O13 0.156143 0.250000 0.864529
O O14 0.250000 0.185097 0.750000
#
# Coordination Sequence:
#
# PCOD9536518 Si02
#       5
#    16  16  16  16  16
#     4  10  20  34  56  84 114 144 182 235 288 332
#     4  10  21  36  59  82 107 148 191 233 280 340
#     4  10  21  37  58  83 113 151 190 228 276 340
#     4  10  20  35  56  83 112 143 187 236 280 332
#     4  10  19  34  57  84 112 144 188 232 274 334
#
# _framework density 18.288568000000001
#
# number of rings (size 3 to 8) (size 9 to 14) (size 15 to 20)
#    0.000    2.000    2.000    1.800    2.800    3.200 
#    0.000    3.000    0.000    4.800    0.000    0.000 
#    0.000    0.000    0.000    0.000    0.000    0.000 
#
# Total GULP energy -222958.187964 kJ/mol
# GULP energy per Si atom -5573.954699 kJ/mol
# Density = 1.824694 g / cm^3
# Si number density = 18.288568 Si / 1000 Ang^3
#
#
#
# Elastic Constant Matrix: (Units=GPa)
#
#
# Indices 1 2 3 4 5 6 
#
# 1 104.6645 50.2144 31.0562 0.0000 0.0000 0.0000
# 2 50.2144 77.8570 16.3537 0.0000 0.0000 0.0000
# 3 31.0562 16.3537 56.8178 0.0000 0.0000 0.0000
# 4 0.0000 0.0000 0.0000 8.2875 0.0000 0.0000
# 5 0.0000 0.0000 0.0000 0.0000 12.1428 0.0000
# 6 0.0000 0.0000 0.0000 0.0000 0.0000 16.6037
#
#
#
# Elastic Compliance Matrix: (Units=1/GPa)
#
#
# Indices 1 2 3 4 5 6 
#
# 1 0.015528 -0.008762 -0.005966 0.000000 0.000000 0.000000
# 2 -0.008762 0.018615 -0.000569 0.000000 0.000000 0.000000
# 3 -0.005966 -0.000569 0.021025 0.000000 0.000000 0.000000
# 4 0.000000 0.000000 0.000000 0.120664 0.000000 0.000000
# 5 0.000000 0.000000 0.000000 0.000000 0.082353 0.000000
# 6 0.000000 0.000000 0.000000 0.000000 0.000000 0.060228
#
#
# Mechanical properties :
#
#
# Convention : Reuss Voigt Hill
#
# Bulk Modulus (GPa) = 40.69179 48.28752 44.48966
# Shear Modulus (GPa) = 13.99793 16.85447 15.42620
#
# Velocity S-wave (km/s) = 2.76957 3.03906 2.90744
# Velocity P-wave (km/s) = 5.70312 6.22695 5.97078
#
# Compressibility (1/GPa) = 0.02457498
#
# Stress axis : x y z
#
# Youngs Moduli (GPa) = 64.39931 53.72149 47.56343
#
# Poissons Ratio (x) = 0.47070 0.28375
# Poissons Ratio (y) = 0.56426 0.02704
# Poissons Ratio (z) = 0.38418 0.03054
#
# Static dielectric constant tensor:
#      x y z
#    x 1.608870 0.000000 0.000000 
#    y 0.000000 1.681410 0.000000 
#    z 0.000000 0.000000 1.703220 
# 
# From -- ./inp_files/20466.got.cif
#   From: 2010.05.17/outbox.cif.g08.bks.cpg/sg74_11_cif.got.tgz:20466.got - 2010.06.03 17:57:02.
