data_PCOD9536140
_publ_section_title
;
Structure prediction by ZEFSAII (Michael W. Deem and Ramdas Pophale) SiO2 
 PCOD9536140
Probable space group: I M M A
;
_chemical_formula_sum "Si O2"
_cell_formula_units_Z 116
_cell_length_a 27.557807
_cell_length_b 8.772038
_cell_length_c 27.637869
_cell_angle_alpha 90.000000
_cell_angle_beta 90.000000
_cell_angle_gamma 90.000000
_cell_volume 6681.126775
_symmetry_space_group_name_H-M "I M M A"
_symmetry_group_IT_number 74
_symmetry_cell_setting 'orthorhombic'
loop_
_space_group_symop_operation_xyz
x,y,z
-x,1/2-y,z
x,-y,-z
-x,1/2+y,-z
-x,-y,-z
x,1/2+y,-z
-x,y,z
x,1/2-y,z
1/2+x,1/2+y,1/2+z
1/2-x,-y,1/2+z
1/2+x,1/2-y,1/2-z
1/2-x,y,1/2-z
1/2-x,1/2-y,1/2-z
1/2+x,y,1/2-z
1/2-x,1/2+y,1/2+z
1/2+x,-y,1/2+z
loop_
_atom_site_type_symbol
_atom_site_label
_atom_site_fract_x
_atom_site_fract_y
_atom_site_fract_z
Si Si1 0.718609 0.427017 0.817004
Si Si2 0.083501 0.068668 0.425884
Si Si3 0.319911 0.430765 0.345135
Si Si4 0.814107 0.926954 0.426480
Si Si5 0.364954 0.566935 0.256003
Si Si6 0.790088 0.932895 0.950277
Si Si7 0.442709 0.931737 0.177066
Si Si8 0.000000 0.000000 0.500000
O O1 0.732116 0.250000 0.808059
O O2 0.767312 0.521563 0.824088
O O3 0.690204 0.430831 0.867971
O O4 0.682404 0.480166 0.775299
O O5 0.078022 0.250000 0.432215
O O6 0.042506 0.990515 0.458287
O O7 0.137119 0.013998 0.440288
O O8 0.074413 0.021760 0.370311
O O9 0.324473 0.250000 0.344360
O O10 0.359509 0.502074 0.309585
O O11 0.318188 0.481008 0.401330
O O12 0.815890 0.750000 0.441587
O O13 0.764837 0.004386 0.444798
O O14 0.364074 0.750000 0.258518
O O15 0.411460 0.522965 0.224008
O O16 0.788759 0.750000 0.952137
O O17 0.810443 0.000000 0.000000
O O18 0.500000 0.954034 0.184233
O O19 0.434045 0.750000 0.168570
#
# Coordination Sequence:
#
# PCOD9536140 Si02
#       8
#    16  16  16  16  16  16  16   4
#     4   9  17  31  50  73 102 137 171 207 252 311
#     4  12  25  41  58  76  98 129 175 228 282 328
#     4  10  21  33  48  76 108 137 171 213 255 304
#     4  10  20  36  56  76 101 134 174 216 265 317
#     4  10  19  33  52  77 104 137 173 207 257 318
#     4  10  21  37  54  76 106 139 177 214 257 306
#     4  10  21  39  61  80 103 135 173 219 271 323
#     4  12  30  44  52  70 102 136 176 234 292 328
#
# _framework density 17.362342000000002
#
# number of rings (size 3 to 8) (size 9 to 14) (size 15 to 20)
#    0.000    1.793    2.069    2.276    0.966    7.172 
#    0.000    0.000    0.000    0.000    0.000    0.000 
#    0.000    0.552    0.000    1.241    0.000    1.931 
#
# Total GULP energy -323409.663145 kJ/mol
# GULP energy per Si atom -5576.028675 kJ/mol
# Density = 1.732282 g / cm^3
# Si number density = 17.362342 Si / 1000 Ang^3
#
#
#
# Elastic Constant Matrix: (Units=GPa)
#
#
# Indices 1 2 3 4 5 6 
#
# 1 35.1420 2.3435 31.7845 0.0000 0.0000 0.0000
# 2 2.3435 10.5938 18.6128 0.0000 0.0000 0.0000
# 3 31.7845 18.6128 121.7188 0.0000 0.0000 0.0000
# 4 0.0000 0.0000 0.0000 14.0365 0.0000 0.0000
# 5 0.0000 0.0000 0.0000 0.0000 48.5054 0.0000
# 6 0.0000 0.0000 0.0000 0.0000 0.0000 17.9923
#
#
#
# Elastic Compliance Matrix: (Units=1/GPa)
#
#
# Indices 1 2 3 4 5 6 
#
# 1 0.038425 0.012483 -0.011943 0.000000 0.000000 0.000000
# 2 0.012483 0.133128 -0.023617 0.000000 0.000000 0.000000
# 3 -0.011943 -0.023617 0.014946 0.000000 0.000000 0.000000
# 4 0.000000 0.000000 0.000000 0.071243 0.000000 0.000000
# 5 0.000000 0.000000 0.000000 0.000000 0.020616 0.000000
# 6 0.000000 0.000000 0.000000 0.000000 0.000000 0.055579
#
#
# Mechanical properties :
#
#
# Convention : Reuss Voigt Hill
#
# Bulk Modulus (GPa) = 7.12532 30.32626 18.72579
# Shear Modulus (GPa) = 11.71308 23.75443 17.73375
#
# Velocity S-wave (km/s) = 2.60017 3.70287 3.19939
# Velocity P-wave (km/s) = 3.62317 5.98217 4.94538
#
# Compressibility (1/GPa) = 0.14034449
#
# Stress axis : x y z
#
# Youngs Moduli (GPa) = 26.02446 7.51158 66.90864
#
# Poissons Ratio (x) = -0.09376 0.79908
# Poissons Ratio (y) = -0.32486 1.58019
# Poissons Ratio (z) = 0.31081 0.17740
#
# Static dielectric constant tensor:
#      x y z
#    x 1.563530 0.000000 0.000000 
#    y 0.000000 1.599130 0.000000 
#    z 0.000000 0.000000 1.629320 
# 
# From -- ./inp_files/69235.got.cif
#   From: 2010.05.17/outbox.cif.g08.bks.cpg/sg74_35_cif.got.tgz:69235.got - 2010.06.03 17:57:02.
