data_PCOD9536310
_publ_section_title
;
Structure prediction by ZEFSAII (Michael W. Deem and Ramdas Pophale) SiO2 
 PCOD9536310
Probable space group: I M M A
;
_chemical_formula_sum "Si O2"
_cell_formula_units_Z 100
_cell_length_a 10.574966
_cell_length_b 21.450738
_cell_length_c 24.408175
_cell_angle_alpha 90.000000
_cell_angle_beta 90.000000
_cell_angle_gamma 90.000000
_cell_volume 5536.770554
_symmetry_space_group_name_H-M "I M M A"
_symmetry_group_IT_number 74
_symmetry_cell_setting 'orthorhombic'
loop_
_space_group_symop_operation_xyz
x,y,z
-x,1/2-y,z
x,-y,-z
-x,1/2+y,-z
-x,-y,-z
x,1/2+y,-z
-x,y,z
x,1/2-y,z
1/2+x,1/2+y,1/2+z
1/2-x,-y,1/2+z
1/2+x,1/2-y,1/2-z
1/2-x,y,1/2-z
1/2-x,1/2-y,1/2-z
1/2+x,y,1/2-z
1/2-x,1/2+y,1/2+z
1/2+x,-y,1/2+z
loop_
_atom_site_type_symbol
_atom_site_label
_atom_site_fract_x
_atom_site_fract_y
_atom_site_fract_z
Si Si1 0.290151 0.146366 0.602616
Si Si2 0.354471 0.681290 0.994801
Si Si3 0.855936 0.508041 0.065664
Si Si4 0.355034 0.178008 0.203724
Si Si5 0.500000 0.250000 0.628805
Si Si6 0.356666 0.174634 0.794514
Si Si7 0.146106 0.915698 0.602630
O O1 0.234602 0.173844 0.546532
O O2 0.344368 0.079271 0.585655
O O3 0.390891 0.195042 0.626349
O O4 0.180982 0.142967 0.648392
O O5 0.500000 0.676983 0.013564
O O6 0.336877 0.750000 0.969864
O O7 0.334730 0.628430 0.950121
O O8 0.750177 0.468964 0.097638
O O9 0.000000 0.486112 0.075564
O O10 0.832890 0.500000 0.000000
O O11 0.500000 0.171737 0.224527
O O12 0.342545 0.250000 0.184066
O O13 0.250000 0.168246 0.250000
O O14 0.338826 0.128660 0.155178
O O15 0.500000 0.159019 0.777097
O O16 0.353143 0.250000 0.801346
O O17 0.250000 0.158249 0.750000
O O18 0.000000 0.938528 0.601679
#
# Coordination Sequence:
#
# PCOD9536310 Si02
#       7
#    16  16  16  16   4  16  16
#     4  12  22  38  60  85 116 155 200 238 303 359
#     4  10  19  33  56  84 115 146 189 246 299 348
#     4  11  24  40  58  82 120 162 198 239 294 362
#     4   9  18  35  61  90 123 158 201 248 299 350
#     4  12  24  36  62  88 118 160 194 248 306 366
#     4  10  22  37  60  88 118 149 189 241 298 354
#     4  10  21  37  58  86 116 157 200 243 293 351
#
# _framework density 18.061070000000001
#
# number of rings (size 3 to 8) (size 9 to 14) (size 15 to 20)
#    0.000    1.600    4.000    0.960    1.120    5.440 
#    0.000    0.800    0.000    0.960    0.000    0.000 
#    0.000    0.000    0.000    0.000    0.000    0.000 
#
# Total GULP energy -278433.028121 kJ/mol
# GULP energy per Si atom -5568.660562 kJ/mol
# Density = 1.801996 g / cm^3
# Si number density = 18.061070 Si / 1000 Ang^3
#
#
#
# Elastic Constant Matrix: (Units=GPa)
#
#
# Indices 1 2 3 4 5 6 
#
# 1 125.3518 55.5547 45.9449 0.0000 0.0000 0.0000
# 2 55.5547 85.6554 16.1412 0.0000 0.0000 0.0000
# 3 45.9449 16.1412 56.5846 0.0000 0.0000 0.0000
# 4 0.0000 0.0000 0.0000 12.0812 0.0000 0.0000
# 5 0.0000 0.0000 0.0000 0.0000 7.5193 0.0000
# 6 0.0000 0.0000 0.0000 0.0000 0.0000 35.4568
#
#
#
# Elastic Compliance Matrix: (Units=1/GPa)
#
#
# Indices 1 2 3 4 5 6 
#
# 1 0.015194 -0.007958 -0.010067 0.000000 0.000000 0.000000
# 2 -0.007958 0.016506 0.001753 0.000000 0.000000 0.000000
# 3 -0.010067 0.001753 0.025347 0.000000 0.000000 0.000000
# 4 0.000000 0.000000 0.000000 0.082773 0.000000 0.000000
# 5 0.000000 0.000000 0.000000 0.000000 0.132992 0.000000
# 6 0.000000 0.000000 0.000000 0.000000 0.000000 0.028203
#
#
# Mechanical properties :
#
#
# Convention : Reuss Voigt Hill
#
# Bulk Modulus (GPa) = 40.81149 55.87482 48.34316
# Shear Modulus (GPa) = 14.63161 21.00820 17.81990
#
# Velocity S-wave (km/s) = 2.84935 3.41424 3.14450
# Velocity P-wave (km/s) = 5.78537 6.82250 6.32522
#
# Compressibility (1/GPa) = 0.02450290
#
# Stress axis : x y z
#
# Youngs Moduli (GPa) = 65.81454 60.58581 39.45254
#
# Poissons Ratio (x) = 0.48212 0.39718
# Poissons Ratio (y) = 0.52373 -0.06916
# Poissons Ratio (z) = 0.66257 -0.10621
#
# Static dielectric constant tensor:
#      x y z
#    x 1.642190 0.000000 0.000000 
#    y 0.000000 1.610860 0.000000 
#    z 0.000000 0.000000 1.601210 
# 
# From -- ./inp_files/64511.got.cif
#   From: 2010.05.17/outbox.cif.g08.bks.cpg/sg74_33_cif.got.tgz:64511.got - 2010.06.03 17:57:02.
