data_PCOD9536787
_publ_section_title
;
Structure prediction by ZEFSAII (Michael W. Deem and Ramdas Pophale) SiO2 
 PCOD9536787
Probable space group: I M M A
;
_chemical_formula_sum "Si O2"
_cell_formula_units_Z 80
_cell_length_a 15.601359
_cell_length_b 22.959323
_cell_length_c 11.607187
_cell_angle_alpha 90.000000
_cell_angle_beta 90.000000
_cell_angle_gamma 90.000000
_cell_volume 4157.655389
_symmetry_space_group_name_H-M "I M M A"
_symmetry_group_IT_number 74
_symmetry_cell_setting 'orthorhombic'
loop_
_space_group_symop_operation_xyz
x,y,z
-x,1/2-y,z
x,-y,-z
-x,1/2+y,-z
-x,-y,-z
x,1/2+y,-z
-x,y,z
x,1/2-y,z
1/2+x,1/2+y,1/2+z
1/2-x,-y,1/2+z
1/2+x,1/2-y,1/2-z
1/2-x,y,1/2-z
1/2-x,1/2-y,1/2-z
1/2+x,y,1/2-z
1/2-x,1/2+y,1/2+z
1/2+x,-y,1/2+z
loop_
_atom_site_type_symbol
_atom_site_label
_atom_site_fract_x
_atom_site_fract_y
_atom_site_fract_z
Si Si1 0.000000 0.679944 0.197599
Si Si2 0.000000 0.679495 0.925436
Si Si3 0.100127 0.629285 0.564356
Si Si4 0.662276 0.117049 0.812867
Si Si5 0.901901 0.506864 0.639050
Si Si6 0.655682 0.683839 0.725989
O O1 0.083385 0.650414 0.253821
O O2 0.000000 0.750000 0.215793
O O3 0.000000 0.668223 0.060824
O O4 0.913429 0.657377 0.862804
O O5 0.000000 0.750000 0.909399
O O6 0.155952 0.631666 0.449186
O O7 0.124371 0.574072 0.646039
O O8 0.110632 0.682843 0.649321
O O9 0.000000 0.621394 0.530432
O O10 0.750000 0.133077 0.750000
O O11 0.649043 0.046823 0.807687
O O12 0.901056 0.500000 0.500000
O O13 0.000000 0.501156 0.678959
O O14 0.670970 0.750000 0.685056
O O15 0.750000 0.658434 0.750000
#
# Coordination Sequence:
#
# PCOD9536787 Si02
#       6
#     8   8  16  16  16  16
#     4  11  24  41  57  79 121 163 195 232 291 362
#     4   9  20  39  56  73 108 157 187 225 293 346
#     4  10  19  36  62  89 112 150 198 247 295 338
#     4  11  22  37  60  88 117 156 191 237 292 350
#     4   8  15  33  58  80 108 143 185 227 280 341
#     4  10  21  36  57  83 111 145 192 246 294 341
#
# _framework density 19.241614999999999
#
# number of rings (size 3 to 8) (size 9 to 14) (size 15 to 20)
#    0.000    2.200    3.000    1.200    2.800    2.000 
#    0.000    0.000    0.000    1.200    0.000    0.000 
#    0.000    0.000    0.000    0.000    0.000    0.000 
#
# Total GULP energy -222684.106173 kJ/mol
# GULP energy per Si atom -5567.102654 kJ/mol
# Density = 1.919782 g / cm^3
# Si number density = 19.241615 Si / 1000 Ang^3
#
#
#
# Elastic Constant Matrix: (Units=GPa)
#
#
# Indices 1 2 3 4 5 6 
#
# 1 122.4605 31.8001 40.5661 0.0000 0.0000 0.0000
# 2 31.8001 62.0468 26.6460 0.0000 0.0000 0.0000
# 3 40.5661 26.6460 82.5870 0.0000 0.0000 0.0000
# 4 0.0000 0.0000 0.0000 26.2665 0.0000 0.0000
# 5 0.0000 0.0000 0.0000 0.0000 28.0309 0.0000
# 6 0.0000 0.0000 0.0000 0.0000 0.0000 -6.9829
#
#
#
# Elastic Compliance Matrix: (Units=1/GPa)
#
#
# Indices 1 2 3 4 5 6 
#
# 1 0.010418 -0.003647 -0.003941 0.000000 0.000000 0.000000
# 2 -0.003647 0.019986 -0.004657 0.000000 0.000000 0.000000
# 3 -0.003941 -0.004657 0.015547 0.000000 0.000000 0.000000
# 4 0.000000 0.000000 0.000000 0.038071 0.000000 0.000000
# 5 0.000000 0.000000 0.000000 0.000000 0.035675 0.000000
# 6 0.000000 0.000000 0.000000 0.000000 0.000000 -0.143208
#
#
# Mechanical properties :
#
#
# Convention : Reuss Voigt Hill
#
# Bulk Modulus (GPa) = 46.59518 51.67985 49.13751
# Shear Modulus (GPa) = 614.81547 20.66839 317.74193
#
# Velocity S-wave (km/s) = 17.89462 3.28098 12.86434
# Velocity P-wave (km/s) = 21.24206 6.42416 15.69227
#
# Compressibility (1/GPa) = 0.02146145
#
# Stress axis : x y z
#
# Youngs Moduli (GPa) = 95.98410 50.03497 64.32298
#
# Poissons Ratio (x) = 0.18249 0.25348
# Poissons Ratio (y) = 0.35008 0.29954
# Poissons Ratio (z) = 0.37824 0.23300
#
# Static dielectric constant tensor:
#      x y z
#    x 1.697910 0.000000 0.000000 
#    y 0.000000 1.793020 0.000000 
#    z 0.000000 0.000000 1.648980 
# 
# From -- ./inp_files/20556.got.cif
#   From: 2010.05.17/outbox.cif.g08.bks.cpg/sg74_11_cif.got.tgz:20556.got - 2010.06.03 17:57:02.
