data_PCOD9536642
_publ_section_title
;
Structure prediction by ZEFSAII (Michael W. Deem and Ramdas Pophale) SiO2 
 PCOD9536642
Probable space group: I M M A
;
_chemical_formula_sum "Si O2"
_cell_formula_units_Z 72
_cell_length_a 8.825630
_cell_length_b 25.944504
_cell_length_c 17.448784
_cell_angle_alpha 90.000000
_cell_angle_beta 90.000000
_cell_angle_gamma 90.000000
_cell_volume 3995.363109
_symmetry_space_group_name_H-M "I M M A"
_symmetry_group_IT_number 74
_symmetry_cell_setting 'orthorhombic'
loop_
_space_group_symop_operation_xyz
x,y,z
-x,1/2-y,z
x,-y,-z
-x,1/2+y,-z
-x,-y,-z
x,1/2+y,-z
-x,y,z
x,1/2-y,z
1/2+x,1/2+y,1/2+z
1/2-x,-y,1/2+z
1/2+x,1/2-y,1/2-z
1/2-x,y,1/2-z
1/2-x,1/2-y,1/2-z
1/2+x,y,1/2-z
1/2-x,1/2+y,1/2+z
1/2+x,-y,1/2+z
loop_
_atom_site_type_symbol
_atom_site_label
_atom_site_fract_x
_atom_site_fract_y
_atom_site_fract_z
Si Si1 0.816830 0.939708 0.507271
Si Si2 0.825931 0.809407 0.879825
Si Si3 0.820313 0.660910 0.057241
Si Si4 0.823651 0.594449 0.673484
Si Si5 0.682303 0.750000 0.163871
O O1 0.744529 0.897427 0.450180
O O2 0.762341 0.926257 0.593053
O O3 0.000000 0.933406 0.502950
O O4 0.782272 0.000000 0.500000
O O5 0.811294 0.750000 0.860024
O O6 0.711329 0.845042 0.834133
O O7 0.000000 0.826302 0.864715
O O8 0.799633 0.816085 0.971216
O O9 0.740146 0.699377 0.117083
O O10 0.000000 0.659860 0.073148
O O11 0.750000 0.573299 0.750000
O O12 0.000000 0.584119 0.676087
O O13 0.500000 0.750000 0.166657
O O14 0.750000 0.750000 0.250000
#
# Coordination Sequence:
#
# PCOD9536642 Si02
#       5
#    16  16  16  16   8
#     4   9  19  37  59  82 108 144 191 237 282 337
#     4   9  17  31  51  74 103 139 173 210 254 307
#     4  10  19  35  57  83 113 144 184 231 282 338
#     4  10  20  33  50  74 103 137 173 216 267 317
#     4  12  24  38  58  84 117 154 193 238 294 350
#
# _framework density 18.020890000000001
#
# number of rings (size 3 to 8) (size 9 to 14) (size 15 to 20)
#    0.000    2.222    1.111    2.333    0.000    3.111 
#    0.000    1.111    0.000    2.667    0.000    0.000 
#    0.000    0.000    0.000    0.000    0.000    0.000 
#
# Total GULP energy -200680.166482 kJ/mol
# GULP energy per Si atom -5574.449069 kJ/mol
# Density = 1.797987 g / cm^3
# Si number density = 18.020890 Si / 1000 Ang^3
#
#
#
# Elastic Constant Matrix: (Units=GPa)
#
#
# Indices 1 2 3 4 5 6 
#
# 1 65.6398 39.9324 42.9076 0.0000 0.0000 0.0000
# 2 39.9324 117.0666 43.3006 0.0000 0.0000 0.0000
# 3 42.9076 43.3006 96.0356 0.0000 0.0000 0.0000
# 4 0.0000 0.0000 0.0000 8.3440 0.0000 0.0000
# 5 0.0000 0.0000 0.0000 0.0000 28.5033 0.0000
# 6 0.0000 0.0000 0.0000 0.0000 0.0000 24.3918
#
#
#
# Elastic Compliance Matrix: (Units=1/GPa)
#
#
# Indices 1 2 3 4 5 6 
#
# 1 0.023739 -0.005010 -0.008347 0.000000 0.000000 0.000000
# 2 -0.005010 0.011309 -0.002861 0.000000 0.000000 0.000000
# 3 -0.008347 -0.002861 0.015432 0.000000 0.000000 0.000000
# 4 0.000000 0.000000 0.000000 0.119847 0.000000 0.000000
# 5 0.000000 0.000000 0.000000 0.000000 0.035084 0.000000
# 6 0.000000 0.000000 0.000000 0.000000 0.000000 0.040997
#
#
# Mechanical properties :
#
#
# Convention : Reuss Voigt Hill
#
# Bulk Modulus (GPa) = 55.41953 59.00261 57.21107
# Shear Modulus (GPa) = 17.55247 22.42122 19.98684
#
# Velocity S-wave (km/s) = 3.12429 3.53112 3.33392
# Velocity P-wave (km/s) = 6.62077 7.03117 6.82906
#
# Compressibility (1/GPa) = 0.01804418
#
# Stress axis : x y z
#
# Youngs Moduli (GPa) = 42.12444 88.42334 64.79968
#
# Poissons Ratio (x) = 0.44301 0.54091
# Poissons Ratio (y) = 0.21105 0.18537
# Poissons Ratio (z) = 0.35163 0.25295
#
# Static dielectric constant tensor:
#      x y z
#    x 1.621170 0.000000 0.000000 
#    y 0.000000 1.631860 0.000000 
#    z 0.000000 0.000000 1.629780 
# 
# From -- ./inp_files/29217.got.cif
#   From: 2010.05.17/outbox.cif.g08.bks.cpg/sg74_15_cif.got.tgz:29217.got - 2010.06.03 17:57:02.
