data_PCOD9536492
_publ_section_title
;
Structure prediction by ZEFSAII (Michael W. Deem and Ramdas Pophale) SiO2 
 PCOD9536492
Probable space group: I M M A
;
_chemical_formula_sum "Si O2"
_cell_formula_units_Z 88
_cell_length_a 15.032697
_cell_length_b 11.017044
_cell_length_c 23.478992
_cell_angle_alpha 90.000000
_cell_angle_beta 90.000000
_cell_angle_gamma 90.000000
_cell_volume 3888.494022
_symmetry_space_group_name_H-M "I M M A"
_symmetry_group_IT_number 74
_symmetry_cell_setting 'orthorhombic'
loop_
_space_group_symop_operation_xyz
x,y,z
-x,1/2-y,z
x,-y,-z
-x,1/2+y,-z
-x,-y,-z
x,1/2+y,-z
-x,y,z
x,1/2-y,z
1/2+x,1/2+y,1/2+z
1/2-x,-y,1/2+z
1/2+x,1/2-y,1/2-z
1/2-x,y,1/2-z
1/2-x,1/2-y,1/2-z
1/2+x,y,1/2-z
1/2-x,1/2+y,1/2+z
1/2+x,-y,1/2+z
loop_
_atom_site_type_symbol
_atom_site_label
_atom_site_fract_x
_atom_site_fract_y
_atom_site_fract_z
Si Si1 0.000000 0.600463 0.413771
Si Si2 0.500000 0.613433 0.339199
Si Si3 0.311287 0.428212 0.200217
Si Si4 0.190950 0.113297 0.855344
Si Si5 0.500000 0.469893 0.783221
Si Si6 0.191304 0.120333 0.986231
Si Si7 0.141900 0.116037 0.428297
O O1 0.000000 0.594587 0.344782
O O2 0.918132 0.507903 0.431798
O O3 0.000000 0.250000 0.571237
O O4 0.500000 0.750000 0.364584
O O5 0.593324 0.552907 0.355673
O O6 0.500000 0.616348 0.270897
O O7 0.250000 0.374087 0.250000
O O8 0.261283 0.553119 0.185402
O O9 0.411418 0.449264 0.220311
O O10 0.320597 0.377233 0.136297
O O11 0.177226 0.250000 0.835447
O O12 0.221592 0.115776 0.920596
O O13 0.145884 0.250000 0.994483
O O14 0.276276 0.885329 0.972147
O O15 0.136535 0.000000 0.000000
O O16 0.097588 0.250000 0.437958
#
# Coordination Sequence:
#
# PCOD9536492 Si02
#       7
#     8   8  16  16   8  16  16
#     4  10  22  39  64  98 134 170 223 277 326 394
#     4  10  19  34  56  87 129 170 211 262 333 402
#     4  11  21  36  61  90 127 172 220 268 324 395
#     4  10  21  36  59  90 127 169 216 271 338 400
#     4  10  21  35  54  94 136 166 206 264 328 389
#     4  10  20  38  62  89 121 163 214 267 324 393
#     4  10  22  40  63  91 131 174 217 269 335 398
#
# _framework density 22.630869000000001
#
# number of rings (size 3 to 8) (size 9 to 14) (size 15 to 20)
#    0.000    1.818    3.636    0.545    0.000    5.091 
#    0.000    1.818    0.000    2.182    0.000    0.636 
#    0.000    0.000    0.000    0.000    0.000    0.000 
#
# Total GULP energy -244961.282212 kJ/mol
# GULP energy per Si atom -5567.301868 kJ/mol
# Density = 2.257936 g / cm^3
# Si number density = 22.630869 Si / 1000 Ang^3
#
#
#
# Elastic Constant Matrix: (Units=GPa)
#
#
# Indices 1 2 3 4 5 6 
#
# 1 133.3324 21.8292 40.6875 0.0000 0.0000 0.0000
# 2 21.8292 155.9452 16.9029 0.0000 0.0000 0.0000
# 3 40.6875 16.9029 118.6945 0.0000 0.0000 0.0000
# 4 0.0000 0.0000 0.0000 -7.9994 0.0000 0.0000
# 5 0.0000 0.0000 0.0000 0.0000 25.8803 0.0000
# 6 0.0000 0.0000 0.0000 0.0000 0.0000 -26.1001
#
#
#
# Elastic Compliance Matrix: (Units=1/GPa)
#
#
# Indices 1 2 3 4 5 6 
#
# 1 0.008495 -0.000887 -0.002786 0.000000 0.000000 0.000000
# 2 -0.000887 0.006606 -0.000637 0.000000 0.000000 0.000000
# 3 -0.002786 -0.000637 0.009471 0.000000 0.000000 0.000000
# 4 0.000000 0.000000 0.000000 -0.125010 0.000000 0.000000
# 5 0.000000 0.000000 0.000000 0.000000 0.038639 0.000000
# 6 0.000000 0.000000 0.000000 0.000000 0.000000 -0.038314
#
#
# Mechanical properties :
#
#
# Convention : Reuss Voigt Hill
#
# Bulk Modulus (GPa) = 62.68609 62.97904 62.83256
# Shear Modulus (GPa) = -58.02068 20.25966 -18.88051
#
# Velocity S-wave (km/s) = -5.06888 2.99527 -2.89153
# Velocity P-wave (km/s) = 2.54922 6.31280 4.08368
#
# Compressibility (1/GPa) = 0.01595250
#
# Stress axis : x y z
#
# Youngs Moduli (GPa) = 117.71039 151.38435 105.59002
#
# Poissons Ratio (x) = 0.13431 0.29415
# Poissons Ratio (y) = 0.10444 0.06721
# Poissons Ratio (z) = 0.32792 0.09636
#
# Static dielectric constant tensor:
#      x y z
#    x 1.855010 0.000000 0.000000 
#    y 0.000000 1.965250 0.000000 
#    z 0.000000 0.000000 1.834580 
# 
# From -- ./inp_files/66984.got.cif
#   From: 2010.05.17/outbox.cif.g08.bks.cpg/sg74_34_cif.got.tgz:66984.got - 2010.06.03 17:57:02.
