data_PCOD9536974
_publ_section_title
;
Structure prediction by ZEFSAII (Michael W. Deem and Ramdas Pophale) SiO2 
 PCOD9536974
Probable space group: I M M A
;
_chemical_formula_sum "Si O2"
_cell_formula_units_Z 80
_cell_length_a 21.099874
_cell_length_b 23.105011
_cell_length_c 9.513545
_cell_angle_alpha 90.000000
_cell_angle_beta 90.000000
_cell_angle_gamma 90.000000
_cell_volume 4637.975159
_symmetry_space_group_name_H-M "I M M A"
_symmetry_group_IT_number 74
_symmetry_cell_setting 'orthorhombic'
loop_
_space_group_symop_operation_xyz
x,y,z
-x,1/2-y,z
x,-y,-z
-x,1/2+y,-z
-x,-y,-z
x,1/2+y,-z
-x,y,z
x,1/2-y,z
1/2+x,1/2+y,1/2+z
1/2-x,-y,1/2+z
1/2+x,1/2-y,1/2-z
1/2-x,y,1/2-z
1/2-x,1/2-y,1/2-z
1/2+x,y,1/2-z
1/2-x,1/2+y,1/2+z
1/2+x,-y,1/2+z
loop_
_atom_site_type_symbol
_atom_site_label
_atom_site_fract_x
_atom_site_fract_y
_atom_site_fract_z
Si Si1 0.573266 0.544446 0.377118
Si Si2 0.630058 0.162905 0.683482
Si Si3 0.325523 0.750000 0.538305
Si Si4 0.500000 0.020372 0.159557
Si Si5 0.000000 0.653852 0.646205
Si Si6 0.104699 0.750000 0.676261
Si Si7 0.312577 0.250000 0.899298
Si Si8 0.000000 0.185701 0.660042
O O1 0.590852 0.500000 0.500000
O O2 0.500000 0.566432 0.411091
O O3 0.623211 0.594946 0.346922
O O4 0.560348 0.508362 0.236019
O O5 0.642721 0.194942 0.537498
O O6 0.676677 0.193913 0.797746
O O7 0.561542 0.178339 0.746590
O O8 0.342233 0.750000 0.702074
O O9 0.253353 0.750000 0.483001
O O10 0.500000 0.088178 0.196398
O O11 0.500000 0.000000 0.000000
O O12 0.939621 0.692993 0.688285
O O13 0.000000 0.645999 0.476306
O O14 0.135157 0.750000 0.521620
O O15 0.000000 0.250000 0.598340
#
# Coordination Sequence:
#
# PCOD9536974 Si02
#       8
#    16  16   8   8   8   8   8   8
#     4   9  20  33  49  82 118 152 172 224 293 338
#     4  11  19  35  60  78 114 144 196 234 277 352
#     4  11  26  34  55  92 105 152 192 243 297 323
#     4  10  20  31  53  82 120 147 189 214 269 376
#     4  11  20  35  55  91 116 146 183 222 302 349
#     4  11  23  35  60  83 126 146 173 244 304 350
#     4  11  22  41  57  81 110 156 202 237 278 339
#     4  12  16  31  54  88 112 147 180 227 296 335
#
# _framework density 17.248906999999999
#
# number of rings (size 3 to 8) (size 9 to 14) (size 15 to 20)
#    0.600    0.800    6.000    2.700    2.800    1.600 
#    0.000    0.000    0.000    0.000   10.400    0.000 
#    0.000    0.000    0.000    0.000    0.000    0.000 
#
# Total GULP energy -222679.650017 kJ/mol
# GULP energy per Si atom -5566.991250 kJ/mol
# Density = 1.720965 g / cm^3
# Si number density = 17.248907 Si / 1000 Ang^3
#
#
#
# Elastic Constant Matrix: (Units=GPa)
#
#
# Indices 1 2 3 4 5 6 
#
# 1 70.9405 27.2569 23.1760 0.0000 0.0000 0.0000
# 2 27.2569 145.9577 45.7377 0.0000 0.0000 0.0000
# 3 23.1760 45.7377 109.3271 0.0000 0.0000 0.0000
# 4 0.0000 0.0000 0.0000 -33.7831 0.0000 0.0000
# 5 0.0000 0.0000 0.0000 0.0000 20.4621 0.0000
# 6 0.0000 0.0000 0.0000 0.0000 0.0000 34.2898
#
#
#
# Elastic Compliance Matrix: (Units=1/GPa)
#
#
# Indices 1 2 3 4 5 6 
#
# 1 0.015724 -0.002177 -0.002422 0.000000 0.000000 0.000000
# 2 -0.002177 0.008186 -0.002963 0.000000 0.000000 0.000000
# 3 -0.002422 -0.002963 0.010900 0.000000 0.000000 0.000000
# 4 0.000000 0.000000 0.000000 -0.029601 0.000000 0.000000
# 5 0.000000 0.000000 0.000000 0.000000 0.048871 0.000000
# 6 0.000000 0.000000 0.000000 0.000000 0.000000 0.029163
#
#
# Mechanical properties :
#
#
# Convention : Reuss Voigt Hill
#
# Bulk Modulus (GPa) = 50.80082 57.61849 54.20966
# Shear Modulus (GPa) = 47.64980 19.53072 33.59026
#
# Velocity S-wave (km/s) = 5.26163 3.36860 4.41771
# Velocity P-wave (km/s) = 8.15037 6.97184 7.58404
#
# Compressibility (1/GPa) = 0.01968472
#
# Stress axis : x y z
#
# Youngs Moduli (GPa) = 63.59583 122.15233 91.74215
#
# Poissons Ratio (x) = 0.26597 0.22224
# Poissons Ratio (y) = 0.13847 0.27186
# Poissons Ratio (z) = 0.15406 0.36197
#
# Static dielectric constant tensor:
#      x y z
#    x 1.603050 0.000000 0.000000 
#    y 0.000000 1.593300 0.000000 
#    z 0.000000 0.000000 1.599440 
# 
# From -- ./inp_files/12405.got.cif
#   From: 2010.05.17/outbox.cif.g08.bks.cpg/sg74_7_cif.got.tgz:12405.got - 2010.06.03 17:57:02.
