data_PCOD9536900
_publ_section_title
;
Structure prediction by ZEFSAII (Michael W. Deem and Ramdas Pophale) SiO2 
 PCOD9536900
Probable space group: I M M A
;
_chemical_formula_sum "Si O2"
_cell_formula_units_Z 52
_cell_length_a 17.775806
_cell_length_b 15.020258
_cell_length_c 10.667391
_cell_angle_alpha 90.000000
_cell_angle_beta 90.000000
_cell_angle_gamma 90.000000
_cell_volume 2848.163446
_symmetry_space_group_name_H-M "I M M A"
_symmetry_group_IT_number 74
_symmetry_cell_setting 'orthorhombic'
loop_
_space_group_symop_operation_xyz
x,y,z
-x,1/2-y,z
x,-y,-z
-x,1/2+y,-z
-x,-y,-z
x,1/2+y,-z
-x,y,z
x,1/2-y,z
1/2+x,1/2+y,1/2+z
1/2-x,-y,1/2+z
1/2+x,1/2-y,1/2-z
1/2-x,y,1/2-z
1/2-x,1/2-y,1/2-z
1/2+x,y,1/2-z
1/2-x,1/2+y,1/2+z
1/2+x,-y,1/2+z
loop_
_atom_site_type_symbol
_atom_site_label
_atom_site_fract_x
_atom_site_fract_y
_atom_site_fract_z
Si Si1 0.500000 0.250000 0.211613
Si Si2 0.000000 0.647583 0.470412
Si Si3 0.414213 0.750000 0.545976
Si Si4 0.816489 0.406602 0.931601
Si Si5 0.653660 0.357909 0.850649
O O1 0.429319 0.250000 0.304861
O O2 0.500000 0.165144 0.119321
O O3 0.922002 0.610245 0.419688
O O4 0.000000 0.750000 0.420556
O O5 0.500000 0.750000 0.492448
O O6 0.367942 0.834714 0.501163
O O7 0.728556 0.379600 0.928895
O O8 0.840022 0.403138 0.785365
O O9 0.825692 0.500000 0.000000
O O10 0.653296 0.250000 0.832127
#
# Coordination Sequence:
#
# PCOD9536900 Si02
#       5
#     4   8   8  16  16
#     4   8  20  38  56  96 118 154 210 248 314 372
#     4   8  18  37  63  87 113 162 216 244 296 379
#     4  10  22  39  63  87 129 163 197 264 319 354
#     4  11  22  39  63  97 123 157 214 262 307 372
#     4  10  19  41  68  87 121 169 210 255 304 371
#
# _framework density 18.257379
#
# number of rings (size 3 to 8) (size 9 to 14) (size 15 to 20)
#    0.923    1.231    3.077    0.923    2.154    0.615 
#   11.077    2.308    0.000    0.000    0.000    0.000 
#    0.000    0.000    0.000    0.000    0.000    0.000 
#
# Total GULP energy -144809.354528 kJ/mol
# GULP energy per Si atom -5569.590559 kJ/mol
# Density = 1.821582 g / cm^3
# Si number density = 18.257379 Si / 1000 Ang^3
#
#
#
# Elastic Constant Matrix: (Units=GPa)
#
#
# Indices 1 2 3 4 5 6 
#
# 1 185.2949 55.8887 94.3925 0.0000 0.0000 0.0000
# 2 55.8887 113.9347 54.8154 0.0000 0.0000 0.0000
# 3 94.3925 54.8154 109.3574 0.0000 0.0000 0.0000
# 4 0.0000 0.0000 0.0000 110.9269 0.0000 0.0000
# 5 0.0000 0.0000 0.0000 0.0000 20.1950 0.0000
# 6 0.0000 0.0000 0.0000 0.0000 0.0000 -22.5104
#
#
#
# Elastic Compliance Matrix: (Units=1/GPa)
#
#
# Indices 1 2 3 4 5 6 
#
# 1 0.009712 -0.000963 -0.007900 0.000000 0.000000 0.000000
# 2 -0.000963 0.011662 -0.005014 0.000000 0.000000 0.000000
# 3 -0.007900 -0.005014 0.018476 0.000000 0.000000 0.000000
# 4 0.000000 0.000000 0.000000 0.009015 0.000000 0.000000
# 5 0.000000 0.000000 0.000000 0.000000 0.049517 0.000000
# 6 0.000000 0.000000 0.000000 0.000000 0.000000 -0.044424
#
#
# Mechanical properties :
#
#
# Convention : Reuss Voigt Hill
#
# Bulk Modulus (GPa) = 82.67466 90.97558 86.82512
# Shear Modulus (GPa) = 58.31293 35.28832 46.80063
#
# Velocity S-wave (km/s) = 5.65762 4.40116 5.06848
# Velocity P-wave (km/s) = 9.38400 8.70429 9.05053
#
# Compressibility (1/GPa) = 0.01209560
#
# Stress axis : x y z
#
# Youngs Moduli (GPa) = 102.96903 85.75033 54.12282
#
# Poissons Ratio (x) = 0.08259 0.42756
# Poissons Ratio (y) = 0.09917 0.27138
# Poissons Ratio (z) = 0.81344 0.42996
#
# Static dielectric constant tensor:
#      x y z
#    x 1.641240 0.000000 0.000000 
#    y 0.000000 1.618470 0.000000 
#    z 0.000000 0.000000 1.619270 
# 
# From -- ./inp_files/8345.got.cif
#   From: 2010.05.17/outbox.cif.g08.bks.cpg/sg74_5_cif.got.tgz:8345.got - 2010.06.03 17:57:02.
