data_PCOD9536514
_publ_section_title
;
Structure prediction by ZEFSAII (Michael W. Deem and Ramdas Pophale) SiO2 
 PCOD9536514
Probable space group: I M M A
;
_chemical_formula_sum "Si O2"
_cell_formula_units_Z 88
_cell_length_a 8.724383
_cell_length_b 18.781947
_cell_length_c 28.772824
_cell_angle_alpha 90.000000
_cell_angle_beta 90.000000
_cell_angle_gamma 90.000000
_cell_volume 4714.740811
_symmetry_space_group_name_H-M "I M M A"
_symmetry_group_IT_number 74
_symmetry_cell_setting 'orthorhombic'
loop_
_space_group_symop_operation_xyz
x,y,z
-x,1/2-y,z
x,-y,-z
-x,1/2+y,-z
-x,-y,-z
x,1/2+y,-z
-x,y,z
x,1/2-y,z
1/2+x,1/2+y,1/2+z
1/2-x,-y,1/2+z
1/2+x,1/2-y,1/2-z
1/2-x,y,1/2-z
1/2-x,1/2-y,1/2-z
1/2+x,y,1/2-z
1/2-x,1/2+y,1/2+z
1/2+x,-y,1/2+z
loop_
_atom_site_type_symbol
_atom_site_label
_atom_site_fract_x
_atom_site_fract_y
_atom_site_fract_z
Si Si1 0.685152 0.750000 0.198252
Si Si2 0.814646 0.609942 0.360144
Si Si3 0.318618 0.958368 0.637757
Si Si4 0.686835 0.668684 0.040408
Si Si5 0.816349 0.169322 0.301781
Si Si6 0.180928 0.563999 0.537007
O O1 0.500000 0.750000 0.199580
O O2 0.750000 0.750000 0.250000
O O3 0.731091 0.678234 0.170666
O O4 0.746987 0.534413 0.345309
O O5 0.766691 0.626181 0.413415
O O6 0.000000 0.605333 0.359349
O O7 0.500000 0.958224 0.642803
O O8 0.248332 0.892259 0.665656
O O9 0.271097 0.950051 0.583882
O O10 0.500000 0.667469 0.040431
O O11 0.736456 0.750000 0.044254
O O12 0.734425 0.632195 0.992472
O O13 0.775872 0.250000 0.317579
O O14 0.750000 0.160720 0.250000
O O15 0.000000 0.164437 0.300200
O O16 0.192770 0.500000 0.500000
O O17 0.000000 0.571047 0.548940
#
# Coordination Sequence:
#
# PCOD9536514 Si02
#       6
#     8  16  16  16  16  16
#     4  10  22  38  62  88 118 154 198 256 309 358
#     4  10  19  37  61  84 111 154 206 252 302 358
#     4  12  25  38  58  90 129 165 201 246 298 361
#     4   9  16  30  56  84 107 141 199 253 297 351
#     4  10  22  43  70  95 120 153 196 246 304 365
#     4  10  19  34  57  83 113 153 201 251 298 349
#
# _framework density 18.664864000000001
#
# number of rings (size 3 to 8) (size 9 to 14) (size 15 to 20)
#    0.000    1.818    2.727    2.182    0.000    3.636 
#    0.000    3.636    0.000    1.091    0.000    0.000 
#    0.000    0.000    0.000    0.000    0.000    0.000 
#
# Total GULP energy -245673.356737 kJ/mol
# GULP energy per Si atom -5583.485380 kJ/mol
# Density = 1.862238 g / cm^3
# Si number density = 18.664864 Si / 1000 Ang^3
#
#
#
# Elastic Constant Matrix: (Units=GPa)
#
#
# Indices 1 2 3 4 5 6 
#
# 1 53.8533 54.7880 35.8848 0.0000 0.0000 0.0000
# 2 54.7880 174.3093 74.3553 0.0000 0.0000 0.0000
# 3 35.8848 74.3553 90.6605 0.0000 0.0000 0.0000
# 4 0.0000 0.0000 0.0000 31.8255 0.0000 0.0000
# 5 0.0000 0.0000 0.0000 0.0000 28.6110 0.0000
# 6 0.0000 0.0000 0.0000 0.0000 0.0000 1.6984
#
#
#
# Elastic Compliance Matrix: (Units=1/GPa)
#
#
# Indices 1 2 3 4 5 6 
#
# 1 0.029433 -0.006586 -0.006249 0.000000 0.000000 0.000000
# 2 -0.006586 0.010298 -0.005839 0.000000 0.000000 0.000000
# 3 -0.006249 -0.005839 0.018292 0.000000 0.000000 0.000000
# 4 0.000000 0.000000 0.000000 0.031421 0.000000 0.000000
# 5 0.000000 0.000000 0.000000 0.000000 0.034952 0.000000
# 6 0.000000 0.000000 0.000000 0.000000 0.000000 0.588802
#
#
# Mechanical properties :
#
#
# Convention : Reuss Voigt Hill
#
# Bulk Modulus (GPa) = 48.36503 72.09773 60.23138
# Shear Modulus (GPa) = 6.60121 22.67996 14.64059
#
# Velocity S-wave (km/s) = 1.88265 3.48963 2.80374
# Velocity P-wave (km/s) = 5.54026 7.41270 6.54380
#
# Compressibility (1/GPa) = 0.02067610
#
# Stress axis : x y z
#
# Youngs Moduli (GPa) = 33.97588 97.11011 54.66786
#
# Poissons Ratio (x) = 0.63953 0.34160
# Poissons Ratio (y) = 0.22375 0.31920
# Poissons Ratio (z) = 0.21231 0.56702
#
# Static dielectric constant tensor:
#      x y z
#    x 1.629410 0.000000 0.000000 
#    y 0.000000 1.663200 0.000000 
#    z 0.000000 0.000000 1.619680 
# 
# From -- ./inp_files/70301.got.cif
#   From: 2010.05.17/outbox.cif.g08.bks.cpg/sg74_36_cif.got.tgz:70301.got - 2010.06.03 17:57:02.
