data_PCOD9536836
_publ_section_title
;
Structure prediction by ZEFSAII (Michael W. Deem and Ramdas Pophale) SiO2 
 PCOD9536836
Probable space group: I M M A
;
_chemical_formula_sum "Si O2"
_cell_formula_units_Z 104
_cell_length_a 24.612117
_cell_length_b 8.929128
_cell_length_c 25.865843
_cell_angle_alpha 90.000000
_cell_angle_beta 90.000000
_cell_angle_gamma 90.000000
_cell_volume 5684.400341
_symmetry_space_group_name_H-M "I M M A"
_symmetry_group_IT_number 74
_symmetry_cell_setting 'orthorhombic'
loop_
_space_group_symop_operation_xyz
x,y,z
-x,1/2-y,z
x,-y,-z
-x,1/2+y,-z
-x,-y,-z
x,1/2+y,-z
-x,y,z
x,1/2-y,z
1/2+x,1/2+y,1/2+z
1/2-x,-y,1/2+z
1/2+x,1/2-y,1/2-z
1/2-x,y,1/2-z
1/2-x,1/2-y,1/2-z
1/2+x,y,1/2-z
1/2-x,1/2+y,1/2+z
1/2+x,-y,1/2+z
loop_
_atom_site_type_symbol
_atom_site_label
_atom_site_fract_x
_atom_site_fract_y
_atom_site_fract_z
Si Si1 0.382416 0.571084 0.443397
Si Si2 0.563030 0.068362 0.728403
Si Si3 0.500000 0.572038 0.443726
Si Si4 0.935642 0.430086 0.554939
Si Si5 0.154857 0.924963 0.845682
Si Si6 0.240159 0.919190 0.310819
Si Si7 0.115821 0.931195 0.336674
O O1 0.378268 0.500000 0.500000
O O2 0.376987 0.750000 0.446364
O O3 0.442511 0.532694 0.420244
O O4 0.343951 0.496479 0.402540
O O5 0.500000 0.026841 0.717140
O O6 0.566179 0.250000 0.724864
O O7 0.579496 0.022855 0.787159
O O8 0.608912 0.002625 0.690287
O O9 0.500000 0.750000 0.449984
O O10 0.500000 0.500000 0.500000
O O11 0.917857 0.500000 0.500000
O O12 0.929735 0.250000 0.551538
O O13 0.904927 0.483136 0.607044
O O14 0.000000 0.462914 0.561207
O O15 0.143423 0.750000 0.847673
O O16 0.214740 0.961966 0.826031
O O17 0.249657 0.750000 0.332989
O O18 0.250000 0.904120 0.250000
O O19 0.178829 0.965624 0.324790
O O20 0.112028 0.750000 0.337757
#
# Coordination Sequence:
#
# PCOD9536836 Si02
#       7
#    16  16   8  16  16  16  16
#     4  10  20  37  58  81 108 142 184 227 277 328
#     4  10  20  36  59  85 112 144 186 235 286 341
#     4   8  16  30  52  78 102 132 172 216 261 316
#     4   9  17  31  53  83 118 152 185 223 274 337
#     4  12  25  38  54  81 117 152 188 229 282 342
#     4  10  19  37  62  82 105 143 194 243 286 336
#     4   9  17  33  59  86 109 141 188 238 286 335
#
# _framework density 18.295684999999999
#
# number of rings (size 3 to 8) (size 9 to 14) (size 15 to 20)
#    0.000    2.154    1.538    2.308    1.077    3.077 
#    0.000    2.308    0.000    3.692    0.000    0.000 
#    0.000    0.000    0.000    0.000    0.000    0.000 
#
# Total GULP energy -289704.447647 kJ/mol
# GULP energy per Si atom -5571.239378 kJ/mol
# Density = 1.825404 g / cm^3
# Si number density = 18.295685 Si / 1000 Ang^3
#
#
#
# Elastic Constant Matrix: (Units=GPa)
#
#
# Indices 1 2 3 4 5 6 
#
# 1 81.2283 24.7263 45.3341 0.0000 0.0000 0.0000
# 2 24.7263 39.8654 31.5803 0.0000 0.0000 0.0000
# 3 45.3341 31.5803 116.6779 0.0000 0.0000 0.0000
# 4 0.0000 0.0000 0.0000 22.5838 0.0000 0.0000
# 5 0.0000 0.0000 0.0000 0.0000 27.4467 0.0000
# 6 0.0000 0.0000 0.0000 0.0000 0.0000 131.0279
#
#
#
# Elastic Compliance Matrix: (Units=1/GPa)
#
#
# Indices 1 2 3 4 5 6 
#
# 1 0.017047 -0.006780 -0.004788 0.000000 0.000000 0.000000
# 2 -0.006780 0.034628 -0.006738 0.000000 0.000000 0.000000
# 3 -0.004788 -0.006738 0.012255 0.000000 0.000000 0.000000
# 4 0.000000 0.000000 0.000000 0.044280 0.000000 0.000000
# 5 0.000000 0.000000 0.000000 0.000000 0.036434 0.000000
# 6 0.000000 0.000000 0.000000 0.000000 0.000000 0.007632
#
#
# Mechanical properties :
#
#
# Convention : Reuss Voigt Hill
#
# Bulk Modulus (GPa) = 36.60808 49.00590 42.80699
# Shear Modulus (GPa) = 25.25324 45.28706 35.27015
#
# Velocity S-wave (km/s) = 3.71925 4.98062 4.39542
# Velocity P-wave (km/s) = 6.20454 7.74074 7.01482
#
# Compressibility (1/GPa) = 0.02731637
#
# Stress axis : x y z
#
# Youngs Moduli (GPa) = 58.66003 28.87876 81.60056
#
# Poissons Ratio (x) = 0.19581 0.39074
# Poissons Ratio (y) = 0.39773 0.54982
# Poissons Ratio (z) = 0.28089 0.19458
#
# Static dielectric constant tensor:
#      x y z
#    x 1.605500 0.000000 0.000000 
#    y 0.000000 1.616170 0.000000 
#    z 0.000000 0.000000 1.629760 
# 
# From -- ./inp_files/68655.got.cif
#   From: 2010.05.17/outbox.cif.g08.bks.cpg/sg74_35_cif.got.tgz:68655.got - 2010.06.03 17:57:02.
