data_PCOD9536596
_publ_section_title
;
Structure prediction by ZEFSAII (Michael W. Deem and Ramdas Pophale) SiO2 
 PCOD9536596
Probable space group: I M M A
;
_chemical_formula_sum "Si O2"
_cell_formula_units_Z 80
_cell_length_a 8.186741
_cell_length_b 25.748489
_cell_length_c 21.132838
_cell_angle_alpha 90.000000
_cell_angle_beta 90.000000
_cell_angle_gamma 90.000000
_cell_volume 4454.722169
_symmetry_space_group_name_H-M "I M M A"
_symmetry_group_IT_number 74
_symmetry_cell_setting 'orthorhombic'
loop_
_space_group_symop_operation_xyz
x,y,z
-x,1/2-y,z
x,-y,-z
-x,1/2+y,-z
-x,-y,-z
x,1/2+y,-z
-x,y,z
x,1/2-y,z
1/2+x,1/2+y,1/2+z
1/2-x,-y,1/2+z
1/2+x,1/2-y,1/2-z
1/2-x,y,1/2-z
1/2-x,1/2-y,1/2-z
1/2+x,y,1/2-z
1/2-x,1/2+y,1/2+z
1/2+x,-y,1/2+z
loop_
_atom_site_type_symbol
_atom_site_label
_atom_site_fract_x
_atom_site_fract_y
_atom_site_fract_z
Si Si1 0.302725 0.024818 0.317845
Si Si2 0.806069 0.862320 0.853070
Si Si3 0.310341 0.750000 0.498663
Si Si4 0.689813 0.139394 0.004278
Si Si5 0.307801 0.250000 0.347643
Si Si6 0.697443 0.536800 0.441627
O O1 0.500000 0.027066 0.321139
O O2 0.250000 0.004173 0.250000
O O3 0.239009 0.084139 0.325083
O O4 0.247039 0.989697 0.376539
O O5 0.785043 0.866544 0.929122
O O6 0.736060 0.806524 0.830022
O O7 0.000000 0.860498 0.840424
O O8 0.500000 0.750000 0.481548
O O9 0.229030 0.696473 0.477896
O O10 0.300653 0.750000 0.575622
O O11 0.500000 0.135930 0.020010
O O12 0.738265 0.093884 0.956758
O O13 0.500000 0.250000 0.329846
O O14 0.747332 0.500000 0.500000
O O15 0.500000 0.538777 0.441188
#
# Coordination Sequence:
#
# PCOD9536596 Si02
#       6
#    16  16   8  16   8  16
#     4  10  21  35  52  71  99 136 176 221 262 310
#     4   9  16  31  49  68  95 137 179 211 253 310
#     4   9  17  31  49  70 103 142 171 199 249 319
#     4  11  20  29  48  80 109 130 164 221 268 297
#     4   7  12  23  46  68  86 120 173 215 238 279
#     4  10  19  35  55  73  99 138 182 214 252 317
#
# _framework density 17.958470999999999
#
# number of rings (size 3 to 8) (size 9 to 14) (size 15 to 20)
#    0.000    2.400    2.000    3.300    0.000    2.000 
#    0.000    0.500    0.000    0.000    0.000    0.700 
#    0.000    0.000    0.000    0.000    0.000    0.000 
#
# Total GULP energy -223056.017000 kJ/mol
# GULP energy per Si atom -5576.400425 kJ/mol
# Density = 1.791760 g / cm^3
# Si number density = 17.958471 Si / 1000 Ang^3
#
#
#
# Elastic Constant Matrix: (Units=GPa)
#
#
# Indices 1 2 3 4 5 6 
#
# 1 8.0559 8.0035 -4.2271 0.0000 0.0000 0.0000
# 2 8.0035 124.9856 53.6127 0.0000 0.0000 0.0000
# 3 -4.2271 53.6127 84.3510 0.0000 0.0000 0.0000
# 4 0.0000 0.0000 0.0000 11.1957 0.0000 0.0000
# 5 0.0000 0.0000 0.0000 0.0000 12.7463 0.0000
# 6 0.0000 0.0000 0.0000 0.0000 0.0000 -21.6130
#
#
#
# Elastic Compliance Matrix: (Units=1/GPa)
#
#
# Indices 1 2 3 4 5 6 
#
# 1 0.151814 -0.017852 0.018954 0.000000 0.000000 0.000000
# 2 -0.017852 0.013099 -0.009220 0.000000 0.000000 0.000000
# 3 0.018954 -0.009220 0.018665 0.000000 0.000000 0.000000
# 4 0.000000 0.000000 0.000000 0.089320 0.000000 0.000000
# 5 0.000000 0.000000 0.000000 0.000000 0.078454 0.000000
# 6 0.000000 0.000000 0.000000 0.000000 0.000000 -0.046268
#
#
# Mechanical properties :
#
#
# Convention : Reuss Voigt Hill
#
# Bulk Modulus (GPa) = 5.97575 36.90785 21.44180
# Shear Modulus (GPa) = 13.25906 11.13270 12.19588
#
# Velocity S-wave (km/s) = 2.72015 2.49251 2.60881
# Velocity P-wave (km/s) = 3.63323 5.37400 4.58695
#
# Compressibility (1/GPa) = 0.16734297
#
# Stress axis : x y z
#
# Youngs Moduli (GPa) = 6.58700 76.34089 53.57499
#
# Poissons Ratio (x) = 1.36284 -1.01548
# Poissons Ratio (y) = 0.11759 0.49398
# Poissons Ratio (z) = -0.12485 0.70389
#
# Static dielectric constant tensor:
#      x y z
#    x 1.621760 0.000000 0.000000 
#    y 0.000000 1.658520 0.000000 
#    z 0.000000 0.000000 1.596870 
# 
# From -- ./inp_files/48605.got.cif
#   From: 2010.05.17/outbox.cif.g08.bks.cpg/sg74_25_cif.got.tgz:48605.got - 2010.06.03 17:57:02.
