data_PCOD9536685
_publ_section_title
;
Structure prediction by ZEFSAII (Michael W. Deem and Ramdas Pophale) SiO2 
 PCOD9536685
Probable space group: I M M A
;
_chemical_formula_sum "Si O2"
_cell_formula_units_Z 88
_cell_length_a 25.132248
_cell_length_b 19.047186
_cell_length_c 9.935978
_cell_angle_alpha 90.000000
_cell_angle_beta 90.000000
_cell_angle_gamma 90.000000
_cell_volume 4756.338781
_symmetry_space_group_name_H-M "I M M A"
_symmetry_group_IT_number 74
_symmetry_cell_setting 'orthorhombic'
loop_
_space_group_symop_operation_xyz
x,y,z
-x,1/2-y,z
x,-y,-z
-x,1/2+y,-z
-x,-y,-z
x,1/2+y,-z
-x,y,z
x,1/2-y,z
1/2+x,1/2+y,1/2+z
1/2-x,-y,1/2+z
1/2+x,1/2-y,1/2-z
1/2-x,y,1/2-z
1/2-x,1/2-y,1/2-z
1/2+x,y,1/2-z
1/2-x,1/2+y,1/2+z
1/2+x,-y,1/2+z
loop_
_atom_site_type_symbol
_atom_site_label
_atom_site_fract_x
_atom_site_fract_y
_atom_site_fract_z
Si Si1 0.750000 0.060550 0.750000
Si Si2 0.060608 0.027736 0.151327
Si Si3 0.837616 0.170563 0.480493
Si Si4 0.642445 0.463635 0.860567
Si Si5 0.215139 0.669496 0.028898
Si Si6 0.380556 0.167968 0.318783
O O1 0.703334 0.017056 0.820969
O O2 0.780981 0.111355 0.854652
O O3 0.075420 0.109981 0.151111
O O4 0.000000 0.017225 0.197823
O O5 0.102237 0.986875 0.245694
O O6 0.065454 0.000000 0.000000
O O7 0.850938 0.250000 0.518459
O O8 0.855188 0.117937 0.597517
O O9 0.773841 0.166176 0.464136
O O10 0.862668 0.155601 0.335330
O O11 0.627534 0.500000 0.000000
O O12 0.208549 0.750000 0.080895
O O13 0.169048 0.656538 0.920472
O O14 0.396233 0.250000 0.331449
#
# Coordination Sequence:
#
# PCOD9536685 Si02
#       6
#     8  16  16  16  16  16
#     4  10  21  32  52  84 125 158 194 244 286 358
#     4  11  25  44  63  84 116 156 200 251 306 358
#     4   9  18  34  56  87 122 153 194 242 290 352
#     4  11  22  39  58  88 118 158 199 238 297 353
#     4   9  17  30  52  82 119 160 192 231 294 354
#     4  10  19  35  60  87 114 153 199 245 294 354
#
# _framework density 18.501626000000002
#
# number of rings (size 3 to 8) (size 9 to 14) (size 15 to 20)
#    0.000    2.000    1.818    1.909    0.000    7.273 
#    0.000    0.909    0.000    1.636    0.000    0.000 
#    0.000    0.000    0.000    0.000    0.000    0.000 
#
# Total GULP energy -245540.398726 kJ/mol
# GULP energy per Si atom -5580.463607 kJ/mol
# Density = 1.845952 g / cm^3
# Si number density = 18.501626 Si / 1000 Ang^3
#
#
#
# Elastic Constant Matrix: (Units=GPa)
#
#
# Indices 1 2 3 4 5 6 
#
# 1 85.2253 38.9372 44.5466 0.0000 0.0000 0.0000
# 2 38.9372 55.2392 30.6275 0.0000 0.0000 0.0000
# 3 44.5466 30.6275 68.4336 0.0000 0.0000 0.0000
# 4 0.0000 0.0000 0.0000 24.4019 0.0000 0.0000
# 5 0.0000 0.0000 0.0000 0.0000 18.8239 0.0000
# 6 0.0000 0.0000 0.0000 0.0000 0.0000 -4.6450
#
#
#
# Elastic Compliance Matrix: (Units=1/GPa)
#
#
# Indices 1 2 3 4 5 6 
#
# 1 0.021037 -0.009624 -0.009387 0.000000 0.000000 0.000000
# 2 -0.009624 0.028481 -0.006482 0.000000 0.000000 0.000000
# 3 -0.009387 -0.006482 0.023624 0.000000 0.000000 0.000000
# 4 0.000000 0.000000 0.000000 0.040980 0.000000 0.000000
# 5 0.000000 0.000000 0.000000 0.000000 0.053124 0.000000
# 6 0.000000 0.000000 0.000000 0.000000 0.000000 -0.215286
#
#
# Mechanical properties :
#
#
# Convention : Reuss Voigt Hill
#
# Bulk Modulus (GPa) = 45.13360 48.56896 46.85128
# Shear Modulus (GPa) = 483.96688 14.03527 249.00107
#
# Velocity S-wave (km/s) = 16.19100 2.75725 11.61359
# Velocity P-wave (km/s) = 19.33853 6.03695 14.32522
#
# Compressibility (1/GPa) = 0.02215644
#
# Stress axis : x y z
#
# Youngs Moduli (GPa) = 47.53538 35.11125 42.33010
#
# Poissons Ratio (x) = 0.33792 0.39734
# Poissons Ratio (y) = 0.45749 0.27438
# Poissons Ratio (z) = 0.44620 0.22759
#
# Static dielectric constant tensor:
#      x y z
#    x 1.609240 0.000000 0.000000 
#    y 0.000000 1.690610 0.000000 
#    z 0.000000 0.000000 1.633420 
# 
# From -- ./inp_files/12471.got.cif
#   From: 2010.05.17/outbox.cif.g08.bks.cpg/sg74_7_cif.got.tgz:12471.got - 2010.06.03 17:57:02.
