data_PCOD9536626
_publ_section_title
;
Structure prediction by ZEFSAII (Michael W. Deem and Ramdas Pophale) SiO2 
 PCOD9536626
Probable space group: I M M A
;
_chemical_formula_sum "Si O2"
_cell_formula_units_Z 88
_cell_length_a 26.894509
_cell_length_b 22.440124
_cell_length_c 9.036280
_cell_angle_alpha 90.000000
_cell_angle_beta 90.000000
_cell_angle_gamma 90.000000
_cell_volume 5453.540617
_symmetry_space_group_name_H-M "I M M A"
_symmetry_group_IT_number 74
_symmetry_cell_setting 'orthorhombic'
loop_
_space_group_symop_operation_xyz
x,y,z
-x,1/2-y,z
x,-y,-z
-x,1/2+y,-z
-x,-y,-z
x,1/2+y,-z
-x,y,z
x,1/2-y,z
1/2+x,1/2+y,1/2+z
1/2-x,-y,1/2+z
1/2+x,1/2-y,1/2-z
1/2-x,y,1/2-z
1/2-x,1/2-y,1/2-z
1/2+x,y,1/2-z
1/2-x,1/2+y,1/2+z
1/2+x,-y,1/2+z
loop_
_atom_site_type_symbol
_atom_site_label
_atom_site_fract_x
_atom_site_fract_y
_atom_site_fract_z
Si Si1 0.147517 0.819574 0.614057
Si Si2 0.757733 0.681377 0.422898
Si Si3 0.796597 0.596782 0.848191
Si Si4 0.941890 0.521225 0.255367
Si Si5 0.442336 0.902900 0.949274
Si Si6 0.367262 0.000000 0.500000
O O1 0.143594 0.750000 0.653035
O O2 0.185158 0.824516 0.474950
O O3 0.173166 0.857946 0.743429
O O4 0.095225 0.849613 0.578250
O O5 0.743083 0.750000 0.457125
O O6 0.750000 0.671248 0.250000
O O7 0.726450 0.635375 0.519191
O O8 0.750000 0.573063 0.750000
O O9 0.832108 0.546325 0.913725
O O10 0.934415 0.455955 0.329712
O O11 0.934036 0.567409 0.389724
O O12 0.903876 0.529440 0.121485
O O13 0.000000 0.525256 0.209643
O O14 0.500000 0.885143 0.940058
#
# Coordination Sequence:
#
# PCOD9536626 Si02
#       6
#    16  16  16  16  16   8
#     4  10  19  35  57  78 105 143 179 216 262 318
#     4   9  19  35  55  76 101 137 179 216 256 314
#     4  10  22  37  48  77 111 143 174 214 267 316
#     4   9  19  35  56  78 105 138 177 216 264 321
#     4   9  18  35  55  79 107 136 171 221 267 314
#     4  12  21  34  56  80 106 144 173 224 264 306
#
# _framework density 16.136305
#
# number of rings (size 3 to 8) (size 9 to 14) (size 15 to 20)
#    0.000    2.364    1.818    1.909    2.545    3.273 
#    3.273    0.000    0.000    0.000    0.000    0.000 
#    0.000    0.000    0.000    0.000    0.000    0.000 
#
# Total GULP energy -245322.903409 kJ/mol
# GULP energy per Si atom -5575.520532 kJ/mol
# Density = 1.609958 g / cm^3
# Si number density = 16.136305 Si / 1000 Ang^3
#
#
#
# Elastic Constant Matrix: (Units=GPa)
#
#
# Indices 1 2 3 4 5 6 
#
# 1 112.4898 63.7089 54.8867 0.0000 0.0000 0.0000
# 2 63.7089 76.1971 38.5498 0.0000 0.0000 0.0000
# 3 54.8867 38.5498 74.3839 0.0000 0.0000 0.0000
# 4 0.0000 0.0000 0.0000 19.5711 0.0000 0.0000
# 5 0.0000 0.0000 0.0000 0.0000 23.7490 0.0000
# 6 0.0000 0.0000 0.0000 0.0000 0.0000 17.2223
#
#
#
# Elastic Compliance Matrix: (Units=1/GPa)
#
#
# Indices 1 2 3 4 5 6 
#
# 1 0.020052 -0.012578 -0.008278 0.000000 0.000000 0.000000
# 2 -0.012578 0.025677 -0.004026 0.000000 0.000000 0.000000
# 3 -0.008278 -0.004026 0.021638 0.000000 0.000000 0.000000
# 4 0.000000 0.000000 0.000000 0.051096 0.000000 0.000000
# 5 0.000000 0.000000 0.000000 0.000000 0.042107 0.000000
# 6 0.000000 0.000000 0.000000 0.000000 0.000000 0.058064
#
#
# Mechanical properties :
#
#
# Convention : Reuss Voigt Hill
#
# Bulk Modulus (GPa) = 56.80491 64.15128 60.47809
# Shear Modulus (GPa) = 18.23045 19.17016 18.70030
#
# Velocity S-wave (km/s) = 3.36486 3.45050 3.40795
# Velocity P-wave (km/s) = 7.09761 7.46437 7.28329
#
# Compressibility (1/GPa) = 0.01760411
#
# Stress axis : x y z
#
# Youngs Moduli (GPa) = 49.87036 38.94483 46.21427
#
# Poissons Ratio (x) = 0.48984 0.38254
# Poissons Ratio (y) = 0.62726 0.18608
# Poissons Ratio (z) = 0.41280 0.15681
#
# Static dielectric constant tensor:
#      x y z
#    x 1.534520 0.000000 0.000000 
#    y 0.000000 1.515970 0.000000 
#    z 0.000000 0.000000 1.529750 
# 
# From -- ./inp_files/13761.got.cif
#   From: 2010.05.17/outbox.cif.g08.bks.cpg/sg74_7_cif.got.tgz:13761.got - 2010.06.03 17:57:02.
