data_PCOD9536704
_publ_section_title
;
Structure prediction by ZEFSAII (Michael W. Deem and Ramdas Pophale) SiO2 
 PCOD9536704
Probable space group: I M M A
;
_chemical_formula_sum "Si O2"
_cell_formula_units_Z 116
_cell_length_a 16.244240
_cell_length_b 20.253733
_cell_length_c 17.680079
_cell_angle_alpha 90.000000
_cell_angle_beta 90.000000
_cell_angle_gamma 90.000000
_cell_volume 5816.860907
_symmetry_space_group_name_H-M "I M M A"
_symmetry_group_IT_number 74
_symmetry_cell_setting 'orthorhombic'
loop_
_space_group_symop_operation_xyz
x,y,z
-x,1/2-y,z
x,-y,-z
-x,1/2+y,-z
-x,-y,-z
x,1/2+y,-z
-x,y,z
x,1/2-y,z
1/2+x,1/2+y,1/2+z
1/2-x,-y,1/2+z
1/2+x,1/2-y,1/2-z
1/2-x,y,1/2-z
1/2-x,1/2-y,1/2-z
1/2+x,y,1/2-z
1/2-x,1/2+y,1/2+z
1/2+x,-y,1/2+z
loop_
_atom_site_type_symbol
_atom_site_label
_atom_site_fract_x
_atom_site_fract_y
_atom_site_fract_z
Si Si1 0.342481 0.503319 0.149947
Si Si2 0.311533 0.323451 0.437909
Si Si3 0.659823 0.544495 0.319631
Si Si4 0.768443 0.176427 0.883438
Si Si5 0.093995 0.372628 0.571703
Si Si6 0.000000 0.750000 0.658954
Si Si7 0.907848 0.456007 0.065171
Si Si8 0.870774 0.644561 0.605385
O O1 0.360278 0.533363 0.232420
O O2 0.243001 0.506780 0.151602
O O3 0.382376 0.551154 0.087673
O O4 0.371563 0.429379 0.137340
O O5 0.345653 0.250000 0.422062
O O6 0.296002 0.328154 0.528579
O O7 0.365108 0.386907 0.416946
O O8 0.223191 0.330872 0.398378
O O9 0.683039 0.619872 0.338327
O O10 0.590943 0.507407 0.366582
O O11 0.785570 0.250000 0.855466
O O12 0.669630 0.164199 0.886156
O O13 0.100235 0.356277 0.482656
O O14 0.000000 0.358924 0.596318
O O15 0.928482 0.692622 0.651768
O O16 0.000000 0.439751 0.039002
O O17 0.864562 0.500000 0.000000
#
# Coordination Sequence:
#
# PCOD9536704 Si02
#       8
#    16  16  16  16  16   4  16  16
#     4  10  22  36  59  86 112 161 205 246 292 352
#     4  10  19  35  61  89 118 155 193 242 304 363
#     4  10  20  40  60  85 117 151 208 251 296 361
#     4   9  19  34  60  87 117 158 192 237 299 365
#     4  10  21  33  54  89 125 156 198 241 290 356
#     4  12  24  36  58  98 126 162 200 242 306 362
#     4  11  22  37  61  89 116 150 199 260 309 349
#     4  11  21  36  59  85 125 159 199 243 294 359
#
# _framework density 19.942027
#
# number of rings (size 3 to 8) (size 9 to 14) (size 15 to 20)
#    0.000    1.793    4.138    0.414    1.931    1.655 
#    0.000    5.517    1.517    2.069    0.000    0.000 
#    0.000    0.000    0.000    0.000    0.000    0.000 
#
# Total GULP energy -322947.011261 kJ/mol
# GULP energy per Si atom -5568.051918 kJ/mol
# Density = 1.989664 g / cm^3
# Si number density = 19.942027 Si / 1000 Ang^3
#
#
#
# Elastic Constant Matrix: (Units=GPa)
#
#
# Indices 1 2 3 4 5 6 
#
# 1 52.3712 28.4379 -0.2178 0.0000 0.0000 0.0000
# 2 28.4379 159.2949 2.0684 0.0000 0.0000 0.0000
# 3 -0.2178 2.0684 19.6632 0.0000 0.0000 0.0000
# 4 0.0000 0.0000 0.0000 4.2963 0.0000 0.0000
# 5 0.0000 0.0000 0.0000 0.0000 20.6465 0.0000
# 6 0.0000 0.0000 0.0000 0.0000 0.0000 -11.5269
#
#
#
# Elastic Compliance Matrix: (Units=1/GPa)
#
#
# Indices 1 2 3 4 5 6 
#
# 1 0.021152 -0.003784 0.000632 0.000000 0.000000 0.000000
# 2 -0.003784 0.006963 -0.000774 0.000000 0.000000 0.000000
# 3 0.000632 -0.000774 0.050945 0.000000 0.000000 0.000000
# 4 0.000000 0.000000 0.000000 0.232758 0.000000 0.000000
# 5 0.000000 0.000000 0.000000 0.000000 0.048434 0.000000
# 6 0.000000 0.000000 0.000000 0.000000 0.000000 -0.086754
#
#
# Mechanical properties :
#
#
# Convention : Reuss Voigt Hill
#
# Bulk Modulus (GPa) = 14.04346 32.43403 23.23875
# Shear Modulus (GPa) = 16.38874 16.08591 16.23733
#
# Velocity S-wave (km/s) = 2.86985 2.84321 2.85656
# Velocity P-wave (km/s) = 4.24721 5.20365 4.74957
#
# Compressibility (1/GPa) = 0.07120751
#
# Stress axis : x y z
#
# Youngs Moduli (GPa) = 47.27686 143.60978 19.62905
#
# Poissons Ratio (x) = 0.54347 -0.01241
# Poissons Ratio (y) = 0.17891 0.01520
# Poissons Ratio (z) = -0.02990 0.11121
#
# Static dielectric constant tensor:
#      x y z
#    x 1.739530 0.000000 0.000000 
#    y 0.000000 1.704530 0.000000 
#    z 0.000000 0.000000 1.795760 
# 
# From -- ./inp_files/44275.got.cif
#   From: 2010.05.17/outbox.cif.g08.bks.cpg/sg74_23_cif.got.tgz:44275.got - 2010.06.03 17:57:02.
