data_PCOD9536411
_publ_section_title
;
Structure prediction by ZEFSAII (Michael W. Deem and Ramdas Pophale) SiO2 
 PCOD9536411
Probable space group: I M M A
;
_chemical_formula_sum "Si O2"
_cell_formula_units_Z 96
_cell_length_a 29.572937
_cell_length_b 9.288343
_cell_length_c 20.091115
_cell_angle_alpha 90.000000
_cell_angle_beta 90.000000
_cell_angle_gamma 90.000000
_cell_volume 5518.699442
_symmetry_space_group_name_H-M "I M M A"
_symmetry_group_IT_number 74
_symmetry_cell_setting 'orthorhombic'
loop_
_space_group_symop_operation_xyz
x,y,z
-x,1/2-y,z
x,-y,-z
-x,1/2+y,-z
-x,-y,-z
x,1/2+y,-z
-x,y,z
x,1/2-y,z
1/2+x,1/2+y,1/2+z
1/2-x,-y,1/2+z
1/2+x,1/2-y,1/2-z
1/2-x,y,1/2-z
1/2-x,1/2-y,1/2-z
1/2+x,y,1/2-z
1/2-x,1/2+y,1/2+z
1/2+x,-y,1/2+z
loop_
_atom_site_type_symbol
_atom_site_label
_atom_site_fract_x
_atom_site_fract_y
_atom_site_fract_z
Si Si1 0.444737 0.915248 0.434287
Si Si2 0.340085 0.921636 0.068395
Si Si3 0.947181 0.080009 0.197897
Si Si4 0.628905 0.420967 0.198478
Si Si5 0.267845 0.920644 0.432651
Si Si6 0.201612 0.580906 0.213023
O O1 0.500000 0.918031 0.434648
O O2 0.430214 0.750000 0.436531
O O3 0.429692 0.000000 0.500000
O O4 0.430507 0.990869 0.365894
O O5 0.347099 0.750000 0.065233
O O6 0.285997 0.946531 0.077525
O O7 0.365430 0.992754 0.130262
O O8 0.353018 0.000000 0.000000
O O9 0.943497 0.250000 0.181956
O O10 0.918039 0.052330 0.263324
O O11 0.000000 0.047057 0.208430
O O12 0.634119 0.250000 0.187335
O O13 0.667062 0.480563 0.248310
O O14 0.273599 0.750000 0.441631
O O15 0.292359 0.961451 0.364120
O O16 0.282179 0.000000 0.500000
O O17 0.187740 0.750000 0.216444
O O18 0.250000 0.572212 0.250000
#
# Coordination Sequence:
#
# PCOD9536411 Si02
#       6
#    16  16  16  16  16  16
#     4   9  16  27  47  74 100 128 167 213 260 310
#     4  10  19  34  54  78 107 138 173 214 257 308
#     4   9  19  36  54  73 103 140 178 222 268 314
#     4  11  22  34  53  82 107 135 176 219 265 313
#     4   9  18  32  51  73 101 139 176 210 252 304
#     4  10  19  35  53  73 105 143 175 208 258 312
#
# _framework density 17.395403000000002
#
# number of rings (size 3 to 8) (size 9 to 14) (size 15 to 20)
#    0.000    2.333    1.667    1.500    0.000    5.000 
#    0.000    0.833    0.000    2.500    0.000    0.000 
#    0.000    0.000    0.000    0.000    0.000    0.000 
#
# Total GULP energy -267856.412135 kJ/mol
# GULP energy per Si atom -5580.341919 kJ/mol
# Density = 1.735581 g / cm^3
# Si number density = 17.395403 Si / 1000 Ang^3
#
#
#
# Elastic Constant Matrix: (Units=GPa)
#
#
# Indices 1 2 3 4 5 6 
#
# 1 31.1212 37.5220 39.9382 0.0000 0.0000 0.0000
# 2 37.5220 86.1240 86.2875 0.0000 0.0000 0.0000
# 3 39.9382 86.2875 174.1464 0.0000 0.0000 0.0000
# 4 0.0000 0.0000 0.0000 39.1237 0.0000 0.0000
# 5 0.0000 0.0000 0.0000 0.0000 19.5833 0.0000
# 6 0.0000 0.0000 0.0000 0.0000 0.0000 15.1540
#
#
#
# Elastic Compliance Matrix: (Units=1/GPa)
#
#
# Indices 1 2 3 4 5 6 
#
# 1 0.067976 -0.027794 -0.001818 0.000000 0.000000 0.000000
# 2 -0.027794 0.034422 -0.010682 0.000000 0.000000 0.000000
# 3 -0.001818 -0.010682 0.011452 0.000000 0.000000 0.000000
# 4 0.000000 0.000000 0.000000 0.025560 0.000000 0.000000
# 5 0.000000 0.000000 0.000000 0.000000 0.051064 0.000000
# 6 0.000000 0.000000 0.000000 0.000000 0.000000 0.065989
#
#
# Mechanical properties :
#
#
# Convention : Reuss Voigt Hill
#
# Bulk Modulus (GPa) = 30.06344 68.76523 49.41434
# Shear Modulus (GPa) = 14.36211 23.28178 18.82194
#
# Velocity S-wave (km/s) = 2.87649 3.66237 3.29296
# Velocity P-wave (km/s) = 5.32468 7.58290 6.55182
#
# Compressibility (1/GPa) = 0.03326299
#
# Stress axis : x y z
#
# Youngs Moduli (GPa) = 14.71104 29.05088 87.32281
#
# Poissons Ratio (x) = 0.80745 0.15872
# Poissons Ratio (y) = 0.40888 0.93275
# Poissons Ratio (z) = 0.02674 0.31031
#
# Static dielectric constant tensor:
#      x y z
#    x 1.594230 0.000000 0.000000 
#    y 0.000000 1.579460 0.000000 
#    z 0.000000 0.000000 1.578610 
# 
# From -- ./inp_files/49094.got.cif
#   From: 2010.05.17/outbox.cif.g08.bks.cpg/sg74_25_cif.got.tgz:49094.got - 2010.06.03 17:57:02.
