data_PCOD9536522
_publ_section_title
;
Structure prediction by ZEFSAII (Michael W. Deem and Ramdas Pophale) SiO2 
 PCOD9536522
Probable space group: I M M A
;
_chemical_formula_sum "Si O2"
_cell_formula_units_Z 96
_cell_length_a 25.457733
_cell_length_b 14.507660
_cell_length_c 11.855690
_cell_angle_alpha 90.000000
_cell_angle_beta 90.000000
_cell_angle_gamma 90.000000
_cell_volume 4378.687296
_symmetry_space_group_name_H-M "I M M A"
_symmetry_group_IT_number 74
_symmetry_cell_setting 'orthorhombic'
loop_
_space_group_symop_operation_xyz
x,y,z
-x,1/2-y,z
x,-y,-z
-x,1/2+y,-z
-x,-y,-z
x,1/2+y,-z
-x,y,z
x,1/2-y,z
1/2+x,1/2+y,1/2+z
1/2-x,-y,1/2+z
1/2+x,1/2-y,1/2-z
1/2-x,y,1/2-z
1/2-x,1/2-y,1/2-z
1/2+x,y,1/2-z
1/2-x,1/2+y,1/2+z
1/2+x,-y,1/2+z
loop_
_atom_site_type_symbol
_atom_site_label
_atom_site_fract_x
_atom_site_fract_y
_atom_site_fract_z
Si Si1 0.441893 0.604056 0.547885
Si Si2 0.349312 0.896449 0.974912
Si Si3 0.742099 0.854165 0.628819
Si Si4 0.940516 0.451053 0.303686
Si Si5 0.833363 0.853157 0.060728
Si Si6 0.387696 0.356073 0.780128
O O1 0.441341 0.500000 0.500000
O O2 0.500000 0.642042 0.521865
O O3 0.435694 0.597906 0.682518
O O4 0.391603 0.649725 0.492403
O O5 0.398604 0.909581 0.890886
O O6 0.365597 0.854238 0.093721
O O7 0.300141 0.847697 0.920476
O O8 0.330760 0.000000 0.000000
O O9 0.720633 0.750000 0.650959
O O10 0.750000 0.901730 0.750000
O O11 0.703753 0.897093 0.534654
O O12 0.929451 0.560271 0.282985
O O13 0.000000 0.439632 0.345406
O O14 0.811552 0.750000 0.076942
O O15 0.844413 0.888187 0.187143
O O16 0.404047 0.250000 0.751373
#
# Coordination Sequence:
#
# PCOD9536522 Si02
#       6
#    16  16  16  16  16  16
#     4  10  19  34  57  84 116 154 189 236 297 349
#     4  10  22  39  56  84 115 152 193 241 295 348
#     4  10  21  39  61  83 112 152 195 243 297 350
#     4  10  21  39  61  85 118 157 201 248 297 358
#     4  10  21  36  58  89 119 154 199 245 296 358
#     4  10  21  37  58  85 119 155 194 243 300 356
#
# _framework density 21.924379999999999
#
# number of rings (size 3 to 8) (size 9 to 14) (size 15 to 20)
#    0.000    2.000    1.667    1.500    0.000    5.000 
#    6.000    5.000    0.000    3.500    0.000    0.000 
#    0.000    0.000    0.000    0.000    0.000    0.000 
#
# Total GULP energy -267675.870199 kJ/mol
# GULP energy per Si atom -5576.580629 kJ/mol
# Density = 2.187448 g / cm^3
# Si number density = 21.924380 Si / 1000 Ang^3
#
#
#
# Elastic Constant Matrix: (Units=GPa)
#
#
# Indices 1 2 3 4 5 6 
#
# 1 106.5554 11.4753 68.7846 0.0000 0.0000 0.0000
# 2 11.4753 56.4394 11.7644 0.0000 0.0000 0.0000
# 3 68.7846 11.7644 149.8922 0.0000 0.0000 0.0000
# 4 0.0000 0.0000 0.0000 87.1323 0.0000 0.0000
# 5 0.0000 0.0000 0.0000 0.0000 22.8576 0.0000
# 6 0.0000 0.0000 0.0000 0.0000 0.0000 25.7376
#
#
#
# Elastic Compliance Matrix: (Units=1/GPa)
#
#
# Indices 1 2 3 4 5 6 
#
# 1 0.013454 -0.001473 -0.006059 0.000000 0.000000 0.000000
# 2 -0.001473 0.018174 -0.000751 0.000000 0.000000 0.000000
# 3 -0.006059 -0.000751 0.009511 0.000000 0.000000 0.000000
# 4 0.000000 0.000000 0.000000 0.011477 0.000000 0.000000
# 5 0.000000 0.000000 0.000000 0.000000 0.043749 0.000000
# 6 0.000000 0.000000 0.000000 0.000000 0.000000 0.038854
#
#
# Mechanical properties :
#
#
# Convention : Reuss Voigt Hill
#
# Bulk Modulus (GPa) = 40.69124 55.21507 47.95315
# Shear Modulus (GPa) = 31.25510 41.86967 36.56239
#
# Velocity S-wave (km/s) = 3.77979 4.37479 4.08813
# Velocity P-wave (km/s) = 6.13589 7.12442 6.64855
#
# Compressibility (1/GPa) = 0.02457532
#
# Stress axis : x y z
#
# Youngs Moduli (GPa) = 74.32544 55.02367 105.14585
#
# Poissons Ratio (x) = 0.08103 0.63703
# Poissons Ratio (y) = 0.10946 0.07892
# Poissons Ratio (z) = 0.45030 0.04130
#
# Static dielectric constant tensor:
#      x y z
#    x 1.776800 0.000000 0.000000 
#    y 0.000000 2.223150 0.000000 
#    z 0.000000 0.000000 1.827190 
# 
# From -- ./inp_files/26292.got.cif
#   From: 2010.05.17/outbox.cif.g08.bks.cpg/sg74_14_cif.got.tgz:26292.got - 2010.06.03 17:57:02.
