data_PCOD9536972
_publ_section_title
;
Structure prediction by ZEFSAII (Michael W. Deem and Ramdas Pophale) SiO2 
 PCOD9536972
Probable space group: I M M A
;
_chemical_formula_sum "Si O2"
_cell_formula_units_Z 64
_cell_length_a 14.788929
_cell_length_b 21.564932
_cell_length_c 8.189919
_cell_angle_alpha 90.000000
_cell_angle_beta 90.000000
_cell_angle_gamma 90.000000
_cell_volume 2611.947380
_symmetry_space_group_name_H-M "I M M A"
_symmetry_group_IT_number 74
_symmetry_cell_setting 'orthorhombic'
loop_
_space_group_symop_operation_xyz
x,y,z
-x,1/2-y,z
x,-y,-z
-x,1/2+y,-z
-x,-y,-z
x,1/2+y,-z
-x,y,z
x,1/2-y,z
1/2+x,1/2+y,1/2+z
1/2-x,-y,1/2+z
1/2+x,1/2-y,1/2-z
1/2-x,y,1/2-z
1/2-x,1/2-y,1/2-z
1/2+x,y,1/2-z
1/2-x,1/2+y,1/2+z
1/2+x,-y,1/2+z
loop_
_atom_site_type_symbol
_atom_site_label
_atom_site_fract_x
_atom_site_fract_y
_atom_site_fract_z
Si Si1 0.361307 0.617486 0.886884
Si Si2 0.893643 0.750000 0.151753
Si Si3 0.357887 0.250000 0.262453
Si Si4 0.835973 0.067510 0.059525
Si Si5 0.145863 0.883837 0.258622
O O1 0.387773 0.686264 0.826249
O O2 0.252026 0.611784 0.917241
O O3 0.380863 0.570958 0.737523
O O4 0.396089 0.601247 0.066747
O O5 0.853195 0.689704 0.236423
O O6 0.000000 0.750000 0.183208
O O7 0.881025 0.750000 0.955057
O O8 0.250000 0.250000 0.250000
O O9 0.895528 0.092035 0.910229
O O10 0.806328 0.000000 0.000000
O O11 0.250000 0.907206 0.250000
#
# Coordination Sequence:
#
# PCOD9536972 Si02
#       5
#    16   8   8  16  16
#     4  10  20  31  56  83 124 159 197 249 310 363
#     4  12  24  40  62  92 128 162 208 266 320 373
#     4  12  17  38  59  87 122 163 206 250 314 372
#     4  10  20  31  52  92 129 154 198 258 307 362
#     4  10  20  37  59  87 119 165 200 250 312 372
#
# _framework density 24.502791999999999
#
# number of rings (size 3 to 8) (size 9 to 14) (size 15 to 20)
#    0.000    1.500    5.000    2.625   10.500    0.000 
#    0.000    2.500    0.000    0.750    0.000    1.750 
#    0.000    0.000    0.000    0.000    0.000    0.000 
#
# Total GULP energy -178616.295901 kJ/mol
# GULP energy per Si atom -5581.759247 kJ/mol
# Density = 2.444702 g / cm^3
# Si number density = 24.502792 Si / 1000 Ang^3
#
#
#
# Elastic Constant Matrix: (Units=GPa)
#
#
# Indices 1 2 3 4 5 6 
#
# 1 88.9206 0.6686 6.4901 0.0000 0.0000 0.0000
# 2 0.6686 101.7695 40.2249 0.0000 0.0000 0.0000
# 3 6.4901 40.2249 282.0828 0.0000 0.0000 0.0000
# 4 0.0000 0.0000 0.0000 43.3527 0.0000 0.0000
# 5 0.0000 0.0000 0.0000 0.0000 -13.0656 0.0000
# 6 0.0000 0.0000 0.0000 0.0000 0.0000 -37.8596
#
#
#
# Elastic Compliance Matrix: (Units=1/GPa)
#
#
# Indices 1 2 3 4 5 6 
#
# 1 0.011265 0.000030 -0.000263 0.000000 0.000000 0.000000
# 2 0.000030 0.010413 -0.001486 0.000000 0.000000 0.000000
# 3 -0.000263 -0.001486 0.003763 0.000000 0.000000 0.000000
# 4 0.000000 0.000000 0.000000 0.023067 0.000000 0.000000
# 5 0.000000 0.000000 0.000000 0.000000 -0.076537 0.000000
# 6 0.000000 0.000000 0.000000 0.000000 0.000000 -0.026413
#
#
# Mechanical properties :
#
#
# Convention : Reuss Voigt Hill
#
# Bulk Modulus (GPa) = 45.44799 63.06003 54.25401
# Shear Modulus (GPa) = -114.49516 26.84477 -43.82519
#
# Velocity S-wave (km/s) = -6.84316 3.31355 -4.23375
# Velocity P-wave (km/s) = 6.62194 6.35855 1.30746
#
# Compressibility (1/GPa) = 0.02200317
#
# Stress axis : x y z
#
# Youngs Moduli (GPa) = 88.77061 96.03270 265.74784
#
# Poissons Ratio (x) = -0.00289 0.07002
# Poissons Ratio (y) = -0.00267 0.39479
# Poissons Ratio (z) = 0.02339 0.14267
#
# Static dielectric constant tensor:
#      x y z
#    x 1.962980 0.000000 0.000000 
#    y 0.000000 1.989480 0.000000 
#    z 0.000000 0.000000 2.059170 
# 
# From -- ./inp_files/10325.got.cif
#   From: 2010.05.17/outbox.cif.g08.bks.cpg/sg74_6_cif.got.tgz:10325.got - 2010.06.03 17:57:02.
