data_PCOD9536845
_publ_section_title
;
Structure prediction by ZEFSAII (Michael W. Deem and Ramdas Pophale) SiO2 
 PCOD9536845
Probable space group: I M M A
;
_chemical_formula_sum "Si O2"
_cell_formula_units_Z 72
_cell_length_a 18.192394
_cell_length_b 8.450570
_cell_length_c 24.425775
_cell_angle_alpha 90.000000
_cell_angle_beta 90.000000
_cell_angle_gamma 90.000000
_cell_volume 3755.123363
_symmetry_space_group_name_H-M "I M M A"
_symmetry_group_IT_number 74
_symmetry_cell_setting 'orthorhombic'
loop_
_space_group_symop_operation_xyz
x,y,z
-x,1/2-y,z
x,-y,-z
-x,1/2+y,-z
-x,-y,-z
x,1/2+y,-z
-x,y,z
x,1/2-y,z
1/2+x,1/2+y,1/2+z
1/2-x,-y,1/2+z
1/2+x,1/2-y,1/2-z
1/2-x,y,1/2-z
1/2-x,1/2-y,1/2-z
1/2+x,y,1/2-z
1/2-x,1/2+y,1/2+z
1/2+x,-y,1/2+z
loop_
_atom_site_type_symbol
_atom_site_label
_atom_site_fract_x
_atom_site_fract_y
_atom_site_fract_z
Si Si1 0.163316 0.059358 0.248831
Si Si2 0.915535 0.939084 0.357624
Si Si3 0.855623 0.556852 0.874323
Si Si4 0.791503 0.560429 0.562146
Si Si5 0.000000 0.441187 0.061412
O O1 0.156436 0.250000 0.253311
O O2 0.250000 0.022142 0.250000
O O3 0.137224 0.007814 0.188762
O O4 0.119976 0.986493 0.299469
O O5 0.915406 0.750000 0.362103
O O6 0.000000 0.995328 0.361009
O O7 0.863859 0.006984 0.405319
O O8 0.853700 0.750000 0.873912
O O9 0.780099 0.504659 0.903340
O O10 0.926324 0.504881 0.908195
O O11 0.789259 0.500000 0.500000
O O12 0.789499 0.750000 0.561196
O O13 0.000000 0.250000 0.062135
O O14 0.000000 0.500000 0.000000
#
# Coordination Sequence:
#
# PCOD9536845 Si02
#       5
#    16  16  16  16   8
#     4  10  19  37  63  89 116 151 196 242 293 356
#     4  11  25  42  59  87 124 159 198 247 302 359
#     4   9  19  35  58  88 119 153 194 239 289 350
#     4  11  22  40  63  88 117 154 202 249 299 359
#     4  10  20  36  56  82 120 158 193 236 285 340
#
# _framework density 19.173804000000001
#
# number of rings (size 3 to 8) (size 9 to 14) (size 15 to 20)
#    0.000    1.778    2.222    2.000    1.556    2.667 
#    0.000    2.222    0.000    0.000    0.000    0.000 
#    0.000    0.000    0.000    0.000    0.000    0.000 
#
# Total GULP energy -201111.760322 kJ/mol
# GULP energy per Si atom -5586.437787 kJ/mol
# Density = 1.913016 g / cm^3
# Si number density = 19.173804 Si / 1000 Ang^3
#
#
#
# Elastic Constant Matrix: (Units=GPa)
#
#
# Indices 1 2 3 4 5 6 
#
# 1 123.9807 26.7711 45.8497 0.0000 0.0000 0.0000
# 2 26.7711 24.2021 18.4920 0.0000 0.0000 0.0000
# 3 45.8497 18.4920 133.8837 0.0000 0.0000 0.0000
# 4 0.0000 0.0000 0.0000 37.3663 0.0000 0.0000
# 5 0.0000 0.0000 0.0000 0.0000 35.0795 0.0000
# 6 0.0000 0.0000 0.0000 0.0000 0.0000 13.9941
#
#
#
# Elastic Compliance Matrix: (Units=1/GPa)
#
#
# Indices 1 2 3 4 5 6 
#
# 1 0.011238 -0.010610 -0.002383 0.000000 0.000000 0.000000
# 2 -0.010610 0.056211 -0.004130 0.000000 0.000000 0.000000
# 3 -0.002383 -0.004130 0.008856 0.000000 0.000000 0.000000
# 4 0.000000 0.000000 0.000000 0.026762 0.000000 0.000000
# 5 0.000000 0.000000 0.000000 0.000000 0.028507 0.000000
# 6 0.000000 0.000000 0.000000 0.000000 0.000000 0.071459
#
#
# Mechanical properties :
#
#
# Convention : Reuss Voigt Hill
#
# Bulk Modulus (GPa) = 23.77682 51.58801 37.68242
# Shear Modulus (GPa) = 19.89660 30.01822 24.95741
#
# Velocity S-wave (km/s) = 3.22483 3.96104 3.61174
# Velocity P-wave (km/s) = 5.12773 6.91980 6.09004
#
# Compressibility (1/GPa) = 0.04205777
#
# Stress axis : x y z
#
# Youngs Moduli (GPa) = 88.98262 17.79006 112.92070
#
# Poissons Ratio (x) = 0.18876 0.26910
# Poissons Ratio (y) = 0.94413 0.46640
# Poissons Ratio (z) = 0.21206 0.07348
#
# Static dielectric constant tensor:
#      x y z
#    x 1.664420 0.000000 0.000000 
#    y 0.000000 1.668160 0.000000 
#    z 0.000000 0.000000 1.640170 
# 
# From -- ./inp_files/60584.got.cif
#   From: 2010.05.17/outbox.cif.g08.bks.cpg/sg74_31_cif.got.tgz:60584.got - 2010.06.03 17:57:02.
