data_PCOD9536743
_publ_section_title
;
Structure prediction by ZEFSAII (Michael W. Deem and Ramdas Pophale) SiO2 
 PCOD9536743
Probable space group: I M M A
;
_chemical_formula_sum "Si O2"
_cell_formula_units_Z 120
_cell_length_a 21.878976
_cell_length_b 26.892383
_cell_length_c 12.347767
_cell_angle_alpha 90.000000
_cell_angle_beta 90.000000
_cell_angle_gamma 90.000000
_cell_volume 7265.152010
_symmetry_space_group_name_H-M "I M M A"
_symmetry_group_IT_number 74
_symmetry_cell_setting 'orthorhombic'
loop_
_space_group_symop_operation_xyz
x,y,z
-x,1/2-y,z
x,-y,-z
-x,1/2+y,-z
-x,-y,-z
x,1/2+y,-z
-x,y,z
x,1/2-y,z
1/2+x,1/2+y,1/2+z
1/2-x,-y,1/2+z
1/2+x,1/2-y,1/2-z
1/2-x,y,1/2-z
1/2-x,1/2-y,1/2-z
1/2+x,y,1/2-z
1/2-x,1/2+y,1/2+z
1/2+x,-y,1/2+z
loop_
_atom_site_type_symbol
_atom_site_label
_atom_site_fract_x
_atom_site_fract_y
_atom_site_fract_z
Si Si1 0.878155 0.585680 0.200633
Si Si2 0.885057 0.446183 0.446595
Si Si3 0.570301 0.140651 0.895733
Si Si4 0.430929 0.979162 0.728319
Si Si5 0.144340 0.942516 0.967578
Si Si6 0.263856 0.111335 0.122295
Si Si7 0.250000 0.634455 0.250000
Si Si8 0.805331 0.691500 0.454345
O O1 0.918000 0.623646 0.271590
O O2 0.892870 0.530029 0.239498
O O3 0.808181 0.600456 0.223046
O O4 0.886173 0.583417 0.071600
O O5 0.876887 0.500000 0.500000
O O6 0.913815 0.408061 0.532386
O O7 0.927703 0.451753 0.342287
O O8 0.820912 0.424983 0.402386
O O9 0.500000 0.155706 0.911426
O O10 0.623110 0.179198 0.930774
O O11 0.500000 0.992587 0.699378
O O12 0.400736 0.946965 0.633843
O O13 0.204647 0.913140 0.933286
O O14 0.159085 0.000000 0.000000
O O15 0.250000 0.116774 0.250000
O O16 0.282450 0.162055 0.060692
O O17 0.231356 0.667860 0.352799
O O18 0.795675 0.750000 0.462227
#
# Coordination Sequence:
#
# PCOD9536743 Si02
#       8
#    16  16  16  16  16  16   8  16
#     4  10  20  32  53  77 109 144 180 219 260 308
#     4  11  21  33  52  81 112 153 181 217 260 309
#     4  10  21  35  54  82 112 145 180 215 261 323
#     4  11  22  33  49  75 112 153 189 217 250 309
#     4  10  21  35  51  77 111 150 182 222 261 308
#     4  11  21  37  57  80 110 138 187 227 277 325
#     4  10  19  36  58  80 108 136 174 220 279 336
#     4  10  22  38  59  84 106 135 174 228 287 332
#
# _framework density 16.517205000000001
#
# number of rings (size 3 to 8) (size 9 to 14) (size 15 to 20)
#    0.000    1.600    4.000    1.400    0.000    6.133 
#    0.000    0.000    0.000    0.000    0.000    0.000 
#    0.000    0.533    0.000    0.000    0.000    0.000 
#
# Total GULP energy -334751.235214 kJ/mol
# GULP energy per Si atom -5579.187254 kJ/mol
# Density = 1.647961 g / cm^3
# Si number density = 16.517205 Si / 1000 Ang^3
#
#
#
# Elastic Constant Matrix: (Units=GPa)
#
#
# Indices 1 2 3 4 5 6 
#
# 1 104.4164 41.2676 40.4002 0.0000 0.0000 0.0000
# 2 41.2676 64.8488 27.3418 0.0000 0.0000 0.0000
# 3 40.4002 27.3418 109.6866 0.0000 0.0000 0.0000
# 4 0.0000 0.0000 0.0000 11.1316 0.0000 0.0000
# 5 0.0000 0.0000 0.0000 0.0000 14.3079 0.0000
# 6 0.0000 0.0000 0.0000 0.0000 0.0000 -7.4258
#
#
#
# Elastic Compliance Matrix: (Units=1/GPa)
#
#
# Indices 1 2 3 4 5 6 
#
# 1 0.013743 -0.007388 -0.003220 0.000000 0.000000 0.000000
# 2 -0.007388 0.021203 -0.002564 0.000000 0.000000 0.000000
# 3 -0.003220 -0.002564 0.010942 0.000000 0.000000 0.000000
# 4 0.000000 0.000000 0.000000 0.089834 0.000000 0.000000
# 5 0.000000 0.000000 0.000000 0.000000 0.069891 0.000000
# 6 0.000000 0.000000 0.000000 0.000000 0.000000 -0.134665
#
#
# Mechanical properties :
#
#
# Convention : Reuss Voigt Hill
#
# Bulk Modulus (GPa) = 51.16791 55.21900 53.19346
# Shear Modulus (GPa) = 48.16627 14.93223 31.54925
#
# Velocity S-wave (km/s) = 5.40598 3.00999 4.37519
# Velocity P-wave (km/s) = 8.36731 6.75158 7.60249
#
# Compressibility (1/GPa) = 0.01954350
#
# Stress axis : x y z
#
# Youngs Moduli (GPa) = 72.76547 47.16333 91.38963
#
# Poissons Ratio (x) = 0.34843 0.29430
# Poissons Ratio (y) = 0.53757 0.23434
# Poissons Ratio (z) = 0.23432 0.12094
#
# Static dielectric constant tensor:
#      x y z
#    x 1.553570 0.000000 0.000000 
#    y 0.000000 1.522580 0.000000 
#    z 0.000000 0.000000 1.574400 
# 
# From -- ./inp_files/24245.got.cif
#   From: 2010.05.17/outbox.cif.g08.bks.cpg/sg74_13_cif.got.tgz:24245.got - 2010.06.03 17:57:02.
