data_PCOD9536627
_publ_section_title
;
Structure prediction by ZEFSAII (Michael W. Deem and Ramdas Pophale) SiO2 
 PCOD9536627
Probable space group: I M M A
;
_chemical_formula_sum "Si O2"
_cell_formula_units_Z 72
_cell_length_a 17.480264
_cell_length_b 7.648602
_cell_length_c 29.966824
_cell_angle_alpha 90.000000
_cell_angle_beta 90.000000
_cell_angle_gamma 90.000000
_cell_volume 4006.551848
_symmetry_space_group_name_H-M "I M M A"
_symmetry_group_IT_number 74
_symmetry_cell_setting 'orthorhombic'
loop_
_space_group_symop_operation_xyz
x,y,z
-x,1/2-y,z
x,-y,-z
-x,1/2+y,-z
-x,-y,-z
x,1/2+y,-z
-x,y,z
x,1/2-y,z
1/2+x,1/2+y,1/2+z
1/2-x,-y,1/2+z
1/2+x,1/2-y,1/2-z
1/2-x,y,1/2-z
1/2-x,1/2-y,1/2-z
1/2+x,y,1/2-z
1/2-x,1/2+y,1/2+z
1/2+x,-y,1/2+z
loop_
_atom_site_type_symbol
_atom_site_label
_atom_site_fract_x
_atom_site_fract_y
_atom_site_fract_z
Si Si1 0.589963 0.250000 0.743961
Si Si2 0.908528 0.750000 0.350562
Si Si3 0.000000 0.459964 0.052985
Si Si4 0.308958 0.445474 0.291183
Si Si5 0.206450 0.540978 0.621469
Si Si6 0.333056 0.959712 0.552393
O O1 0.500000 0.250000 0.739241
O O2 0.607320 0.250000 0.797113
O O3 0.626951 0.416578 0.720440
O O4 0.867365 0.579597 0.371391
O O5 0.000000 0.750000 0.356919
O O6 0.916784 0.525883 0.069014
O O7 0.000000 0.250000 0.058861
O O8 0.000000 0.500000 0.000000
O O9 0.340784 0.250000 0.295472
O O10 0.250000 0.448752 0.250000
O O11 0.260559 0.483960 0.335347
O O12 0.189093 0.750000 0.618258
O O13 0.259457 0.481876 0.580122
O O14 0.334899 0.750000 0.557529
O O15 0.326284 0.000000 0.500000
#
# Coordination Sequence:
#
# PCOD9536627 Si02
#       6
#     8   8   8  16  16  16
#     4  11  22  36  54  80 116 146 182 229 277 329
#     4  11  23  37  59  84 109 143 181 241 292 333
#     4   8  14  28  48  72 108 138 172 212 258 308
#     4  10  19  35  57  78 107 145 181 223 273 328
#     4  10  21  37  58  83 109 145 190 227 276 335
#     4   9  18  32  53  80 108 145 181 223 268 320
#
# _framework density 17.970565000000001
#
# number of rings (size 3 to 8) (size 9 to 14) (size 15 to 20)
#    0.000    2.222    2.222    1.000    1.556    0.889 
#    2.000    2.222    0.000    0.667    0.000    0.000 
#    0.000    0.000    0.000    0.000    0.000    0.000 
#
# Total GULP energy -200736.870148 kJ/mol
# GULP energy per Si atom -5576.024171 kJ/mol
# Density = 1.792966 g / cm^3
# Si number density = 17.970565 Si / 1000 Ang^3
#
#
#
# Elastic Constant Matrix: (Units=GPa)
#
#
# Indices 1 2 3 4 5 6 
#
# 1 126.5300 77.4728 44.0490 0.0000 0.0000 0.0000
# 2 77.4728 83.4612 23.5646 0.0000 0.0000 0.0000
# 3 44.0490 23.5646 63.8280 0.0000 0.0000 0.0000
# 4 0.0000 0.0000 0.0000 21.2993 0.0000 0.0000
# 5 0.0000 0.0000 0.0000 0.0000 22.9045 0.0000
# 6 0.0000 0.0000 0.0000 0.0000 0.0000 -219.3582
#
#
#
# Elastic Compliance Matrix: (Units=1/GPa)
#
#
# Indices 1 2 3 4 5 6 
#
# 1 0.021732 -0.017793 -0.008429 0.000000 0.000000 0.000000
# 2 -0.017793 0.027944 0.001963 0.000000 0.000000 0.000000
# 3 -0.008429 0.001963 0.020759 0.000000 0.000000 0.000000
# 4 0.000000 0.000000 0.000000 0.046950 0.000000 0.000000
# 5 0.000000 0.000000 0.000000 0.000000 0.043660 0.000000
# 6 0.000000 0.000000 0.000000 0.000000 0.000000 -0.004559
#
#
# Mechanical properties :
#
#
# Convention : Reuss Voigt Hill
#
# Bulk Modulus (GPa) = 45.62627 62.66578 54.14603
# Shear Modulus (GPa) = 23.55061 -26.44868 -1.44904
#
# Velocity S-wave (km/s) = 3.62402 -3.84054 -0.89894
# Velocity P-wave (km/s) = 6.55408 3.90906 5.39614
#
# Compressibility (1/GPa) = 0.02191720
#
# Stress axis : x y z
#
# Youngs Moduli (GPa) = 46.01536 35.78635 48.17116
#
# Poissons Ratio (x) = 0.63674 0.40602
# Poissons Ratio (y) = 0.81874 -0.09455
# Poissons Ratio (z) = 0.38785 -0.07024
#
# Static dielectric constant tensor:
#      x y z
#    x 1.605800 0.000000 0.000000 
#    y 0.000000 1.655230 0.000000 
#    z 0.000000 0.000000 1.603290 
# 
# From -- ./inp_files/66811.got.cif
#   From: 2010.05.17/outbox.cif.g08.bks.cpg/sg74_34_cif.got.tgz:66811.got - 2010.06.03 17:57:02.
