data_PCOD9536818
_publ_section_title
;
Structure prediction by ZEFSAII (Michael W. Deem and Ramdas Pophale) SiO2 
 PCOD9536818
Probable space group: I M M A
;
_chemical_formula_sum "Si O2"
_cell_formula_units_Z 68
_cell_length_a 7.578324
_cell_length_b 23.615898
_cell_length_c 16.780790
_cell_angle_alpha 90.000000
_cell_angle_beta 90.000000
_cell_angle_gamma 90.000000
_cell_volume 3003.239974
_symmetry_space_group_name_H-M "I M M A"
_symmetry_group_IT_number 74
_symmetry_cell_setting 'orthorhombic'
loop_
_space_group_symop_operation_xyz
x,y,z
-x,1/2-y,z
x,-y,-z
-x,1/2+y,-z
-x,-y,-z
x,1/2+y,-z
-x,y,z
x,1/2-y,z
1/2+x,1/2+y,1/2+z
1/2-x,-y,1/2+z
1/2+x,1/2-y,1/2-z
1/2-x,y,1/2-z
1/2-x,1/2-y,1/2-z
1/2+x,y,1/2-z
1/2-x,1/2+y,1/2+z
1/2+x,-y,1/2+z
loop_
_atom_site_type_symbol
_atom_site_label
_atom_site_fract_x
_atom_site_fract_y
_atom_site_fract_z
Si Si1 0.693877 0.830701 0.121440
Si Si2 0.500000 0.250000 0.681777
Si Si3 0.210212 0.456001 0.844139
Si Si4 0.288194 0.079555 0.343874
Si Si5 0.714396 0.688542 0.560345
O O1 0.500000 0.814337 0.151600
O O2 0.710814 0.898503 0.122663
O O3 0.845621 0.799338 0.169739
O O4 0.716790 0.813463 0.029518
O O5 0.250000 0.455417 0.750000
O O6 0.275313 0.517694 0.872958
O O7 0.000000 0.453272 0.857007
O O8 0.500000 0.078690 0.352704
O O9 0.250000 0.084708 0.250000
O O10 0.221992 0.134261 0.390810
O O11 0.500000 0.686118 0.555581
O O12 0.761220 0.750000 0.595809
#
# Coordination Sequence:
#
# PCOD9536818 Si02
#       5
#    16   4  16  16  16
#     4  12  23  39  66  91 119 163 204 243 304 362
#     4  12  22  44  62  88 132 156 196 252 302 354
#     4  10  20  39  61  86 121 158 203 258 305 357
#     4   9  20  36  59  86 120 163 204 252 309 357
#     4  10  19  37  59  84 123 166 203 251 305 359
#
# _framework density 22.642215
#
# number of rings (size 3 to 8) (size 9 to 14) (size 15 to 20)
#    0.000    1.647    3.529    1.059    0.000    3.294 
#    0.000    5.294    0.000    0.000    0.000    0.000 
#    0.000    0.000    0.000    0.000    0.000    0.000 
#
# Total GULP energy -189612.024646 kJ/mol
# GULP energy per Si atom -5576.824254 kJ/mol
# Density = 2.259068 g / cm^3
# Si number density = 22.642215 Si / 1000 Ang^3
#
#
#
# Elastic Constant Matrix: (Units=GPa)
#
#
# Indices 1 2 3 4 5 6 
#
# 1 135.4904 45.8549 6.1499 0.0000 0.0000 0.0000
# 2 45.8549 250.3606 51.2678 0.0000 0.0000 0.0001
# 3 6.1499 51.2678 40.9056 0.0000 0.0000 0.0003
# 4 0.0000 0.0000 0.0000 44.7651 0.0000 0.0003
# 5 0.0000 0.0000 0.0000 0.0000 22.2250 0.0000
# 6 0.0000 0.0001 0.0003 0.0003 0.0000 1331.4109
#
#
#
# Elastic Compliance Matrix: (Units=1/GPa)
#
#
# Indices 1 2 3 4 5 6 
#
# 1 0.007890 -0.001617 0.000841 0.000000 0.000000 0.000000
# 2 -0.001617 0.005705 -0.006907 0.000000 0.000000 0.000000
# 3 0.000841 -0.006907 0.032977 0.000000 0.000000 0.000000
# 4 0.000000 0.000000 0.000000 0.022339 0.000000 0.000000
# 5 0.000000 0.000000 0.000000 0.000000 0.044994 0.000000
# 6 0.000000 0.000000 0.000000 0.000000 0.000000 0.000751
#
#
# Mechanical properties :
#
#
# Convention : Reuss Voigt Hill
#
# Bulk Modulus (GPa) = 32.04662 70.36687 51.20674
# Shear Modulus (GPa) = 35.60656 301.24579 168.42618
#
# Velocity S-wave (km/s) = 3.96987 11.54707 8.63408
# Velocity P-wave (km/s) = 5.93274 14.45424 11.04813
#
# Compressibility (1/GPa) = 0.03120454
#
# Stress axis : x y z
#
# Youngs Moduli (GPa) = 126.74650 175.29144 30.32457
#
# Poissons Ratio (x) = 0.28348 -0.02549
# Poissons Ratio (y) = 0.20498 0.20945
# Poissons Ratio (z) = -0.10656 1.21070
#
# Static dielectric constant tensor:
#      x y z
#    x 1.831940 0.000000 0.000000 
#    y 0.000000 1.874450 0.000000 
#    z 0.000000 0.000000 1.807780 
# 
# From -- ./inp_files/48110.got.cif
#   From: 2010.05.17/outbox.cif.g08.bks.cpg/sg74_25_cif.got.tgz:48110.got - 2010.06.03 17:57:02.
