data_PCOD9536584
_publ_section_title
;
Structure prediction by ZEFSAII (Michael W. Deem and Ramdas Pophale) SiO2 
 PCOD9536584
Probable space group: I M M A
;
_chemical_formula_sum "Si O2"
_cell_formula_units_Z 72
_cell_length_a 13.523868
_cell_length_b 13.009205
_cell_length_c 23.203948
_cell_angle_alpha 90.000000
_cell_angle_beta 90.000000
_cell_angle_gamma 90.000000
_cell_volume 4082.381282
_symmetry_space_group_name_H-M "I M M A"
_symmetry_group_IT_number 74
_symmetry_cell_setting 'orthorhombic'
loop_
_space_group_symop_operation_xyz
x,y,z
-x,1/2-y,z
x,-y,-z
-x,1/2+y,-z
-x,-y,-z
x,1/2+y,-z
-x,y,z
x,1/2-y,z
1/2+x,1/2+y,1/2+z
1/2-x,-y,1/2+z
1/2+x,1/2-y,1/2-z
1/2-x,y,1/2-z
1/2-x,1/2-y,1/2-z
1/2+x,y,1/2-z
1/2-x,1/2+y,1/2+z
1/2+x,-y,1/2+z
loop_
_atom_site_type_symbol
_atom_site_label
_atom_site_fract_x
_atom_site_fract_y
_atom_site_fract_z
Si Si1 0.207428 0.632032 0.591239
Si Si2 0.500000 0.049569 0.062023
Si Si3 0.715576 0.956958 0.184893
Si Si4 0.891598 0.369652 0.892244
Si Si5 0.500000 0.372875 0.842705
Si Si6 0.329987 0.500000 0.500000
O O1 0.236358 0.750000 0.599280
O O2 0.094414 0.618941 0.573131
O O3 0.215037 0.563810 0.649173
O O4 0.266690 0.578690 0.538978
O O5 0.500000 0.948905 0.102617
O O6 0.500000 0.000000 0.000000
O O7 0.750000 0.970600 0.250000
O O8 0.798946 0.893740 0.149209
O O9 0.606405 0.904075 0.185335
O O10 0.886974 0.250000 0.907178
O O11 0.000000 0.390250 0.864842
O O12 0.885275 0.435182 0.950933
O O13 0.500000 0.250000 0.853309
#
# Coordination Sequence:
#
# PCOD9536584 Si02
#       6
#    16   8  16  16   8   8
#     4  10  20  35  57  81 112 151 190 230 281 337
#     4  10  19  35  50  84 117 152 187 228 278 326
#     4  10  23  40  57  82 114 145 190 241 280 330
#     4  10  21  36  57  83 111 149 187 226 285 341
#     4  10  22  37  58  85 113 146 185 230 287 338
#     4  10  19  35  54  84 116 141 180 234 281 330
#
# _framework density 17.636765
#
# number of rings (size 3 to 8) (size 9 to 14) (size 15 to 20)
#    0.000    2.000    1.111    2.000    1.556    3.111 
#    0.000    0.000    0.000    6.000    0.000    0.000 
#    0.000    0.000    0.000    0.000    0.000    0.000 
#
# Total GULP energy -200513.961572 kJ/mol
# GULP energy per Si atom -5569.832266 kJ/mol
# Density = 1.759662 g / cm^3
# Si number density = 17.636765 Si / 1000 Ang^3
#
#
#
# Elastic Constant Matrix: (Units=GPa)
#
#
# Indices 1 2 3 4 5 6 
#
# 1 133.1877 45.0016 45.2357 0.0000 0.0000 0.0000
# 2 45.0016 127.4299 24.5709 0.0000 0.0000 0.0000
# 3 45.2357 24.5709 90.3834 0.0000 0.0000 0.0000
# 4 0.0000 0.0000 0.0000 3.6452 0.0000 0.0000
# 5 0.0000 0.0000 0.0000 0.0000 9.1479 0.0000
# 6 0.0000 0.0000 0.0000 0.0000 0.0000 20.5833
#
#
#
# Elastic Compliance Matrix: (Units=1/GPa)
#
#
# Indices 1 2 3 4 5 6 
#
# 1 0.009834 -0.002663 -0.004198 0.000000 0.000000 0.000000
# 2 -0.002663 0.009003 -0.001114 0.000000 0.000000 0.000000
# 3 -0.004198 -0.001114 0.013468 0.000000 0.000000 0.000000
# 4 0.000000 0.000000 0.000000 0.274333 0.000000 0.000000
# 5 0.000000 0.000000 0.000000 0.000000 0.109315 0.000000
# 6 0.000000 0.000000 0.000000 0.000000 0.000000 0.048583
#
#
# Mechanical properties :
#
#
# Convention : Reuss Voigt Hill
#
# Bulk Modulus (GPa) = 61.14891 64.51305 62.83098
# Shear Modulus (GPa) = 10.28939 22.42147 16.35543
#
# Velocity S-wave (km/s) = 2.41800 3.56939 3.04854
# Velocity P-wave (km/s) = 6.52244 7.32431 6.93497
#
# Compressibility (1/GPa) = 0.01635352
#
# Stress axis : x y z
#
# Youngs Moduli (GPa) = 101.69016 111.07517 74.25116
#
# Poissons Ratio (x) = 0.29584 0.31168
# Poissons Ratio (y) = 0.27084 0.08275
# Poissons Ratio (z) = 0.42686 0.12379
#
# Static dielectric constant tensor:
#      x y z
#    x 1.645280 0.000000 0.000000 
#    y 0.000000 1.582000 0.000000 
#    z 0.000000 0.000000 1.569580 
# 
# From -- ./inp_files/59673.got.cif
#   From: 2010.05.17/outbox.cif.g08.bks.cpg/sg74_30_cif.got.tgz:59673.got - 2010.06.03 17:57:02.
