data_PCOD9537088
_publ_section_title
;
Structure prediction by ZEFSAII (Michael W. Deem and Ramdas Pophale) SiO2 
 PCOD9537088
Probable space group: I M M A
;
_chemical_formula_sum "Si O2"
_cell_formula_units_Z 112
_cell_length_a 17.533232
_cell_length_b 14.617185
_cell_length_c 26.574051
_cell_angle_alpha 90.000000
_cell_angle_beta 90.000000
_cell_angle_gamma 90.000000
_cell_volume 6810.570410
_symmetry_space_group_name_H-M "I M M A"
_symmetry_group_IT_number 74
_symmetry_cell_setting 'orthorhombic'
loop_
_space_group_symop_operation_xyz
x,y,z
-x,1/2-y,z
x,-y,-z
-x,1/2+y,-z
-x,-y,-z
x,1/2+y,-z
-x,y,z
x,1/2-y,z
1/2+x,1/2+y,1/2+z
1/2-x,-y,1/2+z
1/2+x,1/2-y,1/2-z
1/2-x,y,1/2-z
1/2-x,1/2-y,1/2-z
1/2+x,y,1/2-z
1/2-x,1/2+y,1/2+z
1/2+x,-y,1/2+z
loop_
_atom_site_type_symbol
_atom_site_label
_atom_site_fract_x
_atom_site_fract_y
_atom_site_fract_z
Si Si1 0.589434 1.000000 0.337972
Si Si2 0.709002 0.642642 0.698799
Si Si3 0.588525 0.500000 0.060569
Si Si4 0.209002 0.142642 0.801201
Si Si5 0.288527 0.357697 0.907392
Si Si6 0.711474 0.857697 0.907392
Si Si7 0.666391 0.500000 0.555867
O O1 0.500000 0.000000 0.328887
O O2 0.633603 0.086135 0.314103
O O3 0.608029 0.999999 0.397757
O O4 0.633603 0.913864 0.314103
O O5 0.691381 0.750000 0.703337
O O6 0.750000 0.612592 0.750000
O O7 0.765452 0.631071 0.651200
O O8 0.500000 0.500000 0.075013
O O9 0.634028 0.588584 0.080512
O O10 0.634029 0.411418 0.080512
O O11 0.593669 0.500000 0.000000
O O12 0.191383 0.250000 0.796666
O O13 0.250000 0.112594 0.750000
O O14 0.265452 0.131067 0.848800
O O15 0.291416 0.250000 0.919212
O O16 0.222016 0.412280 0.936906
O O17 0.708583 0.750000 0.919213
O O18 0.777985 0.912280 0.936906
O O19 0.633223 0.500000 0.500000
#
# Coordination Sequence:
#
# PCOD9537088 Si02
#       7
#    16  16  16  16  16  16  16
#     4  10  20  32  49  74 101 128 155 189 237 283
#     4   9  18  34  54  73  95 125 160 195 231 275
#     4  10  21  33  44  65  97 126 154 195 244 287
#     4   9  18  34  54  73  95 125 160 195 231 275
#     4   9  17  31  51  70  90 121 160 198 233 275
#     4   9  17  31  51  70  90 121 160 198 233 275
#     4   9  18  31  47  70  96 122 159 198 228 272
#
# _framework density 16.445025000000001
#
# number of rings (size 3 to 8) (size 9 to 14) (size 15 to 20)
#    0.000    2.714    0.000    3.000    0.000    3.714 
#    0.000    4.286    0.000    5.143    0.000    8.000 
#    0.000    0.000    0.000    0.000    0.000    0.000 
#
# Total GULP energy -312173.690680 kJ/mol
# GULP energy per Si atom -5574.530191 kJ/mol
# Density = 1.640760 g / cm^3
# Si number density = 16.445025 Si / 1000 Ang^3
#
#
#
# Elastic Constant Matrix: (Units=GPa)
#
#
# Indices 1 2 3 4 5 6 
#
# 1 134.4849 62.4990 47.7507 0.0000 0.0000 0.0000
# 2 62.4990 123.3943 42.7288 0.0000 0.0000 0.0000
# 3 47.7507 42.7288 104.3099 0.0000 0.0000 0.0000
# 4 0.0000 0.0000 0.0000 -41.9722 0.0000 0.0000
# 5 0.0000 0.0000 0.0000 0.0000 7.9829 0.0000
# 6 0.0000 0.0000 0.0000 0.0000 0.0000 -58.9923
#
#
#
# Elastic Compliance Matrix: (Units=1/GPa)
#
#
# Indices 1 2 3 4 5 6 
#
# 1 0.010503 -0.004259 -0.003063 0.000000 0.000000 0.000000
# 2 -0.004259 0.011171 -0.002626 0.000000 0.000000 0.000000
# 3 -0.003063 -0.002626 0.012065 0.000000 0.000000 0.000000
# 4 0.000000 0.000000 0.000000 -0.023825 0.000000 0.000000
# 5 0.000000 0.000000 0.000000 0.000000 0.125268 0.000000
# 6 0.000000 0.000000 0.000000 0.000000 0.000000 -0.016951
#
#
# Mechanical properties :
#
#
# Convention : Reuss Voigt Hill
#
# Bulk Modulus (GPa) = 72.24703 74.23845 73.24274
# Shear Modulus (GPa) = 35.02878 -4.64895 15.18991
#
# Velocity S-wave (km/s) = 4.62026 -1.68318 3.04250
# Velocity P-wave (km/s) = 8.51412 6.43925 7.54832
#
# Compressibility (1/GPa) = 0.01384140
#
# Stress axis : x y z
#
# Youngs Moduli (GPa) = 95.21407 89.52066 82.88474
#
# Poissons Ratio (x) = 0.38125 0.25390
# Poissons Ratio (y) = 0.40550 0.21768
# Poissons Ratio (z) = 0.29167 0.23510
#
# Static dielectric constant tensor:
#      x y z
#    x 1.507880 0.000000 0.000000 
#    y 0.000000 1.562650 0.000000 
#    z 0.000000 0.000000 1.566490 
# 
# From -- ./inp_files/67168.got.cif
#   From: 2010.05.17/outbox.cif.g08.bks.cpg/sg74_34_cif.got.tgz:67168.got - 2010.06.03 17:57:02.
