data_PCOD9537157
_publ_section_title
;
Structure prediction by ZEFSAII (Michael W. Deem and Ramdas Pophale) SiO2 
 PCOD9537157
Probable space group: I M M A
;
_chemical_formula_sum "Si O2"
_cell_formula_units_Z 56
_cell_length_a 18.689752
_cell_length_b 19.959195
_cell_length_c 7.246575
_cell_angle_alpha 90.000000
_cell_angle_beta 90.000000
_cell_angle_gamma 90.000000
_cell_volume 2703.207298
_symmetry_space_group_name_H-M "I M M A"
_symmetry_group_IT_number 74
_symmetry_cell_setting 'orthorhombic'
loop_
_space_group_symop_operation_xyz
x,y,z
-x,1/2-y,z
x,-y,-z
-x,1/2+y,-z
-x,-y,-z
x,1/2+y,-z
-x,y,z
x,1/2-y,z
1/2+x,1/2+y,1/2+z
1/2-x,-y,1/2+z
1/2+x,1/2-y,1/2-z
1/2-x,y,1/2-z
1/2-x,1/2-y,1/2-z
1/2+x,y,1/2-z
1/2-x,1/2+y,1/2+z
1/2+x,-y,1/2+z
loop_
_atom_site_type_symbol
_atom_site_label
_atom_site_fract_x
_atom_site_fract_y
_atom_site_fract_z
Si Si1 0.578989 0.028543 0.294459
Si Si2 0.754572 0.647386 0.465456
Si Si3 0.698081 0.000000 0.000000
Si Si4 0.371882 0.322725 0.258205
O O1 0.500000 0.007880 0.225687
O O2 0.583921 0.109395 0.284891
O O3 0.585373 0.000000 0.500000
O O4 0.644375 0.001685 0.173234
O O5 0.750000 0.663550 0.250000
O O6 0.756017 0.567037 0.492548
O O7 0.688229 0.674864 0.581352
O O8 0.827006 0.671091 0.567071
O O9 0.408040 0.250000 0.263713
#
# Coordination Sequence:
#
# PCOD9537157 Si02
#       4
#    16  16   8  16
#     4  10  21  38  58  79 108 145 189 234 275 323
#     4  10  20  32  54  80 113 146 176 223 282 331
#     4  10  21  32  56  84 109 142 184 228 278 328
#     4  10  22  36  52  81 114 144 186 226 273 340
#
# _framework density 20.716132000000002
#
# number of rings (size 3 to 8) (size 9 to 14) (size 15 to 20)
#    0.000    2.000    0.000    3.857   10.000    2.857 
#    0.000    0.000    0.000    0.000    0.000    8.000 
#    0.000    0.000    0.000    0.000    0.000    0.000 
#
# Total GULP energy -156502.960852 kJ/mol
# GULP energy per Si atom -5589.391459 kJ/mol
# Density = 2.066898 g / cm^3
# Si number density = 20.716132 Si / 1000 Ang^3
#
#
#
# Elastic Constant Matrix: (Units=GPa)
#
#
# Indices 1 2 3 4 5 6 
#
# 1 54.3604 5.9627 25.8884 0.0000 0.0000 0.0000
# 2 5.9627 122.7460 10.9803 0.0000 0.0000 0.0000
# 3 25.8884 10.9803 157.5798 0.0000 0.0000 0.0000
# 4 0.0000 0.0000 0.0000 14.3090 0.0000 0.0000
# 5 0.0000 0.0000 0.0000 0.0000 -30.9411 0.0000
# 6 0.0000 0.0000 0.0000 0.0000 0.0000 8.0200
#
#
#
# Elastic Compliance Matrix: (Units=1/GPa)
#
#
# Indices 1 2 3 4 5 6 
#
# 1 0.020014 -0.000682 -0.003240 0.000000 0.000000 0.000000
# 2 -0.000682 0.008221 -0.000461 0.000000 0.000000 0.000000
# 3 -0.003240 -0.000461 0.006910 0.000000 0.000000 0.000000
# 4 0.000000 0.000000 0.000000 0.069886 0.000000 0.000000
# 5 0.000000 0.000000 0.000000 0.000000 -0.032319 0.000000
# 6 0.000000 0.000000 0.000000 0.000000 0.000000 0.124688
#
#
# Mechanical properties :
#
#
# Convention : Reuss Voigt Hill
#
# Bulk Modulus (GPa) = 37.90984 46.70546 42.30765
# Shear Modulus (GPa) = 23.26011 17.73455 20.49733
#
# Velocity S-wave (km/s) = 3.35446 2.92905 3.14895
# Velocity P-wave (km/s) = 5.77430 5.83382 5.80414
#
# Compressibility (1/GPa) = 0.02637838
#
# Stress axis : x y z
#
# Youngs Moduli (GPa) = 49.96550 121.63573 144.70794
#
# Poissons Ratio (x) = 0.08300 0.46892
# Poissons Ratio (y) = 0.03409 0.06668
# Poissons Ratio (z) = 0.16191 0.05605
#
# Static dielectric constant tensor:
#      x y z
#    x 1.709430 0.000000 0.000000 
#    y 0.000000 1.763570 0.000000 
#    z 0.000000 0.000000 1.734540 
# 
# From -- ./inp_files/3517.got.cif
#   From: 2010.05.17/outbox.cif.g08.bks.cpg/sg74_2_cif.got.tgz:3517.got - 2010.06.03 17:57:02.
