data_PCOD9537114
_publ_section_title
;
Structure prediction by ZEFSAII (Michael W. Deem and Ramdas Pophale) SiO2 
 PCOD9537114
Probable space group: I M M A
;
_chemical_formula_sum "Si O2"
_cell_formula_units_Z 64
_cell_length_a 8.007126
_cell_length_b 7.407799
_cell_length_c 49.534945
_cell_angle_alpha 90.000000
_cell_angle_beta 90.000000
_cell_angle_gamma 90.000000
_cell_volume 2938.174178
_symmetry_space_group_name_H-M "I M M A"
_symmetry_group_IT_number 74
_symmetry_cell_setting 'orthorhombic'
loop_
_space_group_symop_operation_xyz
x,y,z
-x,1/2-y,z
x,-y,-z
-x,1/2+y,-z
-x,-y,-z
x,1/2+y,-z
-x,y,z
x,1/2-y,z
1/2+x,1/2+y,1/2+z
1/2-x,-y,1/2+z
1/2+x,1/2-y,1/2-z
1/2-x,y,1/2-z
1/2-x,1/2-y,1/2-z
1/2+x,y,1/2-z
1/2-x,1/2+y,1/2+z
1/2+x,-y,1/2+z
loop_
_atom_site_type_symbol
_atom_site_label
_atom_site_fract_x
_atom_site_fract_y
_atom_site_fract_z
Si Si1 0.808814 0.034620 0.529610
Si Si2 0.316951 0.029233 0.587166
Si Si3 0.000000 0.465016 0.315520
Si Si4 0.309729 0.029838 0.280043
Si Si5 0.500000 0.533944 0.121074
O O1 0.818563 0.250000 0.532203
O O2 0.714747 0.970758 0.556243
O O3 0.000000 0.964277 0.529819
O O4 0.735136 0.000000 0.500000
O O5 0.500000 0.971813 0.596347
O O6 0.315525 0.250000 0.587338
O O7 0.165713 0.967200 0.605931
O O8 0.168927 0.532541 0.301107
O O9 0.000000 0.496655 0.347310
O O10 0.000000 0.250000 0.311058
O O11 0.500000 0.969963 0.285135
O O12 0.312847 0.250000 0.280648
O O13 0.250000 0.978841 0.250000
O O14 0.500000 0.750000 0.117686
#
# Coordination Sequence:
#
# PCOD9537114 Si02
#       5
#    16  16   8  16   8
#     4   9  16  28  47  71  96 121 154 197 244 290
#     4   9  17  31  52  72  91 125 170 206 234 280
#     4  10  20  32  50  77 103 126 157 202 246 280
#     4   9  15  26  47  75 102 127 158 193 231 281
#     4  10  20  36  53  69  95 130 170 204 236 282
#
# _framework density 21.782235
#
# number of rings (size 3 to 8) (size 9 to 14) (size 15 to 20)
#    0.000    2.750    2.500    0.000    0.000    1.500 
#    0.000    1.250    0.000    2.250    0.000    0.000 
#    0.000    0.000    0.000    0.000    0.000    0.000 
#
# Total GULP energy -178665.532948 kJ/mol
# GULP energy per Si atom -5583.297905 kJ/mol
# Density = 2.173266 g / cm^3
# Si number density = 21.782235 Si / 1000 Ang^3
#
#
#
# Elastic Constant Matrix: (Units=GPa)
#
#
# Indices 1 2 3 4 5 6 
#
# 1 231.8030 8.4336 127.9953 0.0000 0.0000 0.0000
# 2 8.4336 70.5150 -3.7327 0.0000 0.0000 0.0000
# 3 127.9953 -3.7327 185.5317 0.0000 0.0000 0.0000
# 4 0.0000 0.0000 0.0000 41.6427 0.0000 0.0000
# 5 0.0000 0.0000 0.0000 0.0000 -14.6900 0.0000
# 6 0.0000 0.0000 0.0000 0.0000 0.0000 -2.8133
#
#
#
# Elastic Compliance Matrix: (Units=1/GPa)
#
#
# Indices 1 2 3 4 5 6 
#
# 1 0.007053 -0.001102 -0.004888 0.000000 0.000000 0.000000
# 2 -0.001102 0.014369 0.001050 0.000000 0.000000 0.000000
# 3 -0.004888 0.001050 0.008783 0.000000 0.000000 0.000000
# 4 0.000000 0.000000 0.000000 0.024014 0.000000 0.000000
# 5 0.000000 0.000000 0.000000 0.000000 -0.068074 0.000000
# 6 0.000000 0.000000 0.000000 0.000000 0.000000 -0.355458
#
#
# Mechanical properties :
#
#
# Convention : Reuss Voigt Hill
#
# Bulk Modulus (GPa) = 49.20404 83.69358 66.44881
# Shear Modulus (GPa) = -14.17812 28.50478 7.16333
#
# Velocity S-wave (km/s) = -2.55405 3.62142 1.81542
# Velocity P-wave (km/s) = 3.73371 7.48281 5.91325
#
# Compressibility (1/GPa) = 0.02032354
#
# Stress axis : x y z
#
# Youngs Moduli (GPa) = 141.78065 69.59540 113.85371
#
# Poissons Ratio (x) = 0.07672 0.55652
# Poissons Ratio (y) = 0.15629 -0.11949
# Poissons Ratio (z) = 0.69303 -0.07304
#
# Static dielectric constant tensor:
#      x y z
#    x 1.788400 0.000000 0.000000 
#    y 0.000000 1.836560 0.000000 
#    z 0.000000 0.000000 1.747450 
# 
# From -- ./inp_files/69799.got.cif
#   From: 2010.05.17/outbox.cif.g08.bks.cpg/sg74_35_cif.got.tgz:69799.got - 2010.06.03 17:57:02.
