data_PCOD9537307
_publ_section_title
;
Structure prediction by ZEFSAII (Michael W. Deem and Ramdas Pophale) SiO2 
 PCOD9537307
Probable space group: I M M A
;
_chemical_formula_sum "Si O2"
_cell_formula_units_Z 80
_cell_length_a 17.898486
_cell_length_b 10.312337
_cell_length_c 25.230810
_cell_angle_alpha 90.000000
_cell_angle_beta 90.000000
_cell_angle_gamma 90.000000
_cell_volume 4656.982292
_symmetry_space_group_name_H-M "I M M A"
_symmetry_group_IT_number 74
_symmetry_cell_setting 'orthorhombic'
loop_
_space_group_symop_operation_xyz
x,y,z
-x,1/2-y,z
x,-y,-z
-x,1/2+y,-z
-x,-y,-z
x,1/2+y,-z
-x,y,z
x,1/2-y,z
1/2+x,1/2+y,1/2+z
1/2-x,-y,1/2+z
1/2+x,1/2-y,1/2-z
1/2-x,y,1/2-z
1/2-x,1/2-y,1/2-z
1/2+x,y,1/2-z
1/2-x,1/2+y,1/2+z
1/2+x,-y,1/2+z
loop_
_atom_site_type_symbol
_atom_site_label
_atom_site_fract_x
_atom_site_fract_y
_atom_site_fract_z
Si Si1 0.864864 0.997291 0.062748
Si Si2 0.271221 0.750000 0.689210
Si Si3 0.214425 0.003901 0.375642
Si Si4 0.085164 0.750000 0.873723
Si Si5 0.415465 0.250000 0.627765
Si Si6 0.588730 0.597435 0.950876
Si Si7 0.241375 0.750000 0.186716
O O1 0.777181 0.990992 0.078291
O O2 0.896964 0.125476 0.090325
O O3 0.903438 0.874965 0.090639
O O4 0.875293 0.000000 0.000000
O O5 0.250000 0.750000 0.750000
O O6 0.238627 0.876275 0.660748
O O7 0.359153 0.750000 0.676057
O O8 0.136567 0.040085 0.402641
O O9 0.220711 0.875252 0.340373
O O10 0.000000 0.750000 0.856963
O O11 0.500000 0.250000 0.649713
O O12 0.346719 0.250000 0.669655
O O13 0.500000 0.595203 0.940390
O O14 0.609436 0.750000 0.960784
O O15 0.602644 0.500000 0.000000
O O16 0.250000 0.750000 0.250000
#
# Coordination Sequence:
#
# PCOD9537307 Si02
#       7
#    16   8  16   8   8  16   8
#     4  10  20  33  52  78 109 144 177 210 262 325
#     4  10  20  37  59  75 101 145 186 231 289 325
#     4  10  20  37  56  81 111 143 189 235 273 339
#     4  10  21  34  50  77 108 134 172 222 263 319
#     4  10  21  36  54  77 108 144 180 224 271 319
#     4  10  21  37  58  86 120 154 186 229 290 351
#     4  10  22  39  59  81 109 147 194 239 287 335
#
# _framework density 17.178507
#
# number of rings (size 3 to 8) (size 9 to 14) (size 15 to 20)
#    0.000    2.000    1.000    2.400    1.400    2.400 
#    3.600    2.000    0.000    0.000    0.000    0.000 
#    0.000    0.000    0.000    0.000    0.000    0.000 
#
# Total GULP energy -223194.798877 kJ/mol
# GULP energy per Si atom -5579.869972 kJ/mol
# Density = 1.713941 g / cm^3
# Si number density = 17.178507 Si / 1000 Ang^3
#
#
#
# Elastic Constant Matrix: (Units=GPa)
#
#
# Indices 1 2 3 4 5 6 
#
# 1 87.0396 52.5312 76.8037 0.0000 0.0000 0.0000
# 2 52.5312 165.6162 57.6498 0.0000 0.0000 0.0000
# 3 76.8037 57.6498 130.5416 0.0000 0.0000 0.0000
# 4 0.0000 0.0000 0.0000 26.6804 0.0000 0.0000
# 5 0.0000 0.0000 0.0000 0.0000 11.0666 0.0000
# 6 0.0000 0.0000 0.0000 0.0000 0.0000 35.5234
#
#
#
# Elastic Compliance Matrix: (Units=1/GPa)
#
#
# Indices 1 2 3 4 5 6 
#
# 1 0.025393 -0.003372 -0.013451 0.000000 0.000000 0.000000
# 2 -0.003372 0.007583 -0.001365 0.000000 0.000000 0.000000
# 3 -0.013451 -0.001365 0.016177 0.000000 0.000000 0.000000
# 4 0.000000 0.000000 0.000000 0.037481 0.000000 0.000000
# 5 0.000000 0.000000 0.000000 0.000000 0.090362 0.000000
# 6 0.000000 0.000000 0.000000 0.000000 0.000000 0.028150
#
#
# Mechanical properties :
#
#
# Convention : Reuss Voigt Hill
#
# Bulk Modulus (GPa) = 78.26321 84.12963 81.19642
# Shear Modulus (GPa) = 20.34337 27.73493 24.03915
#
# Velocity S-wave (km/s) = 3.44500 4.02246 3.74488
# Velocity P-wave (km/s) = 7.84103 8.40557 8.12821
#
# Compressibility (1/GPa) = 0.01277740
#
# Stress axis : x y z
#
# Youngs Moduli (GPa) = 39.38060 131.87897 61.81722
#
# Poissons Ratio (x) = 0.44473 0.83149
# Poissons Ratio (y) = 0.13280 0.08436
# Poissons Ratio (z) = 0.52970 0.17996
#
# Static dielectric constant tensor:
#      x y z
#    x 1.596650 0.000000 0.000000 
#    y 0.000000 1.596910 0.000000 
#    z 0.000000 0.000000 1.535300 
# 
# From -- ./inp_files/67599.got.cif
#   From: 2010.05.17/outbox.cif.g08.bks.cpg/sg74_34_cif.got.tgz:67599.got - 2010.06.03 17:57:02.
