data_PCOD9537953
_publ_section_title
;
Structure prediction by ZEFSAII (Michael W. Deem and Ramdas Pophale) SiO2 
 PCOD9537953
Probable space group: I M M A
;
_chemical_formula_sum "Si O2"
_cell_formula_units_Z 116
_cell_length_a 15.160030
_cell_length_b 18.581689
_cell_length_c 17.680274
_cell_angle_alpha 90.000000
_cell_angle_beta 90.000000
_cell_angle_gamma 90.000000
_cell_volume 4980.514846
_symmetry_space_group_name_H-M "I M M A"
_symmetry_group_IT_number 74
_symmetry_cell_setting 'orthorhombic'
loop_
_space_group_symop_operation_xyz
x,y,z
-x,1/2-y,z
x,-y,-z
-x,1/2+y,-z
-x,-y,-z
x,1/2+y,-z
-x,y,z
x,1/2-y,z
1/2+x,1/2+y,1/2+z
1/2-x,-y,1/2+z
1/2+x,1/2-y,1/2-z
1/2-x,y,1/2-z
1/2-x,1/2-y,1/2-z
1/2+x,y,1/2-z
1/2-x,1/2+y,1/2+z
1/2+x,-y,1/2+z
loop_
_atom_site_type_symbol
_atom_site_label
_atom_site_fract_x
_atom_site_fract_y
_atom_site_fract_z
Si Si1 0.394823 0.074136 0.532574
Si Si2 0.893551 0.917596 0.485700
Si Si3 0.343602 0.333798 0.135926
Si Si4 0.000000 0.250000 0.172388
Si Si5 0.101174 0.387087 0.678621
Si Si6 0.138386 0.133712 0.125045
Si Si7 0.391768 0.329621 0.666897
Si Si8 0.855652 0.961994 0.748001
O O1 0.500000 0.064280 0.542203
O O2 0.380417 0.129539 0.463658
O O3 0.360342 0.108876 0.609637
O O4 0.355848 0.000000 0.500000
O O5 0.870310 0.864751 0.554083
O O6 0.858918 0.889437 0.404940
O O7 0.000000 0.921260 0.480701
O O8 0.863021 0.000000 0.500000
O O9 0.369761 0.250000 0.147259
O O10 0.238097 0.342125 0.139948
O O11 0.377585 0.392066 0.196797
O O12 0.075416 0.188724 0.164708
O O13 0.140245 0.341927 0.747607
O O14 0.101956 0.468519 0.710741
O O15 0.000000 0.362343 0.669589
O O16 0.119858 0.057291 0.166034
O O17 0.500000 0.333459 0.668397
O O18 0.368299 0.250000 0.639721
O O19 0.750000 0.972886 0.750000
#
# Coordination Sequence:
#
# PCOD9537953 Si02
#       8
#    16  16  16   4  16  16  16  16
#     4  10  20  35  56  86 123 160 210 258 306 374
#     4  10  21  41  66  92 120 162 214 270 328 390
#     4  11  24  42  62  90 128 167 211 260 326 387
#     4  12  24  40  60  96 130 172 216 260 314 380
#     4  10  20  39  66  91 122 158 212 268 324 384
#     4  11  24  39  62  89 128 172 212 257 320 383
#     4   9  19  33  56  87 122 162 200 252 319 377
#     4  10  23  40  61  88 127 170 209 259 322 389
#
# _framework density 23.290765
#
# number of rings (size 3 to 8) (size 9 to 14) (size 15 to 20)
#    0.000    1.793    2.759    0.828    2.897    3.310 
#    2.483    1.379    0.000    0.414    0.000    0.000 
#    0.000    0.000    0.000    0.000    0.000    0.000 
#
# Total GULP energy -323665.221536 kJ/mol
# GULP energy per Si atom -5580.434854 kJ/mol
# Density = 2.323775 g / cm^3
# Si number density = 23.290765 Si / 1000 Ang^3
#
#
#
# Elastic Constant Matrix: (Units=GPa)
#
#
# Indices 1 2 3 4 5 6 
#
# 1 46.0548 -5.5094 -1.5484 0.0000 0.0000 0.0000
# 2 -5.5094 98.1842 17.6550 0.0000 0.0000 0.0000
# 3 -1.5484 17.6550 130.7682 0.0000 0.0000 0.0000
# 4 0.0000 0.0000 0.0000 13.4157 0.0000 0.0000
# 5 0.0000 0.0000 0.0000 0.0000 9.2121 0.0000
# 6 0.0000 0.0000 0.0000 0.0000 0.0000 23.7254
#
#
#
# Elastic Compliance Matrix: (Units=1/GPa)
#
#
# Indices 1 2 3 4 5 6 
#
# 1 0.021861 0.001210 0.000096 0.000000 0.000000 0.000000
# 2 0.001210 0.010505 -0.001404 0.000000 0.000000 0.000000
# 3 0.000096 -0.001404 0.007838 0.000000 0.000000 0.000000
# 4 0.000000 0.000000 0.000000 0.074540 0.000000 0.000000
# 5 0.000000 0.000000 0.000000 0.000000 0.108553 0.000000
# 6 0.000000 0.000000 0.000000 0.000000 0.000000 0.042149
#
#
# Mechanical properties :
#
#
# Convention : Reuss Voigt Hill
#
# Bulk Modulus (GPa) = 24.99600 32.91129 28.95365
# Shear Modulus (GPa) = 17.92250 26.89796 22.41023
#
# Velocity S-wave (km/s) = 2.77702 3.40203 3.10529
# Velocity P-wave (km/s) = 4.58671 5.43995 5.03145
#
# Compressibility (1/GPa) = 0.04000640
#
# Stress axis : x y z
#
# Youngs Moduli (GPa) = 45.74320 95.19029 127.58680
#
# Poissons Ratio (x) = -0.11513 -0.01219
# Poissons Ratio (y) = -0.05533 0.17913
# Poissons Ratio (z) = -0.00437 0.13365
#
# Static dielectric constant tensor:
#      x y z
#    x 1.872200 0.000000 0.000000 
#    y 0.000000 1.866060 0.000000 
#    z 0.000000 0.000000 1.899970 
# 
# From -- ./inp_files/44285.got.cif
#   From: 2010.05.17/outbox.cif.g08.bks.cpg/sg74_23_cif.got.tgz:44285.got - 2010.06.03 17:57:02.
