data_PCOD9537204
_publ_section_title
;
Structure prediction by ZEFSAII (Michael W. Deem and Ramdas Pophale) SiO2 
 PCOD9537204
Probable space group: I M M A
;
_chemical_formula_sum "Si O2"
_cell_formula_units_Z 92
_cell_length_a 7.621119
_cell_length_b 22.528184
_cell_length_c 28.323463
_cell_angle_alpha 90.000000
_cell_angle_beta 90.000000
_cell_angle_gamma 90.000000
_cell_volume 4862.854544
_symmetry_space_group_name_H-M "I M M A"
_symmetry_group_IT_number 74
_symmetry_cell_setting 'orthorhombic'
loop_
_space_group_symop_operation_xyz
x,y,z
-x,1/2-y,z
x,-y,-z
-x,1/2+y,-z
-x,-y,-z
x,1/2+y,-z
-x,y,z
x,1/2-y,z
1/2+x,1/2+y,1/2+z
1/2-x,-y,1/2+z
1/2+x,1/2-y,1/2-z
1/2-x,y,1/2-z
1/2-x,1/2-y,1/2-z
1/2+x,y,1/2-z
1/2-x,1/2+y,1/2+z
1/2+x,-y,1/2+z
loop_
_atom_site_type_symbol
_atom_site_label
_atom_site_fract_x
_atom_site_fract_y
_atom_site_fract_z
Si Si1 0.500000 0.750000 0.484657
Si Si2 0.290737 0.053931 0.898010
Si Si3 0.210593 0.250000 0.305340
Si Si4 0.210143 0.003867 0.303203
Si Si5 0.786789 0.625936 0.652533
Si Si6 0.797805 0.930581 0.946629
Si Si7 0.202097 0.850560 0.469657
O O1 0.343714 0.801509 0.483480
O O2 0.500000 0.059708 0.894483
O O3 0.232053 0.113938 0.923182
O O4 0.221669 0.037350 0.845851
O O5 0.256126 0.996386 0.930568
O O6 0.250000 0.250000 0.250000
O O7 0.276403 0.189447 0.329175
O O8 0.000000 0.250000 0.310809
O O9 0.250000 0.985801 0.250000
O O10 0.271336 0.071219 0.314186
O O11 0.000000 0.005056 0.307682
O O12 0.726349 0.609775 0.600065
O O13 0.000000 0.626463 0.652198
O O14 0.000000 0.932614 0.960420
O O15 0.696890 0.900151 0.989164
O O16 0.000000 0.829152 0.463048
#
# Coordination Sequence:
#
# PCOD9537204 Si02
#       7
#     4  16   8  16  16  16  16
#     4  12  26  42  58  90 114 150 208 240 272 356
#     4   9  20  37  59  85 116 154 192 227 297 363
#     4  10  20  33  50  68  94 141 199 243 284 334
#     4   9  17  31  50  78 113 141 181 233 290 354
#     4   9  19  34  48  69 105 151 195 235 290 349
#     4  11  21  34  56  87 116 147 193 249 291 345
#     4  11  23  42  63  84 121 158 191 241 296 344
#
# _framework density 18.91893
#
# number of rings (size 3 to 8) (size 9 to 14) (size 15 to 20)
#    0.000    2.087    0.870    3.913    1.217    6.261 
#    0.000    1.739    0.000    0.000    0.000    0.609 
#    0.000    0.000    0.000    0.000    0.000    0.000 
#
# Total GULP energy -256195.569981 kJ/mol
# GULP energy per Si atom -5569.468913 kJ/mol
# Density = 1.887587 g / cm^3
# Si number density = 18.918930 Si / 1000 Ang^3
#
#
#
# Elastic Constant Matrix: (Units=GPa)
#
#
# Indices 1 2 3 4 5 6 
#
# 1 50.4265 1.0166 12.8286 0.0000 0.0000 0.0000
# 2 1.0166 31.4450 30.2264 0.0000 0.0000 0.0000
# 3 12.8286 30.2264 75.6165 0.0000 0.0000 0.0000
# 4 0.0000 0.0000 0.0000 7.1591 0.0000 0.0000
# 5 0.0000 0.0000 0.0000 0.0000 19.6945 0.0000
# 6 0.0000 0.0000 0.0000 0.0000 0.0000 21.7441
#
#
#
# Elastic Compliance Matrix: (Units=1/GPa)
#
#
# Indices 1 2 3 4 5 6 
#
# 1 0.021107 0.004482 -0.005372 0.000000 0.000000 0.000000
# 2 0.004482 0.052598 -0.021785 0.000000 0.000000 0.000000
# 3 -0.005372 -0.021785 0.022844 0.000000 0.000000 0.000000
# 4 0.000000 0.000000 0.000000 0.139682 0.000000 0.000000
# 5 0.000000 0.000000 0.000000 0.000000 0.050775 0.000000
# 6 0.000000 0.000000 0.000000 0.000000 0.000000 0.045989
#
#
# Mechanical properties :
#
#
# Convention : Reuss Voigt Hill
#
# Bulk Modulus (GPa) = 19.53224 27.29235 23.41230
# Shear Modulus (GPa) = 12.64497 17.28065 14.96281
#
# Velocity S-wave (km/s) = 2.58810 3.02554 2.81533
# Velocity P-wave (km/s) = 4.39063 5.16357 4.79271
#
# Compressibility (1/GPa) = 0.05119740
#
# Stress axis : x y z
#
# Youngs Moduli (GPa) = 47.37715 19.01218 43.77430
#
# Poissons Ratio (x) = -0.08521 0.23517
# Poissons Ratio (y) = -0.21234 0.95364
# Poissons Ratio (z) = 0.25453 0.41419
#
# Static dielectric constant tensor:
#      x y z
#    x 1.741840 0.000000 0.000000 
#    y 0.000000 1.659070 0.000000 
#    z 0.000000 0.000000 1.675490 
# 
# From -- ./inp_files/64390.got.cif
#   From: 2010.05.17/outbox.cif.g08.bks.cpg/sg74_33_cif.got.tgz:64390.got - 2010.06.03 17:57:02.
