data_PCOD9537790
_publ_section_title
;
Structure prediction by ZEFSAII (Michael W. Deem and Ramdas Pophale) SiO2 
 PCOD9537790
Probable space group: I M M A
;
_chemical_formula_sum "Si O2"
_cell_formula_units_Z 64
_cell_length_a 8.663149
_cell_length_b 19.495799
_cell_length_c 23.726722
_cell_angle_alpha 90.000000
_cell_angle_beta 90.000000
_cell_angle_gamma 90.000000
_cell_volume 4007.324988
_symmetry_space_group_name_H-M "I M M A"
_symmetry_group_IT_number 74
_symmetry_cell_setting 'orthorhombic'
loop_
_space_group_symop_operation_xyz
x,y,z
-x,1/2-y,z
x,-y,-z
-x,1/2+y,-z
-x,-y,-z
x,1/2+y,-z
-x,y,z
x,1/2-y,z
1/2+x,1/2+y,1/2+z
1/2-x,-y,1/2+z
1/2+x,1/2-y,1/2-z
1/2-x,y,1/2-z
1/2-x,1/2-y,1/2-z
1/2+x,y,1/2-z
1/2-x,1/2+y,1/2+z
1/2+x,-y,1/2+z
loop_
_atom_site_type_symbol
_atom_site_label
_atom_site_fract_x
_atom_site_fract_y
_atom_site_fract_z
Si Si1 0.184437 0.250000 0.502443
Si Si2 0.815184 0.479380 0.583495
Si Si3 0.315458 0.750000 0.370434
Si Si4 0.315169 0.886145 0.188070
Si Si5 0.815546 0.894971 0.977790
O O1 0.243300 0.250000 0.567130
O O2 0.248578 0.318867 0.474019
O O3 0.000000 0.250000 0.502315
O O4 0.780753 0.447295 0.644230
O O5 0.743377 0.553367 0.570425
O O6 0.747210 0.428406 0.535966
O O7 0.000000 0.482369 0.576168
O O8 0.258831 0.817156 0.337330
O O9 0.000000 0.750000 0.124920
O O10 0.500000 0.877271 0.190222
O O11 0.250000 0.898997 0.250000
O O12 0.000000 0.893797 0.979394
#
# Coordination Sequence:
#
# PCOD9537790 Si02
#       5
#     8  16   8  16  16
#     4  12  22  35  53  76 107 141 175 211 262 319
#     4  10  20  35  53  74 103 139 174 214 262 310
#     4  12  23  35  52  74 105 139 181 221 258 305
#     4  11  23  37  54  74 104 142 182 219 259 305
#     4  11  21  33  53  78 104 134 172 217 262 309
#
# _framework density 15.970753
#
# number of rings (size 3 to 8) (size 9 to 14) (size 15 to 20)
#    0.000    1.000    2.500    7.875    0.000    3.000 
#    0.000    0.000    0.000    0.000    0.000    0.875 
#    0.000    0.000    0.000    0.000    0.000    0.000 
#
# Total GULP energy -178878.435325 kJ/mol
# GULP energy per Si atom -5589.951104 kJ/mol
# Density = 1.593440 g / cm^3
# Si number density = 15.970753 Si / 1000 Ang^3
#
#
#
# Elastic Constant Matrix: (Units=GPa)
#
#
# Indices 1 2 3 4 5 6 
#
# 1 133.9470 73.3495 52.3664 0.0000 0.0000 0.0000
# 2 73.3495 160.1936 69.4452 0.0000 0.0000 0.0000
# 3 52.3664 69.4452 87.6424 0.0000 0.0000 0.0000
# 4 0.0000 0.0000 0.0000 14.2296 0.0000 0.0000
# 5 0.0000 0.0000 0.0000 0.0000 25.8101 0.0000
# 6 0.0000 0.0000 0.0000 0.0000 0.0000 28.0119
#
#
#
# Elastic Compliance Matrix: (Units=1/GPa)
#
#
# Indices 1 2 3 4 5 6 
#
# 1 0.010752 -0.003257 -0.003844 0.000000 0.000000 0.000000
# 2 -0.003257 0.010495 -0.006370 0.000000 0.000000 0.000000
# 3 -0.003844 -0.006370 0.018754 0.000000 0.000000 0.000000
# 4 0.000000 0.000000 0.000000 0.070276 0.000000 0.000000
# 5 0.000000 0.000000 0.000000 0.000000 0.038744 0.000000
# 6 0.000000 0.000000 0.000000 0.000000 0.000000 0.035699
#
#
# Mechanical properties :
#
#
# Convention : Reuss Voigt Hill
#
# Bulk Modulus (GPa) = 76.56999 85.78947 81.17973
# Shear Modulus (GPa) = 23.14656 26.05178 24.59917
#
# Velocity S-wave (km/s) = 3.81111 4.04322 3.92888
# Velocity P-wave (km/s) = 8.21061 8.69655 8.45707
#
# Compressibility (1/GPa) = 0.01305995
#
# Stress axis : x y z
#
# Youngs Moduli (GPa) = 93.00869 95.28205 53.32183
#
# Poissons Ratio (x) = 0.31031 0.20495
# Poissons Ratio (y) = 0.30291 0.33967
# Poissons Ratio (z) = 0.35749 0.60696
#
# Static dielectric constant tensor:
#      x y z
#    x 1.532240 0.000000 0.000000 
#    y 0.000000 1.532480 0.000000 
#    z 0.000000 0.000000 1.512420 
# 
# From -- ./inp_files/48070.got.cif
#   From: 2010.05.17/outbox.cif.g08.bks.cpg/sg74_25_cif.got.tgz:48070.got - 2010.06.03 17:57:02.
