data_PCOD9537682
_publ_section_title
;
Structure prediction by ZEFSAII (Michael W. Deem and Ramdas Pophale) SiO2 
 PCOD9537682
Probable space group: I M M A
;
_chemical_formula_sum "Si O2"
_cell_formula_units_Z 80
_cell_length_a 30.267836
_cell_length_b 15.176080
_cell_length_c 8.694087
_cell_angle_alpha 90.000000
_cell_angle_beta 90.000000
_cell_angle_gamma 90.000000
_cell_volume 3993.603655
_symmetry_space_group_name_H-M "I M M A"
_symmetry_group_IT_number 74
_symmetry_cell_setting 'orthorhombic'
loop_
_space_group_symop_operation_xyz
x,y,z
-x,1/2-y,z
x,-y,-z
-x,1/2+y,-z
-x,-y,-z
x,1/2+y,-z
-x,y,z
x,1/2-y,z
1/2+x,1/2+y,1/2+z
1/2-x,-y,1/2+z
1/2+x,1/2-y,1/2-z
1/2-x,y,1/2-z
1/2-x,1/2-y,1/2-z
1/2+x,y,1/2-z
1/2-x,1/2+y,1/2+z
1/2+x,-y,1/2+z
loop_
_atom_site_type_symbol
_atom_site_label
_atom_site_fract_x
_atom_site_fract_y
_atom_site_fract_z
Si Si1 0.140783 0.645285 0.336959
Si Si2 0.550171 0.088437 0.397702
Si Si3 0.299042 0.497559 0.316559
Si Si4 0.633133 0.646574 0.795509
Si Si5 0.952060 0.848690 0.222483
O O1 0.145815 0.750000 0.296227
O O2 0.177193 0.583499 0.257894
O O3 0.138931 0.638837 0.520936
O O4 0.092898 0.610220 0.281842
O O5 0.500000 0.086538 0.336438
O O6 0.586831 0.110040 0.272150
O O7 0.551394 0.156781 0.538563
O O8 0.558039 0.000000 0.500000
O O9 0.297400 0.500000 0.500000
O O10 0.250000 0.490335 0.250000
O O11 0.328468 0.413024 0.274584
O O12 0.636300 0.750000 0.755204
O O13 0.952587 0.750000 0.288404
O O14 0.000000 0.889921 0.258067
#
# Coordination Sequence:
#
# PCOD9537682 Si02
#       5
#    16  16  16  16  16
#     4  10  22  40  63  93 127 162 204 255 312 373
#     4  10  20  34  55  86 124 166 210 252 297 353
#     4  12  26  45  68  90 118 156 200 256 317 376
#     4  11  23  39  62  92 126 164 207 255 307 368
#     4   9  17  31  52  79 115 158 199 239 287 346
#
# _framework density 20.032032999999998
#
# number of rings (size 3 to 8) (size 9 to 14) (size 15 to 20)
#    0.000    1.600    0.000    5.400    0.000    5.200 
#    0.000    2.000    0.000    6.000    0.000    0.000 
#    0.000    0.000    0.000    0.000    0.000    0.000 
#
# Total GULP energy -223175.549282 kJ/mol
# GULP energy per Si atom -5579.388732 kJ/mol
# Density = 1.998644 g / cm^3
# Si number density = 20.032033 Si / 1000 Ang^3
#
#
#
# Elastic Constant Matrix: (Units=GPa)
#
#
# Indices 1 2 3 4 5 6 
#
# 1 198.6087 82.4771 83.6083 0.0000 0.0000 0.0000
# 2 82.4771 138.1913 60.3937 0.0000 0.0000 0.0000
# 3 83.6083 60.3937 109.1709 0.0000 0.0000 0.0000
# 4 0.0000 0.0000 0.0000 29.8332 0.0000 0.0000
# 5 0.0000 0.0000 0.0000 0.0000 41.4379 0.0000
# 6 0.0000 0.0000 0.0000 0.0000 0.0000 -7.3458
#
#
#
# Elastic Compliance Matrix: (Units=1/GPa)
#
#
# Indices 1 2 3 4 5 6 
#
# 1 0.008193 -0.002832 -0.004708 0.000000 0.000000 0.000000
# 2 -0.002832 0.010523 -0.003652 0.000000 0.000000 0.000000
# 3 -0.004708 -0.003652 0.014786 0.000000 0.000000 0.000000
# 4 0.000000 0.000000 0.000000 0.033520 0.000000 0.000000
# 5 0.000000 0.000000 0.000000 0.000000 0.024132 0.000000
# 6 0.000000 0.000000 0.000000 0.000000 0.000000 -0.136133
#
#
# Mechanical properties :
#
#
# Convention : Reuss Voigt Hill
#
# Bulk Modulus (GPa) = 89.95105 99.88101 94.91603
# Shear Modulus (GPa) = -264.70782 27.41786 -118.64498
#
# Velocity S-wave (km/s) = -11.50779 3.70361 -7.70430
# Velocity P-wave (km/s) = 11.47044 8.26183 5.62642
#
# Compressibility (1/GPa) = 0.01111716
#
# Stress axis : x y z
#
# Youngs Moduli (GPa) = 122.05389 95.03054 67.63298
#
# Poissons Ratio (x) = 0.26917 0.31840
# Poissons Ratio (y) = 0.34572 0.24700
# Poissons Ratio (z) = 0.57460 0.34706
#
# Static dielectric constant tensor:
#      x y z
#    x 1.704640 0.000000 0.000000 
#    y 0.000000 1.805700 0.000000 
#    z 0.000000 0.000000 1.687440 
# 
# From -- ./inp_files/14925.got.cif
#   From: 2010.05.17/outbox.cif.g08.bks.cpg/sg74_8_cif.got.tgz:14925.got - 2010.06.03 17:57:02.
