data_PCOD9537856
_publ_section_title
;
Structure prediction by ZEFSAII (Michael W. Deem and Ramdas Pophale) SiO2 
 PCOD9537856
Probable space group: I M M A
;
_chemical_formula_sum "Si O2"
_cell_formula_units_Z 88
_cell_length_a 8.587117
_cell_length_b 17.169528
_cell_length_c 31.169035
_cell_angle_alpha 90.000000
_cell_angle_beta 90.000000
_cell_angle_gamma 90.000000
_cell_volume 4595.461089
_symmetry_space_group_name_H-M "I M M A"
_symmetry_group_IT_number 74
_symmetry_cell_setting 'orthorhombic'
loop_
_space_group_symop_operation_xyz
x,y,z
-x,1/2-y,z
x,-y,-z
-x,1/2+y,-z
-x,-y,-z
x,1/2+y,-z
-x,y,z
x,1/2-y,z
1/2+x,1/2+y,1/2+z
1/2-x,-y,1/2+z
1/2+x,1/2-y,1/2-z
1/2-x,y,1/2-z
1/2-x,1/2-y,1/2-z
1/2+x,y,1/2-z
1/2-x,1/2+y,1/2+z
1/2+x,-y,1/2+z
loop_
_atom_site_type_symbol
_atom_site_label
_atom_site_fract_x
_atom_site_fract_y
_atom_site_fract_z
Si Si1 0.809865 0.440686 0.125522
Si Si2 0.187475 0.339382 0.205712
Si Si3 0.675047 0.342864 0.952734
Si Si4 0.314424 0.250000 0.798913
Si Si5 0.811924 0.341533 0.043632
Si Si6 0.685181 0.617453 0.362006
O O1 0.760909 0.385434 0.164222
O O2 0.759438 0.400229 0.081138
O O3 0.759669 0.527829 0.137302
O O4 0.000000 0.442506 0.123868
O O5 0.240769 0.250000 0.202892
O O6 0.250000 0.373538 0.250000
O O7 0.000000 0.339724 0.206693
O O8 0.500000 0.374301 0.946885
O O9 0.664194 0.250000 0.957061
O O10 0.775713 0.356516 0.910422
O O11 0.749422 0.369110 0.997525
O O12 0.500000 0.250000 0.796715
O O13 0.250000 0.250000 0.750000
O O14 0.260378 0.174811 0.826902
O O15 0.766864 0.250000 0.051505
O O16 0.000000 0.342043 0.042528
O O17 0.500000 0.619929 0.354992
#
# Coordination Sequence:
#
# PCOD9537856 Si02
#       6
#    16  16  16   8  16  16
#     4   9  19  34  54  83 115 146 186 236 282 333
#     4   9  17  32  54  78 107 144 183 222 269 324
#     4  10  20  35  55  79 112 151 192 237 285 340
#     4  12  26  46  68  90 114 144 188 240 295 354
#     4   9  17  32  56  83 112 152 198 237 276 327
#     4  11  22  38  61  86 113 147 188 233 286 343
#
# _framework density 19.149328000000001
#
# number of rings (size 3 to 8) (size 9 to 14) (size 15 to 20)
#    0.000    2.182    0.909    2.455    0.000    4.364 
#    0.000   10.000    0.000    4.364    0.000    0.000 
#    0.000    0.000    0.000    0.000    0.000    0.000 
#
# Total GULP energy -245350.229283 kJ/mol
# GULP energy per Si atom -5576.141575 kJ/mol
# Density = 1.910574 g / cm^3
# Si number density = 19.149328 Si / 1000 Ang^3
#
#
#
# Elastic Constant Matrix: (Units=GPa)
#
#
# Indices 1 2 3 4 5 6 
#
# 1 42.2194 28.3508 31.6315 0.0000 0.0000 0.0000
# 2 28.3508 90.7251 75.7388 0.0000 0.0000 0.0000
# 3 31.6315 75.7388 181.1988 0.0000 0.0000 0.0000
# 4 0.0000 0.0000 0.0000 10.0213 0.0000 0.0000
# 5 0.0000 0.0000 0.0000 0.0000 27.3453 0.0000
# 6 0.0000 0.0000 0.0000 0.0000 0.0000 10.3880
#
#
#
# Elastic Compliance Matrix: (Units=1/GPa)
#
#
# Indices 1 2 3 4 5 6 
#
# 1 0.030467 -0.007804 -0.002057 0.000000 0.000000 0.000000
# 2 -0.007804 0.018929 -0.006550 0.000000 0.000000 0.000000
# 3 -0.002057 -0.006550 0.008616 0.000000 0.000000 0.000000
# 4 0.000000 0.000000 0.000000 0.099788 0.000000 0.000000
# 5 0.000000 0.000000 0.000000 0.000000 0.036569 0.000000
# 6 0.000000 0.000000 0.000000 0.000000 0.000000 0.096265
#
#
# Mechanical properties :
#
#
# Convention : Reuss Voigt Hill
#
# Bulk Modulus (GPa) = 39.69671 65.06506 52.38088
# Shear Modulus (GPa) = 15.06706 21.44574 18.25640
#
# Velocity S-wave (km/s) = 2.80807 3.35015 3.09102
# Velocity P-wave (km/s) = 5.59364 7.00116 6.33660
#
# Compressibility (1/GPa) = 0.02519101
#
# Stress axis : x y z
#
# Youngs Moduli (GPa) = 32.82248 52.83002 116.06969
#
# Poissons Ratio (x) = 0.41227 0.23872
# Poissons Ratio (y) = 0.25613 0.76022
# Poissons Ratio (z) = 0.06751 0.34602
#
# Static dielectric constant tensor:
#      x y z
#    x 1.670800 0.000000 0.000000 
#    y 0.000000 1.694730 0.000000 
#    z 0.000000 0.000000 1.651540 
# 
# From -- ./inp_files/70266.got.cif
#   From: 2010.05.17/outbox.cif.g08.bks.cpg/sg74_36_cif.got.tgz:70266.got - 2010.06.03 17:57:02.
