data_PCOD9537583
_publ_section_title
;
Structure prediction by ZEFSAII (Michael W. Deem and Ramdas Pophale) SiO2 
 PCOD9537583
Probable space group: I M M A
;
_chemical_formula_sum "Si O2"
_cell_formula_units_Z 80
_cell_length_a 26.794510
_cell_length_b 8.660642
_cell_length_c 17.675459
_cell_angle_alpha 90.000000
_cell_angle_beta 90.000000
_cell_angle_gamma 90.000000
_cell_volume 4101.725632
_symmetry_space_group_name_H-M "I M M A"
_symmetry_group_IT_number 74
_symmetry_cell_setting 'orthorhombic'
loop_
_space_group_symop_operation_xyz
x,y,z
-x,1/2-y,z
x,-y,-z
-x,1/2+y,-z
-x,-y,-z
x,1/2+y,-z
-x,y,z
x,1/2-y,z
1/2+x,1/2+y,1/2+z
1/2-x,-y,1/2+z
1/2+x,1/2-y,1/2-z
1/2-x,y,1/2-z
1/2-x,1/2-y,1/2-z
1/2+x,y,1/2-z
1/2-x,1/2+y,1/2+z
1/2+x,-y,1/2+z
loop_
_atom_site_type_symbol
_atom_site_label
_atom_site_fract_x
_atom_site_fract_y
_atom_site_fract_z
Si Si1 0.342655 0.066023 0.700522
Si Si2 0.657097 0.065357 0.129028
Si Si3 0.945317 0.064935 0.204898
Si Si4 0.733291 0.564938 0.579687
Si Si5 0.945759 0.064842 0.623404
O O1 0.341718 0.250000 0.705132
O O2 0.338633 0.996763 0.784959
O O3 0.396290 0.009136 0.668794
O O4 0.298623 0.004060 0.648102
O O5 0.653428 0.250000 0.131319
O O6 0.708554 0.020554 0.089050
O O7 0.606212 0.000513 0.092617
O O8 0.939640 0.250000 0.208768
O O9 0.000000 0.030464 0.170969
O O10 0.946498 0.997723 0.290247
O O11 0.714669 0.500000 0.500000
O O12 0.729862 0.750000 0.581478
O O13 0.943186 0.250000 0.624026
O O14 0.000000 0.018817 0.590338
#
# Coordination Sequence:
#
# PCOD9537583 Si02
#       5
#    16  16  16  16  16
#     4  11  21  33  54  81 108 139 174 213 256 305
#     4  10  20  34  54  79 106 137 173 215 259 305
#     4   9  16  27  46  73 105 138 170 208 254 301
#     4  11  24  40  56  75 102 136 175 218 264 313
#     4   9  16  26  44  73 106 136 167 207 254 303
#
# _framework density 19.503985
#
# number of rings (size 3 to 8) (size 9 to 14) (size 15 to 20)
#    0.000    2.000    0.000    7.200    0.000    8.000 
#    0.000    0.000    0.000    1.200    0.000    0.000 
#    0.000    0.000    0.000    0.000    0.000    0.000 
#
# Total GULP energy -223224.498650 kJ/mol
# GULP energy per Si atom -5580.612466 kJ/mol
# Density = 1.945959 g / cm^3
# Si number density = 19.503985 Si / 1000 Ang^3
#
#
#
# Elastic Constant Matrix: (Units=GPa)
#
#
# Indices 1 2 3 4 5 6 
#
# 1 145.0918 42.2837 33.7903 0.0000 0.0000 0.0000
# 2 42.2837 63.1025 14.1923 0.0000 0.0000 0.0000
# 3 33.7903 14.1923 57.2099 0.0000 0.0000 0.0000
# 4 0.0000 0.0000 0.0000 8.1360 0.0000 0.0000
# 5 0.0000 0.0000 0.0000 0.0000 -14.5982 0.0000
# 6 0.0000 0.0000 0.0000 0.0000 0.0000 32.2773
#
#
#
# Elastic Compliance Matrix: (Units=1/GPa)
#
#
# Indices 1 2 3 4 5 6 
#
# 1 0.009448 -0.005376 -0.004247 0.000000 0.000000 0.000000
# 2 -0.005376 0.019842 -0.001747 0.000000 0.000000 0.000000
# 3 -0.004247 -0.001747 0.020421 0.000000 0.000000 0.000000
# 4 0.000000 0.000000 0.000000 0.122911 0.000000 0.000000
# 5 0.000000 0.000000 0.000000 0.000000 -0.068502 0.000000
# 6 0.000000 0.000000 0.000000 0.000000 0.000000 0.030981
#
#
# Mechanical properties :
#
#
# Convention : Reuss Voigt Hill
#
# Bulk Modulus (GPa) = 37.07542 49.54854 43.31198
# Shear Modulus (GPa) = 29.97023 16.83888 23.40456
#
# Velocity S-wave (km/s) = 3.92423 2.94148 3.46784
# Velocity P-wave (km/s) = 6.29152 6.08242 6.18785
#
# Compressibility (1/GPa) = 0.02697205
#
# Stress axis : x y z
#
# Youngs Moduli (GPa) = 105.84466 50.39727 48.96874
#
# Poissons Ratio (x) = 0.27092 0.20795
# Poissons Ratio (y) = 0.56899 0.08556
# Poissons Ratio (z) = 0.44949 0.08806
#
# Static dielectric constant tensor:
#      x y z
#    x 1.753980 0.000000 0.000000 
#    y 0.000000 1.648250 0.000000 
#    z 0.000000 0.000000 1.637500 
# 
# From -- ./inp_files/46478.got.cif
#   From: 2010.05.17/outbox.cif.g08.bks.cpg/sg74_24_cif.got.tgz:46478.got - 2010.06.03 17:57:02.
