data_PCOD9537882
_publ_section_title
;
Structure prediction by ZEFSAII (Michael W. Deem and Ramdas Pophale) SiO2 
 PCOD9537882
Probable space group: I M M A
;
_chemical_formula_sum "Si O2"
_cell_formula_units_Z 96
_cell_length_a 23.658814
_cell_length_b 8.917560
_cell_length_c 24.772016
_cell_angle_alpha 90.000000
_cell_angle_beta 90.000000
_cell_angle_gamma 90.000000
_cell_volume 5226.372522
_symmetry_space_group_name_H-M "I M M A"
_symmetry_group_IT_number 74
_symmetry_cell_setting 'orthorhombic'
loop_
_space_group_symop_operation_xyz
x,y,z
-x,1/2-y,z
x,-y,-z
-x,1/2+y,-z
-x,-y,-z
x,1/2+y,-z
-x,y,z
x,1/2-y,z
1/2+x,1/2+y,1/2+z
1/2-x,-y,1/2+z
1/2+x,1/2-y,1/2-z
1/2-x,y,1/2-z
1/2-x,1/2-y,1/2-z
1/2+x,y,1/2-z
1/2-x,1/2+y,1/2+z
1/2+x,-y,1/2+z
loop_
_atom_site_type_symbol
_atom_site_label
_atom_site_fract_x
_atom_site_fract_y
_atom_site_fract_z
Si Si1 0.865943 0.069405 0.164740
Si Si2 0.266716 0.070324 0.165898
Si Si3 0.564896 0.430823 0.123125
Si Si4 0.933753 0.069555 0.057435
Si Si5 0.370584 0.071413 0.776350
Si Si6 0.830436 0.571555 0.555868
O O1 0.871642 0.250000 0.169375
O O2 0.799183 0.033239 0.165269
O O3 0.896544 0.023340 0.109169
O O4 0.889271 0.992153 0.218507
O O5 0.272620 0.250000 0.174713
O O6 0.291283 0.033431 0.106762
O O7 0.307784 0.989542 0.208350
O O8 0.500000 0.469202 0.113660
O O9 0.569669 0.250000 0.129819
O O10 0.589115 0.507235 0.176821
O O11 0.606490 0.474185 0.074334
O O12 0.930077 0.250000 0.053263
O O13 0.000000 0.030237 0.066062
O O14 0.915938 0.000000 0.000000
O O15 0.370440 0.250000 0.776521
O O16 0.813078 0.500000 0.500000
O O17 0.829248 0.750000 0.549877
#
# Coordination Sequence:
#
# PCOD9537882 Si02
#       6
#    16  16  16  16  16  16
#     4  10  20  35  56  78 101 138 182 214 249 309
#     4   9  19  36  54  72 101 141 180 215 254 307
#     4   9  19  37  57  74  99 140 183 216 251 304
#     4   9  19  36  56  78 105 136 170 210 257 307
#     4  11  22  34  51  79 111 136 165 215 271 312
#     4   9  18  32  50  74 102 133 170 213 260 306
#
# _framework density 18.368379999999998
#
# number of rings (size 3 to 8) (size 9 to 14) (size 15 to 20)
#    0.000    2.500    0.000    3.000    0.000    8.000 
#    0.000    1.667    0.000    0.000    0.000    0.000 
#    0.000    0.000    0.000    0.000    0.000    0.000 
#
# Total GULP energy -267810.105499 kJ/mol
# GULP energy per Si atom -5579.377198 kJ/mol
# Density = 1.832657 g / cm^3
# Si number density = 18.368380 Si / 1000 Ang^3
#
#
#
# Elastic Constant Matrix: (Units=GPa)
#
#
# Indices 1 2 3 4 5 6 
#
# 1 22.6461 6.0155 5.0452 0.0000 0.0000 0.0000
# 2 6.0155 11.1976 21.6997 0.0000 0.0000 0.0000
# 3 5.0452 21.6997 117.7055 0.0000 0.0000 0.0000
# 4 0.0000 0.0000 0.0000 29.6623 0.0000 0.0000
# 5 0.0000 0.0000 0.0000 0.0000 16.1900 0.0000
# 6 0.0000 0.0000 0.0000 0.0000 0.0000 8.8826
#
#
#
# Elastic Compliance Matrix: (Units=1/GPa)
#
#
# Indices 1 2 3 4 5 6 
#
# 1 0.053088 -0.037511 0.004640 0.000000 0.000000 0.000000
# 2 -0.037511 0.165449 -0.028894 0.000000 0.000000 0.000000
# 3 0.004640 -0.028894 0.013624 0.000000 0.000000 0.000000
# 4 0.000000 0.000000 0.000000 0.033713 0.000000 0.000000
# 5 0.000000 0.000000 0.000000 0.000000 0.061766 0.000000
# 6 0.000000 0.000000 0.000000 0.000000 0.000000 0.112580
#
#
# Mechanical properties :
#
#
# Convention : Reuss Voigt Hill
#
# Bulk Modulus (GPa) = 9.20546 24.11889 16.66217
# Shear Modulus (GPa) = 8.33390 18.86623 13.60007
#
# Velocity S-wave (km/s) = 2.13236 3.20832 2.72399
# Velocity P-wave (km/s) = 3.32942 5.18494 4.35710
#
# Compressibility (1/GPa) = 0.10863113
#
# Stress axis : x y z
#
# Youngs Moduli (GPa) = 18.83669 6.04416 73.40190
#
# Poissons Ratio (x) = 0.22672 -0.34057
# Poissons Ratio (y) = 0.70658 2.12085
# Poissons Ratio (z) = -0.08740 0.17464
#
# Static dielectric constant tensor:
#      x y z
#    x 1.641730 0.000000 0.000000 
#    y 0.000000 1.614440 0.000000 
#    z 0.000000 0.000000 1.621910 
# 
# From -- ./inp_files/49120.got.cif
#   From: 2010.05.17/outbox.cif.g08.bks.cpg/sg74_25_cif.got.tgz:49120.got - 2010.06.03 17:57:02.
