data_PCOD9537636
_publ_section_title
;
Structure prediction by ZEFSAII (Michael W. Deem and Ramdas Pophale) SiO2 
 PCOD9537636
Probable space group: I M M A
;
_chemical_formula_sum "Si O2"
_cell_formula_units_Z 88
_cell_length_a 23.258528
_cell_length_b 14.018836
_cell_length_c 13.337169
_cell_angle_alpha 90.000000
_cell_angle_beta 90.000000
_cell_angle_gamma 90.000000
_cell_volume 4348.683843
_symmetry_space_group_name_H-M "I M M A"
_symmetry_group_IT_number 74
_symmetry_cell_setting 'orthorhombic'
loop_
_space_group_symop_operation_xyz
x,y,z
-x,1/2-y,z
x,-y,-z
-x,1/2+y,-z
-x,-y,-z
x,1/2+y,-z
-x,y,z
x,1/2-y,z
1/2+x,1/2+y,1/2+z
1/2-x,-y,1/2+z
1/2+x,1/2-y,1/2-z
1/2-x,y,1/2-z
1/2-x,1/2-y,1/2-z
1/2+x,y,1/2-z
1/2-x,1/2+y,1/2+z
1/2+x,-y,1/2+z
loop_
_atom_site_type_symbol
_atom_site_label
_atom_site_fract_x
_atom_site_fract_y
_atom_site_fract_z
Si Si1 0.000000 0.866333 0.214535
Si Si2 0.198722 0.358278 0.681674
Si Si3 0.769815 0.860881 0.635699
Si Si4 0.381201 0.141661 0.630544
Si Si5 0.500000 0.366130 0.947559
Si Si6 0.372660 0.135796 0.008691
Si Si7 0.194545 0.500000 0.000000
O O1 0.944452 0.895649 0.152648
O O2 0.000000 0.897223 0.330727
O O3 0.000000 0.750000 0.218112
O O4 0.219724 0.250000 0.656052
O O5 0.250000 0.402242 0.750000
O O6 0.147095 0.352015 0.759721
O O7 0.170193 0.399319 0.580791
O O8 0.759700 0.750000 0.604940
O O9 0.750000 0.868752 0.750000
O O10 0.837240 0.880183 0.611109
O O11 0.732764 0.933696 0.571116
O O12 0.382255 0.250000 0.589474
O O13 0.344196 0.071660 0.563962
O O14 0.500000 0.250000 0.948355
O O15 0.561023 0.395493 0.997822
O O16 0.375250 0.250000 0.993233
#
# Coordination Sequence:
#
# PCOD9537636 Si02
#       7
#     8  16  16  16   8  16   8
#     4   9  16  31  53  83 124 161 187 236 317 374
#     4   9  15  24  44  77 113 144 180 232 291 348
#     4  10  23  43  62  85 123 167 204 251 315 374
#     4  10  20  34  54  83 120 156 196 252 313 366
#     4   9  14  26  53  90 120 150 190 236 298 367
#     4   9  16  29  54  84 114 151 194 236 289 364
#     4  12  24  37  60  89 112 156 214 264 298 366
#
# _framework density 20.236007000000001
#
# number of rings (size 3 to 8) (size 9 to 14) (size 15 to 20)
#    0.000    2.364    1.818    1.636    0.000    5.455 
#    0.000    0.000    0.000    3.273    0.000    6.364 
#    0.000    0.000    0.000    0.000    0.000    0.000 
#
# Total GULP energy -245423.570144 kJ/mol
# GULP energy per Si atom -5577.808412 kJ/mol
# Density = 2.018995 g / cm^3
# Si number density = 20.236007 Si / 1000 Ang^3
#
#
#
# Elastic Constant Matrix: (Units=GPa)
#
#
# Indices 1 2 3 4 5 6 
#
# 1 182.4323 38.4819 71.9928 0.0000 0.0000 0.0000
# 2 38.4819 102.0824 32.6151 0.0000 0.0000 0.0000
# 3 71.9928 32.6151 103.3835 0.0000 0.0000 0.0000
# 4 0.0000 0.0000 0.0000 7.4286 0.0000 0.0000
# 5 0.0000 0.0000 0.0000 0.0000 32.0785 0.0000
# 6 0.0000 0.0000 0.0000 0.0000 0.0000 -7.6051
#
#
#
# Elastic Compliance Matrix: (Units=1/GPa)
#
#
# Indices 1 2 3 4 5 6 
#
# 1 0.007717 -0.001326 -0.004955 0.000000 0.000000 0.000000
# 2 -0.001326 0.011122 -0.002586 0.000000 0.000000 0.000000
# 3 -0.004955 -0.002586 0.013939 0.000000 0.000000 0.000000
# 4 0.000000 0.000000 0.000000 0.134615 0.000000 0.000000
# 5 0.000000 0.000000 0.000000 0.000000 0.031173 0.000000
# 6 0.000000 0.000000 0.000000 0.000000 0.000000 -0.131491
#
#
# Mechanical properties :
#
#
# Convention : Reuss Voigt Hill
#
# Bulk Modulus (GPa) = 66.46975 74.89754 70.68365
# Shear Modulus (GPa) = 55.66471 22.70097 39.18284
#
# Velocity S-wave (km/s) = 5.25047 3.35298 4.40511
# Velocity P-wave (km/s) = 8.34717 7.21681 7.80248
#
# Compressibility (1/GPa) = 0.01504444
#
# Stress axis : x y z
#
# Youngs Moduli (GPa) = 129.58976 89.91333 71.74036
#
# Poissons Ratio (x) = 0.11920 0.35550
# Poissons Ratio (y) = 0.17180 0.18548
# Poissons Ratio (z) = 0.64217 0.23247
#
# Static dielectric constant tensor:
#      x y z
#    x 1.776220 0.000000 0.000000 
#    y 0.000000 1.751490 0.000000 
#    z 0.000000 0.000000 1.705480 
# 
# From -- ./inp_files/25023.got.cif
#   From: 2010.05.17/outbox.cif.g08.bks.cpg/sg74_13_cif.got.tgz:25023.got - 2010.06.03 17:57:02.
