data_PCOD9537382
_publ_section_title
;
Structure prediction by ZEFSAII (Michael W. Deem and Ramdas Pophale) SiO2 
 PCOD9537382
Probable space group: I M M A
;
_chemical_formula_sum "Si O2"
_cell_formula_units_Z 112
_cell_length_a 14.460972
_cell_length_b 27.123686
_cell_length_c 14.086782
_cell_angle_alpha 90.000000
_cell_angle_beta 90.000000
_cell_angle_gamma 90.000000
_cell_volume 5525.327019
_symmetry_space_group_name_H-M "I M M A"
_symmetry_group_IT_number 74
_symmetry_cell_setting 'orthorhombic'
loop_
_space_group_symop_operation_xyz
x,y,z
-x,1/2-y,z
x,-y,-z
-x,1/2+y,-z
-x,-y,-z
x,1/2+y,-z
-x,y,z
x,1/2-y,z
1/2+x,1/2+y,1/2+z
1/2-x,-y,1/2+z
1/2+x,1/2-y,1/2-z
1/2-x,y,1/2-z
1/2-x,1/2-y,1/2-z
1/2+x,y,1/2-z
1/2-x,1/2+y,1/2+z
1/2+x,-y,1/2+z
loop_
_atom_site_type_symbol
_atom_site_label
_atom_site_fract_x
_atom_site_fract_y
_atom_site_fract_z
Si Si1 0.346487 0.694699 0.306310
Si Si2 0.101500 0.618488 0.338228
Si Si3 0.111909 0.014573 0.744010
Si Si4 0.252051 0.860954 0.637317
Si Si5 0.605015 0.308535 0.483965
Si Si6 0.745541 0.973626 0.899068
Si Si7 0.388278 0.692179 0.993493
O O1 0.385716 0.750000 0.299060
O O2 0.250000 0.694687 0.250000
O O3 0.404013 0.654391 0.251481
O O4 0.342192 0.682368 0.416990
O O5 0.143388 0.568389 0.296314
O O6 0.137461 0.654021 0.421809
O O7 0.000000 0.602840 0.372320
O O8 0.000000 0.013457 0.757894
O O9 0.170899 0.997611 0.836190
O O10 0.150461 0.979812 0.660441
O O11 0.250000 0.866128 0.750000
O O12 0.343219 0.833206 0.602318
O O13 0.257230 0.915201 0.591854
O O14 0.166475 0.828926 0.596744
O O15 0.500000 0.325792 0.495169
O O16 0.604463 0.250000 0.470079
O O17 0.740203 0.000000 0.000000
O O18 0.500000 0.691144 0.983174
O O19 0.363080 0.750000 0.013372
#
# Coordination Sequence:
#
# PCOD9537382 Si02
#       7
#    16  16  16  16  16  16  16
#     4  10  20  33  56  92 131 172 211 254 313 384
#     4  10  20  35  61  93 126 167 204 253 324 391
#     4  10  23  43  65  98 132 168 222 276 332 395
#     4  12  25  44  64  93 121 171 226 271 331 387
#     4  10  23  41  61  90 129 172 217 267 325 391
#     4  11  25  45  68  96 130 175 217 279 336 386
#     4  10  22  40  65  99 134 168 213 269 329 401
#
# _framework density 20.270292999999999
#
# number of rings (size 3 to 8) (size 9 to 14) (size 15 to 20)
#    0.000    1.571    1.429    3.000    4.000    6.000 
#    0.000    1.429    0.000    0.000    0.000    0.000 
#    0.000    0.000    0.000    0.000    0.000    0.000 
#
# Total GULP energy -312356.339297 kJ/mol
# GULP energy per Si atom -5577.791773 kJ/mol
# Density = 2.022416 g / cm^3
# Si number density = 20.270293 Si / 1000 Ang^3
#
#
#
# Elastic Constant Matrix: (Units=GPa)
#
#
# Indices 1 2 3 4 5 6 
#
# 1 103.1612 28.6669 20.2761 0.0000 0.0000 0.0000
# 2 28.6669 69.5670 18.0671 0.0000 0.0000 0.0000
# 3 20.2761 18.0671 90.0926 0.0000 0.0000 0.0000
# 4 0.0000 0.0000 0.0000 39.5979 0.0000 0.0000
# 5 0.0000 0.0000 0.0000 0.0000 22.3943 0.0000
# 6 0.0000 0.0000 0.0000 0.0000 0.0000 27.7764
#
#
#
# Elastic Compliance Matrix: (Units=1/GPa)
#
#
# Indices 1 2 3 4 5 6 
#
# 1 0.011183 -0.004172 -0.001680 0.000000 0.000000 0.000000
# 2 -0.004172 0.016721 -0.002414 0.000000 0.000000 0.000000
# 3 -0.001680 -0.002414 0.011962 0.000000 0.000000 0.000000
# 4 0.000000 0.000000 0.000000 0.025254 0.000000 0.000000
# 5 0.000000 0.000000 0.000000 0.000000 0.044654 0.000000
# 6 0.000000 0.000000 0.000000 0.000000 0.000000 0.036002
#
#
# Mechanical properties :
#
#
# Convention : Reuss Voigt Hill
#
# Bulk Modulus (GPa) = 42.85757 44.09345 43.47551
# Shear Modulus (GPa) = 29.39684 31.00776 30.20230
#
# Velocity S-wave (km/s) = 3.81234 3.91540 3.86421
# Velocity P-wave (km/s) = 6.36926 6.49926 6.43459
#
# Compressibility (1/GPa) = 0.02333310
#
# Stress axis : x y z
#
# Youngs Moduli (GPa) = 89.42050 59.80576 83.59816
#
# Poissons Ratio (x) = 0.24951 0.14046
# Poissons Ratio (y) = 0.37306 0.20183
# Poissons Ratio (z) = 0.15025 0.14439
#
# Static dielectric constant tensor:
#      x y z
#    x 1.820430 0.000000 0.000000 
#    y 0.000000 1.799560 0.000000 
#    z 0.000000 0.000000 1.698420 
# 
# From -- ./inp_files/32755.got.cif
#   From: 2010.05.17/outbox.cif.g08.bks.cpg/sg74_17_cif.got.tgz:32755.got - 2010.06.03 17:57:02.
