data_PCOD9537452
_publ_section_title
;
Structure prediction by ZEFSAII (Michael W. Deem and Ramdas Pophale) SiO2 
 PCOD9537452
Probable space group: I M M A
;
_chemical_formula_sum "Si O2"
_cell_formula_units_Z 88
_cell_length_a 7.654966
_cell_length_b 17.261835
_cell_length_c 29.543046
_cell_angle_alpha 90.000000
_cell_angle_beta 90.000000
_cell_angle_gamma 90.000000
_cell_volume 3903.781466
_symmetry_space_group_name_H-M "I M M A"
_symmetry_group_IT_number 74
_symmetry_cell_setting 'orthorhombic'
loop_
_space_group_symop_operation_xyz
x,y,z
-x,1/2-y,z
x,-y,-z
-x,1/2+y,-z
-x,-y,-z
x,1/2+y,-z
-x,y,z
x,1/2-y,z
1/2+x,1/2+y,1/2+z
1/2-x,-y,1/2+z
1/2+x,1/2-y,1/2-z
1/2-x,y,1/2-z
1/2-x,1/2-y,1/2-z
1/2+x,y,1/2-z
1/2-x,1/2+y,1/2+z
1/2+x,-y,1/2+z
loop_
_atom_site_type_symbol
_atom_site_label
_atom_site_fract_x
_atom_site_fract_y
_atom_site_fract_z
Si Si1 0.211225 0.406761 0.850791
Si Si2 0.290445 0.250000 0.697246
Si Si3 0.703033 0.567454 0.802605
Si Si4 0.789261 0.661952 0.057556
Si Si5 0.784850 0.338543 0.386210
Si Si6 0.701680 0.427864 0.027171
O O1 0.274015 0.329257 0.825311
O O2 0.267179 0.483268 0.824713
O O3 0.267684 0.397095 0.902967
O O4 0.000000 0.406346 0.850711
O O5 0.500000 0.250000 0.690946
O O6 0.250000 0.250000 0.750000
O O7 0.500000 0.583580 0.803305
O O8 0.750000 0.569187 0.750000
O O9 0.779809 0.629541 0.837890
O O10 0.746538 0.750000 0.071188
O O11 0.709817 0.640753 0.009489
O O12 0.000000 0.657640 0.053782
O O13 0.731858 0.250000 0.394165
O O14 0.723306 0.396335 0.425947
O O15 0.000000 0.339353 0.387600
O O16 0.500000 0.448934 0.036471
O O17 0.784440 0.500000 0.000000
#
# Coordination Sequence:
#
# PCOD9537452 Si02
#       6
#    16   8  16  16  16  16
#     4  10  20  37  57  79 113 153 191 231 282 340
#     4  10  20  34  52  74 104 146 190 230 273 328
#     4  11  23  39  60  85 111 143 188 240 295 350
#     4  10  20  35  55  81 115 153 189 230 280 334
#     4   9  19  37  59  82 113 153 193 235 286 341
#     4  10  20  35  57  86 117 150 191 236 280 336
#
# _framework density 22.542245000000001
#
# number of rings (size 3 to 8) (size 9 to 14) (size 15 to 20)
#    0.000    2.000    0.909    2.727    0.000    6.182 
#    0.000    1.818    0.000    3.818    0.000    0.000 
#    0.000    0.000    0.000    0.000    0.000    0.000 
#
# Total GULP energy -245826.278241 kJ/mol
# GULP energy per Si atom -5586.960869 kJ/mol
# Density = 2.249094 g / cm^3
# Si number density = 22.542245 Si / 1000 Ang^3
#
#
#
# Elastic Constant Matrix: (Units=GPa)
#
#
# Indices 1 2 3 4 5 6 
#
# 1 34.2331 -1.1220 11.9453 0.0000 0.0000 0.0000
# 2 -1.1220 111.0882 53.4505 0.0000 0.0000 0.0000
# 3 11.9453 53.4505 161.5923 0.0000 0.0000 0.0000
# 4 0.0000 0.0000 0.0000 22.9125 0.0000 0.0000
# 5 0.0000 0.0000 0.0000 0.0000 11.7843 0.0000
# 6 0.0000 0.0000 0.0000 0.0000 0.0000 -9.1626
#
#
#
# Elastic Compliance Matrix: (Units=1/GPa)
#
#
# Indices 1 2 3 4 5 6 
#
# 1 0.030235 0.001642 -0.002778 0.000000 0.000000 0.000000
# 2 0.001642 0.010795 -0.003692 0.000000 0.000000 0.000000
# 3 -0.002778 -0.003692 0.007615 0.000000 0.000000 0.000000
# 4 0.000000 0.000000 0.000000 0.043644 0.000000 0.000000
# 5 0.000000 0.000000 0.000000 0.000000 0.084858 0.000000
# 6 0.000000 0.000000 0.000000 0.000000 0.000000 -0.109140
#
#
# Mechanical properties :
#
#
# Convention : Reuss Voigt Hill
#
# Bulk Modulus (GPa) = 25.64868 48.38456 37.01662
# Shear Modulus (GPa) = 55.15104 21.28284 38.21694
#
# Velocity S-wave (km/s) = 4.95164 3.07601 4.12193
# Velocity P-wave (km/s) = 6.64036 5.84177 6.25383
#
# Compressibility (1/GPa) = 0.03898836
#
# Stress axis : x y z
#
# Youngs Moduli (GPa) = 33.07455 92.63652 131.31950
#
# Poissons Ratio (x) = -0.15212 0.36483
# Poissons Ratio (y) = -0.05431 0.48484
# Poissons Ratio (z) = 0.09189 0.34202
#
# Static dielectric constant tensor:
#      x y z
#    x 1.833030 0.000000 0.000000 
#    y 0.000000 1.845090 0.000000 
#    z 0.000000 0.000000 1.852520 
# 
# From -- ./inp_files/65944.got.cif
#   From: 2010.05.17/outbox.cif.g08.bks.cpg/sg74_33_cif.got.tgz:65944.got - 2010.06.03 17:57:02.
