data_PCOD9537669
_publ_section_title
;
Structure prediction by ZEFSAII (Michael W. Deem and Ramdas Pophale) SiO2 
 PCOD9537669
Probable space group: I M M A
;
_chemical_formula_sum "Si O2"
_cell_formula_units_Z 100
_cell_length_a 9.007690
_cell_length_b 20.883509
_cell_length_c 29.682516
_cell_angle_alpha 90.000000
_cell_angle_beta 90.000000
_cell_angle_gamma 90.000000
_cell_volume 5583.642650
_symmetry_space_group_name_H-M "I M M A"
_symmetry_group_IT_number 74
_symmetry_cell_setting 'orthorhombic'
loop_
_space_group_symop_operation_xyz
x,y,z
-x,1/2-y,z
x,-y,-z
-x,1/2+y,-z
-x,-y,-z
x,1/2+y,-z
-x,y,z
x,1/2-y,z
1/2+x,1/2+y,1/2+z
1/2-x,-y,1/2+z
1/2+x,1/2-y,1/2-z
1/2-x,y,1/2-z
1/2-x,1/2-y,1/2-z
1/2+x,y,1/2-z
1/2-x,1/2+y,1/2+z
1/2+x,-y,1/2+z
loop_
_atom_site_type_symbol
_atom_site_label
_atom_site_fract_x
_atom_site_fract_y
_atom_site_fract_z
Si Si1 0.826177 0.987838 0.202644
Si Si2 0.174083 0.931832 0.943971
Si Si3 0.500000 0.750000 0.012026
Si Si4 0.824495 0.642264 0.797444
Si Si5 0.337780 0.881272 0.026774
Si Si6 0.674756 0.546237 0.110968
Si Si7 0.672031 0.176929 0.111546
O O1 0.750000 0.970819 0.250000
O O2 0.754924 0.955337 0.158949
O O3 0.000000 0.973771 0.204956
O O4 0.810330 0.065087 0.196974
O O5 0.223332 0.868347 0.917214
O O6 0.000000 0.943769 0.940201
O O7 0.262076 0.988679 0.919615
O O8 0.222574 0.916890 0.994853
O O9 0.372456 0.807826 0.014243
O O10 0.750000 0.659478 0.750000
O O11 0.733125 0.673506 0.837827
O O12 0.000000 0.658055 0.798661
O O13 0.500000 0.913931 0.019497
O O14 0.302978 0.891569 0.079387
O O15 0.500000 0.537184 0.118950
O O16 0.500000 0.155083 0.109062
O O17 0.674233 0.250000 0.095279
#
# Coordination Sequence:
#
# PCOD9537669 Si02
#       7
#    16  16   4  16  16  16  16
#     4  10  20  34  55  84 119 153 187 237 293 346
#     4  12  24  36  54  84 119 154 194 246 291 336
#     4   8  20  44  64  84 118 148 200 240 282 352
#     4  10  20  35  54  75 103 143 188 237 293 339
#     4   9  21  39  62  83 113 153 193 231 285 344
#     4  11  21  36  59  88 117 151 193 233 292 346
#     4  11  24  38  54  74 102 148 198 244 290 338
#
# _framework density 17.909455999999999
#
# number of rings (size 3 to 8) (size 9 to 14) (size 15 to 20)
#    0.480    1.120    1.600    3.840    1.120    6.080 
#    0.000    0.000    0.000    0.000    0.000    0.560 
#    0.000    0.000    0.000    0.000    0.000    0.000 
#
# Total GULP energy -278594.146614 kJ/mol
# GULP energy per Si atom -5571.882932 kJ/mol
# Density = 1.786869 g / cm^3
# Si number density = 17.909456 Si / 1000 Ang^3
#
#
#
# Elastic Constant Matrix: (Units=GPa)
#
#
# Indices 1 2 3 4 5 6 
#
# 1 80.1714 4.1617 36.0778 0.0000 0.0000 0.0000
# 2 4.1617 23.3343 15.8284 0.0000 0.0000 0.0000
# 3 36.0778 15.8284 103.5952 0.0000 0.0000 0.0000
# 4 0.0000 0.0000 0.0000 1.0723 0.0000 0.0000
# 5 0.0000 0.0000 0.0000 0.0000 33.9964 0.0000
# 6 0.0000 0.0000 0.0000 0.0000 0.0000 10.6181
#
#
#
# Elastic Compliance Matrix: (Units=1/GPa)
#
#
# Indices 1 2 3 4 5 6 
#
# 1 0.014810 0.000956 -0.005304 0.000000 0.000000 0.000000
# 2 0.000956 0.047872 -0.007648 0.000000 0.000000 0.000000
# 3 -0.005304 -0.007648 0.012669 0.000000 0.000000 0.000000
# 4 0.000000 0.000000 0.000000 0.932613 0.000000 0.000000
# 5 0.000000 0.000000 0.000000 0.000000 0.029415 0.000000
# 6 0.000000 0.000000 0.000000 0.000000 0.000000 0.094178
#
#
# Mechanical properties :
#
#
# Convention : Reuss Voigt Hill
#
# Bulk Modulus (GPa) = 19.46996 35.47075 27.47035
# Shear Modulus (GPa) = 4.26378 19.20623 11.73500
#
# Velocity S-wave (km/s) = 1.54464 3.27832 2.56254
# Velocity P-wave (km/s) = 3.75182 5.84623 4.91195
#
# Compressibility (1/GPa) = 0.05136118
#
# Stress axis : x y z
#
# Youngs Moduli (GPa) = 67.51975 20.88889 78.93542
#
# Poissons Ratio (x) = -0.01998 0.41867
# Poissons Ratio (y) = -0.06458 0.60366
# Poissons Ratio (z) = 0.35812 0.15975
#
# Static dielectric constant tensor:
#      x y z
#    x 1.600180 0.000000 0.000000 
#    y 0.000000 1.613250 0.000000 
#    z 0.000000 0.000000 1.660810 
# 
# From -- ./inp_files/70637.got.cif
#   From: 2010.05.17/outbox.cif.g08.bks.cpg/sg74_36_cif.got.tgz:70637.got - 2010.06.03 17:57:02.
