data_PCOD9537477
_publ_section_title
;
Structure prediction by ZEFSAII (Michael W. Deem and Ramdas Pophale) SiO2 
 PCOD9537477
Probable space group: I M M A
;
_chemical_formula_sum "Si O2"
_cell_formula_units_Z 104
_cell_length_a 21.141723
_cell_length_b 9.635713
_cell_length_c 26.909469
_cell_angle_alpha 90.000000
_cell_angle_beta 90.000000
_cell_angle_gamma 90.000000
_cell_volume 5481.877954
_symmetry_space_group_name_H-M "I M M A"
_symmetry_group_IT_number 74
_symmetry_cell_setting 'orthorhombic'
loop_
_space_group_symop_operation_xyz
x,y,z
-x,1/2-y,z
x,-y,-z
-x,1/2+y,-z
-x,-y,-z
x,1/2+y,-z
-x,y,z
x,1/2-y,z
1/2+x,1/2+y,1/2+z
1/2-x,-y,1/2+z
1/2+x,1/2-y,1/2-z
1/2-x,y,1/2-z
1/2-x,1/2-y,1/2-z
1/2+x,y,1/2-z
1/2-x,1/2+y,1/2+z
1/2+x,-y,1/2+z
loop_
_atom_site_type_symbol
_atom_site_label
_atom_site_fract_x
_atom_site_fract_y
_atom_site_fract_z
Si Si1 0.574320 0.915114 0.269949
Si Si2 0.121076 0.410075 0.882648
Si Si3 0.835877 0.407356 0.392694
Si Si4 0.207995 0.911563 0.950144
Si Si5 0.000000 0.405151 0.952805
Si Si6 0.075317 0.909361 0.451004
Si Si7 0.313756 0.585782 0.778727
O O1 0.500000 0.953847 0.264574
O O2 0.579028 0.750000 0.259246
O O3 0.596955 0.935213 0.326938
O O4 0.624090 0.001943 0.237724
O O5 0.144694 0.250000 0.885378
O O6 0.170694 0.518177 0.904586
O O7 0.060820 0.422466 0.918458
O O8 0.862036 0.250000 0.394052
O O9 0.781076 0.417090 0.433842
O O10 0.888492 0.519232 0.405811
O O11 0.806953 0.428681 0.338044
O O12 0.190164 0.750000 0.957167
O O13 0.196545 0.000000 0.000000
O O14 0.000000 0.250000 0.972467
O O15 0.000000 0.500000 0.000000
O O16 0.095074 0.750000 0.458190
O O17 0.000000 0.912274 0.443067
O O18 0.088761 0.000000 0.500000
O O19 0.322258 0.750000 0.767632
O O20 0.250000 0.539509 0.750000
#
# Coordination Sequence:
#
# PCOD9537477 Si02
#       7
#    16  16  16  16   8  16  16
#     4  10  21  39  62  88 119 155 196 246 299 351
#     4  10  20  37  58  80 112 152 191 234 285 336
#     4  10  22  39  59  83 114 151 190 237 290 343
#     4  11  23  38  57  84 116 151 192 237 286 342
#     4  10  20  34  52  76 108 144 184 228 275 326
#     4  10  21  37  59  87 118 151 188 231 281 342
#     4  10  22  41  62  86 118 154 196 249 301 351
#
# _framework density 18.971599999999999
#
# number of rings (size 3 to 8) (size 9 to 14) (size 15 to 20)
#    0.000    1.846    0.769    2.769    0.000    8.923 
#    0.000    3.077    0.000    0.000    0.000    0.000 
#    0.000    0.000    0.000    0.000    0.000    0.000 
#
# Total GULP energy -290353.939902 kJ/mol
# GULP energy per Si atom -5583.729613 kJ/mol
# Density = 1.892842 g / cm^3
# Si number density = 18.971600 Si / 1000 Ang^3
#
#
#
# Elastic Constant Matrix: (Units=GPa)
#
#
# Indices 1 2 3 4 5 6 
#
# 1 80.3507 57.2564 27.0625 0.0000 0.0000 0.0000
# 2 57.2564 97.4716 36.9952 0.0000 0.0000 0.0000
# 3 27.0625 36.9952 44.0759 0.0000 0.0000 0.0000
# 4 0.0000 0.0000 0.0000 30.6274 0.0000 0.0000
# 5 0.0000 0.0000 0.0000 0.0000 137.6386 0.0000
# 6 0.0000 0.0000 0.0000 0.0000 0.0000 32.9401
#
#
#
# Elastic Compliance Matrix: (Units=1/GPa)
#
#
# Indices 1 2 3 4 5 6 
#
# 1 0.021848 -0.011362 -0.003878 0.000000 0.000000 0.000000
# 2 -0.011362 0.020965 -0.010620 0.000000 0.000000 0.000000
# 3 -0.003878 -0.010620 0.033983 0.000000 0.000000 0.000000
# 4 0.000000 0.000000 0.000000 0.032650 0.000000 0.000000
# 5 0.000000 0.000000 0.000000 0.000000 0.007265 0.000000
# 6 0.000000 0.000000 0.000000 0.000000 0.000000 0.030358
#
#
# Mechanical properties :
#
#
# Convention : Reuss Voigt Hill
#
# Bulk Modulus (GPa) = 39.87982 51.61404 45.74693
# Shear Modulus (GPa) = 24.13726 46.94683 35.54204
#
# Velocity S-wave (km/s) = 3.57078 4.97992 4.33301
# Velocity P-wave (km/s) = 6.16985 7.76731 7.01420
#
# Compressibility (1/GPa) = 0.02507534
#
# Stress axis : x y z
#
# Youngs Moduli (GPa) = 45.77120 47.69964 29.42611
#
# Poissons Ratio (x) = 0.54196 0.11411
# Poissons Ratio (y) = 0.52005 0.31252
# Poissons Ratio (z) = 0.17749 0.50659
#
# Static dielectric constant tensor:
#      x y z
#    x 1.658180 0.000000 0.000000 
#    y 0.000000 1.282810 0.000000 
#    z 0.000000 0.000000 1.654890 
# 
# From -- ./inp_files/64419.got.cif
#   From: 2010.05.17/outbox.cif.g08.bks.cpg/sg74_33_cif.got.tgz:64419.got - 2010.06.03 17:57:02.
