data_PCOD9537179
_publ_section_title
;
Structure prediction by ZEFSAII (Michael W. Deem and Ramdas Pophale) SiO2 
 PCOD9537179
Probable space group: I M M A
;
_chemical_formula_sum "Si O2"
_cell_formula_units_Z 88
_cell_length_a 20.288785
_cell_length_b 8.520349
_cell_length_c 31.000374
_cell_angle_alpha 90.000000
_cell_angle_beta 90.000000
_cell_angle_gamma 90.000000
_cell_volume 5358.958051
_symmetry_space_group_name_H-M "I M M A"
_symmetry_group_IT_number 74
_symmetry_cell_setting 'orthorhombic'
loop_
_space_group_symop_operation_xyz
x,y,z
-x,1/2-y,z
x,-y,-z
-x,1/2+y,-z
-x,-y,-z
x,1/2+y,-z
-x,y,z
x,1/2-y,z
1/2+x,1/2+y,1/2+z
1/2-x,-y,1/2+z
1/2+x,1/2-y,1/2-z
1/2-x,y,1/2-z
1/2-x,1/2-y,1/2-z
1/2+x,y,1/2-z
1/2-x,1/2+y,1/2+z
1/2+x,-y,1/2+z
loop_
_atom_site_type_symbol
_atom_site_label
_atom_site_fract_x
_atom_site_fract_y
_atom_site_fract_z
Si Si1 0.146938 0.561736 0.951321
Si Si2 0.704852 0.432326 0.631275
Si Si3 0.925338 0.566188 0.830631
Si Si4 0.292139 0.936847 0.792502
Si Si5 0.500000 0.938993 0.548980
Si Si6 0.073025 0.065153 0.735550
O O1 0.148758 0.750000 0.951830
O O2 0.199463 0.497800 0.917187
O O3 0.072810 0.512306 0.935467
O O4 0.155777 0.500000 0.000000
O O5 0.721391 0.250000 0.631089
O O6 0.631874 0.460924 0.650333
O O7 0.752835 0.520730 0.664288
O O8 0.911655 0.750000 0.839889
O O9 0.924194 0.535740 0.779400
O O10 0.000000 0.532224 0.845595
O O11 0.300044 0.750000 0.789149
O O12 0.250000 0.988348 0.750000
O O13 0.363576 0.016888 0.791611
O O14 0.500000 0.750000 0.550596
O O15 0.500000 0.000000 0.500000
O O16 0.077518 0.250000 0.746712
O O17 0.000000 0.039627 0.716050
#
# Coordination Sequence:
#
# PCOD9537179 Si02
#       6
#    16  16  16  16   8  16
#     4  10  20  36  53  72  98 130 170 214 261 309
#     4  12  24  35  51  74 100 134 173 216 264 309
#     4  10  20  33  48  68  97 133 174 216 256 302
#     4  11  22  36  54  75 102 138 175 213 257 304
#     4   8  16  30  50  70  92 126 164 210 258 300
#     4  10  20  34  53  76 102 133 169 211 257 305
#
# _framework density 16.421102000000001
#
# number of rings (size 3 to 8) (size 9 to 14) (size 15 to 20)
#    0.000    1.636    1.818    3.818    1.273    3.636 
#    0.000    0.000    0.000    0.000    0.000    0.000 
#    0.000    0.727    0.000    2.727    0.000    4.182 
#
# Total GULP energy -245569.876684 kJ/mol
# GULP energy per Si atom -5581.133561 kJ/mol
# Density = 1.638373 g / cm^3
# Si number density = 16.421102 Si / 1000 Ang^3
#
#
#
# Elastic Constant Matrix: (Units=GPa)
#
#
# Indices 1 2 3 4 5 6 
#
# 1 81.2472 17.0791 39.5586 0.0000 0.0000 0.0000
# 2 17.0791 40.9294 6.4750 0.0000 0.0000 0.0000
# 3 39.5586 6.4750 75.4480 0.0000 0.0000 0.0000
# 4 0.0000 0.0000 0.0000 23.2792 0.0000 0.0000
# 5 0.0000 0.0000 0.0000 0.0000 27.7350 0.0000
# 6 0.0000 0.0000 0.0000 0.0000 0.0000 24.3815
#
#
#
# Elastic Compliance Matrix: (Units=1/GPa)
#
#
# Indices 1 2 3 4 5 6 
#
# 1 0.017899 -0.006067 -0.008864 0.000000 0.000000 0.000000
# 2 -0.006067 0.026825 0.000879 0.000000 0.000000 0.000000
# 3 -0.008864 0.000879 0.017826 0.000000 0.000000 0.000000
# 4 0.000000 0.000000 0.000000 0.042957 0.000000 0.000000
# 5 0.000000 0.000000 0.000000 0.000000 0.036056 0.000000
# 6 0.000000 0.000000 0.000000 0.000000 0.000000 0.041015
#
#
# Mechanical properties :
#
#
# Convention : Reuss Voigt Hill
#
# Bulk Modulus (GPa) = 29.03085 35.98334 32.50709
# Shear Modulus (GPa) = 22.50588 24.04660 23.27624
#
# Velocity S-wave (km/s) = 3.70611 3.83086 3.76900
# Velocity P-wave (km/s) = 6.00258 6.44421 6.22731
#
# Compressibility (1/GPa) = 0.03444612
#
# Stress axis : x y z
#
# Youngs Moduli (GPa) = 55.86796 37.27887 56.09651
#
# Poissons Ratio (x) = 0.22616 0.49725
# Poissons Ratio (y) = 0.33894 -0.04929
# Poissons Ratio (z) = 0.49523 -0.03276
#
# Static dielectric constant tensor:
#      x y z
#    x 1.560380 0.000000 0.000000 
#    y 0.000000 1.548330 0.000000 
#    z 0.000000 0.000000 1.564690 
# 
# From -- ./inp_files/70249.got.cif
#   From: 2010.05.17/outbox.cif.g08.bks.cpg/sg74_36_cif.got.tgz:70249.got - 2010.06.03 17:57:02.
