data_PCOD9537932
_publ_section_title
;
Structure prediction by ZEFSAII (Michael W. Deem and Ramdas Pophale) SiO2 
 PCOD9537932
Probable space group: I M M A
;
_chemical_formula_sum "Si O2"
_cell_formula_units_Z 88
_cell_length_a 8.766956
_cell_length_b 22.946790
_cell_length_c 24.975952
_cell_angle_alpha 90.000000
_cell_angle_beta 90.000000
_cell_angle_gamma 90.000000
_cell_volume 5024.499636
_symmetry_space_group_name_H-M "I M M A"
_symmetry_group_IT_number 74
_symmetry_cell_setting 'orthorhombic'
loop_
_space_group_symop_operation_xyz
x,y,z
-x,1/2-y,z
x,-y,-z
-x,1/2+y,-z
-x,-y,-z
x,1/2+y,-z
-x,y,z
x,1/2-y,z
1/2+x,1/2+y,1/2+z
1/2-x,-y,1/2+z
1/2+x,1/2-y,1/2-z
1/2-x,y,1/2-z
1/2-x,1/2-y,1/2-z
1/2+x,y,1/2-z
1/2-x,1/2+y,1/2+z
1/2+x,-y,1/2+z
loop_
_atom_site_type_symbol
_atom_site_label
_atom_site_fract_x
_atom_site_fract_y
_atom_site_fract_z
Si Si1 0.182206 0.596959 0.691336
Si Si2 0.181369 0.680608 0.486765
Si Si3 0.817492 0.529383 0.191999
Si Si4 0.182182 0.357227 0.876855
Si Si5 0.817837 0.681276 0.897670
Si Si6 0.182543 0.250000 0.690297
O O1 0.250000 0.610722 0.750000
O O2 0.243496 0.532427 0.677222
O O3 0.240342 0.642798 0.647865
O O4 0.000000 0.596428 0.694108
O O5 0.208163 0.750000 0.478341
O O6 0.255291 0.647774 0.436874
O O7 0.254844 0.665021 0.543693
O O8 0.000000 0.671295 0.488282
O O9 0.750000 0.545981 0.250000
O O10 0.785251 0.580548 0.150144
O O11 0.000000 0.522269 0.196694
O O12 0.259373 0.306629 0.841629
O O13 0.000000 0.348174 0.876573
O O14 0.784054 0.750000 0.889685
O O15 0.000000 0.673690 0.896183
O O16 0.250000 0.250000 0.750000
O O17 0.000000 0.250000 0.692326
#
# Coordination Sequence:
#
# PCOD9537932 Si02
#       6
#    16  16  16  16  16   8
#     4  11  22  38  61  86 115 149 184 228 278 337
#     4  10  20  35  56  83 114 150 189 232 282 336
#     4  10  21  37  57  81 110 148 190 233 281 338
#     4  11  22  36  56  81 111 149 192 236 284 336
#     4  10  21  38  61  87 116 149 184 228 279 334
#     4  12  24  36  52  78 112 148 189 242 291 336
#
# _framework density 17.51418
#
# number of rings (size 3 to 8) (size 9 to 14) (size 15 to 20)
#    0.000    1.455    0.909    6.273    0.000    6.545 
#    0.000    0.909    0.000    5.455    0.000    0.000 
#    0.000    0.000    0.000    0.000    0.000    0.000 
#
# Total GULP energy -245930.696746 kJ/mol
# GULP energy per Si atom -5589.334017 kJ/mol
# Density = 1.747432 g / cm^3
# Si number density = 17.514180 Si / 1000 Ang^3
#
#
#
# Elastic Constant Matrix: (Units=GPa)
#
#
# Indices 1 2 3 4 5 6 
#
# 1 127.4414 81.8236 96.0748 0.0000 0.0000 0.0000
# 2 81.8236 100.7811 112.6869 0.0000 0.0000 0.0000
# 3 96.0748 112.6869 169.6463 0.0000 0.0000 0.0000
# 4 0.0000 0.0000 0.0000 14.2719 0.0000 0.0000
# 5 0.0000 0.0000 0.0000 0.0000 37.3957 0.0000
# 6 0.0000 0.0000 0.0000 0.0000 0.0000 25.2558
#
#
#
# Elastic Compliance Matrix: (Units=1/GPa)
#
#
# Indices 1 2 3 4 5 6 
#
# 1 0.016521 -0.011473 -0.001735 0.000000 0.000000 0.000000
# 2 -0.011473 0.046534 -0.024413 0.000000 0.000000 0.000000
# 3 -0.001735 -0.024413 0.023093 0.000000 0.000000 0.000000
# 4 0.000000 0.000000 0.000000 0.070068 0.000000 0.000000
# 5 0.000000 0.000000 0.000000 0.000000 0.026741 0.000000
# 6 0.000000 0.000000 0.000000 0.000000 0.000000 0.039595
#
#
# Mechanical properties :
#
#
# Convention : Reuss Voigt Hill
#
# Bulk Modulus (GPa) = 91.68835 108.78216 100.23525
# Shear Modulus (GPa) = 16.58761 22.53692 19.56226
#
# Velocity S-wave (km/s) = 3.08083 3.59107 3.34569
# Velocity P-wave (km/s) = 8.06969 8.91292 8.50176
#
# Compressibility (1/GPa) = 0.01090651
#
# Stress axis : x y z
#
# Youngs Moduli (GPa) = 60.52771 21.48969 43.30247
#
# Poissons Ratio (x) = 0.24655 0.07515
# Poissons Ratio (y) = 0.69444 1.05712
# Poissons Ratio (z) = 0.10504 0.52462
#
# Static dielectric constant tensor:
#      x y z
#    x 1.582760 0.000000 0.000000 
#    y 0.000000 1.575740 0.000000 
#    z 0.000000 0.000000 1.568490 
# 
# From -- ./inp_files/56950.got.cif
#   From: 2010.05.17/outbox.cif.g08.bks.cpg/sg74_29_cif.got.tgz:56950.got - 2010.06.03 17:57:02.
