data_PCOD9537278
_publ_section_title
;
Structure prediction by ZEFSAII (Michael W. Deem and Ramdas Pophale) SiO2 
 PCOD9537278
Probable space group: I M M A
;
_chemical_formula_sum "Si O2"
_cell_formula_units_Z 104
_cell_length_a 9.174002
_cell_length_b 21.329010
_cell_length_c 28.638499
_cell_angle_alpha 90.000000
_cell_angle_beta 90.000000
_cell_angle_gamma 90.000000
_cell_volume 5603.763270
_symmetry_space_group_name_H-M "I M M A"
_symmetry_group_IT_number 74
_symmetry_cell_setting 'orthorhombic'
loop_
_space_group_symop_operation_xyz
x,y,z
-x,1/2-y,z
x,-y,-z
-x,1/2+y,-z
-x,-y,-z
x,1/2+y,-z
-x,y,z
x,1/2-y,z
1/2+x,1/2+y,1/2+z
1/2-x,-y,1/2+z
1/2+x,1/2-y,1/2-z
1/2-x,y,1/2-z
1/2-x,1/2-y,1/2-z
1/2+x,y,1/2-z
1/2-x,1/2+y,1/2+z
1/2+x,-y,1/2+z
loop_
_atom_site_type_symbol
_atom_site_label
_atom_site_fract_x
_atom_site_fract_y
_atom_site_fract_z
Si Si1 0.826686 0.824084 0.642746
Si Si2 0.824231 0.250000 0.699544
Si Si3 0.675926 0.600800 0.559566
Si Si4 0.668946 0.484013 0.616815
Si Si5 0.330606 0.921294 0.704141
Si Si6 0.674098 0.353157 0.876464
Si Si7 0.672862 0.180288 0.528308
O O1 0.801180 0.750000 0.643835
O O2 0.755319 0.854711 0.596789
O O3 0.751038 0.859483 0.685788
O O4 0.000000 0.835675 0.643064
O O5 0.750000 0.250000 0.750000
O O6 0.783571 0.310588 0.668048
O O7 0.000000 0.250000 0.705047
O O8 0.500000 0.606885 0.565629
O O9 0.711626 0.529174 0.573476
O O10 0.712902 0.626082 0.508345
O O11 0.500000 0.464817 0.610109
O O12 0.676874 0.528865 0.662016
O O13 0.766135 0.423626 0.625083
O O14 0.500000 0.908544 0.713572
O O15 0.250000 0.945326 0.750000
O O16 0.500000 0.352274 0.879162
O O17 0.740989 0.324995 0.923732
O O18 0.500000 0.174726 0.537688
O O19 0.697300 0.250000 0.507563
#
# Coordination Sequence:
#
# PCOD9537278 Si02
#       7
#    16   8  16  16  16  16  16
#     4  10  20  33  51  78 112 149 191 237 284 336
#     4  10  24  44  64  88 116 148 188 238 293 350
#     4   9  19  36  57  83 115 152 195 239 281 333
#     4   9  20  38  58  82 113 149 189 233 284 342
#     4  10  21  37  57  79 107 144 186 236 288 341
#     4  11  23  40  60  85 118 149 183 232 288 343
#     4  10  20  35  59  87 115 153 196 235 281 338
#
# _framework density 18.558956999999999
#
# number of rings (size 3 to 8) (size 9 to 14) (size 15 to 20)
#    0.000    2.154    0.769    2.769    0.000    8.308 
#    0.000    6.154    0.000    0.000    0.000    0.000 
#    0.000    0.000    0.000    0.000    0.000    0.000 
#
# Total GULP energy -290232.088833 kJ/mol
# GULP energy per Si atom -5581.386324 kJ/mol
# Density = 1.851672 g / cm^3
# Si number density = 18.558957 Si / 1000 Ang^3
#
#
#
# Elastic Constant Matrix: (Units=GPa)
#
#
# Indices 1 2 3 4 5 6 
#
# 1 53.3081 51.0107 42.3511 0.0000 0.0000 0.0000
# 2 51.0107 116.1742 51.9324 0.0000 0.0000 0.0000
# 3 42.3511 51.9324 113.1997 0.0000 0.0000 0.0000
# 4 0.0000 0.0000 0.0000 6.0082 0.0000 0.0000
# 5 0.0000 0.0000 0.0000 0.0000 32.2078 0.0000
# 6 0.0000 0.0000 0.0000 0.0000 0.0000 30.3876
#
#
#
# Elastic Compliance Matrix: (Units=1/GPa)
#
#
# Indices 1 2 3 4 5 6 
#
# 1 0.037505 -0.012826 -0.008148 0.000000 0.000000 0.000000
# 2 -0.012826 0.015215 -0.002181 0.000000 0.000000 0.000000
# 3 -0.008148 -0.002181 0.012883 0.000000 0.000000 0.000000
# 4 0.000000 0.000000 0.000000 0.166439 0.000000 0.000000
# 5 0.000000 0.000000 0.000000 0.000000 0.031048 0.000000
# 6 0.000000 0.000000 0.000000 0.000000 0.000000 0.032908
#
#
# Mechanical properties :
#
#
# Convention : Reuss Voigt Hill
#
# Bulk Modulus (GPa) = 51.83297 63.69672 57.76484
# Shear Modulus (GPa) = 14.33740 22.87990 18.60865
#
# Velocity S-wave (km/s) = 2.78246 3.51497 3.16994
# Velocity P-wave (km/s) = 6.18969 7.13226 6.67762
#
# Compressibility (1/GPa) = 0.01929274
#
# Stress axis : x y z
#
# Youngs Moduli (GPa) = 26.66328 65.72640 77.62196
#
# Poissons Ratio (x) = 0.84299 0.63243
# Poissons Ratio (y) = 0.34198 0.16933
# Poissons Ratio (z) = 0.21724 0.14338
#
# Static dielectric constant tensor:
#      x y z
#    x 1.619290 0.000000 0.000000 
#    y 0.000000 1.651100 0.000000 
#    z 0.000000 0.000000 1.638150 
# 
# From -- ./inp_files/64531.got.cif
#   From: 2010.05.17/outbox.cif.g08.bks.cpg/sg74_33_cif.got.tgz:64531.got - 2010.06.03 17:57:02.
