data_PCOD9537339
_publ_section_title
;
Structure prediction by ZEFSAII (Michael W. Deem and Ramdas Pophale) SiO2 
 PCOD9537339
Probable space group: I M M A
;
_chemical_formula_sum "Si O2"
_cell_formula_units_Z 96
_cell_length_a 9.247259
_cell_length_b 27.503071
_cell_length_c 19.892588
_cell_angle_alpha 90.000000
_cell_angle_beta 90.000000
_cell_angle_gamma 90.000000
_cell_volume 5059.242535
_symmetry_space_group_name_H-M "I M M A"
_symmetry_group_IT_number 74
_symmetry_cell_setting 'orthorhombic'
loop_
_space_group_symop_operation_xyz
x,y,z
-x,1/2-y,z
x,-y,-z
-x,1/2+y,-z
-x,-y,-z
x,1/2+y,-z
-x,y,z
x,1/2-y,z
1/2+x,1/2+y,1/2+z
1/2-x,-y,1/2+z
1/2+x,1/2-y,1/2-z
1/2-x,y,1/2-z
1/2-x,1/2-y,1/2-z
1/2+x,y,1/2-z
1/2-x,1/2+y,1/2+z
1/2+x,-y,1/2+z
loop_
_atom_site_type_symbol
_atom_site_label
_atom_site_fract_x
_atom_site_fract_y
_atom_site_fract_z
Si Si1 0.668904 0.470942 0.181333
Si Si2 0.835929 0.308233 0.450537
Si Si3 0.329792 0.588412 0.180919
Si Si4 0.666975 0.865955 0.445359
Si Si5 0.666962 0.455983 0.452744
Si Si6 0.666117 0.809476 0.682959
O O1 0.500000 0.458759 0.185613
O O2 0.750000 0.456963 0.250000
O O3 0.682621 0.529780 0.173988
O O4 0.741904 0.449988 0.114569
O O5 0.842794 0.250000 0.446261
O O6 0.751204 0.323090 0.517310
O O7 0.749504 0.324814 0.384200
O O8 0.000000 0.327463 0.450963
O O9 0.500000 0.600124 0.182860
O O10 0.250000 0.601667 0.250000
O O11 0.250307 0.614525 0.119518
O O12 0.500000 0.854230 0.430167
O O13 0.668096 0.908929 0.500598
O O14 0.721661 0.500000 0.500000
O O15 0.500000 0.467661 0.434148
O O16 0.500000 0.826004 0.682496
O O17 0.664035 0.750000 0.683621
O O18 0.750000 0.825003 0.750000
#
# Coordination Sequence:
#
# PCOD9537339 Si02
#       6
#    16  16  16  16  16  16
#     4  10  20  33  53  78 109 148 187 226 269 320
#     4  10  21  37  56  79 109 144 183 230 280 329
#     4  10  20  34  54  81 111 143 182 225 268 321
#     4  11  22  36  57  83 111 145 183 226 274 326
#     4  10  20  35  54  78 111 145 178 220 268 320
#     4   9  16  28  49  76 104 135 174 219 267 320
#
# _framework density 18.975173000000002
#
# number of rings (size 3 to 8) (size 9 to 14) (size 15 to 20)
#    0.000    2.000    1.667    2.500    0.000    6.000 
#    0.000    0.833    0.000    4.500    0.000    0.000 
#    0.000    0.000    0.000    0.000    0.000    0.000 
#
# Total GULP energy -268173.650844 kJ/mol
# GULP energy per Si atom -5586.951059 kJ/mol
# Density = 1.893199 g / cm^3
# Si number density = 18.975173 Si / 1000 Ang^3
#
#
#
# Elastic Constant Matrix: (Units=GPa)
#
#
# Indices 1 2 3 4 5 6 
#
# 1 174.0957 17.8345 96.8971 0.0000 0.0000 0.0000
# 2 17.8345 16.8591 13.4246 0.0000 0.0000 0.0000
# 3 96.8971 13.4246 157.4874 0.0001 0.0000 0.0001
# 4 0.0000 0.0000 0.0001 21.6496 0.0000 0.0000
# 5 0.0000 0.0000 0.0000 0.0000 40.6207 0.0000
# 6 0.0000 0.0000 0.0001 0.0000 0.0000 5.8057
#
#
#
# Elastic Compliance Matrix: (Units=1/GPa)
#
#
# Indices 1 2 3 4 5 6 
#
# 1 0.009204 -0.005608 -0.005185 0.000000 0.000000 0.000000
# 2 -0.005608 0.067051 -0.002265 0.000000 0.000000 0.000000
# 3 -0.005185 -0.002265 0.009733 0.000000 0.000000 0.000000
# 4 0.000000 0.000000 0.000000 0.046190 0.000000 0.000000
# 5 0.000000 0.000000 0.000000 0.000000 0.024618 0.000000
# 6 0.000000 0.000000 0.000000 0.000000 0.000000 0.172243
#
#
# Mechanical properties :
#
#
# Convention : Reuss Voigt Hill
#
# Bulk Modulus (GPa) = 16.70228 67.19494 41.94861
# Shear Modulus (GPa) = 13.32927 28.30094 20.81511
#
# Velocity S-wave (km/s) = 2.65327 3.86615 3.31564
# Velocity P-wave (km/s) = 4.26705 7.44435 6.06738
#
# Compressibility (1/GPa) = 0.05987206
#
# Stress axis : x y z
#
# Youngs Moduli (GPa) = 108.64411 14.91396 102.74284
#
# Poissons Ratio (x) = 0.08364 0.53273
# Poissons Ratio (y) = 0.60929 0.23272
# Poissons Ratio (z) = 0.56333 0.03378
#
# Static dielectric constant tensor:
#      x y z
#    x 1.653910 0.000000 0.000000 
#    y 0.000000 1.687510 0.000000 
#    z 0.000000 0.000000 1.617840 
# 
# From -- ./inp_files/49131.got.cif
#   From: 2010.05.17/outbox.cif.g08.bks.cpg/sg74_25_cif.got.tgz:49131.got - 2010.06.03 17:57:02.
