data_PCOD9537801
_publ_section_title
;
Structure prediction by ZEFSAII (Michael W. Deem and Ramdas Pophale) SiO2 
 PCOD9537801
Probable space group: I M M A
;
_chemical_formula_sum "Si O2"
_cell_formula_units_Z 72
_cell_length_a 12.758609
_cell_length_b 14.848579
_cell_length_c 17.966195
_cell_angle_alpha 90.000000
_cell_angle_beta 90.000000
_cell_angle_gamma 90.000000
_cell_volume 3403.645583
_symmetry_space_group_name_H-M "I M M A"
_symmetry_group_IT_number 74
_symmetry_cell_setting 'orthorhombic'
loop_
_space_group_symop_operation_xyz
x,y,z
-x,1/2-y,z
x,-y,-z
-x,1/2+y,-z
-x,-y,-z
x,1/2+y,-z
-x,y,z
x,1/2-y,z
1/2+x,1/2+y,1/2+z
1/2-x,-y,1/2+z
1/2+x,1/2-y,1/2-z
1/2-x,y,1/2-z
1/2-x,1/2-y,1/2-z
1/2+x,y,1/2-z
1/2-x,1/2+y,1/2+z
1/2+x,-y,1/2+z
loop_
_atom_site_type_symbol
_atom_site_label
_atom_site_fract_x
_atom_site_fract_y
_atom_site_fract_z
Si Si1 0.119481 0.750000 0.868538
Si Si2 0.120995 0.066398 0.713933
Si Si3 0.623008 0.051593 0.353465
Si Si4 0.835582 0.552939 0.573192
Si Si5 0.180347 0.750000 0.533319
Si Si6 0.871774 0.750000 0.360277
O O1 0.133693 0.655672 0.825480
O O2 0.200441 0.750000 0.936501
O O3 0.000000 0.750000 0.895999
O O4 0.164869 0.160101 0.682316
O O5 0.000000 0.088054 0.729988
O O6 0.156284 0.019063 0.790191
O O7 0.123462 0.994010 0.647386
O O8 0.500000 0.038586 0.372742
O O9 0.708622 0.045436 0.418390
O O10 0.869739 0.500000 0.500000
O O11 0.865762 0.657062 0.564705
O O12 0.170321 0.750000 0.444541
O O13 0.000000 0.750000 0.366027
#
# Coordination Sequence:
#
# PCOD9537801 Si02
#       6
#     8  16  16  16   8   8
#     4   8  16  33  59  84 113 143 178 231 286 330
#     4  10  21  37  57  80 111 147 188 229 276 331
#     4   9  19  36  57  83 111 146 185 229 280 330
#     4  11  21  35  57  81 113 145 186 228 281 333
#     4  10  20  35  53  83 115 141 182 229 280 334
#     4  10  20  36  57  80 111 149 186 232 276 324
#
# _framework density 21.153787999999999
#
# number of rings (size 3 to 8) (size 9 to 14) (size 15 to 20)
#    0.000    2.222    2.222    0.667    0.000    2.667 
#    0.000    7.778    0.000    0.000    0.000    0.000 
#    0.000    0.000    0.000    0.000    0.000    0.000 
#
# Total GULP energy -200737.448809 kJ/mol
# GULP energy per Si atom -5576.040245 kJ/mol
# Density = 2.110564 g / cm^3
# Si number density = 21.153788 Si / 1000 Ang^3
#
#
#
# Elastic Constant Matrix: (Units=GPa)
#
#
# Indices 1 2 3 4 5 6 
#
# 1 58.9328 18.9182 5.3944 0.0000 0.0000 0.0000
# 2 18.9182 186.2446 69.2564 0.0000 0.0000 0.0000
# 3 5.3944 69.2564 82.5806 0.0000 0.0000 0.0000
# 4 0.0000 0.0000 0.0000 35.2528 0.0000 0.0000
# 5 0.0000 0.0000 0.0000 0.0000 12.5736 0.0000
# 6 0.0000 0.0000 0.0000 0.0000 0.0000 5.4646
#
#
#
# Elastic Compliance Matrix: (Units=1/GPa)
#
#
# Indices 1 2 3 4 5 6 
#
# 1 0.017555 -0.001972 0.000507 0.000000 0.000000 0.000000
# 2 -0.001972 0.008024 -0.006601 0.000000 0.000000 0.000000
# 3 0.000507 -0.006601 0.017612 0.000000 0.000000 0.000000
# 4 0.000000 0.000000 0.000000 0.028367 0.000000 0.000000
# 5 0.000000 0.000000 0.000000 0.000000 0.079532 0.000000
# 6 0.000000 0.000000 0.000000 0.000000 0.000000 0.182995
#
#
# Mechanical properties :
#
#
# Convention : Reuss Voigt Hill
#
# Bulk Modulus (GPa) = 36.95490 57.21069 47.08280
# Shear Modulus (GPa) = 13.91845 26.27080 20.09463
#
# Velocity S-wave (km/s) = 2.56787 3.52788 3.08544
# Velocity P-wave (km/s) = 5.12830 6.61048 5.91599
#
# Compressibility (1/GPa) = 0.02706001
#
# Stress axis : x y z
#
# Youngs Moduli (GPa) = 56.96380 124.62556 56.77985
#
# Poissons Ratio (x) = 0.24572 -0.02877
# Poissons Ratio (y) = 0.11231 0.37478
# Poissons Ratio (z) = -0.02887 0.82260
#
# Static dielectric constant tensor:
#      x y z
#    x 1.840700 0.000000 0.000000 
#    y 0.000000 1.781510 0.000000 
#    z 0.000000 0.000000 1.685100 
# 
# From -- ./inp_files/42530.got.cif
#   From: 2010.05.17/outbox.cif.g08.bks.cpg/sg74_22_cif.got.tgz:42530.got - 2010.06.03 17:57:02.
