data_PCOD9537853
_publ_section_title
;
Structure prediction by ZEFSAII (Michael W. Deem and Ramdas Pophale) SiO2 
 PCOD9537853
Probable space group: I M M A
;
_chemical_formula_sum "Si O2"
_cell_formula_units_Z 96
_cell_length_a 19.500768
_cell_length_b 8.173357
_cell_length_c 30.891172
_cell_angle_alpha 90.000000
_cell_angle_beta 90.000000
_cell_angle_gamma 90.000000
_cell_volume 4923.643158
_symmetry_space_group_name_H-M "I M M A"
_symmetry_group_IT_number 74
_symmetry_cell_setting 'orthorhombic'
loop_
_space_group_symop_operation_xyz
x,y,z
-x,1/2-y,z
x,-y,-z
-x,1/2+y,-z
-x,-y,-z
x,1/2+y,-z
-x,y,z
x,1/2-y,z
1/2+x,1/2+y,1/2+z
1/2-x,-y,1/2+z
1/2+x,1/2-y,1/2-z
1/2-x,y,1/2-z
1/2-x,1/2-y,1/2-z
1/2+x,y,1/2-z
1/2-x,1/2+y,1/2+z
1/2+x,-y,1/2+z
loop_
_atom_site_type_symbol
_atom_site_label
_atom_site_fract_x
_atom_site_fract_y
_atom_site_fract_z
Si Si1 0.421533 0.055132 0.047651
Si Si2 0.078688 0.947752 0.801087
Si Si3 0.074482 0.053191 0.049151
Si Si4 0.321741 0.448901 0.380033
Si Si5 0.178428 0.053186 0.727229
Si Si6 0.668098 0.058297 0.870565
O O1 0.500000 0.990624 0.052058
O O2 0.424366 0.250000 0.046277
O O3 0.376889 0.009473 0.089730
O O4 0.395329 0.000000 0.000000
O O5 0.077210 0.750000 0.800847
O O6 0.130036 0.995994 0.839733
O O7 0.000000 0.004005 0.806284
O O8 0.115093 0.009333 0.757812
O O9 0.074122 0.250000 0.051214
O O10 0.136701 0.996777 0.077931
O O11 0.000000 0.996498 0.065814
O O12 0.080719 0.000000 0.000000
O O13 0.314186 0.250000 0.379553
O O14 0.247954 0.528805 0.379915
O O15 0.185385 0.250000 0.724206
O O16 0.250000 0.993310 0.750000
O O17 0.162758 0.989672 0.678698
O O18 0.652172 0.250000 0.868461
#
# Coordination Sequence:
#
# PCOD9537853 Si02
#       6
#    16  16  16  16  16  16
#     4  10  22  42  67  93 122 155 194 243 299 359
#     4  10  21  36  57  85 113 146 192 243 295 351
#     4   9  18  33  52  74 103 140 181 226 275 327
#     4  10  20  35  55  79 111 149 188 234 288 343
#     4  10  21  39  58  80 115 156 197 242 295 351
#     4  11  23  38  60  87 118 155 196 239 287 349
#
# _framework density 19.497757
#
# number of rings (size 3 to 8) (size 9 to 14) (size 15 to 20)
#    0.000    2.000    1.667    1.500    0.000    7.000 
#    0.000    5.000    0.000    3.000    0.000    0.000 
#    0.000    0.000    0.000    0.000    0.000    0.000 
#
# Total GULP energy -267751.135826 kJ/mol
# GULP energy per Si atom -5578.148663 kJ/mol
# Density = 1.945338 g / cm^3
# Si number density = 19.497757 Si / 1000 Ang^3
#
#
#
# Elastic Constant Matrix: (Units=GPa)
#
#
# Indices 1 2 3 4 5 6 
#
# 1 96.4369 2.7084 65.6853 0.0000 0.0000 0.0000
# 2 2.7084 13.1313 14.8336 0.0000 0.0000 0.0000
# 3 65.6853 14.8336 130.4846 0.0000 0.0000 0.0000
# 4 0.0000 0.0000 0.0000 20.3183 0.0000 0.0000
# 5 0.0000 0.0000 0.0000 0.0000 35.3211 0.0000
# 6 0.0000 0.0000 0.0000 0.0000 0.0000 2.2452
#
#
#
# Elastic Compliance Matrix: (Units=1/GPa)
#
#
# Indices 1 2 3 4 5 6 
#
# 1 0.016289 0.006773 -0.008970 0.000000 0.000000 0.000000
# 2 0.006773 0.090190 -0.013662 0.000000 0.000000 0.000000
# 3 -0.008970 -0.013662 0.013732 0.000000 0.000000 0.000000
# 4 0.000000 0.000000 0.000000 0.049217 0.000000 0.000000
# 5 0.000000 0.000000 0.000000 0.000000 0.028312 0.000000
# 6 0.000000 0.000000 0.000000 0.000000 0.000000 0.445396
#
#
# Mechanical properties :
#
#
# Convention : Reuss Voigt Hill
#
# Bulk Modulus (GPa) = 11.30035 45.16749 28.23392
# Shear Modulus (GPa) = 7.09873 22.03194 14.56534
#
# Velocity S-wave (km/s) = 1.91016 3.36515 2.73614
# Velocity P-wave (km/s) = 3.26699 6.18989 4.94914
#
# Compressibility (1/GPa) = 0.08849285
#
# Stress axis : x y z
#
# Youngs Moduli (GPa) = 61.39257 11.08766 72.82215
#
# Poissons Ratio (x) = -0.07509 0.65318
# Poissons Ratio (y) = -0.41579 0.99491
# Poissons Ratio (z) = 0.55066 0.15148
#
# Static dielectric constant tensor:
#      x y z
#    x 1.668680 0.000000 0.000000 
#    y 0.000000 1.694530 0.000000 
#    z 0.000000 0.000000 1.688250 
# 
# From -- ./inp_files/64249.got.cif
#   From: 2010.05.17/outbox.cif.g08.bks.cpg/sg74_33_cif.got.tgz:64249.got - 2010.06.03 17:57:02.
