data_PCOD9537901
_publ_section_title
;
Structure prediction by ZEFSAII (Michael W. Deem and Ramdas Pophale) SiO2 
 PCOD9537901
Probable space group: I M M A
;
_chemical_formula_sum "Si O2"
_cell_formula_units_Z 88
_cell_length_a 18.933602
_cell_length_b 27.389035
_cell_length_c 8.518555
_cell_angle_alpha 90.000000
_cell_angle_beta 90.000000
_cell_angle_gamma 90.000000
_cell_volume 4417.493370
_symmetry_space_group_name_H-M "I M M A"
_symmetry_group_IT_number 74
_symmetry_cell_setting 'orthorhombic'
loop_
_space_group_symop_operation_xyz
x,y,z
-x,1/2-y,z
x,-y,-z
-x,1/2+y,-z
-x,-y,-z
x,1/2+y,-z
-x,y,z
x,1/2-y,z
1/2+x,1/2+y,1/2+z
1/2-x,-y,1/2+z
1/2+x,1/2-y,1/2-z
1/2-x,y,1/2-z
1/2-x,1/2-y,1/2-z
1/2+x,y,1/2-z
1/2-x,1/2+y,1/2+z
1/2+x,-y,1/2+z
loop_
_atom_site_type_symbol
_atom_site_label
_atom_site_fract_x
_atom_site_fract_y
_atom_site_fract_z
Si Si1 0.917014 0.803933 0.082830
Si Si2 0.083511 0.404268 0.098211
Si Si3 0.828194 0.353642 0.679977
Si Si4 0.915015 0.948493 0.221498
Si Si5 0.662775 0.000000 0.000000
Si Si6 0.811225 0.100797 0.370370
O O1 0.908419 0.750000 0.011654
O O2 0.865554 0.809258 0.231802
O O3 0.000000 0.809053 0.127456
O O4 0.900836 0.850098 0.971339
O O5 0.120605 0.408115 0.264076
O O6 0.000000 0.408968 0.116444
O O7 0.104478 0.443808 0.963869
O O8 0.750000 0.362247 0.750000
O O9 0.882491 0.397883 0.714918
O O10 0.820370 0.355930 0.493893
O O11 0.882381 0.987181 0.343222
O O12 0.000000 0.950108 0.229931
O O13 0.704810 0.950331 0.960675
O O14 0.750000 0.111780 0.250000
#
# Coordination Sequence:
#
# PCOD9537901 Si02
#       6
#    16  16  16  16   8  16
#     4   9  18  36  62  87 110 141 181 222 269 331
#     4   9  19  35  56  80 109 143 176 221 281 336
#     4  10  20  35  56  80 108 144 182 223 272 327
#     4   9  18  35  55  76 105 141 182 228 277 329
#     4  10  23  34  52  78 103 142 194 238 271 324
#     4  11  23  37  54  77 109 147 185 229 281 333
#
# _framework density 19.920798999999999
#
# number of rings (size 3 to 8) (size 9 to 14) (size 15 to 20)
#    0.000    2.364    0.000    4.091    0.000    9.818 
#    0.000    2.727    0.000    4.364    0.000    0.000 
#    0.000    0.000    0.000    0.000    0.000    0.000 
#
# Total GULP energy -245146.740241 kJ/mol
# GULP energy per Si atom -5571.516824 kJ/mol
# Density = 1.987546 g / cm^3
# Si number density = 19.920799 Si / 1000 Ang^3
#
#
#
# Elastic Constant Matrix: (Units=GPa)
#
#
# Indices 1 2 3 4 5 6 
#
# 1 16.9543 6.9326 17.6100 0.0000 0.0000 0.0000
# 2 6.9326 81.6121 12.3127 0.0000 0.0000 0.0000
# 3 17.6100 12.3127 100.4013 0.0000 0.0000 0.0000
# 4 0.0000 0.0000 0.0000 22.1618 0.0000 0.0000
# 5 0.0000 0.0000 0.0000 0.0000 38.5615 0.0000
# 6 0.0000 0.0000 0.0000 0.0000 0.0000 11.1994
#
#
#
# Elastic Compliance Matrix: (Units=1/GPa)
#
#
# Indices 1 2 3 4 5 6 
#
# 1 0.073631 -0.004387 -0.012377 0.000000 0.000000 0.000000
# 2 -0.004387 0.012745 -0.000793 0.000000 0.000000 0.000000
# 3 -0.012377 -0.000793 0.012228 0.000000 0.000000 0.000000
# 4 0.000000 0.000000 0.000000 0.045123 0.000000 0.000000
# 5 0.000000 0.000000 0.000000 0.000000 0.025933 0.000000
# 6 0.000000 0.000000 0.000000 0.000000 0.000000 0.089290
#
#
# Mechanical properties :
#
#
# Convention : Reuss Voigt Hill
#
# Bulk Modulus (GPa) = 15.75052 30.29758 23.02405
# Shear Modulus (GPa) = 15.86149 25.19204 20.52676
#
# Velocity S-wave (km/s) = 2.82481 3.55999 3.21350
# Velocity P-wave (km/s) = 4.30850 5.66922 5.03504
#
# Compressibility (1/GPa) = 0.06348998
#
# Stress axis : x y z
#
# Youngs Moduli (GPa) = 13.58115 78.45911 81.77855
#
# Poissons Ratio (x) = 0.34424 1.01214
# Poissons Ratio (y) = 0.05959 0.06489
# Poissons Ratio (z) = 0.16809 0.06226
#
# Static dielectric constant tensor:
#      x y z
#    x 1.480670 0.000000 0.000000 
#    y 0.000000 1.730050 0.000000 
#    z 0.000000 0.000000 1.756170 
# 
# From -- ./inp_files/11260.got.cif
#   From: 2010.05.17/outbox.cif.g08.bks.cpg/sg74_6_cif.got.tgz:11260.got - 2010.06.03 17:57:02.
