data_PCOD9537306
_publ_section_title
;
Structure prediction by ZEFSAII (Michael W. Deem and Ramdas Pophale) SiO2 
 PCOD9537306
Probable space group: I M M A
;
_chemical_formula_sum "Si O2"
_cell_formula_units_Z 96
_cell_length_a 22.597778
_cell_length_b 7.790130
_cell_length_c 24.483933
_cell_angle_alpha 90.000000
_cell_angle_beta 90.000000
_cell_angle_gamma 90.000000
_cell_volume 4310.142465
_symmetry_space_group_name_H-M "I M M A"
_symmetry_group_IT_number 74
_symmetry_cell_setting 'orthorhombic'
loop_
_space_group_symop_operation_xyz
x,y,z
-x,1/2-y,z
x,-y,-z
-x,1/2+y,-z
-x,-y,-z
x,1/2+y,-z
-x,y,z
x,1/2-y,z
1/2+x,1/2+y,1/2+z
1/2-x,-y,1/2+z
1/2+x,1/2-y,1/2-z
1/2-x,y,1/2-z
1/2-x,1/2-y,1/2-z
1/2+x,y,1/2-z
1/2-x,1/2+y,1/2+z
1/2+x,-y,1/2+z
loop_
_atom_site_type_symbol
_atom_site_label
_atom_site_fract_x
_atom_site_fract_y
_atom_site_fract_z
Si Si1 0.266111 0.447796 0.327343
Si Si2 0.568184 0.956846 0.939090
Si Si3 0.891946 0.447978 0.783226
Si Si4 0.063980 0.540441 0.100759
Si Si5 0.363997 0.452153 0.168082
Si Si6 0.310412 0.545475 0.440492
O O1 0.268946 0.250000 0.308816
O O2 0.322834 0.537770 0.300906
O O3 0.201216 0.524904 0.318601
O O4 0.275284 0.456469 0.392218
O O5 0.500000 0.019451 0.935734
O O6 0.566587 0.750000 0.935196
O O7 0.605480 0.021231 0.886881
O O8 0.590915 0.000000 0.000000
O O9 0.908354 0.250000 0.777738
O O10 0.925765 0.517932 0.836525
O O11 0.900676 0.529697 0.723991
O O12 0.064426 0.750000 0.101557
O O13 0.121150 0.487629 0.066445
O O14 0.000000 0.483000 0.080546
O O15 0.354012 0.250000 0.158469
O O16 0.288292 0.500000 0.500000
O O17 0.307799 0.750000 0.431817
#
# Coordination Sequence:
#
# PCOD9537306 Si02
#       6
#    16  16  16  16  16  16
#     4  10  20  35  53  73 103 139 172 211 256 301
#     4   9  19  37  57  76 102 133 166 208 255 302
#     4  10  20  33  52  78 106 136 170 210 254 301
#     4   8  16  32  51  72 101 135 170 210 253 295
#     4  10  21  35  53  78 104 134 170 206 251 306
#     4  10  20  34  53  76 103 136 173 214 258 304
#
# _framework density 22.273046000000001
#
# number of rings (size 3 to 8) (size 9 to 14) (size 15 to 20)
#    0.000    2.500    0.000    3.000    0.000    5.667 
#    0.000    1.667    0.000   17.000    0.000    0.000 
#    0.000    0.000    0.000    0.000    0.000    0.000 
#
# Total GULP energy -267900.946047 kJ/mol
# GULP energy per Si atom -5581.269709 kJ/mol
# Density = 2.222235 g / cm^3
# Si number density = 22.273046 Si / 1000 Ang^3
#
#
#
# Elastic Constant Matrix: (Units=GPa)
#
#
# Indices 1 2 3 4 5 6 
#
# 1 9.3813 -2.1598 -17.6510 0.0000 0.0000 0.0000
# 2 -2.1598 36.7065 -9.1623 0.0000 0.0000 0.0000
# 3 -17.6510 -9.1623 110.5839 0.0000 0.0000 0.0000
# 4 0.0000 0.0000 0.0000 23.8060 0.0000 0.0000
# 5 0.0000 0.0000 0.0000 0.0000 -11.1408 0.0000
# 6 0.0000 0.0000 0.0000 0.0000 0.0000 6.3885
#
#
#
# Elastic Compliance Matrix: (Units=1/GPa)
#
#
# Indices 1 2 3 4 5 6 
#
# 1 0.161319 0.016255 0.027096 0.000000 0.000000 0.000000
# 2 0.016255 0.029456 0.005035 0.000000 0.000000 0.000000
# 3 0.027096 0.005035 0.013785 0.000000 0.000000 0.000000
# 4 0.000000 0.000000 0.000000 0.042006 0.000000 0.000000
# 5 0.000000 0.000000 0.000000 0.000000 -0.089760 0.000000
# 6 0.000000 0.000000 0.000000 0.000000 0.000000 0.156530
#
#
# Mechanical properties :
#
#
# Convention : Reuss Voigt Hill
#
# Bulk Modulus (GPa) = 3.31859 10.96951 7.14405
# Shear Modulus (GPa) = 15.77251 16.18709 15.97980
#
# Velocity S-wave (km/s) = 2.66398 2.69877 2.68143
# Velocity P-wave (km/s) = 3.30992 3.82712 3.57788
#
# Compressibility (1/GPa) = 0.30133302
#
# Stress axis : x y z
#
# Youngs Moduli (GPa) = 6.19891 33.94849 72.54242
#
# Poissons Ratio (x) = -0.55185 -1.96560
# Poissons Ratio (y) = -0.10077 -0.36527
# Poissons Ratio (z) = -0.16797 -0.17094
#
# Static dielectric constant tensor:
#      x y z
#    x 1.834610 0.000000 0.000000 
#    y 0.000000 1.816240 0.000000 
#    z 0.000000 0.000000 1.810430 
# 
# From -- ./inp_files/57288.got.cif
#   From: 2010.05.17/outbox.cif.g08.bks.cpg/sg74_29_cif.got.tgz:57288.got - 2010.06.03 17:57:02.
