data_PCOD9537167
_publ_section_title
;
Structure prediction by ZEFSAII (Michael W. Deem and Ramdas Pophale) SiO2 
 PCOD9537167
Probable space group: I M M A
;
_chemical_formula_sum "Si O2"
_cell_formula_units_Z 112
_cell_length_a 14.150784
_cell_length_b 14.266599
_cell_length_c 32.075281
_cell_angle_alpha 90.000000
_cell_angle_beta 90.000000
_cell_angle_gamma 90.000000
_cell_volume 6475.471944
_symmetry_space_group_name_H-M "I M M A"
_symmetry_group_IT_number 74
_symmetry_cell_setting 'orthorhombic'
loop_
_space_group_symop_operation_xyz
x,y,z
-x,1/2-y,z
x,-y,-z
-x,1/2+y,-z
-x,-y,-z
x,1/2+y,-z
-x,y,z
x,1/2-y,z
1/2+x,1/2+y,1/2+z
1/2-x,-y,1/2+z
1/2+x,1/2-y,1/2-z
1/2-x,y,1/2-z
1/2-x,1/2-y,1/2-z
1/2+x,y,1/2-z
1/2-x,1/2+y,1/2+z
1/2+x,-y,1/2+z
loop_
_atom_site_type_symbol
_atom_site_label
_atom_site_fract_x
_atom_site_fract_y
_atom_site_fract_z
Si Si1 0.385724 0.141344 0.825537
Si Si2 0.641753 0.855874 0.765337
Si Si3 0.305657 0.550660 0.850424
Si Si4 0.605422 0.035936 0.317394
Si Si5 0.614435 0.855222 0.025275
Si Si6 0.614367 0.852123 0.271027
Si Si7 0.113748 0.053590 0.437335
O O1 0.500000 0.127973 0.828918
O O2 0.367463 0.250000 0.837205
O O3 0.357453 0.129525 0.776701
O O4 0.332773 0.059678 0.849861
O O5 0.607112 0.750000 0.769212
O O6 0.750000 0.852343 0.750000
O O7 0.640988 0.906761 0.809902
O O8 0.597177 0.910707 0.726805
O O9 0.194337 0.571508 0.843771
O O10 0.341501 0.587913 0.894457
O O11 0.500000 0.035703 0.336403
O O12 0.637359 0.932406 0.303172
O O13 0.500000 0.853390 0.028307
O O14 0.648063 0.750000 0.036091
O O15 0.644120 0.946067 0.052094
O O16 0.637006 0.882743 0.977433
O O17 0.500000 0.849454 0.269648
O O18 0.649673 0.750000 0.283519
O O19 0.000000 0.052960 0.433223
#
# Coordination Sequence:
#
# PCOD9537167 Si02
#       7
#    16  16  16  16  16  16  16
#     4   9  17  28  43  65  92 119 149 190 240 288
#     4   9  19  34  48  63  86 120 164 210 250 282
#     4  11  20  30  47  71  97 124 156 201 244 276
#     4  10  20  33  46  62  90 130 172 205 235 273
#     4   8  15  31  52  71  95 124 145 168 218 288
#     4   8  14  26  43  59  79 113 155 194 230 271
#     4   9  18  30  47  73  99 120 146 181 223 281
#
# _framework density 17.296036999999998
#
# number of rings (size 3 to 8) (size 9 to 14) (size 15 to 20)
#    0.000    2.857    1.429    2.143    0.000    2.571 
#    0.000    2.857    0.000    0.000    0.000    2.000 
#    0.000    1.143    0.000    0.000    0.000    0.000 
#
# Total GULP energy -311995.443261 kJ/mol
# GULP energy per Si atom -5571.347201 kJ/mol
# Density = 1.725667 g / cm^3
# Si number density = 17.296037 Si / 1000 Ang^3
#
#
#
# Elastic Constant Matrix: (Units=GPa)
#
#
# Indices 1 2 3 4 5 6 
#
# 1 63.4655 1.5191 16.6066 0.0000 0.0000 0.0000
# 2 1.5191 49.0665 4.6376 0.0000 0.0000 0.0000
# 3 16.6066 4.6376 68.2603 0.0000 0.0000 0.0000
# 4 0.0000 0.0000 0.0000 4.4857 0.0000 0.0000
# 5 0.0000 0.0000 0.0000 0.0000 20.8046 0.0000
# 6 0.0000 0.0000 0.0000 0.0000 0.0000 18.8930
#
#
#
# Elastic Compliance Matrix: (Units=1/GPa)
#
#
# Indices 1 2 3 4 5 6 
#
# 1 0.016829 -0.000135 -0.004085 0.000000 0.000000 0.000000
# 2 -0.000135 0.020513 -0.001361 0.000000 0.000000 0.000000
# 3 -0.004085 -0.001361 0.015736 0.000000 0.000000 0.000000
# 4 0.000000 0.000000 0.000000 0.222931 0.000000 0.000000
# 5 0.000000 0.000000 0.000000 0.000000 0.048066 0.000000
# 6 0.000000 0.000000 0.000000 0.000000 0.000000 0.052930
#
#
# Mechanical properties :
#
#
# Convention : Reuss Voigt Hill
#
# Bulk Modulus (GPa) = 23.85689 25.14653 24.50171
# Shear Modulus (GPa) = 12.43351 19.37194 15.90273
#
# Velocity S-wave (km/s) = 2.68407 3.35030 3.03552
# Velocity P-wave (km/s) = 4.84034 5.43475 5.14613
#
# Compressibility (1/GPa) = 0.04191661
#
# Stress axis : x y z
#
# Youngs Moduli (GPa) = 59.42222 48.74885 63.54826
#
# Poissons Ratio (x) = 0.00658 0.25959
# Poissons Ratio (y) = 0.00802 0.08648
# Poissons Ratio (z) = 0.24274 0.06634
#
# Static dielectric constant tensor:
#      x y z
#    x 1.625230 0.000000 0.000000 
#    y 0.000000 1.651310 0.000000 
#    z 0.000000 0.000000 1.576220 
# 
# From -- ./inp_files/67235.got.cif
#   From: 2010.05.17/outbox.cif.g08.bks.cpg/sg74_34_cif.got.tgz:67235.got - 2010.06.03 17:57:02.
