data_PCOD9537616
_publ_section_title
;
Structure prediction by ZEFSAII (Michael W. Deem and Ramdas Pophale) SiO2 
 PCOD9537616
Probable space group: I M M A
;
_chemical_formula_sum "Si O2"
_cell_formula_units_Z 96
_cell_length_a 23.570795
_cell_length_b 22.984020
_cell_length_c 9.362313
_cell_angle_alpha 90.000000
_cell_angle_beta 90.000000
_cell_angle_gamma 90.000000
_cell_volume 5072.048269
_symmetry_space_group_name_H-M "I M M A"
_symmetry_group_IT_number 74
_symmetry_cell_setting 'orthorhombic'
loop_
_space_group_symop_operation_xyz
x,y,z
-x,1/2-y,z
x,-y,-z
-x,1/2+y,-z
-x,-y,-z
x,1/2+y,-z
-x,y,z
x,1/2-y,z
1/2+x,1/2+y,1/2+z
1/2-x,-y,1/2+z
1/2+x,1/2-y,1/2-z
1/2-x,y,1/2-z
1/2-x,1/2-y,1/2-z
1/2+x,y,1/2-z
1/2-x,1/2+y,1/2+z
1/2+x,-y,1/2+z
loop_
_atom_site_type_symbol
_atom_site_label
_atom_site_fract_x
_atom_site_fract_y
_atom_site_fract_z
Si Si1 0.343989 0.643193 0.735834
Si Si2 0.367505 0.870158 0.195892
Si Si3 0.305364 0.250000 0.842106
Si Si4 0.718316 0.930704 0.984718
Si Si5 0.280959 0.250000 0.396933
Si Si6 0.936163 0.682407 0.538331
Si Si7 0.354372 0.068387 0.510924
O O1 0.302888 0.604390 0.841707
O O2 0.317568 0.690814 0.623870
O O3 0.387859 0.673792 0.842697
O O4 0.375786 0.598399 0.632986
O O5 0.341287 0.805813 0.201046
O O6 0.377009 0.900833 0.346575
O O7 0.318551 0.904655 0.112260
O O8 0.420894 0.860970 0.091273
O O9 0.250000 0.250000 0.750000
O O10 0.273031 0.250000 0.995325
O O11 0.785579 0.922869 0.005944
O O12 0.708294 0.000000 0.000000
O O13 0.250000 0.250000 0.250000
O O14 0.932947 0.750000 0.491182
O O15 0.000000 0.672222 0.590867
O O16 0.365134 0.000000 0.500000
#
# Coordination Sequence:
#
# PCOD9537616 Si02
#       7
#    16  16   8  16   8  16  16
#     4  11  21  35  57  85 116 153 194 241 287 341
#     4  11  21  36  56  84 118 154 193 235 287 339
#     4  12  22  32  50  83 126 157 176 218 282 355
#     4  10  20  34  54  81 118 165 203 225 263 338
#     4  12  20  30  50  83 120 149 182 228 288 335
#     4  10  21  42  64  82 107 143 196 247 297 355
#     4  11  22  36  56  85 122 160 194 230 277 342
#
# _framework density 18.927264000000001
#
# number of rings (size 3 to 8) (size 9 to 14) (size 15 to 20)
#    0.000    1.167    1.667    8.000    0.000    2.667 
#    0.000    0.833    0.000   21.000    0.000    0.000 
#    0.000    0.000    0.000    0.000    0.000    0.000 
#
# Total GULP energy -267446.876614 kJ/mol
# GULP energy per Si atom -5571.809929 kJ/mol
# Density = 1.888418 g / cm^3
# Si number density = 18.927264 Si / 1000 Ang^3
#
#
#
# Elastic Constant Matrix: (Units=GPa)
#
#
# Indices 1 2 3 4 5 6 
#
# 1 35.9081 24.1908 -6.6276 0.0000 0.0000 0.0000
# 2 24.1908 132.7734 27.9038 0.0000 0.0000 0.0000
# 3 -6.6276 27.9038 92.3969 0.0000 0.0000 0.0000
# 4 0.0000 0.0000 0.0000 25.3621 0.0000 0.0000
# 5 0.0000 0.0000 0.0000 0.0000 12.8521 0.0000
# 6 0.0000 0.0000 0.0000 0.0000 0.0000 23.3584
#
#
#
# Elastic Compliance Matrix: (Units=1/GPa)
#
#
# Indices 1 2 3 4 5 6 
#
# 1 0.033427 -0.007041 0.004524 0.000000 0.000000 0.000000
# 2 -0.007041 0.009525 -0.003382 0.000000 0.000000 0.000000
# 3 0.004524 -0.003382 0.012169 0.000000 0.000000 0.000000
# 4 0.000000 0.000000 0.000000 0.039429 0.000000 0.000000
# 5 0.000000 0.000000 0.000000 0.000000 0.077808 0.000000
# 6 0.000000 0.000000 0.000000 0.000000 0.000000 0.042811
#
#
# Mechanical properties :
#
#
# Convention : Reuss Voigt Hill
#
# Bulk Modulus (GPa) = 23.08187 39.11247 31.09717
# Shear Modulus (GPa) = 20.71182 26.68863 23.70023
#
# Velocity S-wave (km/s) = 3.31159 3.75915 3.54245
# Velocity P-wave (km/s) = 5.18109 6.28897 5.76172
#
# Compressibility (1/GPa) = 0.04332404
#
# Stress axis : x y z
#
# Youngs Moduli (GPa) = 29.91552 104.98472 82.17837
#
# Poissons Ratio (x) = 0.73921 -0.37179
# Poissons Ratio (y) = 0.21064 0.27790
# Poissons Ratio (z) = -0.13534 0.35502
#
# Static dielectric constant tensor:
#      x y z
#    x 1.624880 0.000000 0.000000 
#    y 0.000000 1.807390 0.000000 
#    z 0.000000 0.000000 1.628310 
# 
# From -- ./inp_files/13941.got.cif
#   From: 2010.05.17/outbox.cif.g08.bks.cpg/sg74_7_cif.got.tgz:13941.got - 2010.06.03 17:57:02.
