data_PCOD9537751
_publ_section_title
;
Structure prediction by ZEFSAII (Michael W. Deem and Ramdas Pophale) SiO2 
 PCOD9537751
Probable space group: I M M A
;
_chemical_formula_sum "Si O2"
_cell_formula_units_Z 84
_cell_length_a 15.273355
_cell_length_b 23.701622
_cell_length_c 10.859037
_cell_angle_alpha 90.000000
_cell_angle_beta 90.000000
_cell_angle_gamma 90.000000
_cell_volume 3931.007086
_symmetry_space_group_name_H-M "I M M A"
_symmetry_group_IT_number 74
_symmetry_cell_setting 'orthorhombic'
loop_
_space_group_symop_operation_xyz
x,y,z
-x,1/2-y,z
x,-y,-z
-x,1/2+y,-z
-x,-y,-z
x,1/2+y,-z
-x,y,z
x,1/2-y,z
1/2+x,1/2+y,1/2+z
1/2-x,-y,1/2+z
1/2+x,1/2-y,1/2-z
1/2-x,y,1/2-z
1/2-x,1/2-y,1/2-z
1/2+x,y,1/2-z
1/2-x,1/2+y,1/2+z
1/2+x,-y,1/2+z
loop_
_atom_site_type_symbol
_atom_site_label
_atom_site_fract_x
_atom_site_fract_y
_atom_site_fract_z
Si Si1 0.821991 0.629292 0.016529
Si Si2 0.695143 0.540405 0.120083
Si Si3 0.000000 0.912178 0.372922
Si Si4 0.851832 0.311996 0.219340
Si Si5 0.000000 0.750000 0.124045
Si Si6 0.685149 0.750000 0.360187
Si Si7 0.500000 0.126508 0.610060
Si Si8 0.000000 0.315805 0.421948
O O1 0.738432 0.597344 0.066771
O O2 0.807912 0.693448 0.061510
O O3 0.907917 0.600426 0.074568
O O4 0.850022 0.636567 0.875523
O O5 0.750000 0.527153 0.250000
O O6 0.590299 0.551252 0.135526
O O7 0.707464 0.500000 0.000000
O O8 0.000000 0.870986 0.255598
O O9 0.000000 0.868603 0.486243
O O10 0.880226 0.250000 0.169055
O O11 0.750000 0.306982 0.250000
O O12 0.914283 0.321506 0.335141
O O13 0.088654 0.750000 0.197713
O O14 0.000000 0.809848 0.053601
O O15 0.750000 0.750000 0.250000
O O16 0.000000 0.250000 0.469010
#
# Coordination Sequence:
#
# PCOD9537751 Si02
#       8
#    16  16   8  16   4   8   8   8
#     4  11  21  42  67 101 138 180 233 283 346 417
#     4  12  28  51  75 102 139 185 241 303 359 426
#     4  12  25  48  71 100 139 175 228 292 363 411
#     4  10  20  37  58  92 140 189 229 265 326 412
#     4   8  20  32  50  94 140 170 200 250 324 430
#     4  10  20  34  59  96 137 177 212 272 350 407
#     4  10  21  37  67 100 137 171 219 278 347 401
#     4  10  23  40  64 102 149 193 226 274 343 434
#
# _framework density 21.368569999999998
#
# number of rings (size 3 to 8) (size 9 to 14) (size 15 to 20)
#    0.000    1.333    2.857    2.571    3.333    2.286 
#    1.714    1.905    0.000    0.000    0.000    0.000 
#    0.000    0.000    0.000    0.000    0.000    0.000 
#
# Total GULP energy -233814.110230 kJ/mol
# GULP energy per Si atom -5567.002625 kJ/mol
# Density = 2.131993 g / cm^3
# Si number density = 21.368570 Si / 1000 Ang^3
#
#
#
# Elastic Constant Matrix: (Units=GPa)
#
#
# Indices 1 2 3 4 5 6 
#
# 1 148.1827 30.2371 33.4229 0.0000 0.0000 0.0000
# 2 30.2371 53.6991 38.3537 0.0000 0.0000 0.0000
# 3 33.4229 38.3537 107.7114 -0.0002 -0.0001 0.0000
# 4 0.0000 0.0000 -0.0002 21.3388 0.0000 0.0000
# 5 0.0000 0.0000 -0.0001 0.0000 31.6948 0.0000
# 6 0.0000 0.0000 0.0000 0.0000 0.0000 10.4290
#
#
#
# Elastic Compliance Matrix: (Units=1/GPa)
#
#
# Indices 1 2 3 4 5 6 
#
# 1 0.007727 -0.003538 -0.001138 0.000000 0.000000 0.000000
# 2 -0.003538 0.026594 -0.008372 0.000000 0.000000 0.000000
# 3 -0.001138 -0.008372 0.012618 0.000000 0.000000 0.000000
# 4 0.000000 0.000000 0.000000 0.046863 0.000000 0.000000
# 5 0.000000 0.000000 0.000000 0.000000 0.031551 0.000000
# 6 0.000000 0.000000 0.000000 0.000000 0.000000 0.095887
#
#
# Mechanical properties :
#
#
# Convention : Reuss Voigt Hill
#
# Bulk Modulus (GPa) = 47.97624 57.06897 52.52260
# Shear Modulus (GPa) = 19.66312 26.53113 23.09713
#
# Velocity S-wave (km/s) = 3.03675 3.52745 3.29126
# Velocity P-wave (km/s) = 5.89884 6.58449 6.25107
#
# Compressibility (1/GPa) = 0.02084365
#
# Stress axis : x y z
#
# Youngs Moduli (GPa) = 129.41522 37.60255 79.25149
#
# Poissons Ratio (x) = 0.13305 0.09017
# Poissons Ratio (y) = 0.45792 0.66346
# Poissons Ratio (z) = 0.14725 0.31479
#
# Static dielectric constant tensor:
#      x y z
#    x 3.096250 0.000060 0.000010 
#    y 0.000060 1.861270 0.000000 
#    z 0.000010 0.000000 1.864970 
# 
# From -- ./inp_files/20723.got.cif
#   From: 2010.05.17/outbox.cif.g08.bks.cpg/sg74_11_cif.got.tgz:20723.got - 2010.06.03 17:57:02.
