data_PCOD9537274
_publ_section_title
;
Structure prediction by ZEFSAII (Michael W. Deem and Ramdas Pophale) SiO2 
 PCOD9537274
Probable space group: I M M A
;
_chemical_formula_sum "Si O2"
_cell_formula_units_Z 48
_cell_length_a 7.786784
_cell_length_b 8.544396
_cell_length_c 39.068050
_cell_angle_alpha 90.000000
_cell_angle_beta 90.000000
_cell_angle_gamma 90.000000
_cell_volume 2599.328872
_symmetry_space_group_name_H-M "I M M A"
_symmetry_group_IT_number 74
_symmetry_cell_setting 'orthorhombic'
loop_
_space_group_symop_operation_xyz
x,y,z
-x,1/2-y,z
x,-y,-z
-x,1/2+y,-z
-x,-y,-z
x,1/2+y,-z
-x,y,z
x,1/2-y,z
1/2+x,1/2+y,1/2+z
1/2-x,-y,1/2+z
1/2+x,1/2-y,1/2-z
1/2-x,y,1/2-z
1/2-x,1/2-y,1/2-z
1/2+x,y,1/2-z
1/2-x,1/2+y,1/2+z
1/2+x,-y,1/2+z
loop_
_atom_site_type_symbol
_atom_site_label
_atom_site_fract_x
_atom_site_fract_y
_atom_site_fract_z
Si Si1 0.000000 0.436026 0.414839
Si Si2 0.694305 0.940899 0.288193
Si Si3 0.500000 0.560187 0.162060
Si Si4 0.801823 0.937637 0.037947
O O1 0.000000 0.496377 0.376084
O O2 0.167343 0.497459 0.434909
O O3 0.000000 0.250000 0.415424
O O4 0.500000 0.991857 0.295344
O O5 0.695234 0.750000 0.287969
O O6 0.750000 0.989721 0.250000
O O7 0.832844 0.989947 0.316287
O O8 0.500000 0.750000 0.160703
O O9 0.792078 0.750000 0.037628
O O10 0.000000 0.983003 0.045397
O O11 0.759744 0.000000 0.000000
#
# Coordination Sequence:
#
# PCOD9537274 Si02
#       4
#     8  16   8  16
#     4  12  25  39  56  80 119 162 200 238 284 341
#     4   9  15  26  48  78 106 132 169 225 287 339
#     4  10  20  33  51  78 110 142 185 236 287 341
#     4  10  21  39  64  91 118 150 192 239 288 341
#
# _framework density 18.466304000000001
#
# number of rings (size 3 to 8) (size 9 to 14) (size 15 to 20)
#    0.000    2.000    1.667    3.000    0.000    3.333 
#    0.000    3.333    0.000    1.000    0.000    0.000 
#    0.000    0.000    0.000    0.000    0.000    0.000 
#
# Total GULP energy -134035.991279 kJ/mol
# GULP energy per Si atom -5584.832970 kJ/mol
# Density = 1.842427 g / cm^3
# Si number density = 18.466304 Si / 1000 Ang^3
#
#
#
# Elastic Constant Matrix: (Units=GPa)
#
#
# Indices 1 2 3 4 5 6 
#
# 1 188.5869 39.4034 136.6934 0.0000 0.0000 0.0000
# 2 39.4034 40.7978 43.6654 0.0000 0.0000 0.0000
# 3 136.6934 43.6654 199.8569 0.0000 0.0000 0.0000
# 4 0.0000 0.0000 0.0000 23.8235 0.0000 0.0000
# 5 0.0000 0.0000 0.0000 0.0000 -5.4986 0.0000
# 6 0.0000 0.0000 0.0000 0.0000 0.0000 6.9932
#
#
#
# Elastic Compliance Matrix: (Units=1/GPa)
#
#
# Indices 1 2 3 4 5 6 
#
# 1 0.010848 -0.003310 -0.006696 0.000000 0.000000 0.000000
# 2 -0.003310 0.033002 -0.004946 0.000000 0.000000 0.000000
# 3 -0.006696 -0.004946 0.010664 0.000000 0.000000 0.000000
# 4 0.000000 0.000000 0.000000 0.041975 0.000000 0.000000
# 5 0.000000 0.000000 0.000000 0.000000 -0.181866 0.000000
# 6 0.000000 0.000000 0.000000 0.000000 0.000000 0.142995
#
#
# Mechanical properties :
#
#
# Convention : Reuss Voigt Hill
#
# Bulk Modulus (GPa) = 40.63607 96.52957 68.58282
# Shear Modulus (GPa) = 52.23131 19.02892 35.63012
#
# Velocity S-wave (km/s) = 5.32410 3.21357 4.39733
# Velocity P-wave (km/s) = 7.73615 8.13365 7.93739
#
# Compressibility (1/GPa) = 0.02460868
#
# Stress axis : x y z
#
# Youngs Moduli (GPa) = 92.18394 30.30088 93.77132
#
# Poissons Ratio (x) = 0.10030 0.62792
# Poissons Ratio (y) = 0.30515 0.46383
# Poissons Ratio (z) = 0.61729 0.14988
#
# Static dielectric constant tensor:
#      x y z
#    x 1.640560 0.000000 0.000000 
#    y 0.000000 1.629760 0.000000 
#    z 0.000000 0.000000 1.590700 
# 
# From -- ./inp_files/69532.got.cif
#   From: 2010.05.17/outbox.cif.g08.bks.cpg/sg74_35_cif.got.tgz:69532.got - 2010.06.03 17:57:02.
