data_PCOD9537235
_publ_section_title
;
Structure prediction by ZEFSAII (Michael W. Deem and Ramdas Pophale) SiO2 
 PCOD9537235
Probable space group: I M M A
;
_chemical_formula_sum "Si O2"
_cell_formula_units_Z 80
_cell_length_a 11.379528
_cell_length_b 14.084695
_cell_length_c 26.174478
_cell_angle_alpha 90.000000
_cell_angle_beta 90.000000
_cell_angle_gamma 90.000000
_cell_volume 4195.171551
_symmetry_space_group_name_H-M "I M M A"
_symmetry_group_IT_number 74
_symmetry_cell_setting 'orthorhombic'
loop_
_space_group_symop_operation_xyz
x,y,z
-x,1/2-y,z
x,-y,-z
-x,1/2+y,-z
-x,-y,-z
x,1/2+y,-z
-x,y,z
x,1/2-y,z
1/2+x,1/2+y,1/2+z
1/2-x,-y,1/2+z
1/2+x,1/2-y,1/2-z
1/2-x,y,1/2-z
1/2-x,1/2-y,1/2-z
1/2+x,y,1/2-z
1/2-x,1/2+y,1/2+z
1/2+x,-y,1/2+z
loop_
_atom_site_type_symbol
_atom_site_label
_atom_site_fract_x
_atom_site_fract_y
_atom_site_fract_z
Si Si1 0.632988 0.635414 0.281950
Si Si2 0.775709 0.856003 0.575856
Si Si3 0.870467 0.608425 0.018309
Si Si4 0.500000 0.135207 0.890231
Si Si5 0.750302 0.058500 0.879669
Si Si6 0.000000 0.635856 0.508875
O O1 0.500000 0.609592 0.263876
O O2 0.635528 0.750000 0.285046
O O3 0.750000 0.607008 0.250000
O O4 0.657399 0.591281 0.337467
O O5 0.798378 0.750000 0.597924
O O6 0.676380 0.844946 0.532921
O O7 0.886786 0.889855 0.541872
O O8 0.747900 0.944521 0.612368
O O9 0.784761 0.609448 0.066736
O O10 0.000000 0.640301 0.033463
O O11 0.876681 0.500000 0.000000
O O12 0.500000 0.250000 0.886753
O O13 0.619387 0.094209 0.866498
O O14 0.500000 0.104216 0.950291
O O15 0.000000 0.750000 0.505837
#
# Coordination Sequence:
#
# PCOD9537235 Si02
#       6
#    16  16  16   8  16   8
#     4  10  23  43  65  88 113 142 180 234 296 357
#     4  10  20  33  50  78 114 153 192 228 268 323
#     4   9  18  31  47  71 105 144 185 226 269 321
#     4  11  21  31  52  84 113 149 196 240 282 331
#     4  11  21  34  57  81 110 148 187 232 283 338
#     4   9  17  31  47  72 115 155 192 231 267 312
#
# _framework density 19.069541999999998
#
# number of rings (size 3 to 8) (size 9 to 14) (size 15 to 20)
#    0.000    2.000    2.000    1.800    1.400    2.800 
#    0.000    0.000    0.000    0.600    0.000    0.000 
#    0.000    0.000    0.000    0.000    0.000    0.000 
#
# Total GULP energy -223017.440649 kJ/mol
# GULP energy per Si atom -5575.436016 kJ/mol
# Density = 1.902614 g / cm^3
# Si number density = 19.069542 Si / 1000 Ang^3
#
#
#
# Elastic Constant Matrix: (Units=GPa)
#
#
# Indices 1 2 3 4 5 6 
#
# 1 129.5619 23.2941 19.6433 0.0000 0.0000 0.0000
# 2 23.2941 84.2591 8.1946 0.0000 0.0000 0.0000
# 3 19.6433 8.1946 39.6436 0.0000 0.0000 0.0000
# 4 0.0000 0.0000 0.0000 18.7255 0.0000 0.0000
# 5 0.0000 0.0000 0.0000 0.0000 24.5152 0.0000
# 6 0.0000 0.0000 0.0000 0.0000 0.0000 4.2676
#
#
#
# Elastic Compliance Matrix: (Units=1/GPa)
#
#
# Indices 1 2 3 4 5 6 
#
# 1 0.008669 -0.002020 -0.003878 0.000000 0.000000 0.000000
# 2 -0.002020 0.012582 -0.001600 0.000000 0.000000 0.000000
# 3 -0.003878 -0.001600 0.027477 0.000000 0.000000 0.000000
# 4 0.000000 0.000000 0.000000 0.053403 0.000000 0.000000
# 5 0.000000 0.000000 0.000000 0.000000 0.040791 0.000000
# 6 0.000000 0.000000 0.000000 0.000000 0.000000 0.234323
#
#
# Mechanical properties :
#
#
# Convention : Reuss Voigt Hill
#
# Bulk Modulus (GPa) = 29.64469 39.52543 34.58506
# Shear Modulus (GPa) = 12.39200 22.99049 17.69124
#
# Velocity S-wave (km/s) = 2.55195 3.47596 3.04916
# Velocity P-wave (km/s) = 4.92570 6.07303 5.52921
#
# Compressibility (1/GPa) = 0.03373285
#
# Stress axis : x y z
#
# Youngs Moduli (GPa) = 115.34815 79.47799 36.39387
#
# Poissons Ratio (x) = 0.16051 0.14114
# Poissons Ratio (y) = 0.23295 0.05824
# Poissons Ratio (z) = 0.44735 0.12718
#
# Static dielectric constant tensor:
#      x y z
#    x 1.751280 0.000000 0.000000 
#    y 0.000000 1.560420 0.000000 
#    z 0.000000 0.000000 1.648230 
# 
# From -- ./inp_files/58556.got.cif
#   From: 2010.05.17/outbox.cif.g08.bks.cpg/sg74_30_cif.got.tgz:58556.got - 2010.06.03 17:57:02.
