data_PCOD9537745
_publ_section_title
;
Structure prediction by ZEFSAII (Michael W. Deem and Ramdas Pophale) SiO2 
 PCOD9537745
Probable space group: I M M A
;
_chemical_formula_sum "Si O2"
_cell_formula_units_Z 96
_cell_length_a 16.767100
_cell_length_b 21.240732
_cell_length_c 12.932514
_cell_angle_alpha 90.000000
_cell_angle_beta 90.000000
_cell_angle_gamma 90.000000
_cell_volume 4605.856374
_symmetry_space_group_name_H-M "I M M A"
_symmetry_group_IT_number 74
_symmetry_cell_setting 'orthorhombic'
loop_
_space_group_symop_operation_xyz
x,y,z
-x,1/2-y,z
x,-y,-z
-x,1/2+y,-z
-x,-y,-z
x,1/2+y,-z
-x,y,z
x,1/2-y,z
1/2+x,1/2+y,1/2+z
1/2-x,-y,1/2+z
1/2+x,1/2-y,1/2-z
1/2-x,y,1/2-z
1/2-x,1/2-y,1/2-z
1/2+x,y,1/2-z
1/2-x,1/2+y,1/2+z
1/2+x,-y,1/2+z
loop_
_atom_site_type_symbol
_atom_site_label
_atom_site_fract_x
_atom_site_fract_y
_atom_site_fract_z
Si Si1 0.407877 0.552233 0.675870
Si Si2 0.814417 0.932653 0.163378
Si Si3 0.095061 0.321687 0.714223
Si Si4 0.408167 0.946003 0.918986
Si Si5 0.685798 0.182414 0.342172
Si Si6 0.295316 0.147391 0.980659
O O1 0.500000 0.554658 0.645529
O O2 0.363038 0.493049 0.627292
O O3 0.403634 0.536299 0.799213
O O4 0.367628 0.619829 0.657872
O O5 0.750000 0.952703 0.250000
O O6 0.869694 0.877053 0.212910
O O7 0.761433 0.902843 0.074490
O O8 0.103938 0.250000 0.756587
O O9 0.148805 0.324349 0.609809
O O10 0.000000 0.332051 0.695162
O O11 0.500000 0.931166 0.942934
O O12 0.354424 0.886459 0.940358
O O13 0.383886 0.000000 0.000000
O O14 0.643074 0.250000 0.327357
O O15 0.750000 0.176243 0.250000
O O16 0.735195 0.185727 0.448578
#
# Coordination Sequence:
#
# PCOD9537745 Si02
#       6
#    16  16  16  16  16  16
#     4  11  23  42  64  86 124 165 206 258 312 370
#     4  10  22  37  63  96 128 163 197 252 309 376
#     4  10  21  39  63  95 132 163 201 253 311 375
#     4  10  20  34  58  92 125 158 201 256 313 366
#     4  11  24  42  63  89 124 165 213 263 310 363
#     4  11  22  37  63  91 126 163 207 255 304 369
#
# _framework density 20.843029999999999
#
# number of rings (size 3 to 8) (size 9 to 14) (size 15 to 20)
#    0.000    1.500    1.667    4.000    2.333    5.333 
#    0.000    2.500    0.000    0.000    0.000    0.000 
#    0.000    0.000    0.000    0.000    0.000    0.000 
#
# Total GULP energy -268014.090514 kJ/mol
# GULP energy per Si atom -5583.626886 kJ/mol
# Density = 2.079559 g / cm^3
# Si number density = 20.843030 Si / 1000 Ang^3
#
#
#
# Elastic Constant Matrix: (Units=GPa)
#
#
# Indices 1 2 3 4 5 6 
#
# 1 117.0979 87.4358 18.9926 0.0000 0.0000 0.0000
# 2 87.4358 146.8394 12.8602 0.0000 0.0000 0.0000
# 3 18.9926 12.8602 40.8918 0.0000 0.0000 0.0000
# 4 0.0000 0.0000 0.0000 -1.4077 0.0000 0.0000
# 5 0.0000 0.0000 0.0000 0.0000 -6.2645 0.0000
# 6 0.0000 0.0000 0.0000 0.0000 0.0000 42.3816
#
#
#
# Elastic Compliance Matrix: (Units=1/GPa)
#
#
# Indices 1 2 3 4 5 6 
#
# 1 0.016180 -0.009231 -0.004612 0.000000 0.000000 0.000000
# 2 -0.009231 0.012269 0.000429 0.000000 0.000000 0.000000
# 3 -0.004612 0.000429 0.026462 0.000000 0.000000 0.000000
# 4 0.000000 0.000000 0.000000 -0.710381 0.000000 0.000000
# 5 0.000000 0.000000 0.000000 0.000000 -0.159629 0.000000
# 6 0.000000 0.000000 0.000000 0.000000 0.000000 0.023595
#
#
# Mechanical properties :
#
#
# Convention : Reuss Voigt Hill
#
# Bulk Modulus (GPa) = 35.60831 60.37849 47.99340
# Shear Modulus (GPa) = -6.61976 19.31125 6.34574
#
# Velocity S-wave (km/s) = -1.78407 3.04716 1.74675
# Velocity P-wave (km/s) = 3.58849 6.43516 5.21002
#
# Compressibility (1/GPa) = 0.02808333
#
# Stress axis : x y z
#
# Youngs Moduli (GPa) = 61.80315 81.50585 37.78991
#
# Poissons Ratio (x) = 0.75236 0.17429
# Poissons Ratio (y) = 0.57049 -0.01620
# Poissons Ratio (z) = 0.28505 -0.03495
#
# Static dielectric constant tensor:
#      x y z
#    x 1.728670 0.000000 0.000000 
#    y 0.000000 1.779170 0.000000 
#    z 0.000000 0.000000 1.780920 
# 
# From -- ./inp_files/32406.got.cif
#   From: 2010.05.17/outbox.cif.g08.bks.cpg/sg74_17_cif.got.tgz:32406.got - 2010.06.03 17:57:02.
