data_PCOD9537186
_publ_section_title
;
Structure prediction by ZEFSAII (Michael W. Deem and Ramdas Pophale) SiO2 
 PCOD9537186
Probable space group: I M M A
;
_chemical_formula_sum "Si O2"
_cell_formula_units_Z 96
_cell_length_a 7.315490
_cell_length_b 17.612088
_cell_length_c 29.817945
_cell_angle_alpha 90.000000
_cell_angle_beta 90.000000
_cell_angle_gamma 90.000000
_cell_volume 3841.775451
_symmetry_space_group_name_H-M "I M M A"
_symmetry_group_IT_number 74
_symmetry_cell_setting 'orthorhombic'
loop_
_space_group_symop_operation_xyz
x,y,z
-x,1/2-y,z
x,-y,-z
-x,1/2+y,-z
-x,-y,-z
x,1/2+y,-z
-x,y,z
x,1/2-y,z
1/2+x,1/2+y,1/2+z
1/2-x,-y,1/2+z
1/2+x,1/2-y,1/2-z
1/2-x,y,1/2-z
1/2-x,1/2-y,1/2-z
1/2+x,y,1/2-z
1/2-x,1/2+y,1/2+z
1/2+x,-y,1/2+z
loop_
_atom_site_type_symbol
_atom_site_label
_atom_site_fract_x
_atom_site_fract_y
_atom_site_fract_z
Si Si1 0.779410 0.426312 0.527867
Si Si2 0.778851 0.335434 0.444170
Si Si3 0.283317 0.166891 0.203829
Si Si4 0.277292 0.834357 0.112330
Si Si5 0.782484 0.419357 0.696407
Si Si6 0.222279 0.445159 0.369174
O O1 0.714170 0.500000 0.500000
O O2 0.741531 0.354444 0.495856
O O3 0.718363 0.401664 0.577900
O O4 0.000000 0.435985 0.531282
O O5 0.715428 0.250000 0.431758
O O6 0.719852 0.411958 0.417267
O O7 0.000000 0.333643 0.438407
O O8 0.500000 0.172460 0.199769
O O9 0.201202 0.250000 0.207904
O O10 0.250000 0.123000 0.250000
O O11 0.221732 0.127545 0.159859
O O12 0.500000 0.835319 0.110457
O O13 0.218873 0.750000 0.098491
O O14 0.225091 0.849729 0.164197
O O15 0.750000 0.418462 0.750000
O O16 0.714829 0.488938 0.664880
O O17 0.000000 0.423679 0.694141
O O18 0.000000 0.455070 0.372096
#
# Coordination Sequence:
#
# PCOD9537186 Si02
#       6
#    16  16  16  16  16  16
#     4   9  15  23  37  59  89 123 155 185 222 273
#     4   9  15  22  35  57  86 120 154 185 221 272
#     4   9  16  25  37  53  75 105 140 178 219 260
#     4   9  17  29  44  63  90 123 155 188 230 277
#     4  10  20  33  49  68  91 121 156 194 236 278
#     4   9  16  26  39  57  83 113 145 182 224 267
#
# _framework density 24.988447000000001
#
# number of rings (size 3 to 8) (size 9 to 14) (size 15 to 20)
#    0.000    2.833    0.000    2.500    0.000    8.333 
#    0.000    0.000    0.000    0.000    0.000    0.000 
#    0.000    7.333    0.000    3.500    0.000    0.667 
#
# Total GULP energy -267238.655964 kJ/mol
# GULP energy per Si atom -5567.471999 kJ/mol
# Density = 2.493157 g / cm^3
# Si number density = 24.988447 Si / 1000 Ang^3
#
#
#
# Elastic Constant Matrix: (Units=GPa)
#
#
# Indices 1 2 3 4 5 6 
#
# 1 92.5946 2.6515 0.2005 0.0000 0.0000 0.0000
# 2 2.6515 119.1259 65.4573 0.0000 0.0000 0.0000
# 3 0.2005 65.4573 208.4102 0.0000 0.0000 0.0000
# 4 0.0000 0.0000 0.0000 34.4035 0.0000 0.0000
# 5 0.0000 0.0000 0.0000 0.0000 0.9234 0.0000
# 6 0.0000 0.0000 0.0000 0.0000 0.0000 -2.2831
#
#
#
# Elastic Compliance Matrix: (Units=1/GPa)
#
#
# Indices 1 2 3 4 5 6 
#
# 1 0.010808 -0.000284 0.000079 0.000000 0.000000 0.000000
# 2 -0.000284 0.010153 -0.003189 0.000000 0.000000 0.000000
# 3 0.000079 -0.003189 0.005800 0.000000 0.000000 0.000000
# 4 0.000000 0.000000 0.000000 0.029067 0.000000 0.000000
# 5 0.000000 0.000000 0.000000 0.000000 1.082919 0.000000
# 6 0.000000 0.000000 0.000000 0.000000 0.000000 -0.438002
#
#
# Mechanical properties :
#
#
# Convention : Reuss Voigt Hill
#
# Bulk Modulus (GPa) = 50.06768 61.86101 55.96435
# Shear Modulus (GPa) = 7.00095 30.06352 18.53224
#
# Velocity S-wave (km/s) = 1.67564 3.47233 2.72625
# Velocity P-wave (km/s) = 4.88093 6.39419 5.68811
#
# Compressibility (1/GPa) = 0.01997296
#
# Stress axis : x y z
#
# Youngs Moduli (GPa) = 92.52640 98.49474 172.42568
#
# Poissons Ratio (x) = 0.02796 -0.01358
# Poissons Ratio (y) = 0.02626 0.54978
# Poissons Ratio (z) = -0.00729 0.31405
#
# Static dielectric constant tensor:
#      x y z
#    x 2.011440 0.000000 0.000000 
#    y 0.000000 2.033110 0.000000 
#    z 0.000000 0.000000 2.026380 
# 
# From -- ./inp_files/58847.got.cif
#   From: 2010.05.17/outbox.cif.g08.bks.cpg/sg74_30_cif.got.tgz:58847.got - 2010.06.03 17:57:02.
