data_PCOD9537351
_publ_section_title
;
Structure prediction by ZEFSAII (Michael W. Deem and Ramdas Pophale) SiO2 
 PCOD9537351
Probable space group: I M M A
;
_chemical_formula_sum "Si O2"
_cell_formula_units_Z 112
_cell_length_a 15.359841
_cell_length_b 14.046097
_cell_length_c 25.301122
_cell_angle_alpha 90.000000
_cell_angle_beta 90.000000
_cell_angle_gamma 90.000000
_cell_volume 5458.611227
_symmetry_space_group_name_H-M "I M M A"
_symmetry_group_IT_number 74
_symmetry_cell_setting 'orthorhombic'
loop_
_space_group_symop_operation_xyz
x,y,z
-x,1/2-y,z
x,-y,-z
-x,1/2+y,-z
-x,-y,-z
x,1/2+y,-z
-x,y,z
x,1/2-y,z
1/2+x,1/2+y,1/2+z
1/2-x,-y,1/2+z
1/2+x,1/2-y,1/2-z
1/2-x,y,1/2-z
1/2-x,1/2-y,1/2-z
1/2+x,y,1/2-z
1/2-x,1/2+y,1/2+z
1/2+x,-y,1/2+z
loop_
_atom_site_type_symbol
_atom_site_label
_atom_site_fract_x
_atom_site_fract_y
_atom_site_fract_z
Si Si1 0.596052 0.137623 0.172608
Si Si2 0.225979 0.640317 0.582468
Si Si3 0.403245 0.362769 0.382622
Si Si4 0.845556 0.548803 0.776022
Si Si5 0.276958 0.857321 0.310526
Si Si6 0.595537 0.888163 0.008967
Si Si7 0.097407 0.638525 0.365940
O O1 0.500000 0.135699 0.148323
O O2 0.613372 0.250000 0.186438
O O3 0.663623 0.101319 0.128614
O O4 0.597482 0.073356 0.224878
O O5 0.237312 0.750000 0.598175
O O6 0.322562 0.597307 0.582867
O O7 0.174575 0.642152 0.527832
O O8 0.500000 0.404232 0.390381
O O9 0.410881 0.250000 0.392521
O O10 0.372140 0.379767 0.322463
O O11 0.750000 0.563228 0.750000
O O12 0.845040 0.444772 0.804491
O O13 0.302638 0.750000 0.330031
O O14 0.250000 0.845048 0.250000
O O15 0.188759 0.892207 0.339948
O O16 0.500000 0.850737 0.993066
O O17 0.606921 0.868004 0.070776
O O18 0.592336 0.000000 0.000000
O O19 0.092991 0.750000 0.351050
O O20 0.000000 0.597898 0.352940
#
# Coordination Sequence:
#
# PCOD9537351 Si02
#       7
#    16  16  16  16  16  16  16
#     4  10  20  33  53  83 119 157 193 231 282 348
#     4  10  20  35  56  82 116 155 191 233 283 336
#     4  10  21  36  55  80 111 149 196 241 279 334
#     4  11  20  32  53  77 109 151 189 236 293 343
#     4   9  20  37  56  80 107 143 193 241 285 337
#     4  10  21  33  52  86 123 152 181 226 280 343
#     4   9  18  35  58  81 108 145 187 231 285 346
#
# _framework density 20.518039000000002
#
# number of rings (size 3 to 8) (size 9 to 14) (size 15 to 20)
#    0.000    2.143    1.429    1.714    2.000    3.143 
#    0.000    7.143    0.000    3.857    0.000    0.000 
#    0.000    0.000    0.000    0.000    0.000    0.000 
#
# Total GULP energy -311818.983369 kJ/mol
# GULP energy per Si atom -5568.196132 kJ/mol
# Density = 2.047134 g / cm^3
# Si number density = 20.518039 Si / 1000 Ang^3
#
#
#
# Elastic Constant Matrix: (Units=GPa)
#
#
# Indices 1 2 3 4 5 6 
#
# 1 146.4312 21.5706 53.2204 0.0000 0.0000 0.0000
# 2 21.5706 79.1892 2.0830 0.0000 0.0000 0.0000
# 3 53.2204 2.0830 69.1242 0.0000 0.0000 0.0000
# 4 0.0000 0.0000 0.0000 19.5602 0.0000 0.0000
# 5 0.0000 0.0000 0.0000 0.0000 21.3776 0.0000
# 6 0.0000 0.0000 0.0000 0.0000 0.0000 -2.7784
#
#
#
# Elastic Compliance Matrix: (Units=1/GPa)
#
#
# Indices 1 2 3 4 5 6 
#
# 1 0.009958 -0.002513 -0.007592 0.000000 0.000000 0.000000
# 2 -0.002513 0.013272 0.001535 0.000000 0.000000 0.000000
# 3 -0.007592 0.001535 0.020265 0.000000 0.000000 0.000000
# 4 0.000000 0.000000 0.000000 0.051124 0.000000 0.000000
# 5 0.000000 0.000000 0.000000 0.000000 0.046778 0.000000
# 6 0.000000 0.000000 0.000000 0.000000 0.000000 -0.359917
#
#
# Mechanical properties :
#
#
# Convention : Reuss Voigt Hill
#
# Bulk Modulus (GPa) = 37.94106 49.83251 43.88678
# Shear Modulus (GPa) = -25.96139 22.15658 -1.90241
#
# Velocity S-wave (km/s) = -3.56096 3.28968 -0.96395
# Velocity P-wave (km/s) = 1.27455 6.22650 4.49409
#
# Compressibility (1/GPa) = 0.02635667
#
# Stress axis : x y z
#
# Youngs Moduli (GPa) = 100.41706 75.34593 49.34525
#
# Poissons Ratio (x) = 0.18934 0.37461
# Poissons Ratio (y) = 0.25234 -0.07574
# Poissons Ratio (z) = 0.76232 -0.11564
#
# Static dielectric constant tensor:
#      x y z
#    x 1.833050 0.000000 0.000000 
#    y 0.000000 1.796490 0.000000 
#    z 0.000000 0.000000 1.700120 
# 
# From -- ./inp_files/67249.got.cif
#   From: 2010.05.17/outbox.cif.g08.bks.cpg/sg74_34_cif.got.tgz:67249.got - 2010.06.03 17:57:02.
