data_PCOD9537463
_publ_section_title
;
Structure prediction by ZEFSAII (Michael W. Deem and Ramdas Pophale) SiO2 
 PCOD9537463
Probable space group: I M M A
;
_chemical_formula_sum "Si O2"
_cell_formula_units_Z 64
_cell_length_a 8.797251
_cell_length_b 28.004659
_cell_length_c 14.924279
_cell_angle_alpha 90.000000
_cell_angle_beta 90.000000
_cell_angle_gamma 90.000000
_cell_volume 3676.805286
_symmetry_space_group_name_H-M "I M M A"
_symmetry_group_IT_number 74
_symmetry_cell_setting 'orthorhombic'
loop_
_space_group_symop_operation_xyz
x,y,z
-x,1/2-y,z
x,-y,-z
-x,1/2+y,-z
-x,-y,-z
x,1/2+y,-z
-x,y,z
x,1/2-y,z
1/2+x,1/2+y,1/2+z
1/2-x,-y,1/2+z
1/2+x,1/2-y,1/2-z
1/2-x,y,1/2-z
1/2-x,1/2-y,1/2-z
1/2+x,y,1/2-z
1/2-x,1/2+y,1/2+z
1/2+x,-y,1/2+z
loop_
_atom_site_type_symbol
_atom_site_label
_atom_site_fract_x
_atom_site_fract_y
_atom_site_fract_z
Si Si1 0.181203 0.693817 0.847448
Si Si2 0.180395 0.386358 0.469793
Si Si3 0.816612 0.919151 0.157868
Si Si4 0.328013 0.478774 0.399454
O O1 0.211018 0.750000 0.863920
O O2 0.250000 0.682030 0.750000
O O3 0.255668 0.660573 0.922155
O O4 0.000000 0.686510 0.845888
O O5 0.254485 0.394751 0.567622
O O6 0.228370 0.431614 0.407865
O O7 0.000000 0.384777 0.478637
O O8 0.750000 0.898679 0.250000
O O9 0.000000 0.917876 0.157004
O O10 0.768711 0.975174 0.153020
O O11 0.338549 0.500000 0.500000
O O12 0.500000 0.466465 0.370213
#
# Coordination Sequence:
#
# PCOD9537463 Si02
#       4
#    16  16  16  16
#     4  10  21  38  59  81 105 133 168 213 264 316
#     4  11  21  33  53  79 108 141 176 215 260 313
#     4  10  20  34  52  75 106 143 182 221 260 305
#     4   8  16  31  48  68  99 136 173 214 254 295
#
# _framework density 17.406416
#
# number of rings (size 3 to 8) (size 9 to 14) (size 15 to 20)
#    0.000    2.250    0.000    5.250    0.000    8.000 
#    0.000    2.500    0.000    0.750    0.000    0.000 
#    0.000    0.000    0.000    0.000    0.000    0.000 
#
# Total GULP energy -178478.349289 kJ/mol
# GULP energy per Si atom -5577.448415 kJ/mol
# Density = 1.736680 g / cm^3
# Si number density = 17.406416 Si / 1000 Ang^3
#
#
#
# Elastic Constant Matrix: (Units=GPa)
#
#
# Indices 1 2 3 4 5 6 
#
# 1 89.9693 56.4155 51.3296 0.0000 0.0000 0.0000
# 2 56.4155 76.2574 63.6279 0.0000 0.0000 0.0000
# 3 51.3296 63.6279 120.9751 -0.0001 0.0000 0.0000
# 4 0.0000 0.0000 -0.0001 25.5441 0.0000 0.0000
# 5 0.0000 0.0000 0.0000 0.0000 25.9660 0.0000
# 6 0.0000 0.0000 0.0000 0.0000 0.0000 19.5915
#
#
#
# Elastic Compliance Matrix: (Units=1/GPa)
#
#
# Indices 1 2 3 4 5 6 
#
# 1 0.020848 -0.014333 -0.001308 0.000000 0.000000 0.000000
# 2 -0.014333 0.033222 -0.011392 0.000000 0.000000 0.000000
# 3 -0.001308 -0.011392 0.014813 0.000000 0.000000 0.000000
# 4 0.000000 0.000000 0.000000 0.039148 0.000000 0.000000
# 5 0.000000 0.000000 0.000000 0.000000 0.038512 0.000000
# 6 0.000000 0.000000 0.000000 0.000000 0.000000 0.051043
#
#
# Mechanical properties :
#
#
# Convention : Reuss Voigt Hill
#
# Bulk Modulus (GPa) = 67.48298 69.99423 68.73861
# Shear Modulus (GPa) = 19.48635 21.94224 20.71429
#
# Velocity S-wave (km/s) = 3.34951 3.55432 3.45343
# Velocity P-wave (km/s) = 7.33568 7.55932 7.44834
#
# Compressibility (1/GPa) = 0.01481855
#
# Stress axis : x y z
#
# Youngs Moduli (GPa) = 47.96589 30.10029 67.50925
#
# Poissons Ratio (x) = 0.43141 0.08827
# Poissons Ratio (y) = 0.68747 0.76908
# Poissons Ratio (z) = 0.06272 0.34291
#
# Static dielectric constant tensor:
#      x y z
#    x 1.585600 0.000000 0.000000 
#    y 0.000000 1.586850 0.000000 
#    z 0.000000 0.000000 1.603110 
# 
# From -- ./inp_files/28808.got.cif
#   From: 2010.05.17/outbox.cif.g08.bks.cpg/sg74_15_cif.got.tgz:28808.got - 2010.06.03 17:57:02.
