data_PCOD9537665
_publ_section_title
;
Structure prediction by ZEFSAII (Michael W. Deem and Ramdas Pophale) SiO2 
 PCOD9537665
Probable space group: I M M A
;
_chemical_formula_sum "Si O2"
_cell_formula_units_Z 120
_cell_length_a 8.918994
_cell_length_b 27.474977
_cell_length_c 28.149129
_cell_angle_alpha 90.000000
_cell_angle_beta 90.000000
_cell_angle_gamma 90.000000
_cell_volume 6897.920276
_symmetry_space_group_name_H-M "I M M A"
_symmetry_group_IT_number 74
_symmetry_cell_setting 'orthorhombic'
loop_
_space_group_symop_operation_xyz
x,y,z
-x,1/2-y,z
x,-y,-z
-x,1/2+y,-z
-x,-y,-z
x,1/2+y,-z
-x,y,z
x,1/2-y,z
1/2+x,1/2+y,1/2+z
1/2-x,-y,1/2+z
1/2+x,1/2-y,1/2-z
1/2-x,y,1/2-z
1/2-x,1/2-y,1/2-z
1/2+x,y,1/2-z
1/2-x,1/2+y,1/2+z
1/2+x,-y,1/2+z
loop_
_atom_site_type_symbol
_atom_site_label
_atom_site_fract_x
_atom_site_fract_y
_atom_site_fract_z
Si Si1 0.177651 0.848557 0.533920
Si Si2 0.678710 0.957565 0.198713
Si Si3 0.821974 0.447544 0.520535
Si Si4 0.819969 0.195176 0.940392
Si Si5 0.821349 0.598271 0.112171
Si Si6 0.820376 0.570843 0.698184
Si Si7 0.679976 0.844700 0.636367
Si Si8 0.319817 0.750000 0.697889
O O1 0.202068 0.904645 0.517699
O O2 0.241667 0.817122 0.490317
O O3 0.259887 0.838374 0.583128
O O4 0.000000 0.840697 0.538975
O O5 0.500000 0.953114 0.201452
O O6 0.750000 0.947617 0.250000
O O7 0.743410 0.922289 0.158824
O O8 0.713288 0.014274 0.186713
O O9 0.782104 0.500000 0.500000
O O10 0.730325 0.434060 0.567357
O O11 0.000000 0.447667 0.532226
O O12 0.783604 0.250000 0.925307
O O13 0.777709 0.153304 0.902854
O O14 0.000000 0.191718 0.947221
O O15 0.000000 0.596147 0.117714
O O16 0.750000 0.581240 0.750000
O O17 0.751259 0.607515 0.660150
O O18 0.000000 0.576627 0.700292
O O19 0.500000 0.848584 0.636032
O O20 0.722845 0.798143 0.668435
O O21 0.500000 0.750000 0.702337
O O22 0.250000 0.750000 0.750000
#
# Coordination Sequence:
#
# PCOD9537665 Si02
#       8
#    16  16  16  16  16  16  16   8
#     4  10  21  35  52  80 110 140 182 226 270 320
#     4  10  21  37  58  83 115 149 182 222 270 322
#     4   9  19  35  53  74 108 148 181 218 267 321
#     4   9  19  37  59  80 109 147 182 223 273 328
#     4  10  20  34  55  84 112 142 184 226 271 327
#     4  10  21  37  56  79 106 139 179 222 270 324
#     4  11  23  38  56  78 106 140 178 226 281 332
#     4  10  24  42  58  76 100 136 178 226 283 332
#
# _framework density 17.396547000000002
#
# number of rings (size 3 to 8) (size 9 to 14) (size 15 to 20)
#    0.000    2.133    0.000    2.400    2.800    5.333 
#    0.000    0.000    0.000    0.400    0.000    0.000 
#    0.000    0.000    0.000    0.000    0.000    0.000 
#
# Total GULP energy -335052.692347 kJ/mol
# GULP energy per Si atom -5584.211539 kJ/mol
# Density = 1.735695 g / cm^3
# Si number density = 17.396547 Si / 1000 Ang^3
#
#
#
# Elastic Constant Matrix: (Units=GPa)
#
#
# Indices 1 2 3 4 5 6 
#
# 1 55.9846 53.3248 59.6736 0.0000 0.0000 0.0000
# 2 53.3248 123.4738 80.8107 0.0000 0.0000 0.0000
# 3 59.6736 80.8107 132.8114 0.0000 0.0000 0.0000
# 4 0.0000 0.0000 0.0000 11.2597 0.0000 0.0000
# 5 0.0000 0.0000 0.0000 0.0000 36.7399 0.0000
# 6 0.0000 0.0000 0.0000 0.0000 0.0000 25.5204
#
#
#
# Elastic Compliance Matrix: (Units=1/GPa)
#
#
# Indices 1 2 3 4 5 6 
#
# 1 0.039563 -0.009060 -0.012263 0.000000 0.000000 0.000000
# 2 -0.009060 0.015533 -0.005381 0.000000 0.000000 0.000000
# 3 -0.012263 -0.005381 0.016313 0.000000 0.000000 0.000000
# 4 0.000000 0.000000 0.000000 0.088812 0.000000 0.000000
# 5 0.000000 0.000000 0.000000 0.000000 0.027218 0.000000
# 6 0.000000 0.000000 0.000000 0.000000 0.000000 0.039184
#
#
# Mechanical properties :
#
#
# Convention : Reuss Voigt Hill
#
# Bulk Modulus (GPa) = 55.55051 77.76531 66.65791
# Shear Modulus (GPa) = 17.48050 22.60140 20.04095
#
# Velocity S-wave (km/s) = 3.17334 3.60834 3.39781
# Velocity P-wave (km/s) = 6.74003 7.88408 7.33440
#
# Compressibility (1/GPa) = 0.01800163
#
# Stress axis : x y z
#
# Youngs Moduli (GPa) = 25.27599 64.37869 61.29924
#
# Poissons Ratio (x) = 0.58328 0.75174
# Poissons Ratio (y) = 0.22900 0.32982
# Poissons Ratio (z) = 0.30997 0.34639
#
# Static dielectric constant tensor:
#      x y z
#    x 1.580360 0.000000 0.000000 
#    y 0.000000 1.594860 0.000000 
#    z 0.000000 0.000000 1.549700 
# 
# From -- ./inp_files/65072.got.cif
#   From: 2010.05.17/outbox.cif.g08.bks.cpg/sg74_33_cif.got.tgz:65072.got - 2010.06.03 17:57:02.
