data_PCOD9537220
_publ_section_title
;
Structure prediction by ZEFSAII (Michael W. Deem and Ramdas Pophale) SiO2 
 PCOD9537220
Probable space group: I M M A
;
_chemical_formula_sum "Si O2"
_cell_formula_units_Z 80
_cell_length_a 28.764241
_cell_length_b 8.951779
_cell_length_c 17.756054
_cell_angle_alpha 90.000000
_cell_angle_beta 90.000000
_cell_angle_gamma 90.000000
_cell_volume 4572.026383
_symmetry_space_group_name_H-M "I M M A"
_symmetry_group_IT_number 74
_symmetry_cell_setting 'orthorhombic'
loop_
_space_group_symop_operation_xyz
x,y,z
-x,1/2-y,z
x,-y,-z
-x,1/2+y,-z
-x,-y,-z
x,1/2+y,-z
-x,y,z
x,1/2-y,z
1/2+x,1/2+y,1/2+z
1/2-x,-y,1/2+z
1/2+x,1/2-y,1/2-z
1/2-x,y,1/2-z
1/2-x,1/2-y,1/2-z
1/2+x,y,1/2-z
1/2-x,1/2+y,1/2+z
1/2+x,-y,1/2+z
loop_
_atom_site_type_symbol
_atom_site_label
_atom_site_fract_x
_atom_site_fract_y
_atom_site_fract_z
Si Si1 0.641591 0.429369 0.203095
Si Si2 0.445699 0.927922 0.264700
Si Si3 0.210864 0.072315 0.581781
Si Si4 0.284975 0.080023 0.321708
Si Si5 0.056302 0.420057 0.075712
O O1 0.643441 0.250000 0.195258
O O2 0.589611 0.490160 0.208875
O O3 0.671511 0.504660 0.137092
O O4 0.667111 0.467140 0.282647
O O5 0.500000 0.961766 0.249534
O O6 0.439456 0.750000 0.261302
O O7 0.435062 0.987076 0.348822
O O8 0.206901 0.250000 0.578639
O O9 0.206275 0.000000 0.500000
O O10 0.260414 0.024453 0.617878
O O11 0.288618 0.250000 0.350817
O O12 0.250000 0.084348 0.250000
O O13 0.073627 0.250000 0.082648
O O14 0.000000 0.412206 0.069082
O O15 0.073733 0.500000 0.000000
#
# Coordination Sequence:
#
# PCOD9537220 Si02
#       5
#    16  16  16  16  16
#     4  10  20  35  55  78 106 139 176 217 261 311
#     4  10  20  33  50  74 104 139 181 225 266 312
#     4  11  21  34  55  81 109 139 172 211 258 313
#     4   8  16  32  52  75 103 132 163 203 252 305
#     4   9  16  27  44  65  90 122 161 206 255 303
#
# _framework density 17.497710999999999
#
# number of rings (size 3 to 8) (size 9 to 14) (size 15 to 20)
#    0.000    2.400    0.000    4.800    0.000    8.000 
#    0.000    1.000    0.000    5.400    0.000    0.000 
#    0.000    0.000    0.000    0.000    0.000    0.000 
#
# Total GULP energy -223059.738488 kJ/mol
# GULP energy per Si atom -5576.493462 kJ/mol
# Density = 1.745789 g / cm^3
# Si number density = 17.497711 Si / 1000 Ang^3
#
#
#
# Elastic Constant Matrix: (Units=GPa)
#
#
# Indices 1 2 3 4 5 6 
#
# 1 83.9774 56.7962 45.5242 0.0000 0.0000 0.0000
# 2 56.7962 125.9165 69.5005 0.0000 0.0000 0.0000
# 3 45.5242 69.5005 95.2371 0.0000 0.0000 0.0000
# 4 0.0000 0.0000 0.0000 29.4147 0.0000 0.0000
# 5 0.0000 0.0000 0.0000 0.0000 13.6735 0.0000
# 6 0.0000 0.0000 0.0000 0.0000 0.0000 -7.7696
#
#
#
# Elastic Compliance Matrix: (Units=1/GPa)
#
#
# Indices 1 2 3 4 5 6 
#
# 1 0.018240 -0.005718 -0.004546 0.000000 0.000000 0.000000
# 2 -0.005718 0.015091 -0.008280 0.000000 0.000000 0.000000
# 3 -0.004546 -0.008280 0.018715 0.000000 0.000000 0.000000
# 4 0.000000 0.000000 0.000000 0.033997 0.000000 0.000000
# 5 0.000000 0.000000 0.000000 0.000000 0.073134 0.000000
# 6 0.000000 0.000000 0.000000 0.000000 0.000000 -0.128707
#
#
# Mechanical properties :
#
#
# Convention : Reuss Voigt Hill
#
# Bulk Modulus (GPa) = 66.85034 72.08586 69.46810
# Shear Modulus (GPa) = 68.92519 15.95106 42.43813
#
# Velocity S-wave (km/s) = 6.28303 3.02256 4.93013
# Velocity P-wave (km/s) = 9.53538 7.31218 8.49680
#
# Compressibility (1/GPa) = 0.01495879
#
# Stress axis : x y z
#
# Youngs Moduli (GPa) = 54.82591 66.26508 53.43263
#
# Poissons Ratio (x) = 0.37891 0.24290
# Poissons Ratio (y) = 0.31350 0.44240
# Poissons Ratio (z) = 0.24923 0.54864
#
# Static dielectric constant tensor:
#      x y z
#    x 1.625710 0.000000 0.000000 
#    y 0.000000 1.586790 0.000000 
#    z 0.000000 0.000000 1.575180 
# 
# From -- ./inp_files/39721.got.cif
#   From: 2010.05.17/outbox.cif.g08.bks.cpg/sg74_20_cif.got.tgz:39721.got - 2010.06.03 17:57:02.
