data_PCOD9537362
_publ_section_title
;
Structure prediction by ZEFSAII (Michael W. Deem and Ramdas Pophale) SiO2 
 PCOD9537362
Probable space group: I M M A
;
_chemical_formula_sum "Si O2"
_cell_formula_units_Z 80
_cell_length_a 27.208750
_cell_length_b 15.316789
_cell_length_c 9.328859
_cell_angle_alpha 90.000000
_cell_angle_beta 90.000000
_cell_angle_gamma 90.000000
_cell_volume 3887.808357
_symmetry_space_group_name_H-M "I M M A"
_symmetry_group_IT_number 74
_symmetry_cell_setting 'orthorhombic'
loop_
_space_group_symop_operation_xyz
x,y,z
-x,1/2-y,z
x,-y,-z
-x,1/2+y,-z
-x,-y,-z
x,1/2+y,-z
-x,y,z
x,1/2-y,z
1/2+x,1/2+y,1/2+z
1/2-x,-y,1/2+z
1/2+x,1/2-y,1/2-z
1/2-x,y,1/2-z
1/2-x,1/2-y,1/2-z
1/2+x,y,1/2-z
1/2-x,1/2+y,1/2+z
1/2+x,-y,1/2+z
loop_
_atom_site_type_symbol
_atom_site_label
_atom_site_fract_x
_atom_site_fract_y
_atom_site_fract_z
Si Si1 0.160280 0.647740 0.385478
Si Si2 0.447383 0.594833 0.426484
Si Si3 0.946288 0.092136 0.581896
Si Si4 0.243592 0.351363 0.406132
Si Si5 0.340715 0.402220 0.562082
O O1 0.170637 0.750000 0.355772
O O2 0.104921 0.640534 0.446445
O O3 0.200025 0.611683 0.496818
O O4 0.164627 0.599479 0.233579
O O5 0.447815 0.500000 0.500000
O O6 0.500000 0.638076 0.461677
O O7 0.446414 0.581644 0.254624
O O8 0.395212 0.636902 0.467497
O O9 0.000000 0.132160 0.545092
O O10 0.944015 0.000000 0.500000
O O11 0.229456 0.250000 0.383582
O O12 0.250000 0.393118 0.250000
O O13 0.294879 0.355366 0.489642
O O14 0.340303 0.500000 0.500000
#
# Coordination Sequence:
#
# PCOD9537362 Si02
#       5
#    16  16  16  16  16
#     4  10  21  37  57  80 111 151 189 229 282 343
#     4   8  15  29  48  73 104 134 166 208 262 320
#     4   9  18  32  52  80 111 142 179 226 275 322
#     4  10  22  38  54  74 105 144 184 231 286 339
#     4  10  20  33  54  82 106 137 181 228 278 333
#
# _framework density 20.577147
#
# number of rings (size 3 to 8) (size 9 to 14) (size 15 to 20)
#    0.000    2.600    0.000    1.200    0.000    9.200 
#    0.000    0.000    0.000    1.800    0.000    2.800 
#    0.000    8.000    0.000    0.000    0.000    0.000 
#
# Total GULP energy -222842.212402 kJ/mol
# GULP energy per Si atom -5571.055310 kJ/mol
# Density = 2.053031 g / cm^3
# Si number density = 20.577147 Si / 1000 Ang^3
#
#
#
# Elastic Constant Matrix: (Units=GPa)
#
#
# Indices 1 2 3 4 5 6 
#
# 1 188.7520 3.6591 79.4466 0.0000 0.0000 0.0000
# 2 3.6591 43.2867 16.0143 0.0000 0.0000 0.0000
# 3 79.4466 16.0143 74.7286 0.0000 0.0000 0.0000
# 4 0.0000 0.0000 0.0000 19.4560 0.0000 0.0000
# 5 0.0000 0.0000 0.0000 0.0000 21.6770 0.0000
# 6 0.0000 0.0000 0.0000 0.0000 0.0000 28.0845
#
#
#
# Elastic Compliance Matrix: (Units=1/GPa)
#
#
# Indices 1 2 3 4 5 6 
#
# 1 0.010019 0.003360 -0.011372 0.000000 0.000000 0.000000
# 2 0.003360 0.026218 -0.009191 0.000000 0.000000 0.000000
# 3 -0.011372 -0.009191 0.027441 0.000000 0.000000 0.000000
# 4 0.000000 0.000000 0.000000 0.051398 0.000000 0.000000
# 5 0.000000 0.000000 0.000000 0.000000 0.046132 0.000000
# 6 0.000000 0.000000 0.000000 0.000000 0.000000 0.035607
#
#
# Mechanical properties :
#
#
# Convention : Reuss Voigt Hill
#
# Bulk Modulus (GPa) = 34.16080 56.11195 45.13637
# Shear Modulus (GPa) = 20.74874 27.68666 24.21770
#
# Velocity S-wave (km/s) = 3.17888 3.67209 3.43435
# Velocity P-wave (km/s) = 5.48736 6.73107 6.14078
#
# Compressibility (1/GPa) = 0.02927332
#
# Stress axis : x y z
#
# Youngs Moduli (GPa) = 99.80690 38.14177 36.44138
#
# Poissons Ratio (x) = -0.12816 0.41441
# Poissons Ratio (y) = -0.33537 0.33493
# Poissons Ratio (z) = 1.13501 0.35056
#
# Static dielectric constant tensor:
#      x y z
#    x 1.809660 0.000000 0.000000 
#    y 0.000000 1.731800 0.000000 
#    z 0.000000 0.000000 1.715280 
# 
# From -- ./inp_files/10923.got.cif
#   From: 2010.05.17/outbox.cif.g08.bks.cpg/sg74_6_cif.got.tgz:10923.got - 2010.06.03 17:57:02.
