data_PCOD9537510
_publ_section_title
;
Structure prediction by ZEFSAII (Michael W. Deem and Ramdas Pophale) SiO2 
 PCOD9537510
Probable space group: I M M A
;
_chemical_formula_sum "Si O2"
_cell_formula_units_Z 112
_cell_length_a 7.614398
_cell_length_b 18.646642
_cell_length_c 37.423812
_cell_angle_alpha 90.000000
_cell_angle_beta 90.000000
_cell_angle_gamma 90.000000
_cell_volume 5313.543361
_symmetry_space_group_name_H-M "I M M A"
_symmetry_group_IT_number 74
_symmetry_cell_setting 'orthorhombic'
loop_
_space_group_symop_operation_xyz
x,y,z
-x,1/2-y,z
x,-y,-z
-x,1/2+y,-z
-x,-y,-z
x,1/2+y,-z
-x,y,z
x,1/2-y,z
1/2+x,1/2+y,1/2+z
1/2-x,-y,1/2+z
1/2+x,1/2-y,1/2-z
1/2-x,y,1/2-z
1/2-x,1/2-y,1/2-z
1/2+x,y,1/2-z
1/2-x,1/2+y,1/2+z
1/2+x,-y,1/2+z
loop_
_atom_site_type_symbol
_atom_site_label
_atom_site_fract_x
_atom_site_fract_y
_atom_site_fract_z
Si Si1 0.710785 0.832078 0.210018
Si Si2 0.289756 0.918719 0.001477
Si Si3 0.210842 0.914988 0.859330
Si Si4 0.711711 0.668030 0.570372
Si Si5 0.710767 0.332116 0.289799
Si Si6 0.215223 0.332748 0.571026
Si Si7 0.711055 0.582670 0.141318
O O1 0.500000 0.828888 0.206909
O O2 0.777236 0.750000 0.206860
O O3 0.750000 0.858311 0.250000
O O4 0.777531 0.881718 0.178027
O O5 0.500000 0.923667 0.005794
O O6 0.255771 0.876242 0.965048
O O7 0.224278 0.874562 0.035704
O O8 0.220462 0.000000 0.000000
O O9 0.277033 0.872676 0.894190
O O10 0.277504 0.879955 0.822476
O O11 0.000000 0.906978 0.859246
O O12 0.248586 0.998980 0.861324
O O13 0.500000 0.670852 0.572627
O O14 0.775987 0.750000 0.568456
O O15 0.500000 0.328968 0.292774
O O16 0.777312 0.250000 0.292332
O O17 0.750000 0.359632 0.250000
O O18 0.270290 0.250000 0.570845
O O19 0.273787 0.373850 0.606660
O O20 0.000000 0.332856 0.570943
O O21 0.500000 0.589416 0.141530
#
# Coordination Sequence:
#
# PCOD9537510 Si02
#       7
#    16  16  16  16  16  16  16
#     4   9  18  33  53  76 102 134 172 212 254 302
#     4  10  20  34  54  81 110 137 168 210 260 310
#     4  10  21  36  53  74 103 137 169 205 255 309
#     4  10  21  37  56  77 103 138 178 215 253 303
#     4   9  18  34  55  76  99 130 168 207 247 295
#     4   9  17  31  52  75 100 133 171 209 251 299
#     4  10  20  34  53  76 101 131 171 215 254 298
#
# _framework density 21.078213000000002
#
# number of rings (size 3 to 8) (size 9 to 14) (size 15 to 20)
#    0.000    2.429    0.000    2.143    0.000    8.000 
#    0.000    3.571    0.000    4.714    0.000    0.000 
#    0.000    0.000    0.000    0.000    0.000    0.000 
#
# Total GULP energy -312825.335757 kJ/mol
# GULP energy per Si atom -5586.166710 kJ/mol
# Density = 2.103024 g / cm^3
# Si number density = 21.078213 Si / 1000 Ang^3
#
#
#
# Elastic Constant Matrix: (Units=GPa)
#
#
# Indices 1 2 3 4 5 6 
#
# 1 41.8643 1.3362 2.9463 0.0000 0.0000 0.0000
# 2 1.3362 201.7302 151.7184 0.0000 0.0000 0.0000
# 3 2.9463 151.7184 246.9331 0.0000 0.0000 0.0000
# 4 0.0000 0.0000 0.0000 152.3450 0.0000 0.0000
# 5 0.0000 0.0000 0.0000 0.0000 17.2624 0.0000
# 6 0.0000 0.0000 0.0000 0.0000 0.0000 20.8265
#
#
#
# Elastic Compliance Matrix: (Units=1/GPa)
#
#
# Indices 1 2 3 4 5 6 
#
# 1 0.023908 0.000104 -0.000349 0.000000 0.000000 0.000000
# 2 0.000104 0.009216 -0.005664 0.000000 0.000000 0.000000
# 3 -0.000349 -0.005664 0.007534 0.000000 0.000000 0.000000
# 4 0.000000 0.000000 0.000000 0.006564 0.000000 0.000000
# 5 0.000000 0.000000 0.000000 0.000000 0.057929 0.000000
# 6 0.000000 0.000000 0.000000 0.000000 0.000000 0.048016
#
#
# Mechanical properties :
#
#
# Convention : Reuss Voigt Hill
#
# Bulk Modulus (GPa) = 34.67366 89.16993 61.92180
# Shear Modulus (GPa) = 28.63733 60.38856 44.51295
#
# Velocity S-wave (km/s) = 3.68995 5.35835 4.60042
# Velocity P-wave (km/s) = 5.88558 8.98214 7.59338
#
# Compressibility (1/GPa) = 0.02884034
#
# Stress axis : x y z
#
# Youngs Moduli (GPa) = 41.82705 108.50734 132.73777
#
# Poissons Ratio (x) = -0.01133 0.04638
# Poissons Ratio (y) = -0.00437 0.75178
# Poissons Ratio (z) = 0.01462 0.61455
#
# Static dielectric constant tensor:
#      x y z
#    x 1.805530 0.000000 0.000000 
#    y 0.000000 1.717810 0.000000 
#    z 0.000000 0.000000 1.731890 
# 
# From -- ./inp_files/71888.got.cif
#   From: 2010.05.17/outbox.cif.g08.bks.cpg/sg74_36_cif.got.tgz:71888.got - 2010.06.03 17:57:02.
