data_PCOD9537378
_publ_section_title
;
Structure prediction by ZEFSAII (Michael W. Deem and Ramdas Pophale) SiO2 
 PCOD9537378
Probable space group: I M M A
;
_chemical_formula_sum "Si O2"
_cell_formula_units_Z 116
_cell_length_a 19.702429
_cell_length_b 16.904794
_cell_length_c 17.699241
_cell_angle_alpha 90.000000
_cell_angle_beta 90.000000
_cell_angle_gamma 90.000000
_cell_volume 5895.006616
_symmetry_space_group_name_H-M "I M M A"
_symmetry_group_IT_number 74
_symmetry_cell_setting 'orthorhombic'
loop_
_space_group_symop_operation_xyz
x,y,z
-x,1/2-y,z
x,-y,-z
-x,1/2+y,-z
-x,-y,-z
x,1/2+y,-z
-x,y,z
x,1/2-y,z
1/2+x,1/2+y,1/2+z
1/2-x,-y,1/2+z
1/2+x,1/2-y,1/2-z
1/2-x,y,1/2-z
1/2-x,1/2-y,1/2-z
1/2+x,y,1/2-z
1/2-x,1/2+y,1/2+z
1/2+x,-y,1/2+z
loop_
_atom_site_type_symbol
_atom_site_label
_atom_site_fract_x
_atom_site_fract_y
_atom_site_fract_z
Si Si1 0.079574 0.390426 0.716238
Si Si2 0.296185 0.407214 0.490092
Si Si3 0.577044 0.419544 0.216975
Si Si4 0.383204 0.876270 0.380074
Si Si5 0.500000 0.750000 0.415664
Si Si6 0.076517 0.655576 0.447413
Si Si7 0.922537 0.062006 0.109447
Si Si8 0.835274 0.155475 0.412034
O O1 0.079575 0.485364 0.711659
O O2 0.120046 0.362669 0.789816
O O3 0.105058 0.360675 0.635662
O O4 0.000000 0.364741 0.726262
O O5 0.278397 0.500000 0.500000
O O6 0.313598 0.371006 0.572199
O O7 0.367905 0.403233 0.446948
O O8 0.240076 0.367196 0.437910
O O9 0.500000 0.394095 0.195086
O O10 0.586266 0.403593 0.306110
O O11 0.633672 0.382293 0.163449
O O12 0.440320 0.818485 0.411245
O O13 0.408351 0.967666 0.387372
O O14 0.072767 0.750000 0.455814
O O15 0.119137 0.625420 0.517624
O O16 0.000000 0.622746 0.448952
O O17 0.000000 0.075117 0.085822
O O18 0.840551 0.250000 0.405560
#
# Coordination Sequence:
#
# PCOD9537378 Si02
#       8
#    16  16  16  16   4  16  16  16
#     4   9  17  32  55  89 117 140 191 240 281 345
#     4  10  24  39  59  81 116 165 201 236 287 349
#     4   9  19  36  63  87 110 146 190 249 297 347
#     4  10  20  33  55  90 119 155 189 227 290 350
#     4  12  20  28  62  92 126 160 178 240 296 348
#     4   9  19  33  55  82 113 152 190 237 293 346
#     4   9  18  39  62  87 112 144 199 245 285 344
#     4  11  24  41  56  81 118 153 197 247 297 357
#
# _framework density 19.677671
#
# number of rings (size 3 to 8) (size 9 to 14) (size 15 to 20)
#    0.000    2.345    1.379    1.241    4.828    2.207 
#    0.000    4.138    0.000    2.483    0.000    0.000 
#    0.000    0.000    0.000    0.000    0.000    0.000 
#
# Total GULP energy -323034.686117 kJ/mol
# GULP energy per Si atom -5569.563554 kJ/mol
# Density = 1.963288 g / cm^3
# Si number density = 19.677671 Si / 1000 Ang^3
#
#
#
# Elastic Constant Matrix: (Units=GPa)
#
#
# Indices 1 2 3 4 5 6 
#
# 1 68.8026 21.7022 46.2087 0.0000 0.0000 0.0000
# 2 21.7022 28.8866 25.9210 0.0000 0.0000 0.0000
# 3 46.2087 25.9210 94.2855 0.0000 0.0000 0.0000
# 4 0.0000 0.0000 0.0000 388.3427 0.0000 0.0000
# 5 0.0000 0.0000 0.0000 0.0000 113.0159 0.0000
# 6 0.0000 0.0000 0.0000 0.0000 0.0000 20.8402
#
#
#
# Elastic Compliance Matrix: (Units=1/GPa)
#
#
# Indices 1 2 3 4 5 6 
#
# 1 0.023566 -0.009745 -0.008870 0.000000 0.000000 0.000000
# 2 -0.009745 0.049985 -0.008966 0.000000 0.000000 0.000000
# 3 -0.008870 -0.008966 0.017418 0.000000 0.000000 0.000000
# 4 0.000000 0.000000 0.000000 0.002575 0.000000 0.000000
# 5 0.000000 0.000000 0.000000 0.000000 0.008848 0.000000
# 6 0.000000 0.000000 0.000000 0.000000 0.000000 0.047984
#
#
# Mechanical properties :
#
#
# Convention : Reuss Voigt Hill
#
# Bulk Modulus (GPa) = 27.92792 42.18205 35.05498
# Shear Modulus (GPa) = 22.99127 110.98261 66.98694
#
# Velocity S-wave (km/s) = 3.42189 7.51816 5.84089
# Velocity P-wave (km/s) = 5.46223 9.84107 7.95872
#
# Compressibility (1/GPa) = 0.03580646
#
# Stress axis : x y z
#
# Youngs Moduli (GPa) = 42.43490 20.00605 57.41107
#
# Poissons Ratio (x) = 0.19496 0.50925
# Poissons Ratio (y) = 0.41353 0.51474
# Poissons Ratio (z) = 0.37641 0.17937
#
# Static dielectric constant tensor:
#      x y z
#    x 1.695670 0.000000 0.000000 
#    y 0.000000 1.687660 0.000000 
#    z 0.000000 0.000000 1.728340 
# 
# From -- ./inp_files/44246.got.cif
#   From: 2010.05.17/outbox.cif.g08.bks.cpg/sg74_23_cif.got.tgz:44246.got - 2010.06.03 17:57:02.
