data_PCOD9537057
_publ_section_title
;
Structure prediction by ZEFSAII (Michael W. Deem and Ramdas Pophale) SiO2 
 PCOD9537057
Probable space group: I M M A
;
_chemical_formula_sum "Si O2"
_cell_formula_units_Z 96
_cell_length_a 18.729393
_cell_length_b 16.376738
_cell_length_c 16.750976
_cell_angle_alpha 90.000000
_cell_angle_beta 90.000000
_cell_angle_gamma 90.000000
_cell_volume 5137.965929
_symmetry_space_group_name_H-M "I M M A"
_symmetry_group_IT_number 74
_symmetry_cell_setting 'orthorhombic'
loop_
_space_group_symop_operation_xyz
x,y,z
-x,1/2-y,z
x,-y,-z
-x,1/2+y,-z
-x,-y,-z
x,1/2+y,-z
-x,y,z
x,1/2-y,z
1/2+x,1/2+y,1/2+z
1/2-x,-y,1/2+z
1/2+x,1/2-y,1/2-z
1/2-x,y,1/2-z
1/2-x,1/2-y,1/2-z
1/2+x,y,1/2-z
1/2-x,1/2+y,1/2+z
1/2+x,-y,1/2+z
loop_
_atom_site_type_symbol
_atom_site_label
_atom_site_fract_x
_atom_site_fract_y
_atom_site_fract_z
Si Si1 0.139436 0.412153 0.545423
Si Si2 0.423112 0.345785 0.103734
Si Si3 0.080953 0.652313 0.115398
Si Si4 0.230098 0.348718 0.338198
Si Si5 0.797485 0.903268 0.997490
Si Si6 0.913862 0.345625 0.706096
O O1 0.134905 0.500000 0.500000
O O2 0.089098 0.355693 0.490781
O O3 0.221248 0.382822 0.538140
O O4 0.115566 0.403088 0.636201
O O5 0.500000 0.382630 0.126220
O O6 0.425371 0.250000 0.123681
O O7 0.349896 0.379058 0.141205
O O8 0.076115 0.750000 0.120929
O O9 0.106159 0.626274 0.204137
O O10 0.000000 0.621164 0.100634
O O11 0.136481 0.632323 0.045985
O O12 0.228885 0.250000 0.340186
O O13 0.250000 0.375842 0.250000
O O14 0.285283 0.376192 0.406193
O O15 0.805088 0.000000 0.000000
O O16 0.891526 0.250000 0.694008
O O17 0.000000 0.346333 0.703741
#
# Coordination Sequence:
#
# PCOD9537057 Si02
#       6
#    16  16  16  16  16  16
#     4  10  20  32  47  74 109 143 175 211 262 320
#     4   9  17  30  49  72  99 132 171 214 258 310
#     4   9  19  37  59  81 106 139 182 229 271 316
#     4   9  18  35  57  76 101 141 181 221 270 317
#     4  10  21  37  52  79 108 141 177 219 269 326
#     4   9  18  33  53  78 108 141 177 220 269 317
#
# _framework density 18.684436000000002
#
# number of rings (size 3 to 8) (size 9 to 14) (size 15 to 20)
#    0.000    2.667    0.000    2.500    0.000    5.667 
#    9.000    2.500    0.000    3.000    0.000    0.000 
#    0.000    0.000    0.000    0.000    0.000    0.000 
#
# Total GULP energy -267384.110697 kJ/mol
# GULP energy per Si atom -5570.502306 kJ/mol
# Density = 1.864191 g / cm^3
# Si number density = 18.684436 Si / 1000 Ang^3
#
#
#
# Elastic Constant Matrix: (Units=GPa)
#
#
# Indices 1 2 3 4 5 6 
#
# 1 94.9313 17.4474 84.8452 0.0000 0.0000 0.0000
# 2 17.4474 25.5702 25.5763 0.0000 0.0000 0.0000
# 3 84.8452 25.5763 171.5998 0.0000 0.0000 0.0000
# 4 0.0000 0.0000 0.0000 7.3670 0.0000 0.0000
# 5 0.0000 0.0000 0.0000 0.0000 0.6364 0.0000
# 6 0.0000 0.0000 0.0000 0.0000 0.0000 13.1192
#
#
#
# Elastic Compliance Matrix: (Units=1/GPa)
#
#
# Indices 1 2 3 4 5 6 
#
# 1 0.019260 -0.004250 -0.008889 0.000000 0.000000 0.000000
# 2 -0.004250 0.046898 -0.004888 0.000000 0.000000 0.000000
# 3 -0.008889 -0.004888 0.010951 0.000000 0.000000 0.000000
# 4 0.000000 0.000000 0.000000 0.135741 0.000000 0.000000
# 5 0.000000 0.000000 0.000000 0.000000 1.571442 0.000000
# 6 0.000000 0.000000 0.000000 0.000000 0.000000 0.076224
#
#
# Mechanical properties :
#
#
# Convention : Reuss Voigt Hill
#
# Bulk Modulus (GPa) = 24.35877 60.87100 42.61489
# Shear Modulus (GPa) = 2.61745 15.17333 8.89539
#
# Velocity S-wave (km/s) = 1.18487 2.85280 2.18431
# Velocity P-wave (km/s) = 3.86486 6.59549 5.40544
#
# Compressibility (1/GPa) = 0.04105297
#
# Stress axis : x y z
#
# Youngs Moduli (GPa) = 51.92118 21.32296 91.31317
#
# Poissons Ratio (x) = 0.09063 0.81171
# Poissons Ratio (y) = 0.22068 0.44638
# Poissons Ratio (z) = 0.46154 0.10424
#
# Static dielectric constant tensor:
#      x y z
#    x 1.679490 0.000000 0.000000 
#    y 0.000000 1.663940 0.000000 
#    z 0.000000 0.000000 1.649820 
# 
# From -- ./inp_files/32367.got.cif
#   From: 2010.05.17/outbox.cif.g08.bks.cpg/sg74_17_cif.got.tgz:32367.got - 2010.06.03 17:57:02.
