data_PCOD9537374
_publ_section_title
;
Structure prediction by ZEFSAII (Michael W. Deem and Ramdas Pophale) SiO2 
 PCOD9537374
Probable space group: I M M A
;
_chemical_formula_sum "Si O2"
_cell_formula_units_Z 72
_cell_length_a 15.998776
_cell_length_b 14.924798
_cell_length_c 14.471237
_cell_angle_alpha 90.000000
_cell_angle_beta 90.000000
_cell_angle_gamma 90.000000
_cell_volume 3455.420265
_symmetry_space_group_name_H-M "I M M A"
_symmetry_group_IT_number 74
_symmetry_cell_setting 'orthorhombic'
loop_
_space_group_symop_operation_xyz
x,y,z
-x,1/2-y,z
x,-y,-z
-x,1/2+y,-z
-x,-y,-z
x,1/2+y,-z
-x,y,z
x,1/2-y,z
1/2+x,1/2+y,1/2+z
1/2-x,-y,1/2+z
1/2+x,1/2-y,1/2-z
1/2-x,y,1/2-z
1/2-x,1/2-y,1/2-z
1/2+x,y,1/2-z
1/2-x,1/2+y,1/2+z
1/2+x,-y,1/2+z
loop_
_atom_site_type_symbol
_atom_site_label
_atom_site_fract_x
_atom_site_fract_y
_atom_site_fract_z
Si Si1 0.740132 0.750000 0.049235
Si Si2 0.243995 0.061003 0.862094
Si Si3 0.309791 0.750000 0.658177
Si Si4 0.405600 0.949816 0.870561
Si Si5 0.593909 0.935924 0.652552
Si Si6 0.598701 0.750000 0.939979
O O1 0.500000 0.750000 0.946558
O O2 0.768023 0.659925 0.098383
O O3 0.639903 0.750000 0.040815
O O4 0.250000 0.063722 0.750000
O O5 0.329891 0.015297 0.898115
O O6 0.164626 0.000278 0.888634
O O7 0.250000 0.750000 0.750000
O O8 0.368126 0.663235 0.655195
O O9 0.262883 0.750000 0.559507
O O10 0.500000 0.966606 0.906147
O O11 0.411413 0.960774 0.760504
O O12 0.382303 0.845939 0.891378
O O13 0.500000 0.939983 0.613111
#
# Coordination Sequence:
#
# PCOD9537374 Si02
#       6
#     8  16   8  16  16   8
#     4  12  25  39  58  83 115 159 202 241 287 336
#     4  10  22  41  61  83 114 154 200 245 286 336
#     4  12  23  38  61  92 122 151 186 234 296 361
#     4   9  18  35  62  91 120 151 186 233 298 363
#     4  10  20  37  61  88 117 154 195 241 291 341
#     4  10  20  33  54  91 126 148 179 231 297 375
#
# _framework density 20.836829000000002
#
# number of rings (size 3 to 8) (size 9 to 14) (size 15 to 20)
#    0.000    1.778    0.000    6.000    0.000    6.222 
#    0.000    6.667    0.000    5.333    0.000    0.000 
#    0.000    0.000    0.000    0.000    0.000    0.000 
#
# Total GULP energy -200948.343500 kJ/mol
# GULP energy per Si atom -5581.898431 kJ/mol
# Density = 2.078940 g / cm^3
# Si number density = 20.836829 Si / 1000 Ang^3
#
#
#
# Elastic Constant Matrix: (Units=GPa)
#
#
# Indices 1 2 3 4 5 6 
#
# 1 165.4961 113.4549 32.9373 0.0000 0.0000 0.0000
# 2 113.4549 174.8246 31.8777 0.0000 0.0000 0.0000
# 3 32.9373 31.8777 82.0872 0.0000 0.0000 0.0000
# 4 0.0000 0.0000 0.0000 -56.2343 0.0000 0.0000
# 5 0.0000 0.0000 0.0000 0.0000 4.9471 0.0000
# 6 0.0000 0.0000 0.0000 0.0000 0.0000 -176.7048
#
#
#
# Elastic Compliance Matrix: (Units=1/GPa)
#
#
# Indices 1 2 3 4 5 6 
#
# 1 0.011123 -0.006893 -0.001786 0.000000 0.000000 0.000000
# 2 -0.006893 0.010427 -0.001284 0.000000 0.000000 0.000000
# 3 -0.001786 -0.001284 0.013397 0.000000 0.000000 0.000000
# 4 0.000000 0.000000 0.000000 -0.017783 0.000000 0.000000
# 5 0.000000 0.000000 0.000000 0.000000 0.202137 0.000000
# 6 0.000000 0.000000 0.000000 0.000000 0.000000 -0.005659
#
#
# Mechanical properties :
#
#
# Convention : Reuss Voigt Hill
#
# Bulk Modulus (GPa) = 66.56785 86.54975 76.55880
# Shear Modulus (GPa) = 20.95764 -29.32253 -4.18245
#
# Velocity S-wave (km/s) = 3.17487 -3.75540 -1.41831
# Velocity P-wave (km/s) = 6.74213 4.77735 5.84292
#
# Compressibility (1/GPa) = 0.01502227
#
# Stress axis : x y z
#
# Youngs Moduli (GPa) = 89.90055 95.90163 74.64118
#
# Poissons Ratio (x) = 0.66105 0.13334
# Poissons Ratio (y) = 0.61968 0.09581
# Poissons Ratio (z) = 0.16060 0.12310
#
# Static dielectric constant tensor:
#      x y z
#    x 1.879660 0.000000 0.000000 
#    y 0.000000 1.727820 0.000000 
#    z 0.000000 0.000000 1.775930 
# 
# From -- ./inp_files/42558.got.cif
#   From: 2010.05.17/outbox.cif.g08.bks.cpg/sg74_22_cif.got.tgz:42558.got - 2010.06.03 17:57:02.
