data_PCOD9537444
_publ_section_title
;
Structure prediction by ZEFSAII (Michael W. Deem and Ramdas Pophale) SiO2 
 PCOD9537444
Probable space group: I M M A
;
_chemical_formula_sum "Si O2"
_cell_formula_units_Z 80
_cell_length_a 7.822052
_cell_length_b 27.828112
_cell_length_c 19.137013
_cell_angle_alpha 90.000000
_cell_angle_beta 90.000000
_cell_angle_gamma 90.000000
_cell_volume 4165.609866
_symmetry_space_group_name_H-M "I M M A"
_symmetry_group_IT_number 74
_symmetry_cell_setting 'orthorhombic'
loop_
_space_group_symop_operation_xyz
x,y,z
-x,1/2-y,z
x,-y,-z
-x,1/2+y,-z
-x,-y,-z
x,1/2+y,-z
-x,y,z
x,1/2-y,z
1/2+x,1/2+y,1/2+z
1/2-x,-y,1/2+z
1/2+x,1/2-y,1/2-z
1/2-x,y,1/2-z
1/2-x,1/2-y,1/2-z
1/2+x,y,1/2-z
1/2-x,1/2+y,1/2+z
1/2+x,-y,1/2+z
loop_
_atom_site_type_symbol
_atom_site_label
_atom_site_fract_x
_atom_site_fract_y
_atom_site_fract_z
Si Si1 0.296394 0.450081 0.029995
Si Si2 0.792276 0.349223 0.529635
Si Si3 0.205465 0.695012 0.326040
Si Si4 0.796024 0.197250 0.113794
Si Si5 0.796265 0.095997 0.171424
O O1 0.500000 0.450618 0.018008
O O2 0.267924 0.440257 0.111948
O O3 0.226209 0.500000 0.000000
O O4 0.229466 0.402264 0.991491
O O5 0.732923 0.333115 0.605917
O O6 0.736079 0.313429 0.468016
O O7 0.000000 0.349387 0.529091
O O8 0.270475 0.750000 0.328529
O O9 0.250000 0.674550 0.250000
O O10 0.000000 0.696751 0.330359
O O11 0.726671 0.250000 0.133049
O O12 0.727801 0.149937 0.153681
O O13 0.000000 0.198455 0.125234
O O14 0.750000 0.082722 0.250000
O O15 0.000000 0.097682 0.164848
#
# Coordination Sequence:
#
# PCOD9537444 Si02
#       5
#    16  16  16  16  16
#     4   9  18  34  55  75  96 124 158 198 245 292
#     4   9  17  30  48  69  93 122 158 198 238 285
#     4   9  17  28  42  62  89 120 152 186 226 273
#     4   9  18  31  47  70  99 129 161 197 237 283
#     4  10  20  34  52  74 101 131 163 199 240 287
#
# _framework density 19.20487
#
# number of rings (size 3 to 8) (size 9 to 14) (size 15 to 20)
#    0.000    2.800    0.000    1.200    0.000    3.600 
#    0.000    3.000    0.000    2.400    0.000    0.000 
#    0.000    0.000    0.000    0.000    0.000    0.000 
#
# Total GULP energy -223026.217827 kJ/mol
# GULP energy per Si atom -5575.655446 kJ/mol
# Density = 1.916116 g / cm^3
# Si number density = 19.204870 Si / 1000 Ang^3
#
#
#
# Elastic Constant Matrix: (Units=GPa)
#
#
# Indices 1 2 3 4 5 6 
#
# 1 17.6902 -0.0901 -19.4430 0.0000 0.0000 0.0000
# 2 -0.0901 100.3674 39.8360 0.0000 0.0000 0.0000
# 3 -19.4430 39.8360 115.0830 0.0000 0.0000 0.0000
# 4 0.0000 0.0000 0.0000 8.5415 0.0000 0.0000
# 5 0.0000 0.0000 0.0000 0.0000 20.6032 0.0000
# 6 0.0000 0.0000 0.0000 0.0000 0.0000 -18.5042
#
#
#
# Elastic Compliance Matrix: (Units=1/GPa)
#
#
# Indices 1 2 3 4 5 6 
#
# 1 0.071963 -0.005519 0.014068 0.000000 0.000000 0.000000
# 2 -0.005519 0.011974 -0.005077 0.000000 0.000000 0.000000
# 3 0.014068 -0.005077 0.012824 0.000000 0.000000 0.000000
# 4 0.000000 0.000000 0.000000 0.117075 0.000000 0.000000
# 5 0.000000 0.000000 0.000000 0.000000 0.048536 0.000000
# 6 0.000000 0.000000 0.000000 0.000000 0.000000 -0.054042
#
#
# Mechanical properties :
#
#
# Convention : Reuss Voigt Hill
#
# Bulk Modulus (GPa) = 9.64281 30.41627 20.02954
# Shear Modulus (GPa) = 21.19062 16.31729 18.75396
#
# Velocity S-wave (km/s) = 3.32535 2.91803 3.12832
# Velocity P-wave (km/s) = 4.44700 5.21779 4.84774
#
# Compressibility (1/GPa) = 0.10370423
#
# Stress axis : x y z
#
# Youngs Moduli (GPa) = 13.89607 83.51747 77.98101
#
# Poissons Ratio (x) = 0.46095 -1.09707
# Poissons Ratio (y) = 0.07669 0.39592
# Poissons Ratio (z) = -0.19550 0.42403
#
# Static dielectric constant tensor:
#      x y z
#    x 1.695230 0.000000 0.000000 
#    y 0.000000 1.691220 0.000000 
#    z 0.000000 0.000000 1.660230 
# 
# From -- ./inp_files/39683.got.cif
#   From: 2010.05.17/outbox.cif.g08.bks.cpg/sg74_20_cif.got.tgz:39683.got - 2010.06.03 17:57:02.
