data_PCOD9537941
_publ_section_title
;
Structure prediction by ZEFSAII (Michael W. Deem and Ramdas Pophale) SiO2 
 PCOD9537941
Probable space group: I M M A
;
_chemical_formula_sum "Si O2"
_cell_formula_units_Z 72
_cell_length_a 10.008342
_cell_length_b 15.177830
_cell_length_c 27.021766
_cell_angle_alpha 90.000000
_cell_angle_beta 90.000000
_cell_angle_gamma 90.000000
_cell_volume 4104.739026
_symmetry_space_group_name_H-M "I M M A"
_symmetry_group_IT_number 74
_symmetry_cell_setting 'orthorhombic'
loop_
_space_group_symop_operation_xyz
x,y,z
-x,1/2-y,z
x,-y,-z
-x,1/2+y,-z
-x,-y,-z
x,1/2+y,-z
-x,y,z
x,1/2-y,z
1/2+x,1/2+y,1/2+z
1/2-x,-y,1/2+z
1/2+x,1/2-y,1/2-z
1/2-x,y,1/2-z
1/2-x,1/2-y,1/2-z
1/2+x,y,1/2-z
1/2-x,1/2+y,1/2+z
1/2+x,-y,1/2+z
loop_
_atom_site_type_symbol
_atom_site_label
_atom_site_fract_x
_atom_site_fract_y
_atom_site_fract_z
Si Si1 0.000000 0.644337 0.513900
Si Si2 0.263848 0.146840 0.309139
Si Si3 0.000000 0.853571 0.100434
Si Si4 0.500000 0.342628 0.438245
Si Si5 0.794111 0.600317 0.015505
Si Si6 0.500000 0.530665 0.650573
Si Si7 0.500000 0.355749 0.127925
O O1 0.863902 0.615581 0.486948
O O2 0.000000 0.610368 0.571240
O O3 0.000000 0.750000 0.515432
O O4 0.296811 0.250000 0.321196
O O5 0.250000 0.144311 0.250000
O O6 0.373478 0.075610 0.323899
O O7 0.130896 0.122915 0.339973
O O8 0.129619 0.874124 0.065825
O O9 0.000000 0.750000 0.113591
O O10 0.000000 0.925696 0.144195
O O11 0.500000 0.250000 0.410079
O O12 0.629947 0.345650 0.472788
O O13 0.500000 0.427326 0.404191
O O14 0.820673 0.500000 0.000000
O O15 0.500000 0.250000 0.123690
#
# Coordination Sequence:
#
# PCOD9537941 Si02
#       7
#     8  16   8   8  16   8   8
#     4  11  21  32  50  75 108 149 184 221 272 320
#     4  10  20  35  56  84 117 145 169 210 272 339
#     4  11  23  40  57  76 106 143 192 241 274 308
#     4  11  19  32  54  78 109 143 180 227 269 317
#     4  11  20  36  51  76 108 148 188 231 272 324
#     4  12  21  35  57  84 108 139 190 223 265 326
#     4   9  19  32  48  77 112 144 176 209 259 327
#
# _framework density 17.540700999999999
#
# number of rings (size 3 to 8) (size 9 to 14) (size 15 to 20)
#    0.000    1.333    2.222    6.667    0.000    3.556 
#    0.000    0.000    0.000    0.667    0.000    0.000 
#    0.000    0.000    0.000    0.000    0.000    0.000 
#
# Total GULP energy -200869.946357 kJ/mol
# GULP energy per Si atom -5579.720732 kJ/mol
# Density = 1.750078 g / cm^3
# Si number density = 17.540701 Si / 1000 Ang^3
#
#
#
# Elastic Constant Matrix: (Units=GPa)
#
#
# Indices 1 2 3 4 5 6 
#
# 1 148.7769 41.9982 47.1211 0.0000 0.0000 0.0000
# 2 41.9982 139.5525 28.0611 0.0000 0.0000 0.0000
# 3 47.1211 28.0611 60.4652 0.0000 0.0000 0.0000
# 4 0.0000 0.0000 0.0000 14.7064 0.0000 0.0000
# 5 0.0000 0.0000 0.0000 0.0000 7.9516 0.0000
# 6 0.0000 0.0000 0.0000 0.0000 0.0000 56.2713
#
#
#
# Elastic Compliance Matrix: (Units=1/GPa)
#
#
# Indices 1 2 3 4 5 6 
#
# 1 0.009187 -0.001462 -0.006481 0.000000 0.000000 0.000000
# 2 -0.001462 0.008136 -0.002637 0.000000 0.000000 0.000000
# 3 -0.006481 -0.002637 0.022813 0.000000 0.000000 0.000000
# 4 0.000000 0.000000 0.000000 0.067998 0.000000 0.000000
# 5 0.000000 0.000000 0.000000 0.000000 0.125761 0.000000
# 6 0.000000 0.000000 0.000000 0.000000 0.000000 0.017771
#
#
# Mechanical properties :
#
#
# Convention : Reuss Voigt Hill
#
# Bulk Modulus (GPa) = 52.69601 64.79505 58.74553
# Shear Modulus (GPa) = 17.91155 31.22681 24.56918
#
# Velocity S-wave (km/s) = 3.19900 4.22388 3.74665
# Velocity P-wave (km/s) = 6.61454 7.79796 7.23050
#
# Compressibility (1/GPa) = 0.01897677
#
# Stress axis : x y z
#
# Youngs Moduli (GPa) = 108.85246 122.91355 43.83499
#
# Poissons Ratio (x) = 0.17964 0.28410
# Poissons Ratio (y) = 0.15909 0.11558
# Poissons Ratio (z) = 0.70548 0.32409
#
# Static dielectric constant tensor:
#      x y z
#    x 1.623670 0.000000 0.000000 
#    y 0.000000 1.615590 0.000000 
#    z 0.000000 0.000000 1.598300 
# 
# From -- ./inp_files/63762.got.cif
#   From: 2010.05.17/outbox.cif.g08.bks.cpg/sg74_32_cif.got.tgz:63762.got - 2010.06.03 17:57:02.
