data_PCOD9537370
_publ_section_title
;
Structure prediction by ZEFSAII (Michael W. Deem and Ramdas Pophale) SiO2 
 PCOD9537370
Probable space group: I M M A
;
_chemical_formula_sum "Si O2"
_cell_formula_units_Z 96
_cell_length_a 14.787920
_cell_length_b 15.255197
_cell_length_c 21.853928
_cell_angle_alpha 90.000000
_cell_angle_beta 90.000000
_cell_angle_gamma 90.000000
_cell_volume 4930.085155
_symmetry_space_group_name_H-M "I M M A"
_symmetry_group_IT_number 74
_symmetry_cell_setting 'orthorhombic'
loop_
_space_group_symop_operation_xyz
x,y,z
-x,1/2-y,z
x,-y,-z
-x,1/2+y,-z
-x,-y,-z
x,1/2+y,-z
-x,y,z
x,1/2-y,z
1/2+x,1/2+y,1/2+z
1/2-x,-y,1/2+z
1/2+x,1/2-y,1/2-z
1/2-x,y,1/2-z
1/2-x,1/2-y,1/2-z
1/2+x,y,1/2-z
1/2-x,1/2+y,1/2+z
1/2+x,-y,1/2+z
loop_
_atom_site_type_symbol
_atom_site_label
_atom_site_fract_x
_atom_site_fract_y
_atom_site_fract_z
Si Si1 0.103430 0.851819 0.522186
Si Si2 0.606209 0.750000 0.554280
Si Si3 0.204113 0.581031 0.407507
Si Si4 0.250000 0.074981 0.250000
Si Si5 0.239513 0.612213 0.886725
Si Si6 0.397048 0.750000 0.282805
Si Si7 0.108098 0.572310 0.279176
Si Si8 0.168514 0.750000 0.084840
O O1 0.106123 0.750000 0.501078
O O2 0.145462 0.910931 0.468876
O O3 0.167410 0.858385 0.581017
O O4 0.000000 0.874973 0.535508
O O5 0.500000 0.750000 0.568153
O O6 0.658747 0.833771 0.582390
O O7 0.621561 0.750000 0.481121
O O8 0.261628 0.491918 0.400624
O O9 0.137472 0.583960 0.349521
O O10 0.269532 0.664155 0.409289
O O11 0.242981 0.125764 0.186100
O O12 0.162874 0.011193 0.254671
O O13 0.500000 0.750000 0.260255
O O14 0.359141 0.659301 0.256689
O O15 0.393963 0.750000 0.355654
O O16 0.000000 0.561776 0.273022
#
# Coordination Sequence:
#
# PCOD9537370 Si02
#       8
#    16   8  16   8  16   8  16   8
#     4  11  22  39  65  99 137 169 204 258 322 389
#     4  12  27  48  66  88 121 168 225 285 323 363
#     4  11  21  37  67  95 131 168 204 252 321 384
#     4  10  24  40  66  88 122 162 208 269 330 375
#     4  11  23  44  66  93 122 165 213 271 320 387
#     4  10  20  33  54  84 129 176 212 241 290 362
#     4  10  21  37  57  94 133 168 210 252 304 381
#     4  12  22  40  62  92 132 169 211 262 305 365
#
# _framework density 19.472280000000001
#
# number of rings (size 3 to 8) (size 9 to 14) (size 15 to 20)
#    0.000    1.167    3.333    3.750    0.000    6.000 
#    0.000    2.500    0.000    0.000    0.000    0.000 
#    0.000    0.000    0.000    0.000    0.000    0.000 
#
# Total GULP energy -268198.306881 kJ/mol
# GULP energy per Si atom -5587.464727 kJ/mol
# Density = 1.942796 g / cm^3
# Si number density = 19.472280 Si / 1000 Ang^3
#
#
#
# Elastic Constant Matrix: (Units=GPa)
#
#
# Indices 1 2 3 4 5 6 
#
# 1 126.5741 35.0873 47.0732 0.0000 0.0000 0.0000
# 2 35.0873 90.5476 30.2647 0.0000 0.0000 0.0000
# 3 47.0732 30.2647 162.1809 0.0000 0.0000 0.0000
# 4 0.0000 0.0000 0.0000 10.8290 0.0000 0.0000
# 5 0.0000 0.0000 0.0000 0.0000 19.5649 0.0000
# 6 0.0000 0.0000 0.0000 0.0000 0.0000 11.8996
#
#
#
# Elastic Compliance Matrix: (Units=1/GPa)
#
#
# Indices 1 2 3 4 5 6 
#
# 1 0.009545 -0.002957 -0.002219 0.000000 0.000000 0.000000
# 2 -0.002957 0.012695 -0.001511 0.000000 0.000000 0.000000
# 3 -0.002219 -0.001511 0.007092 0.000000 0.000000 0.000000
# 4 0.000000 0.000000 0.000000 0.092345 0.000000 0.000000
# 5 0.000000 0.000000 0.000000 0.000000 0.051112 0.000000
# 6 0.000000 0.000000 0.000000 0.000000 0.000000 0.084037
#
#
# Mechanical properties :
#
#
# Convention : Reuss Voigt Hill
#
# Bulk Modulus (GPa) = 62.66134 67.12812 64.89473
# Shear Modulus (GPa) = 18.14762 26.25053 22.19907
#
# Velocity S-wave (km/s) = 3.05613 3.67563 3.38010
# Velocity P-wave (km/s) = 6.68602 7.24998 6.97370
#
# Compressibility (1/GPa) = 0.01595880
#
# Stress axis : x y z
#
# Youngs Moduli (GPa) = 104.76215 78.77260 141.00719
#
# Poissons Ratio (x) = 0.23295 0.31285
# Poissons Ratio (y) = 0.30981 0.21301
# Poissons Ratio (z) = 0.23244 0.11900
#
# Static dielectric constant tensor:
#      x y z
#    x 1.658200 0.000000 0.000000 
#    y 0.000000 1.719370 0.000000 
#    z 0.000000 0.000000 1.682830 
# 
# From -- ./inp_files/51976.got.cif
#   From: 2010.05.17/outbox.cif.g08.bks.cpg/sg74_26_cif.got.tgz:51976.got - 2010.06.03 17:57:02.
