data_PCOD9537598
_publ_section_title
;
Structure prediction by ZEFSAII (Michael W. Deem and Ramdas Pophale) SiO2 
 PCOD9537598
Probable space group: I M M A
;
_chemical_formula_sum "Si O2"
_cell_formula_units_Z 64
_cell_length_a 17.273823
_cell_length_b 24.741408
_cell_length_c 8.225838
_cell_angle_alpha 90.000000
_cell_angle_beta 90.000000
_cell_angle_gamma 90.000000
_cell_volume 3515.547972
_symmetry_space_group_name_H-M "I M M A"
_symmetry_group_IT_number 74
_symmetry_cell_setting 'orthorhombic'
loop_
_space_group_symop_operation_xyz
x,y,z
-x,1/2-y,z
x,-y,-z
-x,1/2+y,-z
-x,-y,-z
x,1/2+y,-z
-x,y,z
x,1/2-y,z
1/2+x,1/2+y,1/2+z
1/2-x,-y,1/2+z
1/2+x,1/2-y,1/2-z
1/2-x,y,1/2-z
1/2-x,1/2-y,1/2-z
1/2+x,y,1/2-z
1/2-x,1/2+y,1/2+z
1/2+x,-y,1/2+z
loop_
_atom_site_type_symbol
_atom_site_label
_atom_site_fract_x
_atom_site_fract_y
_atom_site_fract_z
Si Si1 0.773885 0.061196 0.938386
Si Si2 0.317849 0.349764 0.123770
Si Si3 0.177612 0.750000 0.378564
Si Si4 0.910305 0.750000 0.070442
Si Si5 0.908554 0.135648 0.068172
O O1 0.750000 0.063487 0.750000
O O2 0.710597 0.095781 0.037299
O O3 0.855139 0.090792 0.981788
O O4 0.776420 0.000000 0.000000
O O5 0.250000 0.334123 0.250000
O O6 0.390873 0.361585 0.239265
O O7 0.324355 0.302592 0.992052
O O8 0.250000 0.750000 0.250000
O O9 0.103935 0.750000 0.261191
O O10 0.000000 0.750000 0.027001
O O11 0.879781 0.806133 0.999515
O O12 0.000000 0.128706 0.036619
#
# Coordination Sequence:
#
# PCOD9537598 Si02
#       5
#    16  16   8   8  16
#     4  11  22  39  60  82 109 143 183 228 278 329
#     4  10  20  34  54  80 109 144 183 225 272 324
#     4  12  20  31  54  83 112 143 187 227 265 322
#     4  10  21  35  51  77 112 145 175 217 274 324
#     4  10  21  38  58  81 112 148 185 226 276 330
#
# _framework density 18.204843
#
# number of rings (size 3 to 8) (size 9 to 14) (size 15 to 20)
#    0.000    1.500    0.000    8.625    0.000    1.500 
#    0.000    1.250    0.000    3.000    0.000    0.000 
#    0.000    0.000    0.000    0.000    0.000    0.000 
#
# Total GULP energy -178575.971511 kJ/mol
# GULP energy per Si atom -5580.499110 kJ/mol
# Density = 1.816341 g / cm^3
# Si number density = 18.204843 Si / 1000 Ang^3
#
#
#
# Elastic Constant Matrix: (Units=GPa)
#
#
# Indices 1 2 3 4 5 6 
#
# 1 54.1645 54.1648 40.8594 0.0000 0.0000 0.0000
# 2 54.1648 189.1004 79.4404 0.0000 0.0000 0.0000
# 3 40.8594 79.4404 141.0754 0.0000 0.0000 0.0000
# 4 0.0000 0.0000 0.0000 34.8454 0.0000 0.0000
# 5 0.0000 0.0000 0.0000 0.0000 20.9467 0.0000
# 6 0.0000 0.0000 0.0000 0.0000 0.0000 -4.8836
#
#
#
# Elastic Compliance Matrix: (Units=1/GPa)
#
#
# Indices 1 2 3 4 5 6 
#
# 1 0.028085 -0.006061 -0.004721 0.000000 0.000000 0.000000
# 2 -0.006061 0.008235 -0.002882 0.000000 0.000000 0.000000
# 3 -0.004721 -0.002882 0.010078 0.000000 0.000000 0.000000
# 4 0.000000 0.000000 0.000000 0.028698 0.000000 0.000000
# 5 0.000000 0.000000 0.000000 0.000000 0.047740 0.000000
# 6 0.000000 0.000000 0.000000 0.000000 0.000000 -0.204765
#
#
# Mechanical properties :
#
#
# Convention : Reuss Voigt Hill
#
# Bulk Modulus (GPa) = 52.43720 81.47440 66.95580
# Shear Modulus (GPa) = -103.63973 24.17339 -39.73317
#
# Velocity S-wave (km/s) = -7.55337 3.64793 -4.67686
# Velocity P-wave (km/s) = 6.87056 7.91167 2.77398
#
# Compressibility (1/GPa) = 0.01907043
#
# Stress axis : x y z
#
# Youngs Moduli (GPa) = 35.60632 121.43467 99.22177
#
# Poissons Ratio (x) = 0.73603 0.46844
# Poissons Ratio (y) = 0.21582 0.28592
# Poissons Ratio (z) = 0.16810 0.34993
#
# Static dielectric constant tensor:
#      x y z
#    x 1.652790 0.000000 0.000000 
#    y 0.000000 1.616130 0.000000 
#    z 0.000000 0.000000 1.650660 
# 
# From -- ./inp_files/10262.got.cif
#   From: 2010.05.17/outbox.cif.g08.bks.cpg/sg74_6_cif.got.tgz:10262.got - 2010.06.03 17:57:02.
