data_PCOD9537359
_publ_section_title
;
Structure prediction by ZEFSAII (Michael W. Deem and Ramdas Pophale) SiO2 
 PCOD9537359
Probable space group: I M M A
;
_chemical_formula_sum "Si O2"
_cell_formula_units_Z 96
_cell_length_a 15.065086
_cell_length_b 13.873336
_cell_length_c 21.417829
_cell_angle_alpha 90.000000
_cell_angle_beta 90.000000
_cell_angle_gamma 90.000000
_cell_volume 4476.390513
_symmetry_space_group_name_H-M "I M M A"
_symmetry_group_IT_number 74
_symmetry_cell_setting 'orthorhombic'
loop_
_space_group_symop_operation_xyz
x,y,z
-x,1/2-y,z
x,-y,-z
-x,1/2+y,-z
-x,-y,-z
x,1/2+y,-z
-x,y,z
x,1/2-y,z
1/2+x,1/2+y,1/2+z
1/2-x,-y,1/2+z
1/2+x,1/2-y,1/2-z
1/2-x,y,1/2-z
1/2-x,1/2-y,1/2-z
1/2+x,y,1/2-z
1/2-x,1/2+y,1/2+z
1/2+x,-y,1/2+z
loop_
_atom_site_type_symbol
_atom_site_label
_atom_site_fract_x
_atom_site_fract_y
_atom_site_fract_z
Si Si1 0.393246 0.640307 0.599405
Si Si2 0.853532 0.360671 0.234796
Si Si3 0.899621 0.012221 0.350451
Si Si4 0.719782 0.135482 0.903129
Si Si5 0.896343 0.636683 0.526881
Si Si6 0.100740 0.368163 0.961957
O O1 0.500000 0.645477 0.599617
O O2 0.356448 0.750000 0.599779
O O3 0.365127 0.597563 0.665250
O O4 0.371524 0.598456 0.531665
O O5 0.888563 0.250000 0.235240
O O6 0.750000 0.356409 0.250000
O O7 0.896517 0.424348 0.288385
O O8 0.876213 0.078958 0.410160
O O9 0.000000 0.975916 0.359640
O O10 0.829615 0.926087 0.351052
O O11 0.714132 0.250000 0.892110
O O12 0.822090 0.108143 0.913865
O O13 0.666332 0.115823 0.968053
O O14 0.887554 0.750000 0.540635
O O15 0.000000 0.618222 0.510369
O O16 0.098015 0.250000 0.965556
O O17 0.000000 0.400302 0.947677
#
# Coordination Sequence:
#
# PCOD9537359 Si02
#       6
#    16  16  16  16  16  16
#     4   8  14  27  48  74 105 140 178 221 274 337
#     4  10  21  34  53  82 114 147 186 234 290 347
#     4  11  22  35  53  80 116 156 196 236 282 340
#     4  10  20  33  54  81 115 153 189 234 285 336
#     4   9  18  32  50  74 106 146 190 233 281 335
#     4   8  15  29  52  81 110 143 184 230 284 345
#
# _framework density 21.445848999999999
#
# number of rings (size 3 to 8) (size 9 to 14) (size 15 to 20)
#    0.000    2.667    0.000    3.000    2.333    4.000 
#    0.000    0.000    0.000    4.500    0.000    0.000 
#    0.000    0.000    0.000    0.333    0.000    0.333 
#
# Total GULP energy -268245.849153 kJ/mol
# GULP energy per Si atom -5588.455191 kJ/mol
# Density = 2.139704 g / cm^3
# Si number density = 21.445849 Si / 1000 Ang^3
#
#
#
# Elastic Constant Matrix: (Units=GPa)
#
#
# Indices 1 2 3 4 5 6 
#
# 1 82.3963 38.0780 31.3989 0.0000 0.0000 0.0000
# 2 38.0780 82.4358 46.9820 0.0000 0.0000 0.0000
# 3 31.3989 46.9820 68.0552 0.0000 0.0000 0.0000
# 4 0.0000 0.0000 0.0000 25.7356 0.0000 0.0000
# 5 0.0000 0.0000 0.0000 0.0000 28.2033 0.0000
# 6 0.0000 0.0000 0.0000 0.0000 0.0000 -36.5886
#
#
#
# Elastic Compliance Matrix: (Units=1/GPa)
#
#
# Indices 1 2 3 4 5 6 
#
# 1 0.015992 -0.005246 -0.003757 0.000000 0.000000 0.000000
# 2 -0.005246 0.021720 -0.012574 0.000000 0.000000 0.000000
# 3 -0.003757 -0.012574 0.025108 0.000000 0.000000 0.000000
# 4 0.000000 0.000000 0.000000 0.038857 0.000000 0.000000
# 5 0.000000 0.000000 0.000000 0.000000 0.035457 0.000000
# 6 0.000000 0.000000 0.000000 0.000000 0.000000 -0.027331
#
#
# Mechanical properties :
#
#
# Convention : Reuss Voigt Hill
#
# Bulk Modulus (GPa) = 50.84826 51.75611 51.30219
# Shear Modulus (GPa) = 31.34546 11.23193 21.28870
#
# Velocity S-wave (km/s) = 3.82725 2.29101 3.15409
# Velocity P-wave (km/s) = 6.57966 5.58427 6.10230
#
# Compressibility (1/GPa) = 0.01966636
#
# Stress axis : x y z
#
# Youngs Moduli (GPa) = 62.52956 46.04036 39.82807
#
# Poissons Ratio (x) = 0.24152 0.14963
# Poissons Ratio (y) = 0.32802 0.50080
# Poissons Ratio (z) = 0.23492 0.57892
#
# Static dielectric constant tensor:
#      x y z
#    x 1.791670 0.000000 0.000000 
#    y 0.000000 1.834120 0.000000 
#    z 0.000000 0.000000 1.739010 
# 
# From -- ./inp_files/51823.got.cif
#   From: 2010.05.17/outbox.cif.g08.bks.cpg/sg74_26_cif.got.tgz:51823.got - 2010.06.03 17:57:02.
