data_PCOD9537572
_publ_section_title
;
Structure prediction by ZEFSAII (Michael W. Deem and Ramdas Pophale) SiO2 
 PCOD9537572
Probable space group: I M M A
;
_chemical_formula_sum "Si O2"
_cell_formula_units_Z 72
_cell_length_a 32.989089
_cell_length_b 8.792602
_cell_length_c 13.852624
_cell_angle_alpha 90.000000
_cell_angle_beta 90.000000
_cell_angle_gamma 90.000000
_cell_volume 4018.091147
_symmetry_space_group_name_H-M "I M M A"
_symmetry_group_IT_number 74
_symmetry_cell_setting 'orthorhombic'
loop_
_space_group_symop_operation_xyz
x,y,z
-x,1/2-y,z
x,-y,-z
-x,1/2+y,-z
-x,-y,-z
x,1/2+y,-z
-x,y,z
x,1/2-y,z
1/2+x,1/2+y,1/2+z
1/2-x,-y,1/2+z
1/2+x,1/2-y,1/2-z
1/2-x,y,1/2-z
1/2-x,1/2-y,1/2-z
1/2+x,y,1/2-z
1/2-x,1/2+y,1/2+z
1/2+x,-y,1/2+z
loop_
_atom_site_type_symbol
_atom_site_label
_atom_site_fract_x
_atom_site_fract_y
_atom_site_fract_z
Si Si1 0.843060 0.074706 0.397154
Si Si2 0.500000 0.570145 0.108797
Si Si3 0.866856 0.933009 0.894442
Si Si4 0.204398 0.570035 0.225526
Si Si5 0.424705 0.575095 0.782798
O O1 0.828518 0.250000 0.393352
O O2 0.889487 0.076830 0.363103
O O3 0.838732 0.000000 0.500000
O O4 0.819879 0.969803 0.321855
O O5 0.500000 0.750000 0.096612
O O6 0.461294 0.518883 0.172274
O O7 0.500000 0.500000 0.000000
O O8 0.866318 0.750000 0.896294
O O9 0.901340 0.977933 0.815049
O O10 0.822823 0.990010 0.856720
O O11 0.875061 0.000000 0.000000
O O12 0.205579 0.750000 0.205452
O O13 0.250000 0.517438 0.250000
O O14 0.438000 0.750000 0.766478
#
# Coordination Sequence:
#
# PCOD9537572 Si02
#       5
#    16   8  16  16  16
#     4  10  20  34  54  78 105 140 177 217 268 322
#     4  12  24  36  57  86 115 148 181 220 272 328
#     4  10  21  38  61  84 109 146 187 230 279 329
#     4  10  21  36  54  78 108 142 182 228 274 322
#     4   9  20  38  57  80 110 142 179 223 269 320
#
# _framework density 17.918955
#
# number of rings (size 3 to 8) (size 9 to 14) (size 15 to 20)
#    0.000    2.000    0.000    5.000    0.000    9.778 
#    0.000    0.556    0.000    0.000    0.000    0.000 
#    0.000    0.000    0.000    0.000    0.000    0.000 
#
# Total GULP energy -200703.238670 kJ/mol
# GULP energy per Si atom -5575.089963 kJ/mol
# Density = 1.787817 g / cm^3
# Si number density = 17.918955 Si / 1000 Ang^3
#
#
#
# Elastic Constant Matrix: (Units=GPa)
#
#
# Indices 1 2 3 4 5 6 
#
# 1 106.4434 43.7238 29.0301 0.0000 0.0000 0.0000
# 2 43.7238 63.6360 26.2839 0.0000 0.0000 0.0000
# 3 29.0301 26.2839 84.7264 0.0000 0.0000 0.0000
# 4 0.0000 0.0000 0.0000 29.2653 0.0000 0.0000
# 5 0.0000 0.0000 0.0000 0.0000 7.4150 0.0000
# 6 0.0000 0.0000 0.0000 0.0000 0.0000 29.9029
#
#
#
# Elastic Compliance Matrix: (Units=1/GPa)
#
#
# Indices 1 2 3 4 5 6 
#
# 1 0.013374 -0.008369 -0.001986 0.000000 0.000000 0.000000
# 2 -0.008369 0.023261 -0.004349 0.000000 0.000000 0.000000
# 3 -0.001986 -0.004349 0.013832 0.000000 0.000000 0.000000
# 4 0.000000 0.000000 0.000000 0.034170 0.000000 0.000000
# 5 0.000000 0.000000 0.000000 0.000000 0.134862 0.000000
# 6 0.000000 0.000000 0.000000 0.000000 0.000000 0.033442
#
#
# Mechanical properties :
#
#
# Convention : Reuss Voigt Hill
#
# Bulk Modulus (GPa) = 47.48377 50.32015 48.90196
# Shear Modulus (GPa) = 17.27905 23.70117 20.49011
#
# Velocity S-wave (km/s) = 3.10867 3.64082 3.38522
# Velocity P-wave (km/s) = 6.28027 6.76884 6.52913
#
# Compressibility (1/GPa) = 0.02105983
#
# Stress axis : x y z
#
# Youngs Moduli (GPa) = 74.77192 42.99116 72.29494
#
# Poissons Ratio (x) = 0.35978 0.14359
# Poissons Ratio (y) = 0.62575 0.31438
# Poissons Ratio (z) = 0.14851 0.18695
#
# Static dielectric constant tensor:
#      x y z
#    x 1.636730 0.000000 0.000000 
#    y 0.000000 1.621370 0.000000 
#    z 0.000000 0.000000 1.482770 
# 
# From -- ./inp_files/29401.got.cif
#   From: 2010.05.17/outbox.cif.g08.bks.cpg/sg74_15_cif.got.tgz:29401.got - 2010.06.03 17:57:02.
