data_PCOD9537255
_publ_section_title
;
Structure prediction by ZEFSAII (Michael W. Deem and Ramdas Pophale) SiO2 
 PCOD9537255
Probable space group: I M M A
;
_chemical_formula_sum "Si O2"
_cell_formula_units_Z 96
_cell_length_a 9.012460
_cell_length_b 32.318902
_cell_length_c 19.214497
_cell_angle_alpha 90.000000
_cell_angle_beta 90.000000
_cell_angle_gamma 90.000000
_cell_volume 5596.660563
_symmetry_space_group_name_H-M "I M M A"
_symmetry_group_IT_number 74
_symmetry_cell_setting 'orthorhombic'
loop_
_space_group_symop_operation_xyz
x,y,z
-x,1/2-y,z
x,-y,-z
-x,1/2+y,-z
-x,-y,-z
x,1/2+y,-z
-x,y,z
x,1/2-y,z
1/2+x,1/2+y,1/2+z
1/2-x,-y,1/2+z
1/2+x,1/2-y,1/2-z
1/2-x,y,1/2-z
1/2-x,1/2-y,1/2-z
1/2+x,y,1/2-z
1/2-x,1/2+y,1/2+z
1/2+x,-y,1/2+z
loop_
_atom_site_type_symbol
_atom_site_label
_atom_site_fract_x
_atom_site_fract_y
_atom_site_fract_z
Si Si1 0.822751 0.794790 0.425866
Si Si2 0.676364 0.454304 0.674854
Si Si3 0.177302 0.204395 0.077986
Si Si4 0.675945 0.119811 0.083110
Si Si5 0.824943 0.884891 0.416368
Si Si6 0.322333 0.049049 0.325740
O O1 0.797448 0.750000 0.390816
O O2 0.732764 0.794183 0.497915
O O3 0.786425 0.838360 0.389947
O O4 0.000000 0.797159 0.442421
O O5 0.500000 0.451247 0.681905
O O6 0.750000 0.447386 0.750000
O O7 0.734912 0.420561 0.621102
O O8 0.711931 0.501578 0.652945
O O9 0.214755 0.250000 0.107999
O O10 0.256893 0.163817 0.107586
O O11 0.000000 0.199417 0.080408
O O12 0.500000 0.119192 0.095405
O O13 0.754823 0.082246 0.121897
O O14 0.699690 0.115724 0.999721
O O15 0.000000 0.891803 0.404338
O O16 0.500000 0.053415 0.321428
O O17 0.250000 0.055278 0.250000
#
# Coordination Sequence:
#
# PCOD9537255 Si02
#       6
#    16  16  16  16  16  16
#     4   8  14  26  44  67  97 132 166 199 240 291
#     4  10  21  36  54  73  96 129 166 205 249 299
#     4   9  16  26  43  69 100 132 165 202 242 285
#     4  10  20  33  51  76 104 134 166 203 247 291
#     4   9  18  31  49  75 104 132 164 204 247 289
#     4  10  21  37  55  74  97 128 166 205 247 298
#
# _framework density 17.153085999999998
#
# number of rings (size 3 to 8) (size 9 to 14) (size 15 to 20)
#    0.000    2.667    0.000    3.000    0.000    7.000 
#    0.000    3.333    0.000    1.000    0.000    0.000 
#    0.000    0.000    0.000    0.000    0.000    0.000 
#
# Total GULP energy -267350.638059 kJ/mol
# GULP energy per Si atom -5569.804960 kJ/mol
# Density = 1.711405 g / cm^3
# Si number density = 17.153086 Si / 1000 Ang^3
#
#
#
# Elastic Constant Matrix: (Units=GPa)
#
#
# Indices 1 2 3 4 5 6 
#
# 1 69.7950 81.2880 33.1923 0.0000 0.0000 0.0000
# 2 81.2880 180.6016 57.8621 0.0001 0.0000 0.0000
# 3 33.1923 57.8621 26.5913 0.0003 0.0000 0.0000
# 4 0.0000 0.0001 0.0003 -15.7725 0.0000 0.0000
# 5 0.0000 0.0000 0.0000 0.0000 26.3685 0.0000
# 6 0.0000 0.0000 0.0000 0.0000 0.0000 33.3931
#
#
#
# Elastic Compliance Matrix: (Units=1/GPa)
#
#
# Indices 1 2 3 4 5 6 
#
# 1 0.037228 -0.006168 -0.033047 -0.000001 0.000000 0.000000
# 2 -0.006168 0.019305 -0.034308 -0.000001 0.000000 0.000000
# 3 -0.033047 -0.034308 0.153511 0.000003 0.000000 0.000000
# 4 -0.000001 -0.000001 0.000003 -0.063401 0.000000 0.000000
# 5 0.000000 0.000000 0.000000 0.000000 0.037924 0.000000
# 6 0.000000 0.000000 0.000000 0.000000 0.000000 0.029946
#
#
# Mechanical properties :
#
#
# Convention : Reuss Voigt Hill
#
# Bulk Modulus (GPa) = 15.87385 69.07476 42.47431
# Shear Modulus (GPa) = 13.06985 15.77419 14.42202
#
# Velocity S-wave (km/s) = 2.76335 3.03580 2.90277
# Velocity P-wave (km/s) = 4.41087 7.25570 6.00420
#
# Compressibility (1/GPa) = 0.06299668
#
# Stress axis : x y z
#
# Youngs Moduli (GPa) = 26.86163 51.79940 6.51418
#
# Poissons Ratio (x) = 0.31951 0.21528
# Poissons Ratio (y) = 0.16569 0.22349
# Poissons Ratio (z) = 0.88770 1.77715
#
# Static dielectric constant tensor:
#      x y z
#    x 1.567630 0.000000 0.000000 
#    y 0.000000 1.628990 0.000000 
#    z 0.000000 0.000000 1.546150 
# 
# From -- ./inp_files/49157.got.cif
#   From: 2010.05.17/outbox.cif.g08.bks.cpg/sg74_25_cif.got.tgz:49157.got - 2010.06.03 17:57:02.
