data_PCOD9537063
_publ_section_title
;
Structure prediction by ZEFSAII (Michael W. Deem and Ramdas Pophale) SiO2 
 PCOD9537063
Probable space group: I M M A
;
_chemical_formula_sum "Si O2"
_cell_formula_units_Z 116
_cell_length_a 7.443593
_cell_length_b 23.594284
_cell_length_c 32.105729
_cell_angle_alpha 90.000000
_cell_angle_beta 90.000000
_cell_angle_gamma 90.000000
_cell_volume 5638.608699
_symmetry_space_group_name_H-M "I M M A"
_symmetry_group_IT_number 74
_symmetry_cell_setting 'orthorhombic'
loop_
_space_group_symop_operation_xyz
x,y,z
-x,1/2-y,z
x,-y,-z
-x,1/2+y,-z
-x,-y,-z
x,1/2+y,-z
-x,y,z
x,1/2-y,z
1/2+x,1/2+y,1/2+z
1/2-x,-y,1/2+z
1/2+x,1/2-y,1/2-z
1/2-x,y,1/2-z
1/2-x,1/2-y,1/2-z
1/2+x,y,1/2-z
1/2-x,1/2+y,1/2+z
1/2+x,-y,1/2+z
loop_
_atom_site_type_symbol
_atom_site_label
_atom_site_fract_x
_atom_site_fract_y
_atom_site_fract_z
Si Si1 0.286111 0.156164 0.700689
Si Si2 0.719301 0.461311 0.560777
Si Si3 0.781698 0.958311 0.154194
Si Si4 0.714891 0.433654 0.296765
Si Si5 0.705876 0.687239 0.679751
Si Si6 0.000000 0.250000 0.675143
Si Si7 0.788773 0.312448 0.415405
Si Si8 0.284763 0.082704 0.474379
O O1 0.500000 0.165660 0.693437
O O2 0.250000 0.161714 0.750000
O O3 0.238434 0.093223 0.684764
O O4 0.158227 0.200781 0.678188
O O5 0.500000 0.460364 0.561152
O O6 0.779555 0.446786 0.607097
O O7 0.778034 0.421881 0.522259
O O8 0.775105 0.525414 0.549009
O O9 0.000000 0.961336 0.153218
O O10 0.717415 0.018956 0.171280
O O11 0.500000 0.429614 0.303210
O O12 0.750000 0.453620 0.250000
O O13 0.789333 0.369994 0.302036
O O14 0.500000 0.689992 0.694715
O O15 0.785691 0.750000 0.687555
O O16 0.702267 0.678251 0.629750
O O17 0.731423 0.250000 0.430682
O O18 0.759104 0.361576 0.448579
O O19 0.000000 0.310692 0.406845
O O20 0.500000 0.079402 0.475632
#
# Coordination Sequence:
#
# PCOD9537063 Si02
#       8
#    16  16  16  16  16   4  16  16
#     4  11  22  36  60  86 112 147 182 231 280 332
#     4   8  15  30  54  81 105 132 170 221 261 310
#     4   9  18  33  53  78 109 142 176 217 276 324
#     4  10  20  34  52  75 108 142 175 221 270 321
#     4   9  18  33  53  76 101 138 189 230 262 306
#     4  12  24  40  62  86 116 136 188 234 274 334
#     4  10  20  32  48  71 105 139 170 212 263 311
#     4   9  16  29  55  82 101 130 176 216 260 308
#
# _framework density 20.572451000000001
#
# number of rings (size 3 to 8) (size 9 to 14) (size 15 to 20)
#    0.000    2.483    0.690    2.897    0.000    3.862 
#    1.241    1.379    4.552    0.000    0.000    0.000 
#    0.000    0.000    0.000    0.000    0.000    0.000 
#
# Total GULP energy -323092.415449 kJ/mol
# GULP energy per Si atom -5570.558887 kJ/mol
# Density = 2.052563 g / cm^3
# Si number density = 20.572451 Si / 1000 Ang^3
#
#
#
# Elastic Constant Matrix: (Units=GPa)
#
#
# Indices 1 2 3 4 5 6 
#
# 1 86.5124 14.4616 -5.8343 0.0000 0.0000 0.0000
# 2 14.4616 70.0120 -1.2752 -0.0001 0.0000 0.0000
# 3 -5.8343 -1.2752 31.7651 0.0000 0.0000 0.0000
# 4 0.0000 -0.0001 0.0000 453.5490 0.0000 0.0000
# 5 0.0000 0.0000 0.0000 0.0000 -18.8727 0.0000
# 6 0.0000 0.0000 0.0000 0.0000 0.0000 40.6106
#
#
#
# Elastic Compliance Matrix: (Units=1/GPa)
#
#
# Indices 1 2 3 4 5 6 
#
# 1 0.012114 -0.002464 0.002126 0.000000 0.000000 0.000000
# 2 -0.002464 0.014795 0.000141 0.000000 0.000000 0.000000
# 3 0.002126 0.000141 0.031877 0.000000 0.000000 0.000000
# 4 0.000000 0.000000 0.000000 0.002205 0.000000 0.000000
# 5 0.000000 0.000000 0.000000 0.000000 -0.052987 0.000000
# 6 0.000000 0.000000 0.000000 0.000000 0.000000 0.024624
#
#
# Mechanical properties :
#
#
# Convention : Reuss Voigt Hill
#
# Bulk Modulus (GPa) = 17.12497 22.55483 19.83990
# Shear Modulus (GPa) = 95.26503 107.11989 101.19246
#
# Velocity S-wave (km/s) = 6.81231 7.22375 7.02105
# Velocity P-wave (km/s) = 8.37968 8.97576 8.68284
#
# Compressibility (1/GPa) = 0.05839426
#
# Stress axis : x y z
#
# Youngs Moduli (GPa) = 82.54746 67.59173 31.37032
#
# Poissons Ratio (x) = 0.16652 -0.06670
# Poissons Ratio (y) = 0.20336 -0.00444
# Poissons Ratio (z) = -0.17551 -0.00956
#
# Static dielectric constant tensor:
#      x y z
#    x 1.883520 0.000000 0.000000 
#    y 0.000000 1.737120 0.000000 
#    z 0.000000 0.000000 1.720690 
# 
# From -- ./inp_files/64839.got.cif
#   From: 2010.05.17/outbox.cif.g08.bks.cpg/sg74_33_cif.got.tgz:64839.got - 2010.06.03 17:57:02.
