data_PCOD9537537
_publ_section_title
;
Structure prediction by ZEFSAII (Michael W. Deem and Ramdas Pophale) SiO2 
 PCOD9537537
Probable space group: I M M A
;
_chemical_formula_sum "Si O2"
_cell_formula_units_Z 104
_cell_length_a 7.962500
_cell_length_b 21.895613
_cell_length_c 29.549274
_cell_angle_alpha 90.000000
_cell_angle_beta 90.000000
_cell_angle_gamma 90.000000
_cell_volume 5151.733263
_symmetry_space_group_name_H-M "I M M A"
_symmetry_group_IT_number 74
_symmetry_cell_setting 'orthorhombic'
loop_
_space_group_symop_operation_xyz
x,y,z
-x,1/2-y,z
x,-y,-z
-x,1/2+y,-z
-x,-y,-z
x,1/2+y,-z
-x,y,z
x,1/2-y,z
1/2+x,1/2+y,1/2+z
1/2-x,-y,1/2+z
1/2+x,1/2-y,1/2-z
1/2-x,y,1/2-z
1/2-x,1/2-y,1/2-z
1/2+x,y,1/2-z
1/2-x,1/2+y,1/2+z
1/2+x,-y,1/2+z
loop_
_atom_site_type_symbol
_atom_site_label
_atom_site_fract_x
_atom_site_fract_y
_atom_site_fract_z
Si Si1 0.812274 0.060114 0.702211
Si Si2 0.803391 0.452488 0.536723
Si Si3 0.298465 0.750000 0.697475
Si Si4 0.310170 0.985156 0.626852
Si Si5 0.796017 0.180382 0.568652
Si Si6 0.197965 0.181579 0.825840
Si Si7 0.296701 0.383593 0.303141
O O1 0.750000 0.036212 0.750000
O O2 0.804817 0.132595 0.700961
O O3 0.000000 0.038883 0.692745
O O4 0.689357 0.039772 0.662862
O O5 0.728532 0.500000 0.500000
O O6 0.787138 0.488783 0.584043
O O7 0.738094 0.382300 0.543112
O O8 0.000000 0.444753 0.525315
O O9 0.500000 0.750000 0.692848
O O10 0.250000 0.750000 0.750000
O O11 0.238215 0.683977 0.681456
O O12 0.500000 0.969434 0.612718
O O13 0.238469 0.931355 0.658832
O O14 0.748116 0.250000 0.552719
O O15 0.733790 0.175269 0.620360
O O16 0.000000 0.178686 0.569166
O O17 0.244515 0.250000 0.813132
O O18 0.000000 0.172593 0.817845
O O19 0.500000 0.386177 0.303676
O O20 0.250000 0.393172 0.250000
#
# Coordination Sequence:
#
# PCOD9537537 Si02
#       7
#    16  16   8  16  16  16  16
#     4  12  24  37  53  75 107 147 186 225 270 320
#     4  10  21  37  58  83 109 141 180 224 276 331
#     4   8  14  28  48  72 102 136 176 218 256 308
#     4  11  22  36  54  79 109 142 181 224 274 325
#     4   9  17  32  56  82 106 139 182 225 272 327
#     4  10  20  34  53  78 107 140 180 227 272 317
#     4   9  18  31  51  78 106 140 179 219 264 316
#
# _framework density 20.187380999999998
#
# number of rings (size 3 to 8) (size 9 to 14) (size 15 to 20)
#    0.000    2.000    1.538    2.769    0.000    4.000 
#    0.000    0.000    1.692    0.000    0.000    0.000 
#    0.000    0.000    0.000    0.000    0.000    0.000 
#
# Total GULP energy -289710.320217 kJ/mol
# GULP energy per Si atom -5571.352312 kJ/mol
# Density = 2.014143 g / cm^3
# Si number density = 20.187381 Si / 1000 Ang^3
#
#
#
# Elastic Constant Matrix: (Units=GPa)
#
#
# Indices 1 2 3 4 5 6 
#
# 1 36.5594 12.6403 -2.7929 0.0000 0.0000 0.0000
# 2 12.6403 165.5746 36.7134 0.0000 0.0000 0.0000
# 3 -2.7929 36.7134 69.8655 0.0000 0.0000 0.0000
# 4 0.0000 0.0000 0.0000 32.3120 0.0000 0.0000
# 5 0.0000 0.0000 0.0000 0.0000 15.7206 0.0000
# 6 0.0000 0.0000 0.0000 0.0000 0.0000 10.1029
#
#
#
# Elastic Compliance Matrix: (Units=1/GPa)
#
#
# Indices 1 2 3 4 5 6 
#
# 1 0.028500 -0.002749 0.002584 0.000000 0.000000 0.000000
# 2 -0.002749 0.007101 -0.003841 0.000000 0.000000 0.000000
# 3 0.002584 -0.003841 0.016435 0.000000 0.000000 0.000000
# 4 0.000000 0.000000 0.000000 0.030948 0.000000 0.000000
# 5 0.000000 0.000000 0.000000 0.000000 0.063611 0.000000
# 6 0.000000 0.000000 0.000000 0.000000 0.000000 0.098982
#
#
# Mechanical properties :
#
#
# Convention : Reuss Voigt Hill
#
# Bulk Modulus (GPa) = 22.71492 40.56901 31.64197
# Shear Modulus (GPa) = 18.63827 26.65634 22.64730
#
# Velocity S-wave (km/s) = 3.04182 3.63774 3.35304
# Velocity P-wave (km/s) = 4.85936 6.14687 5.54064
#
# Compressibility (1/GPa) = 0.04402392
#
# Stress axis : x y z
#
# Youngs Moduli (GPa) = 35.08716 140.82135 60.84523
#
# Poissons Ratio (x) = 0.38707 -0.15721
# Poissons Ratio (y) = 0.09644 0.23373
# Poissons Ratio (z) = -0.09066 0.54096
#
# Static dielectric constant tensor:
#      x y z
#    x 1.725700 0.000000 0.000000 
#    y 0.000000 1.833680 0.000000 
#    z 0.000000 0.000000 1.671530 
# 
# From -- ./inp_files/70585.got.cif
#   From: 2010.05.17/outbox.cif.g08.bks.cpg/sg74_36_cif.got.tgz:70585.got - 2010.06.03 17:57:02.
