data_PCOD9537230
_publ_section_title
;
Structure prediction by ZEFSAII (Michael W. Deem and Ramdas Pophale) SiO2 
 PCOD9537230
Probable space group: I M M A
;
_chemical_formula_sum "Si O2"
_cell_formula_units_Z 96
_cell_length_a 24.745936
_cell_length_b 14.603490
_cell_length_c 15.459969
_cell_angle_alpha 90.000000
_cell_angle_beta 90.000000
_cell_angle_gamma 90.000000
_cell_volume 5586.877664
_symmetry_space_group_name_H-M "I M M A"
_symmetry_group_IT_number 74
_symmetry_cell_setting 'orthorhombic'
loop_
_space_group_symop_operation_xyz
x,y,z
-x,1/2-y,z
x,-y,-z
-x,1/2+y,-z
-x,-y,-z
x,1/2+y,-z
-x,y,z
x,1/2-y,z
1/2+x,1/2+y,1/2+z
1/2-x,-y,1/2+z
1/2+x,1/2-y,1/2-z
1/2-x,y,1/2-z
1/2-x,1/2-y,1/2-z
1/2+x,y,1/2-z
1/2-x,1/2+y,1/2+z
1/2+x,-y,1/2+z
loop_
_atom_site_type_symbol
_atom_site_label
_atom_site_fract_x
_atom_site_fract_y
_atom_site_fract_z
Si Si1 0.194535 0.556765 0.650021
Si Si2 0.140364 0.073671 0.778549
Si Si3 0.564706 0.357553 0.867741
Si Si4 0.707027 0.750000 0.329474
Si Si5 0.119976 0.500000 0.500000
Si Si6 0.787849 0.250000 0.030487
Si Si7 0.703111 0.250000 0.180710
Si Si8 0.317114 0.943426 0.587948
O O1 0.178617 0.469277 0.704949
O O2 0.160585 0.553323 0.562740
O O3 0.175790 0.652275 0.692987
O O4 0.258577 0.554482 0.635299
O O5 0.088427 0.106352 0.724105
O O6 0.169972 0.160546 0.819179
O O7 0.139275 0.993707 0.850982
O O8 0.500000 0.360276 0.867584
O O9 0.581450 0.250000 0.880118
O O10 0.586409 0.426973 0.942310
O O11 0.750000 0.750000 0.250000
O O12 0.727338 0.750000 0.428939
O O13 0.732438 0.250000 0.086833
O O14 0.822002 0.338542 0.059019
O O15 0.750000 0.250000 0.250000
O O16 0.312121 0.000000 0.500000
#
# Coordination Sequence:
#
# PCOD9537230 Si02
#       8
#    16  16  16   8   8   8   8  16
#     4  10  20  33  50  76 114 150 185 227 269 345
#     4  11  22  35  54  78 107 149 191 230 291 339
#     4  10  22  41  62  84 112 146 196 256 305 345
#     4  12  22  32  49  84 118 147 189 232 281 355
#     4  10  21  34  58  88 112 148 187 232 296 360
#     4  10  22  32  50  77 107 159 193 229 280 335
#     4  10  20  34  48  69 110 160 204 221 268 326
#     4  11  19  33  50  76 116 150 186 227 276 334
#
# _framework density 17.183122000000001
#
# number of rings (size 3 to 8) (size 9 to 14) (size 15 to 20)
#    0.000    1.500    3.333    3.750    1.167    1.333 
#    0.000    0.000    0.000    0.500    0.000    0.000 
#    0.000    0.000    0.000    0.000    0.000    0.000 
#
# Total GULP energy -267441.523602 kJ/mol
# GULP energy per Si atom -5571.698408 kJ/mol
# Density = 1.714401 g / cm^3
# Si number density = 17.183122 Si / 1000 Ang^3
#
#
#
# Elastic Constant Matrix: (Units=GPa)
#
#
# Indices 1 2 3 4 5 6 
#
# 1 38.9244 20.8938 16.0772 0.0000 0.0000 0.0000
# 2 20.8938 125.3953 20.8507 0.0000 0.0000 0.0000
# 3 16.0772 20.8507 74.3461 0.0000 0.0000 0.0000
# 4 0.0000 0.0000 0.0000 36.1573 0.0000 0.0000
# 5 0.0000 0.0000 0.0000 0.0000 18.8810 0.0000
# 6 0.0000 0.0000 0.0000 0.0000 0.0000 12.2903
#
#
#
# Elastic Compliance Matrix: (Units=1/GPa)
#
#
# Indices 1 2 3 4 5 6 
#
# 1 0.030119 -0.004128 -0.005355 0.000000 0.000000 0.000000
# 2 -0.004128 0.008931 -0.001612 0.000000 0.000000 0.000000
# 3 -0.005355 -0.001612 0.015061 0.000000 0.000000 0.000000
# 4 0.000000 0.000000 0.000000 0.027657 0.000000 0.000000
# 5 0.000000 0.000000 0.000000 0.000000 0.052963 0.000000
# 6 0.000000 0.000000 0.000000 0.000000 0.000000 0.081365
#
#
# Mechanical properties :
#
#
# Convention : Reuss Voigt Hill
#
# Bulk Modulus (GPa) = 31.32896 39.36770 35.34833
# Shear Modulus (GPa) = 20.08631 25.52200 22.80415
#
# Velocity S-wave (km/s) = 3.42271 3.85813 3.64692
# Velocity P-wave (km/s) = 5.82167 6.54273 6.19271
#
# Compressibility (1/GPa) = 0.03191935
#
# Stress axis : x y z
#
# Youngs Moduli (GPa) = 33.20207 111.97416 66.39761
#
# Poissons Ratio (x) = 0.46223 0.35559
# Poissons Ratio (y) = 0.13706 0.10703
# Poissons Ratio (z) = 0.17781 0.18050
#
# Static dielectric constant tensor:
#      x y z
#    x 1.543440 0.000000 0.000000 
#    y 0.000000 1.509150 0.000000 
#    z 0.000000 0.000000 1.617870 
# 
# From -- ./inp_files/36462.got.cif
#   From: 2010.05.17/outbox.cif.g08.bks.cpg/sg74_19_cif.got.tgz:36462.got - 2010.06.03 17:57:02.
