data_PCOD9537600
_publ_section_title
;
Structure prediction by ZEFSAII (Michael W. Deem and Ramdas Pophale) SiO2 
 PCOD9537600
Probable space group: I M M A
;
_chemical_formula_sum "Si O2"
_cell_formula_units_Z 80
_cell_length_a 8.336481
_cell_length_b 16.294601
_cell_length_c 30.216707
_cell_angle_alpha 90.000000
_cell_angle_beta 90.000000
_cell_angle_gamma 90.000000
_cell_volume 4104.626348
_symmetry_space_group_name_H-M "I M M A"
_symmetry_group_IT_number 74
_symmetry_cell_setting 'orthorhombic'
loop_
_space_group_symop_operation_xyz
x,y,z
-x,1/2-y,z
x,-y,-z
-x,1/2+y,-z
-x,-y,-z
x,1/2+y,-z
-x,y,z
x,1/2-y,z
1/2+x,1/2+y,1/2+z
1/2-x,-y,1/2+z
1/2+x,1/2-y,1/2-z
1/2-x,y,1/2-z
1/2-x,1/2-y,1/2-z
1/2+x,y,1/2-z
1/2-x,1/2+y,1/2+z
1/2+x,-y,1/2+z
loop_
_atom_site_type_symbol
_atom_site_label
_atom_site_fract_x
_atom_site_fract_y
_atom_site_fract_z
Si Si1 0.803988 0.250000 0.466417
Si Si2 0.809372 0.114040 0.202085
Si Si3 0.691917 0.750000 0.864689
Si Si4 0.191834 0.927209 0.297780
Si Si5 0.303958 0.413100 0.980227
Si Si6 0.304172 0.156042 0.887701
O O1 0.751218 0.250000 0.415407
O O2 0.753877 0.166791 0.491534
O O3 0.000000 0.250000 0.467037
O O4 0.750000 0.145118 0.250000
O O5 0.749206 0.171187 0.162719
O O6 0.000000 0.113111 0.202647
O O7 0.746062 0.021450 0.197457
O O8 0.500000 0.750000 0.865439
O O9 0.250000 0.896515 0.250000
O O10 0.250793 0.877041 0.340275
O O11 0.000000 0.925301 0.297533
O O12 0.500000 0.413905 0.980939
O O13 0.253985 0.398694 0.929449
O O14 0.249778 0.500000 0.000000
O O15 0.500000 0.155089 0.887195
O O16 0.255071 0.250000 0.894908
#
# Coordination Sequence:
#
# PCOD9537600 Si02
#       6
#     8  16   8  16  16  16
#     4   9  18  30  46  77 116 143 175 225 274 325
#     4  11  22  38  57  78 108 146 186 226 272 323
#     4  11  22  34  53  83 116 145 181 223 272 327
#     4  10  20  34  54  80 110 142 180 226 276 328
#     4   9  16  27  46  72 108 146 177 220 280 330
#     4   9  17  30  49  75 110 145 178 223 278 330
#
# _framework density 19.490203000000001
#
# number of rings (size 3 to 8) (size 9 to 14) (size 15 to 20)
#    0.000    2.200    1.000    4.200    2.800    0.400 
#    0.000    0.000    0.000    1.800    0.000    7.000 
#    0.000    0.000    0.000    0.000    0.000    0.000 
#
# Total GULP energy -223319.582963 kJ/mol
# GULP energy per Si atom -5582.989574 kJ/mol
# Density = 1.944584 g / cm^3
# Si number density = 19.490203 Si / 1000 Ang^3
#
#
#
# Elastic Constant Matrix: (Units=GPa)
#
#
# Indices 1 2 3 4 5 6 
#
# 1 38.1212 6.7153 19.2284 0.0000 0.0000 0.0000
# 2 6.7153 125.0191 94.7856 0.0000 0.0000 0.0000
# 3 19.2284 94.7856 200.4477 0.0000 0.0000 0.0000
# 4 0.0000 0.0000 0.0000 40.1934 0.0000 0.0000
# 5 0.0000 0.0000 0.0000 0.0000 19.5622 0.0000
# 6 0.0000 0.0000 0.0000 0.0000 0.0000 9.0441
#
#
#
# Elastic Compliance Matrix: (Units=1/GPa)
#
#
# Indices 1 2 3 4 5 6 
#
# 1 0.027620 0.000819 -0.003037 0.000000 0.000000 0.000000
# 2 0.000819 0.012493 -0.005986 0.000000 0.000000 0.000000
# 3 -0.003037 -0.005986 0.008111 0.000000 0.000000 0.000000
# 4 0.000000 0.000000 0.000000 0.024880 0.000000 0.000000
# 5 0.000000 0.000000 0.000000 0.000000 0.051119 0.000000
# 6 0.000000 0.000000 0.000000 0.000000 0.000000 0.110570
#
#
# Mechanical properties :
#
#
# Convention : Reuss Voigt Hill
#
# Bulk Modulus (GPa) = 31.43128 67.22741 49.32934
# Shear Modulus (GPa) = 19.09813 29.95051 24.52432
#
# Velocity S-wave (km/s) = 3.13371 3.92432 3.55109
# Velocity P-wave (km/s) = 5.40881 7.42304 6.49449
#
# Compressibility (1/GPa) = 0.03181544
#
# Stress axis : x y z
#
# Youngs Moduli (GPa) = 36.20622 80.04206 123.29139
#
# Poissons Ratio (x) = -0.06553 0.37439
# Poissons Ratio (y) = -0.02964 0.73806
# Poissons Ratio (z) = 0.10994 0.47916
#
# Static dielectric constant tensor:
#      x y z
#    x 1.681350 0.000000 0.000000 
#    y 0.000000 1.652590 0.000000 
#    z 0.000000 0.000000 1.684300 
# 
# From -- ./inp_files/64022.got.cif
#   From: 2010.05.17/outbox.cif.g08.bks.cpg/sg74_33_cif.got.tgz:64022.got - 2010.06.03 17:57:02.
