data_PCOD9537836
_publ_section_title
;
Structure prediction by ZEFSAII (Michael W. Deem and Ramdas Pophale) SiO2 
 PCOD9537836
Probable space group: I M M A
;
_chemical_formula_sum "Si O2"
_cell_formula_units_Z 100
_cell_length_a 21.226862
_cell_length_b 8.960460
_cell_length_c 29.655729
_cell_angle_alpha 90.000000
_cell_angle_beta 90.000000
_cell_angle_gamma 90.000000
_cell_volume 5640.592249
_symmetry_space_group_name_H-M "I M M A"
_symmetry_group_IT_number 74
_symmetry_cell_setting 'orthorhombic'
loop_
_space_group_symop_operation_xyz
x,y,z
-x,1/2-y,z
x,-y,-z
-x,1/2+y,-z
-x,-y,-z
x,1/2+y,-z
-x,y,z
x,1/2-y,z
1/2+x,1/2+y,1/2+z
1/2-x,-y,1/2+z
1/2+x,1/2-y,1/2-z
1/2-x,y,1/2-z
1/2-x,1/2-y,1/2-z
1/2+x,y,1/2-z
1/2-x,1/2+y,1/2+z
1/2+x,-y,1/2+z
loop_
_atom_site_type_symbol
_atom_site_label
_atom_site_fract_x
_atom_site_fract_y
_atom_site_fract_z
Si Si1 0.818882 0.928308 0.304920
Si Si2 0.295830 0.073286 0.359691
Si Si3 0.394417 0.925523 0.047400
Si Si4 0.571443 0.924836 0.860721
Si Si5 0.242304 0.574982 0.047682
Si Si6 0.000000 0.750000 0.223077
Si Si7 0.629045 0.914946 0.291288
O O1 0.811270 0.750000 0.307742
O O2 0.832774 0.966554 0.252873
O O3 0.761009 0.009723 0.328813
O O4 0.880870 0.977491 0.331925
O O5 0.291126 0.250000 0.362981
O O6 0.288712 0.002315 0.409120
O O7 0.358248 0.021966 0.333087
O O8 0.410470 0.750000 0.048526
O O9 0.318378 0.938504 0.052513
O O10 0.424422 0.014825 0.088457
O O11 0.411781 0.000000 0.000000
O O12 0.500000 0.940439 0.844234
O O13 0.589089 0.750000 0.859344
O O14 0.227186 0.750000 0.046878
O O15 0.225283 0.500000 0.000000
O O16 0.943141 0.878205 0.221222
O O17 0.655280 0.750000 0.304181
#
# Coordination Sequence:
#
# PCOD9537836 Si02
#       7
#    16  16  16  16  16   4  16
#     4  11  22  36  59  83 115 154 201 250 294 345
#     4  12  23  36  58  91 127 157 195 244 301 355
#     4  10  20  35  55  75 101 145 191 244 298 346
#     4  11  24  37  51  75 108 151 197 247 299 350
#     4  10  20  35  57  85 120 155 193 242 298 354
#     4   8  20  44  64  88 114 156 200 252 296 352
#     4   9  21  39  63  83 116 153 198 239 296 351
#
# _framework density 17.728635000000001
#
# number of rings (size 3 to 8) (size 9 to 14) (size 15 to 20)
#    0.480    1.120    1.600    3.840    1.120    6.080 
#    0.000    0.400    0.000    0.000    0.000    0.560 
#    0.000    0.000    0.000    0.000    0.000    0.000 
#
# Total GULP energy -278616.055219 kJ/mol
# GULP energy per Si atom -5572.321104 kJ/mol
# Density = 1.768828 g / cm^3
# Si number density = 17.728635 Si / 1000 Ang^3
#
#
#
# Elastic Constant Matrix: (Units=GPa)
#
#
# Indices 1 2 3 4 5 6 
#
# 1 43.0604 16.0269 28.3643 0.0000 0.0000 0.0000
# 2 16.0269 75.2262 43.8092 0.0000 0.0000 0.0000
# 3 28.3643 43.8092 104.7928 0.0000 0.0000 0.0000
# 4 0.0000 0.0000 0.0000 26.1296 0.0000 0.0000
# 5 0.0000 0.0000 0.0000 0.0000 -8.6779 0.0000
# 6 0.0000 0.0000 0.0000 0.0000 0.0000 15.4722
#
#
#
# Elastic Compliance Matrix: (Units=1/GPa)
#
#
# Indices 1 2 3 4 5 6 
#
# 1 0.028508 -0.002088 -0.006843 0.000000 0.000000 0.000000
# 2 -0.002088 0.017724 -0.006844 0.000000 0.000000 0.000000
# 3 -0.006843 -0.006844 0.014256 0.000000 0.000000 0.000000
# 4 0.000000 0.000000 0.000000 0.038271 0.000000 0.000000
# 5 0.000000 0.000000 0.000000 0.000000 -0.115235 0.000000
# 6 0.000000 0.000000 0.000000 0.000000 0.000000 0.064632
#
#
# Mechanical properties :
#
#
# Convention : Reuss Voigt Hill
#
# Bulk Modulus (GPa) = 34.55846 44.38670 39.47258
# Shear Modulus (GPa) = 55.95713 15.57670 35.76692
#
# Velocity S-wave (km/s) = 5.62420 2.96737 4.49649
# Velocity P-wave (km/s) = 7.85563 6.06889 7.01934
#
# Compressibility (1/GPa) = 0.02893647
#
# Stress axis : x y z
#
# Youngs Moduli (GPa) = 35.07763 56.42029 70.14464
#
# Poissons Ratio (x) = 0.11783 0.48002
# Poissons Ratio (y) = 0.07326 0.48010
# Poissons Ratio (z) = 0.24005 0.38616
#
# Static dielectric constant tensor:
#      x y z
#    x 1.616770 0.000000 0.000000 
#    y 0.000000 1.595720 0.000000 
#    z 0.000000 0.000000 1.618370 
# 
# From -- ./inp_files/73362.got.cif
#   From: 2010.05.17/outbox.cif.g08.bks.cpg/sg74_37_cif.got.tgz:73362.got - 2010.06.03 17:57:02.
