data_PCOD9537474
_publ_section_title
;
Structure prediction by ZEFSAII (Michael W. Deem and Ramdas Pophale) SiO2 
 PCOD9537474
Probable space group: I M M A
;
_chemical_formula_sum "Si O2"
_cell_formula_units_Z 64
_cell_length_a 8.866300
_cell_length_b 27.184717
_cell_length_c 15.079862
_cell_angle_alpha 90.000000
_cell_angle_beta 90.000000
_cell_angle_gamma 90.000000
_cell_volume 3634.666812
_symmetry_space_group_name_H-M "I M M A"
_symmetry_group_IT_number 74
_symmetry_cell_setting 'orthorhombic'
loop_
_space_group_symop_operation_xyz
x,y,z
-x,1/2-y,z
x,-y,-z
-x,1/2+y,-z
-x,-y,-z
x,1/2+y,-z
-x,y,z
x,1/2-y,z
1/2+x,1/2+y,1/2+z
1/2-x,-y,1/2+z
1/2+x,1/2-y,1/2-z
1/2-x,y,1/2-z
1/2-x,1/2-y,1/2-z
1/2+x,y,1/2-z
1/2-x,1/2+y,1/2+z
1/2+x,-y,1/2+z
loop_
_atom_site_type_symbol
_atom_site_label
_atom_site_fract_x
_atom_site_fract_y
_atom_site_fract_z
Si Si1 0.178442 0.808498 0.345320
Si Si2 0.320852 0.917205 0.845062
Si Si3 0.320600 0.465816 0.845437
Si Si4 0.820123 0.386641 0.974675
O O1 0.198683 0.750000 0.358409
O O2 0.250000 0.821300 0.250000
O O3 0.258150 0.839792 0.421222
O O4 0.000000 0.819187 0.343942
O O5 0.500000 0.908871 0.844492
O O6 0.250000 0.904503 0.750000
O O7 0.296002 0.975922 0.858900
O O8 0.243763 0.889323 0.926148
O O9 0.500000 0.456693 0.844986
O O10 0.250000 0.452713 0.750000
O O11 0.243221 0.433735 0.921081
O O12 0.000000 0.387286 0.974861
#
# Coordination Sequence:
#
# PCOD9537474 Si02
#       4
#    16  16  16  16
#     4  10  21  38  59  82 109 139 172 214 264 317
#     4  10  21  37  55  76 105 141 181 223 265 309
#     4  10  20  34  52  76 108 143 179 220 263 311
#     4  12  23  34  53  79 108 142 179 218 261 314
#
# _framework density 17.608215999999999
#
# number of rings (size 3 to 8) (size 9 to 14) (size 15 to 20)
#    0.000    1.500    0.000    6.000    0.000    7.500 
#    0.000    0.000    0.000    0.750    0.000    0.000 
#    0.000    0.000    0.000    0.000    0.000    0.000 
#
# Total GULP energy -178945.223048 kJ/mol
# GULP energy per Si atom -5592.038220 kJ/mol
# Density = 1.756814 g / cm^3
# Si number density = 17.608216 Si / 1000 Ang^3
#
#
#
# Elastic Constant Matrix: (Units=GPa)
#
#
# Indices 1 2 3 4 5 6 
#
# 1 141.0431 56.9473 92.6711 0.0000 0.0000 0.0000
# 2 56.9473 54.7248 67.2465 0.0000 0.0000 0.0000
# 3 92.6711 67.2465 175.4878 -0.0001 0.0000 0.0000
# 4 0.0000 0.0000 -0.0001 19.9463 0.0000 0.0000
# 5 0.0000 0.0000 0.0000 0.0000 36.9139 0.0000
# 6 0.0000 0.0000 0.0000 0.0000 0.0000 20.3157
#
#
#
# Elastic Compliance Matrix: (Units=1/GPa)
#
#
# Indices 1 2 3 4 5 6 
#
# 1 0.013117 -0.009710 -0.003206 0.000000 0.000000 0.000000
# 2 -0.009710 0.041724 -0.010861 0.000000 0.000000 0.000000
# 3 -0.003206 -0.010861 0.011553 0.000000 0.000000 0.000000
# 4 0.000000 0.000000 0.000000 0.050135 0.000000 0.000000
# 5 0.000000 0.000000 0.000000 0.000000 0.027090 0.000000
# 6 0.000000 0.000000 0.000000 0.000000 0.000000 0.049223
#
#
# Mechanical properties :
#
#
# Convention : Reuss Voigt Hill
#
# Bulk Modulus (GPa) = 53.07811 89.44284 71.26048
# Shear Modulus (GPa) = 20.26958 25.72790 22.99874
#
# Velocity S-wave (km/s) = 3.39653 3.82662 3.61797
# Velocity P-wave (km/s) = 6.75213 8.39228 7.61648
#
# Compressibility (1/GPa) = 0.01884016
#
# Stress axis : x y z
#
# Youngs Moduli (GPa) = 76.23670 23.96725 86.55745
#
# Poissons Ratio (x) = 0.23273 0.27748
# Poissons Ratio (y) = 0.74029 0.94006
# Poissons Ratio (z) = 0.24440 0.26030
#
# Static dielectric constant tensor:
#      x y z
#    x 1.579710 0.000000 0.000000 
#    y 0.000000 1.595680 0.000000 
#    z 0.000000 0.000000 1.577030 
# 
# From -- ./inp_files/17560.got.cif
#   From: 2010.05.17/outbox.cif.g08.bks.cpg/sg74_9_cif.got.tgz:17560.got - 2010.06.03 17:57:02.
