data_PCOD9537342
_publ_section_title
;
Structure prediction by ZEFSAII (Michael W. Deem and Ramdas Pophale) SiO2 
 PCOD9537342
Probable space group: I M M A
;
_chemical_formula_sum "Si O2"
_cell_formula_units_Z 96
_cell_length_a 9.287633
_cell_length_b 23.675142
_cell_length_c 24.493077
_cell_angle_alpha 90.000000
_cell_angle_beta 90.000000
_cell_angle_gamma 90.000000
_cell_volume 5385.685467
_symmetry_space_group_name_H-M "I M M A"
_symmetry_group_IT_number 74
_symmetry_cell_setting 'orthorhombic'
loop_
_space_group_symop_operation_xyz
x,y,z
-x,1/2-y,z
x,-y,-z
-x,1/2+y,-z
-x,-y,-z
x,1/2+y,-z
-x,y,z
x,1/2-y,z
1/2+x,1/2+y,1/2+z
1/2-x,-y,1/2+z
1/2+x,1/2-y,1/2-z
1/2-x,y,1/2-z
1/2-x,1/2-y,1/2-z
1/2+x,y,1/2-z
1/2-x,1/2+y,1/2+z
1/2+x,-y,1/2+z
loop_
_atom_site_type_symbol
_atom_site_label
_atom_site_fract_x
_atom_site_fract_y
_atom_site_fract_z
Si Si1 0.671930 0.684349 0.363826
Si Si2 0.167597 0.587261 0.302845
Si Si3 0.329421 0.387570 0.529850
Si Si4 0.827655 0.105781 0.092025
Si Si5 0.672883 0.683787 0.693700
Si Si6 0.668104 0.486667 0.912245
O O1 0.500000 0.678513 0.354663
O O2 0.709694 0.750000 0.360255
O O3 0.757758 0.645362 0.321822
O O4 0.702558 0.659146 0.424167
O O5 0.250000 0.565041 0.250000
O O6 0.179667 0.544999 0.353915
O O7 0.000000 0.596068 0.290755
O O8 0.500000 0.400601 0.533791
O O9 0.299731 0.368537 0.468119
O O10 0.241883 0.443913 0.544999
O O11 0.783509 0.145601 0.142186
O O12 0.000000 0.097058 0.096420
O O13 0.748789 0.045839 0.092195
O O14 0.500000 0.679143 0.700193
O O15 0.706127 0.750000 0.683655
O O16 0.750000 0.666863 0.750000
O O17 0.500000 0.494353 0.925174
#
# Coordination Sequence:
#
# PCOD9537342 Si02
#       6
#    16  16  16  16  16  16
#     4   9  18  33  53  76 102 133 168 207 251 297
#     4  10  21  36  53  73  99 133 171 211 254 298
#     4   9  18  33  52  75 104 135 167 205 249 297
#     4  10  20  33  53  79 103 132 169 206 247 298
#     4   9  19  36  55  75 102 134 167 206 251 297
#     4  10  21  35  51  74 104 135 167 207 253 298
#
# _framework density 17.825030000000002
#
# number of rings (size 3 to 8) (size 9 to 14) (size 15 to 20)
#    0.000    2.500    0.000    1.500    0.000    7.333 
#    0.000    6.667    0.000    0.000    0.000    4.667 
#    0.000    0.000    0.000    0.000    0.000    0.000 
#
# Total GULP energy -267819.735898 kJ/mol
# GULP energy per Si atom -5579.577831 kJ/mol
# Density = 1.778446 g / cm^3
# Si number density = 17.825030 Si / 1000 Ang^3
#
#
#
# Elastic Constant Matrix: (Units=GPa)
#
#
# Indices 1 2 3 4 5 6 
#
# 1 28.0039 6.6060 30.5573 0.0000 0.0000 0.0000
# 2 6.6060 21.1525 7.5715 0.0000 0.0000 0.0000
# 3 30.5573 7.5715 100.0099 0.0000 0.0000 0.0000
# 4 0.0000 0.0000 0.0000 17.2073 0.0000 0.0000
# 5 0.0000 0.0000 0.0000 0.0000 28.2159 0.0000
# 6 0.0000 0.0000 0.0000 0.0000 0.0000 20.4498
#
#
#
# Elastic Compliance Matrix: (Units=1/GPa)
#
#
# Indices 1 2 3 4 5 6 
#
# 1 0.056269 -0.011737 -0.016304 0.000000 0.000000 0.000000
# 2 -0.011737 0.051041 -0.000278 0.000000 0.000000 0.000000
# 3 -0.016304 -0.000278 0.015002 0.000000 0.000000 0.000000
# 4 0.000000 0.000000 0.000000 0.058115 0.000000 0.000000
# 5 0.000000 0.000000 0.000000 0.000000 0.035441 0.000000
# 6 0.000000 0.000000 0.000000 0.000000 0.000000 0.048900
#
#
# Mechanical properties :
#
#
# Convention : Reuss Voigt Hill
#
# Bulk Modulus (GPa) = 15.22692 26.51511 20.87102
# Shear Modulus (GPa) = 14.56469 20.13670 17.35070
#
# Velocity S-wave (km/s) = 2.86158 3.36473 3.12330
# Velocity P-wave (km/s) = 4.41352 5.47747 4.97403
#
# Compressibility (1/GPa) = 0.06567318
#
# Stress axis : x y z
#
# Youngs Moduli (GPa) = 17.77190 19.59215 66.65952
#
# Poissons Ratio (x) = 0.22995 1.08681
# Poissons Ratio (y) = 0.20859 0.01853
# Poissons Ratio (z) = 0.28975 0.00545
#
# Static dielectric constant tensor:
#      x y z
#    x 1.595800 0.000000 0.000000 
#    y 0.000000 1.573810 0.000000 
#    z 0.000000 0.000000 1.622090 
# 
# From -- ./inp_files/49049.got.cif
#   From: 2010.05.17/outbox.cif.g08.bks.cpg/sg74_25_cif.got.tgz:49049.got - 2010.06.03 17:57:02.
