data_PCOD9537843
_publ_section_title
;
Structure prediction by ZEFSAII (Michael W. Deem and Ramdas Pophale) SiO2 
 PCOD9537843
Probable space group: I M M A
;
_chemical_formula_sum "Si O2"
_cell_formula_units_Z 64
_cell_length_a 8.881096
_cell_length_b 28.486954
_cell_length_c 14.553244
_cell_angle_alpha 90.000000
_cell_angle_beta 90.000000
_cell_angle_gamma 90.000000
_cell_volume 3681.903397
_symmetry_space_group_name_H-M "I M M A"
_symmetry_group_IT_number 74
_symmetry_cell_setting 'orthorhombic'
loop_
_space_group_symop_operation_xyz
x,y,z
-x,1/2-y,z
x,-y,-z
-x,1/2+y,-z
-x,-y,-z
x,1/2+y,-z
-x,y,z
x,1/2-y,z
1/2+x,1/2+y,1/2+z
1/2-x,-y,1/2+z
1/2+x,1/2-y,1/2-z
1/2-x,y,1/2-z
1/2-x,1/2-y,1/2-z
1/2+x,y,1/2-z
1/2-x,1/2+y,1/2+z
1/2+x,-y,1/2+z
loop_
_atom_site_type_symbol
_atom_site_label
_atom_site_fract_x
_atom_site_fract_y
_atom_site_fract_z
Si Si1 0.670437 0.985195 0.107241
Si Si2 0.679554 0.804775 0.350372
Si Si3 0.822245 0.078545 0.155618
Si Si4 0.318953 0.887149 0.034927
O O1 0.500000 0.989624 0.145240
O O2 0.781028 0.023111 0.150056
O O3 0.719084 0.931094 0.102635
O O4 0.660975 0.000000 0.000000
O O5 0.500000 0.812027 0.347055
O O6 0.707827 0.750000 0.372907
O O7 0.750000 0.813586 0.250000
O O8 0.754256 0.839863 0.422503
O O9 0.750000 0.096809 0.250000
O O10 0.749443 0.101677 0.065042
O O11 0.000000 0.085105 0.155117
O O12 0.500000 0.886331 0.028090
#
# Coordination Sequence:
#
# PCOD9537843 Si02
#       4
#    16  16  16  16
#     4   8  16  31  48  69  99 133 170 211 253 298
#     4  10  21  37  57  81 107 135 170 213 262 315
#     4  11  21  33  51  75 106 143 181 218 258 307
#     4  10  20  35  55  78 106 139 176 218 263 312
#
# _framework density 17.382314999999998
#
# number of rings (size 3 to 8) (size 9 to 14) (size 15 to 20)
#    0.000    2.250    0.000    5.250    0.000    8.000 
#    0.000    0.000    0.000    0.750    0.000    0.000 
#    0.000    0.000    0.000    0.000    0.000    0.000 
#
# Total GULP energy -178543.773615 kJ/mol
# GULP energy per Si atom -5579.492925 kJ/mol
# Density = 1.734275 g / cm^3
# Si number density = 17.382315 Si / 1000 Ang^3
#
#
#
# Elastic Constant Matrix: (Units=GPa)
#
#
# Indices 1 2 3 4 5 6 
#
# 1 107.8219 63.3146 62.5024 0.0000 0.0000 0.0000
# 2 63.3146 101.2000 67.3743 0.0000 0.0000 0.0000
# 3 62.5024 67.3743 98.9996 0.0000 0.0000 0.0000
# 4 0.0000 0.0000 0.0000 21.8132 0.0000 0.0000
# 5 0.0000 0.0000 0.0000 0.0000 29.4660 0.0000
# 6 0.0000 0.0000 0.0000 0.0000 0.0000 11.8642
#
#
#
# Elastic Compliance Matrix: (Units=1/GPa)
#
#
# Indices 1 2 3 4 5 6 
#
# 1 0.016512 -0.006199 -0.006206 0.000000 0.000000 0.000000
# 2 -0.006199 0.020395 -0.009966 0.000000 0.000000 0.000000
# 3 -0.006206 -0.009966 0.020802 0.000000 0.000000 0.000000
# 4 0.000000 0.000000 0.000000 0.045844 0.000000 0.000000
# 5 0.000000 0.000000 0.000000 0.000000 0.033937 0.000000
# 6 0.000000 0.000000 0.000000 0.000000 0.000000 0.084287
#
#
# Mechanical properties :
#
#
# Convention : Reuss Voigt Hill
#
# Bulk Modulus (GPa) = 77.12253 77.15601 77.13927
# Shear Modulus (GPa) = 18.46102 20.28402 19.37252
#
# Velocity S-wave (km/s) = 3.26246 3.41975 3.34203
# Velocity P-wave (km/s) = 7.65874 7.75093 7.70497
#
# Compressibility (1/GPa) = 0.01296638
#
# Stress axis : x y z
#
# Youngs Moduli (GPa) = 60.56107 49.03276 48.07342
#
# Poissons Ratio (x) = 0.30395 0.29835
# Poissons Ratio (y) = 0.37541 0.47909
# Poissons Ratio (z) = 0.37585 0.48865
#
# Static dielectric constant tensor:
#      x y z
#    x 1.580400 0.000000 0.000000 
#    y 0.000000 1.596330 0.000000 
#    z 0.000000 0.000000 1.594360 
# 
# From -- ./inp_files/28818.got.cif
#   From: 2010.05.17/outbox.cif.g08.bks.cpg/sg74_15_cif.got.tgz:28818.got - 2010.06.03 17:57:02.
