data_PCOD9537407
_publ_section_title
;
Structure prediction by ZEFSAII (Michael W. Deem and Ramdas Pophale) SiO2 
 PCOD9537407
Probable space group: I M M A
;
_chemical_formula_sum "Si O2"
_cell_formula_units_Z 104
_cell_length_a 7.578494
_cell_length_b 22.015421
_cell_length_c 28.893248
_cell_angle_alpha 90.000000
_cell_angle_beta 90.000000
_cell_angle_gamma 90.000000
_cell_volume 4820.657440
_symmetry_space_group_name_H-M "I M M A"
_symmetry_group_IT_number 74
_symmetry_cell_setting 'orthorhombic'
loop_
_space_group_symop_operation_xyz
x,y,z
-x,1/2-y,z
x,-y,-z
-x,1/2+y,-z
-x,-y,-z
x,1/2+y,-z
-x,y,z
x,1/2-y,z
1/2+x,1/2+y,1/2+z
1/2-x,-y,1/2+z
1/2+x,1/2-y,1/2-z
1/2-x,y,1/2-z
1/2-x,1/2-y,1/2-z
1/2+x,y,1/2-z
1/2-x,1/2+y,1/2+z
1/2+x,-y,1/2+z
loop_
_atom_site_type_symbol
_atom_site_label
_atom_site_fract_x
_atom_site_fract_y
_atom_site_fract_z
Si Si1 0.784441 0.932685 0.947647
Si Si2 0.212516 0.250000 0.695112
Si Si3 0.291516 0.372140 0.854074
Si Si4 0.211510 0.991334 0.304007
Si Si5 0.294465 0.815456 0.605109
Si Si6 0.789884 0.873063 0.696416
Si Si7 0.287711 0.567959 0.445172
O O1 0.718027 0.875856 0.918306
O O2 0.000000 0.934153 0.945692
O O3 0.725378 0.999749 0.931557
O O4 0.734795 0.923887 0.001434
O O5 0.250000 0.250000 0.750000
O O6 0.279666 0.310957 0.669459
O O7 0.000000 0.250000 0.690322
O O8 0.500000 0.372206 0.843773
O O9 0.216041 0.434159 0.832064
O O10 0.271036 0.381308 0.908932
O O11 0.250000 0.981140 0.250000
O O12 0.000000 0.993585 0.310218
O O13 0.279566 0.058863 0.315289
O O14 0.500000 0.813870 0.591365
O O15 0.215839 0.750000 0.592911
O O16 0.285436 0.826087 0.659942
O O17 0.750000 0.860990 0.750000
O O18 0.000000 0.872930 0.691068
O O19 0.500000 0.567720 0.444517
#
# Coordination Sequence:
#
# PCOD9537407 Si02
#       7
#    16   8  16  16  16  16  16
#     4   8  16  33  54  78 106 133 166 211 259 303
#     4  10  22  38  54  72 104 146 182 220 265 316
#     4  10  20  34  50  74 106 137 169 212 264 310
#     4   9  18  31  49  73  99 128 164 208 254 299
#     4  10  20  34  52  73  99 134 170 203 246 296
#     4  10  20  34  52  75 102 130 165 209 252 296
#     4   9  17  32  56  80 102 131 169 212 256 305
#
# _framework density 21.573819
#
# number of rings (size 3 to 8) (size 9 to 14) (size 15 to 20)
#    0.000    2.615    0.000    2.769    0.000    2.462 
#    1.385    2.308    0.000    0.000    0.000    0.000 
#    0.000    0.000    0.000    0.000    0.000    0.000 
#
# Total GULP energy -290246.386305 kJ/mol
# GULP energy per Si atom -5581.661275 kJ/mol
# Density = 2.152472 g / cm^3
# Si number density = 21.573819 Si / 1000 Ang^3
#
#
#
# Elastic Constant Matrix: (Units=GPa)
#
#
# Indices 1 2 3 4 5 6 
#
# 1 51.1906 4.0346 -11.9636 0.0000 0.0000 0.0000
# 2 4.0346 124.3562 74.6862 0.0000 0.0000 0.0000
# 3 -11.9636 74.6862 85.0067 0.0000 0.0000 0.0000
# 4 0.0000 0.0000 0.0000 38.4478 0.0000 0.0000
# 5 0.0000 0.0000 0.0000 0.0000 18.8893 0.0000
# 6 0.0000 0.0000 0.0000 0.0000 0.0000 1.7539
#
#
#
# Elastic Compliance Matrix: (Units=1/GPa)
#
#
# Indices 1 2 3 4 5 6 
#
# 1 0.021784 -0.005395 0.007806 0.000000 0.000000 0.000000
# 2 -0.005395 0.018361 -0.016891 0.000000 0.000000 0.000000
# 3 0.007806 -0.016891 0.027702 0.000000 0.000000 0.000000
# 4 0.000000 0.000000 0.000000 0.026009 0.000000 0.000000
# 5 0.000000 0.000000 0.000000 0.000000 0.052940 0.000000
# 6 0.000000 0.000000 0.000000 0.000000 0.000000 0.570170
#
#
# Mechanical properties :
#
#
# Convention : Reuss Voigt Hill
#
# Bulk Modulus (GPa) = 25.71514 43.78531 34.75022
# Shear Modulus (GPa) = 6.58857 24.73794 15.66326
#
# Velocity S-wave (km/s) = 1.74946 3.38992 2.69742
# Velocity P-wave (km/s) = 4.00328 5.97174 5.08370
#
# Compressibility (1/GPa) = 0.03888760
#
# Stress axis : x y z
#
# Youngs Moduli (GPa) = 45.90471 54.46389 36.09788
#
# Poissons Ratio (x) = 0.29381 -0.28176
# Poissons Ratio (y) = 0.24764 0.60972
# Poissons Ratio (z) = -0.35831 0.91994
#
# Static dielectric constant tensor:
#      x y z
#    x 1.827120 0.000000 0.000000 
#    y 0.000000 1.809670 0.000000 
#    z 0.000000 0.000000 1.761610 
# 
# From -- ./inp_files/70615.got.cif
#   From: 2010.05.17/outbox.cif.g08.bks.cpg/sg74_36_cif.got.tgz:70615.got - 2010.06.03 17:57:02.
