data_PCOD9537361
_publ_section_title
;
Structure prediction by ZEFSAII (Michael W. Deem and Ramdas Pophale) SiO2 
 PCOD9537361
Probable space group: I M M A
;
_chemical_formula_sum "Si O2"
_cell_formula_units_Z 116
_cell_length_a 24.529869
_cell_length_b 7.837069
_cell_length_c 29.456156
_cell_angle_alpha 90.000000
_cell_angle_beta 90.000000
_cell_angle_gamma 90.000000
_cell_volume 5662.718469
_symmetry_space_group_name_H-M "I M M A"
_symmetry_group_IT_number 74
_symmetry_cell_setting 'orthorhombic'
loop_
_space_group_symop_operation_xyz
x,y,z
-x,1/2-y,z
x,-y,-z
-x,1/2+y,-z
-x,-y,-z
x,1/2+y,-z
-x,y,z
x,1/2-y,z
1/2+x,1/2+y,1/2+z
1/2-x,-y,1/2+z
1/2+x,1/2-y,1/2-z
1/2-x,y,1/2-z
1/2-x,1/2-y,1/2-z
1/2+x,y,1/2-z
1/2-x,1/2+y,1/2+z
1/2+x,-y,1/2+z
loop_
_atom_site_type_symbol
_atom_site_label
_atom_site_fract_x
_atom_site_fract_y
_atom_site_fract_z
Si Si1 0.306505 0.554258 0.645582
Si Si2 0.421485 0.548904 0.320238
Si Si3 0.560049 0.543072 0.119525
Si Si4 0.089012 0.553360 0.282056
Si Si5 0.153523 0.051268 0.450299
Si Si6 0.711339 0.451334 0.206372
Si Si7 0.276309 0.556552 0.448812
Si Si8 0.000000 0.750000 0.850650
O O1 0.310379 0.750000 0.661704
O O2 0.357968 0.458628 0.666137
O O3 0.248570 0.488121 0.664596
O O4 0.303944 0.547827 0.591433
O O5 0.438021 0.750000 0.324318
O O6 0.427570 0.488753 0.267528
O O7 0.453156 0.404597 0.348346
O O8 0.500000 0.494764 0.102230
O O9 0.563046 0.750000 0.120492
O O10 0.566316 0.477791 0.171239
O O11 0.609091 0.482025 0.088084
O O12 0.071584 0.750000 0.281623
O O13 0.154339 0.542912 0.286546
O O14 0.167826 0.250000 0.450919
O O15 0.131667 0.000000 0.500000
O O16 0.210772 0.956181 0.443658
O O17 0.698505 0.250000 0.200405
O O18 0.750000 0.470072 0.250000
O O19 0.288771 0.500000 0.500000
O O20 0.293827 0.750000 0.442515
#
# Coordination Sequence:
#
# PCOD9537361 Si02
#       8
#    16  16  16  16  16  16  16   4
#     4  11  21  38  61  93 131 165 205 254 307 368
#     4  11  24  42  64  92 122 165 214 259 311 370
#     4  10  22  40  58  79 110 154 203 261 316 361
#     4  10  22  37  56  83 118 157 207 255 311 369
#     4  11  22  39  60  85 114 153 198 250 310 375
#     4  10  20  33  54  81 120 164 201 244 302 370
#     4  11  22  38  62  93 127 162 198 243 307 375
#     4  12  26  44  64  88 122 168 210 264 318 354
#
# _framework density 20.484860000000001
#
# number of rings (size 3 to 8) (size 9 to 14) (size 15 to 20)
#    0.000    1.379    2.069    4.759    1.931    4.690 
#    0.000    0.000    0.000    0.000    0.000    0.483 
#    0.000    0.000    0.000    0.000    0.000    0.000 
#
# Total GULP energy -323475.397107 kJ/mol
# GULP energy per Si atom -5577.162019 kJ/mol
# Density = 2.043824 g / cm^3
# Si number density = 20.484860 Si / 1000 Ang^3
#
#
#
# Elastic Constant Matrix: (Units=GPa)
#
#
# Indices 1 2 3 4 5 6 
#
# 1 46.6847 4.9112 2.7106 0.0000 0.0000 0.0000
# 2 4.9112 79.9621 -3.3918 0.0000 0.0000 0.0000
# 3 2.7106 -3.3918 83.1534 0.0000 0.0000 0.0000
# 4 0.0000 0.0000 0.0000 19.8744 0.0000 0.0000
# 5 0.0000 0.0000 0.0000 0.0000 19.1124 0.0000
# 6 0.0000 0.0000 0.0000 0.0000 0.0000 8.2150
#
#
#
# Elastic Compliance Matrix: (Units=1/GPa)
#
#
# Indices 1 2 3 4 5 6 
#
# 1 0.021607 -0.001359 -0.000760 0.000000 0.000000 0.000000
# 2 -0.001359 0.012613 0.000559 0.000000 0.000000 0.000000
# 3 -0.000760 0.000559 0.012074 0.000000 0.000000 0.000000
# 4 0.000000 0.000000 0.000000 0.050316 0.000000 0.000000
# 5 0.000000 0.000000 0.000000 0.000000 0.052322 0.000000
# 6 0.000000 0.000000 0.000000 0.000000 0.000000 0.121729
#
#
# Mechanical properties :
#
#
# Convention : Reuss Voigt Hill
#
# Bulk Modulus (GPa) = 23.16243 24.25114 23.70678
# Shear Modulus (GPa) = 17.35067 23.14502 20.24785
#
# Velocity S-wave (km/s) = 2.91348 3.36499 3.14734
# Velocity P-wave (km/s) = 4.75915 5.19247 4.98053
#
# Compressibility (1/GPa) = 0.04317336
#
# Stress axis : x y z
#
# Youngs Moduli (GPa) = 46.28045 79.28256 82.82584
#
# Poissons Ratio (x) = 0.10777 0.06293
# Poissons Ratio (y) = 0.06291 -0.04628
# Poissons Ratio (z) = 0.03516 -0.04430
#
# Static dielectric constant tensor:
#      x y z
#    x 1.722100 0.000000 0.000000 
#    y 0.000000 1.761790 0.000000 
#    z 0.000000 0.000000 1.751640 
# 
# From -- ./inp_files/68979.got.cif
#   From: 2010.05.17/outbox.cif.g08.bks.cpg/sg74_35_cif.got.tgz:68979.got - 2010.06.03 17:57:02.
