data_PCOD9537606
_publ_section_title
;
Structure prediction by ZEFSAII (Michael W. Deem and Ramdas Pophale) SiO2 
 PCOD9537606
Probable space group: I M M A
;
_chemical_formula_sum "Si O2"
_cell_formula_units_Z 116
_cell_length_a 17.755550
_cell_length_b 24.561444
_cell_length_c 14.229668
_cell_angle_alpha 90.000000
_cell_angle_beta 90.000000
_cell_angle_gamma 90.000000
_cell_volume 6205.585920
_symmetry_space_group_name_H-M "I M M A"
_symmetry_group_IT_number 74
_symmetry_cell_setting 'orthorhombic'
loop_
_space_group_symop_operation_xyz
x,y,z
-x,1/2-y,z
x,-y,-z
-x,1/2+y,-z
-x,-y,-z
x,1/2+y,-z
-x,y,z
x,1/2-y,z
1/2+x,1/2+y,1/2+z
1/2-x,-y,1/2+z
1/2+x,1/2-y,1/2-z
1/2-x,y,1/2-z
1/2-x,1/2-y,1/2-z
1/2+x,y,1/2-z
1/2-x,1/2+y,1/2+z
1/2+x,-y,1/2+z
loop_
_atom_site_type_symbol
_atom_site_label
_atom_site_fract_x
_atom_site_fract_y
_atom_site_fract_z
Si Si1 0.230508 0.096034 0.143993
Si Si2 0.375798 0.665825 0.352260
Si Si3 0.083614 0.948341 0.231675
Si Si4 0.771001 0.366060 0.547216
Si Si5 0.411329 0.811837 0.136847
Si Si6 0.414739 0.958052 0.582037
Si Si7 0.309105 0.518256 0.099458
Si Si8 0.500000 0.750000 0.419058
O O1 0.250000 0.113245 0.250000
O O2 0.144130 0.088552 0.109512
O O3 0.264745 0.034815 0.134157
O O4 0.265737 0.134986 0.065073
O O5 0.396176 0.602106 0.336221
O O6 0.293099 0.667393 0.398064
O O7 0.383983 0.686846 0.245133
O O8 0.434281 0.701905 0.410406
O O9 0.138584 0.959441 0.317949
O O10 0.000000 0.937129 0.268277
O O11 0.082164 0.003236 0.172384
O O12 0.853839 0.349075 0.580254
O O13 0.758483 0.429628 0.574035
O O14 0.500000 0.826293 0.133913
O O15 0.404882 0.750000 0.102394
O O16 0.500000 0.939210 0.558965
O O17 0.390355 0.000000 0.500000
O O18 0.346312 0.500000 0.000000
#
# Coordination Sequence:
#
# PCOD9537606 Si02
#       8
#    16  16  16  16  16  16  16   4
#     4  11  21  40  59  81 118 155 204 254 291 341
#     4  12  21  37  56  86 126 153 196 228 304 358
#     4  11  20  32  53  83 117 162 191 231 288 349
#     4  11  25  35  61  90 114 160 202 240 296 365
#     4  11  22  40  60  88 122 155 187 238 299 364
#     4  10  20  34  54  80 115 155 201 238 287 346
#     4  10  21  35  53  82 116 157 199 239 285 341
#     4  12  24  40  58  92 124 166 182 260 292 364
#
# _framework density 18.692837000000001
#
# number of rings (size 3 to 8) (size 9 to 14) (size 15 to 20)
#    0.000    1.103    4.828    3.310    0.966    0.828 
#    1.241    2.759    0.000    0.414    0.000    0.000 
#    0.000    0.000    0.000    0.000    0.000    0.000 
#
# Total GULP energy -322982.814882 kJ/mol
# GULP energy per Si atom -5568.669222 kJ/mol
# Density = 1.865029 g / cm^3
# Si number density = 18.692837 Si / 1000 Ang^3
#
#
#
# Elastic Constant Matrix: (Units=GPa)
#
#
# Indices 1 2 3 4 5 6 
#
# 1 110.9365 30.0568 58.8865 0.0000 0.0000 0.0000
# 2 30.0568 47.4585 4.1653 0.0000 0.0000 0.0000
# 3 58.8865 4.1653 82.3025 0.0000 0.0000 0.0000
# 4 0.0000 0.0000 0.0000 2.5827 0.0000 0.0000
# 5 0.0000 0.0000 0.0000 0.0000 -8.9805 0.0000
# 6 0.0000 0.0000 0.0000 0.0000 0.0000 30.0441
#
#
#
# Elastic Compliance Matrix: (Units=1/GPa)
#
#
# Indices 1 2 3 4 5 6 
#
# 1 0.018766 -0.010755 -0.012883 0.000000 0.000000 0.000000
# 2 -0.010755 0.027328 0.006312 0.000000 0.000000 0.000000
# 3 -0.012883 0.006312 0.021048 0.000000 0.000000 0.000000
# 4 0.000000 0.000000 0.000000 0.387198 0.000000 0.000000
# 5 0.000000 0.000000 0.000000 0.000000 -0.111353 0.000000
# 6 0.000000 0.000000 0.000000 0.000000 0.000000 0.033284
#
#
# Mechanical properties :
#
#
# Convention : Reuss Voigt Hill
#
# Bulk Modulus (GPa) = 30.77718 47.43496 39.10607
# Shear Modulus (GPa) = 11.85526 14.56853 13.21190
#
# Velocity S-wave (km/s) = 2.52109 2.79474 2.66143
# Velocity P-wave (km/s) = 4.99750 5.98708 5.51453
#
# Compressibility (1/GPa) = 0.03249161
#
# Stress axis : x y z
#
# Youngs Moduli (GPa) = 53.28693 36.59215 47.50967
#
# Poissons Ratio (x) = 0.39353 0.61206
# Poissons Ratio (y) = 0.57308 -0.29987
# Poissons Ratio (z) = 0.68648 -0.23096
#
# Static dielectric constant tensor:
#      x y z
#    x 1.700530 0.000000 0.000000 
#    y 0.000000 1.675980 0.000000 
#    z 0.000000 0.000000 1.670630 
# 
# From -- ./inp_files/34533.got.cif
#   From: 2010.05.17/outbox.cif.g08.bks.cpg/sg74_18_cif.got.tgz:34533.got - 2010.06.03 17:57:02.
