data_PCOD9537080
_publ_section_title
;
Structure prediction by ZEFSAII (Michael W. Deem and Ramdas Pophale) SiO2 
 PCOD9537080
Probable space group: I M M A
;
_chemical_formula_sum "Si O2"
_cell_formula_units_Z 96
_cell_length_a 15.132106
_cell_length_b 9.566423
_cell_length_c 32.296942
_cell_angle_alpha 90.000000
_cell_angle_beta 90.000000
_cell_angle_gamma 90.000000
_cell_volume 4675.309422
_symmetry_space_group_name_H-M "I M M A"
_symmetry_group_IT_number 74
_symmetry_cell_setting 'orthorhombic'
loop_
_space_group_symop_operation_xyz
x,y,z
-x,1/2-y,z
x,-y,-z
-x,1/2+y,-z
-x,-y,-z
x,1/2+y,-z
-x,y,z
x,1/2-y,z
1/2+x,1/2+y,1/2+z
1/2-x,-y,1/2+z
1/2+x,1/2-y,1/2-z
1/2-x,y,1/2-z
1/2-x,1/2-y,1/2-z
1/2+x,y,1/2-z
1/2-x,1/2+y,1/2+z
1/2+x,-y,1/2+z
loop_
_atom_site_type_symbol
_atom_site_label
_atom_site_fract_x
_atom_site_fract_y
_atom_site_fract_z
Si Si1 0.857096 0.091414 0.707325
Si Si2 0.104955 0.406358 0.371344
Si Si3 0.605881 0.409772 0.379910
Si Si4 0.607733 0.586449 0.961147
Si Si5 0.355079 0.410431 0.700997
Si Si6 0.391903 0.912096 0.459302
O O1 0.889048 0.250000 0.701898
O O2 0.750718 0.095087 0.705640
O O3 0.887002 0.044478 0.753185
O O4 0.882230 0.997178 0.668985
O O5 0.141320 0.250000 0.365309
O O6 0.137732 0.463777 0.415617
O O7 0.000000 0.393856 0.376653
O O8 0.500000 0.401487 0.384427
O O9 0.639882 0.250000 0.380980
O O10 0.623352 0.487204 0.336498
O O11 0.637763 0.505153 0.418146
O O12 0.500000 0.577695 0.962490
O O13 0.630080 0.750000 0.964516
O O14 0.642056 0.500000 0.000000
O O15 0.385392 0.250000 0.692954
O O16 0.500000 0.909040 0.458743
O O17 0.362718 0.750000 0.460290
O O18 0.366451 0.000000 0.500000
#
# Coordination Sequence:
#
# PCOD9537080 Si02
#       6
#    16  16  16  16  16  16
#     4   9  19  35  53  71  92 123 163 202 240 288
#     4   9  18  31  47  71 102 129 154 192 241 285
#     4  10  20  32  48  74 103 128 160 201 242 287
#     4   8  14  25  41  63  92 124 155 187 225 270
#     4   9  19  36  53  69  93 125 161 201 245 290
#     4   9  16  27  45  69  98 131 163 196 237 284
#
# _framework density 20.533398999999999
#
# number of rings (size 3 to 8) (size 9 to 14) (size 15 to 20)
#    0.000    3.000    0.000    3.000    0.000    6.000 
#    0.000    6.667    0.000    1.000    0.000    2.333 
#    0.000    0.000    0.000    0.000    0.000    0.000 
#
# Total GULP energy -267648.703049 kJ/mol
# GULP energy per Si atom -5576.014647 kJ/mol
# Density = 2.048666 g / cm^3
# Si number density = 20.533399 Si / 1000 Ang^3
#
#
#
# Elastic Constant Matrix: (Units=GPa)
#
#
# Indices 1 2 3 4 5 6 
#
# 1 35.6143 6.3827 2.6361 0.0000 0.0000 0.0000
# 2 6.3827 146.0762 140.1909 0.0000 0.0000 0.0000
# 3 2.6361 140.1909 249.0325 0.0000 0.0000 0.0000
# 4 0.0000 0.0000 0.0000 41.0494 0.0000 0.0000
# 5 0.0000 0.0000 0.0000 0.0000 45.2146 0.0000
# 6 0.0000 0.0000 0.0000 0.0000 0.0000 19.9702
#
#
#
# Elastic Compliance Matrix: (Units=1/GPa)
#
#
# Indices 1 2 3 4 5 6 
#
# 1 0.028386 -0.002071 0.000865 0.000000 0.000000 0.000000
# 2 -0.002071 0.015042 -0.008446 0.000000 0.000000 0.000000
# 3 0.000865 -0.008446 0.008761 0.000000 0.000000 0.000000
# 4 0.000000 0.000000 0.000000 0.024361 0.000000 0.000000
# 5 0.000000 0.000000 0.000000 0.000000 0.022117 0.000000
# 6 0.000000 0.000000 0.000000 0.000000 0.000000 0.050075
#
#
# Mechanical properties :
#
#
# Convention : Reuss Voigt Hill
#
# Bulk Modulus (GPa) = 30.40813 81.01580 55.71197
# Shear Modulus (GPa) = 27.93228 40.01439 33.97333
#
# Velocity S-wave (km/s) = 3.69227 4.41925 4.07202
# Velocity P-wave (km/s) = 5.74617 8.09821 7.02137
#
# Compressibility (1/GPa) = 0.03288594
#
# Stress axis : x y z
#
# Youngs Moduli (GPa) = 35.22902 66.48249 114.14522
#
# Poissons Ratio (x) = 0.13766 -0.09875
# Poissons Ratio (y) = 0.07294 0.96403
# Poissons Ratio (z) = -0.03048 0.56148
#
# Static dielectric constant tensor:
#      x y z
#    x 1.785660 0.000000 0.000000 
#    y 0.000000 1.715660 0.000000 
#    z 0.000000 0.000000 1.739740 
# 
# From -- ./inp_files/68103.got.cif
#   From: 2010.05.17/outbox.cif.g08.bks.cpg/sg74_35_cif.got.tgz:68103.got - 2010.06.03 17:57:02.
