data_PCOD9537282
_publ_section_title
;
Structure prediction by ZEFSAII (Michael W. Deem and Ramdas Pophale) SiO2 
 PCOD9537282
Probable space group: I M M A
;
_chemical_formula_sum "Si O2"
_cell_formula_units_Z 112
_cell_length_a 26.047987
_cell_length_b 17.036958
_cell_length_c 13.833225
_cell_angle_alpha 90.000000
_cell_angle_beta 90.000000
_cell_angle_gamma 90.000000
_cell_volume 6138.887294
_symmetry_space_group_name_H-M "I M M A"
_symmetry_group_IT_number 74
_symmetry_cell_setting 'orthorhombic'
loop_
_space_group_symop_operation_xyz
x,y,z
-x,1/2-y,z
x,-y,-z
-x,1/2+y,-z
-x,-y,-z
x,1/2+y,-z
-x,y,z
x,1/2-y,z
1/2+x,1/2+y,1/2+z
1/2-x,-y,1/2+z
1/2+x,1/2-y,1/2-z
1/2-x,y,1/2-z
1/2-x,1/2-y,1/2-z
1/2+x,y,1/2-z
1/2-x,1/2+y,1/2+z
1/2+x,-y,1/2+z
loop_
_atom_site_type_symbol
_atom_site_label
_atom_site_fract_x
_atom_site_fract_y
_atom_site_fract_z
Si Si1 0.938865 0.337506 0.205346
Si Si2 0.647504 0.931210 0.421062
Si Si3 0.558960 0.155196 0.502462
Si Si4 0.224732 0.657412 0.946014
Si Si5 0.306703 0.457852 0.272083
Si Si6 0.058558 0.154550 0.424774
Si Si7 0.834800 0.917725 0.555808
O O1 0.915762 0.250000 0.211480
O O2 0.936135 0.371370 0.312003
O O3 0.000000 0.329508 0.188271
O O4 0.920980 0.373048 0.103997
O O5 0.595713 0.881713 0.419064
O O6 0.692105 0.875927 0.464268
O O7 0.642194 0.000000 0.500000
O O8 0.661457 0.974174 0.322869
O O9 0.500000 0.131874 0.516329
O O10 0.561490 0.250000 0.501376
O O11 0.218052 0.750000 0.934564
O O12 0.204208 0.612102 0.849626
O O13 0.284446 0.635402 0.962719
O O14 0.250000 0.489668 0.250000
O O15 0.331288 0.430686 0.171854
O O16 0.060450 0.250000 0.427150
O O17 0.109929 0.119385 0.472046
O O18 0.000000 0.132846 0.456652
O O19 0.828198 0.000000 0.500000
#
# Coordination Sequence:
#
# PCOD9537282 Si02
#       7
#    16  16  16  16  16  16  16
#     4   7  12  24  43  70 102 132 160 198 253 310
#     4  10  20  33  51  79 113 145 170 205 261 327
#     4   9  17  30  50  76 109 145 175 208 253 311
#     4  10  20  35  58  86 108 132 171 219 271 324
#     4   9  20  37  54  75 109 144 174 214 267 323
#     4   9  18  32  52  78 106 136 176 227 276 318
#     4  11  22  36  55  77 106 143 180 224 272 318
#
# _framework density 18.244347999999999
#
# number of rings (size 3 to 8) (size 9 to 14) (size 15 to 20)
#    0.000    2.714    0.000    4.714    4.000    3.714 
#    0.000    0.714    0.000    9.429    0.000    2.000 
#    0.000    0.000    0.000    0.000    0.000    0.000 
#
# Total GULP energy -311804.856358 kJ/mol
# GULP energy per Si atom -5567.943864 kJ/mol
# Density = 1.820282 g / cm^3
# Si number density = 18.244348 Si / 1000 Ang^3
#
#
#
# Elastic Constant Matrix: (Units=GPa)
#
#
# Indices 1 2 3 4 5 6 
#
# 1 115.5716 35.5878 18.6957 0.0000 0.0000 0.0000
# 2 35.5878 62.4470 14.9643 0.0000 0.0000 0.0000
# 3 18.6957 14.9643 6.9009 0.0000 0.0000 0.0000
# 4 0.0000 0.0000 0.0000 1.6964 0.0000 0.0000
# 5 0.0000 0.0000 0.0000 0.0000 19.3959 0.0000
# 6 0.0000 0.0000 0.0000 0.0000 0.0000 42.4578
#
#
#
# Elastic Compliance Matrix: (Units=1/GPa)
#
#
# Indices 1 2 3 4 5 6 
#
# 1 0.015600 0.002576 -0.047848 0.000000 0.000000 0.000000
# 2 0.002576 0.033761 -0.080189 0.000000 0.000000 0.000000
# 3 -0.047848 -0.080189 0.448425 0.000000 0.000000 0.000000
# 4 0.000000 0.000000 0.000000 0.589480 0.000000 0.000000
# 5 0.000000 0.000000 0.000000 0.000000 0.051557 0.000000
# 6 0.000000 0.000000 0.000000 0.000000 0.000000 0.023553
#
#
# Mechanical properties :
#
#
# Convention : Reuss Voigt Hill
#
# Bulk Modulus (GPa) = 4.05082 35.93499 19.99290
# Shear Modulus (GPa) = 3.34317 20.42146 11.88231
#
# Velocity S-wave (km/s) = 1.35515 3.34927 2.55480
# Velocity P-wave (km/s) = 2.16187 5.89034 4.43677
#
# Compressibility (1/GPa) = 0.24686372
#
# Stress axis : x y z
#
# Youngs Moduli (GPa) = 64.10367 29.61957 2.23003
#
# Poissons Ratio (x) = -0.07629 0.10670
# Poissons Ratio (y) = -0.16512 0.17882
# Poissons Ratio (z) = 3.06723 2.37516
#
# Static dielectric constant tensor:
#      x y z
#    x 1.679500 0.000000 0.000000 
#    y 0.000000 1.623270 0.000000 
#    z 0.000000 0.000000 1.632660 
# 
# From -- ./inp_files/37384.got.cif
#   From: 2010.05.17/outbox.cif.g08.bks.cpg/sg74_19_cif.got.tgz:37384.got - 2010.06.03 17:57:02.
