data_PCOD9537089
_publ_section_title
;
Structure prediction by ZEFSAII (Michael W. Deem and Ramdas Pophale) SiO2 
 PCOD9537089
Probable space group: I M M A
;
_chemical_formula_sum "Si O2"
_cell_formula_units_Z 128
_cell_length_a 18.566492
_cell_length_b 18.202349
_cell_length_c 20.569599
_cell_angle_alpha 90.000000
_cell_angle_beta 90.000000
_cell_angle_gamma 90.000000
_cell_volume 6951.573470
_symmetry_space_group_name_H-M "I M M A"
_symmetry_group_IT_number 74
_symmetry_cell_setting 'orthorhombic'
loop_
_space_group_symop_operation_xyz
x,y,z
-x,1/2-y,z
x,-y,-z
-x,1/2+y,-z
-x,-y,-z
x,1/2+y,-z
-x,y,z
x,1/2-y,z
1/2+x,1/2+y,1/2+z
1/2-x,-y,1/2+z
1/2+x,1/2-y,1/2-z
1/2-x,y,1/2-z
1/2-x,1/2-y,1/2-z
1/2+x,y,1/2-z
1/2-x,1/2+y,1/2+z
1/2+x,-y,1/2+z
loop_
_atom_site_type_symbol
_atom_site_label
_atom_site_fract_x
_atom_site_fract_y
_atom_site_fract_z
Si Si1 0.582570 0.990270 0.631167
Si Si2 0.584653 0.461716 0.773749
Si Si3 0.916633 0.870048 0.685607
Si Si4 0.376784 0.829981 0.668092
Si Si5 0.774105 0.020775 0.927471
Si Si6 0.275183 0.131408 0.111303
Si Si7 0.085008 0.334733 0.629238
Si Si8 0.213780 0.332643 0.540599
O O1 0.500000 0.011497 0.620190
O O2 0.587403 0.901834 0.636738
O O3 0.610813 0.023956 0.700099
O O4 0.640405 0.013638 0.578595
O O5 0.500000 0.445752 0.765081
O O6 0.588551 0.541120 0.808138
O O7 0.611991 0.395022 0.818289
O O8 0.895570 0.838011 0.755973
O O9 0.853536 0.847115 0.637105
O O10 0.000000 0.851513 0.670281
O O11 0.401906 0.750000 0.645120
O O12 0.291541 0.835980 0.652066
O O13 0.753004 0.104553 0.918230
O O14 0.738101 0.956991 0.884361
O O15 0.750037 0.000000 0.000000
O O16 0.271491 0.154665 0.035744
O O17 0.093471 0.250000 0.652239
O O18 0.130686 0.341069 0.562915
O O19 0.000000 0.347349 0.617774
O O20 0.236242 0.250000 0.557023
#
# Coordination Sequence:
#
# PCOD9537089 Si02
#       8
#    16  16  16  16  16  16  16  16
#     4   9  18  33  55  79  99 126 165 207 250 294
#     4   8  15  30  49  70  99 129 159 198 246 301
#     4  10  20  32  49  74 102 133 168 208 250 290
#     4  10  20  34  51  73 103 135 165 198 242 299
#     4   9  19  35  53  73  99 132 169 206 248 301
#     4  10  20  34  52  72  97 134 174 206 244 299
#     4   9  17  30  50  74  99 130 167 208 255 303
#     4  10  20  34  51  71  98 132 169 210 254 300
#
# _framework density 18.413097
#
# number of rings (size 3 to 8) (size 9 to 14) (size 15 to 20)
#    0.000    2.625    0.000    2.625    0.000    3.250 
#    0.000    2.500    0.000    7.125    0.000    0.000 
#    0.000    0.000    0.000    0.000    0.000    0.000 
#
# Total GULP energy -356275.701781 kJ/mol
# GULP energy per Si atom -5566.807840 kJ/mol
# Density = 1.837119 g / cm^3
# Si number density = 18.413097 Si / 1000 Ang^3
#
#
#
# Elastic Constant Matrix: (Units=GPa)
#
#
# Indices 1 2 3 4 5 6 
#
# 1 86.6906 28.3256 17.9491 0.0000 0.0000 0.0000
# 2 28.3256 108.4536 11.3640 0.0000 0.0000 0.0000
# 3 17.9491 11.3640 10.6681 0.0000 0.0000 0.0000
# 4 0.0000 0.0000 0.0000 11.5268 0.0000 0.0000
# 5 0.0000 0.0000 0.0000 0.0000 25.7456 0.0000
# 6 0.0000 0.0000 0.0000 0.0000 0.0000 13.1837
#
#
#
# Elastic Compliance Matrix: (Units=1/GPa)
#
#
# Indices 1 2 3 4 5 6 
#
# 1 0.017982 -0.001718 -0.028424 0.000000 0.000000 0.000000
# 2 -0.001718 0.010543 -0.008340 0.000000 0.000000 0.000000
# 3 -0.028424 -0.008340 0.150445 0.000000 0.000000 0.000000
# 4 0.000000 0.000000 0.000000 0.086754 0.000000 0.000000
# 5 0.000000 0.000000 0.000000 0.000000 0.038842 0.000000
# 6 0.000000 0.000000 0.000000 0.000000 0.000000 0.075851
#
#
# Mechanical properties :
#
#
# Convention : Reuss Voigt Hill
#
# Bulk Modulus (GPa) = 9.80342 35.67663 22.74002
# Shear Modulus (GPa) = 10.17535 19.96947 15.07241
#
# Velocity S-wave (km/s) = 2.35333 3.29679 2.86417
# Velocity P-wave (km/s) = 3.56650 5.82318 4.82853
#
# Compressibility (1/GPa) = 0.10200518
#
# Stress axis : x y z
#
# Youngs Moduli (GPa) = 55.61179 94.84819 6.64694
#
# Poissons Ratio (x) = 0.16296 0.18893
# Poissons Ratio (y) = 0.09555 0.05544
# Poissons Ratio (z) = 1.58072 0.79105
#
# Static dielectric constant tensor:
#      x y z
#    x 1.638430 0.000000 0.000000 
#    y 0.000000 1.678880 0.000000 
#    z 0.000000 0.000000 1.643140 
# 
# From -- ./inp_files/61109.got.cif
#   From: 2010.05.17/outbox.cif.g08.bks.cpg/sg74_31_cif.got.tgz:61109.got - 2010.06.03 17:57:02.
