data_PCOD9537791
_publ_section_title
;
Structure prediction by ZEFSAII (Michael W. Deem and Ramdas Pophale) SiO2 
 PCOD9537791
Probable space group: I M M A
;
_chemical_formula_sum "Si O2"
_cell_formula_units_Z 112
_cell_length_a 14.866366
_cell_length_b 24.818566
_cell_length_c 15.459637
_cell_angle_alpha 90.000000
_cell_angle_beta 90.000000
_cell_angle_gamma 90.000000
_cell_volume 5704.016821
_symmetry_space_group_name_H-M "I M M A"
_symmetry_group_IT_number 74
_symmetry_cell_setting 'orthorhombic'
loop_
_space_group_symop_operation_xyz
x,y,z
-x,1/2-y,z
x,-y,-z
-x,1/2+y,-z
-x,-y,-z
x,1/2+y,-z
-x,y,z
x,1/2-y,z
1/2+x,1/2+y,1/2+z
1/2-x,-y,1/2+z
1/2+x,1/2-y,1/2-z
1/2-x,y,1/2-z
1/2-x,1/2-y,1/2-z
1/2+x,y,1/2-z
1/2-x,1/2+y,1/2+z
1/2+x,-y,1/2+z
loop_
_atom_site_type_symbol
_atom_site_label
_atom_site_fract_x
_atom_site_fract_y
_atom_site_fract_z
Si Si1 0.601201 0.583183 0.801399
Si Si2 0.269430 0.136638 0.959202
Si Si3 0.894507 0.689095 0.601612
Si Si4 0.649173 0.400800 0.784528
Si Si5 0.397917 0.313843 0.647049
Si Si6 0.260690 0.465128 0.069381
Si Si7 0.597244 0.001918 0.666776
O O1 0.500000 0.571762 0.834490
O O2 0.618224 0.645669 0.821514
O O3 0.676717 0.551116 0.852355
O O4 0.602763 0.558386 0.706236
O O5 0.335970 0.111362 0.885654
O O6 0.184798 0.165531 0.912717
O O7 0.330014 0.173596 0.021918
O O8 0.232822 0.089350 0.021098
O O9 0.877220 0.750000 0.629642
O O10 0.000000 0.685223 0.575393
O O11 0.750000 0.406241 0.750000
O O12 0.608515 0.349281 0.734578
O O13 0.604225 0.454749 0.745148
O O14 0.500000 0.321992 0.611680
O O15 0.386625 0.250000 0.663218
O O16 0.180164 0.502974 0.102186
O O17 0.315017 0.500000 0.000000
O O18 0.500000 0.010427 0.625350
#
# Coordination Sequence:
#
# PCOD9537791 Si02
#       7
#    16  16  16  16  16  16  16
#     4   9  19  35  55  78 104 139 177 216 265 315
#     4  10  21  34  54  79 109 144 177 220 272 322
#     4   9  18  33  54  81 109 137 176 225 274 322
#     4  10  20  35  53  75 104 140 180 219 261 309
#     4  10  21  36  54  77 108 147 186 221 260 315
#     4  11  21  34  53  78 107 138 174 218 268 318
#     4  11  22  36  56  79 107 142 179 220 265 319
#
# _framework density 19.635286000000001
#
# number of rings (size 3 to 8) (size 9 to 14) (size 15 to 20)
#    0.000    2.000    0.000    4.714    0.000    5.429 
#    0.000    4.286    0.000    7.714    0.000    2.000 
#    0.000    0.000    0.000    0.000    0.000    0.000 
#
# Total GULP energy -311968.954125 kJ/mol
# GULP energy per Si atom -5570.874181 kJ/mol
# Density = 1.959060 g / cm^3
# Si number density = 19.635286 Si / 1000 Ang^3
#
#
#
# Elastic Constant Matrix: (Units=GPa)
#
#
# Indices 1 2 3 4 5 6 
#
# 1 69.6590 25.8582 0.2038 0.0000 0.0001 0.0000
# 2 25.8582 85.6724 19.4773 0.0001 0.0000 -0.0001
# 3 0.2038 19.4773 27.0229 0.0001 -0.0001 -0.0001
# 4 0.0000 0.0001 0.0001 27.3585 0.0000 -0.0001
# 5 0.0001 0.0000 -0.0001 0.0000 377.5327 0.0007
# 6 0.0000 -0.0001 -0.0001 -0.0001 0.0007 43.9533
#
#
#
# Elastic Compliance Matrix: (Units=1/GPa)
#
#
# Indices 1 2 3 4 5 6 
#
# 1 0.016548 -0.005940 0.004156 0.000000 0.000000 0.000000
# 2 -0.005940 0.016092 -0.011554 0.000000 0.000000 0.000000
# 3 0.004156 -0.011554 0.045302 0.000000 0.000000 0.000000
# 4 0.000000 0.000000 0.000000 0.036552 0.000000 0.000000
# 5 0.000000 0.000000 0.000000 0.000000 0.002649 0.000000
# 6 0.000000 0.000000 0.000000 0.000000 0.000000 0.022751
#
#
# Mechanical properties :
#
#
# Convention : Reuss Voigt Hill
#
# Bulk Modulus (GPa) = 19.50538 30.38144 24.94341
# Shear Modulus (GPa) = 27.22463 98.88990 63.05727
#
# Velocity S-wave (km/s) = 3.72763 7.10441 5.67309
# Velocity P-wave (km/s) = 5.33689 9.09964 7.45942
#
# Compressibility (1/GPa) = 0.05126791
#
# Stress axis : x y z
#
# Youngs Moduli (GPa) = 60.42897 62.14350 22.07417
#
# Poissons Ratio (x) = 0.36911 -0.09175
# Poissons Ratio (y) = 0.35893 0.25504
# Poissons Ratio (z) = -0.25116 0.71798
#
# Static dielectric constant tensor:
#      x y z
#    x 1.721640 0.000000 0.000000 
#    y 0.000000 1.720800 0.000000 
#    z 0.000000 0.000000 1.696290 
# 
# From -- ./inp_files/32743.got.cif
#   From: 2010.05.17/outbox.cif.g08.bks.cpg/sg74_17_cif.got.tgz:32743.got - 2010.06.03 17:57:02.
