data_PCOD9537037
_publ_section_title
;
Structure prediction by ZEFSAII (Michael W. Deem and Ramdas Pophale) SiO2 
 PCOD9537037
Probable space group: I M M A
;
_chemical_formula_sum "Si O2"
_cell_formula_units_Z 112
_cell_length_a 9.828371
_cell_length_b 20.795688
_cell_length_c 32.565983
_cell_angle_alpha 90.000000
_cell_angle_beta 90.000000
_cell_angle_gamma 90.000000
_cell_volume 6656.087564
_symmetry_space_group_name_H-M "I M M A"
_symmetry_group_IT_number 74
_symmetry_cell_setting 'orthorhombic'
loop_
_space_group_symop_operation_xyz
x,y,z
-x,1/2-y,z
x,-y,-z
-x,1/2+y,-z
-x,-y,-z
x,1/2+y,-z
-x,y,z
x,1/2-y,z
1/2+x,1/2+y,1/2+z
1/2-x,-y,1/2+z
1/2+x,1/2-y,1/2-z
1/2-x,y,1/2-z
1/2-x,1/2-y,1/2-z
1/2+x,y,1/2-z
1/2-x,1/2+y,1/2+z
1/2+x,-y,1/2+z
loop_
_atom_site_type_symbol
_atom_site_label
_atom_site_fract_x
_atom_site_fract_y
_atom_site_fract_z
Si Si1 0.161374 0.565314 0.856443
Si Si2 0.665309 0.821969 0.321457
Si Si3 0.339094 0.325493 0.290323
Si Si4 0.337792 0.041121 0.712058
Si Si5 0.339921 0.548752 0.937171
Si Si6 0.346079 0.326099 0.584594
Si Si7 0.659224 0.905408 0.025883
O O1 0.194243 0.626788 0.827717
O O2 0.185327 0.502357 0.828144
O O3 0.248819 0.562305 0.897697
O O4 0.000000 0.567431 0.865981
O O5 0.500000 0.819916 0.321276
O O6 0.712343 0.750000 0.308949
O O7 0.704382 0.884836 0.296178
O O8 0.705239 0.834410 0.368751
O O9 0.500000 0.334506 0.281124
O O10 0.318447 0.250000 0.300726
O O11 0.250000 0.339772 0.250000
O O12 0.500000 0.038896 0.720719
O O13 0.250000 0.015880 0.750000
O O14 0.500000 0.559197 0.928104
O O15 0.325860 0.475242 0.952754
O O16 0.303380 0.589370 0.977888
O O17 0.500000 0.352629 0.582467
O O18 0.352842 0.250000 0.578112
O O19 0.251289 0.357731 0.551302
O O20 0.500000 0.888402 0.028079
#
# Coordination Sequence:
#
# PCOD9537037 Si02
#       7
#    16  16  16  16  16  16  16
#     4  10  20  33  50  73  98 124 157 198 242 286
#     4   8  15  29  47  66  92 126 160 195 235 276
#     4   9  18  33  52  73  97 125 157 194 238 289
#     4  10  20  32  47  69  95 123 157 196 238 282
#     4   9  19  34  51  71  96 127 160 195 239 289
#     4   9  17  30  50  74  97 125 163 202 238 280
#     4   9  18  33  50  70  98 128 158 196 242 287
#
# _framework density 16.826701
#
# number of rings (size 3 to 8) (size 9 to 14) (size 15 to 20)
#    0.000    2.857    0.000    3.000    0.000    4.000 
#    0.000    2.857    0.000    3.429    0.000    0.000 
#    0.000    0.000    0.000    0.000    0.000    0.000 
#
# Total GULP energy -312041.664310 kJ/mol
# GULP energy per Si atom -5572.172577 kJ/mol
# Density = 1.678840 g / cm^3
# Si number density = 16.826701 Si / 1000 Ang^3
#
#
#
# Elastic Constant Matrix: (Units=GPa)
#
#
# Indices 1 2 3 4 5 6 
#
# 1 41.2772 30.4307 58.1332 0.0000 0.0000 0.0000
# 2 30.4307 56.0614 47.5844 0.0000 0.0000 0.0000
# 3 58.1332 47.5844 111.1766 0.0000 0.0000 0.0000
# 4 0.0000 0.0000 0.0000 25.9390 0.0000 0.0000
# 5 0.0000 0.0000 0.0000 0.0000 34.8247 0.0000
# 6 0.0000 0.0000 0.0000 0.0000 0.0000 19.3073
#
#
#
# Elastic Compliance Matrix: (Units=1/GPa)
#
#
# Indices 1 2 3 4 5 6 
#
# 1 0.099827 -0.015520 -0.045556 0.000000 0.000000 0.000000
# 2 -0.015520 0.030428 -0.004908 0.000000 0.000000 0.000000
# 3 -0.045556 -0.004908 0.034916 0.000000 0.000000 0.000000
# 4 0.000000 0.000000 0.000000 0.038552 0.000000 0.000000
# 5 0.000000 0.000000 0.000000 0.000000 0.028715 0.000000
# 6 0.000000 0.000000 0.000000 0.000000 0.000000 0.051794
#
#
# Mechanical properties :
#
#
# Convention : Reuss Voigt Hill
#
# Bulk Modulus (GPa) = 30.11740 53.42353 41.77046
# Shear Modulus (GPa) = 11.70223 20.83869 16.27046
#
# Velocity S-wave (km/s) = 2.64001 3.52295 3.11294
# Velocity P-wave (km/s) = 5.21827 6.95460 6.14804
#
# Compressibility (1/GPa) = 0.03320340
#
# Stress axis : x y z
#
# Youngs Moduli (GPa) = 10.01728 32.86454 28.63982
#
# Poissons Ratio (x) = 0.51004 1.30472
# Poissons Ratio (y) = 0.15546 0.14057
# Poissons Ratio (z) = 0.45635 0.16131
#
# Static dielectric constant tensor:
#      x y z
#    x 1.552190 0.000000 0.000000 
#    y 0.000000 1.591900 0.000000 
#    z 0.000000 0.000000 1.549930 
# 
# From -- ./inp_files/59047.got.cif
#   From: 2010.05.17/outbox.cif.g08.bks.cpg/sg74_30_cif.got.tgz:59047.got - 2010.06.03 17:57:02.
