data_PCOD9537241
_publ_section_title
;
Structure prediction by ZEFSAII (Michael W. Deem and Ramdas Pophale) SiO2 
 PCOD9537241
Probable space group: I M M A
;
_chemical_formula_sum "Si O2"
_cell_formula_units_Z 128
_cell_length_a 14.127073
_cell_length_b 20.546929
_cell_length_c 24.093157
_cell_angle_alpha 90.000000
_cell_angle_beta 90.000000
_cell_angle_gamma 90.000000
_cell_volume 6993.471675
_symmetry_space_group_name_H-M "I M M A"
_symmetry_group_IT_number 74
_symmetry_cell_setting 'orthorhombic'
loop_
_space_group_symop_operation_xyz
x,y,z
-x,1/2-y,z
x,-y,-z
-x,1/2+y,-z
-x,-y,-z
x,1/2+y,-z
-x,y,z
x,1/2-y,z
1/2+x,1/2+y,1/2+z
1/2-x,-y,1/2+z
1/2+x,1/2-y,1/2-z
1/2-x,y,1/2-z
1/2-x,1/2-y,1/2-z
1/2+x,y,1/2-z
1/2-x,1/2+y,1/2+z
1/2+x,-y,1/2+z
loop_
_atom_site_type_symbol
_atom_site_label
_atom_site_fract_x
_atom_site_fract_y
_atom_site_fract_z
Si Si1 0.273109 0.429665 0.688556
Si Si2 0.385385 0.560219 0.962494
Si Si3 0.795330 0.174552 0.898629
Si Si4 0.384221 0.674862 0.636990
Si Si5 0.608304 0.176065 0.958232
Si Si6 0.886674 0.059671 0.218102
Si Si7 0.891320 0.828949 0.985694
Si Si8 0.613079 0.478170 0.158975
O O1 0.250000 0.404146 0.750000
O O2 0.318750 0.375349 0.649796
O O3 0.337514 0.494118 0.695832
O O4 0.174689 0.456647 0.663580
O O5 0.500000 0.555925 0.962290
O O6 0.357459 0.555636 0.898422
O O7 0.349875 0.500000 0.000000
O O8 0.362512 0.626457 0.993862
O O9 0.822853 0.250000 0.888341
O O10 0.682378 0.172453 0.908544
O O11 0.838557 0.153230 0.957880
O O12 0.500000 0.676199 0.635564
O O13 0.354018 0.750000 0.646549
O O14 0.355900 0.623240 0.683853
O O15 0.353815 0.651914 0.575179
O O16 0.500000 0.161827 0.941755
O O17 0.612674 0.250000 0.979626
O O18 0.867157 0.061477 0.284272
O O19 0.000000 0.053817 0.211669
O O20 0.890922 0.750000 0.984028
O O21 0.000000 0.850906 0.990018
O O22 0.500000 0.490647 0.157406
#
# Coordination Sequence:
#
# PCOD9537241 Si02
#       8
#    16  16  16  16  16  16  16  16
#     4  10  21  35  51  70  94 125 160 201 247 293
#     4   9  16  27  46  69  90 118 159 199 232 275
#     4  10  20  33  51  73  93 121 161 199 244 298
#     4   8  14  28  52  78 102 131 165 197 231 277
#     4   9  18  32  48  69  99 127 151 191 245 290
#     4   9  18  33  51  72 101 133 163 197 238 283
#     4   8  15  29  48  70  98 128 155 188 233 285
#     4   9  18  33  51  69  94 130 167 201 239 285
#
# _framework density 18.302783000000002
#
# number of rings (size 3 to 8) (size 9 to 14) (size 15 to 20)
#    0.000    3.000    0.000    1.500    0.000    3.250 
#    0.000    2.500    0.000    9.375    0.000    7.000 
#    0.000    0.000    0.000    0.000    0.000    0.000 
#
# Total GULP energy -356491.911677 kJ/mol
# GULP energy per Si atom -5570.186120 kJ/mol
# Density = 1.826113 g / cm^3
# Si number density = 18.302783 Si / 1000 Ang^3
#
#
#
# Elastic Constant Matrix: (Units=GPa)
#
#
# Indices 1 2 3 4 5 6 
#
# 1 34.2788 14.5473 12.6825 0.0000 0.0000 0.0000
# 2 14.5473 81.5975 74.0719 0.0000 0.0000 0.0000
# 3 12.6825 74.0719 108.8857 0.0000 0.0000 0.0000
# 4 0.0000 0.0000 0.0000 31.8745 0.0000 0.0000
# 5 0.0000 0.0000 0.0000 0.0000 19.0489 0.0000
# 6 0.0000 0.0000 0.0000 0.0000 0.0000 13.4922
#
#
#
# Elastic Compliance Matrix: (Units=1/GPa)
#
#
# Indices 1 2 3 4 5 6 
#
# 1 0.031567 -0.005988 0.000396 0.000000 0.000000 0.000000
# 2 -0.005988 0.033178 -0.021873 0.000000 0.000000 0.000000
# 3 0.000396 -0.021873 0.024017 0.000000 0.000000 0.000000
# 4 0.000000 0.000000 0.000000 0.031373 0.000000 0.000000
# 5 0.000000 0.000000 0.000000 0.000000 0.052496 0.000000
# 6 0.000000 0.000000 0.000000 0.000000 0.000000 0.074117
#
#
# Mechanical properties :
#
#
# Convention : Reuss Voigt Hill
#
# Bulk Modulus (GPa) = 29.55577 47.48505 38.52041
# Shear Modulus (GPa) = 15.97674 21.11382 18.54528
#
# Velocity S-wave (km/s) = 2.95772 3.40013 3.18661
# Velocity P-wave (km/s) = 5.27706 6.43545 5.88483
#
# Compressibility (1/GPa) = 0.03383434
#
# Stress axis : x y z
#
# Youngs Moduli (GPa) = 31.67876 30.14022 41.63681
#
# Poissons Ratio (x) = 0.18047 -0.01651
# Poissons Ratio (y) = 0.18968 0.91071
# Poissons Ratio (z) = -0.01256 0.65925
#
# Static dielectric constant tensor:
#      x y z
#    x 1.668930 0.000000 0.000000 
#    y 0.000000 1.625000 0.000000 
#    z 0.000000 0.000000 1.640690 
# 
# From -- ./inp_files/61143.got.cif
#   From: 2010.05.17/outbox.cif.g08.bks.cpg/sg74_31_cif.got.tgz:61143.got - 2010.06.03 17:57:02.
