data_PCOD9537357
_publ_section_title
;
Structure prediction by ZEFSAII (Michael W. Deem and Ramdas Pophale) SiO2 
 PCOD9537357
Probable space group: I M M A
;
_chemical_formula_sum "Si O2"
_cell_formula_units_Z 120
_cell_length_a 27.731582
_cell_length_b 8.677681
_cell_length_c 28.455907
_cell_angle_alpha 90.000000
_cell_angle_beta 90.000000
_cell_angle_gamma 90.000000
_cell_volume 6847.795137
_symmetry_space_group_name_H-M "I M M A"
_symmetry_group_IT_number 74
_symmetry_cell_setting 'orthorhombic'
loop_
_space_group_symop_operation_xyz
x,y,z
-x,1/2-y,z
x,-y,-z
-x,1/2+y,-z
-x,-y,-z
x,1/2+y,-z
-x,y,z
x,1/2-y,z
1/2+x,1/2+y,1/2+z
1/2-x,-y,1/2+z
1/2+x,1/2-y,1/2-z
1/2-x,y,1/2-z
1/2-x,1/2-y,1/2-z
1/2+x,y,1/2-z
1/2-x,1/2+y,1/2+z
1/2+x,-y,1/2+z
loop_
_atom_site_type_symbol
_atom_site_label
_atom_site_fract_x
_atom_site_fract_y
_atom_site_fract_z
Si Si1 0.555178 0.935037 0.643587
Si Si2 0.144610 0.066883 0.804740
Si Si3 0.611539 0.433645 0.450315
Si Si4 0.297673 0.934775 0.398317
Si Si5 0.305389 0.935272 0.885446
Si Si6 0.298073 0.435171 0.222964
Si Si7 0.393218 0.064292 0.946693
Si Si8 0.000000 0.564665 0.447250
O O1 0.500000 0.980377 0.649956
O O2 0.559198 0.750000 0.649706
O O3 0.573878 0.970344 0.591072
O O4 0.591978 0.017761 0.678246
O O5 0.148189 0.250000 0.800319
O O6 0.181289 0.017790 0.846851
O O7 0.158919 0.987542 0.756415
O O8 0.595993 0.500000 0.500000
O O9 0.616828 0.250000 0.452821
O O10 0.662454 0.507099 0.434940
O O11 0.294783 0.750000 0.399542
O O12 0.245475 0.007298 0.406218
O O13 0.307147 0.750000 0.886679
O O14 0.304094 0.987676 0.830690
O O15 0.350687 0.001117 0.913947
O O16 0.295352 0.250000 0.221714
O O17 0.250000 0.492968 0.250000
O O18 0.390577 0.250000 0.948504
O O19 0.447126 0.019058 0.928014
O O20 0.388396 0.000000 0.000000
O O21 0.000000 0.500000 0.500000
O O22 0.000000 0.750000 0.448567
#
# Coordination Sequence:
#
# PCOD9537357 Si02
#       8
#    16  16  16  16  16  16  16   8
#     4   9  19  36  57  78 103 140 183 225 272 329
#     4  10  20  33  54  81 107 135 174 223 273 321
#     4  10  20  34  52  75 105 140 180 224 273 325
#     4  10  20  34  51  74 104 139 176 216 266 322
#     4  11  22  35  54  82 112 142 180 221 263 313
#     4  10  20  35  56  80 108 144 181 217 262 317
#     4  10  20  36  57  82 111 142 178 217 262 312
#     4   8  16  32  56  80 102 134 172 210 252 304
#
# _framework density 17.523887999999999
#
# number of rings (size 3 to 8) (size 9 to 14) (size 15 to 20)
#    0.000    2.133    1.333    2.000    0.000    4.533 
#    0.000    2.667    1.467    0.000    0.000    0.000 
#    0.000    0.000    0.000    0.000    0.000    0.000 
#
# Total GULP energy -334721.755150 kJ/mol
# GULP energy per Si atom -5578.695919 kJ/mol
# Density = 1.748400 g / cm^3
# Si number density = 17.523888 Si / 1000 Ang^3
#
#
#
# Elastic Constant Matrix: (Units=GPa)
#
#
# Indices 1 2 3 4 5 6 
#
# 1 129.5629 24.4454 29.0683 0.0000 0.0000 0.0000
# 2 24.4454 27.0264 14.7758 0.0000 0.0000 0.0000
# 3 29.0683 14.7758 57.7064 0.0000 0.0000 0.0000
# 4 0.0000 0.0000 0.0000 25.4401 0.0000 0.0000
# 5 0.0000 0.0000 0.0000 0.0000 15.6076 0.0000
# 6 0.0000 0.0000 0.0000 0.0000 0.0000 21.1406
#
#
#
# Elastic Compliance Matrix: (Units=1/GPa)
#
#
# Indices 1 2 3 4 5 6 
#
# 1 0.009758 -0.007138 -0.003088 0.000000 0.000000 0.000000
# 2 -0.007138 0.048245 -0.008758 0.000000 0.000000 0.000000
# 3 -0.003088 -0.008758 0.021127 0.000000 0.000000 0.000000
# 4 0.000000 0.000000 0.000000 0.039308 0.000000 0.000000
# 5 0.000000 0.000000 0.000000 0.000000 0.064072 0.000000
# 6 0.000000 0.000000 0.000000 0.000000 0.000000 0.047302
#
#
# Mechanical properties :
#
#
# Convention : Reuss Voigt Hill
#
# Bulk Modulus (GPa) = 24.29344 38.98607 31.63976
# Shear Modulus (GPa) = 17.76207 22.17140 19.96674
#
# Velocity S-wave (km/s) = 3.18715 3.56084 3.37916
# Velocity P-wave (km/s) = 5.23804 6.26113 5.77230
#
# Compressibility (1/GPa) = 0.04116338
#
# Stress axis : x y z
#
# Youngs Moduli (GPa) = 102.48300 20.72754 47.33325
#
# Poissons Ratio (x) = 0.14795 0.14615
# Poissons Ratio (y) = 0.73151 0.41453
# Poissons Ratio (z) = 0.31642 0.18152
#
# Static dielectric constant tensor:
#      x y z
#    x 1.598700 0.000000 0.000000 
#    y 0.000000 1.587310 0.000000 
#    z 0.000000 0.000000 1.585410 
# 
# From -- ./inp_files/69015.got.cif
#   From: 2010.05.17/outbox.cif.g08.bks.cpg/sg74_35_cif.got.tgz:69015.got - 2010.06.03 17:57:02.
