data_PCOD9537355
_publ_section_title
;
Structure prediction by ZEFSAII (Michael W. Deem and Ramdas Pophale) SiO2 
 PCOD9537355
Probable space group: I M M A
;
_chemical_formula_sum "Si O2"
_cell_formula_units_Z 116
_cell_length_a 29.166776
_cell_length_b 9.612543
_cell_length_c 22.936317
_cell_angle_alpha 90.000000
_cell_angle_beta 90.000000
_cell_angle_gamma 90.000000
_cell_volume 6430.583830
_symmetry_space_group_name_H-M "I M M A"
_symmetry_group_IT_number 74
_symmetry_cell_setting 'orthorhombic'
loop_
_space_group_symop_operation_xyz
x,y,z
-x,1/2-y,z
x,-y,-z
-x,1/2+y,-z
-x,-y,-z
x,1/2+y,-z
-x,y,z
x,1/2-y,z
1/2+x,1/2+y,1/2+z
1/2-x,-y,1/2+z
1/2+x,1/2-y,1/2-z
1/2-x,y,1/2-z
1/2-x,1/2-y,1/2-z
1/2+x,y,1/2-z
1/2-x,1/2+y,1/2+z
1/2+x,-y,1/2+z
loop_
_atom_site_type_symbol
_atom_site_label
_atom_site_fract_x
_atom_site_fract_y
_atom_site_fract_z
Si Si1 0.446109 0.906013 0.707196
Si Si2 0.079378 0.483606 0.670819
Si Si3 0.000000 0.750000 0.339149
Si Si4 0.813406 0.083753 0.060277
Si Si5 0.822171 0.592022 0.276255
Si Si6 0.133161 0.082995 0.844806
Si Si7 0.282929 0.087117 0.126019
Si Si8 0.625656 0.587163 0.942788
O O1 0.500000 0.927179 0.697235
O O2 0.433181 0.750000 0.687603
O O3 0.436175 0.918059 0.776161
O O4 0.415618 0.023313 0.676464
O O5 0.127617 0.418810 0.693260
O O6 0.090988 0.558833 0.610328
O O7 0.040300 0.370244 0.662526
O O8 0.821971 0.250000 0.052678
O O9 0.765189 0.068724 0.094274
O O10 0.850584 0.005475 0.100151
O O11 0.810525 0.000000 0.000000
O O12 0.805949 0.750000 0.279002
O O13 0.832011 0.554279 0.209208
O O14 0.789222 0.495881 0.314117
O O15 0.132117 0.250000 0.853976
O O16 0.289797 0.250000 0.138821
O O17 0.324138 0.045892 0.082126
O O18 0.626551 0.750000 0.957033
O O19 0.614346 0.500000 0.000000
#
# Coordination Sequence:
#
# PCOD9537355 Si02
#       8
#    16  16   4  16  16  16  16  16
#     4  10  20  35  59  86 115 145 182 227 276 332
#     4  10  20  33  54  77 108 143 183 231 284 333
#     4  12  20  32  56  80 106 142 192 232 288 336
#     4  11  23  40  60  83 115 149 189 228 275 330
#     4   9  18  33  54  82 112 143 183 226 278 327
#     4  10  22  37  57  86 119 153 188 227 277 326
#     4   9  20  36  56  83 109 145 185 231 281 334
#     4  10  21  36  55  75 104 140 189 237 286 338
#
# _framework density 18.038796999999999
#
# number of rings (size 3 to 8) (size 9 to 14) (size 15 to 20)
#    0.000    2.069    1.379    1.655    1.931    6.345 
#    0.000    3.103    0.000    0.414    0.000    0.000 
#    0.000    0.000    0.000    0.000    0.000    0.000 
#
# Total GULP energy -323098.098069 kJ/mol
# GULP energy per Si atom -5570.656863 kJ/mol
# Density = 1.799774 g / cm^3
# Si number density = 18.038797 Si / 1000 Ang^3
#
#
#
# Elastic Constant Matrix: (Units=GPa)
#
#
# Indices 1 2 3 4 5 6 
#
# 1 60.3441 38.4960 25.2340 0.0000 0.0000 0.0000
# 2 38.4960 100.4477 56.0298 0.0000 0.0000 0.0000
# 3 25.2340 56.0298 62.5780 0.0000 0.0000 0.0000
# 4 0.0000 0.0000 0.0000 20.2090 0.0000 0.0000
# 5 0.0000 0.0000 0.0000 0.0000 12.1914 0.0000
# 6 0.0000 0.0000 0.0000 0.0000 0.0000 24.9166
#
#
#
# Elastic Compliance Matrix: (Units=1/GPa)
#
#
# Indices 1 2 3 4 5 6 
#
# 1 0.022154 -0.007007 -0.002660 0.000000 0.000000 0.000000
# 2 -0.007007 0.022104 -0.016966 0.000000 0.000000 0.000000
# 3 -0.002660 -0.016966 0.032243 0.000000 0.000000 0.000000
# 4 0.000000 0.000000 0.000000 0.049483 0.000000 0.000000
# 5 0.000000 0.000000 0.000000 0.000000 0.082025 0.000000
# 6 0.000000 0.000000 0.000000 0.000000 0.000000 0.040134
#
#
# Mechanical properties :
#
#
# Convention : Reuss Voigt Hill
#
# Bulk Modulus (GPa) = 43.03582 51.43214 47.23398
# Shear Modulus (GPa) = 16.17320 18.37072 17.27196
#
# Velocity S-wave (km/s) = 2.99754 3.19470 3.09769
# Velocity P-wave (km/s) = 5.99078 6.49477 6.24786
#
# Compressibility (1/GPa) = 0.02323646
#
# Stress axis : x y z
#
# Youngs Moduli (GPa) = 45.13914 45.24014 31.01434
#
# Poissons Ratio (x) = 0.31698 0.08249
# Poissons Ratio (y) = 0.31627 0.52619
# Poissons Ratio (z) = 0.12006 0.76754
#
# Static dielectric constant tensor:
#      x y z
#    x 1.619440 0.000000 0.000000 
#    y 0.000000 1.615590 0.000000 
#    z 0.000000 0.000000 1.610910 
# 
# From -- ./inp_files/62747.got.cif
#   From: 2010.05.17/outbox.cif.g08.bks.cpg/sg74_32_cif.got.tgz:62747.got - 2010.06.03 17:57:02.
