data_PCOD9537806
_publ_section_title
;
Structure prediction by ZEFSAII (Michael W. Deem and Ramdas Pophale) SiO2 
 PCOD9537806
Probable space group: I M M A
;
_chemical_formula_sum "Si O2"
_cell_formula_units_Z 104
_cell_length_a 8.647234
_cell_length_b 29.187487
_cell_length_c 24.627297
_cell_angle_alpha 90.000000
_cell_angle_beta 90.000000
_cell_angle_gamma 90.000000
_cell_volume 6215.708855
_symmetry_space_group_name_H-M "I M M A"
_symmetry_group_IT_number 74
_symmetry_cell_setting 'orthorhombic'
loop_
_space_group_symop_operation_xyz
x,y,z
-x,1/2-y,z
x,-y,-z
-x,1/2+y,-z
-x,-y,-z
x,1/2+y,-z
-x,y,z
x,1/2-y,z
1/2+x,1/2+y,1/2+z
1/2-x,-y,1/2+z
1/2+x,1/2-y,1/2-z
1/2-x,y,1/2-z
1/2-x,1/2-y,1/2-z
1/2+x,y,1/2-z
1/2-x,1/2+y,1/2+z
1/2+x,-y,1/2+z
loop_
_atom_site_type_symbol
_atom_site_label
_atom_site_fract_x
_atom_site_fract_y
_atom_site_fract_z
Si Si1 0.185519 0.978653 0.811355
Si Si2 0.186841 0.697005 0.898919
Si Si3 0.813731 0.622821 0.810939
Si Si4 0.814746 0.250000 0.689095
Si Si5 0.815414 0.426275 0.688460
Si Si6 0.684355 0.695910 0.017492
Si Si7 0.315843 0.161386 0.626831
O O1 0.250000 0.977354 0.750000
O O2 0.226178 0.928128 0.833197
O O3 0.000000 0.983430 0.810736
O O4 0.258986 0.024737 0.835027
O O5 0.227944 0.750000 0.887006
O O6 0.237949 0.662604 0.851626
O O7 0.000000 0.694560 0.903143
O O8 0.258661 0.684598 0.957063
O O9 0.750000 0.628178 0.750000
O O10 0.000000 0.624500 0.807291
O O11 0.500000 0.250000 0.810521
O O12 0.750000 0.250000 0.750000
O O13 0.754611 0.295023 0.658348
O O14 0.750000 0.422078 0.750000
O O15 0.751904 0.384465 0.653272
O O16 0.000000 0.425273 0.691044
O O17 0.500000 0.690491 0.021773
O O18 0.720487 0.750000 0.026301
O O19 0.767216 0.667309 0.064267
O O20 0.500000 0.161874 0.632373
#
# Coordination Sequence:
#
# PCOD9537806 Si02
#       7
#    16  16  16   8  16  16  16
#     4   9  16  29  48  71  99 132 171 210 253 304
#     4   9  18  33  52  75 105 140 176 211 252 305
#     4   9  18  31  50  77 108 140 172 210 254 305
#     4  12  24  38  52  74 106 138 171 212 259 308
#     4  11  21  34  51  74 103 133 169 213 260 307
#     4  10  20  35  54  75 100 131 173 219 258 300
#     4  12  23  36  54  75 100 135 173 211 259 309
#
# _framework density 16.7318
#
# number of rings (size 3 to 8) (size 9 to 14) (size 15 to 20)
#    0.000    1.846    0.769    5.769    0.000    2.154 
#    0.000    0.000    0.000    0.923    0.000    6.462 
#    0.000    0.000    0.000    0.000    0.000    0.000 
#
# Total GULP energy -290171.219281 kJ/mol
# GULP energy per Si atom -5580.215755 kJ/mol
# Density = 1.669372 g / cm^3
# Si number density = 16.731800 Si / 1000 Ang^3
#
#
#
# Elastic Constant Matrix: (Units=GPa)
#
#
# Indices 1 2 3 4 5 6 
#
# 1 100.3489 57.7574 43.9821 0.0000 0.0000 0.0000
# 2 57.7574 148.9635 83.1976 0.0000 0.0000 0.0000
# 3 43.9821 83.1976 97.0818 0.0000 0.0000 0.0000
# 4 0.0000 0.0000 0.0000 2.5963 0.0000 0.0000
# 5 0.0000 0.0000 0.0000 0.0000 25.7637 0.0000
# 6 0.0000 0.0000 0.0000 0.0000 0.0000 20.7260
#
#
#
# Elastic Compliance Matrix: (Units=1/GPa)
#
#
# Indices 1 2 3 4 5 6 
#
# 1 0.013291 -0.003434 -0.003079 0.000000 0.000000 0.000000
# 2 -0.003434 0.013763 -0.010239 0.000000 0.000000 0.000000
# 3 -0.003079 -0.010239 0.020470 0.000000 0.000000 0.000000
# 4 0.000000 0.000000 0.000000 0.385160 0.000000 0.000000
# 5 0.000000 0.000000 0.000000 0.000000 0.038814 0.000000
# 6 0.000000 0.000000 0.000000 0.000000 0.000000 0.048249
#
#
# Mechanical properties :
#
#
# Convention : Reuss Voigt Hill
#
# Bulk Modulus (GPa) = 71.32134 79.58537 75.45336
# Shear Modulus (GPa) = 8.96179 20.58101 14.77140
#
# Velocity S-wave (km/s) = 2.31685 3.51102 2.97448
# Velocity P-wave (km/s) = 7.06228 8.00655 7.54920
#
# Compressibility (1/GPa) = 0.01402105
#
# Stress axis : x y z
#
# Youngs Moduli (GPa) = 75.23911 72.65820 48.85188
#
# Poissons Ratio (x) = 0.24950 0.15040
# Poissons Ratio (y) = 0.25836 0.50020
# Poissons Ratio (z) = 0.23163 0.74395
#
# Static dielectric constant tensor:
#      x y z
#    x 1.561340 0.000000 0.000000 
#    y 0.000000 1.586790 0.000000 
#    z 0.000000 0.000000 1.549410 
# 
# From -- ./inp_files/57623.got.cif
#   From: 2010.05.17/outbox.cif.g08.bks.cpg/sg74_29_cif.got.tgz:57623.got - 2010.06.03 17:57:02.
