data_PCOD9537376
_publ_section_title
;
Structure prediction by ZEFSAII (Michael W. Deem and Ramdas Pophale) SiO2 
 PCOD9537376
Probable space group: I M M A
;
_chemical_formula_sum "Si O2"
_cell_formula_units_Z 112
_cell_length_a 15.260725
_cell_length_b 14.095144
_cell_length_c 25.739169
_cell_angle_alpha 90.000000
_cell_angle_beta 90.000000
_cell_angle_gamma 90.000000
_cell_volume 5536.549727
_symmetry_space_group_name_H-M "I M M A"
_symmetry_group_IT_number 74
_symmetry_cell_setting 'orthorhombic'
loop_
_space_group_symop_operation_xyz
x,y,z
-x,1/2-y,z
x,-y,-z
-x,1/2+y,-z
-x,-y,-z
x,1/2+y,-z
-x,y,z
x,1/2-y,z
1/2+x,1/2+y,1/2+z
1/2-x,-y,1/2+z
1/2+x,1/2-y,1/2-z
1/2-x,y,1/2-z
1/2-x,1/2-y,1/2-z
1/2+x,y,1/2-z
1/2-x,1/2+y,1/2+z
1/2+x,-y,1/2+z
loop_
_atom_site_type_symbol
_atom_site_label
_atom_site_fract_x
_atom_site_fract_y
_atom_site_fract_z
Si Si1 0.605055 0.136721 0.184758
Si Si2 0.218480 0.641476 0.586749
Si Si3 0.404877 0.363184 0.392952
Si Si4 0.898440 0.529009 0.788759
Si Si5 0.271997 0.858441 0.310562
Si Si6 0.596888 0.888218 0.007910
Si Si7 0.097376 0.638665 0.369743
O O1 0.500000 0.127413 0.177843
O O2 0.620601 0.250000 0.194167
O O3 0.655222 0.104439 0.132437
O O4 0.633167 0.074221 0.234418
O O5 0.233587 0.750000 0.602940
O O6 0.315111 0.597350 0.582500
O O7 0.169282 0.644294 0.532264
O O8 0.500000 0.402241 0.410248
O O9 0.408975 0.250000 0.400708
O O10 0.396050 0.388748 0.332171
O O11 0.845842 0.439376 0.811249
O O12 0.000000 0.501347 0.781166
O O13 0.295017 0.750000 0.328657
O O14 0.250000 0.850333 0.250000
O O15 0.184182 0.892657 0.339936
O O16 0.500000 0.851535 0.994194
O O17 0.611851 0.868271 0.068392
O O18 0.594482 0.000000 0.000000
O O19 0.091273 0.750000 0.356322
O O20 0.000000 0.596578 0.358243
#
# Coordination Sequence:
#
# PCOD9537376 Si02
#       7
#    16  16  16  16  16  16  16
#     4   9  18  32  52  84 122 155 189 229 280 346
#     4  10  20  33  55  83 113 153 191 233 282 329
#     4   9  19  35  54  79 111 149 195 237 276 332
#     4  10  21  35  55  79 109 152 189 231 291 343
#     4  10  23  39  57  82 108 141 191 244 285 334
#     4  10  21  34  53  85 119 149 181 224 279 341
#     4   9  19  38  61  81 107 146 186 227 283 344
#
# _framework density 20.229205
#
# number of rings (size 3 to 8) (size 9 to 14) (size 15 to 20)
#    0.000    2.429    0.000    1.286    4.000    4.000 
#    0.000    6.429    0.000    1.286    0.000    2.000 
#    0.000    1.143    0.000    0.000    0.000    0.000 
#
# Total GULP energy -312194.179044 kJ/mol
# GULP energy per Si atom -5574.896054 kJ/mol
# Density = 2.018316 g / cm^3
# Si number density = 20.229205 Si / 1000 Ang^3
#
#
#
# Elastic Constant Matrix: (Units=GPa)
#
#
# Indices 1 2 3 4 5 6 
#
# 1 156.3926 25.4718 75.3976 0.0000 0.0000 0.0000
# 2 25.4718 75.4709 2.4235 0.0000 0.0000 0.0000
# 3 75.3976 2.4235 66.9375 0.0000 0.0000 0.0000
# 4 0.0000 0.0000 0.0000 20.9711 0.0000 0.0000
# 5 0.0000 0.0000 0.0000 0.0000 48.6296 0.0000
# 6 0.0000 0.0000 0.0000 0.0000 0.0000 14.3764
#
#
#
# Elastic Compliance Matrix: (Units=1/GPa)
#
#
# Indices 1 2 3 4 5 6 
#
# 1 0.015479 -0.004670 -0.017266 0.000000 0.000000 0.000000
# 2 -0.004670 0.014674 0.004729 0.000000 0.000000 0.000000
# 3 -0.017266 0.004729 0.034216 0.000000 0.000000 0.000000
# 4 0.000000 0.000000 0.000000 0.047685 0.000000 0.000000
# 5 0.000000 0.000000 0.000000 0.000000 0.020564 0.000000
# 6 0.000000 0.000000 0.000000 0.000000 0.000000 0.069558
#
#
# Mechanical properties :
#
#
# Convention : Reuss Voigt Hill
#
# Bulk Modulus (GPa) = 33.38315 56.15410 44.76862
# Shear Modulus (GPa) = 20.27776 29.82929 25.05352
#
# Velocity S-wave (km/s) = 3.16950 3.84417 3.52303
# Velocity P-wave (km/s) = 5.47107 6.89367 6.22316
#
# Compressibility (1/GPa) = 0.02995523
#
# Stress axis : x y z
#
# Youngs Moduli (GPa) = 64.60458 68.14610 29.22577
#
# Poissons Ratio (x) = 0.31822 0.50461
# Poissons Ratio (y) = 0.30169 -0.13820
# Poissons Ratio (z) = 1.11547 -0.32224
#
# Static dielectric constant tensor:
#      x y z
#    x 1.789800 0.000000 0.000000 
#    y 0.000000 1.734990 0.000000 
#    z 0.000000 0.000000 1.686870 
# 
# From -- ./inp_files/60135.got.cif
#   From: 2010.05.17/outbox.cif.g08.bks.cpg/sg74_31_cif.got.tgz:60135.got - 2010.06.03 17:57:02.
