data_PCOD9537645
_publ_section_title
;
Structure prediction by ZEFSAII (Michael W. Deem and Ramdas Pophale) SiO2 
 PCOD9537645
Probable space group: I M M A
;
_chemical_formula_sum "Si O2"
_cell_formula_units_Z 96
_cell_length_a 7.538229
_cell_length_b 19.239814
_cell_length_c 30.863196
_cell_angle_alpha 90.000000
_cell_angle_beta 90.000000
_cell_angle_gamma 90.000000
_cell_volume 4476.216591
_symmetry_space_group_name_H-M "I M M A"
_symmetry_group_IT_number 74
_symmetry_cell_setting 'orthorhombic'
loop_
_space_group_symop_operation_xyz
x,y,z
-x,1/2-y,z
x,-y,-z
-x,1/2+y,-z
-x,-y,-z
x,1/2+y,-z
-x,y,z
x,1/2-y,z
1/2+x,1/2+y,1/2+z
1/2-x,-y,1/2+z
1/2+x,1/2-y,1/2-z
1/2-x,y,1/2-z
1/2-x,1/2-y,1/2-z
1/2+x,y,1/2-z
1/2-x,1/2+y,1/2+z
1/2+x,-y,1/2+z
loop_
_atom_site_type_symbol
_atom_site_label
_atom_site_fract_x
_atom_site_fract_y
_atom_site_fract_z
Si Si1 0.787502 0.324937 0.699383
Si Si2 0.214664 0.329423 0.941856
Si Si3 0.283362 0.925523 0.520444
Si Si4 0.701772 0.411124 0.382841
Si Si5 0.712990 0.170120 0.298574
Si Si6 0.206148 0.935059 0.365342
O O1 0.719633 0.250000 0.683114
O O2 0.750000 0.328633 0.750000
O O3 0.717442 0.391076 0.674409
O O4 0.000000 0.324743 0.693026
O O5 0.275597 0.250000 0.936786
O O6 0.281897 0.381883 0.905287
O O7 0.000000 0.329496 0.939259
O O8 0.263689 0.364118 0.987542
O O9 0.500000 0.929740 0.522718
O O10 0.217102 0.908965 0.568879
O O11 0.226047 0.000000 0.500000
O O12 0.500000 0.384291 0.387343
O O13 0.779429 0.372289 0.340628
O O14 0.698089 0.493067 0.373206
O O15 0.500000 0.171318 0.301641
O O16 0.778284 0.250000 0.300030
O O17 0.750000 0.142003 0.250000
O O18 0.000000 0.952544 0.357793
#
# Coordination Sequence:
#
# PCOD9537645 Si02
#       6
#    16  16  16  16  16  16
#     4   9  19  35  52  70  95 130 170 213 260 306
#     4  10  20  34  55  81 105 137 182 224 267 321
#     4   9  16  31  54  77 105 137 172 222 275 315
#     4  10  20  35  57  81 108 142 182 224 268 323
#     4   9  19  36  58  83 111 145 183 227 281 335
#     4  11  22  35  52  76 109 143 175 215 267 323
#
# _framework density 21.446684000000001
#
# number of rings (size 3 to 8) (size 9 to 14) (size 15 to 20)
#    0.000    2.333    1.667    1.000    0.000    4.333 
#    0.000   10.000    0.000    0.000    0.000    2.333 
#    0.000    0.000    0.000    0.000    0.000    0.000 
#
# Total GULP energy -267843.371024 kJ/mol
# GULP energy per Si atom -5580.070230 kJ/mol
# Density = 2.139787 g / cm^3
# Si number density = 21.446684 Si / 1000 Ang^3
#
#
#
# Elastic Constant Matrix: (Units=GPa)
#
#
# Indices 1 2 3 4 5 6 
#
# 1 57.6732 -5.7262 -5.4876 0.0000 0.0000 0.0000
# 2 -5.7262 82.6170 50.8611 0.0000 0.0000 0.0000
# 3 -5.4876 50.8611 143.5272 0.0000 0.0000 0.0000
# 4 0.0000 0.0000 0.0000 47.1368 0.0000 0.0000
# 5 0.0000 0.0000 0.0000 0.0000 12.6561 0.0000
# 6 0.0000 0.0000 0.0000 0.0000 0.0000 -4.9617
#
#
#
# Elastic Compliance Matrix: (Units=1/GPa)
#
#
# Indices 1 2 3 4 5 6 
#
# 1 0.017470 0.001023 0.000306 0.000000 0.000000 0.000000
# 2 0.001023 0.015541 -0.005468 0.000000 0.000000 0.000000
# 3 0.000306 -0.005468 0.008917 0.000000 0.000000 0.000000
# 4 0.000000 0.000000 0.000000 0.021215 0.000000 0.000000
# 5 0.000000 0.000000 0.000000 0.000000 0.079013 0.000000
# 6 0.000000 0.000000 0.000000 0.000000 0.000000 -0.201544
#
#
# Mechanical properties :
#
#
# Convention : Reuss Voigt Hill
#
# Bulk Modulus (GPa) = 29.71958 40.34578 35.03268
# Shear Modulus (GPa) = -125.33771 27.24426 -49.04672
#
# Velocity S-wave (km/s) = -7.65300 3.56803 -4.78736
# Velocity P-wave (km/s) = 8.01272 5.98560 3.76672
#
# Compressibility (1/GPa) = 0.03364786
#
# Stress axis : x y z
#
# Youngs Moduli (GPa) = 57.24198 64.34473 112.14861
#
# Poissons Ratio (x) = -0.06581 -0.03426
# Poissons Ratio (y) = -0.05854 0.61325
# Poissons Ratio (z) = -0.01749 0.35185
#
# Static dielectric constant tensor:
#      x y z
#    x 1.843740 0.000000 0.000000 
#    y 0.000000 1.750400 0.000000 
#    z 0.000000 0.000000 1.789710 
# 
# From -- ./inp_files/60806.got.cif
#   From: 2010.05.17/outbox.cif.g08.bks.cpg/sg74_31_cif.got.tgz:60806.got - 2010.06.03 17:57:02.
