data_PCOD9537699
_publ_section_title
;
Structure prediction by ZEFSAII (Michael W. Deem and Ramdas Pophale) SiO2 
 PCOD9537699
Probable space group: I M M A
;
_chemical_formula_sum "Si O2"
_cell_formula_units_Z 96
_cell_length_a 20.578470
_cell_length_b 10.329980
_cell_length_c 20.965757
_cell_angle_alpha 90.000000
_cell_angle_beta 90.000000
_cell_angle_gamma 90.000000
_cell_volume 4456.799642
_symmetry_space_group_name_H-M "I M M A"
_symmetry_group_IT_number 74
_symmetry_cell_setting 'orthorhombic'
loop_
_space_group_symop_operation_xyz
x,y,z
-x,1/2-y,z
x,-y,-z
-x,1/2+y,-z
-x,-y,-z
x,1/2+y,-z
-x,y,z
x,1/2-y,z
1/2+x,1/2+y,1/2+z
1/2-x,-y,1/2+z
1/2+x,1/2-y,1/2-z
1/2-x,y,1/2-z
1/2-x,1/2-y,1/2-z
1/2+x,y,1/2-z
1/2-x,1/2+y,1/2+z
1/2+x,-y,1/2+z
loop_
_atom_site_type_symbol
_atom_site_label
_atom_site_fract_x
_atom_site_fract_y
_atom_site_fract_z
Si Si1 0.285863 0.607608 0.047509
Si Si2 0.069844 0.393978 0.590703
Si Si3 0.398681 0.607380 0.809154
Si Si4 0.112324 0.895536 0.838084
Si Si5 0.077784 0.099156 0.945045
Si Si6 0.745143 0.511219 0.820627
O O1 0.268480 0.750000 0.025018
O O2 0.364453 0.596050 0.050293
O O3 0.262283 0.584153 0.119604
O O4 0.260058 0.500000 0.000000
O O5 0.073252 0.250000 0.619665
O O6 0.072604 0.498687 0.646017
O O7 0.000000 0.403087 0.556804
O O8 0.419431 0.750000 0.829162
O O9 0.413149 0.591047 0.734344
O O10 0.320702 0.594363 0.818117
O O11 0.094360 0.750000 0.861716
O O12 0.090795 0.016374 0.880971
O O13 0.190408 0.905903 0.832254
O O14 0.102144 0.250000 0.945461
O O15 0.000000 0.108756 0.953106
O O16 0.102430 0.000000 0.000000
O O17 0.750000 0.448974 0.750000
#
# Coordination Sequence:
#
# PCOD9537699 Si02
#       6
#    16  16  16  16  16  16
#     4  10  22  38  57  83 114 149 188 234 287 337
#     4   9  19  36  55  76 107 147 189 231 275 325
#     4   9  18  33  54  82 113 143 180 227 276 326
#     4  10  20  34  56  84 111 141 178 222 273 331
#     4  10  22  40  59  78 104 140 181 226 277 332
#     4   9  19  37  60  84 113 150 191 233 278 330
#
# _framework density 21.540120000000002
#
# number of rings (size 3 to 8) (size 9 to 14) (size 15 to 20)
#    0.000    2.500    0.000    1.000    0.000   10.000 
#    0.000    6.667    0.000    0.000    0.000    0.000 
#    0.000    0.000    0.000    0.000    0.000    0.000 
#
# Total GULP energy -267739.355738 kJ/mol
# GULP energy per Si atom -5577.903245 kJ/mol
# Density = 2.149109 g / cm^3
# Si number density = 21.540120 Si / 1000 Ang^3
#
#
#
# Elastic Constant Matrix: (Units=GPa)
#
#
# Indices 1 2 3 4 5 6 
#
# 1 63.7620 11.6748 -5.7854 0.0000 0.0000 0.0000
# 2 11.6748 214.3602 89.6133 0.0000 0.0000 0.0000
# 3 -5.7854 89.6133 70.1499 0.0000 0.0000 0.0000
# 4 0.0000 0.0000 0.0000 31.5055 0.0000 0.0000
# 5 0.0000 0.0000 0.0000 0.0000 -5.5388 0.0000
# 6 0.0000 0.0000 0.0000 0.0000 0.0000 4.0405
#
#
#
# Elastic Compliance Matrix: (Units=1/GPa)
#
#
# Indices 1 2 3 4 5 6 
#
# 1 0.016766 -0.003200 0.005471 0.000000 0.000000 0.000000
# 2 -0.003200 0.010623 -0.013834 0.000000 0.000000 0.000000
# 3 0.005471 -0.013834 0.032378 0.000000 0.000000 0.000000
# 4 0.000000 0.000000 0.000000 0.031740 0.000000 0.000000
# 5 0.000000 0.000000 0.000000 0.000000 -0.180546 0.000000
# 6 0.000000 0.000000 0.000000 0.000000 0.000000 0.247492
#
#
# Mechanical properties :
#
#
# Convention : Reuss Voigt Hill
#
# Bulk Modulus (GPa) = 27.29242 59.91974 43.60608
# Shear Modulus (GPa) = 25.80067 22.85275 24.32671
#
# Velocity S-wave (km/s) = 3.46467 3.26074 3.36425
# Velocity P-wave (km/s) = 5.35755 6.48496 5.94802
#
# Compressibility (1/GPa) = 0.03664021
#
# Stress axis : x y z
#
# Youngs Moduli (GPa) = 59.64580 94.13960 30.88489
#
# Poissons Ratio (x) = 0.30126 -0.16896
# Poissons Ratio (y) = 0.19088 0.42725
# Poissons Ratio (z) = -0.32631 1.30230
#
# Static dielectric constant tensor:
#      x y z
#    x 1.823420 0.000000 0.000000 
#    y 0.000000 1.760360 0.000000 
#    z 0.000000 0.000000 1.770550 
# 
# From -- ./inp_files/55104.got.cif
#   From: 2010.05.17/outbox.cif.g08.bks.cpg/sg74_28_cif.got.tgz:55104.got - 2010.06.03 17:57:02.
