data_PCOD9537393
_publ_section_title
;
Structure prediction by ZEFSAII (Michael W. Deem and Ramdas Pophale) SiO2 
 PCOD9537393
Probable space group: I M M A
;
_chemical_formula_sum "Si O2"
_cell_formula_units_Z 88
_cell_length_a 8.948746
_cell_length_b 20.437991
_cell_length_c 30.813523
_cell_angle_alpha 90.000000
_cell_angle_beta 90.000000
_cell_angle_gamma 90.000000
_cell_volume 5635.620499
_symmetry_space_group_name_H-M "I M M A"
_symmetry_group_IT_number 74
_symmetry_cell_setting 'orthorhombic'
loop_
_space_group_symop_operation_xyz
x,y,z
-x,1/2-y,z
x,-y,-z
-x,1/2+y,-z
-x,-y,-z
x,1/2+y,-z
-x,y,z
x,1/2-y,z
1/2+x,1/2+y,1/2+z
1/2-x,-y,1/2+z
1/2+x,1/2-y,1/2-z
1/2-x,y,1/2-z
1/2-x,1/2-y,1/2-z
1/2+x,y,1/2-z
1/2-x,1/2+y,1/2+z
1/2+x,-y,1/2+z
loop_
_atom_site_type_symbol
_atom_site_label
_atom_site_fract_x
_atom_site_fract_y
_atom_site_fract_z
Si Si1 0.825377 0.322508 0.476573
Si Si2 0.819882 0.541083 0.957370
Si Si3 0.320687 0.750000 0.202244
Si Si4 0.322825 0.948725 0.379065
Si Si5 0.326721 0.824306 0.081343
Si Si6 0.678815 0.396008 0.797665
O O1 0.769964 0.250000 0.463452
O O2 0.738947 0.385253 0.459386
O O3 0.819910 0.324786 0.529057
O O4 0.000000 0.327204 0.464501
O O5 0.773475 0.503821 0.913457
O O6 0.000000 0.541404 0.958593
O O7 0.768562 0.500000 0.000000
O O8 0.500000 0.750000 0.204592
O O9 0.250000 0.750000 0.250000
O O10 0.280037 0.822227 0.185230
O O11 0.500000 0.953706 0.372716
O O12 0.281121 0.880047 0.401716
O O13 0.241098 0.946530 0.332852
O O14 0.500000 0.838140 0.094113
O O15 0.292731 0.750000 0.095610
O O16 0.500000 0.399782 0.794423
O O17 0.750000 0.403842 0.750000
#
# Coordination Sequence:
#
# PCOD9537393 Si02
#       6
#    16  16   8  16  16  16
#     4   9  18  32  50  71  94 124 164 206 245 287
#     4  10  20  34  48  68 100 132 164 201 240 286
#     4   8  16  30  48  66  86 116 152 196 242 284
#     4  11  22  33  47  69  95 127 165 203 244 288
#     4   9  18  31  45  64  92 125 163 204 244 287
#     4  10  20  35  51  68  92 122 159 202 248 291
#
# _framework density 15.614962
#
# number of rings (size 3 to 8) (size 9 to 14) (size 15 to 20)
#    0.000    2.364    1.818    2.182    1.273    3.273 
#    0.000    1.818    0.000    0.000    0.000    0.000 
#    0.000    0.727    0.000    2.364    0.000    3.455 
#
# Total GULP energy -245295.644391 kJ/mol
# GULP energy per Si atom -5574.901009 kJ/mol
# Density = 1.557942 g / cm^3
# Si number density = 15.614962 Si / 1000 Ang^3
#
#
#
# Elastic Constant Matrix: (Units=GPa)
#
#
# Indices 1 2 3 4 5 6 
#
# 1 27.3580 28.6570 34.3632 0.0000 0.0000 0.0000
# 2 28.6570 100.3638 55.1963 0.0000 0.0000 0.0000
# 3 34.3632 55.1963 91.2956 0.0000 0.0000 0.0000
# 4 0.0000 0.0000 0.0000 30.3986 0.0000 0.0000
# 5 0.0000 0.0000 0.0000 0.0000 23.6938 0.0000
# 6 0.0000 0.0000 0.0000 0.0000 0.0000 14.8008
#
#
#
# Elastic Compliance Matrix: (Units=1/GPa)
#
#
# Indices 1 2 3 4 5 6 
#
# 1 0.074092 -0.008717 -0.022618 0.000000 0.000000 0.000000
# 2 -0.008717 0.015952 -0.006364 0.000000 0.000000 0.000000
# 3 -0.022618 -0.006364 0.023314 0.000000 0.000000 0.000000
# 4 0.000000 0.000000 0.000000 0.032896 0.000000 0.000000
# 5 0.000000 0.000000 0.000000 0.000000 0.042205 0.000000
# 6 0.000000 0.000000 0.000000 0.000000 0.000000 0.067564
#
#
# Mechanical properties :
#
#
# Convention : Reuss Voigt Hill
#
# Bulk Modulus (GPa) = 26.34200 50.60559 38.47380
# Shear Modulus (GPa) = 14.53170 20.49871 17.51520
#
# Velocity S-wave (km/s) = 3.05393 3.62713 3.35280
# Velocity P-wave (km/s) = 5.41679 7.07250 6.29928
#
# Compressibility (1/GPa) = 0.03796219
#
# Stress axis : x y z
#
# Youngs Moduli (GPa) = 13.49665 62.68623 42.89233
#
# Poissons Ratio (x) = 0.54642 0.97014
# Poissons Ratio (y) = 0.11765 0.27296
# Poissons Ratio (z) = 0.30527 0.39892
#
# Static dielectric constant tensor:
#      x y z
#    x 1.526480 0.000000 0.000000 
#    y 0.000000 1.518810 0.000000 
#    z 0.000000 0.000000 1.540440 
# 
# From -- ./inp_files/70296.got.cif
#   From: 2010.05.17/outbox.cif.g08.bks.cpg/sg74_36_cif.got.tgz:70296.got - 2010.06.03 17:57:02.
