data_PCOD9537714
_publ_section_title
;
Structure prediction by ZEFSAII (Michael W. Deem and Ramdas Pophale) SiO2 
 PCOD9537714
Probable space group: I M M A
;
_chemical_formula_sum "Si O2"
_cell_formula_units_Z 84
_cell_length_a 20.349435
_cell_length_b 10.082370
_cell_length_c 22.417730
_cell_angle_alpha 90.000000
_cell_angle_beta 90.000000
_cell_angle_gamma 90.000000
_cell_volume 4599.457612
_symmetry_space_group_name_H-M "I M M A"
_symmetry_group_IT_number 74
_symmetry_cell_setting 'orthorhombic'
loop_
_space_group_symop_operation_xyz
x,y,z
-x,1/2-y,z
x,-y,-z
-x,1/2+y,-z
-x,-y,-z
x,1/2+y,-z
-x,y,z
x,1/2-y,z
1/2+x,1/2+y,1/2+z
1/2-x,-y,1/2+z
1/2+x,1/2-y,1/2-z
1/2-x,y,1/2-z
1/2-x,1/2-y,1/2-z
1/2+x,y,1/2-z
1/2-x,1/2+y,1/2+z
1/2+x,-y,1/2+z
loop_
_atom_site_type_symbol
_atom_site_label
_atom_site_fract_x
_atom_site_fract_y
_atom_site_fract_z
Si Si1 0.576965 0.750000 0.139640
Si Si2 0.750000 0.750000 0.250000
Si Si3 0.277985 0.250000 0.086922
Si Si4 0.822393 0.750000 0.717854
Si Si5 0.198329 0.250000 0.552760
Si Si6 0.126714 0.547114 0.263490
Si Si7 0.070479 0.092897 0.862710
Si Si8 0.799184 0.486853 0.930402
O O1 0.500000 0.750000 0.123916
O O2 0.628379 0.750000 0.084854
O O3 0.594329 0.880785 0.179166
O O4 0.807548 0.866270 0.251902
O O5 0.321426 0.250000 0.145598
O O6 0.233084 0.378826 0.091224
O O7 0.307312 0.250000 0.019463
O O8 0.750000 0.750000 0.750000
O O9 0.856355 0.609044 0.733313
O O10 0.243154 0.126006 0.573528
O O11 0.079551 0.568922 0.207247
O O12 0.070247 0.250000 0.873137
O O13 0.135127 0.040892 0.894800
O O14 0.000000 0.037877 0.883267
O O15 0.815649 0.500000 0.000000
#
# Coordination Sequence:
#
# PCOD9537714 Si02
#       8
#     8   4   8   8   8  16  16  16
#     4  11  23  40  64  90 121 160 211 261 306 370
#     4  10  20  34  56  88 112 158 196 254 300 354
#     4  10  22  37  58  89 125 150 190 256 306 355
#     4  12  22  36  59  95 129 155 194 250 316 375
#     4  10  21  38  64  87 117 156 202 253 300 350
#     4  11  23  35  60  91 126 156 201 257 313 364
#     4  11  22  38  61  86 123 160 200 247 296 357
#     4  10  21  38  61  89 118 153 201 244 294 353
#
# _framework density 18.263023
#
# number of rings (size 3 to 8) (size 9 to 14) (size 15 to 20)
#    0.000    1.333    3.810    2.857    5.333    0.381 
#    0.000    3.333    0.000   15.429    0.000    0.000 
#    0.000    0.000    0.000    0.000    0.000    0.000 
#
# Total GULP energy -233829.648058 kJ/mol
# GULP energy per Si atom -5567.372573 kJ/mol
# Density = 1.822146 g / cm^3
# Si number density = 18.263023 Si / 1000 Ang^3
#
#
#
# Elastic Constant Matrix: (Units=GPa)
#
#
# Indices 1 2 3 4 5 6 
#
# 1 137.8820 33.2476 49.4033 0.0000 0.0000 0.0000
# 2 33.2476 129.5414 13.8008 0.0000 0.0000 0.0000
# 3 49.4033 13.8008 33.9244 0.0000 0.0000 0.0000
# 4 0.0000 0.0000 0.0000 36.1783 0.0000 0.0000
# 5 0.0000 0.0000 0.0000 0.0000 4.5914 0.0000
# 6 0.0000 0.0000 0.0000 0.0000 0.0000 15.6692
#
#
#
# Elastic Compliance Matrix: (Units=1/GPa)
#
#
# Indices 1 2 3 4 5 6 
#
# 1 0.015494 -0.001644 -0.021894 0.000000 0.000000 0.000000
# 2 -0.001644 0.008244 -0.000959 0.000000 0.000000 0.000000
# 3 -0.021894 -0.000959 0.061752 0.000000 0.000000 0.000000
# 4 0.000000 0.000000 0.000000 0.027641 0.000000 0.000000
# 5 0.000000 0.000000 0.000000 0.000000 0.217800 0.000000
# 6 0.000000 0.000000 0.000000 0.000000 0.000000 0.063819
#
#
# Mechanical properties :
#
#
# Convention : Reuss Voigt Hill
#
# Bulk Modulus (GPa) = 27.40204 54.91680 41.15942
# Shear Modulus (GPa) = 10.96707 24.94752 17.95729
#
# Velocity S-wave (km/s) = 2.45318 3.69997 3.13910
# Velocity P-wave (km/s) = 4.80217 6.95617 5.97700
#
# Compressibility (1/GPa) = 0.03649364
#
# Stress axis : x y z
#
# Youngs Moduli (GPa) = 64.54180 121.30460 16.19380
#
# Poissons Ratio (x) = 0.19943 0.35455
# Poissons Ratio (y) = 0.10611 0.01554
# Poissons Ratio (z) = 1.41311 0.11638
#
# Static dielectric constant tensor:
#      x y z
#    x 1.743530 0.000000 0.000000 
#    y 0.000000 1.612250 0.000000 
#    z 0.000000 0.000000 1.687830 
# 
# From -- ./inp_files/61400.got.cif
#   From: 2010.05.17/outbox.cif.g08.bks.cpg/sg74_31_cif.got.tgz:61400.got - 2010.06.03 17:57:02.
