data_PCOD9537439
_publ_section_title
;
Structure prediction by ZEFSAII (Michael W. Deem and Ramdas Pophale) SiO2 
 PCOD9537439
Probable space group: I M M A
;
_chemical_formula_sum "Si O2"
_cell_formula_units_Z 112
_cell_length_a 23.710926
_cell_length_b 27.468229
_cell_length_c 10.372838
_cell_angle_alpha 90.000000
_cell_angle_beta 90.000000
_cell_angle_gamma 90.000000
_cell_volume 6755.799777
_symmetry_space_group_name_H-M "I M M A"
_symmetry_group_IT_number 74
_symmetry_cell_setting 'orthorhombic'
loop_
_space_group_symop_operation_xyz
x,y,z
-x,1/2-y,z
x,-y,-z
-x,1/2+y,-z
-x,-y,-z
x,1/2+y,-z
-x,y,z
x,1/2-y,z
1/2+x,1/2+y,1/2+z
1/2-x,-y,1/2+z
1/2+x,1/2-y,1/2-z
1/2-x,y,1/2-z
1/2-x,1/2-y,1/2-z
1/2+x,y,1/2-z
1/2-x,1/2+y,1/2+z
1/2+x,-y,1/2+z
loop_
_atom_site_type_symbol
_atom_site_label
_atom_site_fract_x
_atom_site_fract_y
_atom_site_fract_z
Si Si1 0.228929 0.407800 0.440758
Si Si2 0.148976 0.463346 0.619498
Si Si3 0.063343 0.557367 0.967079
Si Si4 0.847311 0.804837 0.252827
Si Si5 0.247876 0.304996 0.962697
Si Si6 0.330554 0.948956 0.700632
Si Si7 0.933504 0.392839 0.755307
O O1 0.197899 0.427158 0.568900
O O2 0.248252 0.352195 0.448606
O O3 0.281933 0.441882 0.405332
O O4 0.186544 0.415451 0.321527
O O5 0.138114 0.500000 0.500000
O O6 0.167086 0.496858 0.740061
O O7 0.094766 0.432648 0.661346
O O8 0.110768 0.566134 0.861602
O O9 0.000000 0.567786 0.920397
O O10 0.066400 0.500000 0.000000
O O11 0.072726 0.586875 0.098844
O O12 0.870537 0.750000 0.249934
O O13 0.806908 0.811001 0.128360
O O14 0.803345 0.807681 0.371592
O O15 0.895998 0.844550 0.258375
O O16 0.246113 0.250000 0.018161
O O17 0.000000 0.386072 0.730592
#
# Coordination Sequence:
#
# PCOD9537439 Si02
#       7
#    16  16  16  16  16  16  16
#     4  10  20  36  51  79 110 134 174 218 263 320
#     4  10  21  37  48  75 110 144 175 213 260 315
#     4  10  20  34  52  72  99 138 182 217 248 302
#     4   9  18  33  53  81 108 135 168 215 274 321
#     4   9  17  33  57  78 105 139 169 213 272 322
#     4  10  21  35  50  72 107 144 175 211 260 305
#     4  11  21  35  56  79 104 142 180 218 262 305
#
# _framework density 16.578347000000001
#
# number of rings (size 3 to 8) (size 9 to 14) (size 15 to 20)
#    0.000    2.143    2.857    1.714    0.000    3.429 
#   12.857    3.571    0.000    0.857    0.000    0.000 
#    0.000    0.000    0.000    0.000    0.000    0.000 
#
# Total GULP energy -312233.706731 kJ/mol
# GULP energy per Si atom -5575.601906 kJ/mol
# Density = 1.654061 g / cm^3
# Si number density = 16.578347 Si / 1000 Ang^3
#
#
#
# Elastic Constant Matrix: (Units=GPa)
#
#
# Indices 1 2 3 4 5 6 
#
# 1 111.6434 56.9481 39.9688 0.0000 0.0000 0.0000
# 2 56.9481 116.1420 21.3960 0.0000 0.0000 0.0000
# 3 39.9688 21.3960 32.7945 0.0000 0.0000 0.0000
# 4 0.0000 0.0000 0.0000 21.0841 0.0000 0.0000
# 5 0.0000 0.0000 0.0000 0.0000 27.2914 0.0000
# 6 0.0000 0.0000 0.0000 0.0000 0.0000 23.4526
#
#
#
# Elastic Compliance Matrix: (Units=1/GPa)
#
#
# Indices 1 2 3 4 5 6 
#
# 1 0.018655 -0.005636 -0.019059 0.000000 0.000000 0.000000
# 2 -0.005636 0.011489 -0.000627 0.000000 0.000000 0.000000
# 3 -0.019059 -0.000627 0.054131 0.000000 0.000000 0.000000
# 4 0.000000 0.000000 0.000000 0.047429 0.000000 0.000000
# 5 0.000000 0.000000 0.000000 0.000000 0.036642 0.000000
# 6 0.000000 0.000000 0.000000 0.000000 0.000000 0.042639
#
#
# Mechanical properties :
#
#
# Convention : Reuss Voigt Hill
#
# Bulk Modulus (GPa) = 29.73463 55.24509 42.48986
# Shear Modulus (GPa) = 18.32578 23.85008 21.08793
#
# Velocity S-wave (km/s) = 3.32837 3.79704 3.57040
# Velocity P-wave (km/s) = 5.72237 7.25392 6.53318
#
# Compressibility (1/GPa) = 0.03363082
#
# Stress axis : x y z
#
# Youngs Moduli (GPa) = 53.60401 87.03838 18.47382
#
# Poissons Ratio (x) = 0.49056 0.35210
# Poissons Ratio (y) = 0.30212 0.01158
# Poissons Ratio (z) = 1.02165 0.05455
#
# Static dielectric constant tensor:
#      x y z
#    x 1.551530 0.000000 0.000000 
#    y 0.000000 1.567310 0.000000 
#    z 0.000000 0.000000 1.568910 
# 
# From -- ./inp_files/24348.got.cif
#   From: 2010.05.17/outbox.cif.g08.bks.cpg/sg74_13_cif.got.tgz:24348.got - 2010.06.03 17:57:02.
