data_PCOD9537551
_publ_section_title
;
Structure prediction by ZEFSAII (Michael W. Deem and Ramdas Pophale) SiO2 
 PCOD9537551
Probable space group: I M M A
;
_chemical_formula_sum "Si O2"
_cell_formula_units_Z 64
_cell_length_a 8.259072
_cell_length_b 19.349725
_cell_length_c 17.371588
_cell_angle_alpha 90.000000
_cell_angle_beta 90.000000
_cell_angle_gamma 90.000000
_cell_volume 2776.166888
_symmetry_space_group_name_H-M "I M M A"
_symmetry_group_IT_number 74
_symmetry_cell_setting 'orthorhombic'
loop_
_space_group_symop_operation_xyz
x,y,z
-x,1/2-y,z
x,-y,-z
-x,1/2+y,-z
-x,-y,-z
x,1/2+y,-z
-x,y,z
x,1/2-y,z
1/2+x,1/2+y,1/2+z
1/2-x,-y,1/2+z
1/2+x,1/2-y,1/2-z
1/2-x,y,1/2-z
1/2-x,1/2-y,1/2-z
1/2+x,y,1/2-z
1/2-x,1/2+y,1/2+z
1/2+x,-y,1/2+z
loop_
_atom_site_type_symbol
_atom_site_label
_atom_site_fract_x
_atom_site_fract_y
_atom_site_fract_z
Si Si1 0.192370 0.171001 0.087078
Si Si2 0.182244 0.923038 0.450740
Si Si3 0.685414 0.326517 0.664609
Si Si4 0.805632 0.462608 0.164796
O O1 0.258444 0.250000 0.085051
O O2 0.252547 0.116778 0.151957
O O3 0.000000 0.177350 0.097124
O O4 0.219836 0.125123 0.010287
O O5 0.189474 0.874811 0.376574
O O6 0.000000 0.929926 0.479249
O O7 0.247368 0.993800 0.411106
O O8 0.500000 0.353280 0.661530
O O9 0.683428 0.250000 0.629260
O O10 0.750000 0.320648 0.750000
O O11 0.750000 0.487213 0.250000
O O12 0.000000 0.465202 0.163553
#
# Coordination Sequence:
#
# PCOD9537551 Si02
#       4
#    16  16  16  16
#     4  10  23  44  68  94 126 166 210 257 314 377
#     4  12  24  38  60  91 126 162 205 257 310 367
#     4  10  20  34  53  79 115 159 205 253 307 369
#     4  11  24  43  67  94 127 167 210 259 314 373
#
# _framework density 23.053369
#
# number of rings (size 3 to 8) (size 9 to 14) (size 15 to 20)
#    0.000    1.250    0.000    6.000    0.000   10.500 
#    0.000    0.000    0.000    0.000    0.000    0.000 
#    0.000    0.000    0.000    0.000    0.000    0.000 
#
# Total GULP energy -178404.213273 kJ/mol
# GULP energy per Si atom -5575.131665 kJ/mol
# Density = 2.300090 g / cm^3
# Si number density = 23.053369 Si / 1000 Ang^3
#
#
#
# Elastic Constant Matrix: (Units=GPa)
#
#
# Indices 1 2 3 4 5 6 
#
# 1 65.5389 2.5499 -22.3449 0.0000 0.0000 0.0000
# 2 2.5499 135.2464 14.3904 0.0000 0.0000 0.0000
# 3 -22.3449 14.3904 40.0157 0.0000 0.0000 0.0000
# 4 0.0000 0.0000 0.0000 6.9850 0.0000 0.0000
# 5 0.0000 0.0000 0.0000 0.0000 27.0191 0.0000
# 6 0.0000 0.0000 0.0000 0.0000 0.0000 -8.9972
#
#
#
# Elastic Compliance Matrix: (Units=1/GPa)
#
#
# Indices 1 2 3 4 5 6 
#
# 1 0.019157 -0.001559 0.011258 0.000000 0.000000 0.000000
# 2 -0.001559 0.007815 -0.003681 0.000000 0.000000 0.000000
# 3 0.011258 -0.003681 0.032600 0.000000 0.000000 0.000000
# 4 0.000000 0.000000 0.000000 0.143163 0.000000 0.000000
# 5 0.000000 0.000000 0.000000 0.000000 0.037011 0.000000
# 6 0.000000 0.000000 0.000000 0.000000 0.000000 -0.111146
#
#
# Mechanical properties :
#
#
# Convention : Reuss Voigt Hill
#
# Bulk Modulus (GPa) = 13.96480 25.55463 19.75971
# Shear Modulus (GPa) = 35.60377 21.41510 28.50943
#
# Velocity S-wave (km/s) = 3.93416 3.05115 3.52045
# Velocity P-wave (km/s) = 5.16793 4.84992 5.01145
#
# Compressibility (1/GPa) = 0.07160860
#
# Stress axis : x y z
#
# Youngs Moduli (GPa) = 52.19997 127.95961 30.67439
#
# Poissons Ratio (x) = 0.19949 -0.34533
# Poissons Ratio (y) = 0.08138 0.11291
# Poissons Ratio (z) = -0.58767 0.47102
#
# Static dielectric constant tensor:
#      x y z
#    x 1.859470 0.000000 0.000000 
#    y 0.000000 1.973470 0.000000 
#    z 0.000000 0.000000 2.127490 
# 
# From -- ./inp_files/39059.got.cif
#   From: 2010.05.17/outbox.cif.g08.bks.cpg/sg74_20_cif.got.tgz:39059.got - 2010.06.03 17:57:02.
