data_PCOD9537258
_publ_section_title
;
Structure prediction by ZEFSAII (Michael W. Deem and Ramdas Pophale) SiO2 
 PCOD9537258
Probable space group: I M M A
;
_chemical_formula_sum "Si O2"
_cell_formula_units_Z 80
_cell_length_a 7.546944
_cell_length_b 13.207244
_cell_length_c 36.419179
_cell_angle_alpha 90.000000
_cell_angle_beta 90.000000
_cell_angle_gamma 90.000000
_cell_volume 3630.057297
_symmetry_space_group_name_H-M "I M M A"
_symmetry_group_IT_number 74
_symmetry_cell_setting 'orthorhombic'
loop_
_space_group_symop_operation_xyz
x,y,z
-x,1/2-y,z
x,-y,-z
-x,1/2+y,-z
-x,-y,-z
x,1/2+y,-z
-x,y,z
x,1/2-y,z
1/2+x,1/2+y,1/2+z
1/2-x,-y,1/2+z
1/2+x,1/2-y,1/2-z
1/2-x,y,1/2-z
1/2-x,1/2-y,1/2-z
1/2+x,y,1/2-z
1/2-x,1/2+y,1/2+z
1/2+x,-y,1/2+z
loop_
_atom_site_type_symbol
_atom_site_label
_atom_site_fract_x
_atom_site_fract_y
_atom_site_fract_z
Si Si1 0.287826 0.750000 0.070658
Si Si2 0.286287 0.250000 0.656783
Si Si3 0.783932 0.861721 0.819503
Si Si4 0.787898 0.072823 0.791019
Si Si5 0.286322 0.362781 0.404938
Si Si6 0.790902 0.460197 0.538489
O O1 0.500000 0.750000 0.065846
O O2 0.257108 0.750000 0.114156
O O3 0.216654 0.853373 0.052720
O O4 0.500000 0.250000 0.659519
O O5 0.220914 0.349216 0.678405
O O6 0.723993 0.750000 0.807337
O O7 0.733880 0.875735 0.862341
O O8 0.000000 0.860429 0.818387
O O9 0.720048 0.958754 0.797143
O O10 0.750000 0.108917 0.750000
O O11 0.000000 0.068535 0.795158
O O12 0.500000 0.363240 0.405470
O O13 0.227419 0.250000 0.416956
O O14 0.226385 0.453052 0.430857
O O15 0.714811 0.500000 0.500000
O O16 0.000000 0.443231 0.532477
#
# Coordination Sequence:
#
# PCOD9537258 Si02
#       6
#     8   8  16  16  16  16
#     4  10  22  39  57  82 109 140 184 226 265 315
#     4  10  21  37  57  78 102 138 180 218 266 321
#     4   8  15  30  51  73 100 135 172 211 259 313
#     4  10  20  33  51  76 105 137 174 214 262 316
#     4   9  18  34  57  82 106 137 181 228 269 314
#     4  10  22  37  55  78 109 145 177 214 267 328
#
# _framework density 22.038222000000001
#
# number of rings (size 3 to 8) (size 9 to 14) (size 15 to 20)
#    0.000    2.600    0.000    2.700    1.400    4.400 
#    0.000    1.000    0.000    1.200    0.000    0.000 
#    0.000    0.000    0.000    0.000    0.000    0.000 
#
# Total GULP energy -223412.276738 kJ/mol
# GULP energy per Si atom -5585.306918 kJ/mol
# Density = 2.198806 g / cm^3
# Si number density = 22.038222 Si / 1000 Ang^3
#
#
#
# Elastic Constant Matrix: (Units=GPa)
#
#
# Indices 1 2 3 4 5 6 
#
# 1 50.5635 9.8542 1.5861 0.0000 0.0000 0.0000
# 2 9.8542 177.1199 81.1495 0.0000 0.0000 0.0000
# 3 1.5861 81.1495 105.8737 0.0000 0.0000 0.0000
# 4 0.0000 0.0000 0.0000 -34.3455 0.0000 0.0000
# 5 0.0000 0.0000 0.0000 0.0000 23.8707 0.0000
# 6 0.0000 0.0000 0.0000 0.0000 0.0000 13.0863
#
#
#
# Elastic Compliance Matrix: (Units=1/GPa)
#
#
# Indices 1 2 3 4 5 6 
#
# 1 0.020044 -0.001507 0.000855 0.000000 0.000000 0.000000
# 2 -0.001507 0.008815 -0.006734 0.000000 0.000000 0.000000
# 3 0.000855 -0.006734 0.014594 0.000000 0.000000 0.000000
# 4 0.000000 0.000000 0.000000 -0.029116 0.000000 0.000000
# 5 0.000000 0.000000 0.000000 0.000000 0.041892 0.000000
# 6 0.000000 0.000000 0.000000 0.000000 0.000000 0.076416
#
#
# Mechanical properties :
#
#
# Convention : Reuss Voigt Hill
#
# Bulk Modulus (GPa) = 34.86674 57.63742 46.25208
# Shear Modulus (GPa) = 31.85182 16.58678 24.21930
#
# Velocity S-wave (km/s) = 3.80583 2.74640 3.31866
# Velocity P-wave (km/s) = 5.93025 6.02222 5.97641
#
# Compressibility (1/GPa) = 0.02868063
#
# Stress axis : x y z
#
# Youngs Moduli (GPa) = 49.89043 113.44439 68.52266
#
# Poissons Ratio (x) = 0.17092 -0.05856
# Poissons Ratio (y) = 0.07517 0.46142
# Poissons Ratio (z) = -0.04263 0.76391
#
# Static dielectric constant tensor:
#      x y z
#    x 1.830930 0.000000 0.000000 
#    y 0.000000 1.815520 0.000000 
#    z 0.000000 0.000000 1.752050 
# 
# From -- ./inp_files/71553.got.cif
#   From: 2010.05.17/outbox.cif.g08.bks.cpg/sg74_36_cif.got.tgz:71553.got - 2010.06.03 17:57:02.
