data_PCOD9537193
_publ_section_title
;
Structure prediction by ZEFSAII (Michael W. Deem and Ramdas Pophale) SiO2 
 PCOD9537193
Probable space group: I M M A
;
_chemical_formula_sum "Si O2"
_cell_formula_units_Z 96
_cell_length_a 14.174697
_cell_length_b 16.499119
_cell_length_c 25.058480
_cell_angle_alpha 90.000000
_cell_angle_beta 90.000000
_cell_angle_gamma 90.000000
_cell_volume 5860.427033
_symmetry_space_group_name_H-M "I M M A"
_symmetry_group_IT_number 74
_symmetry_cell_setting 'orthorhombic'
loop_
_space_group_symop_operation_xyz
x,y,z
-x,1/2-y,z
x,-y,-z
-x,1/2+y,-z
-x,-y,-z
x,1/2+y,-z
-x,y,z
x,1/2-y,z
1/2+x,1/2+y,1/2+z
1/2-x,-y,1/2+z
1/2+x,1/2-y,1/2-z
1/2-x,y,1/2-z
1/2-x,1/2-y,1/2-z
1/2+x,y,1/2-z
1/2-x,1/2+y,1/2+z
1/2+x,-y,1/2+z
loop_
_atom_site_type_symbol
_atom_site_label
_atom_site_fract_x
_atom_site_fract_y
_atom_site_fract_z
Si Si1 0.114304 0.250000 0.462576
Si Si2 0.886019 0.919188 0.709781
Si Si3 0.393308 0.841961 0.224701
Si Si4 0.392166 0.483225 0.688574
Si Si5 0.384830 0.250000 0.160919
Si Si6 0.887646 0.087606 0.528013
Si Si7 0.793012 0.558888 0.359806
O O1 0.146383 0.250000 0.400894
O O2 0.140855 0.333721 0.492771
O O3 0.000000 0.250000 0.461184
O O4 0.854888 0.830690 0.691759
O O5 0.000000 0.922658 0.709115
O O6 0.859399 0.947131 0.769631
O O7 0.849918 0.983957 0.666595
O O8 0.500000 0.849197 0.201294
O O9 0.379717 0.750000 0.241794
O O10 0.390737 0.903810 0.273649
O O11 0.317348 0.868881 0.181280
O O12 0.500000 0.497888 0.671558
O O13 0.315777 0.467341 0.643311
O O14 0.500000 0.250000 0.160233
O O15 0.830784 0.083013 0.582873
O O16 0.000000 0.095866 0.538920
O O17 0.874768 0.000000 0.500000
#
# Coordination Sequence:
#
# PCOD9537193 Si02
#       7
#     8  16  16  16   8  16  16
#     4   9  18  30  44  69 103 133 161 194 234 290
#     4   9  16  28  47  72  98 127 159 190 236 295
#     4   9  17  28  44  68  97 125 152 181 223 279
#     4   9  19  33  45  63  94 128 163 202 233 273
#     4   9  16  28  49  73 102 133 154 186 241 298
#     4  10  20  33  49  71  99 127 157 196 243 296
#     4  11  19  29  47  67  93 128 162 194 237 279
#
# _framework density 16.381059
#
# number of rings (size 3 to 8) (size 9 to 14) (size 15 to 20)
#    0.000    2.500    0.000    5.500    1.167    4.000 
#    0.000    1.667    0.000    0.500    0.000    0.000 
#    0.000    1.333    0.000    0.000    0.000    0.000 
#
# Total GULP energy -267520.367476 kJ/mol
# GULP energy per Si atom -5573.340989 kJ/mol
# Density = 1.634378 g / cm^3
# Si number density = 16.381059 Si / 1000 Ang^3
#
#
#
# Elastic Constant Matrix: (Units=GPa)
#
#
# Indices 1 2 3 4 5 6 
#
# 1 54.2648 8.7972 22.4195 0.0000 0.0000 0.0000
# 2 8.7972 107.4524 32.4636 0.0000 0.0000 0.0000
# 3 22.4195 32.4636 50.4522 0.0000 0.0000 0.0000
# 4 0.0000 0.0000 0.0000 14.0169 0.0000 0.0000
# 5 0.0000 0.0000 0.0000 0.0000 19.4301 0.0000
# 6 0.0000 0.0000 0.0000 0.0000 0.0000 4.0961
#
#
#
# Elastic Compliance Matrix: (Units=1/GPa)
#
#
# Indices 1 2 3 4 5 6 
#
# 1 0.022760 0.001480 -0.011066 0.000000 0.000000 0.000000
# 2 0.001480 0.011648 -0.008153 0.000000 0.000000 0.000000
# 3 -0.011066 -0.008153 0.029984 0.000000 0.000000 0.000000
# 4 0.000000 0.000000 0.000000 0.071342 0.000000 0.000000
# 5 0.000000 0.000000 0.000000 0.000000 0.051467 0.000000
# 6 0.000000 0.000000 0.000000 0.000000 0.000000 0.244133
#
#
# Mechanical properties :
#
#
# Convention : Reuss Voigt Hill
#
# Bulk Modulus (GPa) = 34.58463 37.72555 36.15509
# Shear Modulus (GPa) = 10.49425 17.40789 13.95107
#
# Velocity S-wave (km/s) = 2.53382 3.26342 2.92149
# Velocity P-wave (km/s) = 5.45149 6.10572 5.78786
#
# Compressibility (1/GPa) = 0.02891458
#
# Stress axis : x y z
#
# Youngs Moduli (GPa) = 43.93624 85.84845 33.35083
#
# Poissons Ratio (x) = -0.12705 0.36907
# Poissons Ratio (y) = -0.06502 0.27190
# Poissons Ratio (z) = 0.48621 0.69991
#
# Static dielectric constant tensor:
#      x y z
#    x 1.578860 0.000000 0.000000 
#    y 0.000000 1.578090 0.000000 
#    z 0.000000 0.000000 1.525510 
# 
# From -- ./inp_files/67129.got.cif
#   From: 2010.05.17/outbox.cif.g08.bks.cpg/sg74_34_cif.got.tgz:67129.got - 2010.06.03 17:57:02.
