data_PCOD9537777
_publ_section_title
;
Structure prediction by ZEFSAII (Michael W. Deem and Ramdas Pophale) SiO2 
 PCOD9537777
Probable space group: I M M A
;
_chemical_formula_sum "Si O2"
_cell_formula_units_Z 88
_cell_length_a 7.974340
_cell_length_b 28.710423
_cell_length_c 20.090159
_cell_angle_alpha 90.000000
_cell_angle_beta 90.000000
_cell_angle_gamma 90.000000
_cell_volume 4599.575094
_symmetry_space_group_name_H-M "I M M A"
_symmetry_group_IT_number 74
_symmetry_cell_setting 'orthorhombic'
loop_
_space_group_symop_operation_xyz
x,y,z
-x,1/2-y,z
x,-y,-z
-x,1/2+y,-z
-x,-y,-z
x,1/2+y,-z
-x,y,z
x,1/2-y,z
1/2+x,1/2+y,1/2+z
1/2-x,-y,1/2+z
1/2+x,1/2-y,1/2-z
1/2-x,y,1/2-z
1/2-x,1/2-y,1/2-z
1/2+x,y,1/2-z
1/2-x,1/2+y,1/2+z
1/2+x,-y,1/2+z
loop_
_atom_site_type_symbol
_atom_site_label
_atom_site_fract_x
_atom_site_fract_y
_atom_site_fract_z
Si Si1 0.795483 0.461796 0.910501
Si Si2 0.199075 0.666242 0.579432
Si Si3 0.299198 0.302294 0.567347
Si Si4 0.297647 0.250000 0.172914
Si Si5 0.202286 0.936072 0.939402
Si Si6 0.297706 0.876833 0.325665
O O1 0.740786 0.515469 0.906063
O O2 0.738311 0.426833 0.853372
O O3 0.000000 0.462532 0.910666
O O4 0.746431 0.441045 0.982791
O O5 0.267976 0.678806 0.506564
O O6 0.262628 0.703840 0.633309
O O7 0.238417 0.612117 0.591980
O O8 0.000000 0.671518 0.576258
O O9 0.500000 0.300076 0.575759
O O10 0.230758 0.250000 0.573210
O O11 0.234280 0.337351 0.623569
O O12 0.500000 0.250000 0.170111
O O13 0.250000 0.250000 0.250000
O O14 0.000000 0.935238 0.938790
O O15 0.500000 0.877097 0.329797
O O16 0.250000 0.868439 0.250000
#
# Coordination Sequence:
#
# PCOD9537777 Si02
#       6
#    16  16  16   8  16  16
#     4   8  15  30  53  77 104 137 181 227 262 309
#     4  11  21  35  55  84 116 139 168 223 280 319
#     4  10  20  35  57  81 104 140 191 230 260 318
#     4  10  24  42  58  80 111 144 175 214 269 330
#     4   9  16  31  56  81 102 137 182 223 264 315
#     4  10  20  35  52  76 110 147 185 226 271 322
#
# _framework density 19.132203000000001
#
# number of rings (size 3 to 8) (size 9 to 14) (size 15 to 20)
#    0.000    2.364    2.727    1.636    0.000    2.545 
#    0.000    3.636    0.000    4.364    0.000    0.000 
#    0.000    0.000    0.000    0.000    0.000    0.000 
#
# Total GULP energy -245434.692756 kJ/mol
# GULP energy per Si atom -5578.061199 kJ/mol
# Density = 1.908866 g / cm^3
# Si number density = 19.132203 Si / 1000 Ang^3
#
#
#
# Elastic Constant Matrix: (Units=GPa)
#
#
# Indices 1 2 3 4 5 6 
#
# 1 10.7765 8.3257 2.4240 0.0000 0.0000 0.0000
# 2 8.3257 182.5397 82.2170 0.0000 0.0000 0.0000
# 3 2.4240 82.2170 122.0335 0.0001 0.0000 0.0000
# 4 0.0000 0.0000 0.0001 29.9585 0.0000 0.0000
# 5 0.0000 0.0000 0.0000 0.0000 19.7021 0.0000
# 6 0.0000 0.0000 0.0000 0.0000 0.0000 7.6864
#
#
#
# Elastic Compliance Matrix: (Units=1/GPa)
#
#
# Indices 1 2 3 4 5 6 
#
# 1 0.096376 -0.005073 0.001503 0.000000 0.000000 0.000000
# 2 -0.005073 0.008132 -0.005378 0.000000 0.000000 0.000000
# 3 0.001503 -0.005378 0.011788 0.000000 0.000000 0.000000
# 4 0.000000 0.000000 0.000000 0.033379 0.000000 0.000000
# 5 0.000000 0.000000 0.000000 0.000000 0.050756 0.000000
# 6 0.000000 0.000000 0.000000 0.000000 0.000000 0.130101
#
#
# Mechanical properties :
#
#
# Convention : Reuss Voigt Hill
#
# Bulk Modulus (GPa) = 10.16253 55.69810 32.93032
# Shear Modulus (GPa) = 13.11556 26.29493 19.70525
#
# Velocity S-wave (km/s) = 2.62109 3.71129 3.21277
# Velocity P-wave (km/s) = 3.80571 6.89495 5.56883
#
# Compressibility (1/GPa) = 0.09840072
#
# Stress axis : x y z
#
# Youngs Moduli (GPa) = 10.37605 122.97304 84.83337
#
# Poissons Ratio (x) = 0.62383 -0.12754
# Poissons Ratio (y) = 0.05264 0.45622
# Poissons Ratio (z) = -0.01560 0.66133
#
# Static dielectric constant tensor:
#      x y z
#    x 1.699020 0.000000 0.000000 
#    y 0.000000 1.701580 0.000000 
#    z 0.000000 0.000000 1.627590 
# 
# From -- ./inp_files/40158.got.cif
#   From: 2010.05.17/outbox.cif.g08.bks.cpg/sg74_21_cif.got.tgz:40158.got - 2010.06.03 17:57:02.
