data_PCOD9537390
_publ_section_title
;
Structure prediction by ZEFSAII (Michael W. Deem and Ramdas Pophale) SiO2 
 PCOD9537390
Probable space group: I M M A
;
_chemical_formula_sum "Si O2"
_cell_formula_units_Z 88
_cell_length_a 26.847049
_cell_length_b 8.911667
_cell_length_c 27.887314
_cell_angle_alpha 90.000000
_cell_angle_beta 90.000000
_cell_angle_gamma 90.000000
_cell_volume 6672.094551
_symmetry_space_group_name_H-M "I M M A"
_symmetry_group_IT_number 74
_symmetry_cell_setting 'orthorhombic'
loop_
_space_group_symop_operation_xyz
x,y,z
-x,1/2-y,z
x,-y,-z
-x,1/2+y,-z
-x,-y,-z
x,1/2+y,-z
-x,y,z
x,1/2-y,z
1/2+x,1/2+y,1/2+z
1/2-x,-y,1/2+z
1/2+x,1/2-y,1/2-z
1/2-x,y,1/2-z
1/2-x,1/2-y,1/2-z
1/2+x,y,1/2-z
1/2-x,1/2+y,1/2+z
1/2+x,-y,1/2+z
loop_
_atom_site_type_symbol
_atom_site_label
_atom_site_fract_x
_atom_site_fract_y
_atom_site_fract_z
Si Si1 0.000000 0.068924 0.446708
Si Si2 0.802637 0.570787 0.551578
Si Si3 0.147257 0.078199 0.696319
Si Si4 0.098640 0.067913 0.599748
Si Si5 0.302061 0.578077 0.719946
Si Si6 0.249054 0.921522 0.136127
O O1 0.000000 0.250000 0.448413
O O2 0.000000 0.000000 0.500000
O O3 0.048833 0.005814 0.420218
O O4 0.791548 0.500000 0.500000
O O5 0.807704 0.750000 0.548954
O O6 0.854343 0.497505 0.570430
O O7 0.760981 0.524018 0.590490
O O8 0.137303 0.250000 0.710164
O O9 0.107867 0.030335 0.655896
O O10 0.199633 0.077115 0.667116
O O11 0.156239 0.981442 0.743555
O O12 0.098091 0.250000 0.595369
O O13 0.310704 0.750000 0.707000
O O14 0.250000 0.571571 0.750000
O O15 0.292725 0.481255 0.672426
O O16 0.240047 0.750000 0.121522
#
# Coordination Sequence:
#
# PCOD9537390 Si02
#       6
#     8  16  16  16  16  16
#     4  12  24  36  48  60  74  94 122 158 199 238
#     4  11  20  30  42  56  74  96 124 156 191 227
#     4   8  15  26  40  55  72  93 114 141 179 222
#     4  10  20  34  47  59  74  93 120 154 194 235
#     4   9  15  22  35  55  76  95 115 141 174 213
#     4   9  16  26  38  53  73  96 121 147 178 215
#
# _framework density 13.189261999999999
#
# number of rings (size 3 to 8) (size 9 to 14) (size 15 to 20)
#    0.000    2.364    0.000    5.727    0.000    7.273 
#    0.000    0.000    0.000    0.000    0.000    0.000 
#    0.000    0.000    0.000    0.000    0.000    0.000 
#
# Total GULP energy -245144.267891 kJ/mol
# GULP energy per Si atom -5571.460634 kJ/mol
# Density = 1.315924 g / cm^3
# Si number density = 13.189262 Si / 1000 Ang^3
#
#
#
# Elastic Constant Matrix: (Units=GPa)
#
#
# Indices 1 2 3 4 5 6 
#
# 1 35.4297 27.3801 39.8106 0.0000 0.0000 0.0000
# 2 27.3801 97.3608 47.8730 0.0000 0.0000 0.0000
# 3 39.8106 47.8730 79.9584 0.0000 0.0000 0.0000
# 4 0.0000 0.0000 0.0000 24.4870 0.0000 0.0000
# 5 0.0000 0.0000 0.0000 0.0000 21.9864 0.0000
# 6 0.0000 0.0000 0.0000 0.0000 0.0000 15.2269
#
#
#
# Elastic Compliance Matrix: (Units=1/GPa)
#
#
# Indices 1 2 3 4 5 6 
#
# 1 0.064828 -0.003345 -0.030275 0.000000 0.000000 0.000000
# 2 -0.003345 0.014729 -0.007153 0.000000 0.000000 0.000000
# 3 -0.030275 -0.007153 0.031863 0.000000 0.000000 0.000000
# 4 0.000000 0.000000 0.000000 0.040838 0.000000 0.000000
# 5 0.000000 0.000000 0.000000 0.000000 0.045483 0.000000
# 6 0.000000 0.000000 0.000000 0.000000 0.000000 0.065673
#
#
# Mechanical properties :
#
#
# Convention : Reuss Voigt Hill
#
# Bulk Modulus (GPa) = 33.47362 49.20848 41.34105
# Shear Modulus (GPa) = 14.08780 18.85240 16.47010
#
# Velocity S-wave (km/s) = 3.27177 3.78481 3.53760
# Velocity P-wave (km/s) = 6.30136 7.51600 6.93532
#
# Compressibility (1/GPa) = 0.02987427
#
# Stress axis : x y z
#
# Youngs Moduli (GPa) = 15.42550 67.89312 31.38458
#
# Poissons Ratio (x) = 0.22709 0.95015
# Poissons Ratio (y) = 0.05160 0.22450
# Poissons Ratio (z) = 0.46700 0.48566
#
# Static dielectric constant tensor:
#      x y z
#    x 1.411810 0.000000 0.000000 
#    y 0.000000 1.442090 0.000000 
#    z 0.000000 0.000000 1.437470 
# 
# From -- ./inp_files/49487.got.cif
#   From: 2010.05.17/outbox.cif.g08.bks.cpg/sg74_25_cif.got.tgz:49487.got - 2010.06.03 17:57:02.
