data_PCOD9537762
_publ_section_title
;
Structure prediction by ZEFSAII (Michael W. Deem and Ramdas Pophale) SiO2 
 PCOD9537762
Probable space group: I M M A
;
_chemical_formula_sum "Si O2"
_cell_formula_units_Z 56
_cell_length_a 14.961270
_cell_length_b 16.708466
_cell_length_c 9.450824
_cell_angle_alpha 90.000000
_cell_angle_beta 90.000000
_cell_angle_gamma 90.000000
_cell_volume 2362.515765
_symmetry_space_group_name_H-M "I M M A"
_symmetry_group_IT_number 74
_symmetry_cell_setting 'orthorhombic'
loop_
_space_group_symop_operation_xyz
x,y,z
-x,1/2-y,z
x,-y,-z
-x,1/2+y,-z
-x,-y,-z
x,1/2+y,-z
-x,y,z
x,1/2-y,z
1/2+x,1/2+y,1/2+z
1/2-x,-y,1/2+z
1/2+x,1/2-y,1/2-z
1/2-x,y,1/2-z
1/2-x,1/2-y,1/2-z
1/2+x,y,1/2-z
1/2-x,1/2+y,1/2+z
1/2+x,-y,1/2+z
loop_
_atom_site_type_symbol
_atom_site_label
_atom_site_fract_x
_atom_site_fract_y
_atom_site_fract_z
Si Si1 0.000000 0.375679 0.417335
Si Si2 0.637208 0.250000 0.577917
Si Si3 0.394137 0.423011 0.604950
Si Si4 0.500000 0.750000 0.671415
Si Si5 0.323043 0.527672 0.853071
Si Si6 0.000000 0.750000 0.332472
O O1 0.091108 0.423930 0.403327
O O2 0.000000 0.324355 0.559906
O O3 0.000000 0.323918 0.275109
O O4 0.667130 0.155827 0.573774
O O5 0.582521 0.250000 0.432680
O O6 0.584810 0.250000 0.728245
O O7 0.396491 0.500000 0.500000
O O8 0.500000 0.396798 0.609131
O O9 0.361313 0.456942 0.754788
O O10 0.250000 0.568765 0.750000
O O11 0.280278 0.500000 0.000000
#
# Coordination Sequence:
#
# PCOD9537762 Si02
#       6
#     8   8  16   4  16   4
#     4  11  23  43  69  96 135 182 225 292 346 405
#     4  11  20  36  63 108 139 169 234 287 325 422
#     4  11  21  38  68 101 139 179 227 279 347 404
#     4  10  20  34  64 102 126 172 228 268 356 416
#     4  12  26  43  66 100 135 180 237 286 344 413
#     4  10  20  36  64 104 130 184 238 266 350 416
#
# _framework density 23.703544999999998
#
# number of rings (size 3 to 8) (size 9 to 14) (size 15 to 20)
#    0.000    0.857    4.286    4.714    0.000    0.000 
#    0.000    3.571    0.000   10.286    0.000    2.000 
#    0.000    0.000    0.000    0.000    0.000    0.000 
#
# Total GULP energy -156168.922936 kJ/mol
# GULP energy per Si atom -5577.461533 kJ/mol
# Density = 2.364959 g / cm^3
# Si number density = 23.703545 Si / 1000 Ang^3
#
#
#
# Elastic Constant Matrix: (Units=GPa)
#
#
# Indices 1 2 3 4 5 6 
#
# 1 102.2640 17.5303 20.2440 0.0000 0.0000 0.0000
# 2 17.5303 156.2401 53.2865 0.0000 0.0000 0.0000
# 3 20.2440 53.2865 191.4963 0.0000 0.0000 0.0000
# 4 0.0000 0.0000 0.0000 107.4627 0.0000 0.0000
# 5 0.0000 0.0000 0.0000 0.0000 -79.3540 0.0000
# 6 0.0000 0.0000 0.0000 0.0000 0.0000 -248.2830
#
#
#
# Elastic Compliance Matrix: (Units=1/GPa)
#
#
# Indices 1 2 3 4 5 6 
#
# 1 0.010088 -0.000849 -0.000830 0.000000 0.000000 0.000000
# 2 -0.000849 0.007143 -0.001898 0.000000 0.000000 0.000000
# 3 -0.000830 -0.001898 0.005838 0.000000 0.000000 0.000000
# 4 0.000000 0.000000 0.000000 0.009306 0.000000 0.000000
# 5 0.000000 0.000000 0.000000 0.000000 -0.012602 0.000000
# 6 0.000000 0.000000 0.000000 0.000000 0.000000 -0.004028
#
#
# Mechanical properties :
#
#
# Convention : Reuss Voigt Hill
#
# Bulk Modulus (GPa) = 62.83227 70.23577 66.53402
# Shear Modulus (GPa) = 177.27654 -20.10557 78.58548
#
# Velocity S-wave (km/s) = 8.65745 -2.91556 5.76415
# Velocity P-wave (km/s) = 11.24723 4.28500 8.51063
#
# Compressibility (1/GPa) = 0.01591539
#
# Stress axis : x y z
#
# Youngs Moduli (GPa) = 99.12304 139.99873 171.29367
#
# Poissons Ratio (x) = 0.11882 0.14223
# Poissons Ratio (y) = 0.08413 0.32510
# Poissons Ratio (z) = 0.08230 0.26570
#
# Static dielectric constant tensor:
#      x y z
#    x 1.978880 0.000000 0.000000 
#    y 0.000000 2.025740 0.000000 
#    z 0.000000 0.000000 1.843180 
# 
# From -- ./inp_files/10071.got.cif
#   From: 2010.05.17/outbox.cif.g08.bks.cpg/sg74_6_cif.got.tgz:10071.got - 2010.06.03 17:57:02.
