data_PCOD9537981
_publ_section_title
;
Structure prediction by ZEFSAII (Michael W. Deem and Ramdas Pophale) SiO2 
 PCOD9537981
Probable space group: I M M A
;
_chemical_formula_sum "Si O2"
_cell_formula_units_Z 100
_cell_length_a 10.294387
_cell_length_b 22.053917
_cell_length_c 25.224254
_cell_angle_alpha 90.000000
_cell_angle_beta 90.000000
_cell_angle_gamma 90.000000
_cell_volume 5726.701646
_symmetry_space_group_name_H-M "I M M A"
_symmetry_group_IT_number 74
_symmetry_cell_setting 'orthorhombic'
loop_
_space_group_symop_operation_xyz
x,y,z
-x,1/2-y,z
x,-y,-z
-x,1/2+y,-z
-x,-y,-z
x,1/2+y,-z
-x,y,z
x,1/2-y,z
1/2+x,1/2+y,1/2+z
1/2-x,-y,1/2+z
1/2+x,1/2-y,1/2-z
1/2-x,y,1/2-z
1/2-x,1/2-y,1/2-z
1/2+x,y,1/2-z
1/2-x,1/2+y,1/2+z
1/2+x,-y,1/2+z
loop_
_atom_site_type_symbol
_atom_site_label
_atom_site_fract_x
_atom_site_fract_y
_atom_site_fract_z
Si Si1 0.847683 0.391000 0.905950
Si Si2 0.146951 0.820245 0.478399
Si Si3 0.150265 0.678205 0.203776
Si Si4 0.000000 0.750000 0.909657
Si Si5 0.353441 0.323346 0.206312
Si Si6 0.654732 0.478878 0.441736
Si Si7 0.742252 0.654070 0.590413
O O1 0.754929 0.359774 0.948831
O O2 0.827325 0.359368 0.849573
O O3 0.822660 0.462812 0.904749
O O4 0.000000 0.382508 0.921210
O O5 0.163153 0.750000 0.462441
O O6 0.169629 0.824512 0.541282
O O7 0.000000 0.839405 0.465273
O O8 0.166659 0.750000 0.192260
O O9 0.250000 0.661763 0.250000
O O10 0.000000 0.669216 0.220250
O O11 0.885367 0.696707 0.909463
O O12 0.500000 0.344285 0.217798
O O13 0.354072 0.250000 0.209021
O O14 0.250000 0.345064 0.250000
O O15 0.310097 0.340013 0.147249
O O16 0.702061 0.500000 0.500000
O O17 0.500000 0.469579 0.446262
O O18 0.711800 0.416186 0.421546
#
# Coordination Sequence:
#
# PCOD9537981 Si02
#       7
#    16  16  16   4  16  16  16
#     4  10  21  37  58  84 113 150 197 239 285 343
#     4  11  23  36  54  82 119 151 186 240 303 350
#     4   9  18  34  57  85 113 146 186 233 283 336
#     4  12  24  32  62  96 114 156 202 248 290 366
#     4  10  22  38  60  85 117 150 190 244 301 356
#     4  10  20  35  57  84 117 156 195 238 284 346
#     4  12  22  37  58  87 120 152 199 238 301 352
#
# _framework density 17.462057999999999
#
# number of rings (size 3 to 8) (size 9 to 14) (size 15 to 20)
#    0.000    1.600    4.000    0.960    2.240    2.880 
#    0.000    4.800    0.000    1.920    0.000    0.000 
#    0.000    0.000    0.000    0.000    0.000    0.000 
#
# Total GULP energy -278455.204501 kJ/mol
# GULP energy per Si atom -5569.104090 kJ/mol
# Density = 1.742231 g / cm^3
# Si number density = 17.462058 Si / 1000 Ang^3
#
#
#
# Elastic Constant Matrix: (Units=GPa)
#
#
# Indices 1 2 3 4 5 6 
#
# 1 102.9350 56.2222 56.9808 0.0000 0.0000 0.0000
# 2 56.2222 89.0094 39.1394 0.0000 0.0000 0.0000
# 3 56.9808 39.1394 83.5164 0.0000 0.0000 0.0000
# 4 0.0000 0.0000 0.0000 16.0111 0.0000 0.0000
# 5 0.0000 0.0000 0.0000 0.0000 17.5116 0.0000
# 6 0.0000 0.0000 0.0000 0.0000 0.0000 6.6742
#
#
#
# Elastic Compliance Matrix: (Units=1/GPa)
#
#
# Indices 1 2 3 4 5 6 
#
# 1 0.019332 -0.008075 -0.009405 0.000000 0.000000 0.000000
# 2 -0.008075 0.017524 -0.002703 0.000000 0.000000 0.000000
# 3 -0.009405 -0.002703 0.019657 0.000000 0.000000 0.000000
# 4 0.000000 0.000000 0.000000 0.062457 0.000000 0.000000
# 5 0.000000 0.000000 0.000000 0.000000 0.057105 0.000000
# 6 0.000000 0.000000 0.000000 0.000000 0.000000 0.149830
#
#
# Mechanical properties :
#
#
# Convention : Reuss Voigt Hill
#
# Bulk Modulus (GPa) = 61.93340 64.46064 63.19702
# Shear Modulus (GPa) = 13.45340 16.24728 14.85034
#
# Velocity S-wave (km/s) = 2.77868 3.05361 2.91939
# Velocity P-wave (km/s) = 6.77046 7.03047 6.90169
#
# Compressibility (1/GPa) = 0.01614638
#
# Stress axis : x y z
#
# Youngs Moduli (GPa) = 51.72837 57.06466 50.87164
#
# Poissons Ratio (x) = 0.46080 0.47845
# Poissons Ratio (y) = 0.41771 0.13751
# Poissons Ratio (z) = 0.48651 0.15425
#
# Static dielectric constant tensor:
#      x y z
#    x 1.599330 0.000000 0.000000 
#    y 0.000000 1.585390 0.000000 
#    z 0.000000 0.000000 1.581870 
# 
# From -- ./inp_files/64453.got.cif
#   From: 2010.05.17/outbox.cif.g08.bks.cpg/sg74_33_cif.got.tgz:64453.got - 2010.06.03 17:57:02.
