data_PCOD9537648
_publ_section_title
;
Structure prediction by ZEFSAII (Michael W. Deem and Ramdas Pophale) SiO2 
 PCOD9537648
Probable space group: I M M A
;
_chemical_formula_sum "Si O2"
_cell_formula_units_Z 60
_cell_length_a 18.650682
_cell_length_b 13.239303
_cell_length_c 13.027061
_cell_angle_alpha 90.000000
_cell_angle_beta 90.000000
_cell_angle_gamma 90.000000
_cell_volume 3216.668349
_symmetry_space_group_name_H-M "I M M A"
_symmetry_group_IT_number 74
_symmetry_cell_setting 'orthorhombic'
loop_
_space_group_symop_operation_xyz
x,y,z
-x,1/2-y,z
x,-y,-z
-x,1/2+y,-z
-x,-y,-z
x,1/2+y,-z
-x,y,z
x,1/2-y,z
1/2+x,1/2+y,1/2+z
1/2-x,-y,1/2+z
1/2+x,1/2-y,1/2-z
1/2-x,y,1/2-z
1/2-x,1/2-y,1/2-z
1/2+x,y,1/2-z
1/2-x,1/2+y,1/2+z
1/2+x,-y,1/2+z
loop_
_atom_site_type_symbol
_atom_site_label
_atom_site_fract_x
_atom_site_fract_y
_atom_site_fract_z
Si Si1 0.281438 0.250000 0.364219
Si Si2 0.341027 0.750000 0.041936
Si Si3 0.500000 0.250000 0.946273
Si Si4 0.000000 0.028905 0.618474
Si Si5 0.804001 0.469066 0.113366
Si Si6 0.655544 0.456787 0.825420
O O1 0.250000 0.250000 0.250000
O O2 0.220953 0.250000 0.455517
O O3 0.325418 0.146545 0.371597
O O4 0.422914 0.750000 0.997086
O O5 0.336818 0.850003 0.114660
O O6 0.500000 0.349396 0.876611
O O7 0.923428 0.997298 0.661188
O O8 0.000000 0.000000 0.500000
O O9 0.717322 0.473151 0.126256
O O10 0.830116 0.543201 0.203539
O O11 0.824311 0.500000 0.000000
#
# Coordination Sequence:
#
# PCOD9537648 Si02
#       6
#     8   8   4   8  16  16
#     4  12  22  33  55  78 118 144 180 234 285 322
#     4  10  20  36  58  83 112 148 190 232 279 345
#     4   8  20  32  52  82 108 138 180 236 282 324
#     4  10  20  34  55  81 109 146 184 238 279 335
#     4  11  22  37  55  83 114 147 187 235 278 344
#     4  10  21  36  57  80 114 145 193 225 290 328
#
# _framework density 18.652839
#
# number of rings (size 3 to 8) (size 9 to 14) (size 15 to 20)
#    0.000    1.600    5.333    0.800    3.733    3.200 
#    0.000    0.667    0.000    0.000    0.000    0.000 
#    0.000    0.000    0.000    0.000    0.000    0.000 
#
# Total GULP energy -167117.808515 kJ/mol
# GULP energy per Si atom -5570.593617 kJ/mol
# Density = 1.861038 g / cm^3
# Si number density = 18.652839 Si / 1000 Ang^3
#
#
#
# Elastic Constant Matrix: (Units=GPa)
#
#
# Indices 1 2 3 4 5 6 
#
# 1 80.1550 -9.1582 14.4230 0.0000 0.0000 0.0000
# 2 -9.1582 77.0383 28.3441 0.0000 0.0000 0.0000
# 3 14.4230 28.3441 148.3438 0.0000 0.0000 0.0000
# 4 0.0000 0.0000 0.0000 28.6883 0.0000 0.0000
# 5 0.0000 0.0000 0.0000 0.0000 15.7283 0.0000
# 6 0.0000 0.0000 0.0000 0.0000 0.0000 13.7632
#
#
#
# Elastic Compliance Matrix: (Units=1/GPa)
#
#
# Indices 1 2 3 4 5 6 
#
# 1 0.013026 0.002167 -0.001680 0.000000 0.000000 0.000000
# 2 0.002167 0.014323 -0.002947 0.000000 0.000000 0.000000
# 3 -0.001680 -0.002947 0.007468 0.000000 0.000000 0.000000
# 4 0.000000 0.000000 0.000000 0.034857 0.000000 0.000000
# 5 0.000000 0.000000 0.000000 0.000000 0.063580 0.000000
# 6 0.000000 0.000000 0.000000 0.000000 0.000000 0.072657
#
#
# Mechanical properties :
#
#
# Convention : Reuss Voigt Hill
#
# Bulk Modulus (GPa) = 33.45158 41.41723 37.43441
# Shear Modulus (GPa) = 22.64525 29.76452 26.20489
#
# Velocity S-wave (km/s) = 3.48808 3.99897 3.75223
# Velocity P-wave (km/s) = 5.84765 6.60112 6.23578
#
# Compressibility (1/GPa) = 0.02989395
#
# Stress axis : x y z
#
# Youngs Moduli (GPa) = 76.77088 69.82015 133.91147
#
# Poissons Ratio (x) = -0.15128 0.22503
# Poissons Ratio (y) = -0.16634 0.39467
# Poissons Ratio (z) = 0.12901 0.20578
#
# Static dielectric constant tensor:
#      x y z
#    x 1.705160 0.000000 0.000000 
#    y 0.000000 1.688040 0.000000 
#    z 0.000000 0.000000 1.647980 
# 
# From -- ./inp_files/21576.got.cif
#   From: 2010.05.17/outbox.cif.g08.bks.cpg/sg74_11_cif.got.tgz:21576.got - 2010.06.03 17:57:02.
