data_PCOD9537504
_publ_section_title
;
Structure prediction by ZEFSAII (Michael W. Deem and Ramdas Pophale) SiO2 
 PCOD9537504
Probable space group: I M M A
;
_chemical_formula_sum "Si O2"
_cell_formula_units_Z 96
_cell_length_a 21.139472
_cell_length_b 7.675243
_cell_length_c 28.571643
_cell_angle_alpha 90.000000
_cell_angle_beta 90.000000
_cell_angle_gamma 90.000000
_cell_volume 4635.765777
_symmetry_space_group_name_H-M "I M M A"
_symmetry_group_IT_number 74
_symmetry_cell_setting 'orthorhombic'
loop_
_space_group_symop_operation_xyz
x,y,z
-x,1/2-y,z
x,-y,-z
-x,1/2+y,-z
-x,-y,-z
x,1/2+y,-z
-x,y,z
x,1/2-y,z
1/2+x,1/2+y,1/2+z
1/2-x,-y,1/2+z
1/2+x,1/2-y,1/2-z
1/2-x,y,1/2-z
1/2-x,1/2-y,1/2-z
1/2+x,y,1/2-z
1/2-x,1/2+y,1/2+z
1/2+x,-y,1/2+z
loop_
_atom_site_type_symbol
_atom_site_label
_atom_site_fract_x
_atom_site_fract_y
_atom_site_fract_z
Si Si1 0.928696 0.540281 0.446342
Si Si2 0.570909 0.458218 0.397720
Si Si3 0.928625 0.460395 0.789349
Si Si4 0.803474 0.457307 0.053972
Si Si5 0.815975 0.957435 0.382326
Si Si6 0.186000 0.463631 0.724070
O O1 0.912064 0.500000 0.500000
O O2 0.930458 0.750000 0.442109
O O3 0.875376 0.471417 0.411593
O O4 0.000000 0.474787 0.437478
O O5 0.500000 0.528348 0.407088
O O6 0.567984 0.250000 0.404646
O O7 0.585598 0.489890 0.342991
O O8 0.628288 0.527970 0.429081
O O9 0.929192 0.250000 0.787510
O O10 0.875268 0.521222 0.753402
O O11 0.000000 0.521823 0.778554
O O12 0.805757 0.250000 0.058097
O O13 0.747862 0.517209 0.088299
O O14 0.790584 0.500000 0.000000
O O15 0.825397 0.750000 0.378333
O O16 0.813256 0.024832 0.329472
O O17 0.185426 0.250000 0.723969
O O18 0.250000 0.517429 0.750000
#
# Coordination Sequence:
#
# PCOD9537504 Si02
#       6
#    16  16  16  16  16  16
#     4   9  18  32  50  72  97 127 163 201 243 291
#     4   9  19  36  55  75 102 135 168 205 254 308
#     4   9  17  30  51  78 104 132 169 210 249 294
#     4  11  23  37  54  76 102 132 168 212 258 307
#     4  10  20  34  53  75 102 137 172 208 251 299
#     4   9  17  29  47  72 101 131 163 201 244 289
#
# _framework density 20.708552000000001
#
# number of rings (size 3 to 8) (size 9 to 14) (size 15 to 20)
#    0.000    2.500    0.000    2.000    0.000    5.667 
#    0.000    4.167    0.000    3.000    0.000    4.667 
#    0.000    0.000    0.000    0.000    0.000    0.000 
#
# Total GULP energy -268001.198275 kJ/mol
# GULP energy per Si atom -5583.358297 kJ/mol
# Density = 2.066142 g / cm^3
# Si number density = 20.708552 Si / 1000 Ang^3
#
#
#
# Elastic Constant Matrix: (Units=GPa)
#
#
# Indices 1 2 3 4 5 6 
#
# 1 68.1538 0.3648 19.2554 0.0000 0.0000 0.0000
# 2 0.3648 35.2557 -3.7260 0.0000 0.0000 0.0000
# 3 19.2554 -3.7260 36.4635 0.0000 0.0000 0.0000
# 4 0.0000 0.0000 0.0000 19.2373 0.0000 0.0000
# 5 0.0000 0.0000 0.0000 0.0000 44.8695 0.0000
# 6 0.0000 0.0000 0.0000 0.0000 0.0000 14.0510
#
#
#
# Elastic Compliance Matrix: (Units=1/GPa)
#
#
# Indices 1 2 3 4 5 6 
#
# 1 0.017292 -0.001156 -0.009250 0.000000 0.000000 0.000000
# 2 -0.001156 0.028751 0.003549 0.000000 0.000000 0.000000
# 3 -0.009250 0.003549 0.032672 0.000000 0.000000 0.000000
# 4 0.000000 0.000000 0.000000 0.051982 0.000000 0.000000
# 5 0.000000 0.000000 0.000000 0.000000 0.022287 0.000000
# 6 0.000000 0.000000 0.000000 0.000000 0.000000 0.071169
#
#
# Mechanical properties :
#
#
# Convention : Reuss Voigt Hill
#
# Bulk Modulus (GPa) = 15.38459 19.07348 17.22904
# Shear Modulus (GPa) = 19.26519 23.89682 21.58100
#
# Velocity S-wave (km/s) = 3.05339 3.40068 3.23171
# Velocity P-wave (km/s) = 4.45827 4.96487 4.71837
#
# Compressibility (1/GPa) = 0.06500012
#
# Stress axis : x y z
#
# Youngs Moduli (GPa) = 57.82956 34.78117 30.60742
#
# Poissons Ratio (x) = 0.04022 0.28311
# Poissons Ratio (y) = 0.06688 -0.10862
# Poissons Ratio (z) = 0.53491 -0.12343
#
# Static dielectric constant tensor:
#      x y z
#    x 1.748870 0.000000 0.000000 
#    y 0.000000 1.778060 0.000000 
#    z 0.000000 0.000000 1.702540 
# 
# From -- ./inp_files/64265.got.cif
#   From: 2010.05.17/outbox.cif.g08.bks.cpg/sg74_33_cif.got.tgz:64265.got - 2010.06.03 17:57:02.
