data_PCOD9537086
_publ_section_title
;
Structure prediction by ZEFSAII (Michael W. Deem and Ramdas Pophale) SiO2 
 PCOD9537086
Probable space group: I M M A
;
_chemical_formula_sum "Si O2"
_cell_formula_units_Z 84
_cell_length_a 14.296873
_cell_length_b 20.583893
_cell_length_c 11.393027
_cell_angle_alpha 90.000000
_cell_angle_beta 90.000000
_cell_angle_gamma 90.000000
_cell_volume 3352.800415
_symmetry_space_group_name_H-M "I M M A"
_symmetry_group_IT_number 74
_symmetry_cell_setting 'orthorhombic'
loop_
_space_group_symop_operation_xyz
x,y,z
-x,1/2-y,z
x,-y,-z
-x,1/2+y,-z
-x,-y,-z
x,1/2+y,-z
-x,y,z
x,1/2-y,z
1/2+x,1/2+y,1/2+z
1/2-x,-y,1/2+z
1/2+x,1/2-y,1/2-z
1/2-x,y,1/2-z
1/2-x,1/2-y,1/2-z
1/2+x,y,1/2-z
1/2-x,1/2+y,1/2+z
1/2+x,-y,1/2+z
loop_
_atom_site_type_symbol
_atom_site_label
_atom_site_fract_x
_atom_site_fract_y
_atom_site_fract_z
Si Si1 0.389121 0.389245 0.701950
Si Si2 0.600745 0.131888 0.060136
Si Si3 0.862220 0.250000 0.264457
Si Si4 0.000000 0.750000 0.961972
Si Si5 0.893344 0.468989 0.241426
Si Si6 0.396881 0.750000 0.289521
Si Si7 0.286703 0.575894 0.522839
O O1 0.500000 0.385643 0.715807
O O2 0.358347 0.457362 0.758242
O O3 0.352452 0.319164 0.740298
O O4 0.366917 0.401374 0.565379
O O5 0.500000 0.137609 0.997695
O O6 0.608989 0.188518 0.155926
O O7 0.600367 0.065697 0.135104
O O8 0.699555 0.122992 0.997506
O O9 0.750000 0.250000 0.250000
O O10 0.918014 0.250000 0.141807
O O11 0.079511 0.750000 0.070325
O O12 0.828770 0.427137 0.154088
O O13 0.000000 0.471224 0.191851
O O14 0.500000 0.750000 0.230484
O O15 0.265716 0.500000 0.500000
#
# Coordination Sequence:
#
# PCOD9537086 Si02
#       7
#    16  16   8   4  16   8  16
#     4   9  17  30  48  76 103 130 158 204 253 302
#     4  11  23  36  50  71 102 138 173 209 247 301
#     4  12  24  34  52  72 103 141 170 200 248 298
#     4  10  22  34  42  76 116 132 162 204 244 310
#     4   9  18  31  49  71 100 126 163 206 253 302
#     4   8  18  26  48  70 105 131 154 189 251 300
#     4  10  20  32  49  72  95 129 173 210 250 293
#
# _framework density 25.053684000000001
#
# number of rings (size 3 to 8) (size 9 to 14) (size 15 to 20)
#    0.286    1.905    0.952    2.286    5.333    2.667 
#    0.000    0.000    0.000    0.000    0.000   12.000 
#    0.000    3.048    0.000    0.000    0.000    0.000 
#
# Total GULP energy -234110.276210 kJ/mol
# GULP energy per Si atom -5574.054195 kJ/mol
# Density = 2.499666 g / cm^3
# Si number density = 25.053684 Si / 1000 Ang^3
#
#
#
# Elastic Constant Matrix: (Units=GPa)
#
#
# Indices 1 2 3 4 5 6 
#
# 1 148.6941 7.3487 22.6753 0.0000 0.0000 0.0000
# 2 7.3487 145.2332 16.8722 0.0000 0.0000 0.0000
# 3 22.6753 16.8722 65.0551 -0.0001 0.0000 0.0000
# 4 0.0000 0.0000 -0.0001 9.0714 0.0000 0.0000
# 5 0.0000 0.0000 0.0000 0.0000 25.0002 0.0000
# 6 0.0000 0.0000 0.0000 0.0000 0.0000 11.1496
#
#
#
# Elastic Compliance Matrix: (Units=1/GPa)
#
#
# Indices 1 2 3 4 5 6 
#
# 1 0.007104 -0.000074 -0.002457 0.000000 0.000000 0.000000
# 2 -0.000074 0.007100 -0.001816 0.000000 0.000000 0.000000
# 3 -0.002457 -0.001816 0.016699 0.000000 0.000000 0.000000
# 4 0.000000 0.000000 0.000000 0.110237 0.000000 0.000000
# 5 0.000000 0.000000 0.000000 0.000000 0.040000 0.000000
# 6 0.000000 0.000000 0.000000 0.000000 0.000000 0.089689
#
#
# Mechanical properties :
#
#
# Convention : Reuss Voigt Hill
#
# Bulk Modulus (GPa) = 45.02555 50.30830 47.66693
# Shear Modulus (GPa) = 17.42620 29.84998 23.63809
#
# Velocity S-wave (km/s) = 2.64020 3.45547 3.07497
# Velocity P-wave (km/s) = 5.22540 6.00368 5.62801
#
# Compressibility (1/GPa) = 0.02220961
#
# Stress axis : x y z
#
# Youngs Moduli (GPa) = 140.77520 140.84205 59.88451
#
# Poissons Ratio (x) = 0.01043 0.14712
# Poissons Ratio (y) = 0.01042 0.10873
# Poissons Ratio (z) = 0.34585 0.25572
#
# Static dielectric constant tensor:
#      x y z
#    x 2.108140 0.000000 0.000000 
#    y 0.000000 2.021570 0.000000 
#    z 0.000000 0.000000 1.968580 
# 
# From -- ./inp_files/32256.got.cif
#   From: 2010.05.17/outbox.cif.g08.bks.cpg/sg74_17_cif.got.tgz:32256.got - 2010.06.03 17:57:02.
