data_PCOD9537437
_publ_section_title
;
Structure prediction by ZEFSAII (Michael W. Deem and Ramdas Pophale) SiO2 
 PCOD9537437
Probable space group: I M M A
;
_chemical_formula_sum "Si O2"
_cell_formula_units_Z 112
_cell_length_a 19.137261
_cell_length_b 24.428490
_cell_length_c 13.872806
_cell_angle_alpha 90.000000
_cell_angle_beta 90.000000
_cell_angle_gamma 90.000000
_cell_volume 6485.458964
_symmetry_space_group_name_H-M "I M M A"
_symmetry_group_IT_number 74
_symmetry_cell_setting 'orthorhombic'
loop_
_space_group_symop_operation_xyz
x,y,z
-x,1/2-y,z
x,-y,-z
-x,1/2+y,-z
-x,-y,-z
x,1/2+y,-z
-x,y,z
x,1/2-y,z
1/2+x,1/2+y,1/2+z
1/2-x,-y,1/2+z
1/2+x,1/2-y,1/2-z
1/2-x,y,1/2-z
1/2-x,1/2-y,1/2-z
1/2+x,y,1/2-z
1/2-x,1/2+y,1/2+z
1/2+x,-y,1/2+z
loop_
_atom_site_type_symbol
_atom_site_label
_atom_site_fract_x
_atom_site_fract_y
_atom_site_fract_z
Si Si1 0.323810 0.313621 0.804929
Si Si2 0.416333 0.971567 0.708184
Si Si3 0.672676 0.623992 0.787958
Si Si4 0.212017 0.686804 0.527290
Si Si5 0.920639 0.581885 0.985180
Si Si6 0.084008 0.404549 0.798386
Si Si7 0.631443 0.311751 0.395162
O O1 0.347473 0.250000 0.794722
O O2 0.250000 0.318087 0.750000
O O3 0.376811 0.357065 0.758898
O O4 0.309216 0.324456 0.917744
O O5 0.500000 0.962645 0.708111
O O6 0.377894 0.927194 0.773314
O O7 0.391848 0.958849 0.597243
O O8 0.403497 0.033779 0.739295
O O9 0.750000 0.608451 0.750000
O O10 0.677595 0.646676 0.895345
O O11 0.648559 0.672096 0.714953
O O12 0.192993 0.750000 0.548982
O O13 0.295472 0.683374 0.546160
O O14 0.918122 0.641238 0.935243
O O15 0.000000 0.563996 0.003664
O O16 0.889475 0.590850 0.090747
O O17 0.000000 0.394572 0.798307
O O18 0.605616 0.250000 0.403729
#
# Coordination Sequence:
#
# PCOD9537437 Si02
#       7
#    16  16  16  16  16  16  16
#     4  10  21  36  53  73  98 128 162 199 238 281
#     4   9  18  33  51  72  99 128 158 196 243 291
#     4   9  17  30  50  75  99 125 159 198 239 286
#     4   9  17  31  50  70  96 129 161 196 241 289
#     4   9  17  29  47  71  99 129 158 192 238 291
#     4  10  20  34  52  72  96 129 165 199 238 284
#     4   9  16  27  46  73 101 126 156 195 240 289
#
# _framework density 17.269401999999999
#
# number of rings (size 3 to 8) (size 9 to 14) (size 15 to 20)
#    0.000    2.714    0.000    1.714    0.000    6.286 
#    0.000    2.857    0.000    3.857    0.000    0.000 
#    0.000    0.000    0.000    0.000    0.000    0.000 
#
# Total GULP energy -311958.797944 kJ/mol
# GULP energy per Si atom -5570.692820 kJ/mol
# Density = 1.723010 g / cm^3
# Si number density = 17.269402 Si / 1000 Ang^3
#
#
#
# Elastic Constant Matrix: (Units=GPa)
#
#
# Indices 1 2 3 4 5 6 
#
# 1 40.1835 51.5184 40.4691 0.0000 0.0000 0.0000
# 2 51.5184 132.0616 68.8053 0.0000 0.0000 0.0000
# 3 40.4691 68.8053 112.9390 0.0000 0.0000 0.0000
# 4 0.0000 0.0000 0.0000 20.4362 0.0000 0.0000
# 5 0.0000 0.0000 0.0000 0.0000 21.5024 0.0000
# 6 0.0000 0.0000 0.0000 0.0000 0.0000 28.8022
#
#
#
# Elastic Compliance Matrix: (Units=1/GPa)
#
#
# Indices 1 2 3 4 5 6 
#
# 1 0.056571 -0.016859 -0.010000 0.000000 0.000000 0.000000
# 2 -0.016859 0.016117 -0.003778 0.000000 0.000000 0.000000
# 3 -0.010000 -0.003778 0.014739 0.000000 0.000000 0.000000
# 4 0.000000 0.000000 0.000000 0.048933 0.000000 0.000000
# 5 0.000000 0.000000 0.000000 0.000000 0.046506 0.000000
# 6 0.000000 0.000000 0.000000 0.000000 0.000000 0.034720
#
#
# Mechanical properties :
#
#
# Convention : Reuss Voigt Hill
#
# Bulk Modulus (GPa) = 38.23529 67.41886 52.82708
# Shear Modulus (GPa) = 17.38648 22.44092 19.91370
#
# Velocity S-wave (km/s) = 3.17642 3.60871 3.39945
# Velocity P-wave (km/s) = 5.97004 7.51585 6.78710
#
# Compressibility (1/GPa) = 0.02615385
#
# Stress axis : x y z
#
# Youngs Moduli (GPa) = 17.67675 62.04449 67.84498
#
# Poissons Ratio (x) = 1.04600 0.67847
# Poissons Ratio (y) = 0.29801 0.25633
# Poissons Ratio (z) = 0.17677 0.23442
#
# Static dielectric constant tensor:
#      x y z
#    x 1.582460 0.000000 0.000000 
#    y 0.000000 1.593640 0.000000 
#    z 0.000000 0.000000 1.595500 
# 
# From -- ./inp_files/24169.got.cif
#   From: 2010.05.17/outbox.cif.g08.bks.cpg/sg74_13_cif.got.tgz:24169.got - 2010.06.03 17:57:02.
