data_PCOD9537601
_publ_section_title
;
Structure prediction by ZEFSAII (Michael W. Deem and Ramdas Pophale) SiO2 
 PCOD9537601
Probable space group: I M M A
;
_chemical_formula_sum "Si O2"
_cell_formula_units_Z 116
_cell_length_a 8.817930
_cell_length_b 28.530735
_cell_length_c 26.869182
_cell_angle_alpha 90.000000
_cell_angle_beta 90.000000
_cell_angle_gamma 90.000000
_cell_volume 6759.803193
_symmetry_space_group_name_H-M "I M M A"
_symmetry_group_IT_number 74
_symmetry_cell_setting 'orthorhombic'
loop_
_space_group_symop_operation_xyz
x,y,z
-x,1/2-y,z
x,-y,-z
-x,1/2+y,-z
-x,-y,-z
x,1/2+y,-z
-x,y,z
x,1/2-y,z
1/2+x,1/2+y,1/2+z
1/2-x,-y,1/2+z
1/2+x,1/2-y,1/2-z
1/2-x,y,1/2-z
1/2-x,1/2-y,1/2-z
1/2+x,y,1/2-z
1/2-x,1/2+y,1/2+z
1/2+x,-y,1/2+z
loop_
_atom_site_type_symbol
_atom_site_label
_atom_site_fract_x
_atom_site_fract_y
_atom_site_fract_z
Si Si1 0.169688 0.526576 0.947415
Si Si2 0.176871 0.803445 0.947534
Si Si3 0.181638 0.888632 0.499619
Si Si4 0.821461 0.059786 0.601021
Si Si5 0.179964 0.973654 0.195883
Si Si6 0.750000 0.250000 0.250000
Si Si7 0.182469 0.676686 0.659417
Si Si8 0.318057 0.918024 0.695102
O O1 0.241351 0.576184 0.960752
O O2 0.280136 0.492273 0.918132
O O3 0.000000 0.530373 0.924958
O O4 0.153722 0.500000 0.000000
O O5 0.183707 0.750000 0.964933
O O6 0.261738 0.837766 0.985202
O O7 0.253407 0.805830 0.893167
O O8 0.000000 0.817286 0.942919
O O9 0.226711 0.905669 0.443955
O O10 0.000000 0.892757 0.503046
O O11 0.739259 0.061654 0.653891
O O12 0.000000 0.064870 0.607815
O O13 0.250000 0.965009 0.250000
O O14 0.000000 0.970971 0.199243
O O15 0.217467 0.028015 0.181661
O O16 0.761514 0.208845 0.294237
O O17 0.241182 0.623319 0.664162
O O18 0.000000 0.678543 0.660180
O O19 0.500000 0.912075 0.695159
O O20 0.250000 0.911830 0.750000
#
# Coordination Sequence:
#
# PCOD9537601 Si02
#       8
#    16  16  16  16  16   4  16  16
#     4   9  17  30  49  74 104 137 175 219 265 314
#     4  11  25  42  59  79 106 138 178 228 283 337
#     4  10  21  37  57  80 107 140 179 224 275 329
#     4  10  20  34  54  80 110 144 182 222 266 323
#     4  10  21  36  54  78 110 147 182 221 268 318
#     4  12  26  40  60  82 102 128 186 236 288 340
#     4  12  25  40  59  77 101 136 177 229 287 336
#     4  10  21  36  53  73 100 134 176 221 268 320
#
# _framework density 17.160261999999999
#
# number of rings (size 3 to 8) (size 9 to 14) (size 15 to 20)
#    0.000    1.655    1.379    3.103    1.931    7.448 
#    0.000    0.000    0.000    0.000    0.000    0.000 
#    0.000    0.552    0.000    1.793    0.000    2.621 
#
# Total GULP energy -323206.601863 kJ/mol
# GULP energy per Si atom -5572.527618 kJ/mol
# Density = 1.712120 g / cm^3
# Si number density = 17.160262 Si / 1000 Ang^3
#
#
#
# Elastic Constant Matrix: (Units=GPa)
#
#
# Indices 1 2 3 4 5 6 
#
# 1 50.0658 29.9646 27.8853 0.0000 0.0000 0.0000
# 2 29.9646 65.6738 49.9188 0.0000 0.0000 0.0000
# 3 27.8853 49.9188 94.5473 0.0000 0.0000 0.0000
# 4 0.0000 0.0000 0.0000 -71.8871 0.0000 0.0000
# 5 0.0000 0.0000 0.0000 0.0000 24.4423 0.0000
# 6 0.0000 0.0000 0.0000 0.0000 0.0000 -3.9221
#
#
#
# Elastic Compliance Matrix: (Units=1/GPa)
#
#
# Indices 1 2 3 4 5 6 
#
# 1 0.027830 -0.010788 -0.002512 0.000000 0.000000 0.000000
# 2 -0.010788 0.029616 -0.012455 0.000000 0.000000 0.000000
# 3 -0.002512 -0.012455 0.017893 0.000000 0.000000 0.000000
# 4 0.000000 0.000000 0.000000 -0.013911 0.000000 0.000000
# 5 0.000000 0.000000 0.000000 0.000000 0.040913 0.000000
# 6 0.000000 0.000000 0.000000 0.000000 0.000000 -0.254967
#
#
# Mechanical properties :
#
#
# Convention : Reuss Voigt Hill
#
# Bulk Modulus (GPa) = 41.96562 47.31381 44.63971
# Shear Modulus (GPa) = -53.66348 -3.43882 -28.55115
#
# Velocity S-wave (km/s) = -5.59820 -1.41714 -4.08339
# Velocity P-wave (km/s) = 4.15671 4.99538 1.95903
#
# Compressibility (1/GPa) = 0.02382903
#
# Stress axis : x y z
#
# Youngs Moduli (GPa) = 35.93291 33.76567 55.88678
#
# Poissons Ratio (x) = 0.36428 0.14038
# Poissons Ratio (y) = 0.38766 0.69605
# Poissons Ratio (z) = 0.09026 0.42054
#
# Static dielectric constant tensor:
#      x y z
#    x 1.589420 0.000000 0.000000 
#    y 0.000000 1.575930 0.000000 
#    z 0.000000 0.000000 1.698960 
# 
# From -- ./inp_files/64872.got.cif
#   From: 2010.05.17/outbox.cif.g08.bks.cpg/sg74_33_cif.got.tgz:64872.got - 2010.06.03 17:57:02.
