data_PCOD9537182
_publ_section_title
;
Structure prediction by ZEFSAII (Michael W. Deem and Ramdas Pophale) SiO2 
 PCOD9537182
Probable space group: I M M A
;
_chemical_formula_sum "Si O2"
_cell_formula_units_Z 64
_cell_length_a 7.972022
_cell_length_b 17.853759
_cell_length_c 29.118844
_cell_angle_alpha 90.000000
_cell_angle_beta 90.000000
_cell_angle_gamma 90.000000
_cell_volume 4144.501359
_symmetry_space_group_name_H-M "I M M A"
_symmetry_group_IT_number 74
_symmetry_cell_setting 'orthorhombic'
loop_
_space_group_symop_operation_xyz
x,y,z
-x,1/2-y,z
x,-y,-z
-x,1/2+y,-z
-x,-y,-z
x,1/2+y,-z
-x,y,z
x,1/2-y,z
1/2+x,1/2+y,1/2+z
1/2-x,-y,1/2+z
1/2+x,1/2-y,1/2-z
1/2-x,y,1/2-z
1/2-x,1/2-y,1/2-z
1/2+x,y,1/2-z
1/2-x,1/2+y,1/2+z
1/2+x,-y,1/2+z
loop_
_atom_site_type_symbol
_atom_site_label
_atom_site_fract_x
_atom_site_fract_y
_atom_site_fract_z
Si Si1 0.298965 0.336465 0.302827
Si Si2 0.306526 0.447658 0.954705
Si Si3 0.000000 0.667748 0.932069
Si Si4 0.500000 0.335369 0.541244
Si Si5 0.685696 0.915181 0.890550
O O1 0.500000 0.341815 0.307498
O O2 0.249073 0.250000 0.314127
O O3 0.250000 0.349128 0.250000
O O4 0.214631 0.395357 0.337316
O O5 0.500000 0.421209 0.960803
O O6 0.167372 0.383705 0.948611
O O7 0.302058 0.500634 0.909681
O O8 0.268955 0.500000 0.000000
O O9 0.833555 0.627402 0.915930
O O10 0.000000 0.750000 0.911288
O O11 0.000000 0.671101 0.986352
O O12 0.500000 0.250000 0.560010
O O13 0.500000 0.888287 0.903809
#
# Coordination Sequence:
#
# PCOD9537182 Si02
#       5
#    16  16   8   8  16
#     4  10  20  33  48  70 102 137 170 207 247 288
#     4  10  20  35  52  72  99 133 170 210 256 299
#     4  11  21  31  45  71 100 130 174 212 245 296
#     4  11  22  34  52  74 102 134 166 214 262 300
#     4  11  21  33  51  70  94 134 174 211 251 295
#
# _framework density 15.442148
#
# number of rings (size 3 to 8) (size 9 to 14) (size 15 to 20)
#    0.000    1.500    3.750    2.625    0.000    3.500 
#    0.000    2.500    0.000    0.000    0.000    0.000 
#    0.000    1.000    0.500    0.000    0.000    0.000 
#
# Total GULP energy -178385.436404 kJ/mol
# GULP energy per Si atom -5574.544888 kJ/mol
# Density = 1.540700 g / cm^3
# Si number density = 15.442148 Si / 1000 Ang^3
#
#
#
# Elastic Constant Matrix: (Units=GPa)
#
#
# Indices 1 2 3 4 5 6 
#
# 1 134.0252 70.6307 17.6341 0.0000 0.0000 0.0000
# 2 70.6307 87.3781 33.6853 0.0000 0.0000 0.0000
# 3 17.6341 33.6853 76.7348 0.0000 0.0000 0.0000
# 4 0.0000 0.0000 0.0000 26.0612 0.0000 0.0000
# 5 0.0000 0.0000 0.0000 0.0000 27.9540 0.0000
# 6 0.0000 0.0000 0.0000 0.0000 0.0000 13.3305
#
#
#
# Elastic Compliance Matrix: (Units=1/GPa)
#
#
# Indices 1 2 3 4 5 6 
#
# 1 0.013247 -0.011477 0.001994 0.000000 0.000000 0.000000
# 2 -0.011477 0.023719 -0.007775 0.000000 0.000000 0.000000
# 3 0.001994 -0.007775 0.015987 0.000000 0.000000 0.000000
# 4 0.000000 0.000000 0.000000 0.038371 0.000000 0.000000
# 5 0.000000 0.000000 0.000000 0.000000 0.035773 0.000000
# 6 0.000000 0.000000 0.000000 0.000000 0.000000 0.075016
#
#
# Mechanical properties :
#
#
# Convention : Reuss Voigt Hill
#
# Bulk Modulus (GPa) = 54.23783 60.22649 57.23216
# Shear Modulus (GPa) = 20.59530 25.21502 22.90516
#
# Velocity S-wave (km/s) = 3.65596 4.04526 3.85553
# Velocity P-wave (km/s) = 7.28154 7.80416 7.54738
#
# Compressibility (1/GPa) = 0.01843732
#
# Stress axis : x y z
#
# Youngs Moduli (GPa) = 75.48789 42.16061 62.55209
#
# Poissons Ratio (x) = 0.48387 -0.12472
# Poissons Ratio (y) = 0.86636 0.48633
# Poissons Ratio (z) = -0.15051 0.32779
#
# Static dielectric constant tensor:
#      x y z
#    x 1.534420 0.000000 0.000000 
#    y 0.000000 1.523430 0.000000 
#    z 0.000000 0.000000 1.528990 
# 
# From -- ./inp_files/69918.got.cif
#   From: 2010.05.17/outbox.cif.g08.bks.cpg/sg74_35_cif.got.tgz:69918.got - 2010.06.03 17:57:02.
