data_PCOD9537273
_publ_section_title
;
Structure prediction by ZEFSAII (Michael W. Deem and Ramdas Pophale) SiO2 
 PCOD9537273
Probable space group: I M M A
;
_chemical_formula_sum "Si O2"
_cell_formula_units_Z 96
_cell_length_a 8.777699
_cell_length_b 24.097175
_cell_length_c 26.070059
_cell_angle_alpha 90.000000
_cell_angle_beta 90.000000
_cell_angle_gamma 90.000000
_cell_volume 5514.280193
_symmetry_space_group_name_H-M "I M M A"
_symmetry_group_IT_number 74
_symmetry_cell_setting 'orthorhombic'
loop_
_space_group_symop_operation_xyz
x,y,z
-x,1/2-y,z
x,-y,-z
-x,1/2+y,-z
-x,-y,-z
x,1/2+y,-z
-x,y,z
x,1/2-y,z
1/2+x,1/2+y,1/2+z
1/2-x,-y,1/2+z
1/2+x,1/2-y,1/2-z
1/2-x,y,1/2-z
1/2-x,1/2-y,1/2-z
1/2+x,y,1/2-z
1/2-x,1/2+y,1/2+z
1/2+x,-y,1/2+z
loop_
_atom_site_type_symbol
_atom_site_label
_atom_site_fract_x
_atom_site_fract_y
_atom_site_fract_z
Si Si1 0.183852 0.685941 0.694224
Si Si2 0.316242 0.500847 0.440144
Si Si3 0.316080 0.887040 0.902211
Si Si4 0.182292 0.314476 0.694102
Si Si5 0.816509 0.314557 0.501370
Si Si6 0.182497 0.877742 0.098366
O O1 0.226843 0.750000 0.682092
O O2 0.250000 0.672209 0.750000
O O3 0.233961 0.644207 0.649546
O O4 0.000000 0.684230 0.696617
O O5 0.267074 0.500000 0.500000
O O6 0.500000 0.497512 0.439765
O O7 0.250013 0.447960 0.410882
O O8 0.271037 0.559101 0.414604
O O9 0.500000 0.890012 0.901303
O O10 0.272435 0.849673 0.951307
O O11 0.222325 0.250000 0.682132
O O12 0.250000 0.327208 0.750000
O O13 0.247627 0.354084 0.650467
O O14 0.000000 0.318447 0.695701
O O15 0.777903 0.250000 0.494932
O O16 0.739110 0.340053 0.551339
O O17 0.000000 0.318463 0.507164
O O18 0.000000 0.875791 0.101264
#
# Coordination Sequence:
#
# PCOD9537273 Si02
#       6
#    16  16  16  16  16  16
#     4   9  18  34  55  80 110 142 177 220 270 322
#     4  10  21  38  55  75 108 147 183 224 272 318
#     4  10  20  34  55  80 106 140 183 225 269 323
#     4  10  21  38  60  85 113 144 179 222 272 325
#     4  10  20  33  51  78 110 140 173 220 275 328
#     4  11  22  36  55  79 109 145 184 224 270 321
#
# _framework density 17.409344999999998
#
# number of rings (size 3 to 8) (size 9 to 14) (size 15 to 20)
#    0.000    2.000    1.667    2.000    0.000    7.667 
#    0.000    0.833    0.000    5.000    0.000    0.000 
#    0.000    0.000    0.000    0.000    0.000    0.000 
#
# Total GULP energy -268017.594421 kJ/mol
# GULP energy per Si atom -5583.699884 kJ/mol
# Density = 1.736972 g / cm^3
# Si number density = 17.409345 Si / 1000 Ang^3
#
#
#
# Elastic Constant Matrix: (Units=GPa)
#
#
# Indices 1 2 3 4 5 6 
#
# 1 20.6082 37.9720 38.0108 0.0000 0.0000 0.0000
# 2 37.9720 134.6477 90.9379 0.0000 0.0000 0.0000
# 3 38.0108 90.9379 148.3298 0.0000 0.0000 0.0000
# 4 0.0000 0.0000 0.0000 19.9526 0.0000 0.0000
# 5 0.0000 0.0000 0.0000 0.0000 31.3602 0.0000
# 6 0.0000 0.0000 0.0000 0.0000 0.0000 20.7543
#
#
#
# Elastic Compliance Matrix: (Units=1/GPa)
#
#
# Indices 1 2 3 4 5 6 
#
# 1 0.122843 -0.022839 -0.017478 0.000000 0.000000 0.000000
# 2 -0.022839 0.016921 -0.004521 0.000000 0.000000 0.000000
# 3 -0.017478 -0.004521 0.013992 0.000000 0.000000 0.000000
# 4 0.000000 0.000000 0.000000 0.050119 0.000000 0.000000
# 5 0.000000 0.000000 0.000000 0.000000 0.031888 0.000000
# 6 0.000000 0.000000 0.000000 0.000000 0.000000 0.048183
#
#
# Mechanical properties :
#
#
# Convention : Reuss Voigt Hill
#
# Bulk Modulus (GPa) = 15.60522 70.82522 43.21522
# Shear Modulus (GPa) = 12.65879 23.52444 18.09161
#
# Velocity S-wave (km/s) = 2.69945 3.67993 3.22714
# Velocity P-wave (km/s) = 4.32426 7.66984 6.22598
#
# Compressibility (1/GPa) = 0.06408112
#
# Stress axis : x y z
#
# Youngs Moduli (GPa) = 8.14045 59.09730 71.46723
#
# Poissons Ratio (x) = 1.34973 1.24907
# Poissons Ratio (y) = 0.18592 0.32313
# Poissons Ratio (z) = 0.14227 0.26720
#
# Static dielectric constant tensor:
#      x y z
#    x 1.588560 0.000000 0.000000 
#    y 0.000000 1.575210 0.000000 
#    z 0.000000 0.000000 1.562980 
# 
# From -- ./inp_files/57243.got.cif
#   From: 2010.05.17/outbox.cif.g08.bks.cpg/sg74_29_cif.got.tgz:57243.got - 2010.06.03 17:57:02.
