data_PCOD9537113
_publ_section_title
;
Structure prediction by ZEFSAII (Michael W. Deem and Ramdas Pophale) SiO2 
 PCOD9537113
Probable space group: I M M A
;
_chemical_formula_sum "Si O2"
_cell_formula_units_Z 104
_cell_length_a 7.727397
_cell_length_b 22.467618
_cell_length_c 27.664038
_cell_angle_alpha 90.000000
_cell_angle_beta 90.000000
_cell_angle_gamma 90.000000
_cell_volume 4802.925263
_symmetry_space_group_name_H-M "I M M A"
_symmetry_group_IT_number 74
_symmetry_cell_setting 'orthorhombic'
loop_
_space_group_symop_operation_xyz
x,y,z
-x,1/2-y,z
x,-y,-z
-x,1/2+y,-z
-x,-y,-z
x,1/2+y,-z
-x,y,z
x,1/2-y,z
1/2+x,1/2+y,1/2+z
1/2-x,-y,1/2+z
1/2+x,1/2-y,1/2-z
1/2-x,y,1/2-z
1/2-x,1/2-y,1/2-z
1/2+x,y,1/2-z
1/2-x,1/2+y,1/2+z
1/2+x,-y,1/2+z
loop_
_atom_site_type_symbol
_atom_site_label
_atom_site_fract_x
_atom_site_fract_y
_atom_site_fract_z
Si Si1 0.202535 0.181523 0.981436
Si Si2 0.710402 0.356143 0.872850
Si Si3 0.792555 0.539611 0.304965
Si Si4 0.207951 0.183324 0.304077
Si Si5 0.793811 0.556338 0.531373
Si Si6 0.793181 0.750000 0.305657
Si Si7 0.212414 0.572857 0.639464
O O1 0.273062 0.250000 0.988841
O O2 0.226466 0.163305 0.925298
O O3 0.000000 0.184833 0.992375
O O4 0.270161 0.123148 0.010047
O O5 0.500000 0.357045 0.876059
O O6 0.768212 0.417478 0.848308
O O7 0.768951 0.307336 0.834140
O O8 0.750000 0.557018 0.250000
O O9 0.732964 0.474027 0.319678
O O10 0.000000 0.540965 0.307247
O O11 0.277733 0.250000 0.309296
O O12 0.250000 0.162123 0.250000
O O13 0.271013 0.137742 0.344128
O O14 0.000000 0.185996 0.307741
O O15 0.725535 0.500000 0.500000
O O16 0.726872 0.555361 0.586225
O O17 0.000000 0.547078 0.534184
O O18 0.750000 0.750000 0.250000
O O19 0.000000 0.750000 0.309671
O O20 0.000000 0.572827 0.638550
#
# Coordination Sequence:
#
# PCOD9537113 Si02
#       7
#    16  16  16  16  16   8  16
#     4  11  24  40  59  86 118 152 192 244 301 355
#     4  10  20  36  56  78 107 147 192 232 275 334
#     4  10  20  34  54  81 113 146 183 228 276 332
#     4   9  17  30  49  73 102 135 171 210 255 313
#     4  10  21  39  63  87 112 148 194 242 291 347
#     4  10  20  32  50  76 106 140 182 228 275 330
#     4   9  18  33  53  78 106 138 179 224 270 327
#
# _framework density 21.653469999999999
#
# number of rings (size 3 to 8) (size 9 to 14) (size 15 to 20)
#    0.000    2.154    0.769    2.308    0.000    5.538 
#    0.000    3.077    0.000    1.846    0.000    0.000 
#    0.000    0.000    0.000    0.000    0.000    0.000 
#
# Total GULP energy -290099.898963 kJ/mol
# GULP energy per Si atom -5578.844211 kJ/mol
# Density = 2.160419 g / cm^3
# Si number density = 21.653470 Si / 1000 Ang^3
#
#
#
# Elastic Constant Matrix: (Units=GPa)
#
#
# Indices 1 2 3 4 5 6 
#
# 1 28.5724 2.6635 -2.4411 0.0000 0.0000 0.0000
# 2 2.6635 116.4752 38.2814 0.0000 0.0000 0.0000
# 3 -2.4411 38.2814 61.2343 0.0000 0.0000 0.0000
# 4 0.0000 0.0000 0.0000 47.9015 0.0000 0.0000
# 5 0.0000 0.0000 0.0000 0.0000 22.7431 0.0000
# 6 0.0000 0.0000 0.0000 0.0000 0.0000 7.4485
#
#
#
# Elastic Compliance Matrix: (Units=1/GPa)
#
#
# Indices 1 2 3 4 5 6 
#
# 1 0.035354 -0.001601 0.002410 0.000000 0.000000 0.000000
# 2 -0.001601 0.010878 -0.006864 0.000000 0.000000 0.000000
# 3 0.002410 -0.006864 0.020718 0.000000 0.000000 0.000000
# 4 0.000000 0.000000 0.000000 0.020876 0.000000 0.000000
# 5 0.000000 0.000000 0.000000 0.000000 0.043969 0.000000
# 6 0.000000 0.000000 0.000000 0.000000 0.000000 0.134255
#
#
# Mechanical properties :
#
#
# Convention : Reuss Voigt Hill
#
# Bulk Modulus (GPa) = 18.23477 31.47662 24.85569
# Shear Modulus (GPa) = 16.86674 26.80382 21.83528
#
# Velocity S-wave (km/s) = 2.79398 3.52213 3.17897
# Velocity P-wave (km/s) = 4.34141 5.57751 4.99782
#
# Compressibility (1/GPa) = 0.05484029
#
# Stress axis : x y z
#
# Youngs Moduli (GPa) = 28.28542 91.92663 48.26673
#
# Poissons Ratio (x) = 0.14713 -0.11632
# Poissons Ratio (y) = 0.04527 0.33133
# Poissons Ratio (z) = -0.06817 0.63103
#
# Static dielectric constant tensor:
#      x y z
#    x 1.811890 0.000000 0.000000 
#    y 0.000000 1.843110 0.000000 
#    z 0.000000 0.000000 1.790560 
# 
# From -- ./inp_files/64457.got.cif
#   From: 2010.05.17/outbox.cif.g08.bks.cpg/sg74_33_cif.got.tgz:64457.got - 2010.06.03 17:57:02.
