data_PCOD9537738
_publ_section_title
;
Structure prediction by ZEFSAII (Michael W. Deem and Ramdas Pophale) SiO2 
 PCOD9537738
Probable space group: I M M A
;
_chemical_formula_sum "Si O2"
_cell_formula_units_Z 96
_cell_length_a 22.932543
_cell_length_b 14.235296
_cell_length_c 13.163947
_cell_angle_alpha 90.000000
_cell_angle_beta 90.000000
_cell_angle_gamma 90.000000
_cell_volume 4297.390740
_symmetry_space_group_name_H-M "I M M A"
_symmetry_group_IT_number 74
_symmetry_cell_setting 'orthorhombic'
loop_
_space_group_symop_operation_xyz
x,y,z
-x,1/2-y,z
x,-y,-z
-x,1/2+y,-z
-x,-y,-z
x,1/2+y,-z
-x,y,z
x,1/2-y,z
1/2+x,1/2+y,1/2+z
1/2-x,-y,1/2+z
1/2+x,1/2-y,1/2-z
1/2-x,y,1/2-z
1/2-x,1/2-y,1/2-z
1/2+x,y,1/2-z
1/2-x,1/2+y,1/2+z
1/2+x,-y,1/2+z
loop_
_atom_site_type_symbol
_atom_site_label
_atom_site_fract_x
_atom_site_fract_y
_atom_site_fract_z
Si Si1 0.122628 0.470452 0.136853
Si Si2 0.933273 0.646786 0.710607
Si Si3 0.255513 0.949674 0.865944
Si Si4 0.935981 0.610588 0.476948
Si Si5 0.931149 0.641624 0.045246
Si Si6 0.807209 0.357238 0.564499
O O1 0.110210 0.430972 0.248127
O O2 0.188077 0.453892 0.101770
O O3 0.103805 0.577662 0.124592
O O4 0.082351 0.407948 0.062399
O O5 0.918499 0.750000 0.752153
O O6 0.932937 0.652217 0.589837
O O7 0.000000 0.623443 0.739948
O O8 0.250000 0.915471 0.750000
O O9 0.291077 0.887372 0.947465
O O10 0.279993 0.056532 0.871665
O O11 0.934013 0.500000 0.500000
O O12 0.877145 0.639354 0.421384
O O13 0.000000 0.632509 0.431636
O O14 0.913506 0.750000 0.044136
O O15 0.000000 0.635766 0.065263
O O16 0.787116 0.250000 0.583372
#
# Coordination Sequence:
#
# PCOD9537738 Si02
#       6
#    16  16  16  16  16  16
#     4  11  21  34  59  82 114 163 199 245 293 351
#     4  10  20  34  57  92 124 150 190 241 297 359
#     4  11  25  42  60  88 123 160 210 256 298 354
#     4  10  20  37  64  91 120 153 185 236 301 364
#     4  10  20  35  56  85 119 153 196 246 300 360
#     4  11  23  42  66  90 123 161 203 252 305 360
#
# _framework density 22.339137000000001
#
# number of rings (size 3 to 8) (size 9 to 14) (size 15 to 20)
#    0.000    1.500    1.667    6.000    0.000    6.333 
#    0.000    0.000    0.000    0.000    0.000    0.000 
#    0.000    0.000    0.000    0.000    0.000    0.000 
#
# Total GULP energy -268167.200582 kJ/mol
# GULP energy per Si atom -5586.816679 kJ/mol
# Density = 2.228829 g / cm^3
# Si number density = 22.339137 Si / 1000 Ang^3
#
#
#
# Elastic Constant Matrix: (Units=GPa)
#
#
# Indices 1 2 3 4 5 6 
#
# 1 90.0539 20.2378 -2.0984 0.0000 0.0000 0.0000
# 2 20.2378 123.7513 -12.0708 0.0000 0.0000 0.0000
# 3 -2.0984 -12.0708 26.4426 0.0000 0.0000 0.0000
# 4 0.0000 0.0000 0.0000 18.7514 0.0000 0.0000
# 5 0.0000 0.0000 0.0000 0.0000 18.7887 0.0000
# 6 0.0000 0.0000 0.0000 0.0000 0.0000 9.2252
#
#
#
# Elastic Compliance Matrix: (Units=1/GPa)
#
#
# Indices 1 2 3 4 5 6 
#
# 1 0.011528 -0.001880 0.000057 0.000000 0.000000 0.000000
# 2 -0.001880 0.008764 0.003851 0.000000 0.000000 0.000000
# 3 0.000057 0.003851 0.039580 0.000000 0.000000 0.000000
# 4 0.000000 0.000000 0.000000 0.053329 0.000000 0.000000
# 5 0.000000 0.000000 0.000000 0.000000 0.053224 0.000000
# 6 0.000000 0.000000 0.000000 0.000000 0.000000 0.108399
#
#
# Mechanical properties :
#
#
# Convention : Reuss Voigt Hill
#
# Bulk Modulus (GPa) = 15.64230 28.04282 21.84256
# Shear Modulus (GPa) = 17.11876 24.96499 21.04188
#
# Velocity S-wave (km/s) = 2.77124 3.34660 3.07242
# Velocity P-wave (km/s) = 4.15416 5.24532 4.73131
#
# Compressibility (1/GPa) = 0.06392922
#
# Stress axis : x y z
#
# Youngs Moduli (GPa) = 86.74371 114.10580 25.26503
#
# Poissons Ratio (x) = 0.21449 -0.00143
# Poissons Ratio (y) = 0.16306 -0.09731
# Poissons Ratio (z) = -0.00492 -0.43947
#
# Static dielectric constant tensor:
#      x y z
#    x 1.842720 0.000000 0.000000 
#    y 0.000000 1.733010 0.000000 
#    z 0.000000 0.000000 1.888520 
# 
# From -- ./inp_files/35274.got.cif
#   From: 2010.05.17/outbox.cif.g08.bks.cpg/sg74_18_cif.got.tgz:35274.got - 2010.06.03 17:57:02.
