data_PCOD9537007
_publ_section_title
;
Structure prediction by ZEFSAII (Michael W. Deem and Ramdas Pophale) SiO2 
 PCOD9537007
Probable space group: I M M A
;
_chemical_formula_sum "Si O2"
_cell_formula_units_Z 88
_cell_length_a 19.192436
_cell_length_b 7.273704
_cell_length_c 29.086703
_cell_angle_alpha 90.000000
_cell_angle_beta 90.000000
_cell_angle_gamma 90.000000
_cell_volume 4060.506604
_symmetry_space_group_name_H-M "I M M A"
_symmetry_group_IT_number 74
_symmetry_cell_setting 'orthorhombic'
loop_
_space_group_symop_operation_xyz
x,y,z
-x,1/2-y,z
x,-y,-z
-x,1/2+y,-z
-x,-y,-z
x,1/2+y,-z
-x,y,z
x,1/2-y,z
1/2+x,1/2+y,1/2+z
1/2-x,-y,1/2+z
1/2+x,1/2-y,1/2-z
1/2-x,y,1/2-z
1/2-x,1/2-y,1/2-z
1/2+x,y,1/2-z
1/2-x,1/2+y,1/2+z
1/2+x,-y,1/2+z
loop_
_atom_site_type_symbol
_atom_site_label
_atom_site_fract_x
_atom_site_fract_y
_atom_site_fract_z
Si Si1 0.686377 0.026461 0.217422
Si Si2 0.135763 0.526148 0.890080
Si Si3 0.422974 0.968931 0.945662
Si Si4 0.000000 0.531215 0.945599
Si Si5 0.579404 0.026327 0.291236
Si Si6 0.291429 0.025389 0.112511
O O1 0.686889 0.250000 0.216232
O O2 0.750000 0.970579 0.250000
O O3 0.617342 0.968863 0.244603
O O4 0.695814 0.967621 0.165179
O O5 0.135553 0.750000 0.891286
O O6 0.071164 0.463228 0.921531
O O7 0.120272 0.472231 0.837337
O O8 0.213921 0.467939 0.903006
O O9 0.500000 0.039629 0.932130
O O10 0.424679 0.750000 0.938071
O O11 0.355815 0.038198 0.918456
O O12 0.414934 0.000000 0.000000
O O13 0.000000 0.750000 0.937813
O O14 0.000000 0.500000 0.000000
O O15 0.500000 0.965775 0.294298
O O16 0.579405 0.250000 0.291442
O O17 0.291116 0.250000 0.111808
#
# Coordination Sequence:
#
# PCOD9537007 Si02
#       6
#    16  16  16   8  16  16
#     4   9  14  20  32  53  82 114 142 168 205 255
#     4   9  15  25  40  57  80 114 149 178 214 261
#     4   9  18  32  48  65  88 117 147 182 224 265
#     4  10  20  32  46  64  88 116 150 192 227 258
#     4   9  14  20  32  51  77 112 148 172 200 256
#     4   9  16  25  40  61  87 117 147 180 219 263
#
# _framework density 21.672172
#
# number of rings (size 3 to 8) (size 9 to 14) (size 15 to 20)
#    0.000    2.909    2.727    0.000    0.000    1.455 
#    0.000    3.636    0.000    0.000    0.000    0.000 
#    0.000    2.182    0.000    0.182    0.000    0.000 
#
# Total GULP energy -245642.681991 kJ/mol
# GULP energy per Si atom -5582.788227 kJ/mol
# Density = 2.162285 g / cm^3
# Si number density = 21.672172 Si / 1000 Ang^3
#
#
#
# Elastic Constant Matrix: (Units=GPa)
#
#
# Indices 1 2 3 4 5 6 
#
# 1 245.7807 9.6923 110.2639 0.0000 0.0000 0.0000
# 2 9.6923 94.9541 -1.0811 0.0000 0.0000 0.0000
# 3 110.2639 -1.0811 119.2163 0.0000 0.0000 0.0000
# 4 0.0000 0.0000 0.0000 -10.8771 0.0000 0.0000
# 5 0.0000 0.0000 0.0000 0.0000 49.8906 0.0000
# 6 0.0000 0.0000 0.0000 0.0000 0.0000 -21.6329
#
#
#
# Elastic Compliance Matrix: (Units=1/GPa)
#
#
# Indices 1 2 3 4 5 6 
#
# 1 0.007013 -0.000790 -0.006494 0.000000 0.000000 0.000000
# 2 -0.000790 0.010621 0.000827 0.000000 0.000000 0.000000
# 3 -0.006494 0.000827 0.014401 0.000000 0.000000 0.000000
# 4 0.000000 0.000000 0.000000 -0.091936 0.000000 0.000000
# 5 0.000000 0.000000 0.000000 0.000000 0.020044 0.000000
# 6 0.000000 0.000000 0.000000 0.000000 0.000000 -0.046226
#
#
# Mechanical properties :
#
#
# Convention : Reuss Voigt Hill
#
# Bulk Modulus (GPa) = 52.29328 77.52238 64.90783
# Shear Modulus (GPa) = -74.85563 26.21452 -24.32056
#
# Velocity S-wave (km/s) = -5.88345 3.48169 -3.35356
# Velocity P-wave (km/s) = 4.68739 7.21187 3.87552
#
# Compressibility (1/GPa) = 0.01912292
#
# Stress axis : x y z
#
# Youngs Moduli (GPa) = 142.59279 94.14924 69.43722
#
# Poissons Ratio (x) = 0.07436 0.45089
# Poissons Ratio (y) = 0.11262 -0.05741
# Poissons Ratio (z) = 0.92593 -0.07784
#
# Static dielectric constant tensor:
#      x y z
#    x 1.783640 0.000000 0.000000 
#    y 0.000000 1.895850 0.000000 
#    z 0.000000 0.000000 1.722580 
# 
# From -- ./inp_files/72927.got.cif
#   From: 2010.05.17/outbox.cif.g08.bks.cpg/sg74_37_cif.got.tgz:72927.got - 2010.06.03 17:57:02.
