data_PCOD9537309
_publ_section_title
;
Structure prediction by ZEFSAII (Michael W. Deem and Ramdas Pophale) SiO2 
 PCOD9537309
Probable space group: I M M A
;
_chemical_formula_sum "Si O2"
_cell_formula_units_Z 72
_cell_length_a 17.868921
_cell_length_b 20.235003
_cell_length_c 11.264372
_cell_angle_alpha 90.000000
_cell_angle_beta 90.000000
_cell_angle_gamma 90.000000
_cell_volume 4072.945382
_symmetry_space_group_name_H-M "I M M A"
_symmetry_group_IT_number 74
_symmetry_cell_setting 'orthorhombic'
loop_
_space_group_symop_operation_xyz
x,y,z
-x,1/2-y,z
x,-y,-z
-x,1/2+y,-z
-x,-y,-z
x,1/2+y,-z
-x,y,z
x,1/2-y,z
1/2+x,1/2+y,1/2+z
1/2-x,-y,1/2+z
1/2+x,1/2-y,1/2-z
1/2-x,y,1/2-z
1/2-x,1/2-y,1/2-z
1/2+x,y,1/2-z
1/2-x,1/2+y,1/2+z
1/2+x,-y,1/2+z
loop_
_atom_site_type_symbol
_atom_site_label
_atom_site_fract_x
_atom_site_fract_y
_atom_site_fract_z
Si Si1 0.360859 0.855140 0.350533
Si Si2 0.086591 0.626655 0.885148
Si Si3 0.916306 0.250000 0.666734
Si Si4 0.246232 0.250000 0.577520
Si Si5 0.694798 0.502481 0.639001
Si Si6 0.824458 0.750000 0.823949
O O1 0.404010 0.852736 0.476336
O O2 0.405433 0.814474 0.250976
O O3 0.283011 0.814939 0.364283
O O4 0.341802 0.931538 0.331200
O O5 0.132731 0.559687 0.866867
O O6 0.125109 0.685201 0.811248
O O7 0.000000 0.618627 0.856922
O O8 0.843142 0.250000 0.582263
O O9 0.000000 0.250000 0.615266
O O10 0.286735 0.250000 0.452629
O O11 0.725189 0.500000 0.500000
O O12 0.750000 0.517163 0.750000
O O13 0.750000 0.750000 0.750000
#
# Coordination Sequence:
#
# PCOD9537309 Si02
#       6
#    16  16   8   8  16   8
#     4   9  18  32  51  72 100 136 170 206 252 306
#     4  10  20  33  52  79 103 125 166 222 265 294
#     4  11  19  28  47  74 105 133 161 205 259 307
#     4   9  18  32  49  71  96 128 171 210 245 301
#     4  10  20  34  54  77 104 139 175 213 254 307
#     4  10  20  36  55  69  93 135 174 205 249 314
#
# _framework density 17.677626
#
# number of rings (size 3 to 8) (size 9 to 14) (size 15 to 20)
#    0.000    2.222    0.000    5.000    0.000    4.889 
#    0.000    1.111    0.000    0.667    0.000    0.000 
#    0.000    0.000    0.000    0.000    0.000    0.000 
#
# Total GULP energy -200493.496564 kJ/mol
# GULP energy per Si atom -5569.263793 kJ/mol
# Density = 1.763739 g / cm^3
# Si number density = 17.677626 Si / 1000 Ang^3
#
#
#
# Elastic Constant Matrix: (Units=GPa)
#
#
# Indices 1 2 3 4 5 6 
#
# 1 147.4648 45.4083 36.1772 0.0000 0.0000 0.0000
# 2 45.4083 124.6307 22.9984 0.0000 0.0000 0.0000
# 3 36.1772 22.9984 54.4190 0.0000 0.0000 0.0000
# 4 0.0000 0.0000 0.0000 73.7187 0.0000 0.0000
# 5 0.0000 0.0000 0.0000 0.0000 24.6749 0.0000
# 6 0.0000 0.0000 0.0000 0.0000 0.0000 23.4250
#
#
#
# Elastic Compliance Matrix: (Units=1/GPa)
#
#
# Indices 1 2 3 4 5 6 
#
# 1 0.008656 -0.002269 -0.004796 0.000000 0.000000 0.000000
# 2 -0.002269 0.009297 -0.002421 0.000000 0.000000 0.000000
# 3 -0.004796 -0.002421 0.022587 0.000000 0.000000 0.000000
# 4 0.000000 0.000000 0.000000 0.013565 0.000000 0.000000
# 5 0.000000 0.000000 0.000000 0.000000 0.040527 0.000000
# 6 0.000000 0.000000 0.000000 0.000000 0.000000 0.042689
#
#
# Mechanical properties :
#
#
# Convention : Reuss Voigt Hill
#
# Bulk Modulus (GPa) = 46.36128 59.52025 52.94077
# Shear Modulus (GPa) = 30.58416 39.15909 34.87162
#
# Velocity S-wave (km/s) = 4.16397 4.71167 4.44626
# Velocity P-wave (km/s) = 7.02859 7.95882 7.50812
#
# Compressibility (1/GPa) = 0.02156972
#
# Stress axis : x y z
#
# Youngs Moduli (GPa) = 115.52016 107.56059 44.27282
#
# Poissons Ratio (x) = 0.24405 0.21233
# Poissons Ratio (y) = 0.26211 0.10717
# Poissons Ratio (z) = 0.55402 0.26038
#
# Static dielectric constant tensor:
#      x y z
#    x 1.624780 0.000000 0.000000 
#    y 0.000000 1.598810 0.000000 
#    z 0.000000 0.000000 1.996390 
# 
# From -- ./inp_files/22061.got.cif
#   From: 2010.05.17/outbox.cif.g08.bks.cpg/sg74_12_cif.got.tgz:22061.got - 2010.06.03 17:57:02.
