data_PCOD9537067
_publ_section_title
;
Structure prediction by ZEFSAII (Michael W. Deem and Ramdas Pophale) SiO2 
 PCOD9537067
Probable space group: I M M A
;
_chemical_formula_sum "Si O2"
_cell_formula_units_Z 96
_cell_length_a 8.863833
_cell_length_b 25.966328
_cell_length_c 25.664047
_cell_angle_alpha 90.000000
_cell_angle_beta 90.000000
_cell_angle_gamma 90.000000
_cell_volume 5906.867726
_symmetry_space_group_name_H-M "I M M A"
_symmetry_group_IT_number 74
_symmetry_cell_setting 'orthorhombic'
loop_
_space_group_symop_operation_xyz
x,y,z
-x,1/2-y,z
x,-y,-z
-x,1/2+y,-z
-x,-y,-z
x,1/2+y,-z
-x,y,z
x,1/2-y,z
1/2+x,1/2+y,1/2+z
1/2-x,-y,1/2+z
1/2+x,1/2-y,1/2-z
1/2-x,y,1/2-z
1/2-x,1/2-y,1/2-z
1/2+x,y,1/2-z
1/2-x,1/2+y,1/2+z
1/2+x,-y,1/2+z
loop_
_atom_site_type_symbol
_atom_site_label
_atom_site_fract_x
_atom_site_fract_y
_atom_site_fract_z
Si Si1 0.680238 0.391967 0.308058
Si Si2 0.819287 0.003336 0.308024
Si Si3 0.320498 0.810240 0.389210
Si Si4 0.680026 0.611460 0.192242
Si Si5 0.682262 0.189307 0.113803
Si Si6 0.326766 0.687563 0.002942
O O1 0.500000 0.393766 0.304370
O O2 0.750000 0.386624 0.250000
O O3 0.743488 0.445847 0.331524
O O4 0.736554 0.345330 0.343662
O O5 0.750000 0.001425 0.250000
O O6 0.000000 0.010201 0.305814
O O7 0.786617 0.946268 0.329459
O O8 0.500000 0.813432 0.384301
O O9 0.276112 0.750000 0.383010
O O10 0.243540 0.845548 0.346058
O O11 0.270607 0.827208 0.447177
O O12 0.500000 0.615786 0.196813
O O13 0.750000 0.616240 0.250000
O O14 0.500000 0.184347 0.118004
O O15 0.717811 0.250000 0.119928
O O16 0.724655 0.172207 0.054921
O O17 0.500000 0.670683 0.010597
O O18 0.328122 0.750000 0.001336
#
# Coordination Sequence:
#
# PCOD9537067 Si02
#       6
#    16  16  16  16  16  16
#     4  11  21  32  49  72  99 130 161 196 239 285
#     4   9  17  31  50  70  92 121 160 200 237 281
#     4  10  20  32  48  72 101 131 161 195 236 283
#     4  10  20  33  51  73  97 127 161 199 242 286
#     4   9  18  33  52  73  98 128 161 198 240 285
#     4   8  15  30  51  71  92 123 162 199 235 279
#
# _framework density 16.252268999999998
#
# number of rings (size 3 to 8) (size 9 to 14) (size 15 to 20)
#    0.000    2.500    0.000    5.000    0.000    4.667 
#    0.000    1.667    0.000    1.000    0.000    7.000 
#    0.000    0.000    0.000    0.000    0.000    0.000 
#
# Total GULP energy -267429.343408 kJ/mol
# GULP energy per Si atom -5571.444654 kJ/mol
# Density = 1.621528 g / cm^3
# Si number density = 16.252269 Si / 1000 Ang^3
#
#
#
# Elastic Constant Matrix: (Units=GPa)
#
#
# Indices 1 2 3 4 5 6 
#
# 1 80.1282 60.1294 51.2052 0.0000 0.0000 0.0000
# 2 60.1294 105.0642 66.1905 0.0000 0.0000 0.0000
# 3 51.2052 66.1905 96.2129 0.0000 0.0000 0.0000
# 4 0.0000 0.0000 0.0000 -4.5999 0.0000 0.0000
# 5 0.0000 0.0000 0.0000 0.0000 27.1987 0.0000
# 6 0.0000 0.0000 0.0000 0.0000 0.0000 22.5386
#
#
#
# Elastic Compliance Matrix: (Units=1/GPa)
#
#
# Indices 1 2 3 4 5 6 
#
# 1 0.023552 -0.009853 -0.005756 0.000000 0.000000 0.000000
# 2 -0.009853 0.020920 -0.009149 0.000000 0.000000 0.000000
# 3 -0.005756 -0.009149 0.019751 0.000000 0.000000 0.000000
# 4 0.000000 0.000000 0.000000 -0.217395 0.000000 0.000000
# 5 0.000000 0.000000 0.000000 0.000000 0.036766 0.000000
# 6 0.000000 0.000000 0.000000 0.000000 0.000000 0.044368
#
#
# Mechanical properties :
#
#
# Convention : Reuss Voigt Hill
#
# Bulk Modulus (GPa) = 67.98936 70.71727 69.35331
# Shear Modulus (GPa) = -283.80074 15.95282 -133.92396
#
# Velocity S-wave (km/s) = -13.22881 3.13641 -9.08747
# Velocity P-wave (km/s) = 13.83512 7.53145 8.20633
#
# Compressibility (1/GPa) = 0.01470818
#
# Stress axis : x y z
#
# Youngs Moduli (GPa) = 42.45901 47.80005 50.62975
#
# Poissons Ratio (x) = 0.47095 0.29145
# Poissons Ratio (y) = 0.41833 0.46320
# Poissons Ratio (z) = 0.24441 0.43731
#
# Static dielectric constant tensor:
#      x y z
#    x 1.543450 0.000000 0.000000 
#    y 0.000000 1.563020 0.000000 
#    z 0.000000 0.000000 1.533820 
# 
# From -- ./inp_files/57282.got.cif
#   From: 2010.05.17/outbox.cif.g08.bks.cpg/sg74_29_cif.got.tgz:57282.got - 2010.06.03 17:57:02.
