data_PCOD9537667
_publ_section_title
;
Structure prediction by ZEFSAII (Michael W. Deem and Ramdas Pophale) SiO2 
 PCOD9537667
Probable space group: I M M A
;
_chemical_formula_sum "Si O2"
_cell_formula_units_Z 120
_cell_length_a 27.480042
_cell_length_b 8.919816
_cell_length_c 27.996050
_cell_angle_alpha 90.000000
_cell_angle_beta 90.000000
_cell_angle_gamma 90.000000
_cell_volume 6862.305501
_symmetry_space_group_name_H-M "I M M A"
_symmetry_group_IT_number 74
_symmetry_cell_setting 'orthorhombic'
loop_
_space_group_symop_operation_xyz
x,y,z
-x,1/2-y,z
x,-y,-z
-x,1/2+y,-z
-x,-y,-z
x,1/2+y,-z
-x,y,z
x,1/2-y,z
1/2+x,1/2+y,1/2+z
1/2-x,-y,1/2+z
1/2+x,1/2-y,1/2-z
1/2-x,y,1/2-z
1/2-x,1/2-y,1/2-z
1/2+x,y,1/2-z
1/2-x,1/2+y,1/2+z
1/2+x,-y,1/2+z
loop_
_atom_site_type_symbol
_atom_site_label
_atom_site_fract_x
_atom_site_fract_y
_atom_site_fract_z
Si Si1 0.093887 0.070309 0.614297
Si Si2 0.708767 0.428944 0.448491
Si Si3 0.694379 0.928438 0.260292
Si Si4 0.351586 0.572120 0.363333
Si Si5 0.000000 0.570007 0.447893
Si Si6 0.601745 0.571601 0.784440
Si Si7 0.177577 0.429495 0.448096
Si Si8 0.055667 0.569625 0.817268
O O1 0.098310 0.250000 0.614554
O O2 0.048118 0.026897 0.581392
O O3 0.085953 0.010993 0.667655
O O4 0.142006 0.998424 0.591215
O O5 0.697733 0.500000 0.500000
O O6 0.704014 0.250000 0.451000
O O7 0.674194 0.494452 0.407856
O O8 0.765671 0.463695 0.437737
O O9 0.688029 0.750000 0.251013
O O10 0.750000 0.968011 0.250000
O O11 0.680176 0.955632 0.315397
O O12 0.656378 0.019827 0.228469
O O13 0.354133 0.750000 0.370840
O O14 0.404774 0.507430 0.351137
O O15 0.000000 0.500000 0.500000
O O16 0.000000 0.750000 0.452149
O O17 0.599545 0.750000 0.791192
O O18 0.570002 0.532136 0.737571
O O19 0.166006 0.500000 0.500000
O O20 0.171795 0.250000 0.450283
O O21 0.060039 0.750000 0.821744
O O22 0.000000 0.526850 0.826923
#
# Coordination Sequence:
#
# PCOD9537667 Si02
#       8
#    16  16  16  16   8  16  16  16
#     4  11  23  38  56  78 107 142 183 232 284 338
#     4  10  21  37  58  84 116 149 185 226 271 325
#     4   9  19  35  53  77 110 150 186 222 271 326
#     4  10  20  34  55  84 115 148 187 227 275 330
#     4  10  24  42  58  78 102 138 184 234 291 342
#     4  10  21  35  53  81 110 142 184 228 276 325
#     4  10  21  37  56  81 108 141 183 227 277 330
#     4   9  19  37  59  81 110 147 186 229 277 331
#
# _framework density 17.486834999999999
#
# number of rings (size 3 to 8) (size 9 to 14) (size 15 to 20)
#    0.000    2.133    0.000    2.400    2.800    5.333 
#    0.000    0.000    0.000    0.400    0.000    0.000 
#    0.000    0.000    0.000    0.000    0.000    0.000 
#
# Total GULP energy -335093.908621 kJ/mol
# GULP energy per Si atom -5584.898477 kJ/mol
# Density = 1.744703 g / cm^3
# Si number density = 17.486835 Si / 1000 Ang^3
#
#
#
# Elastic Constant Matrix: (Units=GPa)
#
#
# Indices 1 2 3 4 5 6 
#
# 1 119.4982 51.2945 67.0748 0.0000 0.0000 0.0000
# 2 51.2945 55.3774 54.5573 0.0000 0.0000 0.0000
# 3 67.0748 54.5573 111.8989 0.0000 0.0000 0.0000
# 4 0.0000 0.0000 0.0000 35.3151 0.0000 0.0000
# 5 0.0000 0.0000 0.0000 0.0000 16.4279 0.0000
# 6 0.0000 0.0000 0.0000 0.0000 0.0000 25.4845
#
#
#
# Elastic Compliance Matrix: (Units=1/GPa)
#
#
# Indices 1 2 3 4 5 6 
#
# 1 0.014863 -0.009602 -0.004228 0.000000 0.000000 0.000000
# 2 -0.009602 0.040953 -0.014211 0.000000 0.000000 0.000000
# 3 -0.004228 -0.014211 0.018400 0.000000 0.000000 0.000000
# 4 0.000000 0.000000 0.000000 0.028316 0.000000 0.000000
# 5 0.000000 0.000000 0.000000 0.000000 0.060872 0.000000
# 6 0.000000 0.000000 0.000000 0.000000 0.000000 0.039239
#
#
# Mechanical properties :
#
#
# Convention : Reuss Voigt Hill
#
# Bulk Modulus (GPa) = 55.14655 70.29197 62.71926
# Shear Modulus (GPa) = 18.88434 23.03537 20.95985
#
# Velocity S-wave (km/s) = 3.28977 3.63340 3.46585
# Velocity P-wave (km/s) = 6.78488 7.60831 7.20837
#
# Compressibility (1/GPa) = 0.01813350
#
# Stress axis : x y z
#
# Youngs Moduli (GPa) = 67.28093 24.41836 54.34922
#
# Poissons Ratio (x) = 0.23447 0.22977
# Poissons Ratio (y) = 0.64605 0.77236
# Poissons Ratio (z) = 0.28444 0.34701
#
# Static dielectric constant tensor:
#      x y z
#    x 1.579920 0.000000 0.000000 
#    y 0.000000 1.583070 0.000000 
#    z 0.000000 0.000000 1.566020 
# 
# From -- ./inp_files/69042.got.cif
#   From: 2010.05.17/outbox.cif.g08.bks.cpg/sg74_35_cif.got.tgz:69042.got - 2010.06.03 17:57:02.
