data_PCOD9537732
_publ_section_title
;
Structure prediction by ZEFSAII (Michael W. Deem and Ramdas Pophale) SiO2 
 PCOD9537732
Probable space group: I M M A
;
_chemical_formula_sum "Si O2"
_cell_formula_units_Z 104
_cell_length_a 27.899154
_cell_length_b 7.981795
_cell_length_c 23.444055
_cell_angle_alpha 90.000000
_cell_angle_beta 90.000000
_cell_angle_gamma 90.000000
_cell_volume 5220.647075
_symmetry_space_group_name_H-M "I M M A"
_symmetry_group_IT_number 74
_symmetry_cell_setting 'orthorhombic'
loop_
_space_group_symop_operation_xyz
x,y,z
-x,1/2-y,z
x,-y,-z
-x,1/2+y,-z
-x,-y,-z
x,1/2+y,-z
-x,y,z
x,1/2-y,z
1/2+x,1/2+y,1/2+z
1/2-x,-y,1/2+z
1/2+x,1/2-y,1/2-z
1/2-x,y,1/2-z
1/2-x,1/2-y,1/2-z
1/2+x,y,1/2-z
1/2-x,1/2+y,1/2+z
1/2+x,-y,1/2+z
loop_
_atom_site_type_symbol
_atom_site_label
_atom_site_fract_x
_atom_site_fract_y
_atom_site_fract_z
Si Si1 0.306527 0.058181 0.105498
Si Si2 0.907991 0.052505 0.631021
Si Si3 0.054905 0.548494 0.752832
Si Si4 0.195399 0.941126 0.267901
Si Si5 0.632400 0.553146 0.663420
Si Si6 0.500000 0.952587 0.065227
Si Si7 0.797249 0.452981 0.065029
O O1 0.308761 0.250000 0.086657
O O2 0.256659 0.984697 0.081313
O O3 0.358851 0.980012 0.096794
O O4 0.304083 0.043176 0.173856
O O5 0.913541 0.250000 0.635362
O O6 0.952891 0.981056 0.596634
O O7 0.913865 0.988634 0.696083
O O8 0.052831 0.750000 0.757253
O O9 0.082721 0.484659 0.809564
O O10 0.000000 0.486126 0.746723
O O11 0.176821 0.750000 0.277511
O O12 0.250000 0.926234 0.250000
O O13 0.167969 0.029390 0.216731
O O14 0.624672 0.750000 0.651938
O O15 0.661681 0.484034 0.608900
O O16 0.500000 0.750000 0.069105
O O17 0.500000 0.000000 0.000000
O O18 0.795814 0.250000 0.070751
O O19 0.807577 0.500000 0.000000
#
# Coordination Sequence:
#
# PCOD9537732 Si02
#       7
#    16  16  16  16  16   8  16
#     4  11  22  36  55  82 113 149 187 228 280 335
#     4  11  22  37  56  83 115 147 187 238 290 331
#     4  10  20  34  57  88 116 146 185 230 287 349
#     4  11  21  31  50  83 115 144 178 221 273 327
#     4  10  20  36  57  82 113 149 187 229 283 341
#     4  10  24  42  58  76 106 150 197 242 283 334
#     4  10  23  40  58  79 110 152 194 235 281 336
#
# _framework density 19.920902000000002
#
# number of rings (size 3 to 8) (size 9 to 14) (size 15 to 20)
#    0.000    1.538    3.846    1.385    0.000    4.308 
#    0.000    3.077    0.000    0.462    0.000    0.000 
#    0.000    0.000    0.000    0.000    0.000    0.000 
#
# Total GULP energy -289939.104974 kJ/mol
# GULP energy per Si atom -5575.752019 kJ/mol
# Density = 1.987556 g / cm^3
# Si number density = 19.920902 Si / 1000 Ang^3
#
#
#
# Elastic Constant Matrix: (Units=GPa)
#
#
# Indices 1 2 3 4 5 6 
#
# 1 102.9721 7.7365 42.0168 0.0000 0.0000 0.0000
# 2 7.7365 22.4201 -6.4292 0.0000 0.0000 0.0000
# 3 42.0168 -6.4292 108.3494 0.0000 0.0000 0.0000
# 4 0.0000 0.0000 0.0000 13.5037 0.0000 0.0000
# 5 0.0000 0.0000 0.0000 0.0000 19.8881 0.0000
# 6 0.0000 0.0000 0.0000 0.0000 0.0000 15.3882
#
#
#
# Elastic Compliance Matrix: (Units=1/GPa)
#
#
# Indices 1 2 3 4 5 6 
#
# 1 0.012206 -0.005665 -0.005069 0.000000 0.000000 0.000000
# 2 -0.005665 0.048005 0.005046 0.000000 0.000000 0.000000
# 3 -0.005069 0.005046 0.011495 0.000000 0.000000 0.000000
# 4 0.000000 0.000000 0.000000 0.074054 0.000000 0.000000
# 5 0.000000 0.000000 0.000000 0.000000 0.050281 0.000000
# 6 0.000000 0.000000 0.000000 0.000000 0.000000 0.064985
#
#
# Mechanical properties :
#
#
# Convention : Reuss Voigt Hill
#
# Bulk Modulus (GPa) = 16.57652 35.59886 26.08769
# Shear Modulus (GPa) = 17.09329 22.45049 19.77189
#
# Velocity S-wave (km/s) = 2.93244 3.36070 3.15385
# Velocity P-wave (km/s) = 4.45026 5.74177 5.13677
#
# Compressibility (1/GPa) = 0.06032628
#
# Stress axis : x y z
#
# Youngs Moduli (GPa) = 81.93001 20.83127 86.99702
#
# Poissons Ratio (x) = 0.11802 0.44102
# Poissons Ratio (y) = 0.46417 -0.43895
# Poissons Ratio (z) = 0.41533 -0.10510
#
# Static dielectric constant tensor:
#      x y z
#    x 1.551360 0.000000 0.000000 
#    y 0.000000 1.728950 0.000000 
#    z 0.000000 0.000000 1.679960 
# 
# From -- ./inp_files/55613.got.cif
#   From: 2010.05.17/outbox.cif.g08.bks.cpg/sg74_28_cif.got.tgz:55613.got - 2010.06.03 17:57:02.
