data_PCOD9537045
_publ_section_title
;
Structure prediction by ZEFSAII (Michael W. Deem and Ramdas Pophale) SiO2 
 PCOD9537045
Probable space group: I M M A
;
_chemical_formula_sum "Si O2"
_cell_formula_units_Z 80
_cell_length_a 25.051707
_cell_length_b 32.628251
_cell_length_c 5.256858
_cell_angle_alpha 90.000000
_cell_angle_beta 90.000000
_cell_angle_gamma 90.000000
_cell_volume 4296.920950
_symmetry_space_group_name_H-M "I M M A"
_symmetry_group_IT_number 74
_symmetry_cell_setting 'orthorhombic'
loop_
_space_group_symop_operation_xyz
x,y,z
-x,1/2-y,z
x,-y,-z
-x,1/2+y,-z
-x,-y,-z
x,1/2+y,-z
-x,y,z
x,1/2-y,z
1/2+x,1/2+y,1/2+z
1/2-x,-y,1/2+z
1/2+x,1/2-y,1/2-z
1/2-x,y,1/2-z
1/2-x,1/2-y,1/2-z
1/2+x,y,1/2-z
1/2-x,1/2+y,1/2+z
1/2+x,-y,1/2+z
loop_
_atom_site_type_symbol
_atom_site_label
_atom_site_fract_x
_atom_site_fract_y
_atom_site_fract_z
Si Si1 0.314486 0.203794 0.261964
Si Si2 0.271277 0.045930 0.000740
Si Si3 0.063338 0.048067 0.021125
Si Si4 0.184862 0.656611 0.265214
Si Si5 0.881278 0.921937 0.474518
O O1 0.331972 0.250000 0.324165
O O2 0.250000 0.203708 0.250000
O O3 0.331218 0.171859 0.482724
O O4 0.329292 0.190765 0.976957
O O5 0.250000 0.066419 0.750000
O O6 0.334026 0.044793 0.991970
O O7 0.250000 0.067970 0.250000
O O8 0.247225 0.000000 0.000000
O O9 0.091246 0.073574 0.249552
O O10 0.000000 0.048173 0.065814
O O11 0.078042 0.067388 0.749478
O O12 0.080623 0.000000 0.000000
O O13 0.250000 0.652748 0.250000
O O14 0.152474 0.617683 0.378407
#
# Coordination Sequence:
#
# PCOD9537045 Si02
#       5
#    16  16  16  16  16
#     4   9  17  31  50  73 109 153 186 210 243 299
#     4  10  20  32  47  70 101 138 174 202 240 307
#     4  11  24  41  59  77  99 135 186 238 284 327
#     4  10  20  32  50  81 115 146 177 212 259 317
#     4  12  22  36  56  78 108 138 174 225 281 322
#
# _framework density 18.617984
#
# number of rings (size 3 to 8) (size 9 to 14) (size 15 to 20)
#    0.000    1.600    0.000    6.000    0.000    8.000 
#    0.000    0.000    0.000    0.000    0.000    0.000 
#    0.000   56.000    0.000    0.000    0.000    0.000 
#
# Total GULP energy -222757.023506 kJ/mol
# GULP energy per Si atom -5568.925588 kJ/mol
# Density = 1.857561 g / cm^3
# Si number density = 18.617984 Si / 1000 Ang^3
#
#
#
# Elastic Constant Matrix: (Units=GPa)
#
#
# Indices 1 2 3 4 5 6 
#
# 1 46.8567 10.1262 21.0800 0.0000 0.0000 0.0000
# 2 10.1262 80.0557 20.6270 0.0000 0.0000 0.0000
# 3 21.0800 20.6270 147.5322 0.0000 0.0000 0.0000
# 4 0.0000 0.0000 0.0000 40.5542 0.0000 0.0000
# 5 0.0000 0.0000 0.0000 0.0000 30.6653 0.0000
# 6 0.0000 0.0000 0.0000 0.0000 0.0000 9.6370
#
#
#
# Elastic Compliance Matrix: (Units=1/GPa)
#
#
# Indices 1 2 3 4 5 6 
#
# 1 0.023161 -0.002155 -0.003008 0.000000 0.000000 0.000000
# 2 -0.002155 0.013159 -0.001532 0.000000 0.000000 0.000000
# 3 -0.003008 -0.001532 0.007422 0.000000 0.000000 0.000000
# 4 0.000000 0.000000 0.000000 0.024658 0.000000 0.000000
# 5 0.000000 0.000000 0.000000 0.000000 0.032610 0.000000
# 6 0.000000 0.000000 0.000000 0.000000 0.000000 0.103767
#
#
# Mechanical properties :
#
#
# Convention : Reuss Voigt Hill
#
# Bulk Modulus (GPa) = 32.94638 42.01232 37.47935
# Shear Modulus (GPa) = 21.90262 31.01207 26.45734
#
# Velocity S-wave (km/s) = 3.43362 4.08573 3.77379
# Velocity P-wave (km/s) = 5.78395 6.69866 6.25804
#
# Compressibility (1/GPa) = 0.03035234
#
# Stress axis : x y z
#
# Youngs Moduli (GPa) = 43.17688 75.99633 134.73164
#
# Poissons Ratio (x) = 0.16373 0.40528
# Poissons Ratio (y) = 0.09302 0.20639
# Poissons Ratio (z) = 0.12988 0.11642
#
# Static dielectric constant tensor:
#      x y z
#    x 1.595870 0.000000 0.000000 
#    y 0.000000 1.687640 0.000000 
#    z 0.000000 0.000000 1.708660 
# 
# From -- ./inp_files/3854.got.cif
#   From: 2010.05.17/outbox.cif.g08.bks.cpg/sg74_2_cif.got.tgz:3854.got - 2010.06.03 17:57:02.
