data_PCOD9537171
_publ_section_title
;
Structure prediction by ZEFSAII (Michael W. Deem and Ramdas Pophale) SiO2 
 PCOD9537171
Probable space group: I M M A
;
_chemical_formula_sum "Si O2"
_cell_formula_units_Z 104
_cell_length_a 7.375124
_cell_length_b 25.762207
_cell_length_c 20.270023
_cell_angle_alpha 90.000000
_cell_angle_beta 90.000000
_cell_angle_gamma 90.000000
_cell_volume 3851.293650
_symmetry_space_group_name_H-M "I M M A"
_symmetry_group_IT_number 74
_symmetry_cell_setting 'orthorhombic'
loop_
_space_group_symop_operation_xyz
x,y,z
-x,1/2-y,z
x,-y,-z
-x,1/2+y,-z
-x,-y,-z
x,1/2+y,-z
-x,y,z
x,1/2-y,z
1/2+x,1/2+y,1/2+z
1/2-x,-y,1/2+z
1/2+x,1/2-y,1/2-z
1/2-x,y,1/2-z
1/2-x,1/2-y,1/2-z
1/2+x,y,1/2-z
1/2-x,1/2+y,1/2+z
1/2+x,-y,1/2+z
loop_
_atom_site_type_symbol
_atom_site_label
_atom_site_fract_x
_atom_site_fract_y
_atom_site_fract_z
Si Si1 0.786620 0.528081 0.632701
Si Si2 0.294560 0.581622 0.152383
Si Si3 0.279955 0.806294 0.148752
Si Si4 0.791809 0.576994 0.001111
Si Si5 0.783233 0.138377 0.327308
Si Si6 0.782296 0.750000 0.670814
Si Si7 0.781835 0.192808 0.492132
O O1 0.709134 0.475047 0.663078
O O2 0.772650 0.536260 0.553681
O O3 0.705448 0.582095 0.656700
O O4 0.000000 0.526761 0.648571
O O5 0.500000 0.581269 0.178326
O O6 0.212721 0.637238 0.172840
O O7 0.304571 0.580840 0.071786
O O8 0.500000 0.806988 0.154604
O O9 0.216681 0.750000 0.175012
O O10 0.238385 0.806465 0.070648
O O11 0.777987 0.635294 0.970449
O O12 0.000000 0.565986 0.016010
O O13 0.750000 0.143130 0.250000
O O14 0.715660 0.193976 0.354087
O O15 0.000000 0.136620 0.341364
O O16 0.750000 0.750000 0.750000
O O17 0.000000 0.750000 0.661195
O O18 0.720181 0.250000 0.468859
O O19 0.000000 0.192550 0.485564
#
# Coordination Sequence:
#
# PCOD9537171 Si02
#       7
#    16  16  16  16  16   8  16
#     4  10  20  33  47  65  89 119 157 191 225 280
#     4   9  17  30  47  63  86 122 159 194 228 270
#     4   7  10  19  38  61  79 100 138 182 219 252
#     4  11  21  30  42  63  93 124 155 194 236 276
#     4   9  18  33  53  73  92 114 146 190 240 290
#     4   8  14  28  50  72  90 110 140 180 230 286
#     4   8  14  27  45  60  78 112 155 192 227 268
#
# _framework density 27.003914000000002
#
# number of rings (size 3 to 8) (size 9 to 14) (size 15 to 20)
#    0.000    3.077    0.000    3.692    0.000    3.385 
#    1.385    0.000    0.000    0.000    0.000    0.000 
#    0.000    0.615    0.000    0.462    0.000    1.077 
#
# Total GULP energy -290275.292670 kJ/mol
# GULP energy per Si atom -5582.217167 kJ/mol
# Density = 2.694245 g / cm^3
# Si number density = 27.003914 Si / 1000 Ang^3
#
#
#
# Elastic Constant Matrix: (Units=GPa)
#
#
# Indices 1 2 3 4 5 6 
#
# 1 108.0308 17.6945 -14.8607 0.0000 0.0000 0.0000
# 2 17.6945 319.2151 38.4246 0.0000 0.0000 0.0000
# 3 -14.8607 38.4246 58.0547 0.0000 0.0000 0.0000
# 4 0.0000 0.0000 0.0000 23.8014 0.0000 0.0000
# 5 0.0000 0.0000 0.0000 0.0000 -6.2763 0.0000
# 6 0.0000 0.0000 0.0000 0.0000 0.0000 -17.9794
#
#
#
# Elastic Compliance Matrix: (Units=1/GPa)
#
#
# Indices 1 2 3 4 5 6 
#
# 1 0.009838 -0.000922 0.003128 0.000000 0.000000 0.000000
# 2 -0.000922 0.003490 -0.002546 0.000000 0.000000 0.000000
# 3 0.003128 -0.002546 0.019711 0.000000 0.000000 0.000000
# 4 0.000000 0.000000 0.000000 0.042014 0.000000 0.000000
# 5 0.000000 0.000000 0.000000 0.000000 -0.159328 0.000000
# 6 0.000000 0.000000 0.000000 0.000000 0.000000 -0.055619
#
#
# Mechanical properties :
#
#
# Convention : Reuss Voigt Hill
#
# Bulk Modulus (GPa) = 30.90201 63.09081 46.99641
# Shear Modulus (GPa) = -38.93230 29.51194 -4.71018
#
# Velocity S-wave (km/s) = -3.80113 3.30945 -1.32214
# Velocity P-wave (km/s) = 2.79220 6.16584 3.88724
#
# Compressibility (1/GPa) = 0.03236035
#
# Stress axis : x y z
#
# Youngs Moduli (GPa) = 101.64691 286.51121 50.73275
#
# Poissons Ratio (x) = 0.26414 -0.15872
# Poissons Ratio (y) = 0.09371 0.12917
# Poissons Ratio (z) = -0.31800 0.72948
#
# Static dielectric constant tensor:
#      x y z
#    x 1.987090 0.000000 0.000000 
#    y 0.000000 2.194820 0.000000 
#    z 0.000000 0.000000 2.176090 
# 
# From -- ./inp_files/70816.got.cif
#   From: 2010.05.17/outbox.cif.g08.bks.cpg/sg74_36_cif.got.tgz:70816.got - 2010.06.03 17:57:02.
