data_PCOD9537854
_publ_section_title
;
Structure prediction by ZEFSAII (Michael W. Deem and Ramdas Pophale) SiO2 
 PCOD9537854
Probable space group: I M M A
;
_chemical_formula_sum "Si O2"
_cell_formula_units_Z 80
_cell_length_a 10.964163
_cell_length_b 18.234576
_cell_length_c 19.784083
_cell_angle_alpha 90.000000
_cell_angle_beta 90.000000
_cell_angle_gamma 90.000000
_cell_volume 3955.369661
_symmetry_space_group_name_H-M "I M M A"
_symmetry_group_IT_number 74
_symmetry_cell_setting 'orthorhombic'
loop_
_space_group_symop_operation_xyz
x,y,z
-x,1/2-y,z
x,-y,-z
-x,1/2+y,-z
-x,-y,-z
x,1/2+y,-z
-x,y,z
x,1/2-y,z
1/2+x,1/2+y,1/2+z
1/2-x,-y,1/2+z
1/2+x,1/2-y,1/2-z
1/2-x,y,1/2-z
1/2-x,1/2-y,1/2-z
1/2+x,y,1/2-z
1/2-x,1/2+y,1/2+z
1/2+x,-y,1/2+z
loop_
_atom_site_type_symbol
_atom_site_label
_atom_site_fract_x
_atom_site_fract_y
_atom_site_fract_z
Si Si1 0.360766 0.250000 0.036819
Si Si2 0.638278 0.750000 0.641720
Si Si3 0.862159 0.588921 0.798592
Si Si4 0.366575 0.977421 0.421651
Si Si5 0.372487 0.665917 0.226108
Si Si6 0.365990 0.375137 0.925177
O O1 0.500000 0.250000 0.065572
O O2 0.250388 0.250000 0.089395
O O3 0.350687 0.320482 0.987836
O O4 0.500000 0.750000 0.610743
O O5 0.646770 0.675500 0.684813
O O6 0.750000 0.568326 0.750000
O O7 0.853690 0.544560 0.869258
O O8 0.000000 0.575086 0.771064
O O9 0.500000 0.942435 0.407095
O O10 0.248551 0.927256 0.416655
O O11 0.369718 0.000000 0.500000
O O12 0.500000 0.630424 0.247389
O O13 0.372438 0.750000 0.252033
O O14 0.250000 0.627750 0.250000
O O15 0.370559 0.668208 0.145439
O O16 0.500000 0.411748 0.932281
#
# Coordination Sequence:
#
# PCOD9537854 Si02
#       6
#     8   8  16  16  16  16
#     4  10  20  35  56  85 118 152 193 242 293 343
#     4  10  21  39  63  89 115 148 190 238 294 353
#     4  10  22  40  63  90 120 153 193 242 296 355
#     4  10  22  40  59  82 116 155 193 237 288 343
#     4   9  17  31  49  70 101 138 176 222 271 318
#     4  10  20  35  55  79 111 149 189 235 285 339
#
# _framework density 20.225670999999998
#
# number of rings (size 3 to 8) (size 9 to 14) (size 15 to 20)
#    0.000    2.200    1.000    1.500    0.000    6.000 
#    0.000    4.000    0.000    0.000    0.000    0.000 
#    0.000    0.000    0.000    0.000    0.000    0.000 
#
# Total GULP energy -222941.402834 kJ/mol
# GULP energy per Si atom -5573.535071 kJ/mol
# Density = 2.017964 g / cm^3
# Si number density = 20.225671 Si / 1000 Ang^3
#
#
#
# Elastic Constant Matrix: (Units=GPa)
#
#
# Indices 1 2 3 4 5 6 
#
# 1 225.6716 54.1903 59.3338 0.0000 0.0000 0.0000
# 2 54.1903 61.9087 3.5556 0.0000 0.0000 0.0000
# 3 59.3338 3.5556 75.3095 0.0000 0.0000 0.0000
# 4 0.0000 0.0000 0.0000 7.9784 0.0000 0.0000
# 5 0.0000 0.0000 0.0000 0.0000 37.7996 0.0000
# 6 0.0000 0.0000 0.0000 0.0000 0.0000 13.1306
#
#
#
# Elastic Compliance Matrix: (Units=1/GPa)
#
#
# Indices 1 2 3 4 5 6 
#
# 1 0.007345 -0.006113 -0.005498 0.000000 0.000000 0.000000
# 2 -0.006113 0.021285 0.003812 0.000000 0.000000 0.000000
# 3 -0.005498 0.003812 0.017430 0.000000 0.000000 0.000000
# 4 0.000000 0.000000 0.000000 0.125339 0.000000 0.000000
# 5 0.000000 0.000000 0.000000 0.000000 0.026455 0.000000
# 6 0.000000 0.000000 0.000000 0.000000 0.000000 0.076158
#
#
# Mechanical properties :
#
#
# Convention : Reuss Voigt Hill
#
# Bulk Modulus (GPa) = 32.82943 66.33879 49.58411
# Shear Modulus (GPa) = 16.67971 28.16906 22.42439
#
# Velocity S-wave (km/s) = 2.87484 3.73599 3.33334
# Velocity P-wave (km/s) = 5.22364 7.17500 6.27563
#
# Compressibility (1/GPa) = 0.03046048
#
# Stress axis : x y z
#
# Youngs Moduli (GPa) = 136.15172 46.98135 57.37131
#
# Poissons Ratio (x) = 0.28721 0.31543
# Poissons Ratio (y) = 0.83233 -0.21867
# Poissons Ratio (z) = 0.74857 -0.17907
#
# Static dielectric constant tensor:
#      x y z
#    x 1.774110 0.000000 0.000000 
#    y 0.000000 1.676590 0.000000 
#    z 0.000000 0.000000 1.709690 
# 
# From -- ./inp_files/41237.got.cif
#   From: 2010.05.17/outbox.cif.g08.bks.cpg/sg74_21_cif.got.tgz:41237.got - 2010.06.03 17:57:02.
