data_PCOD9537923
_publ_section_title
;
Structure prediction by ZEFSAII (Michael W. Deem and Ramdas Pophale) SiO2 
 PCOD9537923
Probable space group: I M M A
;
_chemical_formula_sum "Si O2"
_cell_formula_units_Z 80
_cell_length_a 13.419015
_cell_length_b 15.239103
_cell_length_c 18.876375
_cell_angle_alpha 90.000000
_cell_angle_beta 90.000000
_cell_angle_gamma 90.000000
_cell_volume 3860.100743
_symmetry_space_group_name_H-M "I M M A"
_symmetry_group_IT_number 74
_symmetry_cell_setting 'orthorhombic'
loop_
_space_group_symop_operation_xyz
x,y,z
-x,1/2-y,z
x,-y,-z
-x,1/2+y,-z
-x,-y,-z
x,1/2+y,-z
-x,y,z
x,1/2-y,z
1/2+x,1/2+y,1/2+z
1/2-x,-y,1/2+z
1/2+x,1/2-y,1/2-z
1/2-x,y,1/2-z
1/2-x,1/2-y,1/2-z
1/2+x,y,1/2-z
1/2-x,1/2+y,1/2+z
1/2+x,-y,1/2+z
loop_
_atom_site_type_symbol
_atom_site_label
_atom_site_fract_x
_atom_site_fract_y
_atom_site_fract_z
Si Si1 0.109799 0.972014 0.632058
Si Si2 0.386000 0.382339 0.567641
Si Si3 0.708370 0.152234 0.828064
Si Si4 0.171565 0.915901 0.914866
Si Si5 0.633273 0.848241 0.737115
O O1 0.208091 0.930239 0.594132
O O2 0.101206 0.921827 0.707284
O O3 0.000000 0.963863 0.597348
O O4 0.137744 0.073585 0.646043
O O5 0.500000 0.356219 0.580462
O O6 0.304258 0.345333 0.620832
O O7 0.375268 0.487403 0.578049
O O8 0.354398 0.365149 0.486535
O O9 0.663002 0.250000 0.825994
O O10 0.750000 0.130112 0.750000
O O11 0.124392 0.873278 0.844965
O O12 0.597568 0.750000 0.751916
O O13 0.750000 0.845289 0.750000
#
# Coordination Sequence:
#
# PCOD9537923 Si02
#       5
#    16  16  16  16  16
#     4  10  20  35  56  81 114 156 197 236 282 341
#     4  10  20  36  59  84 111 148 192 236 288 345
#     4  10  22  39  57  80 111 147 192 246 298 347
#     4   9  18  34  54  82 117 153 191 236 284 337
#     4   9  18  33  54  81 114 150 187 229 279 335
#
# _framework density 20.724847
#
# number of rings (size 3 to 8) (size 9 to 14) (size 15 to 20)
#    0.000    2.400    0.000    4.200    0.000    6.000 
#    0.000   10.000    0.000    0.000    0.000    0.000 
#    0.000    0.000    0.000    0.000    0.000    0.000 
#
# Total GULP energy -223064.426499 kJ/mol
# GULP energy per Si atom -5576.610662 kJ/mol
# Density = 2.067768 g / cm^3
# Si number density = 20.724847 Si / 1000 Ang^3
#
#
#
# Elastic Constant Matrix: (Units=GPa)
#
#
# Indices 1 2 3 4 5 6 
#
# 1 147.0776 24.8314 11.4535 0.0000 0.0000 0.0000
# 2 24.8314 78.4380 8.9274 0.0000 0.0000 0.0000
# 3 11.4535 8.9274 89.8853 0.0000 0.0000 0.0000
# 4 0.0000 0.0000 0.0000 357.2491 0.0000 0.0000
# 5 0.0000 0.0000 0.0000 0.0000 -7.1102 0.0000
# 6 0.0000 0.0000 0.0000 0.0000 0.0000 -15.1123
#
#
#
# Elastic Compliance Matrix: (Units=1/GPa)
#
#
# Indices 1 2 3 4 5 6 
#
# 1 0.007227 -0.002208 -0.000702 0.000000 0.000000 0.000000
# 2 -0.002208 0.013569 -0.001066 0.000000 0.000000 0.000000
# 3 -0.000702 -0.001066 0.011321 0.000000 0.000000 0.000000
# 4 0.000000 0.000000 0.000000 0.002799 0.000000 0.000000
# 5 0.000000 0.000000 0.000000 0.000000 -0.140643 0.000000
# 6 0.000000 0.000000 0.000000 0.000000 0.000000 -0.066171
#
#
# Mechanical properties :
#
#
# Convention : Reuss Voigt Hill
#
# Bulk Modulus (GPa) = 41.38254 45.09174 43.23714
# Shear Modulus (GPa) = -32.07340 85.01790 26.47225
#
# Velocity S-wave (km/s) = -3.93820 6.41181 3.57784
# Velocity P-wave (km/s) = 0.81748 8.75326 6.16244
#
# Compressibility (1/GPa) = 0.02416478
#
# Stress axis : x y z
#
# Youngs Moduli (GPa) = 138.37908 73.69606 88.33460
#
# Poissons Ratio (x) = 0.16271 0.06197
# Poissons Ratio (y) = 0.30552 0.09420
# Poissons Ratio (z) = 0.09708 0.07859
#
# Static dielectric constant tensor:
#      x y z
#    x 1.820410 0.000000 0.000000 
#    y 0.000000 1.756950 0.000000 
#    z 0.000000 0.000000 1.737210 
# 
# From -- ./inp_files/42665.got.cif
#   From: 2010.05.17/outbox.cif.g08.bks.cpg/sg74_22_cif.got.tgz:42665.got - 2010.06.03 17:57:02.
