data_PCOD9537301
_publ_section_title
;
Structure prediction by ZEFSAII (Michael W. Deem and Ramdas Pophale) SiO2 
 PCOD9537301
Probable space group: I M M A
;
_chemical_formula_sum "Si O2"
_cell_formula_units_Z 80
_cell_length_a 9.393627
_cell_length_b 14.115656
_cell_length_c 34.500803
_cell_angle_alpha 90.000000
_cell_angle_beta 90.000000
_cell_angle_gamma 90.000000
_cell_volume 4574.710128
_symmetry_space_group_name_H-M "I M M A"
_symmetry_group_IT_number 74
_symmetry_cell_setting 'orthorhombic'
loop_
_space_group_symop_operation_xyz
x,y,z
-x,1/2-y,z
x,-y,-z
-x,1/2+y,-z
-x,-y,-z
x,1/2+y,-z
-x,y,z
x,1/2-y,z
1/2+x,1/2+y,1/2+z
1/2-x,-y,1/2+z
1/2+x,1/2-y,1/2-z
1/2-x,y,1/2-z
1/2-x,1/2-y,1/2-z
1/2+x,y,1/2-z
1/2-x,1/2+y,1/2+z
1/2+x,-y,1/2+z
loop_
_atom_site_type_symbol
_atom_site_label
_atom_site_fract_x
_atom_site_fract_y
_atom_site_fract_z
Si Si1 0.330319 0.541803 0.639559
Si Si2 0.169292 0.640886 0.095451
Si Si3 0.164300 0.135641 0.057126
Si Si4 0.667931 0.363259 0.210249
Si Si5 0.337166 0.865542 0.018015
O O1 0.500000 0.554003 0.646923
O O2 0.300961 0.431916 0.629941
O O3 0.297260 0.595623 0.599210
O O4 0.239923 0.582807 0.674571
O O5 0.206464 0.750000 0.104072
O O6 0.249843 0.609904 0.056515
O O7 0.000000 0.636491 0.087740
O O8 0.170521 0.250000 0.058829
O O9 0.000000 0.108601 0.049224
O O10 0.262633 0.103149 0.021723
O O11 0.500000 0.383988 0.213477
O O12 0.683407 0.250000 0.203947
O O13 0.750000 0.386516 0.250000
O O14 0.500000 0.896597 0.020577
O O15 0.336217 0.750000 0.016876
#
# Coordination Sequence:
#
# PCOD9537301 Si02
#       5
#    16  16  16  16  16
#     4  10  20  33  52  77 102 131 169 211 252 297
#     4   9  18  33  51  70  96 133 175 216 257 299
#     4   9  17  29  45  66  95 130 165 204 252 305
#     4  10  21  37  58  83 110 137 161 190 235 294
#     4   9  17  29  45  65  92 129 171 214 258 301
#
# _framework density 17.487447
#
# number of rings (size 3 to 8) (size 9 to 14) (size 15 to 20)
#    0.000    2.600    0.000    1.800    0.000    6.800 
#    0.000    6.000    0.000    0.600    0.000    0.000 
#    0.000    0.000    0.000    0.000    0.000    0.000 
#
# Total GULP energy -223300.534621 kJ/mol
# GULP energy per Si atom -5582.513366 kJ/mol
# Density = 1.744764 g / cm^3
# Si number density = 17.487447 Si / 1000 Ang^3
#
#
#
# Elastic Constant Matrix: (Units=GPa)
#
#
# Indices 1 2 3 4 5 6 
#
# 1 99.2300 50.2111 100.4648 0.0000 0.0000 0.0000
# 2 50.2111 64.0683 60.8628 0.0000 0.0000 0.0000
# 3 100.4648 60.8628 149.3444 0.0000 0.0000 0.0000
# 4 0.0000 0.0000 0.0000 31.1079 0.0000 0.0000
# 5 0.0000 0.0000 0.0000 0.0000 35.0848 0.0000
# 6 0.0000 0.0000 0.0000 0.0000 0.0000 15.9754
#
#
#
# Elastic Compliance Matrix: (Units=1/GPa)
#
#
# Indices 1 2 3 4 5 6 
#
# 1 0.033946 -0.008013 -0.019570 0.000000 0.000000 0.000000
# 2 -0.008013 0.027360 -0.005760 0.000000 0.000000 0.000000
# 3 -0.019570 -0.005760 0.022208 0.000000 0.000000 0.000000
# 4 0.000000 0.000000 0.000000 0.032146 0.000000 0.000000
# 5 0.000000 0.000000 0.000000 0.000000 0.028502 0.000000
# 6 0.000000 0.000000 0.000000 0.000000 0.000000 0.062596
#
#
# Mechanical properties :
#
#
# Convention : Reuss Voigt Hill
#
# Bulk Modulus (GPa) = 59.42342 81.74669 70.58505
# Shear Modulus (GPa) = 17.91779 23.17388 20.54584
#
# Velocity S-wave (km/s) = 3.20442 3.64424 3.43139
# Velocity P-wave (km/s) = 6.90981 8.03460 7.49334
#
# Compressibility (1/GPa) = 0.01682838
#
# Stress axis : x y z
#
# Youngs Moduli (GPa) = 29.45895 36.55026 45.02880
#
# Poissons Ratio (x) = 0.29287 0.88121
# Poissons Ratio (y) = 0.23605 0.25935
# Poissons Ratio (z) = 0.57651 0.21052
#
# Static dielectric constant tensor:
#      x y z
#    x 1.588630 0.000000 0.000000 
#    y 0.000000 1.640010 0.000000 
#    z 0.000000 0.000000 1.543270 
# 
# From -- ./inp_files/63912.got.cif
#   From: 2010.05.17/outbox.cif.g08.bks.cpg/sg74_32_cif.got.tgz:63912.got - 2010.06.03 17:57:02.
