data_PCOD9537456
_publ_section_title
;
Structure prediction by ZEFSAII (Michael W. Deem and Ramdas Pophale) SiO2 
 PCOD9537456
Probable space group: I M M A
;
_chemical_formula_sum "Si O2"
_cell_formula_units_Z 88
_cell_length_a 8.675417
_cell_length_b 23.133558
_cell_length_c 25.307680
_cell_angle_alpha 90.000000
_cell_angle_beta 90.000000
_cell_angle_gamma 90.000000
_cell_volume 5079.080862
_symmetry_space_group_name_H-M "I M M A"
_symmetry_group_IT_number 74
_symmetry_cell_setting 'orthorhombic'
loop_
_space_group_symop_operation_xyz
x,y,z
-x,1/2-y,z
x,-y,-z
-x,1/2+y,-z
-x,-y,-z
x,1/2+y,-z
-x,y,z
x,1/2-y,z
1/2+x,1/2+y,1/2+z
1/2-x,-y,1/2+z
1/2+x,1/2-y,1/2-z
1/2-x,y,1/2-z
1/2-x,1/2-y,1/2-z
1/2+x,y,1/2-z
1/2-x,1/2+y,1/2+z
1/2+x,-y,1/2+z
loop_
_atom_site_type_symbol
_atom_site_label
_atom_site_fract_x
_atom_site_fract_y
_atom_site_fract_z
Si Si1 0.815495 0.750000 0.309404
Si Si2 0.316159 0.181702 0.984097
Si Si3 0.814391 0.966853 0.192497
Si Si4 0.686214 0.599237 0.692345
Si Si5 0.313909 0.817147 0.597877
Si Si6 0.684996 0.142004 0.624512
O O1 0.750000 0.750000 0.250000
O O2 0.757005 0.806230 0.341022
O O3 0.000000 0.750000 0.307927
O O4 0.500000 0.175853 0.981760
O O5 0.278049 0.250000 0.977684
O O6 0.239752 0.148672 0.935523
O O7 0.255090 0.164223 0.041666
O O8 0.750000 0.950844 0.250000
O O9 0.767403 0.919095 0.149994
O O10 0.000000 0.966525 0.195152
O O11 0.765755 0.032844 0.181025
O O12 0.500000 0.600713 0.694542
O O13 0.750000 0.615056 0.750000
O O14 0.736419 0.642433 0.646152
O O15 0.500000 0.819668 0.594399
O O16 0.270400 0.750000 0.606848
O O17 0.500000 0.146875 0.626976
#
# Coordination Sequence:
#
# PCOD9537456 Si02
#       6
#     8  16  16  16  16  16
#     4  12  24  36  50  74 106 136 171 218 265 306
#     4  10  20  34  52  75 103 135 171 215 262 308
#     4   9  19  34  52  74 100 135 174 211 256 307
#     4   9  18  34  54  77 106 136 169 210 256 308
#     4   9  18  33  54  78 104 136 172 210 254 308
#     4  11  21  34  53  75 100 135 176 215 259 310
#
# _framework density 17.325969000000001
#
# number of rings (size 3 to 8) (size 9 to 14) (size 15 to 20)
#    0.000    2.182    0.909    2.455    0.000    4.727 
#    0.000    0.909    0.000    5.455    0.000    0.000 
#    0.000    0.000    0.000    0.000    0.000    0.000 
#
# Total GULP energy -245566.456080 kJ/mol
# GULP energy per Si atom -5581.055820 kJ/mol
# Density = 1.728653 g / cm^3
# Si number density = 17.325969 Si / 1000 Ang^3
#
#
#
# Elastic Constant Matrix: (Units=GPa)
#
#
# Indices 1 2 3 4 5 6 
#
# 1 31.3641 32.7044 45.5401 0.0000 0.0000 0.0000
# 2 32.7044 93.2170 106.9936 0.0000 0.0000 0.0000
# 3 45.5401 106.9936 187.8565 0.0000 0.0000 0.0000
# 4 0.0000 0.0000 0.0000 25.6718 0.0000 0.0000
# 5 0.0000 0.0000 0.0000 0.0000 32.7970 0.0000
# 6 0.0000 0.0000 0.0000 0.0000 0.0000 11.4328
#
#
#
# Elastic Compliance Matrix: (Units=1/GPa)
#
#
# Indices 1 2 3 4 5 6 
#
# 1 0.052895 -0.011089 -0.006507 0.000000 0.000000 0.000000
# 2 -0.011089 0.033305 -0.016281 0.000000 0.000000 0.000000
# 3 -0.006507 -0.016281 0.016173 0.000000 0.000000 0.000000
# 4 0.000000 0.000000 0.000000 0.038953 0.000000 0.000000
# 5 0.000000 0.000000 0.000000 0.000000 0.030491 0.000000
# 6 0.000000 0.000000 0.000000 0.000000 0.000000 0.087467
#
#
# Mechanical properties :
#
#
# Convention : Reuss Voigt Hill
#
# Bulk Modulus (GPa) = 28.88544 75.87931 52.38238
# Shear Modulus (GPa) = 14.76771 22.46028 18.61400
#
# Velocity S-wave (km/s) = 2.92266 3.60437 3.28127
# Velocity P-wave (km/s) = 5.30068 7.82382 6.68242
#
# Compressibility (1/GPa) = 0.03461952
#
# Stress axis : x y z
#
# Youngs Moduli (GPa) = 18.90555 30.02570 61.83075
#
# Poissons Ratio (x) = 0.33296 0.40233
# Poissons Ratio (y) = 0.20964 1.00664
# Poissons Ratio (z) = 0.12302 0.48883
#
# Static dielectric constant tensor:
#      x y z
#    x 1.582670 0.000000 0.000000 
#    y 0.000000 1.587840 0.000000 
#    z 0.000000 0.000000 1.558000 
# 
# From -- ./inp_files/48769.got.cif
#   From: 2010.05.17/outbox.cif.g08.bks.cpg/sg74_25_cif.got.tgz:48769.got - 2010.06.03 17:57:02.
