data_PCOD9537131
_publ_section_title
;
Structure prediction by ZEFSAII (Michael W. Deem and Ramdas Pophale) SiO2 
 PCOD9537131
Probable space group: I M M A
;
_chemical_formula_sum "Si O2"
_cell_formula_units_Z 72
_cell_length_a 7.598174
_cell_length_b 15.715240
_cell_length_c 29.397162
_cell_angle_alpha 90.000000
_cell_angle_beta 90.000000
_cell_angle_gamma 90.000000
_cell_volume 3510.230685
_symmetry_space_group_name_H-M "I M M A"
_symmetry_group_IT_number 74
_symmetry_cell_setting 'orthorhombic'
loop_
_space_group_symop_operation_xyz
x,y,z
-x,1/2-y,z
x,-y,-z
-x,1/2+y,-z
-x,-y,-z
x,1/2+y,-z
-x,y,z
x,1/2-y,z
1/2+x,1/2+y,1/2+z
1/2-x,-y,1/2+z
1/2+x,1/2-y,1/2-z
1/2-x,y,1/2-z
1/2-x,1/2-y,1/2-z
1/2+x,y,1/2-z
1/2-x,1/2+y,1/2+z
1/2+x,-y,1/2+z
loop_
_atom_site_type_symbol
_atom_site_label
_atom_site_fract_x
_atom_site_fract_y
_atom_site_fract_z
Si Si1 0.204996 0.154616 0.433033
Si Si2 0.212355 0.936012 0.803198
Si Si3 0.298316 0.019863 0.611137
Si Si4 0.712567 0.346395 0.538646
Si Si5 0.710237 0.750000 0.696175
O O1 0.274529 0.250000 0.422179
O O2 0.297613 0.074512 0.410397
O O3 0.217950 0.143311 0.487558
O O4 0.000000 0.152238 0.420524
O O5 0.250000 0.949248 0.750000
O O6 0.279858 0.005985 0.838661
O O7 0.279201 0.842094 0.818589
O O8 0.000000 0.933779 0.807211
O O9 0.500000 0.048652 0.617220
O O10 0.219260 0.084734 0.574653
O O11 0.500000 0.354890 0.534830
O O12 0.752358 0.250000 0.553472
O O13 0.500000 0.750000 0.689080
O O14 0.750000 0.750000 0.750000
#
# Coordination Sequence:
#
# PCOD9537131 Si02
#       5
#    16  16  16  16   8
#     4  10  21  34  48  72 104 133 160 195 241 292
#     4   9  18  31  47  68  94 124 159 197 238 283
#     4  10  20  32  51  75  97 127 167 204 241 287
#     4   9  18  34  53  72  96 128 165 204 244 287
#     4   8  14  26  42  60  84 116 148 182 224 270
#
# _framework density 20.511472000000001
#
# number of rings (size 3 to 8) (size 9 to 14) (size 15 to 20)
#    0.000    2.667    0.000    1.333    1.556    5.778 
#    0.000    0.000    0.000    0.667    0.000    0.000 
#    0.000    0.000    0.000    0.000    0.000    0.000 
#
# Total GULP energy -200813.579525 kJ/mol
# GULP energy per Si atom -5578.154987 kJ/mol
# Density = 2.046479 g / cm^3
# Si number density = 20.511472 Si / 1000 Ang^3
#
#
#
# Elastic Constant Matrix: (Units=GPa)
#
#
# Indices 1 2 3 4 5 6 
#
# 1 55.0824 0.6441 1.6464 0.0000 0.0000 0.0000
# 2 0.6441 55.0474 43.9974 0.0000 0.0000 0.0000
# 3 1.6464 43.9974 91.1422 0.0000 0.0000 0.0000
# 4 0.0000 0.0000 0.0000 36.4993 0.0000 0.0000
# 5 0.0000 0.0000 0.0000 0.0000 17.4541 0.0000
# 6 0.0000 0.0000 0.0000 0.0000 0.0000 -10.6847
#
#
#
# Elastic Compliance Matrix: (Units=1/GPa)
#
#
# Indices 1 2 3 4 5 6 
#
# 1 0.018165 0.000081 -0.000367 0.000000 0.000000 0.000000
# 2 0.000081 0.029579 -0.014280 0.000000 0.000000 0.000000
# 3 -0.000367 -0.014280 0.017872 0.000000 0.000000 0.000000
# 4 0.000000 0.000000 0.000000 0.027398 0.000000 0.000000
# 5 0.000000 0.000000 0.000000 0.000000 0.057293 0.000000
# 6 0.000000 0.000000 0.000000 0.000000 0.000000 -0.093592
#
#
# Mechanical properties :
#
#
# Convention : Reuss Voigt Hill
#
# Bulk Modulus (GPa) = 27.41029 32.64977 30.03003
# Shear Modulus (GPa) = 51.01608 18.98600 35.00104
#
# Velocity S-wave (km/s) = 4.99259 3.04571 4.13536
# Velocity P-wave (km/s) = 6.82840 5.32174 6.12160
#
# Compressibility (1/GPa) = 0.03648264
#
# Stress axis : x y z
#
# Youngs Moduli (GPa) = 55.05198 33.80801 55.95344
#
# Poissons Ratio (x) = -0.00274 0.02055
# Poissons Ratio (y) = -0.00446 0.79902
# Poissons Ratio (z) = 0.02022 0.48278
#
# Static dielectric constant tensor:
#      x y z
#    x 1.806220 0.000000 0.000000 
#    y 0.000000 1.737560 0.000000 
#    z 0.000000 0.000000 1.750590 
# 
# From -- ./inp_files/56654.got.cif
#   From: 2010.05.17/outbox.cif.g08.bks.cpg/sg74_29_cif.got.tgz:56654.got - 2010.06.03 17:57:02.
