data_PCOD9537371
_publ_section_title
;
Structure prediction by ZEFSAII (Michael W. Deem and Ramdas Pophale) SiO2 
 PCOD9537371
Probable space group: I M M A
;
_chemical_formula_sum "Si O2"
_cell_formula_units_Z 88
_cell_length_a 12.017958
_cell_length_b 18.723189
_cell_length_c 21.250203
_cell_angle_alpha 90.000000
_cell_angle_beta 90.000000
_cell_angle_gamma 90.000000
_cell_volume 4781.603782
_symmetry_space_group_name_H-M "I M M A"
_symmetry_group_IT_number 74
_symmetry_cell_setting 'orthorhombic'
loop_
_space_group_symop_operation_xyz
x,y,z
-x,1/2-y,z
x,-y,-z
-x,1/2+y,-z
-x,-y,-z
x,1/2+y,-z
-x,y,z
x,1/2-y,z
1/2+x,1/2+y,1/2+z
1/2-x,-y,1/2+z
1/2+x,1/2-y,1/2-z
1/2-x,y,1/2-z
1/2-x,1/2-y,1/2-z
1/2+x,y,1/2-z
1/2-x,1/2+y,1/2+z
1/2+x,-y,1/2+z
loop_
_atom_site_type_symbol
_atom_site_label
_atom_site_fract_x
_atom_site_fract_y
_atom_site_fract_z
Si Si1 0.000000 0.327285 0.126827
Si Si2 0.000000 0.083767 0.978285
Si Si3 0.000000 0.015276 0.128823
Si Si4 0.729479 0.832849 0.501772
Si Si5 0.251137 0.171641 0.347319
Si Si6 0.367326 0.449684 0.940048
Si Si7 0.746239 0.516322 0.680590
O O1 0.884658 0.325736 0.164214
O O2 0.000000 0.250000 0.090401
O O3 0.000000 0.405523 0.093764
O O4 0.000000 0.061118 0.904489
O O5 0.886348 0.126465 0.990097
O O6 0.000000 0.000000 0.000000
O O7 0.883851 0.019542 0.164218
O O8 0.719446 0.750000 0.485862
O O9 0.756907 0.836756 0.576621
O O10 0.822269 0.872852 0.461163
O O11 0.205175 0.250000 0.329483
O O12 0.207524 0.098339 0.318103
O O13 0.500000 0.451717 0.932793
O O14 0.308276 0.476906 0.876586
O O15 0.336232 0.500000 0.000000
O O16 0.750000 0.484113 0.750000
#
# Coordination Sequence:
#
# PCOD9537371 Si02
#       7
#     8   8   8  16  16  16  16
#     4   8  14  26  45  75 115 152 188 224 279 349
#     4  12  19  31  58  90 127 149 186 239 304 354
#     4  10  20  33  54  85 110 155 190 247 300 346
#     4  11  21  35  58  89 122 155 198 246 302 363
#     4   9  17  31  51  81 120 158 193 235 291 356
#     4  11  23  41  62  86 119 162 209 255 304 359
#     4  11  22  37  59  88 120 156 205 249 302 364
#
# _framework density 18.403867999999999
#
# number of rings (size 3 to 8) (size 9 to 14) (size 15 to 20)
#    0.000    1.636    3.636    3.545    1.273    2.182 
#    0.000    0.000    0.000    1.091    0.000    0.000 
#    0.000    0.000    0.000    0.000    0.000    0.000 
#
# Total GULP energy -245028.743576 kJ/mol
# GULP energy per Si atom -5568.835081 kJ/mol
# Density = 1.836198 g / cm^3
# Si number density = 18.403868 Si / 1000 Ang^3
#
#
#
# Elastic Constant Matrix: (Units=GPa)
#
#
# Indices 1 2 3 4 5 6 
#
# 1 63.9589 23.4306 36.1349 0.0000 0.0000 0.0000
# 2 23.4306 98.5813 39.8723 0.0000 0.0000 0.0000
# 3 36.1349 39.8723 94.8103 0.0000 0.0000 0.0000
# 4 0.0000 0.0000 0.0000 12.8089 0.0000 0.0000
# 5 0.0000 0.0000 0.0000 0.0000 -7.0472 0.0000
# 6 0.0000 0.0000 0.0000 0.0000 0.0000 11.2747
#
#
#
# Elastic Compliance Matrix: (Units=1/GPa)
#
#
# Indices 1 2 3 4 5 6 
#
# 1 0.020260 -0.002039 -0.006864 0.000000 0.000000 0.000000
# 2 -0.002039 0.012428 -0.004450 0.000000 0.000000 0.000000
# 3 -0.006864 -0.004450 0.015035 0.000000 0.000000 0.000000
# 4 0.000000 0.000000 0.000000 0.078071 0.000000 0.000000
# 5 0.000000 0.000000 0.000000 0.000000 -0.141901 0.000000
# 6 0.000000 0.000000 0.000000 0.000000 0.000000 0.088694
#
#
# Mechanical properties :
#
#
# Convention : Reuss Voigt Hill
#
# Bulk Modulus (GPa) = 47.57939 50.69182 49.13560
# Shear Modulus (GPa) = 47.03734 13.93480 30.48607
#
# Velocity S-wave (km/s) = 5.06102 2.75465 4.07443
# Velocity P-wave (km/s) = 7.74990 6.14177 6.99222
#
# Compressibility (1/GPa) = 0.02101751
#
# Stress axis : x y z
#
# Youngs Moduli (GPa) = 49.35815 80.46211 66.51264
#
# Poissons Ratio (x) = 0.16407 0.45655
# Poissons Ratio (y) = 0.10065 0.29595
# Poissons Ratio (z) = 0.33880 0.35802
#
# Static dielectric constant tensor:
#      x y z
#    x 1.621470 0.000000 0.000000 
#    y 0.000000 1.709300 0.000000 
#    z 0.000000 0.000000 1.902210 
# 
# From -- ./inp_files/50564.got.cif
#   From: 2010.05.17/outbox.cif.g08.bks.cpg/sg74_26_cif.got.tgz:50564.got - 2010.06.03 17:57:02.
