data_PCOD9537010
_publ_section_title
;
Structure prediction by ZEFSAII (Michael W. Deem and Ramdas Pophale) SiO2 
 PCOD9537010
Probable space group: I M M A
;
_chemical_formula_sum "Si O2"
_cell_formula_units_Z 80
_cell_length_a 7.918785
_cell_length_b 19.390781
_cell_length_c 27.975074
_cell_angle_alpha 90.000000
_cell_angle_beta 90.000000
_cell_angle_gamma 90.000000
_cell_volume 4295.612497
_symmetry_space_group_name_H-M "I M M A"
_symmetry_group_IT_number 74
_symmetry_cell_setting 'orthorhombic'
loop_
_space_group_symop_operation_xyz
x,y,z
-x,1/2-y,z
x,-y,-z
-x,1/2+y,-z
-x,-y,-z
x,1/2+y,-z
-x,y,z
x,1/2-y,z
1/2+x,1/2+y,1/2+z
1/2-x,-y,1/2+z
1/2+x,1/2-y,1/2-z
1/2-x,y,1/2-z
1/2-x,1/2-y,1/2-z
1/2+x,y,1/2-z
1/2-x,1/2+y,1/2+z
1/2+x,-y,1/2+z
loop_
_atom_site_type_symbol
_atom_site_label
_atom_site_fract_x
_atom_site_fract_y
_atom_site_fract_z
Si Si1 0.799071 0.174061 0.194886
Si Si2 0.293703 0.327193 0.902038
Si Si3 0.202822 0.395537 0.696728
Si Si4 0.293423 0.033096 0.950456
Si Si5 0.297858 0.967112 0.851882
O O1 0.731244 0.250000 0.180979
O O2 0.750000 0.162210 0.250000
O O3 0.743043 0.109553 0.163870
O O4 0.000000 0.176734 0.192487
O O5 0.500000 0.326987 0.902163
O O6 0.236672 0.250000 0.913709
O O7 0.240845 0.348986 0.848182
O O8 0.241729 0.388422 0.937954
O O9 0.250000 0.373810 0.750000
O O10 0.264271 0.473472 0.684679
O O11 0.000000 0.395697 0.695015
O O12 0.500000 0.033019 0.951503
O O13 0.238888 0.987913 0.904771
O O14 0.234883 0.000000 0.000000
O O15 0.500000 0.973281 0.852466
#
# Coordination Sequence:
#
# PCOD9537010 Si02
#       5
#    16  16  16  16  16
#     4  10  20  32  46  65  90 120 152 186 225 270
#     4   8  14  25  40  58  83 114 144 175 215 259
#     4   9  17  27  40  61  87 115 146 177 210 252
#     4   8  14  26  44  65  89 116 148 187 225 261
#     4   9  17  29  45  65  90 118 147 183 226 269
#
# _framework density 18.623654999999999
#
# number of rings (size 3 to 8) (size 9 to 14) (size 15 to 20)
#    0.000    3.200    0.000    3.600    0.000    4.000 
#    0.000    1.000    0.000    4.200    0.000    0.000 
#    0.000    0.000    0.000    0.000    0.000    0.000 
#
# Total GULP energy -222840.599094 kJ/mol
# GULP energy per Si atom -5571.014977 kJ/mol
# Density = 1.858127 g / cm^3
# Si number density = 18.623655 Si / 1000 Ang^3
#
#
#
# Elastic Constant Matrix: (Units=GPa)
#
#
# Indices 1 2 3 4 5 6 
#
# 1 12.8959 4.0035 3.6664 0.0000 0.0000 0.0000
# 2 4.0035 176.4678 82.5456 0.0000 0.0000 0.0000
# 3 3.6664 82.5456 111.3523 0.0000 0.0000 0.0000
# 4 0.0000 0.0000 0.0000 15.2797 0.0000 0.0000
# 5 0.0000 0.0000 0.0000 0.0000 12.5667 0.0000
# 6 0.0000 0.0000 0.0000 0.0000 0.0000 7.6357
#
#
#
# Elastic Compliance Matrix: (Units=1/GPa)
#
#
# Indices 1 2 3 4 5 6 
#
# 1 0.078365 -0.000874 -0.001932 0.000000 0.000000 0.000000
# 2 -0.000874 0.008685 -0.006409 0.000000 0.000000 0.000000
# 3 -0.001932 -0.006409 0.013795 0.000000 0.000000 0.000000
# 4 0.000000 0.000000 0.000000 0.065446 0.000000 0.000000
# 5 0.000000 0.000000 0.000000 0.000000 0.079576 0.000000
# 6 0.000000 0.000000 0.000000 0.000000 0.000000 0.130963
#
#
# Mechanical properties :
#
#
# Convention : Reuss Voigt Hill
#
# Bulk Modulus (GPa) = 12.13388 53.46078 32.79733
# Shear Modulus (GPa) = 11.82783 21.12979 16.47881
#
# Velocity S-wave (km/s) = 2.52285 3.37199 2.97784
# Velocity P-wave (km/s) = 3.87502 6.62786 5.42883
#
# Compressibility (1/GPa) = 0.08241384
#
# Stress axis : x y z
#
# Youngs Moduli (GPa) = 12.76080 115.14733 72.48906
#
# Poissons Ratio (x) = 0.10063 0.14008
# Poissons Ratio (y) = 0.01115 0.46459
# Poissons Ratio (z) = 0.02466 0.73799
#
# Static dielectric constant tensor:
#      x y z
#    x 1.698820 0.000000 0.000000 
#    y 0.000000 1.677300 0.000000 
#    z 0.000000 0.000000 1.622330 
# 
# From -- ./inp_files/63924.got.cif
#   From: 2010.05.17/outbox.cif.g08.bks.cpg/sg74_32_cif.got.tgz:63924.got - 2010.06.03 17:57:02.
