data_PCOD9537754
_publ_section_title
;
Structure prediction by ZEFSAII (Michael W. Deem and Ramdas Pophale) SiO2 
 PCOD9537754
Probable space group: I M M A
;
_chemical_formula_sum "Si O2"
_cell_formula_units_Z 52
_cell_length_a 14.277757
_cell_length_b 21.930159
_cell_length_c 7.535501
_cell_angle_alpha 90.000000
_cell_angle_beta 90.000000
_cell_angle_gamma 90.000000
_cell_volume 2359.466950
_symmetry_space_group_name_H-M "I M M A"
_symmetry_group_IT_number 74
_symmetry_cell_setting 'orthorhombic'
loop_
_space_group_symop_operation_xyz
x,y,z
-x,1/2-y,z
x,-y,-z
-x,1/2+y,-z
-x,-y,-z
x,1/2+y,-z
-x,y,z
x,1/2-y,z
1/2+x,1/2+y,1/2+z
1/2-x,-y,1/2+z
1/2+x,1/2-y,1/2-z
1/2-x,y,1/2-z
1/2-x,1/2-y,1/2-z
1/2+x,y,1/2-z
1/2-x,1/2+y,1/2+z
1/2+x,-y,1/2+z
loop_
_atom_site_type_symbol
_atom_site_label
_atom_site_fract_x
_atom_site_fract_y
_atom_site_fract_z
Si Si1 0.000000 0.083185 0.831585
Si Si2 0.640805 0.816369 0.208885
Si Si3 0.858864 0.653620 0.698648
Si Si4 0.500000 0.250000 0.354199
Si Si5 0.500000 0.448467 0.254122
O O1 0.087293 0.126555 0.789073
O O2 0.000000 0.020479 0.720659
O O3 0.000000 0.063269 0.034609
O O4 0.605452 0.750000 0.274466
O O5 0.750000 0.820077 0.250000
O O6 0.628669 0.818500 0.997234
O O7 0.750000 0.651132 0.750000
O O8 0.918158 0.696364 0.830370
O O9 0.908254 0.587613 0.688860
#
# Coordination Sequence:
#
# PCOD9537754 Si02
#       5
#     8  16  16   4   8
#     4  11  23  46  63  90 132 164 216 267 310 377
#     4  11  24  40  64  95 130 169 205 259 322 375
#     4  11  22  41  65  96 128 166 210 257 309 380
#     4  10  20  34  60  92 126 160 196 252 304 362
#     4  10  25  42  67  93 120 173 217 259 317 367
#
# _framework density 22.038876999999999
#
# number of rings (size 3 to 8) (size 9 to 14) (size 15 to 20)
#    0.000    1.231    1.538    4.615    0.000    3.692 
#   16.615    0.000    0.000    0.000    0.000    0.000 
#    0.000    0.000    0.000    0.000    0.000    0.000 
#
# Total GULP energy -145036.344030 kJ/mol
# GULP energy per Si atom -5578.320924 kJ/mol
# Density = 2.198872 g / cm^3
# Si number density = 22.038877 Si / 1000 Ang^3
#
#
#
# Elastic Constant Matrix: (Units=GPa)
#
#
# Indices 1 2 3 4 5 6 
#
# 1 188.4134 85.6543 -10.2921 0.0000 0.0000 0.0000
# 2 85.6543 233.8342 20.4577 0.0000 0.0000 0.0000
# 3 -10.2921 20.4577 61.0292 0.0000 0.0000 -0.0002
# 4 0.0000 0.0000 0.0000 19.9905 0.0000 0.0000
# 5 0.0000 0.0000 0.0000 0.0000 10.7328 0.0000
# 6 0.0000 0.0000 -0.0002 0.0000 0.0000 -58.6812
#
#
#
# Elastic Compliance Matrix: (Units=1/GPa)
#
#
# Indices 1 2 3 4 5 6 
#
# 1 0.006592 -0.002588 0.001979 0.000000 0.000000 0.000000
# 2 -0.002588 0.005422 -0.002254 0.000000 0.000000 0.000000
# 3 0.001979 -0.002254 0.017475 0.000000 0.000000 0.000000
# 4 0.000000 0.000000 0.000000 0.050024 0.000000 0.000000
# 5 0.000000 0.000000 0.000000 0.000000 0.093172 0.000000
# 6 0.000000 0.000000 0.000000 0.000000 0.000000 -0.017041
#
#
# Mechanical properties :
#
#
# Convention : Reuss Voigt Hill
#
# Bulk Modulus (GPa) = 42.08118 74.99072 58.53595
# Shear Modulus (GPa) = 29.53527 20.23890 24.88709
#
# Velocity S-wave (km/s) = 3.66477 3.03368 3.36406
# Velocity P-wave (km/s) = 6.08629 6.80965 6.45811
#
# Compressibility (1/GPa) = 0.02376359
#
# Stress axis : x y z
#
# Youngs Moduli (GPa) = 151.69805 184.44564 57.22501
#
# Poissons Ratio (x) = 0.47732 -0.11326
# Poissons Ratio (y) = 0.39257 0.12897
# Poissons Ratio (z) = -0.30024 0.41571
#
# Static dielectric constant tensor:
#      x y z
#    x 1.759620 0.000000 0.000000 
#    y 0.000000 1.809540 0.000000 
#    z 0.000000 0.000000 1.896620 
# 
# From -- ./inp_files/8360.got.cif
#   From: 2010.05.17/outbox.cif.g08.bks.cpg/sg74_5_cif.got.tgz:8360.got - 2010.06.03 17:57:02.
