data_PCOD9537436
_publ_section_title
;
Structure prediction by ZEFSAII (Michael W. Deem and Ramdas Pophale) SiO2 
 PCOD9537436
Probable space group: I M M A
;
_chemical_formula_sum "Si O2"
_cell_formula_units_Z 100
_cell_length_a 21.010161
_cell_length_b 9.169276
_cell_length_c 29.549156
_cell_angle_alpha 90.000000
_cell_angle_beta 90.000000
_cell_angle_gamma 90.000000
_cell_volume 5692.584771
_symmetry_space_group_name_H-M "I M M A"
_symmetry_group_IT_number 74
_symmetry_cell_setting 'orthorhombic'
loop_
_space_group_symop_operation_xyz
x,y,z
-x,1/2-y,z
x,-y,-z
-x,1/2+y,-z
-x,-y,-z
x,1/2+y,-z
-x,y,z
x,1/2-y,z
1/2+x,1/2+y,1/2+z
1/2-x,-y,1/2+z
1/2+x,1/2-y,1/2-z
1/2-x,y,1/2-z
1/2-x,1/2-y,1/2-z
1/2+x,y,1/2-z
1/2-x,1/2+y,1/2+z
1/2+x,-y,1/2+z
loop_
_atom_site_type_symbol
_atom_site_label
_atom_site_fract_x
_atom_site_fract_y
_atom_site_fract_z
Si Si1 0.883525 0.079355 0.545849
Si Si2 0.230729 0.923452 0.047411
Si Si3 0.000000 0.250000 0.768019
Si Si4 0.308703 0.575916 0.639585
Si Si5 0.629906 0.089463 0.714273
Si Si6 0.429840 0.578750 0.866358
Si Si7 0.184824 0.422404 0.298380
O O1 0.895539 0.250000 0.541957
O O2 0.807363 0.056960 0.551784
O O3 0.903245 0.000000 0.500000
O O4 0.917940 0.013310 0.588969
O O5 0.217988 0.750000 0.046028
O O6 0.199696 0.998767 0.091187
O O7 0.212142 0.000000 0.000000
O O8 0.942253 0.124943 0.770390
O O9 0.313575 0.750000 0.633953
O O10 0.365325 0.509014 0.669550
O O11 0.246143 0.545944 0.670712
O O12 0.657711 0.250000 0.703384
O O13 0.671316 0.014611 0.753643
O O14 0.500000 0.549128 0.847769
O O15 0.425511 0.750000 0.878302
O O16 0.375733 0.549249 0.830181
O O17 0.187219 0.250000 0.286496
#
# Coordination Sequence:
#
# PCOD9537436 Si02
#       7
#    16  16   4  16  16  16  16
#     4  10  20  34  52  72 100 141 188 237 289 333
#     4  10  20  34  55  84 119 153 187 236 292 346
#     4   8  24  44  56  84 118 156 192 240 292 340
#     4  11  21  36  60  90 120 150 192 242 295 347
#     4  10  22  39  59  80 117 151 193 231 289 343
#     4  10  21  35  51  72 102 146 193 240 288 337
#     4  10  21  36  56  83 116 151 195 246 292 338
#
# _framework density 17.566711999999999
#
# number of rings (size 3 to 8) (size 9 to 14) (size 15 to 20)
#    0.480    1.440    1.600    2.400    1.120    5.760 
#    0.000    1.200    0.000    0.000    0.000    0.560 
#    0.000    0.000    0.000    0.000    0.000    0.000 
#
# Total GULP energy -278408.058120 kJ/mol
# GULP energy per Si atom -5568.161162 kJ/mol
# Density = 1.752673 g / cm^3
# Si number density = 17.566712 Si / 1000 Ang^3
#
#
#
# Elastic Constant Matrix: (Units=GPa)
#
#
# Indices 1 2 3 4 5 6 
#
# 1 34.1953 12.2023 19.1018 0.0000 0.0000 0.0000
# 2 12.2023 46.4918 49.9248 0.0000 0.0000 0.0000
# 3 19.1018 49.9248 93.0418 0.0000 0.0000 0.0000
# 4 0.0000 0.0000 0.0000 34.5826 0.0000 0.0000
# 5 0.0000 0.0000 0.0000 0.0000 6.6221 0.0000
# 6 0.0000 0.0000 0.0000 0.0000 0.0000 2.8980
#
#
#
# Elastic Compliance Matrix: (Units=1/GPa)
#
#
# Indices 1 2 3 4 5 6 
#
# 1 0.033244 -0.003295 -0.005057 0.000000 0.000000 0.000000
# 2 -0.003295 0.051081 -0.026733 0.000000 0.000000 0.000000
# 3 -0.005057 -0.026733 0.026131 0.000000 0.000000 0.000000
# 4 0.000000 0.000000 0.000000 0.028916 0.000000 0.000000
# 5 0.000000 0.000000 0.000000 0.000000 0.151009 0.000000
# 6 0.000000 0.000000 0.000000 0.000000 0.000000 0.345065
#
#
# Mechanical properties :
#
#
# Convention : Reuss Voigt Hill
#
# Bulk Modulus (GPa) = 24.82234 37.35408 31.08821
# Shear Modulus (GPa) = 6.95368 14.98721 10.97044
#
# Velocity S-wave (km/s) = 1.99174 2.92406 2.50171
# Velocity P-wave (km/s) = 4.41026 5.71930 5.10690
#
# Compressibility (1/GPa) = 0.04028628
#
# Stress axis : x y z
#
# Youngs Moduli (GPa) = 30.08019 19.57692 38.26941
#
# Poissons Ratio (x) = 0.06450 0.19354
# Poissons Ratio (y) = 0.09910 1.02304
# Poissons Ratio (z) = 0.15213 0.52334
#
# Static dielectric constant tensor:
#      x y z
#    x 1.584790 0.000000 0.000000 
#    y 0.000000 1.598810 0.000000 
#    z 0.000000 0.000000 1.578590 
# 
# From -- ./inp_files/73363.got.cif
#   From: 2010.05.17/outbox.cif.g08.bks.cpg/sg74_37_cif.got.tgz:73363.got - 2010.06.03 17:57:02.
