data_PCOD9537524
_publ_section_title
;
Structure prediction by ZEFSAII (Michael W. Deem and Ramdas Pophale) SiO2 
 PCOD9537524
Probable space group: I M M A
;
_chemical_formula_sum "Si O2"
_cell_formula_units_Z 88
_cell_length_a 15.720770
_cell_length_b 22.815074
_cell_length_c 13.402827
_cell_angle_alpha 90.000000
_cell_angle_beta 90.000000
_cell_angle_gamma 90.000000
_cell_volume 4807.199075
_symmetry_space_group_name_H-M "I M M A"
_symmetry_group_IT_number 74
_symmetry_cell_setting 'orthorhombic'
loop_
_space_group_symop_operation_xyz
x,y,z
-x,1/2-y,z
x,-y,-z
-x,1/2+y,-z
-x,-y,-z
x,1/2+y,-z
-x,y,z
x,1/2-y,z
1/2+x,1/2+y,1/2+z
1/2-x,-y,1/2+z
1/2+x,1/2-y,1/2-z
1/2-x,y,1/2-z
1/2-x,1/2-y,1/2-z
1/2+x,y,1/2-z
1/2-x,1/2+y,1/2+z
1/2+x,-y,1/2+z
loop_
_atom_site_type_symbol
_atom_site_label
_atom_site_fract_x
_atom_site_fract_y
_atom_site_fract_z
Si Si1 0.654149 0.613194 0.780332
Si Si2 0.135242 0.185385 0.090182
Si Si3 0.500000 0.406474 0.480976
Si Si4 0.170278 0.683805 0.525704
Si Si5 0.500000 0.101418 0.714085
Si Si6 0.000000 0.469562 0.219718
Si Si7 0.654575 0.819574 0.209242
O O1 0.750000 0.592850 0.750000
O O2 0.641684 0.668909 0.706749
O O3 0.642472 0.636438 0.892549
O O4 0.583851 0.564806 0.756434
O O5 0.098772 0.250000 0.076476
O O6 0.080485 0.134172 0.043689
O O7 0.228042 0.185278 0.041615
O O8 0.500000 0.414279 0.597737
O O9 0.500000 0.458900 0.400877
O O10 0.138247 0.750000 0.547854
O O11 0.151446 0.671165 0.410369
O O12 0.582853 0.139677 0.741843
O O13 0.500000 0.035896 0.758963
O O14 0.638137 0.750000 0.228372
O O15 0.750000 0.831813 0.250000
#
# Coordination Sequence:
#
# PCOD9537524 Si02
#       7
#    16  16   8  16   8   8  16
#     4   9  18  34  55  80 111 143 176 218 267 317
#     4   9  16  28  52  85 112 136 170 217 274 328
#     4  10  20  34  53  77 106 138 176 225 274 317
#     4   9  17  32  54  79 111 146 176 213 266 321
#     4  12  24  39  58  77 104 144 185 221 263 314
#     4  10  23  39  55  78 106 138 182 228 265 311
#     4  10  22  39  58  83 112 140 175 218 263 316
#
# _framework density 18.305879000000001
#
# number of rings (size 3 to 8) (size 9 to 14) (size 15 to 20)
#    0.000    2.364    0.000    2.455    0.000    6.545 
#    0.000    4.091    0.000    0.000    0.000    0.000 
#    0.000    0.000    0.000    0.000    0.000    0.000 
#
# Total GULP energy -245221.738376 kJ/mol
# GULP energy per Si atom -5573.221327 kJ/mol
# Density = 1.826421 g / cm^3
# Si number density = 18.305879 Si / 1000 Ang^3
#
#
#
# Elastic Constant Matrix: (Units=GPa)
#
#
# Indices 1 2 3 4 5 6 
#
# 1 86.6317 70.1066 45.1790 0.0000 0.0000 0.0000
# 2 70.1066 117.1677 53.1463 0.0001 0.0000 0.0000
# 3 45.1790 53.1463 102.1456 0.0001 0.0000 0.0000
# 4 0.0000 0.0001 0.0001 12.3975 0.0000 0.0000
# 5 0.0000 0.0000 0.0000 0.0000 14.1583 0.0000
# 6 0.0000 0.0000 0.0000 0.0000 0.0000 9.6630
#
#
#
# Elastic Compliance Matrix: (Units=1/GPa)
#
#
# Indices 1 2 3 4 5 6 
#
# 1 0.023590 -0.012281 -0.004044 0.000000 0.000000 0.000000
# 2 -0.012281 0.017564 -0.003707 0.000000 0.000000 0.000000
# 3 -0.004044 -0.003707 0.013508 0.000000 0.000000 0.000000
# 4 0.000000 0.000000 0.000000 0.080662 0.000000 0.000000
# 5 0.000000 0.000000 0.000000 0.000000 0.070630 0.000000
# 6 0.000000 0.000000 0.000000 0.000000 0.000000 0.103487
#
#
# Mechanical properties :
#
#
# Convention : Reuss Voigt Hill
#
# Bulk Modulus (GPa) = 68.50181 71.42320 69.96251
# Shear Modulus (GPa) = 14.10949 16.41130 15.26040
#
# Velocity S-wave (km/s) = 2.77927 2.99742 2.89040
# Velocity P-wave (km/s) = 6.91383 7.14707 7.03142
#
# Compressibility (1/GPa) = 0.01459815
#
# Stress axis : x y z
#
# Youngs Moduli (GPa) = 42.39006 56.93373 74.03293
#
# Poissons Ratio (x) = 0.69918 0.29942
# Poissons Ratio (y) = 0.52058 0.27444
# Poissons Ratio (z) = 0.17144 0.21105
#
# Static dielectric constant tensor:
#      x y z
#    x 1.631160 0.000000 0.000000 
#    y 0.000000 1.608130 0.000000 
#    z 0.000000 0.000000 1.655220 
# 
# From -- ./inp_files/22252.got.cif
#   From: 2010.05.17/outbox.cif.g08.bks.cpg/sg74_12_cif.got.tgz:22252.got - 2010.06.03 17:57:02.
