data_PCOD9537018
_publ_section_title
;
Structure prediction by ZEFSAII (Michael W. Deem and Ramdas Pophale) SiO2 
 PCOD9537018
Probable space group: I M M A
;
_chemical_formula_sum "Si O2"
_cell_formula_units_Z 96
_cell_length_a 8.280322
_cell_length_b 24.425013
_cell_length_c 25.120132
_cell_angle_alpha 90.000000
_cell_angle_beta 90.000000
_cell_angle_gamma 90.000000
_cell_volume 5080.470646
_symmetry_space_group_name_H-M "I M M A"
_symmetry_group_IT_number 74
_symmetry_cell_setting 'orthorhombic'
loop_
_space_group_symop_operation_xyz
x,y,z
-x,1/2-y,z
x,-y,-z
-x,1/2+y,-z
-x,-y,-z
x,1/2+y,-z
-x,y,z
x,1/2-y,z
1/2+x,1/2+y,1/2+z
1/2-x,-y,1/2+z
1/2+x,1/2-y,1/2-z
1/2-x,y,1/2-z
1/2-x,1/2-y,1/2-z
1/2+x,y,1/2-z
1/2-x,1/2+y,1/2+z
1/2+x,-y,1/2+z
loop_
_atom_site_type_symbol
_atom_site_label
_atom_site_fract_x
_atom_site_fract_y
_atom_site_fract_z
Si Si1 0.195247 0.687865 0.101687
Si Si2 0.305455 0.312201 0.018933
Si Si3 0.684186 0.608437 0.892319
Si Si4 0.695209 0.103673 0.691600
Si Si5 0.808028 0.521578 0.808580
Si Si6 0.184871 0.815081 0.808364
O O1 0.239350 0.750000 0.117585
O O2 0.251347 0.643673 0.144775
O O3 0.000000 0.685241 0.098677
O O4 0.262440 0.678646 0.042566
O O5 0.500000 0.311612 0.025110
O O6 0.247554 0.250000 0.033342
O O7 0.242299 0.362368 0.055259
O O8 0.500000 0.593170 0.903832
O O9 0.760247 0.558779 0.858833
O O10 0.697706 0.657970 0.850463
O O11 0.500000 0.103225 0.690570
O O12 0.750000 0.122332 0.750000
O O13 0.752748 0.040890 0.684700
O O14 0.750000 0.541360 0.750000
O O15 0.000000 0.520182 0.805964
O O16 0.183553 0.750000 0.814487
O O17 0.250000 0.827638 0.750000
O O18 0.000000 0.835175 0.815167
#
# Coordination Sequence:
#
# PCOD9537018 Si02
#       6
#    16  16  16  16  16  16
#     4   9  18  34  56  81 108 135 165 204 250 302
#     4   9  19  35  53  74 101 134 171 211 256 303
#     4  11  21  33  50  71  97 131 173 217 258 301
#     4   9  19  35  55  80 108 137 167 203 250 302
#     4  10  20  35  53  73 101 136 174 214 256 304
#     4  10  20  32  46  66  93 125 163 209 261 312
#
# _framework density 18.895886999999998
#
# number of rings (size 3 to 8) (size 9 to 14) (size 15 to 20)
#    0.000    2.333    0.000    2.500    0.000    4.667 
#    0.000    2.500    0.000    5.000    0.000    0.000 
#    0.000    0.000    0.000    0.000    0.000    0.000 
#
# Total GULP energy -267599.695205 kJ/mol
# GULP energy per Si atom -5574.993650 kJ/mol
# Density = 1.885288 g / cm^3
# Si number density = 18.895887 Si / 1000 Ang^3
#
#
#
# Elastic Constant Matrix: (Units=GPa)
#
#
# Indices 1 2 3 4 5 6 
#
# 1 18.2295 9.1980 1.1814 0.0000 0.0000 0.0000
# 2 9.1980 98.5741 72.1114 0.0000 0.0000 0.0000
# 3 1.1814 72.1114 106.4732 0.0000 0.0000 0.0000
# 4 0.0000 0.0000 0.0000 37.2965 0.0000 0.0000
# 5 0.0000 0.0000 0.0000 0.0000 21.1690 0.0000
# 6 0.0000 0.0000 0.0000 0.0000 0.0000 63.6396
#
#
#
# Elastic Compliance Matrix: (Units=1/GPa)
#
#
# Indices 1 2 3 4 5 6 
#
# 1 0.059530 -0.010052 0.006147 0.000000 0.000000 0.000000
# 2 -0.010052 0.021804 -0.014656 0.000000 0.000000 0.000000
# 3 0.006147 -0.014656 0.019250 0.000000 0.000000 0.000000
# 4 0.000000 0.000000 0.000000 0.026812 0.000000 0.000000
# 5 0.000000 0.000000 0.000000 0.000000 0.047239 0.000000
# 6 0.000000 0.000000 0.000000 0.000000 0.000000 0.015713
#
#
# Mechanical properties :
#
#
# Convention : Reuss Voigt Hill
#
# Bulk Modulus (GPa) = 15.75725 43.13981 29.44853
# Shear Modulus (GPa) = 20.11086 33.80677 26.95881
#
# Velocity S-wave (km/s) = 3.26590 4.23437 3.78127
# Velocity P-wave (km/s) = 4.75169 6.84006 5.88918
#
# Compressibility (1/GPa) = 0.06346286
#
# Stress axis : x y z
#
# Youngs Moduli (GPa) = 16.79838 45.86357 51.94898
#
# Poissons Ratio (x) = 0.46100 -0.31934
# Poissons Ratio (y) = 0.16885 0.76134
# Poissons Ratio (z) = -0.10326 0.67216
#
# Static dielectric constant tensor:
#      x y z
#    x 1.678650 0.000000 0.000000 
#    y 0.000000 1.683900 0.000000 
#    z 0.000000 0.000000 1.636050 
# 
# From -- ./inp_files/55109.got.cif
#   From: 2010.05.17/outbox.cif.g08.bks.cpg/sg74_28_cif.got.tgz:55109.got - 2010.06.03 17:57:02.
