data_PCOD9537453
_publ_section_title
;
Structure prediction by ZEFSAII (Michael W. Deem and Ramdas Pophale) SiO2 
 PCOD9537453
Probable space group: I M M A
;
_chemical_formula_sum "Si O2"
_cell_formula_units_Z 104
_cell_length_a 29.237461
_cell_length_b 8.668499
_cell_length_c 24.703803
_cell_angle_alpha 90.000000
_cell_angle_beta 90.000000
_cell_angle_gamma 90.000000
_cell_volume 6261.052917
_symmetry_space_group_name_H-M "I M M A"
_symmetry_group_IT_number 74
_symmetry_cell_setting 'orthorhombic'
loop_
_space_group_symop_operation_xyz
x,y,z
-x,1/2-y,z
x,-y,-z
-x,1/2+y,-z
-x,-y,-z
x,1/2+y,-z
-x,y,z
x,1/2-y,z
1/2+x,1/2+y,1/2+z
1/2-x,-y,1/2+z
1/2+x,1/2-y,1/2-z
1/2-x,y,1/2-z
1/2-x,1/2-y,1/2-z
1/2+x,y,1/2-z
1/2-x,1/2+y,1/2+z
1/2+x,-y,1/2+z
loop_
_atom_site_type_symbol
_atom_site_label
_atom_site_fract_x
_atom_site_fract_y
_atom_site_fract_z
Si Si1 0.176987 0.566159 0.561179
Si Si2 0.126987 0.564141 0.060683
Si Si3 0.946490 0.565495 0.733678
Si Si4 0.728280 0.065029 0.561064
Si Si5 0.408952 0.564912 0.125449
Si Si6 0.947149 0.436391 0.851717
Si Si7 0.000000 0.435887 0.560385
O O1 0.172128 0.500000 0.500000
O O2 0.177229 0.750000 0.557887
O O3 0.225606 0.507341 0.584688
O O4 0.135200 0.507087 0.597149
O O5 0.125277 0.750000 0.056945
O O6 0.177861 0.524429 0.082884
O O7 0.087291 0.512466 0.101251
O O8 0.121683 0.500000 0.000000
O O9 0.943038 0.750000 0.731287
O O10 0.916539 0.490271 0.686680
O O11 0.934670 0.506457 0.793558
O O12 0.000000 0.522249 0.724405
O O13 0.732886 0.750000 0.439744
O O14 0.727116 0.000000 0.500000
O O15 0.405882 0.750000 0.123491
O O16 0.454364 0.515656 0.092226
O O17 0.944924 0.250000 0.847949
O O18 0.000000 0.478530 0.863460
O O19 0.000000 0.500000 0.500000
O O20 0.000000 0.250000 0.558338
#
# Coordination Sequence:
#
# PCOD9537453 Si02
#       7
#    16  16  16  16  16  16   8
#     4  11  21  33  49  73 101 131 167 208 254 301
#     4   9  18  31  50  77 106 136 169 203 247 298
#     4  10  20  34  52  74  98 129 171 214 251 292
#     4   9  16  29  48  70  97 130 167 206 246 295
#     4  11  21  35  52  72  97 132 170 207 252 301
#     4   9  18  33  52  74 103 138 171 205 245 296
#     4  10  22  34  48  70  98 130 163 198 245 298
#
# _framework density 16.610624000000001
#
# number of rings (size 3 to 8) (size 9 to 14) (size 15 to 20)
#    0.000    2.154    0.769    4.154    0.000    4.615 
#    0.000    0.000    0.000    0.923    0.000    6.462 
#    0.000    0.000    0.000    0.000    0.000    0.000 
#
# Total GULP energy -290022.084422 kJ/mol
# GULP energy per Si atom -5577.347777 kJ/mol
# Density = 1.657282 g / cm^3
# Si number density = 16.610624 Si / 1000 Ang^3
#
#
#
# Elastic Constant Matrix: (Units=GPa)
#
#
# Indices 1 2 3 4 5 6 
#
# 1 152.0691 49.2973 86.8157 0.0000 0.0000 0.0000
# 2 49.2973 59.4559 35.5038 0.0000 0.0000 0.0000
# 3 86.8157 35.5038 101.4691 0.0000 0.0000 0.0000
# 4 0.0000 0.0000 0.0000 25.4188 0.0000 0.0000
# 5 0.0000 0.0000 0.0000 0.0000 6.6725 0.0000
# 6 0.0000 0.0000 0.0000 0.0000 0.0000 18.4082
#
#
#
# Elastic Compliance Matrix: (Units=1/GPa)
#
#
# Indices 1 2 3 4 5 6 
#
# 1 0.014249 -0.005732 -0.010186 0.000000 0.000000 0.000000
# 2 -0.005732 0.023568 -0.003342 0.000000 0.000000 0.000000
# 3 -0.010186 -0.003342 0.019739 0.000000 0.000000 0.000000
# 4 0.000000 0.000000 0.000000 0.039341 0.000000 0.000000
# 5 0.000000 0.000000 0.000000 0.000000 0.149869 0.000000
# 6 0.000000 0.000000 0.000000 0.000000 0.000000 0.054323
#
#
# Mechanical properties :
#
#
# Convention : Reuss Voigt Hill
#
# Bulk Modulus (GPa) = 52.53067 72.91420 62.72243
# Shear Modulus (GPa) = 14.45277 19.52507 16.98892
#
# Velocity S-wave (km/s) = 2.95293 3.43221 3.20155
# Velocity P-wave (km/s) = 6.58178 7.72646 7.17698
#
# Compressibility (1/GPa) = 0.01903650
#
# Stress axis : x y z
#
# Youngs Moduli (GPa) = 70.17914 42.43121 50.66032
#
# Poissons Ratio (x) = 0.24323 0.51601
# Poissons Ratio (y) = 0.40228 0.16930
# Poissons Ratio (z) = 0.71483 0.14180
#
# Static dielectric constant tensor:
#      x y z
#    x 1.587580 0.000000 0.000000 
#    y 0.000000 1.558220 0.000000 
#    z 0.000000 0.000000 1.515970 
# 
# From -- ./inp_files/62341.got.cif
#   From: 2010.05.17/outbox.cif.g08.bks.cpg/sg74_32_cif.got.tgz:62341.got - 2010.06.03 17:57:02.
