data_PCOD9537604
_publ_section_title
;
Structure prediction by ZEFSAII (Michael W. Deem and Ramdas Pophale) SiO2 
 PCOD9537604
Probable space group: I M M A
;
_chemical_formula_sum "Si O2"
_cell_formula_units_Z 80
_cell_length_a 21.229590
_cell_length_b 9.239374
_cell_length_c 19.516478
_cell_angle_alpha 90.000000
_cell_angle_beta 90.000000
_cell_angle_gamma 90.000000
_cell_volume 3828.120505
_symmetry_space_group_name_H-M "I M M A"
_symmetry_group_IT_number 74
_symmetry_cell_setting 'orthorhombic'
loop_
_space_group_symop_operation_xyz
x,y,z
-x,1/2-y,z
x,-y,-z
-x,1/2+y,-z
-x,-y,-z
x,1/2+y,-z
-x,y,z
x,1/2-y,z
1/2+x,1/2+y,1/2+z
1/2-x,-y,1/2+z
1/2+x,1/2-y,1/2-z
1/2-x,y,1/2-z
1/2-x,1/2-y,1/2-z
1/2+x,y,1/2-z
1/2-x,1/2+y,1/2+z
1/2+x,-y,1/2+z
loop_
_atom_site_type_symbol
_atom_site_label
_atom_site_fract_x
_atom_site_fract_y
_atom_site_fract_z
Si Si1 0.170492 0.582503 0.681644
Si Si2 0.070245 0.075116 0.209663
Si Si3 0.596855 0.917972 0.430268
Si Si4 0.570194 0.415087 0.062941
Si Si5 0.748742 0.417675 0.571456
O O1 0.191595 0.750000 0.691125
O O2 0.133846 0.528607 0.749454
O O3 0.112490 0.581782 0.628832
O O4 0.222580 0.492063 0.639932
O O5 0.074158 0.250000 0.205527
O O6 0.000000 0.043297 0.240447
O O7 0.071999 0.002021 0.135721
O O8 0.577407 0.750000 0.431476
O O9 0.673032 0.920852 0.425024
O O10 0.579062 0.000000 0.500000
O O11 0.500000 0.472110 0.076574
O O12 0.565376 0.250000 0.041053
O O13 0.598413 0.500000 0.000000
O O14 0.764516 0.500000 0.500000
O O15 0.769598 0.250000 0.567410
#
# Coordination Sequence:
#
# PCOD9537604 Si02
#       5
#    16  16  16  16  16
#     4  10  20  34  54  80 113 152 190 229 277 335
#     4  10  22  40  61  86 117 153 192 235 285 341
#     4  10  22  41  64  88 114 146 187 237 291 347
#     4   9  17  29  45  67  98 138 184 230 272 316
#     4  10  21  37  58  85 117 152 192 238 286 337
#
# _framework density 20.897983
#
# number of rings (size 3 to 8) (size 9 to 14) (size 15 to 20)
#    0.000    2.200    0.000    2.400    0.000    9.600 
#    0.000    4.000    0.000    3.600    0.000    0.000 
#    0.000    0.000    0.000    0.000    0.000    0.000 
#
# Total GULP energy -223115.578917 kJ/mol
# GULP energy per Si atom -5577.889473 kJ/mol
# Density = 2.085042 g / cm^3
# Si number density = 20.897983 Si / 1000 Ang^3
#
#
#
# Elastic Constant Matrix: (Units=GPa)
#
#
# Indices 1 2 3 4 5 6 
#
# 1 85.7140 27.2192 22.0904 0.0000 0.0000 0.0000
# 2 27.2192 56.0638 40.5427 0.0000 0.0000 0.0000
# 3 22.0904 40.5427 112.7291 0.0000 0.0000 0.0000
# 4 0.0000 0.0000 0.0000 30.9252 0.0000 0.0000
# 5 0.0000 0.0000 0.0000 0.0000 20.3673 0.0000
# 6 0.0000 0.0000 0.0000 0.0000 0.0000 20.3846
#
#
#
# Elastic Compliance Matrix: (Units=1/GPa)
#
#
# Indices 1 2 3 4 5 6 
#
# 1 0.013807 -0.006415 -0.000398 0.000000 0.000000 0.000000
# 2 -0.006415 0.027087 -0.008485 0.000000 0.000000 0.000000
# 3 -0.000398 -0.008485 0.012000 0.000000 0.000000 0.000000
# 4 0.000000 0.000000 0.000000 0.032336 0.000000 0.000000
# 5 0.000000 0.000000 0.000000 0.000000 0.049098 0.000000
# 6 0.000000 0.000000 0.000000 0.000000 0.000000 0.049057
#
#
# Mechanical properties :
#
#
# Convention : Reuss Voigt Hill
#
# Bulk Modulus (GPa) = 44.84753 48.24570 46.54661
# Shear Modulus (GPa) = 22.58214 25.31239 23.94727
#
# Velocity S-wave (km/s) = 3.29080 3.48406 3.38881
# Velocity P-wave (km/s) = 5.99549 6.27067 6.13462
#
# Compressibility (1/GPa) = 0.02229777
#
# Stress axis : x y z
#
# Youngs Moduli (GPa) = 72.42953 36.91801 83.33064
#
# Poissons Ratio (x) = 0.23683 0.03320
# Poissons Ratio (y) = 0.46464 0.70703
# Poissons Ratio (z) = 0.02885 0.31324
#
# Static dielectric constant tensor:
#      x y z
#    x 1.816350 0.000000 0.000000 
#    y 0.000000 1.715560 0.000000 
#    z 0.000000 0.000000 0.856550 
# 
# From -- ./inp_files/46491.got.cif
#   From: 2010.05.17/outbox.cif.g08.bks.cpg/sg74_24_cif.got.tgz:46491.got - 2010.06.03 17:57:02.
