data_PCOD9537878
_publ_section_title
;
Structure prediction by ZEFSAII (Michael W. Deem and Ramdas Pophale) SiO2 
 PCOD9537878
Probable space group: I M M A
;
_chemical_formula_sum "Si O2"
_cell_formula_units_Z 64
_cell_length_a 10.429180
_cell_length_b 17.828215
_cell_length_c 19.564725
_cell_angle_alpha 90.000000
_cell_angle_beta 90.000000
_cell_angle_gamma 90.000000
_cell_volume 3637.740991
_symmetry_space_group_name_H-M "I M M A"
_symmetry_group_IT_number 74
_symmetry_cell_setting 'orthorhombic'
loop_
_space_group_symop_operation_xyz
x,y,z
-x,1/2-y,z
x,-y,-z
-x,1/2+y,-z
-x,-y,-z
x,1/2+y,-z
-x,y,z
x,1/2-y,z
1/2+x,1/2+y,1/2+z
1/2-x,-y,1/2+z
1/2+x,1/2-y,1/2-z
1/2-x,y,1/2-z
1/2-x,1/2-y,1/2-z
1/2+x,y,1/2-z
1/2-x,1/2+y,1/2+z
1/2+x,-y,1/2+z
loop_
_atom_site_type_symbol
_atom_site_label
_atom_site_fract_x
_atom_site_fract_y
_atom_site_fract_z
Si Si1 0.257475 0.438670 0.827588
Si Si2 0.000000 0.339612 0.445845
Si Si3 0.000000 0.035909 0.165497
Si Si4 0.000000 0.411864 0.019908
Si Si5 0.743695 0.660405 0.040795
Si Si6 0.000000 0.951261 0.679325
O O1 0.250000 0.408467 0.750000
O O2 0.125701 0.483765 0.840187
O O3 0.275822 0.376461 0.885136
O O4 0.374792 0.497091 0.830921
O O5 0.874844 0.358624 0.490940
O O6 0.000000 0.385073 0.375437
O O7 0.000000 0.250000 0.433940
O O8 0.000000 0.091835 0.102016
O O9 0.000000 0.072149 0.240858
O O10 0.000000 0.500000 0.000000
O O11 0.126224 0.373355 0.989983
O O12 0.751892 0.750000 0.045884
#
# Coordination Sequence:
#
# PCOD9537878 Si02
#       6
#    16   8   8   8  16   8
#     4  10  20  35  56  84 112 146 187 229 276 335
#     4  10  23  39  57  83 116 149 190 236 283 331
#     4  10  20  35  55  86 111 137 193 237 270 327
#     4  12  21  36  62  83 110 150 190 230 278 331
#     4  11  23  38  56  85 118 149 186 233 280 337
#     4  10  21  36  59  82 110 146 190 234 277 329
#
# _framework density 17.593335
#
# number of rings (size 3 to 8) (size 9 to 14) (size 15 to 20)
#    0.000    1.500    2.500    2.625    0.000    1.500 
#    0.000    1.250    0.000   17.250    0.000    0.000 
#    0.000    0.000    0.000    0.000    0.000    0.000 
#
# Total GULP energy -178745.018440 kJ/mol
# GULP energy per Si atom -5585.781826 kJ/mol
# Density = 1.755329 g / cm^3
# Si number density = 17.593335 Si / 1000 Ang^3
#
#
#
# Elastic Constant Matrix: (Units=GPa)
#
#
# Indices 1 2 3 4 5 6 
#
# 1 132.9230 35.1809 47.6897 0.0000 0.0000 0.0000
# 2 35.1809 56.8079 74.3220 0.0000 0.0000 0.0000
# 3 47.6897 74.3220 178.4006 0.0000 0.0000 0.0000
# 4 0.0000 0.0000 0.0000 16.7476 0.0000 0.0000
# 5 0.0000 0.0000 0.0000 0.0000 328.2350 0.0000
# 6 0.0000 0.0000 0.0000 0.0000 0.0000 6.0147
#
#
#
# Elastic Compliance Matrix: (Units=1/GPa)
#
#
# Indices 1 2 3 4 5 6 
#
# 1 0.009001 -0.005333 -0.000184 0.000000 0.000000 0.000000
# 2 -0.005333 0.041852 -0.016010 0.000000 0.000000 0.000000
# 3 -0.000184 -0.016010 0.012324 0.000000 0.000000 0.000000
# 4 0.000000 0.000000 0.000000 0.059710 0.000000 0.000000
# 5 0.000000 0.000000 0.000000 0.000000 0.003047 0.000000
# 6 0.000000 0.000000 0.000000 0.000000 0.000000 0.166260
#
#
# Mechanical properties :
#
#
# Convention : Reuss Voigt Hill
#
# Bulk Modulus (GPa) = 49.69580 75.83521 62.76551
# Shear Modulus (GPa) = 14.62181 84.26205 49.44193
#
# Velocity S-wave (km/s) = 2.88601 6.92808 5.30694
# Velocity P-wave (km/s) = 6.27803 10.35354 8.56182
#
# Compressibility (1/GPa) = 0.02012243
#
# Stress axis : x y z
#
# Youngs Moduli (GPa) = 111.10150 23.89394 81.13993
#
# Poissons Ratio (x) = 0.12743 0.01496
# Poissons Ratio (y) = 0.59250 1.29904
# Poissons Ratio (z) = 0.02048 0.38254
#
# Static dielectric constant tensor:
#      x y z
#    x 1.591280 0.000000 0.000000 
#    y 0.000000 1.553140 0.000000 
#    z 0.000000 0.000000 1.610380 
# 
# From -- ./inp_files/40754.got.cif
#   From: 2010.05.17/outbox.cif.g08.bks.cpg/sg74_21_cif.got.tgz:40754.got - 2010.06.03 17:57:02.
