data_PCOD9537628
_publ_section_title
;
Structure prediction by ZEFSAII (Michael W. Deem and Ramdas Pophale) SiO2 
 PCOD9537628
Probable space group: I M M A
;
_chemical_formula_sum "Si O2"
_cell_formula_units_Z 116
_cell_length_a 7.425777
_cell_length_b 23.848854
_cell_length_c 27.342736
_cell_angle_alpha 90.000000
_cell_angle_beta 90.000000
_cell_angle_gamma 90.000000
_cell_volume 4842.296598
_symmetry_space_group_name_H-M "I M M A"
_symmetry_group_IT_number 74
_symmetry_cell_setting 'orthorhombic'
loop_
_space_group_symop_operation_xyz
x,y,z
-x,1/2-y,z
x,-y,-z
-x,1/2+y,-z
-x,-y,-z
x,1/2+y,-z
-x,y,z
x,1/2-y,z
1/2+x,1/2+y,1/2+z
1/2-x,-y,1/2+z
1/2+x,1/2-y,1/2-z
1/2-x,y,1/2-z
1/2-x,1/2-y,1/2-z
1/2+x,y,1/2-z
1/2-x,1/2+y,1/2+z
1/2+x,-y,1/2+z
loop_
_atom_site_type_symbol
_atom_site_label
_atom_site_fract_x
_atom_site_fract_y
_atom_site_fract_z
Si Si1 0.218288 0.688733 0.041241
Si Si2 0.203688 0.537127 0.588694
Si Si3 0.794243 0.661145 0.934519
Si Si4 0.283731 0.851528 0.193142
Si Si5 0.220012 0.810415 0.826945
Si Si6 0.289786 0.579586 0.104174
Si Si7 0.213738 0.432943 0.196958
Si Si8 0.000000 0.250000 0.823191
O O1 0.274182 0.750000 0.060185
O O2 0.273512 0.635605 0.072558
O O3 0.000000 0.688402 0.041588
O O4 0.284357 0.680893 0.985699
O O5 0.293896 0.593640 0.569332
O O6 0.288305 0.476175 0.579287
O O7 0.204381 0.541087 0.648027
O O8 0.000000 0.540569 0.569450
O O9 0.718872 0.683481 0.883484
O O10 0.000000 0.680986 0.935177
O O11 0.500000 0.840755 0.186350
O O12 0.250000 0.863353 0.250000
O O13 0.227399 0.902780 0.158003
O O14 0.158593 0.799001 0.179180
O O15 0.279740 0.750000 0.807605
O O16 0.279448 0.867998 0.802076
O O17 0.000000 0.810852 0.826243
O O18 0.500000 0.565980 0.108740
O O19 0.250000 0.458730 0.250000
O O20 0.000000 0.432896 0.188771
#
# Coordination Sequence:
#
# PCOD9537628 Si02
#       8
#    16  16  16  16  16  16  16   4
#     4  10  22  38  61  90 121 153 188 231 288 353
#     4  10  21  40  61  81 110 151 197 243 289 345
#     4   9  18  35  58  87 114 147 193 238 284 337
#     4  11  24  41  62  92 124 160 206 253 302 367
#     4   8  14  27  50  77 111 148 184 227 278 333
#     4  10  25  43  58  84 119 153 193 242 298 348
#     4  10  20  34  54  83 111 147 190 236 290 343
#     4  12  24  40  66  94 120 164 210 242 312 362
#
# _framework density 23.955576000000001
#
# number of rings (size 3 to 8) (size 9 to 14) (size 15 to 20)
#    0.000    2.207    0.690    2.483    1.931    4.966 
#    0.000    4.138    0.000   13.241    0.000    0.000 
#    0.000    0.000    0.000    0.000    0.000    0.000 
#
# Total GULP energy -323447.665274 kJ/mol
# GULP energy per Si atom -5576.683884 kJ/mol
# Density = 2.390105 g / cm^3
# Si number density = 23.955576 Si / 1000 Ang^3
#
#
#
# Elastic Constant Matrix: (Units=GPa)
#
#
# Indices 1 2 3 4 5 6 
#
# 1 108.8578 1.2147 -5.5940 0.0000 0.0000 0.0000
# 2 1.2147 139.6391 22.9157 0.0000 0.0000 0.0000
# 3 -5.5940 22.9157 40.6652 0.0000 0.0000 0.0000
# 4 0.0000 0.0000 0.0000 -9.8970 0.0000 0.0000
# 5 0.0000 0.0000 0.0000 0.0000 10.4642 0.0000
# 6 0.0000 0.0000 0.0000 0.0000 0.0000 18.9197
#
#
#
# Elastic Compliance Matrix: (Units=1/GPa)
#
#
# Indices 1 2 3 4 5 6 
#
# 1 0.009265 -0.000319 0.001454 0.000000 0.000000 0.000000
# 2 -0.000319 0.007902 -0.004497 0.000000 0.000000 0.000000
# 3 0.001454 -0.004497 0.027325 0.000000 0.000000 0.000000
# 4 0.000000 0.000000 0.000000 -0.101041 0.000000 0.000000
# 5 0.000000 0.000000 0.000000 0.000000 0.095564 0.000000
# 6 0.000000 0.000000 0.000000 0.000000 0.000000 0.052855
#
#
# Mechanical properties :
#
#
# Convention : Reuss Voigt Hill
#
# Bulk Modulus (GPa) = 26.47724 36.24832 31.36278
# Shear Modulus (GPa) = 44.97107 21.93910 33.45508
#
# Velocity S-wave (km/s) = 4.33745 3.02954 3.74109
# Velocity P-wave (km/s) = 6.01342 5.23468 5.63751
#
# Compressibility (1/GPa) = 0.03776829
#
# Stress axis : x y z
#
# Youngs Moduli (GPa) = 107.93775 126.54917 36.59623
#
# Poissons Ratio (x) = 0.04040 -0.05322
# Poissons Ratio (y) = 0.03446 0.16457
# Poissons Ratio (z) = -0.15698 0.56908
#
# Static dielectric constant tensor:
#      x y z
#    x 1.908630 0.000000 0.000000 
#    y 0.000000 1.934550 0.000000 
#    z 0.000000 0.000000 1.918450 
# 
# From -- ./inp_files/64854.got.cif
#   From: 2010.05.17/outbox.cif.g08.bks.cpg/sg74_33_cif.got.tgz:64854.got - 2010.06.03 17:57:02.
