data_PCOD9537411
_publ_section_title
;
Structure prediction by ZEFSAII (Michael W. Deem and Ramdas Pophale) SiO2 
 PCOD9537411
Probable space group: I M M A
;
_chemical_formula_sum "Si O2"
_cell_formula_units_Z 96
_cell_length_a 19.532881
_cell_length_b 7.578697
_cell_length_c 33.641423
_cell_angle_alpha 90.000000
_cell_angle_beta 90.000000
_cell_angle_gamma 90.000000
_cell_volume 4980.067235
_symmetry_space_group_name_H-M "I M M A"
_symmetry_group_IT_number 74
_symmetry_cell_setting 'orthorhombic'
loop_
_space_group_symop_operation_xyz
x,y,z
-x,1/2-y,z
x,-y,-z
-x,1/2+y,-z
-x,-y,-z
x,1/2+y,-z
-x,y,z
x,1/2-y,z
1/2+x,1/2+y,1/2+z
1/2-x,-y,1/2+z
1/2+x,1/2-y,1/2-z
1/2-x,y,1/2-z
1/2-x,1/2-y,1/2-z
1/2+x,y,1/2-z
1/2-x,1/2+y,1/2+z
1/2+x,-y,1/2+z
loop_
_atom_site_type_symbol
_atom_site_label
_atom_site_fract_x
_atom_site_fract_y
_atom_site_fract_z
Si Si1 0.714897 0.540841 0.954598
Si Si2 0.151334 0.036566 0.663640
Si Si3 0.922332 0.534258 0.167485
Si Si4 0.921424 0.035147 0.742078
Si Si5 0.289887 0.958467 0.376343
Si Si6 0.575744 0.960283 0.916387
O O1 0.711461 0.750000 0.950081
O O2 0.770115 0.479062 0.922353
O O3 0.639838 0.468169 0.941885
O O4 0.730635 0.500000 0.000000
O O5 0.154353 0.250000 0.664906
O O6 0.127413 0.973480 0.706755
O O7 0.224984 0.969591 0.648522
O O8 0.096753 0.989754 0.629457
O O9 0.924172 0.750000 0.166788
O O10 0.904630 0.482024 0.212873
O O11 0.862942 0.471789 0.138006
O O12 0.000000 0.475891 0.158682
O O13 0.919877 0.250000 0.741737
O O14 0.000000 0.983103 0.733882
O O15 0.291618 0.750000 0.368059
O O16 0.500000 0.032427 0.924857
O O17 0.572913 0.750000 0.923090
#
# Coordination Sequence:
#
# PCOD9537411 Si02
#       6
#    16  16  16  16  16  16
#     4  10  20  34  51  69  90 115 143 178 221 267
#     4   9  16  25  40  64  92 122 156 191 222 252
#     4   8  14  25  42  65  92 120 149 184 226 266
#     4   8  13  21  35  59  91 123 154 188 222 252
#     4   9  17  29  46  68  91 116 149 185 222 267
#     4   9  18  31  45  63  90 123 154 182 215 255
#
# _framework density 19.276845999999999
#
# number of rings (size 3 to 8) (size 9 to 14) (size 15 to 20)
#    0.000    3.167    0.000    2.000    0.000    2.667 
#    0.000    3.333    0.000    2.000    0.000    7.000 
#    0.000    0.000    0.000    0.000    0.000    0.000 
#
# Total GULP energy -267574.104618 kJ/mol
# GULP energy per Si atom -5574.460513 kJ/mol
# Density = 1.923297 g / cm^3
# Si number density = 19.276846 Si / 1000 Ang^3
#
#
#
# Elastic Constant Matrix: (Units=GPa)
#
#
# Indices 1 2 3 4 5 6 
#
# 1 108.1413 -3.9534 96.5060 0.0000 0.0000 0.0000
# 2 -3.9534 39.1033 -11.0411 0.0000 0.0000 0.0000
# 3 96.5060 -11.0411 130.4101 0.0000 0.0000 0.0000
# 4 0.0000 0.0000 0.0000 8.8087 0.0000 0.0000
# 5 0.0000 0.0000 0.0000 0.0000 10.1743 0.0000
# 6 0.0000 0.0000 0.0000 0.0000 0.0000 4.3638
#
#
#
# Elastic Compliance Matrix: (Units=1/GPa)
#
#
# Indices 1 2 3 4 5 6 
#
# 1 0.027579 -0.003047 -0.020667 0.000000 0.000000 0.000000
# 2 -0.003047 0.026536 0.004502 0.000000 0.000000 0.000000
# 3 -0.020667 0.004502 0.023343 0.000000 0.000000 0.000000
# 4 0.000000 0.000000 0.000000 0.113524 0.000000 0.000000
# 5 0.000000 0.000000 0.000000 0.000000 0.098287 0.000000
# 6 0.000000 0.000000 0.000000 0.000000 0.000000 0.229160
#
#
# Mechanical properties :
#
#
# Convention : Reuss Voigt Hill
#
# Bulk Modulus (GPa) = 25.61903 48.96419 37.29161
# Shear Modulus (GPa) = 8.77398 17.74557 13.25977
#
# Velocity S-wave (km/s) = 2.13575 3.03737 2.62555
# Velocity P-wave (km/s) = 4.40464 6.14463 5.34590
#
# Compressibility (1/GPa) = 0.03903348
#
# Stress axis : x y z
#
# Youngs Moduli (GPa) = 36.25898 37.68425 42.83860
#
# Poissons Ratio (x) = 0.11483 0.88536
# Poissons Ratio (y) = 0.11049 -0.19285
# Poissons Ratio (z) = 0.74937 -0.16964
#
# Static dielectric constant tensor:
#      x y z
#    x 1.686490 0.000000 0.000000 
#    y 0.000000 1.737200 0.000000 
#    z 0.000000 0.000000 1.623060 
# 
# From -- ./inp_files/68156.got.cif
#   From: 2010.05.17/outbox.cif.g08.bks.cpg/sg74_35_cif.got.tgz:68156.got - 2010.06.03 17:57:02.
