data_PCOD9537092
_publ_section_title
;
Structure prediction by ZEFSAII (Michael W. Deem and Ramdas Pophale) SiO2 
 PCOD9537092
Probable space group: I M M A
;
_chemical_formula_sum "Si O2"
_cell_formula_units_Z 116
_cell_length_a 24.741076
_cell_length_b 9.643563
_cell_length_c 21.678119
_cell_angle_alpha 90.000000
_cell_angle_beta 90.000000
_cell_angle_gamma 90.000000
_cell_volume 5172.228480
_symmetry_space_group_name_H-M "I M M A"
_symmetry_group_IT_number 74
_symmetry_cell_setting 'orthorhombic'
loop_
_space_group_symop_operation_xyz
x,y,z
-x,1/2-y,z
x,-y,-z
-x,1/2+y,-z
-x,-y,-z
x,1/2+y,-z
-x,y,z
x,1/2-y,z
1/2+x,1/2+y,1/2+z
1/2-x,-y,1/2+z
1/2+x,1/2-y,1/2-z
1/2-x,y,1/2-z
1/2-x,1/2-y,1/2-z
1/2+x,y,1/2-z
1/2-x,1/2+y,1/2+z
1/2+x,-y,1/2+z
loop_
_atom_site_type_symbol
_atom_site_label
_atom_site_fract_x
_atom_site_fract_y
_atom_site_fract_z
Si Si1 0.586720 0.474393 0.929923
Si Si2 0.000000 0.750000 0.395140
Si Si3 0.560182 0.095896 0.625354
Si Si4 0.435943 0.098309 0.186853
Si Si5 0.855618 0.590449 0.238100
Si Si6 0.778626 0.589378 0.839536
Si Si7 0.712646 0.413519 0.936990
Si Si8 0.631436 0.404514 0.446206
O O1 0.546858 0.367157 0.899003
O O2 0.578326 0.604154 0.885501
O O3 0.647895 0.421503 0.931750
O O4 0.569772 0.500000 0.000000
O O5 0.500000 0.072090 0.650412
O O6 0.561050 0.250000 0.597244
O O7 0.604501 0.097654 0.678980
O O8 0.577573 0.978932 0.577825
O O9 0.500000 0.068398 0.196497
O O10 0.425638 0.250000 0.215692
O O11 0.393864 0.986898 0.213234
O O12 0.841025 0.750000 0.254646
O O13 0.805174 0.494188 0.217762
O O14 0.761478 0.750000 0.826677
O O15 0.736226 0.493566 0.877072
O O16 0.827090 0.600065 0.889639
O O17 0.729504 0.250000 0.940350
O O18 0.725643 0.500000 0.000000
O O19 0.654153 0.500000 0.500000
O O20 0.622403 0.250000 0.468329
#
# Coordination Sequence:
#
# PCOD9537092 Si02
#       8
#    16   4  16  16  16  16  16  16
#     4  11  26  42  69  99 136 174 216 259 318 388
#     4  12  22  44  70 100 134 182 208 268 308 388
#     4   9  18  33  51  74 105 144 190 246 306 367
#     4  11  25  41  63  95 134 174 217 269 326 390
#     4  10  21  38  63  91 121 161 213 267 321 385
#     4  10  21  39  63  88 122 164 209 265 327 382
#     4  11  23  40  63  97 133 171 218 270 323 387
#     4  10  20  32  49  75 104 144 194 245 304 372
#
# _framework density 22.427471000000001
#
# number of rings (size 3 to 8) (size 9 to 14) (size 15 to 20)
#    0.000    1.655    1.379    2.690    1.931    5.793 
#    0.000    0.690    0.000    3.310    0.000    0.000 
#    0.000    0.000    0.000    0.000    0.000    0.000 
#
# Total GULP energy -323287.004519 kJ/mol
# GULP energy per Si atom -5573.913871 kJ/mol
# Density = 2.237643 g / cm^3
# Si number density = 22.427471 Si / 1000 Ang^3
#
#
#
# Elastic Constant Matrix: (Units=GPa)
#
#
# Indices 1 2 3 4 5 6 
#
# 1 90.6062 45.4836 21.0186 0.0000 0.0000 0.0000
# 2 45.4836 200.5247 47.7559 0.0000 0.0000 0.0000
# 3 21.0186 47.7559 74.0575 0.0000 0.0000 0.0000
# 4 0.0000 0.0000 0.0000 -155.3022 0.0000 0.0000
# 5 0.0000 0.0000 0.0000 0.0000 -85.2817 0.0000
# 6 0.0000 0.0000 0.0000 0.0000 0.0000 5.1130
#
#
#
# Elastic Compliance Matrix: (Units=1/GPa)
#
#
# Indices 1 2 3 4 5 6 
#
# 1 0.012717 -0.002392 -0.002067 0.000000 0.000000 0.000000
# 2 -0.002392 0.006342 -0.003411 0.000000 0.000000 0.000000
# 3 -0.002067 -0.003411 0.016289 0.000000 0.000000 0.000000
# 4 0.000000 0.000000 0.000000 -0.006439 0.000000 0.000000
# 5 0.000000 0.000000 0.000000 0.000000 -0.011726 0.000000
# 6 0.000000 0.000000 0.000000 0.000000 0.000000 0.195580
#
#
# Mechanical properties :
#
#
# Convention : Reuss Voigt Hill
#
# Bulk Modulus (GPa) = 50.99756 65.96719 58.48237
# Shear Modulus (GPa) = 21.27312 -30.36549 -4.54619
#
# Velocity S-wave (km/s) = 3.08316 -3.68359 -1.42529
# Velocity P-wave (km/s) = 5.95506 3.37427 4.83986
#
# Compressibility (1/GPa) = 0.01960878
#
# Stress axis : x y z
#
# Youngs Moduli (GPa) = 78.63414 157.68417 61.39182
#
# Poissons Ratio (x) = 0.37724 0.12687
# Poissons Ratio (y) = 0.18812 0.20938
# Poissons Ratio (z) = 0.16251 0.53778
#
# Static dielectric constant tensor:
#      x y z
#    x 1.808910 0.000000 0.000000 
#    y 0.000000 1.775540 0.000000 
#    z 0.000000 0.000000 1.893830 
# 
# From -- ./inp_files/62424.got.cif
#   From: 2010.05.17/outbox.cif.g08.bks.cpg/sg74_32_cif.got.tgz:62424.got - 2010.06.03 17:57:02.
