data_PCOD9537197
_publ_section_title
;
Structure prediction by ZEFSAII (Michael W. Deem and Ramdas Pophale) SiO2 
 PCOD9537197
Probable space group: I M M A
;
_chemical_formula_sum "Si O2"
_cell_formula_units_Z 104
_cell_length_a 26.322756
_cell_length_b 9.018171
_cell_length_c 24.411277
_cell_angle_alpha 90.000000
_cell_angle_beta 90.000000
_cell_angle_gamma 90.000000
_cell_volume 5794.824970
_symmetry_space_group_name_H-M "I M M A"
_symmetry_group_IT_number 74
_symmetry_cell_setting 'orthorhombic'
loop_
_space_group_symop_operation_xyz
x,y,z
-x,1/2-y,z
x,-y,-z
-x,1/2+y,-z
-x,-y,-z
x,1/2+y,-z
-x,y,z
x,1/2-y,z
1/2+x,1/2+y,1/2+z
1/2-x,-y,1/2+z
1/2+x,1/2-y,1/2-z
1/2-x,y,1/2-z
1/2-x,1/2-y,1/2-z
1/2+x,y,1/2-z
1/2-x,1/2+y,1/2+z
1/2+x,-y,1/2+z
loop_
_atom_site_type_symbol
_atom_site_label
_atom_site_fract_x
_atom_site_fract_y
_atom_site_fract_z
Si Si1 0.939868 0.583498 0.053473
Si Si2 0.559758 0.071229 0.745607
Si Si3 0.819665 0.926696 0.558862
Si Si4 0.903231 0.571778 0.368164
Si Si5 0.500000 0.427640 0.941185
Si Si6 0.299429 0.927099 0.558980
Si Si7 0.884927 0.573510 0.854583
O O1 0.918639 0.750000 0.059888
O O2 0.928880 0.479699 0.104467
O O3 0.000000 0.598132 0.047381
O O4 0.920206 0.500000 0.000000
O O5 0.500000 0.025309 0.738821
O O6 0.560172 0.250000 0.739439
O O7 0.579755 0.034889 0.806471
O O8 0.598807 0.001569 0.702132
O O9 0.826670 0.750000 0.554691
O O10 0.760061 0.956923 0.569785
O O11 0.832807 0.000000 0.500000
O O12 0.854157 0.992667 0.606955
O O13 0.896232 0.750000 0.370580
O O14 0.950157 0.530631 0.407270
O O15 0.500000 0.250000 0.946394
O O16 0.500000 0.500000 0.000000
O O17 0.306375 0.750000 0.553150
O O18 0.334838 0.973982 0.610305
O O19 0.310774 0.000000 0.500000
O O20 0.882982 0.750000 0.847820
#
# Coordination Sequence:
#
# PCOD9537197 Si02
#       7
#    16  16  16  16   8  16  16
#     4  10  20  33  49  72 103 137 173 220 279 336
#     4  10  21  39  59  78 107 149 189 228 275 326
#     4  10  20  36  58  84 113 145 179 220 273 331
#     4  10  20  37  58  81 111 146 183 223 271 324
#     4  10  20  34  54  82 114 144 173 214 267 324
#     4   9  20  37  56  80 111 144 180 226 280 329
#     4  11  22  35  53  78 106 140 185 232 275 326
#
# _framework density 17.947047999999999
#
# number of rings (size 3 to 8) (size 9 to 14) (size 15 to 20)
#    0.000    2.000    0.769    2.769    0.000    8.615 
#    0.000    0.769    0.000    4.615    0.000    0.000 
#    0.000    0.000    0.000    0.000    0.000    0.000 
#
# Total GULP energy -290026.018155 kJ/mol
# GULP energy per Si atom -5577.423426 kJ/mol
# Density = 1.790620 g / cm^3
# Si number density = 17.947048 Si / 1000 Ang^3
#
#
#
# Elastic Constant Matrix: (Units=GPa)
#
#
# Indices 1 2 3 4 5 6 
#
# 1 121.1802 46.0845 72.4193 0.0000 0.0000 0.0000
# 2 46.0845 29.6177 48.3715 0.0000 0.0000 0.0000
# 3 72.4193 48.3715 163.5278 0.0000 0.0000 0.0000
# 4 0.0000 0.0000 0.0000 33.2346 0.0000 0.0000
# 5 0.0000 0.0000 0.0000 0.0000 36.8768 0.0000
# 6 0.0000 0.0000 0.0000 0.0000 0.0000 19.1832
#
#
#
# Elastic Compliance Matrix: (Units=1/GPa)
#
#
# Indices 1 2 3 4 5 6 
#
# 1 0.020252 -0.032625 0.000682 0.000000 0.000000 0.000000
# 2 -0.032625 0.117877 -0.020420 0.000000 0.000000 0.000000
# 3 0.000682 -0.020420 0.011853 0.000000 0.000000 0.000000
# 4 0.000000 0.000000 0.000000 0.030089 0.000000 0.000000
# 5 0.000000 0.000000 0.000000 0.000000 0.027117 0.000000
# 6 0.000000 0.000000 0.000000 0.000000 0.000000 0.052129
#
#
# Mechanical properties :
#
#
# Convention : Reuss Voigt Hill
#
# Bulk Modulus (GPa) = 22.09646 72.00849 47.05247
# Shear Modulus (GPa) = 13.18812 27.68894 20.43853
#
# Velocity S-wave (km/s) = 2.71373 3.93213 3.37831
# Velocity P-wave (km/s) = 4.70721 7.79906 6.44140
#
# Compressibility (1/GPa) = 0.04525612
#
# Stress axis : x y z
#
# Youngs Moduli (GPa) = 49.37799 8.48343 84.36400
#
# Poissons Ratio (x) = 0.27677 -0.05752
# Poissons Ratio (y) = 1.61096 1.72269
# Poissons Ratio (z) = -0.03367 0.17323
#
# Static dielectric constant tensor:
#      x y z
#    x 1.637040 0.000000 0.000000 
#    y 0.000000 1.616890 0.000000 
#    z 0.000000 0.000000 1.586550 
# 
# From -- ./inp_files/49328.got.cif
#   From: 2010.05.17/outbox.cif.g08.bks.cpg/sg74_25_cif.got.tgz:49328.got - 2010.06.03 17:57:02.
