data_PCOD9537915
_publ_section_title
;
Structure prediction by ZEFSAII (Michael W. Deem and Ramdas Pophale) SiO2 
 PCOD9537915
Probable space group: I M M A
;
_chemical_formula_sum "Si O2"
_cell_formula_units_Z 96
_cell_length_a 18.751502
_cell_length_b 9.614860
_cell_length_c 29.848873
_cell_angle_alpha 90.000000
_cell_angle_beta 90.000000
_cell_angle_gamma 90.000000
_cell_volume 5381.544845
_symmetry_space_group_name_H-M "I M M A"
_symmetry_group_IT_number 74
_symmetry_cell_setting 'orthorhombic'
loop_
_space_group_symop_operation_xyz
x,y,z
-x,1/2-y,z
x,-y,-z
-x,1/2+y,-z
-x,-y,-z
x,1/2+y,-z
-x,y,z
x,1/2-y,z
1/2+x,1/2+y,1/2+z
1/2-x,-y,1/2+z
1/2+x,1/2-y,1/2-z
1/2-x,y,1/2-z
1/2-x,1/2-y,1/2-z
1/2+x,y,1/2-z
1/2-x,1/2+y,1/2+z
1/2+x,-y,1/2+z
loop_
_atom_site_type_symbol
_atom_site_label
_atom_site_fract_x
_atom_site_fract_y
_atom_site_fract_z
Si Si1 0.178246 0.084043 0.220899
Si Si2 0.084376 0.915646 0.044917
Si Si3 0.850354 0.407265 0.617473
Si Si4 0.816737 0.087665 0.870771
Si Si5 0.414031 0.908124 0.958213
Si Si6 0.915770 0.590525 0.284555
O O1 0.172899 0.250000 0.215848
O O2 0.250000 0.054077 0.250000
O O3 0.178492 0.008076 0.173019
O O4 0.113957 0.018850 0.249342
O O5 0.093984 0.750000 0.037272
O O6 0.131173 0.953322 0.088450
O O7 0.000000 0.940122 0.053495
O O8 0.103997 0.000000 0.000000
O O9 0.872435 0.250000 0.604184
O O10 0.765381 0.417901 0.613644
O O11 0.887491 0.519661 0.586622
O O12 0.874234 0.426321 0.668722
O O13 0.832192 0.250000 0.859171
O O14 0.500000 0.907833 0.958435
O O15 0.389099 0.750000 0.962041
O O16 0.389085 0.000000 0.000000
O O17 0.902833 0.750000 0.268990
O O18 0.000000 0.574900 0.292284
#
# Coordination Sequence:
#
# PCOD9537915 Si02
#       6
#    16  16  16  16  16  16
#     4  11  23  38  57  83 117 154 192 237 292 346
#     4   9  19  37  60  86 116 150 189 235 288 345
#     4  10  20  35  56  81 110 144 184 231 282 338
#     4  10  21  37  60  86 114 151 193 234 283 343
#     4  10  21  36  54  76 105 143 184 228 278 331
#     4  10  21  37  59  84 110 148 194 235 281 342
#
# _framework density 17.838743000000001
#
# number of rings (size 3 to 8) (size 9 to 14) (size 15 to 20)
#    0.000    2.000    1.667    1.500    0.000    6.000 
#    0.000    3.333    0.000    0.000    0.000    0.000 
#    0.000    0.000    0.000    0.000    0.000    0.000 
#
# Total GULP energy -267905.084192 kJ/mol
# GULP energy per Si atom -5581.355921 kJ/mol
# Density = 1.779814 g / cm^3
# Si number density = 17.838743 Si / 1000 Ang^3
#
#
#
# Elastic Constant Matrix: (Units=GPa)
#
#
# Indices 1 2 3 4 5 6 
#
# 1 56.2504 34.4023 38.1252 0.0000 0.0000 0.0000
# 2 34.4023 109.8623 78.8839 0.0000 0.0000 0.0000
# 3 38.1252 78.8839 107.8337 0.0000 0.0000 0.0000
# 4 0.0000 0.0000 0.0000 38.4362 0.0000 0.0000
# 5 0.0000 0.0000 0.0000 0.0000 34.6917 0.0000
# 6 0.0000 0.0000 0.0000 0.0000 0.0000 24.0709
#
#
#
# Elastic Compliance Matrix: (Units=1/GPa)
#
#
# Indices 1 2 3 4 5 6 
#
# 1 0.023833 -0.002976 -0.006249 0.000000 0.000000 0.000000
# 2 -0.002976 0.019545 -0.013246 0.000000 0.000000 0.000000
# 3 -0.006249 -0.013246 0.021173 0.000000 0.000000 0.000000
# 4 0.000000 0.000000 0.000000 0.026017 0.000000 0.000000
# 5 0.000000 0.000000 0.000000 0.000000 0.028825 0.000000
# 6 0.000000 0.000000 0.000000 0.000000 0.000000 0.041544
#
#
# Mechanical properties :
#
#
# Convention : Reuss Voigt Hill
#
# Bulk Modulus (GPa) = 50.99689 64.08549 57.54119
# Shear Modulus (GPa) = 23.53877 27.60875 25.57376
#
# Velocity S-wave (km/s) = 3.63648 3.93833 3.79041
# Velocity P-wave (km/s) = 6.80307 7.52884 7.17514
#
# Compressibility (1/GPa) = 0.01960904
#
# Stress axis : x y z
#
# Youngs Moduli (GPa) = 41.95783 51.16445 47.23086
#
# Poissons Ratio (x) = 0.15226 0.29517
# Poissons Ratio (y) = 0.12486 0.62560
# Poissons Ratio (z) = 0.26221 0.67770
#
# Static dielectric constant tensor:
#      x y z
#    x 1.601380 0.000000 0.000000 
#    y 0.000000 1.603910 0.000000 
#    z 0.000000 0.000000 1.584820 
# 
# From -- ./inp_files/64252.got.cif
#   From: 2010.05.17/outbox.cif.g08.bks.cpg/sg74_33_cif.got.tgz:64252.got - 2010.06.03 17:57:02.
