data_PCOD9537327
_publ_section_title
;
Structure prediction by ZEFSAII (Michael W. Deem and Ramdas Pophale) SiO2 
 PCOD9537327
Probable space group: I M M A
;
_chemical_formula_sum "Si O2"
_cell_formula_units_Z 112
_cell_length_a 13.753234
_cell_length_b 15.029311
_cell_length_c 26.229071
_cell_angle_alpha 90.000000
_cell_angle_beta 90.000000
_cell_angle_gamma 90.000000
_cell_volume 5421.591756
_symmetry_space_group_name_H-M "I M M A"
_symmetry_group_IT_number 74
_symmetry_cell_setting 'orthorhombic'
loop_
_space_group_symop_operation_xyz
x,y,z
-x,1/2-y,z
x,-y,-z
-x,1/2+y,-z
-x,-y,-z
x,1/2+y,-z
-x,y,z
x,1/2-y,z
1/2+x,1/2+y,1/2+z
1/2-x,-y,1/2+z
1/2+x,1/2-y,1/2-z
1/2-x,y,1/2-z
1/2-x,1/2-y,1/2-z
1/2+x,y,1/2-z
1/2-x,1/2+y,1/2+z
1/2+x,-y,1/2+z
loop_
_atom_site_type_symbol
_atom_site_label
_atom_site_fract_x
_atom_site_fract_y
_atom_site_fract_z
Si Si1 0.382577 0.148812 0.683809
Si Si2 0.219109 0.094439 0.517032
Si Si3 0.115241 0.148046 0.620308
Si Si4 0.115716 0.650473 0.682745
Si Si5 0.885043 0.029057 0.915179
Si Si6 0.118057 0.037607 0.718340
Si Si7 0.267849 0.652455 0.591739
O O1 0.500000 0.155090 0.687864
O O2 0.344936 0.250000 0.682910
O O3 0.349577 0.092044 0.732374
O O4 0.365235 0.094232 0.632363
O O5 0.164159 0.132683 0.565735
O O6 0.226377 0.150146 0.465743
O O7 0.174000 0.000000 0.500000
O O8 0.327085 0.071864 0.537749
O O9 0.129596 0.250000 0.636680
O O10 0.150064 0.083002 0.665309
O O11 0.000000 0.133642 0.614192
O O12 0.132363 0.750000 0.704063
O O13 0.142016 0.566860 0.718100
O O14 0.180189 0.641894 0.631901
O O15 0.000000 0.643643 0.671161
O O16 0.839237 0.931941 0.904432
O O17 0.000000 0.023196 0.923572
O O18 0.000000 0.043205 0.718226
O O19 0.312999 0.750000 0.601002
#
# Coordination Sequence:
#
# PCOD9537327 Si02
#       7
#    16  16  16  16  16  16  16
#     4   9  18  34  57  82 107 139 180 225 273 324
#     4  10  21  36  55  78 107 142 182 228 272 319
#     4  10  20  33  52  81 116 149 178 213 263 324
#     4   9  18  34  57  84 114 148 183 217 258 315
#     4  10  22  40  58  78 106 140 182 233 284 329
#     4   9  16  30  54  82 112 145 179 216 261 316
#     4  10  21  37  57  81 110 144 181 224 273 323
#
# _framework density 20.65814
#
# number of rings (size 3 to 8) (size 9 to 14) (size 15 to 20)
#    0.000    2.429    0.000    2.571    0.000    6.571 
#    0.000    5.000    0.000    8.571    0.000    0.000 
#    0.000    0.000    0.000    0.000    0.000    0.000 
#
# Total GULP energy -312702.295620 kJ/mol
# GULP energy per Si atom -5583.969565 kJ/mol
# Density = 2.061112 g / cm^3
# Si number density = 20.658140 Si / 1000 Ang^3
#
#
#
# Elastic Constant Matrix: (Units=GPa)
#
#
# Indices 1 2 3 4 5 6 
#
# 1 68.1889 13.9727 10.9857 0.0000 0.0000 0.0000
# 2 13.9727 139.9046 45.6655 0.0000 0.0000 0.0000
# 3 10.9857 45.6655 83.0215 0.0000 0.0000 0.0000
# 4 0.0000 0.0000 0.0000 19.7237 0.0000 0.0000
# 5 0.0000 0.0000 0.0000 0.0000 19.6269 0.0000
# 6 0.0000 0.0000 0.0000 0.0000 0.0000 -11.7026
#
#
#
# Elastic Compliance Matrix: (Units=1/GPa)
#
#
# Indices 1 2 3 4 5 6 
#
# 1 0.015109 -0.001044 -0.001425 0.000000 0.000000 0.000000
# 2 -0.001044 0.008784 -0.004693 0.000000 0.000000 0.000000
# 3 -0.001425 -0.004693 0.014815 0.000000 0.000000 0.000000
# 4 0.000000 0.000000 0.000000 0.050700 0.000000 0.000000
# 5 0.000000 0.000000 0.000000 0.000000 0.050951 0.000000
# 6 0.000000 0.000000 0.000000 0.000000 0.000000 -0.085451
#
#
# Mechanical properties :
#
#
# Convention : Reuss Voigt Hill
#
# Bulk Modulus (GPa) = 41.01189 48.04031 44.52610
# Shear Modulus (GPa) = 64.63279 20.22900 42.43090
#
# Velocity S-wave (km/s) = 5.59953 3.13265 4.53698
# Velocity P-wave (km/s) = 7.85507 6.03242 7.00329
#
# Compressibility (1/GPa) = 0.02438317
#
# Stress axis : x y z
#
# Youngs Moduli (GPa) = 66.18737 113.84421 67.49801
#
# Poissons Ratio (x) = 0.11883 0.09619
# Poissons Ratio (y) = 0.06909 0.31680
# Poissons Ratio (z) = 0.09432 0.53432
#
# Static dielectric constant tensor:
#      x y z
#    x 1.753770 0.000000 0.000000 
#    y 0.000000 1.765960 0.000000 
#    z 0.000000 0.000000 1.702090 
# 
# From -- ./inp_files/67230.got.cif
#   From: 2010.05.17/outbox.cif.g08.bks.cpg/sg74_34_cif.got.tgz:67230.got - 2010.06.03 17:57:02.
