data_PCOD9537189
_publ_section_title
;
Structure prediction by ZEFSAII (Michael W. Deem and Ramdas Pophale) SiO2 
 PCOD9537189
Probable space group: I M M A
;
_chemical_formula_sum "Si O2"
_cell_formula_units_Z 96
_cell_length_a 7.787002
_cell_length_b 19.459981
_cell_length_c 31.017193
_cell_angle_alpha 90.000000
_cell_angle_beta 90.000000
_cell_angle_gamma 90.000000
_cell_volume 4700.187580
_symmetry_space_group_name_H-M "I M M A"
_symmetry_group_IT_number 74
_symmetry_cell_setting 'orthorhombic'
loop_
_space_group_symop_operation_xyz
x,y,z
-x,1/2-y,z
x,-y,-z
-x,1/2+y,-z
-x,-y,-z
x,1/2+y,-z
-x,y,z
x,1/2-y,z
1/2+x,1/2+y,1/2+z
1/2-x,-y,1/2+z
1/2+x,1/2-y,1/2-z
1/2-x,y,1/2-z
1/2-x,1/2-y,1/2-z
1/2+x,y,1/2-z
1/2-x,1/2+y,1/2+z
1/2+x,-y,1/2+z
loop_
_atom_site_type_symbol
_atom_site_label
_atom_site_fract_x
_atom_site_fract_y
_atom_site_fract_z
Si Si1 0.791817 0.173300 0.580759
Si Si2 0.790084 0.059537 0.369471
Si Si3 0.192027 0.031491 0.704208
Si Si4 0.793491 0.671652 0.700799
Si Si5 0.210207 0.977011 0.452477
Si Si6 0.797740 0.324637 0.818358
O O1 0.739698 0.250000 0.563854
O O2 0.735536 0.101718 0.558600
O O3 0.731493 0.170860 0.630310
O O4 0.000000 0.172473 0.580801
O O5 0.736524 0.125043 0.340028
O O6 0.000000 0.064426 0.373504
O O7 0.724125 0.998000 0.338401
O O8 0.734239 0.033659 0.416735
O O9 0.250000 0.006060 0.750000
O O10 0.202170 0.112797 0.703083
O O11 0.000000 0.007179 0.700057
O O12 0.729165 0.750000 0.696564
O O13 0.750000 0.648858 0.750000
O O14 0.000000 0.672459 0.698888
O O15 0.000000 0.975720 0.451481
O O16 0.263938 0.000000 0.500000
O O17 0.735989 0.250000 0.804140
O O18 0.000000 0.331045 0.809592
#
# Coordination Sequence:
#
# PCOD9537189 Si02
#       6
#    16  16  16  16  16  16
#     4   9  16  29  50  73  96 128 169 206 243 290
#     4   9  17  30  47  70  99 130 163 201 247 293
#     4  11  21  33  49  70  98 131 167 204 244 289
#     4   9  17  30  49  72  99 130 163 199 242 296
#     4   9  16  28  48  74 101 129 160 203 254 298
#     4  10  20  33  49  70  96 128 165 203 245 290
#
# _framework density 20.424717999999999
#
# number of rings (size 3 to 8) (size 9 to 14) (size 15 to 20)
#    0.000    2.500    1.667    1.500    0.000    1.333 
#    0.000    1.667    0.000    5.500    0.000    0.000 
#    0.000    5.333    0.000    0.000    0.000    0.000 
#
# Total GULP energy -267278.414301 kJ/mol
# GULP energy per Si atom -5568.300298 kJ/mol
# Density = 2.037823 g / cm^3
# Si number density = 20.424718 Si / 1000 Ang^3
#
#
#
# Elastic Constant Matrix: (Units=GPa)
#
#
# Indices 1 2 3 4 5 6 
#
# 1 20.0334 3.8287 4.1059 0.0000 0.0000 0.0000
# 2 3.8287 141.3340 73.8760 0.0000 0.0000 0.0000
# 3 4.1059 73.8760 164.0787 0.0000 0.0000 0.0000
# 4 0.0000 0.0000 0.0000 111.2702 0.0000 0.0000
# 5 0.0000 0.0000 0.0000 0.0000 16.1313 0.0000
# 6 0.0000 0.0000 0.0000 0.0000 0.0000 -11.1655
#
#
#
# Elastic Compliance Matrix: (Units=1/GPa)
#
#
# Indices 1 2 3 4 5 6 
#
# 1 0.050265 -0.000921 -0.000843 0.000000 0.000000 0.000000
# 2 -0.000921 0.009270 -0.004151 0.000000 0.000000 0.000000
# 3 -0.000843 -0.004151 0.007985 0.000000 0.000000 0.000000
# 4 0.000000 0.000000 0.000000 0.008987 0.000000 0.000000
# 5 0.000000 0.000000 0.000000 0.000000 0.061991 0.000000
# 6 0.000000 0.000000 0.000000 0.000000 0.000000 -0.089561
#
#
# Mechanical properties :
#
#
# Convention : Reuss Voigt Hill
#
# Bulk Modulus (GPa) = 17.95648 54.34081 36.14865
# Shear Modulus (GPa) = 63.02754 39.48955 51.25854
#
# Velocity S-wave (km/s) = 5.56107 4.40184 5.01506
# Velocity P-wave (km/s) = 7.07422 7.24555 7.16040
#
# Compressibility (1/GPa) = 0.05569021
#
# Stress axis : x y z
#
# Youngs Moduli (GPa) = 19.89442 107.87483 125.24104
#
# Poissons Ratio (x) = 0.09934 0.10560
# Poissons Ratio (y) = 0.01832 0.51984
# Poissons Ratio (z) = 0.01678 0.44776
#
# Static dielectric constant tensor:
#      x y z
#    x 1.747690 0.000000 0.000000 
#    y 0.000000 1.776940 0.000000 
#    z 0.000000 0.000000 -0.655820 
# 
# From -- ./inp_files/64368.got.cif
#   From: 2010.05.17/outbox.cif.g08.bks.cpg/sg74_33_cif.got.tgz:64368.got - 2010.06.03 17:57:02.
