data_PCOD9537368
_publ_section_title
;
Structure prediction by ZEFSAII (Michael W. Deem and Ramdas Pophale) SiO2 
 PCOD9537368
Probable space group: I M M A
;
_chemical_formula_sum "Si O2"
_cell_formula_units_Z 96
_cell_length_a 23.802279
_cell_length_b 14.513073
_cell_length_c 14.342257
_cell_angle_alpha 90.000000
_cell_angle_beta 90.000000
_cell_angle_gamma 90.000000
_cell_volume 4954.449678
_symmetry_space_group_name_H-M "I M M A"
_symmetry_group_IT_number 74
_symmetry_cell_setting 'orthorhombic'
loop_
_space_group_symop_operation_xyz
x,y,z
-x,1/2-y,z
x,-y,-z
-x,1/2+y,-z
-x,-y,-z
x,1/2+y,-z
-x,y,z
x,1/2-y,z
1/2+x,1/2+y,1/2+z
1/2-x,-y,1/2+z
1/2+x,1/2-y,1/2-z
1/2-x,y,1/2-z
1/2-x,1/2-y,1/2-z
1/2+x,y,1/2-z
1/2-x,1/2+y,1/2+z
1/2+x,-y,1/2+z
loop_
_atom_site_type_symbol
_atom_site_label
_atom_site_fract_x
_atom_site_fract_y
_atom_site_fract_z
Si Si1 0.000000 0.640826 0.279554
Si Si2 0.694116 0.358827 0.879435
Si Si3 0.710134 0.147685 0.098923
Si Si4 0.000000 0.359978 0.507577
Si Si5 0.394016 0.534948 0.251043
Si Si6 0.583808 0.855432 0.844804
Si Si7 0.206102 0.012165 0.888855
O O1 0.056608 0.606905 0.231368
O O2 0.000000 0.750000 0.283997
O O3 0.000000 0.602804 0.387528
O O4 0.687896 0.250000 0.857551
O O5 0.646352 0.420191 0.829573
O O6 0.756439 0.398947 0.860480
O O7 0.692377 0.370218 0.991507
O O8 0.734952 0.250000 0.103336
O O9 0.651116 0.146035 0.150503
O O10 0.753745 0.073659 0.135414
O O11 0.945824 0.380145 0.443399
O O12 0.000000 0.250000 0.518514
O O13 0.425893 0.440957 0.222465
O O14 0.351942 0.515476 0.335236
O O15 0.565849 0.750000 0.821830
O O16 0.198006 0.000000 0.000000
#
# Coordination Sequence:
#
# PCOD9537368 Si02
#       7
#     8  16  16   8  16  16  16
#     4  11  25  41  59  86 119 150 192 240 288 350
#     4  10  20  34  56  84 115 149 190 238 291 349
#     4   9  18  34  55  83 118 154 189 234 291 348
#     4   9  19  37  57  84 120 156 184 218 279 345
#     4  12  23  36  58  85 112 155 198 241 290 342
#     4  10  20  33  54  84 120 157 191 228 276 344
#     4  10  22  39  56  80 113 151 194 245 298 348
#
# _framework density 19.376519999999999
#
# number of rings (size 3 to 8) (size 9 to 14) (size 15 to 20)
#    0.000    1.833    1.667    2.500    0.000    8.000 
#    0.000    2.083    0.000    0.000    0.000    1.167 
#    0.000    0.000    0.000    0.000    0.000    0.000 
#
# Total GULP energy -267816.908164 kJ/mol
# GULP energy per Si atom -5579.518920 kJ/mol
# Density = 1.933242 g / cm^3
# Si number density = 19.376520 Si / 1000 Ang^3
#
#
#
# Elastic Constant Matrix: (Units=GPa)
#
#
# Indices 1 2 3 4 5 6 
#
# 1 114.9669 41.1901 25.9313 0.0000 0.0000 0.0000
# 2 41.1901 108.9306 33.2022 0.0000 0.0000 0.0000
# 3 25.9313 33.2022 40.0666 0.0000 0.0000 0.0000
# 4 0.0000 0.0000 0.0000 13.0530 0.0000 0.0000
# 5 0.0000 0.0000 0.0000 0.0000 8.5556 0.0000
# 6 0.0000 0.0000 0.0000 0.0000 0.0000 19.6975
#
#
#
# Elastic Compliance Matrix: (Units=1/GPa)
#
#
# Indices 1 2 3 4 5 6 
#
# 1 0.010705 -0.002590 -0.004782 0.000000 0.000000 0.000000
# 2 -0.002590 0.012909 -0.009021 0.000000 0.000000 0.000000
# 3 -0.004782 -0.009021 0.035529 0.000000 0.000000 0.000000
# 4 0.000000 0.000000 0.000000 0.076610 0.000000 0.000000
# 5 0.000000 0.000000 0.000000 0.000000 0.116882 0.000000
# 6 0.000000 0.000000 0.000000 0.000000 0.000000 0.050768
#
#
# Mechanical properties :
#
#
# Convention : Reuss Voigt Hill
#
# Bulk Modulus (GPa) = 37.94116 51.62347 44.78231
# Shear Modulus (GPa) = 14.49381 19.17061 16.83221
#
# Velocity S-wave (km/s) = 2.73794 3.14884 2.95055
# Velocity P-wave (km/s) = 5.44230 6.31826 5.89657
#
# Compressibility (1/GPa) = 0.02635660
#
# Stress axis : x y z
#
# Youngs Moduli (GPa) = 93.41655 77.46355 28.14622
#
# Poissons Ratio (x) = 0.20066 0.13458
# Poissons Ratio (y) = 0.24198 0.25391
# Poissons Ratio (z) = 0.44668 0.69881
#
# Static dielectric constant tensor:
#      x y z
#    x 1.669700 0.000000 0.000000 
#    y 0.000000 1.735430 0.000000 
#    z 0.000000 0.000000 1.700430 
# 
# From -- ./inp_files/35320.got.cif
#   From: 2010.05.17/outbox.cif.g08.bks.cpg/sg74_18_cif.got.tgz:35320.got - 2010.06.03 17:57:02.
