data_PCOD9537414
_publ_section_title
;
Structure prediction by ZEFSAII (Michael W. Deem and Ramdas Pophale) SiO2 
 PCOD9537414
Probable space group: I M M A
;
_chemical_formula_sum "Si O2"
_cell_formula_units_Z 72
_cell_length_a 30.497519
_cell_length_b 7.438289
_cell_length_c 14.371375
_cell_angle_alpha 90.000000
_cell_angle_beta 90.000000
_cell_angle_gamma 90.000000
_cell_volume 3260.137223
_symmetry_space_group_name_H-M "I M M A"
_symmetry_group_IT_number 74
_symmetry_cell_setting 'orthorhombic'
loop_
_space_group_symop_operation_xyz
x,y,z
-x,1/2-y,z
x,-y,-z
-x,1/2+y,-z
-x,-y,-z
x,1/2+y,-z
-x,y,z
x,1/2-y,z
1/2+x,1/2+y,1/2+z
1/2-x,-y,1/2+z
1/2+x,1/2-y,1/2-z
1/2-x,y,1/2-z
1/2-x,1/2-y,1/2-z
1/2+x,y,1/2-z
1/2-x,1/2+y,1/2+z
1/2+x,-y,1/2+z
loop_
_atom_site_type_symbol
_atom_site_label
_atom_site_fract_x
_atom_site_fract_y
_atom_site_fract_z
Si Si1 0.000000 0.464102 0.891662
Si Si2 0.184740 0.530346 0.200375
Si Si3 0.726523 0.964464 0.106918
Si Si4 0.911585 0.530206 0.206460
Si Si5 0.550090 0.964206 0.103319
O O1 0.954696 0.532577 0.847921
O O2 0.000000 0.250000 0.873949
O O3 0.000000 0.500000 0.000000
O O4 0.184740 0.750000 0.199228
O O5 0.224330 0.471007 0.133462
O O6 0.196169 0.474152 0.306792
O O7 0.136105 0.470371 0.173196
O O8 0.727166 0.750000 0.115283
O O9 0.714350 0.000000 0.000000
O O10 0.911214 0.750000 0.202590
O O11 0.919672 0.473507 0.313097
O O12 0.500000 0.035325 0.110744
O O13 0.546879 0.750000 0.113491
O O14 0.566687 0.000000 0.000000
#
# Coordination Sequence:
#
# PCOD9537414 Si02
#       5
#     8  16  16  16  16
#     4  10  20  34  51  70  92 122 161 198 231 268
#     4   8  16  30  48  69  93 124 158 188 225 279
#     4   9  17  31  50  71  94 121 154 191 232 277
#     4   9  16  30  50  68  91 125 161 191 223 274
#     4   9  16  27  44  66  89 116 150 185 223 268
#
# _framework density 22.084961
#
# number of rings (size 3 to 8) (size 9 to 14) (size 15 to 20)
#    0.000    3.111    1.111    1.333    0.000    1.778 
#    0.000    3.333    0.000    2.667    0.000    0.000 
#    0.000    0.000    0.000    0.000    0.000    0.000 
#
# Total GULP energy -200792.210614 kJ/mol
# GULP energy per Si atom -5577.561406 kJ/mol
# Density = 2.203469 g / cm^3
# Si number density = 22.084961 Si / 1000 Ang^3
#
#
#
# Elastic Constant Matrix: (Units=GPa)
#
#
# Indices 1 2 3 4 5 6 
#
# 1 121.5923 5.0408 14.7275 0.0000 0.0000 0.0000
# 2 5.0408 64.6107 -8.2156 0.0000 0.0000 0.0000
# 3 14.7275 -8.2156 60.7653 0.0000 0.0000 0.0000
# 4 0.0000 0.0000 0.0000 21.3969 0.0000 0.0000
# 5 0.0000 0.0000 0.0000 0.0000 10.3470 0.0000
# 6 0.0000 0.0000 0.0000 0.0000 0.0000 -3.6943
#
#
#
# Elastic Compliance Matrix: (Units=1/GPa)
#
#
# Indices 1 2 3 4 5 6 
#
# 1 0.008529 -0.000945 -0.002195 0.000000 0.000000 0.000000
# 2 -0.000945 0.015853 0.002372 0.000000 0.000000 0.000000
# 3 -0.002195 0.002372 0.017309 0.000000 0.000000 0.000000
# 4 0.000000 0.000000 0.000000 0.046736 0.000000 0.000000
# 5 0.000000 0.000000 0.000000 0.000000 0.096646 0.000000
# 6 0.000000 0.000000 0.000000 0.000000 0.000000 -0.270690
#
#
# Mechanical properties :
#
#
# Convention : Reuss Voigt Hill
#
# Bulk Modulus (GPa) = 24.90229 30.00819 27.45524
# Shear Modulus (GPa) = -70.72438 21.30431 -24.71004
#
# Velocity S-wave (km/s) = -5.66509 3.10925 -3.34857
# Velocity P-wave (km/s) = 5.61168 5.14850 1.57858
#
# Compressibility (1/GPa) = 0.04015696
#
# Stress axis : x y z
#
# Youngs Moduli (GPa) = 117.24415 63.08095 57.77182
#
# Poissons Ratio (x) = 0.05958 0.12680
# Poissons Ratio (y) = 0.11074 -0.13705
# Poissons Ratio (z) = 0.25734 -0.14964
#
# Static dielectric constant tensor:
#      x y z
#    x 1.822810 0.000000 0.000000 
#    y 0.000000 1.845490 0.000000 
#    z 0.000000 0.000000 1.781400 
# 
# From -- ./inp_files/18935.got.cif
#   From: 2010.05.17/outbox.cif.g08.bks.cpg/sg74_10_cif.got.tgz:18935.got - 2010.06.03 17:57:02.
