data_PCOD9537394
_publ_section_title
;
Structure prediction by ZEFSAII (Michael W. Deem and Ramdas Pophale) SiO2 
 PCOD9537394
Probable space group: I M M A
;
_chemical_formula_sum "Si O2"
_cell_formula_units_Z 104
_cell_length_a 27.898627
_cell_length_b 7.774144
_cell_length_c 22.822393
_cell_angle_alpha 90.000000
_cell_angle_beta 90.000000
_cell_angle_gamma 90.000000
_cell_volume 4949.901888
_symmetry_space_group_name_H-M "I M M A"
_symmetry_group_IT_number 74
_symmetry_cell_setting 'orthorhombic'
loop_
_space_group_symop_operation_xyz
x,y,z
-x,1/2-y,z
x,-y,-z
-x,1/2+y,-z
-x,-y,-z
x,1/2+y,-z
-x,y,z
x,1/2-y,z
1/2+x,1/2+y,1/2+z
1/2-x,-y,1/2+z
1/2+x,1/2-y,1/2-z
1/2-x,y,1/2-z
1/2-x,1/2-y,1/2-z
1/2+x,y,1/2-z
1/2-x,1/2+y,1/2+z
1/2+x,-y,1/2+z
loop_
_atom_site_type_symbol
_atom_site_label
_atom_site_fract_x
_atom_site_fract_y
_atom_site_fract_z
Si Si1 0.187885 0.040680 0.310580
Si Si2 0.500000 0.042739 0.068743
Si Si3 0.942993 0.944353 0.775697
Si Si4 0.946114 0.947889 0.094221
Si Si5 0.845077 0.444319 0.063335
Si Si6 0.410873 0.039510 0.148135
Si Si7 0.202043 0.039458 0.179435
O O1 0.187125 0.250000 0.310936
O O2 0.144989 0.986018 0.353897
O O3 0.180990 0.985351 0.242551
O O4 0.242105 0.989251 0.325408
O O5 0.500000 0.250000 0.073812
O O6 0.451467 0.981009 0.102186
O O7 0.500000 0.000000 0.000000
O O8 0.922948 0.750000 0.784052
O O9 0.925187 0.013699 0.714057
O O10 0.000000 0.930515 0.768750
O O11 0.935971 0.042792 0.836056
O O12 0.945219 0.750000 0.075450
O O13 0.000000 0.017244 0.084544
O O14 0.902552 0.043991 0.064469
O O15 0.829689 0.250000 0.068927
O O16 0.825583 0.529480 0.122667
O O17 0.827503 0.500000 0.000000
O O18 0.412491 0.250000 0.146818
O O19 0.200697 0.250000 0.181762
#
# Coordination Sequence:
#
# PCOD9537394 Si02
#       7
#    16   8  16  16  16  16  16
#     4   8  13  24  47  77 103 124 154 206 259 302
#     4  10  20  34  48  68 100 140 181 218 255 306
#     4   9  15  26  47  75 102 128 161 204 250 295
#     4  10  21  35  50  73 104 133 163 201 245 295
#     4  11  22  36  53  72  97 133 173 209 248 295
#     4   9  15  26  47  73 100 132 171 210 252 302
#     4   8  15  28  47  75 104 125 156 204 257 303
#
# _framework density 21.010517
#
# number of rings (size 3 to 8) (size 9 to 14) (size 15 to 20)
#    0.000    2.769    0.769    2.769    0.000    3.692 
#    0.000    1.538    0.000    0.000    0.000   21.538 
#    0.000    0.000    0.000    0.000    0.000    0.000 
#
# Total GULP energy -289838.078293 kJ/mol
# GULP energy per Si atom -5573.809198 kJ/mol
# Density = 2.096270 g / cm^3
# Si number density = 21.010517 Si / 1000 Ang^3
#
#
#
# Elastic Constant Matrix: (Units=GPa)
#
#
# Indices 1 2 3 4 5 6 
#
# 1 129.9473 -0.5638 74.8517 0.0000 0.0000 0.0000
# 2 -0.5638 22.2279 -0.4206 0.0000 0.0000 0.0000
# 3 74.8517 -0.4206 96.4161 0.0000 0.0000 0.0000
# 4 0.0000 0.0000 0.0000 21.0480 0.0000 0.0000
# 5 0.0000 0.0000 0.0000 0.0000 16.5590 0.0000
# 6 0.0000 0.0000 0.0000 0.0000 0.0000 -4.1352
#
#
#
# Elastic Compliance Matrix: (Units=1/GPa)
#
#
# Indices 1 2 3 4 5 6 
#
# 1 0.013921 0.000149 -0.010807 0.000000 0.000000 0.000000
# 2 0.000149 0.044994 0.000081 0.000000 0.000000 0.000000
# 3 -0.010807 0.000081 0.018762 0.000000 0.000000 0.000000
# 4 0.000000 0.000000 0.000000 0.047511 0.000000 0.000000
# 5 0.000000 0.000000 0.000000 0.000000 0.060390 0.000000
# 6 0.000000 0.000000 0.000000 0.000000 0.000000 -0.241825
#
#
# Mechanical properties :
#
#
# Convention : Reuss Voigt Hill
#
# Bulk Modulus (GPa) = 17.69219 44.03621 30.86420
# Shear Modulus (GPa) = -307.64828 18.34261 -144.65283
#
# Velocity S-wave (km/s) = -12.11378 2.95790 -8.30646
# Velocity P-wave (km/s) = 13.68281 5.71578 8.79060
#
# Compressibility (1/GPa) = 0.05652213
#
# Stress axis : x y z
#
# Youngs Moduli (GPa) = 71.83444 22.22525 53.29995
#
# Poissons Ratio (x) = -0.00330 0.57600
# Poissons Ratio (y) = -0.01068 -0.00431
# Poissons Ratio (z) = 0.77629 -0.00180
#
# Static dielectric constant tensor:
#      x y z
#    x 1.790440 0.000000 0.000000 
#    y 0.000000 1.752700 0.000000 
#    z 0.000000 0.000000 1.772530 
# 
# From -- ./inp_files/55671.got.cif
#   From: 2010.05.17/outbox.cif.g08.bks.cpg/sg74_28_cif.got.tgz:55671.got - 2010.06.03 17:57:02.
