data_PCOD9537680
_publ_section_title
;
Structure prediction by ZEFSAII (Michael W. Deem and Ramdas Pophale) SiO2 
 PCOD9537680
Probable space group: I M M A
;
_chemical_formula_sum "Si O2"
_cell_formula_units_Z 112
_cell_length_a 13.265185
_cell_length_b 15.068926
_cell_length_c 27.543349
_cell_angle_alpha 90.000000
_cell_angle_beta 90.000000
_cell_angle_gamma 90.000000
_cell_volume 5505.697629
_symmetry_space_group_name_H-M "I M M A"
_symmetry_group_IT_number 74
_symmetry_cell_setting 'orthorhombic'
loop_
_space_group_symop_operation_xyz
x,y,z
-x,1/2-y,z
x,-y,-z
-x,1/2+y,-z
-x,-y,-z
x,1/2+y,-z
-x,y,z
x,1/2-y,z
1/2+x,1/2+y,1/2+z
1/2-x,-y,1/2+z
1/2+x,1/2-y,1/2-z
1/2-x,y,1/2-z
1/2-x,1/2-y,1/2-z
1/2+x,y,1/2-z
1/2-x,1/2+y,1/2+z
1/2+x,-y,1/2+z
loop_
_atom_site_type_symbol
_atom_site_label
_atom_site_fract_x
_atom_site_fract_y
_atom_site_fract_z
Si Si1 0.177373 0.898861 0.488609
Si Si2 0.384897 0.515923 0.619667
Si Si3 0.881337 0.853025 0.378321
Si Si4 0.889109 0.853405 0.048125
Si Si5 0.118558 0.150673 0.308561
Si Si6 0.783851 0.153759 0.412250
Si Si7 0.262247 0.025487 0.801331
O O1 0.137193 0.872006 0.435776
O O2 0.297351 0.881102 0.485451
O O3 0.151210 0.851026 0.538651
O O4 0.154129 0.000000 0.500000
O O5 0.500000 0.549352 0.617753
O O6 0.384078 0.420420 0.593161
O O7 0.301513 0.578246 0.593739
O O8 0.342910 0.502329 0.673789
O O9 0.853952 0.750000 0.369921
O O10 0.819980 0.917589 0.342637
O O11 0.000000 0.864651 0.369052
O O12 0.877375 0.750000 0.061776
O O13 0.000000 0.864094 0.025376
O O14 0.151010 0.250000 0.291919
O O15 0.143665 0.146791 0.365986
O O16 0.000000 0.143127 0.299945
O O17 0.175896 0.064373 0.289582
O O18 0.732691 0.250000 0.410497
O O19 0.250000 0.074222 0.750000
#
# Coordination Sequence:
#
# PCOD9537680 Si02
#       7
#    16  16  16  16  16  16  16
#     4  12  21  36  59  87 121 160 200 244 290 343
#     4  10  21  38  57  83 118 155 199 248 300 357
#     4  11  25  44  64  89 124 162 200 248 303 360
#     4  10  20  35  56  79 110 154 198 242 291 343
#     4   9  19  38  62  89 125 162 197 244 303 366
#     4  10  20  34  55  86 123 162 202 243 290 350
#     4  11  23  40  65  91 117 154 201 258 314 365
#
# _framework density 20.342562999999998
#
# number of rings (size 3 to 8) (size 9 to 14) (size 15 to 20)
#    0.000    1.571    2.857    2.571    0.000    3.714 
#    0.000    1.429    0.000    1.714    0.000    0.000 
#    0.000    0.000    0.000    0.000    0.000    0.000 
#
# Total GULP energy -312379.565402 kJ/mol
# GULP energy per Si atom -5578.206525 kJ/mol
# Density = 2.029626 g / cm^3
# Si number density = 20.342563 Si / 1000 Ang^3
#
#
#
# Elastic Constant Matrix: (Units=GPa)
#
#
# Indices 1 2 3 4 5 6 
#
# 1 41.0933 10.7413 7.3347 0.0000 0.0000 0.0000
# 2 10.7413 97.1167 17.8017 0.0000 0.0000 0.0000
# 3 7.3347 17.8017 94.6345 0.0000 0.0000 0.0000
# 4 0.0000 0.0000 0.0000 8.9736 0.0000 0.0000
# 5 0.0000 0.0000 0.0000 0.0000 2.2129 0.0000
# 6 0.0000 0.0000 0.0000 0.0000 0.0000 0.1284
#
#
#
# Elastic Compliance Matrix: (Units=1/GPa)
#
#
# Indices 1 2 3 4 5 6 
#
# 1 0.025259 -0.002522 -0.001483 0.000000 0.000000 0.000000
# 2 -0.002522 0.010916 -0.001858 0.000000 0.000000 0.000000
# 3 -0.001483 -0.001858 0.011031 0.000000 0.000000 0.000000
# 4 0.000000 0.000000 0.000000 0.111438 0.000000 0.000000
# 5 0.000000 0.000000 0.000000 0.000000 0.451901 0.000000
# 6 0.000000 0.000000 0.000000 0.000000 0.000000 7.788842
#
#
# Mechanical properties :
#
#
# Convention : Reuss Voigt Hill
#
# Bulk Modulus (GPa) = 28.18461 33.84443 31.01452
# Shear Modulus (GPa) = 0.59362 15.39410 7.99386
#
# Velocity S-wave (km/s) = 0.54078 2.75388 1.98448
# Velocity P-wave (km/s) = 3.77823 5.17544 4.53101
#
# Compressibility (1/GPa) = 0.03548035
#
# Stress axis : x y z
#
# Youngs Moduli (GPa) = 39.59020 91.60543 90.64987
#
# Poissons Ratio (x) = 0.23101 0.13446
# Poissons Ratio (y) = 0.09984 0.16843
# Poissons Ratio (z) = 0.05873 0.17021
#
# Static dielectric constant tensor:
#      x y z
#    x 1.728990 0.000000 0.000000 
#    y 0.000000 1.785680 0.000000 
#    z 0.000000 0.000000 1.743510 
# 
# From -- ./inp_files/67191.got.cif
#   From: 2010.05.17/outbox.cif.g08.bks.cpg/sg74_34_cif.got.tgz:67191.got - 2010.06.03 17:57:02.
