data_PCOD9537396
_publ_section_title
;
Structure prediction by ZEFSAII (Michael W. Deem and Ramdas Pophale) SiO2 
 PCOD9537396
Probable space group: I M M A
;
_chemical_formula_sum "Si O2"
_cell_formula_units_Z 120
_cell_length_a 31.031457
_cell_length_b 19.702872
_cell_length_c 11.144351
_cell_angle_alpha 90.000000
_cell_angle_beta 90.000000
_cell_angle_gamma 90.000000
_cell_volume 6813.754553
_symmetry_space_group_name_H-M "I M M A"
_symmetry_group_IT_number 74
_symmetry_cell_setting 'orthorhombic'
loop_
_space_group_symop_operation_xyz
x,y,z
-x,1/2-y,z
x,-y,-z
-x,1/2+y,-z
-x,-y,-z
x,1/2+y,-z
-x,y,z
x,1/2-y,z
1/2+x,1/2+y,1/2+z
1/2-x,-y,1/2+z
1/2+x,1/2-y,1/2-z
1/2-x,y,1/2-z
1/2-x,1/2-y,1/2-z
1/2+x,y,1/2-z
1/2-x,1/2+y,1/2+z
1/2+x,-y,1/2+z
loop_
_atom_site_type_symbol
_atom_site_label
_atom_site_fract_x
_atom_site_fract_y
_atom_site_fract_z
Si Si1 0.407913 0.029958 0.627826
Si Si2 0.188564 0.008652 0.141622
Si Si3 0.867037 0.675349 0.136046
Si Si4 0.051151 0.949164 0.388158
Si Si5 0.750000 0.378607 0.250000
Si Si6 0.725148 0.132225 0.643457
Si Si7 0.116179 0.327455 0.582828
Si Si8 0.204865 0.328070 0.473078
O O1 0.362872 0.991385 0.657682
O O2 0.394421 0.108867 0.602276
O O3 0.435004 0.027910 0.752138
O O4 0.424782 0.000000 0.500000
O O5 0.207059 0.938658 0.195033
O O6 0.215119 0.071787 0.188210
O O7 0.195287 0.000000 0.000000
O O8 0.883946 0.750000 0.101116
O O9 0.817691 0.667535 0.093395
O O10 0.865367 0.673285 0.281218
O O11 0.077691 0.880749 0.415747
O O12 0.000000 0.937678 0.386940
O O13 0.060571 0.000000 0.500000
O O14 0.778180 0.334015 0.339366
O O15 0.750000 0.169694 0.750000
O O16 0.762032 0.125046 0.545412
O O17 0.103001 0.250000 0.554370
O O18 0.155638 0.348125 0.496914
O O19 0.208759 0.250000 0.514861
#
# Coordination Sequence:
#
# PCOD9537396 Si02
#       8
#    16  16  16  16   8  16  16  16
#     4   9  20  37  57  80 114 146 180 228 286 346
#     4  10  20  34  48  74 105 140 190 230 270 322
#     4   9  17  30  51  77 107 143 187 236 271 316
#     4  10  22  39  61  91 114 136 182 234 288 350
#     4  12  23  34  52  72 109 154 192 236 270 324
#     4  11  18  29  48  72 101 137 185 230 267 307
#     4   9  19  36  55  81 112 144 183 227 280 337
#     4  11  23  35  49  75 111 150 191 229 269 325
#
# _framework density 17.611435
#
# number of rings (size 3 to 8) (size 9 to 14) (size 15 to 20)
#    0.000    2.000    3.333    0.600    1.867    1.067 
#    0.000    0.000    0.000    0.800    0.000    0.000 
#    0.000    0.000    0.000    0.000    0.000    0.000 
#
# Total GULP energy -334105.739214 kJ/mol
# GULP energy per Si atom -5568.428987 kJ/mol
# Density = 1.757135 g / cm^3
# Si number density = 17.611435 Si / 1000 Ang^3
#
#
#
# Elastic Constant Matrix: (Units=GPa)
#
#
# Indices 1 2 3 4 5 6 
#
# 1 91.5469 39.9435 46.0958 0.0000 0.0000 0.0000
# 2 39.9435 74.7977 31.4516 0.0000 0.0000 0.0000
# 3 46.0958 31.4516 84.3076 0.0000 0.0000 0.0000
# 4 0.0000 0.0000 0.0000 21.4396 0.0000 0.0000
# 5 0.0000 0.0000 0.0000 0.0000 25.6826 0.0000
# 6 0.0000 0.0000 0.0000 0.0000 0.0000 15.1650
#
#
#
# Elastic Compliance Matrix: (Units=1/GPa)
#
#
# Indices 1 2 3 4 5 6 
#
# 1 0.017200 -0.006204 -0.007090 0.000000 0.000000 0.000000
# 2 -0.006204 0.018095 -0.003358 0.000000 0.000000 0.000000
# 3 -0.007090 -0.003358 0.016991 0.000000 0.000000 0.000000
# 4 0.000000 0.000000 0.000000 0.046643 0.000000 0.000000
# 5 0.000000 0.000000 0.000000 0.000000 0.038937 0.000000
# 6 0.000000 0.000000 0.000000 0.000000 0.000000 0.065941
#
#
# Mechanical properties :
#
#
# Convention : Reuss Voigt Hill
#
# Bulk Modulus (GPa) = 52.68403 53.95935 53.32169
# Shear Modulus (GPa) = 20.53916 21.33486 20.93701
#
# Velocity S-wave (km/s) = 3.41873 3.48432 3.45168
# Velocity P-wave (km/s) = 6.75005 6.84782 6.79911
#
# Compressibility (1/GPa) = 0.01898109
#
# Stress axis : x y z
#
# Youngs Moduli (GPa) = 58.13887 55.26515 58.85615
#
# Poissons Ratio (x) = 0.34287 0.41728
# Poissons Ratio (y) = 0.36070 0.19765
# Poissons Ratio (z) = 0.41220 0.18559
#
# Static dielectric constant tensor:
#      x y z
#    x 1.581870 0.000000 0.000000 
#    y 0.000000 1.654400 0.000000 
#    z 0.000000 0.000000 1.654160 
# 
# From -- ./inp_files/26515.got.cif
#   From: 2010.05.17/outbox.cif.g08.bks.cpg/sg74_14_cif.got.tgz:26515.got - 2010.06.03 17:57:02.
