data_PCOD9537529
_publ_section_title
;
Structure prediction by ZEFSAII (Michael W. Deem and Ramdas Pophale) SiO2 
 PCOD9537529
Probable space group: I M M A
;
_chemical_formula_sum "Si O2"
_cell_formula_units_Z 104
_cell_length_a 21.593079
_cell_length_b 9.388829
_cell_length_c 27.246110
_cell_angle_alpha 90.000000
_cell_angle_beta 90.000000
_cell_angle_gamma 90.000000
_cell_volume 5523.705408
_symmetry_space_group_name_H-M "I M M A"
_symmetry_group_IT_number 74
_symmetry_cell_setting 'orthorhombic'
loop_
_space_group_symop_operation_xyz
x,y,z
-x,1/2-y,z
x,-y,-z
-x,1/2+y,-z
-x,-y,-z
x,1/2+y,-z
-x,y,z
x,1/2-y,z
1/2+x,1/2+y,1/2+z
1/2-x,-y,1/2+z
1/2+x,1/2-y,1/2-z
1/2-x,y,1/2-z
1/2-x,1/2-y,1/2-z
1/2+x,y,1/2-z
1/2-x,1/2+y,1/2+z
1/2+x,-y,1/2+z
loop_
_atom_site_type_symbol
_atom_site_label
_atom_site_fract_x
_atom_site_fract_y
_atom_site_fract_z
Si Si1 0.589578 0.084609 0.857644
Si Si2 0.189300 0.583815 0.220323
Si Si3 0.266297 0.592446 0.122584
Si Si4 0.198647 0.916729 0.949381
Si Si5 0.000000 0.420389 0.552897
Si Si6 0.569392 0.920533 0.758001
Si Si7 0.434630 0.079739 0.447712
O O1 0.572208 0.250000 0.847449
O O2 0.663950 0.080190 0.858597
O O3 0.558250 0.048216 0.910293
O O4 0.569702 0.983116 0.813354
O O5 0.178594 0.750000 0.234892
O O6 0.250000 0.530894 0.250000
O O7 0.215352 0.582469 0.165237
O O8 0.127107 0.495840 0.230619
O O9 0.259999 0.750000 0.099571
O O10 0.253043 0.469986 0.084413
O O11 0.201317 0.750000 0.958137
O O12 0.131768 0.952598 0.924604
O O13 0.200882 0.000000 0.000000
O O14 0.000000 0.500000 0.500000
O O15 0.000000 0.250000 0.543419
O O16 0.500000 0.949714 0.737416
O O17 0.578150 0.750000 0.758334
O O18 0.500000 0.042979 0.422367
O O19 0.434979 0.250000 0.456149
O O20 0.434851 0.000000 0.500000
#
# Coordination Sequence:
#
# PCOD9537529 Si02
#       7
#    16  16  16  16   8  16  16
#     4  10  20  38  62  84 110 152 200 244 295 359
#     4  10  20  38  63  88 115 153 197 247 304 365
#     4  10  21  37  58  85 115 146 193 246 294 353
#     4  10  20  34  53  77 109 149 189 232 286 341
#     4  10  22  38  60  86 118 158 200 252 309 360
#     4  11  23  37  58  91 126 157 194 246 301 360
#     4   8  14  26  45  68  92 123 167 214 259 310
#
# _framework density 18.827940999999999
#
# number of rings (size 3 to 8) (size 9 to 14) (size 15 to 20)
#    0.000    2.154    2.308    0.923    0.000    4.308 
#    0.000    2.308    0.000    2.769    0.000    0.000 
#    0.000    0.000    0.000    0.000    0.000    0.000 
#
# Total GULP energy -289589.224802 kJ/mol
# GULP energy per Si atom -5569.023554 kJ/mol
# Density = 1.878509 g / cm^3
# Si number density = 18.827941 Si / 1000 Ang^3
#
#
#
# Elastic Constant Matrix: (Units=GPa)
#
#
# Indices 1 2 3 4 5 6 
#
# 1 143.5473 61.6773 36.2885 0.0000 0.0000 0.0000
# 2 61.6773 67.7022 26.4675 0.0000 0.0000 0.0000
# 3 36.2885 26.4675 41.0022 0.0000 0.0000 0.0000
# 4 0.0000 0.0000 0.0000 27.7628 0.0000 0.0000
# 5 0.0000 0.0000 0.0000 0.0000 22.6303 0.0000
# 6 0.0000 0.0000 0.0000 0.0000 0.0000 24.6640
#
#
#
# Elastic Compliance Matrix: (Units=1/GPa)
#
#
# Indices 1 2 3 4 5 6 
#
# 1 0.012118 -0.009158 -0.004813 0.000000 0.000000 0.000000
# 2 -0.009158 0.026677 -0.009115 0.000000 0.000000 0.000000
# 3 -0.004813 -0.009115 0.034533 0.000000 0.000000 0.000000
# 4 0.000000 0.000000 0.000000 0.036019 0.000000 0.000000
# 5 0.000000 0.000000 0.000000 0.000000 0.044189 0.000000
# 6 0.000000 0.000000 0.000000 0.000000 0.000000 0.040545
#
#
# Mechanical properties :
#
#
# Convention : Reuss Voigt Hill
#
# Bulk Modulus (GPa) = 36.82571 55.67980 46.25275
# Shear Modulus (GPa) = 20.05570 23.53263 21.79417
#
# Velocity S-wave (km/s) = 3.26730 3.53920 3.40596
# Velocity P-wave (km/s) = 5.81680 6.80723 6.33141
#
# Compressibility (1/GPa) = 0.02715494
#
# Stress axis : x y z
#
# Youngs Moduli (GPa) = 82.52215 37.48550 28.95779
#
# Poissons Ratio (x) = 0.34329 0.13938
# Poissons Ratio (y) = 0.75572 0.26396
# Poissons Ratio (z) = 0.39721 0.34169
#
# Static dielectric constant tensor:
#      x y z
#    x 1.728080 0.000000 0.000000 
#    y 0.000000 1.634450 0.000000 
#    z 0.000000 0.000000 1.649610 
# 
# From -- ./inp_files/68213.got.cif
#   From: 2010.05.17/outbox.cif.g08.bks.cpg/sg74_35_cif.got.tgz:68213.got - 2010.06.03 17:57:02.
