data_PCOD9537223
_publ_section_title
;
Structure prediction by ZEFSAII (Michael W. Deem and Ramdas Pophale) SiO2 
 PCOD9537223
Probable space group: I M M A
;
_chemical_formula_sum "Si O2"
_cell_formula_units_Z 80
_cell_length_a 8.964722
_cell_length_b 18.955134
_cell_length_c 27.471438
_cell_angle_alpha 90.000000
_cell_angle_beta 90.000000
_cell_angle_gamma 90.000000
_cell_volume 4668.152967
_symmetry_space_group_name_H-M "I M M A"
_symmetry_group_IT_number 74
_symmetry_cell_setting 'orthorhombic'
loop_
_space_group_symop_operation_xyz
x,y,z
-x,1/2-y,z
x,-y,-z
-x,1/2+y,-z
-x,-y,-z
x,1/2+y,-z
-x,y,z
x,1/2-y,z
1/2+x,1/2+y,1/2+z
1/2-x,-y,1/2+z
1/2+x,1/2-y,1/2-z
1/2-x,y,1/2-z
1/2-x,1/2-y,1/2-z
1/2+x,y,1/2-z
1/2-x,1/2+y,1/2+z
1/2+x,-y,1/2+z
loop_
_atom_site_type_symbol
_atom_site_label
_atom_site_fract_x
_atom_site_fract_y
_atom_site_fract_z
Si Si1 0.179793 0.331118 0.595417
Si Si2 0.322550 0.169083 0.303198
Si Si3 0.821304 0.038691 0.354545
Si Si4 0.178469 0.966475 0.052354
Si Si5 0.678111 0.395753 0.801123
O O1 0.215934 0.250000 0.584781
O O2 0.258029 0.387807 0.560658
O O3 0.222042 0.350295 0.651355
O O4 0.000000 0.340288 0.592174
O O5 0.500000 0.157896 0.299889
O O6 0.296340 0.250000 0.319023
O O7 0.250000 0.161021 0.250000
O O8 0.248877 0.111798 0.337894
O O9 0.000000 0.042998 0.357669
O O10 0.754069 0.012694 0.405388
O O11 0.784655 0.976652 0.315644
O O12 0.000000 0.965902 0.058597
O O13 0.213049 0.000000 0.000000
O O14 0.500000 0.390402 0.796447
O O15 0.750000 0.375626 0.750000
#
# Coordination Sequence:
#
# PCOD9537223 Si02
#       5
#    16  16  16  16  16
#     4   9  19  36  55  76 105 138 172 211 252 298
#     4  10  20  33  50  74 106 142 177 215 261 312
#     4  10  20  34  53  75 101 135 175 218 260 307
#     4  10  21  37  57  80 104 131 167 214 266 317
#     4   9  18  30  46  72 103 135 169 204 243 289
#
# _framework density 17.1374
#
# number of rings (size 3 to 8) (size 9 to 14) (size 15 to 20)
#    0.000    2.400    0.000    3.600    0.000    9.200 
#    0.000    1.000    0.000    1.200    0.000    0.000 
#    0.000    0.000    0.000    0.000    0.000    0.000 
#
# Total GULP energy -223182.379631 kJ/mol
# GULP energy per Si atom -5579.559491 kJ/mol
# Density = 1.709839 g / cm^3
# Si number density = 17.137400 Si / 1000 Ang^3
#
#
#
# Elastic Constant Matrix: (Units=GPa)
#
#
# Indices 1 2 3 4 5 6 
#
# 1 52.8218 63.2460 40.9006 0.0000 0.0000 0.0000
# 2 63.2460 145.0541 64.8191 0.0000 0.0000 0.0000
# 3 40.9006 64.8191 85.6232 0.0000 0.0000 0.0000
# 4 0.0000 0.0000 0.0000 11.0741 0.0000 0.0000
# 5 0.0000 0.0000 0.0000 0.0000 30.6797 0.0000
# 6 0.0000 0.0000 0.0000 0.0000 0.0000 26.7944
#
#
#
# Elastic Compliance Matrix: (Units=1/GPa)
#
#
# Indices 1 2 3 4 5 6 
#
# 1 0.044591 -0.014997 -0.009947 0.000000 0.000000 0.000000
# 2 -0.014997 0.015463 -0.004542 0.000000 0.000000 0.000000
# 3 -0.009947 -0.004542 0.019868 0.000000 0.000000 0.000000
# 4 0.000000 0.000000 0.000000 0.090301 0.000000 0.000000
# 5 0.000000 0.000000 0.000000 0.000000 0.032595 0.000000
# 6 0.000000 0.000000 0.000000 0.000000 0.000000 0.037321
#
#
# Mechanical properties :
#
#
# Convention : Reuss Voigt Hill
#
# Bulk Modulus (GPa) = 47.73199 69.04784 58.38991
# Shear Modulus (GPa) = 16.33491 21.34520 18.84006
#
# Velocity S-wave (km/s) = 3.09070 3.53304 3.31925
# Velocity P-wave (km/s) = 6.37570 7.55125 6.98824
#
# Compressibility (1/GPa) = 0.02095031
#
# Stress axis : x y z
#
# Youngs Moduli (GPa) = 22.42629 64.67227 50.33102
#
# Poissons Ratio (x) = 0.96992 0.50062
# Poissons Ratio (y) = 0.33634 0.22858
# Poissons Ratio (z) = 0.22307 0.29371
#
# Static dielectric constant tensor:
#      x y z
#    x 1.569670 0.000000 0.000000 
#    y 0.000000 1.586540 0.000000 
#    z 0.000000 0.000000 1.555110 
# 
# From -- ./inp_files/63894.got.cif
#   From: 2010.05.17/outbox.cif.g08.bks.cpg/sg74_32_cif.got.tgz:63894.got - 2010.06.03 17:57:02.
