data_PCOD9537288
_publ_section_title
;
Structure prediction by ZEFSAII (Michael W. Deem and Ramdas Pophale) SiO2 
 PCOD9537288
Probable space group: I M M A
;
_chemical_formula_sum "Si O2"
_cell_formula_units_Z 116
_cell_length_a 8.808339
_cell_length_b 23.371998
_cell_length_c 29.915161
_cell_angle_alpha 90.000000
_cell_angle_beta 90.000000
_cell_angle_gamma 90.000000
_cell_volume 6158.588769
_symmetry_space_group_name_H-M "I M M A"
_symmetry_group_IT_number 74
_symmetry_cell_setting 'orthorhombic'
loop_
_space_group_symop_operation_xyz
x,y,z
-x,1/2-y,z
x,-y,-z
-x,1/2+y,-z
-x,-y,-z
x,1/2+y,-z
-x,y,z
x,1/2-y,z
1/2+x,1/2+y,1/2+z
1/2-x,-y,1/2+z
1/2+x,1/2-y,1/2-z
1/2-x,y,1/2-z
1/2-x,1/2-y,1/2-z
1/2+x,y,1/2-z
1/2-x,1/2+y,1/2+z
1/2+x,-y,1/2+z
loop_
_atom_site_type_symbol
_atom_site_label
_atom_site_fract_x
_atom_site_fract_y
_atom_site_fract_z
Si Si1 0.825505 0.664848 0.008397
Si Si2 0.314988 0.645300 0.819415
Si Si3 0.183786 0.313321 0.890934
Si Si4 0.169348 0.055497 0.530081
Si Si5 0.250000 0.750000 0.750000
Si Si6 0.329354 0.183847 0.085655
Si Si7 0.681329 0.521052 0.703459
Si Si8 0.678340 0.066455 0.866402
O O1 0.766485 0.686189 0.056627
O O2 0.798138 0.597426 0.012784
O O3 0.000000 0.681068 0.006066
O O4 0.749516 0.682033 0.962175
O O5 0.500000 0.645465 0.818245
O O6 0.263297 0.698750 0.788780
O O7 0.262881 0.652646 0.871046
O O8 0.251823 0.584321 0.803678
O O9 0.220060 0.250000 0.872615
O O10 0.257528 0.368525 0.867669
O O11 0.000000 0.320016 0.890528
O O12 0.191800 0.044504 0.582431
O O13 0.000000 0.082852 0.525868
O O14 0.169150 0.000000 0.500000
O O15 0.500000 0.161316 0.079142
O O16 0.337268 0.250000 0.099376
O O17 0.500000 0.525472 0.705484
O O18 0.750000 0.499241 0.750000
O O19 0.732627 0.476779 0.665348
O O20 0.500000 0.066885 0.854657
#
# Coordination Sequence:
#
# PCOD9537288 Si02
#       8
#    16  16  16  16   4  16  16  16
#     4  10  20  33  51  80 117 154 196 245 292 343
#     4  11  24  42  63  87 116 152 199 253 310 366
#     4   9  18  35  59  87 123 165 202 242 295 353
#     4   9  19  35  54  78 110 157 203 242 292 351
#     4  12  22  40  72  90 114 152 204 264 318 368
#     4  10  21  37  55  77 109 151 193 238 293 354
#     4  12  26  44  66  91 120 155 199 247 307 368
#     4  10  21  38  61  90 123 157 201 252 301 359
#
# _framework density 18.835484000000001
#
# number of rings (size 3 to 8) (size 9 to 14) (size 15 to 20)
#    0.000    1.793    1.379    2.690    1.931    3.586 
#    0.000    0.000    0.000    0.414    0.000    0.000 
#    0.000    0.000    0.000    0.000    0.000    0.000 
#
# Total GULP energy -322924.166273 kJ/mol
# GULP energy per Si atom -5567.658039 kJ/mol
# Density = 1.879261 g / cm^3
# Si number density = 18.835484 Si / 1000 Ang^3
#
#
#
# Elastic Constant Matrix: (Units=GPa)
#
#
# Indices 1 2 3 4 5 6 
#
# 1 49.7900 35.3021 30.6255 0.0000 0.0000 0.0000
# 2 35.3021 119.2750 50.5399 0.0000 0.0000 0.0000
# 3 30.6255 50.5399 84.0595 0.0000 0.0000 0.0000
# 4 0.0000 0.0000 0.0000 99.7146 0.0000 0.0000
# 5 0.0000 0.0000 0.0000 0.0000 23.9079 0.0000
# 6 0.0000 0.0000 0.0000 0.0000 0.0000 18.1480
#
#
#
# Elastic Compliance Matrix: (Units=1/GPa)
#
#
# Indices 1 2 3 4 5 6 
#
# 1 0.028230 -0.005364 -0.007060 0.000000 0.000000 0.000000
# 2 -0.005364 0.012269 -0.005423 0.000000 0.000000 0.000000
# 3 -0.007060 -0.005423 0.017729 0.000000 0.000000 0.000000
# 4 0.000000 0.000000 0.000000 0.010029 0.000000 0.000000
# 5 0.000000 0.000000 0.000000 0.000000 0.041827 0.000000
# 6 0.000000 0.000000 0.000000 0.000000 0.000000 0.055102
#
#
# Mechanical properties :
#
#
# Convention : Reuss Voigt Hill
#
# Bulk Modulus (GPa) = 44.37519 54.00662 49.19090
# Shear Modulus (GPa) = 23.99338 37.46457 30.72897
#
# Velocity S-wave (km/s) = 3.57296 4.46471 4.04349
# Velocity P-wave (km/s) = 6.37432 7.43728 6.92622
#
# Compressibility (1/GPa) = 0.02253511
#
# Stress axis : x y z
#
# Youngs Moduli (GPa) = 35.42324 81.50511 56.40529
#
# Poissons Ratio (x) = 0.43717 0.39823
# Poissons Ratio (y) = 0.19000 0.30586
# Poissons Ratio (z) = 0.25010 0.44196
#
# Static dielectric constant tensor:
#      x y z
#    x 1.680210 0.000000 0.000000 
#    y 0.000000 1.656960 0.000000 
#    z 0.000000 0.000000 1.651940 
# 
# From -- ./inp_files/64842.got.cif
#   From: 2010.05.17/outbox.cif.g08.bks.cpg/sg74_33_cif.got.tgz:64842.got - 2010.06.03 17:57:02.
