data_PCOD9537161
_publ_section_title
;
Structure prediction by ZEFSAII (Michael W. Deem and Ramdas Pophale) SiO2 
 PCOD9537161
Probable space group: I M M A
;
_chemical_formula_sum "Si O2"
_cell_formula_units_Z 88
_cell_length_a 21.685704
_cell_length_b 27.092231
_cell_length_c 8.951312
_cell_angle_alpha 90.000000
_cell_angle_beta 90.000000
_cell_angle_gamma 90.000000
_cell_volume 5259.022033
_symmetry_space_group_name_H-M "I M M A"
_symmetry_group_IT_number 74
_symmetry_cell_setting 'orthorhombic'
loop_
_space_group_symop_operation_xyz
x,y,z
-x,1/2-y,z
x,-y,-z
-x,1/2+y,-z
-x,-y,-z
x,1/2+y,-z
-x,y,z
x,1/2-y,z
1/2+x,1/2+y,1/2+z
1/2-x,-y,1/2+z
1/2+x,1/2-y,1/2-z
1/2-x,y,1/2-z
1/2-x,1/2-y,1/2-z
1/2+x,y,1/2-z
1/2-x,1/2+y,1/2+z
1/2+x,-y,1/2+z
loop_
_atom_site_type_symbol
_atom_site_label
_atom_site_fract_x
_atom_site_fract_y
_atom_site_fract_z
Si Si1 0.000000 0.080945 0.461162
Si Si2 0.000000 0.486039 0.755741
Si Si3 0.192671 0.077949 0.157781
Si Si4 0.896417 0.000000 0.000000
Si Si5 0.879066 0.355981 0.400658
Si Si6 0.273294 0.750000 0.511293
Si Si7 0.146141 0.250000 0.295525
Si Si8 0.759041 0.354929 0.586800
O O1 0.000000 0.039204 0.329802
O O2 0.940218 0.115243 0.444955
O O3 0.000000 0.053051 0.620623
O O4 0.058804 0.481651 0.865992
O O5 0.250000 0.054177 0.250000
O O6 0.147551 0.040597 0.075027
O O7 0.154663 0.112059 0.272212
O O8 0.223967 0.113261 0.036425
O O9 0.887967 0.300457 0.339175
O O10 0.830170 0.352780 0.536340
O O11 0.210683 0.750000 0.611441
O O12 0.330875 0.750000 0.624482
O O13 0.269824 0.800141 0.418848
O O14 0.750000 0.376553 0.750000
#
# Coordination Sequence:
#
# PCOD9537161 Si02
#       8
#     8   8  16   8  16   8   8  16
#     4  11  22  41  58  81 111 146 200 247 267 335
#     4  10  24  40  64  77 103 157 198 239 277 330
#     4  10  21  37  55  84 118 146 182 234 290 346
#     4  11  22  42  60  84 110 149 196 236 288 345
#     4  10  20  37  58  83 114 151 191 231 280 341
#     4   9  15  30  54  81 117 143 186 219 272 345
#     4   9  16  31  58  83 111 154 180 227 278 344
#     4  10  20  32  55  88 115 147 180 230 294 341
#
# _framework density 16.733149000000001
#
# number of rings (size 3 to 8) (size 9 to 14) (size 15 to 20)
#    0.000    2.000    3.636    0.273    2.545    1.091 
#    3.273    0.000    0.000    0.000    0.000    0.000 
#    0.000    0.000    0.000    0.000    0.000    0.000 
#
# Total GULP energy -245330.200225 kJ/mol
# GULP energy per Si atom -5575.686369 kJ/mol
# Density = 1.669506 g / cm^3
# Si number density = 16.733149 Si / 1000 Ang^3
#
#
#
# Elastic Constant Matrix: (Units=GPa)
#
#
# Indices 1 2 3 4 5 6 
#
# 1 115.3791 66.6963 56.4455 0.0000 0.0000 0.0000
# 2 66.6963 99.9528 39.7932 0.0000 0.0000 0.0000
# 3 56.4455 39.7932 106.4887 0.0000 0.0000 0.0000
# 4 0.0000 0.0000 0.0000 23.2928 0.0000 0.0000
# 5 0.0000 0.0000 0.0000 0.0000 19.9871 0.0000
# 6 0.0000 0.0000 0.0000 0.0000 0.0000 19.9560
#
#
#
# Elastic Compliance Matrix: (Units=1/GPa)
#
#
# Indices 1 2 3 4 5 6 
#
# 1 0.016389 -0.008784 -0.005405 0.000000 0.000000 0.000000
# 2 -0.008784 0.016462 -0.001495 0.000000 0.000000 0.000000
# 3 -0.005405 -0.001495 0.012814 0.000000 0.000000 0.000000
# 4 0.000000 0.000000 0.000000 0.042932 0.000000 0.000000
# 5 0.000000 0.000000 0.000000 0.000000 0.050032 0.000000
# 6 0.000000 0.000000 0.000000 0.000000 0.000000 0.050110
#
#
# Mechanical properties :
#
#
# Convention : Reuss Voigt Hill
#
# Bulk Modulus (GPa) = 69.94735 71.96563 70.95649
# Shear Modulus (GPa) = 22.23479 23.23955 22.73717
#
# Velocity S-wave (km/s) = 3.64921 3.73075 3.69020
# Velocity P-wave (km/s) = 7.72321 7.85233 7.78804
#
# Compressibility (1/GPa) = 0.01429647
#
# Stress axis : x y z
#
# Youngs Moduli (GPa) = 61.01648 60.74743 78.03864
#
# Poissons Ratio (x) = 0.53363 0.42177
# Poissons Ratio (y) = 0.53599 0.11668
# Poissons Ratio (z) = 0.32977 0.09083
#
# Static dielectric constant tensor:
#      x y z
#    x 1.549480 0.000000 0.000000 
#    y 0.000000 1.559460 0.000000 
#    z 0.000000 0.000000 1.565800 
# 
# From -- ./inp_files/11288.got.cif
#   From: 2010.05.17/outbox.cif.g08.bks.cpg/sg74_6_cif.got.tgz:11288.got - 2010.06.03 17:57:02.
