data_PCOD9537593
_publ_section_title
;
Structure prediction by ZEFSAII (Michael W. Deem and Ramdas Pophale) SiO2 
 PCOD9537593
Probable space group: I M M A
;
_chemical_formula_sum "Si O2"
_cell_formula_units_Z 104
_cell_length_a 23.005865
_cell_length_b 7.640991
_cell_length_c 28.451145
_cell_angle_alpha 90.000000
_cell_angle_beta 90.000000
_cell_angle_gamma 90.000000
_cell_volume 5001.358708
_symmetry_space_group_name_H-M "I M M A"
_symmetry_group_IT_number 74
_symmetry_cell_setting 'orthorhombic'
loop_
_space_group_symop_operation_xyz
x,y,z
-x,1/2-y,z
x,-y,-z
-x,1/2+y,-z
-x,-y,-z
x,1/2+y,-z
-x,y,z
x,1/2-y,z
1/2+x,1/2+y,1/2+z
1/2-x,-y,1/2+z
1/2+x,1/2-y,1/2-z
1/2-x,y,1/2-z
1/2-x,1/2-y,1/2-z
1/2+x,y,1/2-z
1/2-x,1/2+y,1/2+z
1/2+x,-y,1/2+z
loop_
_atom_site_type_symbol
_atom_site_label
_atom_site_fract_x
_atom_site_fract_y
_atom_site_fract_z
Si Si1 0.933673 0.538630 0.193956
Si Si2 0.839132 0.463303 0.375862
Si Si3 0.500000 0.959329 0.445529
Si Si4 0.437815 0.958697 0.945734
Si Si5 0.241654 0.548189 0.944689
Si Si6 0.433636 0.044057 0.197675
Si Si7 0.380180 0.037751 0.599900
O O1 0.933068 0.750000 0.195161
O O2 0.923749 0.474369 0.246667
O O3 0.887487 0.483270 0.154459
O O4 0.000000 0.487161 0.180388
O O5 0.834030 0.250000 0.370233
O O6 0.884290 0.517816 0.416160
O O7 0.779361 0.528093 0.400487
O O8 0.876386 0.523858 0.330046
O O9 0.500000 0.750000 0.437704
O O10 0.440084 0.024243 0.423574
O O11 0.500000 0.000000 0.500000
O O12 0.500000 0.030108 0.929763
O O13 0.439489 0.750000 0.940444
O O14 0.430985 0.000000 0.000000
O O15 0.258081 0.750000 0.944759
O O16 0.175091 0.525367 0.929096
O O17 0.250225 0.500000 0.000000
O O18 0.500000 0.973139 0.188174
O O19 0.437345 0.250000 0.185523
O O20 0.378203 0.250000 0.598592
#
# Coordination Sequence:
#
# PCOD9537593 Si02
#       7
#    16  16   8  16  16  16  16
#     4   9  17  33  56  81 109 139 168 209 268 324
#     4   9  18  33  51  71 100 139 178 214 258 309
#     4  10  20  34  54  80 106 134 166 208 261 314
#     4   9  16  27  45  68  93 124 164 211 261 310
#     4  11  23  38  55  76 105 143 182 219 261 312
#     4   9  17  31  54  82 108 136 176 224 266 309
#     4  10  20  37  58  79 106 139 174 212 262 318
#
# _framework density 20.794350000000001
#
# number of rings (size 3 to 8) (size 9 to 14) (size 15 to 20)
#    0.000    2.462    0.769    1.846    0.000    4.308 
#    0.000    3.846    0.000    8.308    0.000    0.000 
#    0.000    0.000    0.000    0.000    0.000    0.000 
#
# Total GULP energy -289512.220659 kJ/mol
# GULP energy per Si atom -5567.542705 kJ/mol
# Density = 2.074702 g / cm^3
# Si number density = 20.794350 Si / 1000 Ang^3
#
#
#
# Elastic Constant Matrix: (Units=GPa)
#
#
# Indices 1 2 3 4 5 6 
#
# 1 72.2639 -4.7715 55.8778 0.0000 0.0000 0.0000
# 2 -4.7715 32.5979 0.8566 0.0000 0.0000 0.0000
# 3 55.8778 0.8566 120.0748 0.0000 0.0000 0.0000
# 4 0.0000 0.0000 0.0000 20.6725 0.0000 0.0000
# 5 0.0000 0.0000 0.0000 0.0000 43.8754 0.0000
# 6 0.0000 0.0000 0.0000 0.0000 0.0000 3.7066
#
#
#
# Elastic Compliance Matrix: (Units=1/GPa)
#
#
# Indices 1 2 3 4 5 6 
#
# 1 0.022007 0.003491 -0.010266 0.000000 0.000000 0.000000
# 2 0.003491 0.031236 -0.001847 0.000000 0.000000 0.000000
# 3 -0.010266 -0.001847 0.013119 0.000000 0.000000 0.000000
# 4 0.000000 0.000000 0.000000 0.048373 0.000000 0.000000
# 5 0.000000 0.000000 0.000000 0.000000 0.022792 0.000000
# 6 0.000000 0.000000 0.000000 0.000000 0.000000 0.269787
#
#
# Mechanical properties :
#
#
# Convention : Reuss Voigt Hill
#
# Bulk Modulus (GPa) = 20.35952 36.54027 28.44990
# Shear Modulus (GPa) = 11.33964 25.18248 18.26106
#
# Velocity S-wave (km/s) = 2.33775 3.48375 2.96661
# Velocity P-wave (km/s) = 4.13508 5.81312 5.04437
#
# Compressibility (1/GPa) = 0.04911707
#
# Stress axis : x y z
#
# Youngs Moduli (GPa) = 45.44064 32.01397 76.22740
#
# Poissons Ratio (x) = -0.11176 0.78254
# Poissons Ratio (y) = -0.15863 0.14082
# Poissons Ratio (z) = 0.46649 0.05914
#
# Static dielectric constant tensor:
#      x y z
#    x 1.779000 0.000000 0.000000 
#    y 0.000000 1.777640 0.000000 
#    z 0.000000 0.000000 1.752070 
# 
# From -- ./inp_files/73386.got.cif
#   From: 2010.05.17/outbox.cif.g08.bks.cpg/sg74_37_cif.got.tgz:73386.got - 2010.06.03 17:57:02.
