data_PCOD9537431
_publ_section_title
;
Structure prediction by ZEFSAII (Michael W. Deem and Ramdas Pophale) SiO2 
 PCOD9537431
Probable space group: I M M A
;
_chemical_formula_sum "Si O2"
_cell_formula_units_Z 112
_cell_length_a 13.655671
_cell_length_b 26.728564
_cell_length_c 15.509551
_cell_angle_alpha 90.000000
_cell_angle_beta 90.000000
_cell_angle_gamma 90.000000
_cell_volume 5660.931464
_symmetry_space_group_name_H-M "I M M A"
_symmetry_group_IT_number 74
_symmetry_cell_setting 'orthorhombic'
loop_
_space_group_symop_operation_xyz
x,y,z
-x,1/2-y,z
x,-y,-z
-x,1/2+y,-z
-x,-y,-z
x,1/2+y,-z
-x,y,z
x,1/2-y,z
1/2+x,1/2+y,1/2+z
1/2-x,-y,1/2+z
1/2+x,1/2-y,1/2-z
1/2-x,y,1/2-z
1/2-x,1/2-y,1/2-z
1/2+x,y,1/2-z
1/2-x,1/2+y,1/2+z
1/2+x,-y,1/2+z
loop_
_atom_site_type_symbol
_atom_site_label
_atom_site_fract_x
_atom_site_fract_y
_atom_site_fract_z
Si Si1 0.606219 0.426976 0.333526
Si Si2 0.326071 0.437318 0.147512
Si Si3 0.114929 0.046050 0.692526
Si Si4 0.111463 0.545040 0.115296
Si Si5 0.202378 0.907671 0.469182
Si Si6 0.246967 0.808654 0.401277
Si Si7 0.606089 0.310077 0.736523
O O1 0.500000 0.406524 0.362965
O O2 0.611166 0.420152 0.229318
O O3 0.717832 0.412081 0.355672
O O4 0.607059 0.485147 0.365572
O O5 0.323310 0.496462 0.168714
O O6 0.357491 0.429126 0.049822
O O7 0.136753 0.065363 0.788537
O O8 0.140264 0.083588 0.617178
O O9 0.000000 0.032298 0.692465
O O10 0.194503 0.563039 0.048942
O O11 0.000000 0.559341 0.090370
O O12 0.222116 0.848489 0.474164
O O13 0.249000 0.750000 0.425634
O O14 0.346783 0.825586 0.353989
O O15 0.172029 0.814552 0.321124
O O16 0.500000 0.332883 0.750177
O O17 0.598890 0.250000 0.726775
#
# Coordination Sequence:
#
# PCOD9537431 Si02
#       7
#    16  16  16  16  16  16  16
#     4   9  18  36  56  69  96 135 165 197 249 304
#     4  10  20  34  51  75 100 130 165 205 249 298
#     4  10  21  35  49  69 103 140 169 199 241 291
#     4   9  19  33  49  70  99 137 170 198 235 287
#     4  12  22  31  50  77 103 128 169 213 249 294
#     4   9  20  34  47  68  98 131 167 210 250 287
#     4   8  15  31  51  66  88 129 172 203 238 285
#
# _framework density 19.78473
#
# number of rings (size 3 to 8) (size 9 to 14) (size 15 to 20)
#    0.000    2.429    1.429    3.000    4.000    3.429 
#    0.000    1.429    0.000    0.000    0.000    2.000 
#    0.000    1.143    0.000    0.000    0.000    0.000 
#
# Total GULP energy -311883.770349 kJ/mol
# GULP energy per Si atom -5569.353042 kJ/mol
# Density = 1.973970 g / cm^3
# Si number density = 19.784730 Si / 1000 Ang^3
#
#
#
# Elastic Constant Matrix: (Units=GPa)
#
#
# Indices 1 2 3 4 5 6 
#
# 1 78.8332 -2.3701 -5.2619 0.0000 0.0000 0.0000
# 2 -2.3701 50.7351 28.0727 0.0001 0.0000 0.0000
# 3 -5.2619 28.0727 67.0034 0.0001 0.0000 0.0000
# 4 0.0000 0.0001 0.0001 14.9172 0.0000 0.0000
# 5 0.0000 0.0000 0.0000 0.0000 3.7001 0.0000
# 6 0.0000 0.0000 0.0000 0.0000 0.0000 9.0432
#
#
#
# Elastic Compliance Matrix: (Units=1/GPa)
#
#
# Indices 1 2 3 4 5 6 
#
# 1 0.012752 0.000054 0.000979 0.000000 0.000000 0.000000
# 2 0.000054 0.025659 -0.010746 0.000000 0.000000 0.000000
# 3 0.000979 -0.010746 0.019504 0.000000 0.000000 0.000000
# 4 0.000000 0.000000 0.000000 0.067037 0.000000 0.000000
# 5 0.000000 0.000000 0.000000 0.000000 0.270266 0.000000
# 6 0.000000 0.000000 0.000000 0.000000 0.000000 0.110581
#
#
# Mechanical properties :
#
#
# Convention : Reuss Voigt Hill
#
# Bulk Modulus (GPa) = 25.98203 26.38367 26.18285
# Shear Modulus (GPa) = 9.29276 17.27416 13.28346
#
# Velocity S-wave (km/s) = 2.16959 2.95804 2.59395
# Velocity P-wave (km/s) = 4.40875 5.00310 4.71530
#
# Compressibility (1/GPa) = 0.03848814
#
# Stress axis : x y z
#
# Youngs Moduli (GPa) = 78.41926 38.97305 51.27208
#
# Poissons Ratio (x) = -0.00211 -0.05018
# Poissons Ratio (y) = -0.00425 0.55097
# Poissons Ratio (z) = -0.07675 0.41881
#
# Static dielectric constant tensor:
#      x y z
#    x 1.818340 0.000000 0.000000 
#    y 0.000000 1.707040 0.000000 
#    z 0.000000 0.000000 1.722960 
# 
# From -- ./inp_files/33165.got.cif
#   From: 2010.05.17/outbox.cif.g08.bks.cpg/sg74_17_cif.got.tgz:33165.got - 2010.06.03 17:57:02.
