data_PCOD9537864
_publ_section_title
;
Structure prediction by ZEFSAII (Michael W. Deem and Ramdas Pophale) SiO2 
 PCOD9537864
Probable space group: I M M A
;
_chemical_formula_sum "Si O2"
_cell_formula_units_Z 100
_cell_length_a 16.277139
_cell_length_b 20.508795
_cell_length_c 17.284428
_cell_angle_alpha 90.000000
_cell_angle_beta 90.000000
_cell_angle_gamma 90.000000
_cell_volume 5769.965655
_symmetry_space_group_name_H-M "I M M A"
_symmetry_group_IT_number 74
_symmetry_cell_setting 'orthorhombic'
loop_
_space_group_symop_operation_xyz
x,y,z
-x,1/2-y,z
x,-y,-z
-x,1/2+y,-z
-x,-y,-z
x,1/2+y,-z
-x,y,z
x,1/2-y,z
1/2+x,1/2+y,1/2+z
1/2-x,-y,1/2+z
1/2+x,1/2-y,1/2-z
1/2-x,y,1/2-z
1/2-x,1/2-y,1/2-z
1/2+x,y,1/2-z
1/2-x,1/2+y,1/2+z
1/2+x,-y,1/2+z
loop_
_atom_site_type_symbol
_atom_site_label
_atom_site_fract_x
_atom_site_fract_y
_atom_site_fract_z
Si Si1 0.092586 0.479904 0.831783
Si Si2 0.906589 0.011119 0.649520
Si Si3 0.134988 0.858086 0.662943
Si Si4 0.743885 0.057019 0.563527
Si Si5 0.000000 0.250000 0.374811
Si Si6 0.221723 0.675439 0.951081
Si Si7 0.594619 0.636373 0.664158
O O1 0.098805 0.468765 0.739722
O O2 0.168869 0.448952 0.876285
O O3 0.098560 0.558038 0.843957
O O4 0.000000 0.459935 0.856993
O O5 0.832623 0.044109 0.602491
O O6 0.000000 0.024986 0.622075
O O7 0.893011 0.932818 0.649571
O O8 0.070853 0.807086 0.629051
O O9 0.219257 0.846919 0.618732
O O10 0.138878 0.846596 0.755166
O O11 0.737734 0.125760 0.520312
O O12 0.732416 0.000000 0.500000
O O13 0.237308 0.750000 0.972203
O O14 0.132702 0.667561 0.911972
O O15 0.500000 0.655448 0.675610
#
# Coordination Sequence:
#
# PCOD9537864 Si02
#       7
#    16  16  16  16   4  16  16
#     4   9  19  37  63  85 107 139 185 240 277 320
#     4  10  20  38  60  86 108 138 191 236 274 317
#     4  11  20  35  53  80 112 151 188 217 257 324
#     4  12  22  37  57  84 113 149 186 228 280 329
#     4  12  20  32  54  78 118 158 188 206 256 328
#     4  12  26  37  50  78 118 153 184 223 278 335
#     4  10  20  35  55  81 110 148 192 223 257 320
#
# _framework density 17.331125
#
# number of rings (size 3 to 8) (size 9 to 14) (size 15 to 20)
#    0.000    1.280    5.600    1.920    1.120    4.800 
#    1.440    0.000    0.000    1.920    0.000    2.240 
#    0.000    0.000    0.000    0.000    0.000    0.000 
#
# Total GULP energy -278599.927385 kJ/mol
# GULP energy per Si atom -5571.998548 kJ/mol
# Density = 1.729168 g / cm^3
# Si number density = 17.331125 Si / 1000 Ang^3
#
#
#
# Elastic Constant Matrix: (Units=GPa)
#
#
# Indices 1 2 3 4 5 6 
#
# 1 83.0609 46.1997 44.5472 0.0000 0.0000 0.0000
# 2 46.1997 77.1721 47.7259 0.0000 0.0000 0.0000
# 3 44.5472 47.7259 58.8395 0.0000 0.0000 0.0000
# 4 0.0000 0.0000 0.0000 10.3984 0.0000 0.0000
# 5 0.0000 0.0000 0.0000 0.0000 -23.5068 0.0000
# 6 0.0000 0.0000 0.0000 0.0000 0.0000 18.0189
#
#
#
# Elastic Compliance Matrix: (Units=1/GPa)
#
#
# Indices 1 2 3 4 5 6 
#
# 1 0.021413 -0.005605 -0.011666 0.000000 0.000000 0.000000
# 2 -0.005605 0.027468 -0.018036 0.000000 0.000000 0.000000
# 3 -0.011666 -0.018036 0.040457 0.000000 0.000000 0.000000
# 4 0.000000 0.000000 0.000000 0.096168 0.000000 0.000000
# 5 0.000000 0.000000 0.000000 0.000000 -0.042541 0.000000
# 6 0.000000 0.000000 0.000000 0.000000 0.000000 0.055497
#
#
# Mechanical properties :
#
#
# Convention : Reuss Voigt Hill
#
# Bulk Modulus (GPa) = 53.40606 55.11311 54.25959
# Shear Modulus (GPa) = 18.16080 6.35541 12.25811
#
# Velocity S-wave (km/s) = 3.24060 1.91703 2.66237
# Velocity P-wave (km/s) = 6.69955 6.06376 6.38957
#
# Compressibility (1/GPa) = 0.01872447
#
# Stress axis : x y z
#
# Youngs Moduli (GPa) = 46.69955 36.40655 24.71750
#
# Poissons Ratio (x) = 0.20405 0.28835
# Poissons Ratio (y) = 0.26174 0.44581
# Poissons Ratio (z) = 0.54479 0.65664
#
# Static dielectric constant tensor:
#      x y z
#    x 1.709690 0.000000 0.000000 
#    y 0.000000 1.564660 0.000000 
#    z 0.000000 0.000000 1.583170 
# 
# From -- ./inp_files/42981.got.cif
#   From: 2010.05.17/outbox.cif.g08.bks.cpg/sg74_22_cif.got.tgz:42981.got - 2010.06.03 17:57:02.
