data_PCOD9537807
_publ_section_title
;
Structure prediction by ZEFSAII (Michael W. Deem and Ramdas Pophale) SiO2 
 PCOD9537807
Probable space group: I M M A
;
_chemical_formula_sum "Si O2"
_cell_formula_units_Z 88
_cell_length_a 31.839685
_cell_length_b 8.617086
_cell_length_c 18.119393
_cell_angle_alpha 90.000000
_cell_angle_beta 90.000000
_cell_angle_gamma 90.000000
_cell_volume 4971.332766
_symmetry_space_group_name_H-M "I M M A"
_symmetry_group_IT_number 74
_symmetry_cell_setting 'orthorhombic'
loop_
_space_group_symop_operation_xyz
x,y,z
-x,1/2-y,z
x,-y,-z
-x,1/2+y,-z
-x,-y,-z
x,1/2+y,-z
-x,y,z
x,1/2-y,z
1/2+x,1/2+y,1/2+z
1/2-x,-y,1/2+z
1/2+x,1/2-y,1/2-z
1/2-x,y,1/2-z
1/2-x,1/2-y,1/2-z
1/2+x,y,1/2-z
1/2-x,1/2+y,1/2+z
1/2+x,-y,1/2+z
loop_
_atom_site_type_symbol
_atom_site_label
_atom_site_fract_x
_atom_site_fract_y
_atom_site_fract_z
Si Si1 0.047837 0.561674 0.916904
Si Si2 0.797184 0.561927 0.731933
Si Si3 0.881287 0.066251 0.196789
Si Si4 0.086306 0.567629 0.636574
Si Si5 0.500000 0.434783 0.917478
Si Si6 0.330218 0.433299 0.921920
O O1 0.048802 0.750000 0.917480
O O2 0.085690 0.504856 0.863832
O O3 0.000000 0.517278 0.892861
O O4 0.053505 0.500000 0.000000
O O5 0.798768 0.750000 0.732858
O O6 0.750000 0.512029 0.750000
O O7 0.833737 0.505678 0.788767
O O8 0.808469 0.507633 0.649660
O O9 0.876948 0.250000 0.180587
O O10 0.902123 0.051461 0.277413
O O11 0.088163 0.750000 0.617838
O O12 0.121000 0.478274 0.589063
O O13 0.041055 0.499445 0.621934
O O14 0.500000 0.250000 0.918560
O O15 0.500000 0.500000 0.000000
O O16 0.325002 0.250000 0.920755
O O17 0.315265 0.500000 0.000000
#
# Coordination Sequence:
#
# PCOD9537807 Si02
#       6
#    16  16  16  16   8  16
#     4   9  17  30  49  72 100 133 170 210 254 308
#     4   9  18  35  57  79 105 137 174 219 270 324
#     4   8  16  31  53  76  98 131 173 209 254 314
#     4  10  20  35  54  75 100 135 177 217 260 309
#     4  12  24  36  48  70 103 138 173 212 257 302
#     4  11  21  35  55  78 106 137 175 218 264 317
#
# _framework density 17.70149
#
# number of rings (size 3 to 8) (size 9 to 14) (size 15 to 20)
#    0.000    2.364    0.000    4.636    1.273    0.364 
#    0.000    5.455    0.000    2.182    0.000    0.000 
#    0.000    0.000    0.000    0.000    0.000    0.000 
#
# Total GULP energy -245291.499155 kJ/mol
# GULP energy per Si atom -5574.806799 kJ/mol
# Density = 1.766120 g / cm^3
# Si number density = 17.701490 Si / 1000 Ang^3
#
#
#
# Elastic Constant Matrix: (Units=GPa)
#
#
# Indices 1 2 3 4 5 6 
#
# 1 162.5266 13.6506 62.3003 0.0000 0.0000 0.0000
# 2 13.6506 5.5373 6.2613 0.0000 0.0000 0.0000
# 3 62.3003 6.2613 72.1213 0.0000 0.0000 0.0000
# 4 0.0000 0.0000 0.0000 26.9511 0.0000 0.0000
# 5 0.0000 0.0000 0.0000 0.0000 15.2201 0.0000
# 6 0.0000 0.0000 0.0000 0.0000 0.0000 18.3249
#
#
#
# Elastic Compliance Matrix: (Units=1/GPa)
#
#
# Indices 1 2 3 4 5 6 
#
# 1 0.010515 -0.017354 -0.007576 0.000000 0.000000 0.000000
# 2 -0.017354 0.228894 -0.004881 0.000000 0.000000 0.000000
# 3 -0.007576 -0.004881 0.020834 0.000000 0.000000 0.000000
# 4 0.000000 0.000000 0.000000 0.037104 0.000000 0.000000
# 5 0.000000 0.000000 0.000000 0.000000 0.065703 0.000000
# 6 0.000000 0.000000 0.000000 0.000000 0.000000 0.054571
#
#
# Mechanical properties :
#
#
# Convention : Reuss Voigt Hill
#
# Bulk Modulus (GPa) = 4.98453 44.95663 24.97058
# Shear Modulus (GPa) = 9.18923 22.63075 15.90999
#
# Velocity S-wave (km/s) = 2.28090 3.57944 3.00124
# Velocity P-wave (km/s) = 3.12388 6.52192 5.11342
#
# Compressibility (1/GPa) = 0.20062082
#
# Stress axis : x y z
#
# Youngs Moduli (GPa) = 95.10668 4.36883 47.99912
#
# Poissons Ratio (x) = 0.07582 0.36365
# Poissons Ratio (y) = 1.65048 0.23427
# Poissons Ratio (z) = 0.72054 0.02132
#
# Static dielectric constant tensor:
#      x y z
#    x 1.622020 0.000000 0.000000 
#    y 0.000000 1.608310 0.000000 
#    z 0.000000 0.000000 1.588990 
# 
# From -- ./inp_files/47007.got.cif
#   From: 2010.05.17/outbox.cif.g08.bks.cpg/sg74_24_cif.got.tgz:47007.got - 2010.06.03 17:57:02.
