data_PCOD9537652
_publ_section_title
;
Structure prediction by ZEFSAII (Michael W. Deem and Ramdas Pophale) SiO2 
 PCOD9537652
Probable space group: I M M A
;
_chemical_formula_sum "Si O2"
_cell_formula_units_Z 96
_cell_length_a 15.907704
_cell_length_b 29.149673
_cell_length_c 10.421759
_cell_angle_alpha 90.000000
_cell_angle_beta 90.000000
_cell_angle_gamma 90.000000
_cell_volume 4832.615189
_symmetry_space_group_name_H-M "I M M A"
_symmetry_group_IT_number 74
_symmetry_cell_setting 'orthorhombic'
loop_
_space_group_symop_operation_xyz
x,y,z
-x,1/2-y,z
x,-y,-z
-x,1/2+y,-z
-x,-y,-z
x,1/2+y,-z
-x,y,z
x,1/2-y,z
1/2+x,1/2+y,1/2+z
1/2-x,-y,1/2+z
1/2+x,1/2-y,1/2-z
1/2-x,y,1/2-z
1/2-x,1/2-y,1/2-z
1/2+x,y,1/2-z
1/2-x,1/2+y,1/2+z
1/2+x,-y,1/2+z
loop_
_atom_site_type_symbol
_atom_site_label
_atom_site_fract_x
_atom_site_fract_y
_atom_site_fract_z
Si Si1 0.370473 0.447276 0.010699
Si Si2 0.903801 0.105347 0.747834
Si Si3 0.897399 0.301580 0.638069
Si Si4 0.831994 0.052625 0.983850
Si Si5 0.149910 0.103694 0.235299
Si Si6 0.398652 0.801317 0.840926
O O1 0.391511 0.424070 0.146768
O O2 0.398000 0.500000 0.000000
O O3 0.403475 0.417882 0.892049
O O4 0.268956 0.446955 0.998223
O O5 0.868590 0.156668 0.726783
O O6 0.854091 0.074205 0.847348
O O7 0.000000 0.108525 0.793349
O O8 0.872161 0.250000 0.675823
O O9 0.871900 0.309231 0.489383
O O10 0.000000 0.302889 0.638820
O O11 0.871764 0.082881 0.097623
O O12 0.859775 0.000000 0.000000
O O13 0.250000 0.097460 0.250000
O O14 0.131172 0.157184 0.253456
O O15 0.500000 0.801531 0.840883
O O16 0.371013 0.750000 0.803034
#
# Coordination Sequence:
#
# PCOD9537652 Si02
#       6
#    16  16  16  16  16  16
#     4  10  20  37  59  78 102 143 192 227 256 316
#     4  11  21  34  56  85 110 139 178 225 274 312
#     4   8  15  30  53  79 105 136 174 215 265 320
#     4  10  22  39  55  75 111 153 180 211 273 332
#     4  10  20  34  55  82 106 140 186 227 265 307
#     4   9  17  32  55  79 105 140 178 220 272 323
#
# _framework density 19.865020000000001
#
# number of rings (size 3 to 8) (size 9 to 14) (size 15 to 20)
#    0.000    2.333    1.667    2.500    0.000    4.333 
#    0.000    2.500    0.000    5.000    0.000    0.000 
#    0.000    0.000    0.000    0.000    0.000    0.000 
#
# Total GULP energy -267918.029062 kJ/mol
# GULP energy per Si atom -5581.625605 kJ/mol
# Density = 1.981981 g / cm^3
# Si number density = 19.865020 Si / 1000 Ang^3
#
#
#
# Elastic Constant Matrix: (Units=GPa)
#
#
# Indices 1 2 3 4 5 6 
#
# 1 22.1463 13.9527 12.4505 0.0000 0.0000 0.0000
# 2 13.9527 157.6246 48.4355 0.0001 0.0000 -0.0001
# 3 12.4505 48.4355 81.5899 0.0001 0.0002 -0.0001
# 4 0.0000 0.0001 0.0001 37.0639 0.0001 -0.0001
# 5 0.0000 0.0000 0.0002 0.0001 10.0093 0.0000
# 6 0.0000 -0.0001 -0.0001 -0.0001 0.0000 8.1123
#
#
#
# Elastic Compliance Matrix: (Units=1/GPa)
#
#
# Indices 1 2 3 4 5 6 
#
# 1 0.050220 -0.002557 -0.006146 0.000000 0.000000 0.000000
# 2 -0.002557 0.007890 -0.004294 0.000000 0.000000 0.000000
# 3 -0.006146 -0.004294 0.015743 0.000000 0.000000 0.000000
# 4 0.000000 0.000000 0.000000 0.026980 0.000000 0.000000
# 5 0.000000 0.000000 0.000000 0.000000 0.099907 0.000000
# 6 0.000000 0.000000 0.000000 0.000000 0.000000 0.123270
#
#
# Mechanical properties :
#
#
# Convention : Reuss Voigt Hill
#
# Bulk Modulus (GPa) = 20.89388 45.67091 33.28239
# Shear Modulus (GPa) = 13.66284 23.47192 18.56738
#
# Velocity S-wave (km/s) = 2.62541 3.44113 3.06057
# Velocity P-wave (km/s) = 4.44197 6.23129 5.41111
#
# Compressibility (1/GPa) = 0.04786091
#
# Stress axis : x y z
#
# Youngs Moduli (GPa) = 19.91228 126.74461 63.51991
#
# Poissons Ratio (x) = 0.32409 0.39037
# Poissons Ratio (y) = 0.05092 0.27273
# Poissons Ratio (z) = 0.12237 0.54419
#
# Static dielectric constant tensor:
#      x y z
#    x 1.719680 0.000000 0.000000 
#    y 0.000000 1.709290 0.000000 
#    z 0.000000 0.000000 1.669990 
# 
# From -- ./inp_files/12633.got.cif
#   From: 2010.05.17/outbox.cif.g08.bks.cpg/sg74_7_cif.got.tgz:12633.got - 2010.06.03 17:57:02.
