data_PCOD9537343
_publ_section_title
;
Structure prediction by ZEFSAII (Michael W. Deem and Ramdas Pophale) SiO2 
 PCOD9537343
Probable space group: I M M A
;
_chemical_formula_sum "Si O2"
_cell_formula_units_Z 56
_cell_length_a 13.230132
_cell_length_b 7.746692
_cell_length_c 24.008201
_cell_angle_alpha 90.000000
_cell_angle_beta 90.000000
_cell_angle_gamma 90.000000
_cell_volume 2460.594704
_symmetry_space_group_name_H-M "I M M A"
_symmetry_group_IT_number 74
_symmetry_cell_setting 'orthorhombic'
loop_
_space_group_symop_operation_xyz
x,y,z
-x,1/2-y,z
x,-y,-z
-x,1/2+y,-z
-x,-y,-z
x,1/2+y,-z
-x,y,z
x,1/2-y,z
1/2+x,1/2+y,1/2+z
1/2-x,-y,1/2+z
1/2+x,1/2-y,1/2-z
1/2-x,y,1/2-z
1/2-x,1/2-y,1/2-z
1/2+x,y,1/2-z
1/2-x,1/2+y,1/2+z
1/2+x,-y,1/2+z
loop_
_atom_site_type_symbol
_atom_site_label
_atom_site_fract_x
_atom_site_fract_y
_atom_site_fract_z
Si Si1 0.389647 0.950257 0.714166
Si Si2 0.822091 0.945771 0.330048
Si Si3 0.277005 0.541594 0.435215
Si Si4 0.000000 0.543009 0.065686
O O1 0.500000 0.015469 0.696739
O O2 0.379044 0.750000 0.698480
O O3 0.294605 0.053713 0.691278
O O4 0.381170 0.958543 0.781443
O O5 0.860405 0.750000 0.332281
O O6 0.808462 0.019939 0.392085
O O7 0.261048 0.500000 0.500000
O O8 0.278732 0.750000 0.430522
O O9 0.389201 0.476393 0.416886
O O10 0.000000 0.750000 0.073188
O O11 0.000000 0.500000 0.000000
#
# Coordination Sequence:
#
# PCOD9537343 Si02
#       4
#    16  16  16   8
#     4  10  21  36  53  74 101 134 170 210 255 301
#     4  10  20  33  53  79 103 132 169 209 253 300
#     4   9  18  30  47  71 100 133 165 200 245 295
#     4   8  14  26  40  60  92 126 158 190 225 278
#
# _framework density 22.758724999999998
#
# number of rings (size 3 to 8) (size 9 to 14) (size 15 to 20)
#    0.000    2.571    0.000    3.429    2.000    4.571 
#    0.000    0.000    0.000    0.857    0.000    0.000 
#    0.000    0.000    0.000    0.000    0.000    0.000 
#
# Total GULP energy -156223.344513 kJ/mol
# GULP energy per Si atom -5579.405161 kJ/mol
# Density = 2.270693 g / cm^3
# Si number density = 22.758725 Si / 1000 Ang^3
#
#
#
# Elastic Constant Matrix: (Units=GPa)
#
#
# Indices 1 2 3 4 5 6 
#
# 1 40.3426 -0.4387 -1.5999 0.0000 0.0000 0.0000
# 2 -0.4387 64.0060 3.7898 0.0000 0.0000 0.0000
# 3 -1.5999 3.7898 109.0942 0.0000 0.0000 0.0000
# 4 0.0000 0.0000 0.0000 29.8941 0.0000 0.0000
# 5 0.0000 0.0000 0.0000 0.0000 33.8835 0.0000
# 6 0.0000 0.0000 0.0000 0.0000 0.0000 23.5052
#
#
#
# Elastic Compliance Matrix: (Units=1/GPa)
#
#
# Indices 1 2 3 4 5 6 
#
# 1 0.024804 0.000149 0.000359 0.000000 0.000000 0.000000
# 2 0.000149 0.015657 -0.000542 0.000000 0.000000 0.000000
# 3 0.000359 -0.000542 0.009190 0.000000 0.000000 0.000000
# 4 0.000000 0.000000 0.000000 0.033451 0.000000 0.000000
# 5 0.000000 0.000000 0.000000 0.000000 0.029513 0.000000
# 6 0.000000 0.000000 0.000000 0.000000 0.000000 0.042544
#
#
# Mechanical properties :
#
#
# Convention : Reuss Voigt Hill
#
# Bulk Modulus (GPa) = 20.16866 24.10503 22.13684
# Shear Modulus (GPa) = 29.11128 31.56933 30.34031
#
# Velocity S-wave (km/s) = 3.58037 3.72846 3.65516
# Velocity P-wave (km/s) = 5.09639 5.39905 5.24990
#
# Compressibility (1/GPa) = 0.04958188
#
# Stress axis : x y z
#
# Youngs Moduli (GPa) = 40.31688 63.87073 108.80842
#
# Poissons Ratio (x) = -0.00950 -0.03902
# Poissons Ratio (y) = -0.00600 0.05894
# Poissons Ratio (z) = -0.01446 0.03460
#
# Static dielectric constant tensor:
#      x y z
#    x 1.848440 0.000000 0.000000 
#    y 0.000000 1.799890 0.000000 
#    z 0.000000 0.000000 1.892740 
# 
# From -- ./inp_files/56283.got.cif
#   From: 2010.05.17/outbox.cif.g08.bks.cpg/sg74_29_cif.got.tgz:56283.got - 2010.06.03 17:57:02.
