data_PCOD9537501
_publ_section_title
;
Structure prediction by ZEFSAII (Michael W. Deem and Ramdas Pophale) SiO2 
 PCOD9537501
Probable space group: I M M A
;
_chemical_formula_sum "Si O2"
_cell_formula_units_Z 96
_cell_length_a 24.927893
_cell_length_b 7.541137
_cell_length_c 22.584748
_cell_angle_alpha 90.000000
_cell_angle_beta 90.000000
_cell_angle_gamma 90.000000
_cell_volume 4245.586089
_symmetry_space_group_name_H-M "I M M A"
_symmetry_group_IT_number 74
_symmetry_cell_setting 'orthorhombic'
loop_
_space_group_symop_operation_xyz
x,y,z
-x,1/2-y,z
x,-y,-z
-x,1/2+y,-z
-x,-y,-z
x,1/2+y,-z
-x,y,z
x,1/2-y,z
1/2+x,1/2+y,1/2+z
1/2-x,-y,1/2+z
1/2+x,1/2-y,1/2-z
1/2-x,y,1/2-z
1/2-x,1/2-y,1/2-z
1/2+x,y,1/2-z
1/2-x,1/2+y,1/2+z
1/2+x,-y,1/2+z
loop_
_atom_site_type_symbol
_atom_site_label
_atom_site_fract_x
_atom_site_fract_y
_atom_site_fract_z
Si Si1 0.603031 0.960561 0.565865
Si Si2 0.941494 0.954759 0.189780
Si Si3 0.215651 0.033554 0.113741
Si Si4 0.671067 0.547721 0.737824
Si Si5 0.558959 0.962596 0.930087
Si Si6 0.331367 0.967654 0.870792
O O1 0.602369 0.750000 0.574856
O O2 0.664878 0.023600 0.574550
O O3 0.584195 0.000000 0.500000
O O4 0.568535 0.038547 0.619236
O O5 0.939691 0.750000 0.208347
O O6 0.000000 0.028810 0.203794
O O7 0.891255 0.047930 0.219552
O O8 0.214713 0.250000 0.114360
O O9 0.201875 0.971927 0.180920
O O10 0.275870 0.980289 0.096945
O O11 0.689789 0.750000 0.743039
O O12 0.674831 0.470049 0.803003
O O13 0.500000 0.029473 0.910133
O O14 0.558333 0.750000 0.922214
O O15 0.612548 0.030009 0.898115
O O16 0.563242 0.000000 0.000000
O O17 0.333216 0.750000 0.870643
#
# Coordination Sequence:
#
# PCOD9537501 Si02
#       6
#    16  16  16  16  16  16
#     4  10  20  34  53  75 100 131 167 208 251 295
#     4  10  21  36  52  71  99 134 168 204 248 297
#     4   8  15  28  47  73 101 128 158 194 240 289
#     4   9  17  30  51  76 100 127 160 201 246 291
#     4   9  18  32  48  67  93 125 160 199 241 281
#     4   9  16  28  50  76  99 127 165 202 236 288
#
# _framework density 22.611719999999998
#
# number of rings (size 3 to 8) (size 9 to 14) (size 15 to 20)
#    0.000    2.833    0.000    2.500    0.000    5.000 
#    0.000    2.500    0.000   15.000    0.000    0.000 
#    0.000    0.000    0.000    0.000    0.000    0.000 
#
# Total GULP energy -267862.559120 kJ/mol
# GULP energy per Si atom -5580.469982 kJ/mol
# Density = 2.256025 g / cm^3
# Si number density = 22.611720 Si / 1000 Ang^3
#
#
#
# Elastic Constant Matrix: (Units=GPa)
#
#
# Indices 1 2 3 4 5 6 
#
# 1 156.8342 8.5681 -6.3525 0.0000 0.0000 0.0000
# 2 8.5681 63.2051 -6.9090 0.0000 0.0000 0.0000
# 3 -6.3525 -6.9090 12.5023 0.0000 0.0000 0.0000
# 4 0.0000 0.0000 0.0000 5.5980 0.0000 0.0000
# 5 0.0000 0.0000 0.0000 0.0000 0.9310 0.0000
# 6 0.0000 0.0000 0.0000 0.0000 0.0000 -211.0955
#
#
#
# Elastic Compliance Matrix: (Units=1/GPa)
#
#
# Indices 1 2 3 4 5 6 
#
# 1 0.006528 -0.000556 0.003010 0.000000 0.000000 0.000000
# 2 -0.000556 0.016886 0.009049 0.000000 0.000000 0.000000
# 3 0.003010 0.009049 0.086515 0.000000 0.000000 0.000000
# 4 0.000000 0.000000 0.000000 0.178635 0.000000 0.000000
# 5 0.000000 0.000000 0.000000 0.000000 1.074149 0.000000
# 6 0.000000 0.000000 0.000000 0.000000 0.000000 -0.004737
#
#
# Mechanical properties :
#
#
# Convention : Reuss Voigt Hill
#
# Bulk Modulus (GPa) = 7.52245 24.79497 16.15871
# Shear Modulus (GPa) = 3.62508 -25.09764 -10.73628
#
# Velocity S-wave (km/s) = 1.26754 -3.33519 -2.18138
# Velocity P-wave (km/s) = 2.34014 1.96010 0.90395
#
# Compressibility (1/GPa) = 0.13293533
#
# Stress axis : x y z
#
# Youngs Moduli (GPa) = 153.17577 59.22051 11.55869
#
# Poissons Ratio (x) = 0.03293 -0.03479
# Poissons Ratio (y) = 0.08516 -0.10459
# Poissons Ratio (z) = -0.46104 -0.53589
#
# Static dielectric constant tensor:
#      x y z
#    x 1.855580 0.000000 0.000000 
#    y 0.000000 1.871500 0.000000 
#    z 0.000000 0.000000 1.807350 
# 
# From -- ./inp_files/55097.got.cif
#   From: 2010.05.17/outbox.cif.g08.bks.cpg/sg74_28_cif.got.tgz:55097.got - 2010.06.03 17:57:02.
