data_PCOD9537181
_publ_section_title
;
Structure prediction by ZEFSAII (Michael W. Deem and Ramdas Pophale) SiO2 
 PCOD9537181
Probable space group: I M M A
;
_chemical_formula_sum "Si O2"
_cell_formula_units_Z 104
_cell_length_a 20.811369
_cell_length_b 9.108082
_cell_length_c 32.660051
_cell_angle_alpha 90.000000
_cell_angle_beta 90.000000
_cell_angle_gamma 90.000000
_cell_volume 6190.766732
_symmetry_space_group_name_H-M "I M M A"
_symmetry_group_IT_number 74
_symmetry_cell_setting 'orthorhombic'
loop_
_space_group_symop_operation_xyz
x,y,z
-x,1/2-y,z
x,-y,-z
-x,1/2+y,-z
-x,-y,-z
x,1/2+y,-z
-x,y,z
x,1/2-y,z
1/2+x,1/2+y,1/2+z
1/2-x,-y,1/2+z
1/2+x,1/2-y,1/2-z
1/2-x,y,1/2-z
1/2-x,1/2-y,1/2-z
1/2+x,y,1/2-z
1/2-x,1/2+y,1/2+z
1/2+x,-y,1/2+z
loop_
_atom_site_type_symbol
_atom_site_label
_atom_site_fract_x
_atom_site_fract_y
_atom_site_fract_z
Si Si1 0.174002 0.925711 0.661847
Si Si2 0.073616 0.925659 0.733005
Si Si3 0.313563 0.924105 0.631805
Si Si4 0.637077 0.074654 0.921833
Si Si5 0.758930 0.925927 0.958478
Si Si6 0.073338 0.074929 0.820973
Si Si7 0.000000 0.425105 0.543430
O O1 0.166526 0.750000 0.654066
O O2 0.130338 0.961957 0.701073
O O3 0.250819 0.953040 0.660495
O O4 0.148762 0.018596 0.623821
O O5 0.076100 0.750000 0.739530
O O6 0.000000 0.959914 0.718559
O O7 0.083525 0.006091 0.776018
O O8 0.326094 0.750000 0.633931
O O9 0.295645 0.958655 0.584433
O O10 0.374175 0.011348 0.648309
O O11 0.646183 0.250000 0.925161
O O12 0.688221 0.992312 0.950474
O O13 0.564916 0.034750 0.933569
O O14 0.756287 0.750000 0.962984
O O15 0.785047 0.000000 0.000000
O O16 0.078674 0.250000 0.818496
O O17 0.000000 0.037712 0.833279
O O18 0.000000 0.500000 0.500000
O O19 0.000000 0.250000 0.538434
#
# Coordination Sequence:
#
# PCOD9537181 Si02
#       7
#    16  16  16  16  16  16   8
#     4   9  19  34  51  76 104 133 175 219 259 303
#     4   9  18  33  53  75 102 140 181 215 255 308
#     4   9  19  35  54  77 106 136 168 208 255 308
#     4  10  20  33  48  69  99 135 174 216 263 308
#     4  10  20  35  55  79 104 132 168 209 254 305
#     4  10  21  36  54  78 105 133 169 212 257 306
#     4  10  22  34  44  64  92 128 174 218 262 308
#
# _framework density 16.799211
#
# number of rings (size 3 to 8) (size 9 to 14) (size 15 to 20)
#    0.000    2.462    0.000    2.769    1.077    7.692 
#    0.000    3.077    0.000    0.462    0.000    0.000 
#    0.000    0.000    0.000    0.000    0.000    0.000 
#
# Total GULP energy -289888.021381 kJ/mol
# GULP energy per Si atom -5574.769642 kJ/mol
# Density = 1.676098 g / cm^3
# Si number density = 16.799211 Si / 1000 Ang^3
#
#
#
# Elastic Constant Matrix: (Units=GPa)
#
#
# Indices 1 2 3 4 5 6 
#
# 1 121.3113 59.5564 79.1090 0.0000 0.0000 0.0000
# 2 59.5564 39.5232 49.8851 0.0000 0.0000 0.0000
# 3 79.1090 49.8851 92.8530 0.0000 0.0000 0.0000
# 4 0.0000 0.0000 0.0000 32.0554 0.0000 0.0000
# 5 0.0000 0.0000 0.0000 0.0000 14.8696 0.0000
# 6 0.0000 0.0000 0.0000 0.0000 0.0000 27.7312
#
#
#
# Elastic Compliance Matrix: (Units=1/GPa)
#
#
# Indices 1 2 3 4 5 6 
#
# 1 0.032208 -0.043176 -0.004244 0.000000 0.000000 0.000000
# 2 -0.043176 0.136481 -0.036539 0.000000 0.000000 0.000000
# 3 -0.004244 -0.036539 0.034016 0.000000 0.000000 0.000000
# 4 0.000000 0.000000 0.000000 0.031196 0.000000 0.000000
# 5 0.000000 0.000000 0.000000 0.000000 0.067251 0.000000
# 6 0.000000 0.000000 0.000000 0.000000 0.000000 0.036060
#
#
# Mechanical properties :
#
#
# Convention : Reuss Voigt Hill
#
# Bulk Modulus (GPa) = 28.74676 70.08762 49.41719
# Shear Modulus (GPa) = 9.67629 19.27370 14.47500
#
# Velocity S-wave (km/s) = 2.40260 3.39085 2.93857
# Velocity P-wave (km/s) = 4.98455 7.55922 6.40264
#
# Compressibility (1/GPa) = 0.03478653
#
# Stress axis : x y z
#
# Youngs Moduli (GPa) = 31.04844 7.32701 29.39791
#
# Poissons Ratio (x) = 0.31635 0.12476
# Poissons Ratio (y) = 1.34056 1.07417
# Poissons Ratio (z) = 0.13177 0.26772
#
# Static dielectric constant tensor:
#      x y z
#    x 1.559970 0.000000 0.000000 
#    y 0.000000 1.552770 0.000000 
#    z 0.000000 0.000000 1.556000 
# 
# From -- ./inp_files/73334.got.cif
#   From: 2010.05.17/outbox.cif.g08.bks.cpg/sg74_37_cif.got.tgz:73334.got - 2010.06.03 17:57:02.
