data_PCOD9537822
_publ_section_title
;
Structure prediction by ZEFSAII (Michael W. Deem and Ramdas Pophale) SiO2 
 PCOD9537822
Probable space group: I M M A
;
_chemical_formula_sum "Si O2"
_cell_formula_units_Z 72
_cell_length_a 13.491325
_cell_length_b 10.744194
_cell_length_c 27.329575
_cell_angle_alpha 90.000000
_cell_angle_beta 90.000000
_cell_angle_gamma 90.000000
_cell_volume 3961.515175
_symmetry_space_group_name_H-M "I M M A"
_symmetry_group_IT_number 74
_symmetry_cell_setting 'orthorhombic'
loop_
_space_group_symop_operation_xyz
x,y,z
-x,1/2-y,z
x,-y,-z
-x,1/2+y,-z
-x,-y,-z
x,1/2+y,-z
-x,y,z
x,1/2-y,z
1/2+x,1/2+y,1/2+z
1/2-x,-y,1/2+z
1/2+x,1/2-y,1/2-z
1/2-x,y,1/2-z
1/2-x,1/2-y,1/2-z
1/2+x,y,1/2-z
1/2-x,1/2+y,1/2+z
1/2+x,-y,1/2+z
loop_
_atom_site_type_symbol
_atom_site_label
_atom_site_fract_x
_atom_site_fract_y
_atom_site_fract_z
Si Si1 0.334792 0.890780 0.625546
Si Si2 0.822623 0.609806 0.364197
Si Si3 0.383629 0.118635 0.974921
Si Si4 0.500000 0.112145 0.290922
Si Si5 0.500000 0.606648 0.212530
Si Si6 0.000000 0.104438 0.042203
O O1 0.292450 0.750000 0.622202
O O2 0.406369 0.893782 0.672753
O O3 0.404610 0.910498 0.578009
O O4 0.255933 0.999520 0.632716
O O5 0.779243 0.750000 0.358324
O O6 0.876591 0.609250 0.416768
O O7 0.903433 0.592172 0.321849
O O8 0.500000 0.121892 0.988429
O O9 0.337757 0.250000 0.990358
O O10 0.335936 0.000000 0.000000
O O11 0.500000 0.250000 0.266990
O O12 0.500000 0.998366 0.253662
O O13 0.500000 0.750000 0.231152
O O14 0.000000 0.250000 0.024941
O O15 0.000000 0.000000 0.000000
#
# Coordination Sequence:
#
# PCOD9537822 Si02
#       6
#    16  16  16   8   8   8
#     4   9  20  38  57  78 108 141 175 219 267 317
#     4  10  20  35  54  78 109 143 177 217 266 316
#     4   9  17  31  49  69  99 138 174 208 248 298
#     4   9  20  40  59  76 102 138 176 219 273 322
#     4  10  21  37  56  78 108 141 176 220 266 318
#     4   9  19  37  59  82 110 143 178 219 266 314
#
# _framework density 18.174865
#
# number of rings (size 3 to 8) (size 9 to 14) (size 15 to 20)
#    0.000    2.667    1.111    1.333    0.000    5.333 
#    0.000   11.111    0.000    0.000    0.000    0.000 
#    0.000    0.000    0.000    0.000    0.000    0.000 
#
# Total GULP energy -200592.552563 kJ/mol
# GULP energy per Si atom -5572.015349 kJ/mol
# Density = 1.813350 g / cm^3
# Si number density = 18.174865 Si / 1000 Ang^3
#
#
#
# Elastic Constant Matrix: (Units=GPa)
#
#
# Indices 1 2 3 4 5 6 
#
# 1 57.6975 71.4011 5.2160 0.0000 0.0000 0.0000
# 2 71.4011 224.1143 87.8585 0.0000 0.0000 0.0000
# 3 5.2160 87.8585 83.6639 0.0000 0.0000 0.0000
# 4 0.0000 0.0000 0.0000 40.4224 0.0000 0.0000
# 5 0.0000 0.0000 0.0000 0.0000 -3.7968 0.0000
# 6 0.0000 0.0000 0.0000 0.0000 0.0000 236.9801
#
#
#
# Elastic Compliance Matrix: (Units=1/GPa)
#
#
# Indices 1 2 3 4 5 6 
#
# 1 0.040964 -0.020482 0.018955 0.000000 0.000000 0.000000
# 2 -0.020482 0.017825 -0.017442 0.000000 0.000000 0.000000
# 3 0.018955 -0.017442 0.029087 0.000000 0.000000 0.000000
# 4 0.000000 0.000000 0.000000 0.024739 0.000000 0.000000
# 5 0.000000 0.000000 0.000000 0.000000 -0.263380 0.000000
# 6 0.000000 0.000000 0.000000 0.000000 0.000000 0.004220
#
#
# Mechanical properties :
#
#
# Convention : Reuss Voigt Hill
#
# Bulk Modulus (GPa) = 20.02450 77.15856 48.59153
# Shear Modulus (GPa) = -54.37040 68.12114 6.87537
#
# Velocity S-wave (km/s) = -5.47541 6.12881 1.94708
# Velocity P-wave (km/s) = 5.37883 9.62438 5.64344
#
# Compressibility (1/GPa) = 0.04993882
#
# Stress axis : x y z
#
# Youngs Moduli (GPa) = 24.41146 56.10155 34.37976
#
# Poissons Ratio (x) = 1.14905 -0.65165
# Poissons Ratio (y) = 0.49999 0.59964
# Poissons Ratio (z) = -0.46271 0.97850
#
# Static dielectric constant tensor:
#      x y z
#    x 1.558250 0.000000 0.000000 
#    y 0.000000 1.694220 0.000000 
#    z 0.000000 0.000000 1.599820 
# 
# From -- ./inp_files/63661.got.cif
#   From: 2010.05.17/outbox.cif.g08.bks.cpg/sg74_32_cif.got.tgz:63661.got - 2010.06.03 17:57:02.
