data_PCOD9537011
_publ_section_title
;
Structure prediction by ZEFSAII (Michael W. Deem and Ramdas Pophale) SiO2 
 PCOD9537011
Probable space group: I M M A
;
_chemical_formula_sum "Si O2"
_cell_formula_units_Z 56
_cell_length_a 7.576739
_cell_length_b 7.274928
_cell_length_c 43.166176
_cell_angle_alpha 90.000000
_cell_angle_beta 90.000000
_cell_angle_gamma 90.000000
_cell_volume 2379.329580
_symmetry_space_group_name_H-M "I M M A"
_symmetry_group_IT_number 74
_symmetry_cell_setting 'orthorhombic'
loop_
_space_group_symop_operation_xyz
x,y,z
-x,1/2-y,z
x,-y,-z
-x,1/2+y,-z
-x,-y,-z
x,1/2+y,-z
-x,y,z
x,1/2-y,z
1/2+x,1/2+y,1/2+z
1/2-x,-y,1/2+z
1/2+x,1/2-y,1/2-z
1/2-x,y,1/2-z
1/2-x,1/2-y,1/2-z
1/2+x,y,1/2-z
1/2-x,1/2+y,1/2+z
1/2+x,-y,1/2+z
loop_
_atom_site_type_symbol
_atom_site_label
_atom_site_fract_x
_atom_site_fract_y
_atom_site_fract_z
Si Si1 0.796316 0.525573 0.917410
Si Si2 0.211983 0.538354 0.783523
Si Si3 0.000000 0.468807 0.463541
Si Si4 0.789857 0.528064 0.849797
O O1 0.798095 0.750000 0.916957
O O2 0.723937 0.468583 0.883471
O O3 0.000000 0.468557 0.920892
O O4 0.672300 0.463571 0.945234
O O5 0.277615 0.750000 0.781979
O O6 0.250000 0.454209 0.750000
O O7 0.277442 0.460291 0.816422
O O8 0.000000 0.543084 0.786139
O O9 0.000000 0.500000 0.500000
O O10 0.000000 0.250000 0.459437
O O11 0.770449 0.750000 0.848520
O O12 0.000000 0.489662 0.851025
#
# Coordination Sequence:
#
# PCOD9537011 Si02
#       4
#    16  16   8  16
#     4   8  14  26  42  58  77 103 135 171 206 241
#     4   8  12  17  23  34  55  83 116 155 193 224
#     4  10  20  32  46  66  88 108 136 172 210 252
#     4   7  10  18  31  43  60  89 123 160 196 227
#
# _framework density 23.536038999999999
#
# number of rings (size 3 to 8) (size 9 to 14) (size 15 to 20)
#    0.000    4.000    0.000    3.429    0.000    0.571 
#    2.571    0.000    0.000    0.000    0.000    0.000 
#    0.000    0.000    0.000    0.000    0.000    1.429 
#
# Total GULP energy -156025.126471 kJ/mol
# GULP energy per Si atom -5572.325945 kJ/mol
# Density = 2.348247 g / cm^3
# Si number density = 23.536039 Si / 1000 Ang^3
#
#
#
# Elastic Constant Matrix: (Units=GPa)
#
#
# Indices 1 2 3 4 5 6 
#
# 1 92.1478 3.7394 87.7226 0.0000 0.0000 0.0000
# 2 3.7394 97.5606 8.0261 0.0000 0.0000 0.0000
# 3 87.7226 8.0261 313.0931 0.0000 0.0000 0.0000
# 4 0.0000 0.0000 0.0000 -19.4510 0.0000 0.0000
# 5 0.0000 0.0000 0.0000 0.0000 34.8654 0.0000
# 6 0.0000 0.0000 0.0000 0.0000 0.0000 6.1921
#
#
#
# Elastic Compliance Matrix: (Units=1/GPa)
#
#
# Indices 1 2 3 4 5 6 
#
# 1 0.014805 -0.000227 -0.004142 0.000000 0.000000 0.000000
# 2 -0.000227 0.010275 -0.000200 0.000000 0.000000 0.000000
# 3 -0.004142 -0.000200 0.004360 0.000000 0.000000 0.000000
# 4 0.000000 0.000000 0.000000 -0.051411 0.000000 0.000000
# 5 0.000000 0.000000 0.000000 0.000000 0.028682 0.000000
# 6 0.000000 0.000000 0.000000 0.000000 0.000000 0.161496
#
#
# Mechanical properties :
#
#
# Convention : Reuss Voigt Hill
#
# Bulk Modulus (GPa) = 49.25643 77.97531 63.61587
# Shear Modulus (GPa) = 27.15760 31.20886 29.18323
#
# Velocity S-wave (km/s) = 3.40056 3.64538 3.52510
# Velocity P-wave (km/s) = 6.03257 7.13586 6.60728
#
# Compressibility (1/GPa) = 0.02030192
#
# Stress axis : x y z
#
# Youngs Moduli (GPa) = 67.54678 97.32198 229.37842
#
# Poissons Ratio (x) = 0.02206 0.95012
# Poissons Ratio (y) = 0.01531 0.04585
# Poissons Ratio (z) = 0.27979 0.01945
#
# Static dielectric constant tensor:
#      x y z
#    x 1.867200 0.000000 0.000000 
#    y 0.000000 0.967120 0.000000 
#    z 0.000000 0.000000 1.929680 
# 
# From -- ./inp_files/69871.got.cif
#   From: 2010.05.17/outbox.cif.g08.bks.cpg/sg74_35_cif.got.tgz:69871.got - 2010.06.03 17:57:02.
