data_PCOD9537845
_publ_section_title
;
Structure prediction by ZEFSAII (Michael W. Deem and Ramdas Pophale) SiO2 
 PCOD9537845
Probable space group: I M M A
;
_chemical_formula_sum "Si O2"
_cell_formula_units_Z 104
_cell_length_a 9.058597
_cell_length_b 21.503902
_cell_length_c 28.514429
_cell_angle_alpha 90.000000
_cell_angle_beta 90.000000
_cell_angle_gamma 90.000000
_cell_volume 5554.473391
_symmetry_space_group_name_H-M "I M M A"
_symmetry_group_IT_number 74
_symmetry_cell_setting 'orthorhombic'
loop_
_space_group_symop_operation_xyz
x,y,z
-x,1/2-y,z
x,-y,-z
-x,1/2+y,-z
-x,-y,-z
x,1/2+y,-z
-x,y,z
x,1/2-y,z
1/2+x,1/2+y,1/2+z
1/2-x,-y,1/2+z
1/2+x,1/2-y,1/2-z
1/2-x,y,1/2-z
1/2-x,1/2-y,1/2-z
1/2+x,y,1/2-z
1/2-x,1/2+y,1/2+z
1/2+x,-y,1/2+z
loop_
_atom_site_type_symbol
_atom_site_label
_atom_site_fract_x
_atom_site_fract_y
_atom_site_fract_z
Si Si1 0.825889 0.929366 0.700050
Si Si2 0.826615 0.322361 0.369442
Si Si3 0.821556 0.250000 0.698762
Si Si4 0.324597 0.404186 0.448458
Si Si5 0.825345 0.643925 0.374655
Si Si6 0.674376 0.818371 0.019518
Si Si7 0.677081 0.989195 0.381150
O O1 0.750000 0.935498 0.750000
O O2 0.808598 0.860115 0.678771
O O3 0.000000 0.943214 0.702908
O O4 0.749294 0.973937 0.662127
O O5 0.792333 0.250000 0.365294
O O6 0.727728 0.356334 0.408074
O O7 0.000000 0.328723 0.383180
O O8 0.750000 0.250000 0.750000
O O9 0.780476 0.310542 0.667706
O O10 0.000000 0.250000 0.702767
O O11 0.500000 0.403691 0.453745
O O12 0.251860 0.376477 0.494942
O O13 0.280838 0.472094 0.428336
O O14 0.808467 0.677900 0.424596
O O15 0.735739 0.580435 0.378563
O O16 0.000000 0.629976 0.368951
O O17 0.500000 0.821544 0.009055
O O18 0.728150 0.750000 0.002946
O O19 0.500000 0.991015 0.377711
#
# Coordination Sequence:
#
# PCOD9537845 Si02
#       7
#    16  16   8  16  16  16  16
#     4  10  20  35  55  78 106 142 185 232 283 336
#     4   9  18  33  52  75 106 145 189 233 276 331
#     4  10  22  42  66  92 120 148 184 234 289 348
#     4  10  21  35  52  80 116 152 189 234 283 330
#     4  10  21  40  63  86 114 147 185 230 282 338
#     4  10  20  36  59  84 113 151 192 233 279 337
#     4  10  22  39  57  80 114 151 189 233 283 340
#
# _framework density 18.723648000000001
#
# number of rings (size 3 to 8) (size 9 to 14) (size 15 to 20)
#    0.000    2.154    0.769    1.846    0.000    7.692 
#    0.000    4.615    0.000    0.000    0.000    0.000 
#    0.000    0.000    0.000    0.000    0.000    0.000 
#
# Total GULP energy -290213.786981 kJ/mol
# GULP energy per Si atom -5581.034365 kJ/mol
# Density = 1.868103 g / cm^3
# Si number density = 18.723648 Si / 1000 Ang^3
#
#
#
# Elastic Constant Matrix: (Units=GPa)
#
#
# Indices 1 2 3 4 5 6 
#
# 1 52.2572 47.7787 38.1387 0.0000 0.0000 0.0000
# 2 47.7787 134.2839 40.7932 0.0000 0.0000 0.0000
# 3 38.1387 40.7932 97.9727 0.0000 0.0000 0.0000
# 4 0.0000 0.0000 0.0000 15.9851 0.0000 0.0000
# 5 0.0000 0.0000 0.0000 0.0000 33.5845 0.0000
# 6 0.0000 0.0000 0.0000 0.0000 0.0000 22.0420
#
#
#
# Elastic Compliance Matrix: (Units=1/GPa)
#
#
# Indices 1 2 3 4 5 6 
#
# 1 0.034800 -0.009464 -0.009606 0.000000 0.000000 0.000000
# 2 -0.009464 0.011099 -0.000937 0.000000 0.000000 0.000000
# 3 -0.009606 -0.000937 0.014337 0.000000 0.000000 0.000000
# 4 0.000000 0.000000 0.000000 0.062558 0.000000 0.000000
# 5 0.000000 0.000000 0.000000 0.000000 0.029776 0.000000
# 6 0.000000 0.000000 0.000000 0.000000 0.000000 0.045368
#
#
# Mechanical properties :
#
#
# Convention : Reuss Voigt Hill
#
# Bulk Modulus (GPa) = 49.45419 59.77055 54.61237
# Shear Modulus (GPa) = 20.43385 24.84251 22.63818
#
# Velocity S-wave (km/s) = 3.30713 3.64648 3.48094
# Velocity P-wave (km/s) = 6.40725 7.05130 6.73697
#
# Compressibility (1/GPa) = 0.02022073
#
# Stress axis : x y z
#
# Youngs Moduli (GPa) = 28.73588 90.09958 69.75081
#
# Poissons Ratio (x) = 0.85267 0.67005
# Poissons Ratio (y) = 0.27195 0.06538
# Poissons Ratio (z) = 0.27605 0.08445
#
# Static dielectric constant tensor:
#      x y z
#    x 1.627670 0.000000 0.000000 
#    y 0.000000 1.651740 0.000000 
#    z 0.000000 0.000000 1.642360 
# 
# From -- ./inp_files/64425.got.cif
#   From: 2010.05.17/outbox.cif.g08.bks.cpg/sg74_33_cif.got.tgz:64425.got - 2010.06.03 17:57:02.
