data_PCOD9537395
_publ_section_title
;
Structure prediction by ZEFSAII (Michael W. Deem and Ramdas Pophale) SiO2 
 PCOD9537395
Probable space group: I M M A
;
_chemical_formula_sum "Si O2"
_cell_formula_units_Z 96
_cell_length_a 14.478324
_cell_length_b 24.417608
_cell_length_c 17.262953
_cell_angle_alpha 90.000000
_cell_angle_beta 90.000000
_cell_angle_gamma 90.000000
_cell_volume 6102.903412
_symmetry_space_group_name_H-M "I M M A"
_symmetry_group_IT_number 74
_symmetry_cell_setting 'orthorhombic'
loop_
_space_group_symop_operation_xyz
x,y,z
-x,1/2-y,z
x,-y,-z
-x,1/2+y,-z
-x,-y,-z
x,1/2+y,-z
-x,y,z
x,1/2-y,z
1/2+x,1/2+y,1/2+z
1/2-x,-y,1/2+z
1/2+x,1/2-y,1/2-z
1/2-x,y,1/2-z
1/2-x,1/2-y,1/2-z
1/2+x,y,1/2-z
1/2-x,1/2+y,1/2+z
1/2+x,-y,1/2+z
loop_
_atom_site_type_symbol
_atom_site_label
_atom_site_fract_x
_atom_site_fract_y
_atom_site_fract_z
Si Si1 0.000000 0.011689 0.743152
Si Si2 0.794975 0.052173 0.441610
Si Si3 0.000000 0.184400 0.913418
Si Si4 0.500000 0.357355 0.762956
Si Si5 0.500000 0.540892 0.926497
Si Si6 0.811797 0.482024 0.821079
Si Si7 0.683036 0.881638 0.438969
Si Si8 0.688730 0.186270 0.827844
O O1 0.000000 0.077615 0.746242
O O2 0.906621 0.994566 0.786684
O O3 0.000000 0.992264 0.654410
O O4 0.749337 0.027533 0.364440
O O5 0.727895 0.095407 0.482659
O O6 0.900948 0.071208 0.430311
O O7 0.799412 0.000000 0.500000
O O8 0.090855 0.154299 0.946188
O O9 0.000000 0.172072 0.820799
O O10 0.500000 0.250000 0.574909
O O11 0.409254 0.339764 0.808577
O O12 0.500000 0.500000 0.000000
O O13 0.750000 0.459390 0.750000
O O14 0.834476 0.433753 0.882071
O O15 0.758669 0.845399 0.394895
O O16 0.678273 0.250000 0.846854
O O17 0.750000 0.182472 0.750000
#
# Coordination Sequence:
#
# PCOD9537395 Si02
#       8
#     8  16   8   8   8  16  16  16
#     4  12  20  31  55  72 100 145 180 214 246 314
#     4   9  21  33  51  71 104 135 172 217 258 309
#     4  12  22  35  52  71 102 139 178 218 255 298
#     4  12  22  32  47  74 102 137 185 219 254 286
#     4  10  20  34  48  74 101 135 180 213 259 300
#     4  11  19  33  49  75 100 137 178 213 254 302
#     4  11  21  35  50  73 103 140 175 212 263 310
#     4  11  21  32  48  70  98 133 177 222 255 293
#
# _framework density 15.730218000000001
#
# number of rings (size 3 to 8) (size 9 to 14) (size 15 to 20)
#    0.000    1.167    5.000    2.750    4.667    0.667 
#    0.000    2.500    0.000    0.000    0.000    0.000 
#    0.000    2.667    0.000    0.000    0.000    0.000 
#
# Total GULP energy -267910.636845 kJ/mol
# GULP energy per Si atom -5581.471601 kJ/mol
# Density = 1.569442 g / cm^3
# Si number density = 15.730218 Si / 1000 Ang^3
#
#
#
# Elastic Constant Matrix: (Units=GPa)
#
#
# Indices 1 2 3 4 5 6 
#
# 1 150.9153 38.2063 36.2636 0.0000 0.0000 0.0000
# 2 38.2063 57.8586 25.6893 0.0000 0.0000 0.0000
# 3 36.2636 25.6893 58.4290 0.0000 0.0000 0.0000
# 4 0.0000 0.0000 0.0000 17.1669 0.0000 0.0000
# 5 0.0000 0.0000 0.0000 0.0000 20.1713 0.0000
# 6 0.0000 0.0000 0.0000 0.0000 0.0000 6.2914
#
#
#
# Elastic Compliance Matrix: (Units=1/GPa)
#
#
# Indices 1 2 3 4 5 6 
#
# 1 0.008492 -0.004060 -0.003485 0.000000 0.000000 0.000000
# 2 -0.004060 0.023417 -0.007776 0.000000 0.000000 0.000000
# 3 -0.003485 -0.007776 0.022697 0.000000 0.000000 0.000000
# 4 0.000000 0.000000 0.000000 0.058252 0.000000 0.000000
# 5 0.000000 0.000000 0.000000 0.000000 0.049575 0.000000
# 6 0.000000 0.000000 0.000000 0.000000 0.000000 0.158948
#
#
# Mechanical properties :
#
#
# Convention : Reuss Voigt Hill
#
# Bulk Modulus (GPa) = 41.73077 51.94682 46.83880
# Shear Modulus (GPa) = 13.88852 19.86214 16.87533
#
# Velocity S-wave (km/s) = 2.97462 3.55727 3.27891
# Velocity P-wave (km/s) = 6.19552 7.06877 6.64650
#
# Compressibility (1/GPa) = 0.02396313
#
# Stress axis : x y z
#
# Youngs Moduli (GPa) = 117.76466 42.70415 44.05927
#
# Poissons Ratio (x) = 0.17337 0.15356
# Poissons Ratio (y) = 0.47811 0.34260
# Poissons Ratio (z) = 0.41044 0.33206
#
# Static dielectric constant tensor:
#      x y z
#    x 1.555740 0.000000 0.000000 
#    y 0.000000 1.512830 0.000000 
#    z 0.000000 0.000000 1.512160 
# 
# From -- ./inp_files/32680.got.cif
#   From: 2010.05.17/outbox.cif.g08.bks.cpg/sg74_17_cif.got.tgz:32680.got - 2010.06.03 17:57:02.
