data_PCOD9537641
_publ_section_title
;
Structure prediction by ZEFSAII (Michael W. Deem and Ramdas Pophale) SiO2 
 PCOD9537641
Probable space group: I M M A
;
_chemical_formula_sum "Si O2"
_cell_formula_units_Z 96
_cell_length_a 26.968823
_cell_length_b 11.090325
_cell_length_c 18.282450
_cell_angle_alpha 90.000000
_cell_angle_beta 90.000000
_cell_angle_gamma 90.000000
_cell_volume 5468.153036
_symmetry_space_group_name_H-M "I M M A"
_symmetry_group_IT_number 74
_symmetry_cell_setting 'orthorhombic'
loop_
_space_group_symop_operation_xyz
x,y,z
-x,1/2-y,z
x,-y,-z
-x,1/2+y,-z
-x,-y,-z
x,1/2+y,-z
-x,y,z
x,1/2-y,z
1/2+x,1/2+y,1/2+z
1/2-x,-y,1/2+z
1/2+x,1/2-y,1/2-z
1/2-x,y,1/2-z
1/2-x,1/2-y,1/2-z
1/2+x,y,1/2-z
1/2-x,1/2+y,1/2+z
1/2+x,-y,1/2+z
loop_
_atom_site_type_symbol
_atom_site_label
_atom_site_fract_x
_atom_site_fract_y
_atom_site_fract_z
Si Si1 0.801620 0.750000 0.835411
Si Si2 0.783772 0.611419 0.336052
Si Si3 0.442559 0.895340 0.182807
Si Si4 0.132471 0.990582 0.586745
Si Si5 0.680764 0.750000 0.837182
Si Si6 0.853949 0.891738 0.213461
Si Si7 0.309769 0.503947 0.586710
O O1 0.741085 0.750000 0.842737
O O2 0.822709 0.750000 0.752080
O O3 0.819123 0.866023 0.879338
O O4 0.767460 0.750000 0.329630
O O5 0.833721 0.599541 0.382786
O O6 0.804767 0.561684 0.258052
O O7 0.743327 0.539660 0.382055
O O8 0.500000 0.918280 0.198724
O O9 0.437849 0.750000 0.169287
O O10 0.404784 0.930162 0.248469
O O11 0.421936 0.976548 0.116529
O O12 0.155922 0.868146 0.623401
O O13 0.134779 0.000000 0.500000
O O14 0.850795 0.750000 0.224587
O O15 0.848879 0.920477 0.128882
O O16 0.310698 0.500000 0.500000
#
# Coordination Sequence:
#
# PCOD9537641 Si02
#       7
#     8  16  16  16   8  16  16
#     4  11  24  38  50  74 114 162 196 221 262 321
#     4  10  20  34  55  77 108 148 188 227 267 322
#     4   9  19  38  62  84 103 134 179 230 282 333
#     4  11  22  34  56  81 116 149 183 227 272 323
#     4  11  24  38  55  76 115 161 196 218 259 337
#     4   9  19  36  57  79 104 140 183 226 274 330
#     4  12  24  33  52  78 115 147 185 232 275 319
#
# _framework density 17.556201999999999
#
# number of rings (size 3 to 8) (size 9 to 14) (size 15 to 20)
#    0.000    1.667    1.667    5.000    7.000    1.667 
#    0.000    0.417    0.000    0.500    0.000    0.000 
#    0.000    0.000    0.000    0.000    0.000    0.000 
#
# Total GULP energy -267369.132664 kJ/mol
# GULP energy per Si atom -5570.190264 kJ/mol
# Density = 1.751624 g / cm^3
# Si number density = 17.556202 Si / 1000 Ang^3
#
#
#
# Elastic Constant Matrix: (Units=GPa)
#
#
# Indices 1 2 3 4 5 6 
#
# 1 85.2031 20.9576 49.0788 0.0000 0.0000 0.0000
# 2 20.9576 60.0252 31.6753 0.0000 0.0000 0.0000
# 3 49.0788 31.6753 171.2569 0.0000 0.0000 0.0000
# 4 0.0000 0.0000 0.0000 19.9927 0.0000 0.0000
# 5 0.0000 0.0000 0.0000 0.0000 11.4550 0.0000
# 6 0.0000 0.0000 0.0000 0.0000 0.0000 19.9167
#
#
#
# Elastic Compliance Matrix: (Units=1/GPa)
#
#
# Indices 1 2 3 4 5 6 
#
# 1 0.014592 -0.003200 -0.003590 0.000000 0.000000 0.000000
# 2 -0.003200 0.019163 -0.002627 0.000000 0.000000 0.000000
# 3 -0.003590 -0.002627 0.007354 0.000000 0.000000 0.000000
# 4 0.000000 0.000000 0.000000 0.050018 0.000000 0.000000
# 5 0.000000 0.000000 0.000000 0.000000 0.087298 0.000000
# 6 0.000000 0.000000 0.000000 0.000000 0.000000 0.050209
#
#
# Mechanical properties :
#
#
# Convention : Reuss Voigt Hill
#
# Bulk Modulus (GPa) = 44.89483 57.76761 51.33122
# Shear Modulus (GPa) = 19.61602 24.59112 22.10357
#
# Velocity S-wave (km/s) = 3.34627 3.74666 3.55211
# Velocity P-wave (km/s) = 6.36849 7.18975 6.79154
#
# Compressibility (1/GPa) = 0.02227428
#
# Stress axis : x y z
#
# Youngs Moduli (GPa) = 68.53255 52.18260 135.98284
#
# Poissons Ratio (x) = 0.16700 0.48814
# Poissons Ratio (y) = 0.21932 0.35727
# Poissons Ratio (z) = 0.24601 0.13710
#
# Static dielectric constant tensor:
#      x y z
#    x 1.612340 0.000000 0.000000 
#    y 0.000000 1.673010 0.000000 
#    z 0.000000 0.000000 1.635000 
# 
# From -- ./inp_files/46655.got.cif
#   From: 2010.05.17/outbox.cif.g08.bks.cpg/sg74_24_cif.got.tgz:46655.got - 2010.06.03 17:57:02.
