data_PCOD9537812
_publ_section_title
;
Structure prediction by ZEFSAII (Michael W. Deem and Ramdas Pophale) SiO2 
 PCOD9537812
Probable space group: I M M A
;
_chemical_formula_sum "Si O2"
_cell_formula_units_Z 112
_cell_length_a 16.058586
_cell_length_b 15.984561
_cell_length_c 23.195002
_cell_angle_alpha 90.000000
_cell_angle_beta 90.000000
_cell_angle_gamma 90.000000
_cell_volume 5953.912248
_symmetry_space_group_name_H-M "I M M A"
_symmetry_group_IT_number 74
_symmetry_cell_setting 'orthorhombic'
loop_
_space_group_symop_operation_xyz
x,y,z
-x,1/2-y,z
x,-y,-z
-x,1/2+y,-z
-x,-y,-z
x,1/2+y,-z
-x,y,z
x,1/2-y,z
1/2+x,1/2+y,1/2+z
1/2-x,-y,1/2+z
1/2+x,1/2-y,1/2-z
1/2-x,y,1/2-z
1/2-x,1/2-y,1/2-z
1/2+x,y,1/2-z
1/2-x,1/2+y,1/2+z
1/2+x,-y,1/2+z
loop_
_atom_site_type_symbol
_atom_site_label
_atom_site_fract_x
_atom_site_fract_y
_atom_site_fract_z
Si Si1 0.908203 0.400344 0.508976
Si Si2 0.589740 0.058953 0.556233
Si Si3 0.724412 0.153310 0.490036
Si Si4 0.900397 0.655147 0.755412
Si Si5 0.164184 0.077844 0.126995
Si Si6 0.403112 0.153908 0.856982
Si Si7 0.809856 0.497093 0.304482
O O1 0.909242 0.500000 0.500000
O O2 0.821163 0.370427 0.482683
O O3 0.901568 0.372996 0.575780
O O4 0.000000 0.369304 0.488136
O O5 0.500000 0.104123 0.560642
O O6 0.674032 0.109130 0.542114
O O7 0.584188 0.000000 0.500000
O O8 0.603082 0.998303 0.610492
O O9 0.719987 0.250000 0.501448
O O10 0.677599 0.130566 0.430808
O O11 0.872501 0.750000 0.740044
O O12 0.867472 0.631584 0.819202
O O13 0.867243 0.581468 0.714122
O O14 0.000000 0.654214 0.755583
O O15 0.251262 0.035620 0.144425
O O16 0.500000 0.153697 0.839379
O O17 0.371946 0.250000 0.851306
O O18 0.356124 0.081613 0.822221
O O19 0.750000 0.513452 0.250000
#
# Coordination Sequence:
#
# PCOD9537812 Si02
#       7
#    16  16  16  16  16  16  16
#     4  10  20  35  55  78 108 145 183 225 271 324
#     4   9  18  33  52  74 102 137 178 222 266 318
#     4  11  21  32  51  79 111 144 179 223 274 332
#     4  10  21  37  57  80 107 141 184 233 284 340
#     4  10  20  35  54  76 105 143 182 222 275 335
#     4  10  20  35  56  79 105 141 183 223 267 328
#     4  10  21  35  55  80 107 140 178 230 286 332
#
# _framework density 18.811160999999998
#
# number of rings (size 3 to 8) (size 9 to 14) (size 15 to 20)
#    0.000    2.000    0.000    4.714    0.000    5.143 
#    0.000    0.714    0.000    0.857    0.000    0.000 
#    0.000    0.000    0.000    0.000    0.000    0.000 
#
# Total GULP energy -312106.538723 kJ/mol
# GULP energy per Si atom -5573.331049 kJ/mol
# Density = 1.876835 g / cm^3
# Si number density = 18.811161 Si / 1000 Ang^3
#
#
#
# Elastic Constant Matrix: (Units=GPa)
#
#
# Indices 1 2 3 4 5 6 
#
# 1 95.9359 44.5491 8.7119 0.0000 0.0000 0.0000
# 2 44.5491 133.5184 27.5579 0.0000 0.0000 0.0000
# 3 8.7119 27.5579 23.6588 0.0000 0.0000 0.0000
# 4 0.0000 0.0000 0.0000 26.0154 0.0000 0.0000
# 5 0.0000 0.0000 0.0000 0.0000 3.0286 0.0000
# 6 0.0000 0.0000 0.0000 0.0000 0.0000 6.4153
#
#
#
# Elastic Compliance Matrix: (Units=1/GPa)
#
#
# Indices 1 2 3 4 5 6 
#
# 1 0.012337 -0.004185 0.000332 0.000000 0.000000 0.000000
# 2 -0.004185 0.011280 -0.011598 0.000000 0.000000 0.000000
# 3 0.000332 -0.011598 0.055654 0.000000 0.000000 0.000000
# 4 0.000000 0.000000 0.000000 0.038439 0.000000 0.000000
# 5 0.000000 0.000000 0.000000 0.000000 0.330186 0.000000
# 6 0.000000 0.000000 0.000000 0.000000 0.000000 0.155876
#
#
# Mechanical properties :
#
#
# Convention : Reuss Voigt Hill
#
# Bulk Modulus (GPa) = 20.67425 46.08342 33.37883
# Shear Modulus (GPa) = 7.68289 18.57814 13.13051
#
# Velocity S-wave (km/s) = 2.02314 3.14604 2.64487
# Velocity P-wave (km/s) = 4.05854 6.14393 5.20671
#
# Compressibility (1/GPa) = 0.04836936
#
# Stress axis : x y z
#
# Youngs Moduli (GPa) = 81.05888 88.65599 17.96802
#
# Poissons Ratio (x) = 0.37099 -0.00596
# Poissons Ratio (y) = 0.33920 0.20839
# Poissons Ratio (z) = -0.02688 1.02820
#
# Static dielectric constant tensor:
#      x y z
#    x 1.718610 0.000000 0.000000 
#    y 0.000000 1.650400 0.000000 
#    z 0.000000 0.000000 1.639860 
# 
# From -- ./inp_files/60156.got.cif
#   From: 2010.05.17/outbox.cif.g08.bks.cpg/sg74_31_cif.got.tgz:60156.got - 2010.06.03 17:57:02.
