data_PCOD9537443
_publ_section_title
;
Structure prediction by ZEFSAII (Michael W. Deem and Ramdas Pophale) SiO2 
 PCOD9537443
Probable space group: I M M A
;
_chemical_formula_sum "Si O2"
_cell_formula_units_Z 80
_cell_length_a 27.738291
_cell_length_b 8.521951
_cell_length_c 19.208310
_cell_angle_alpha 90.000000
_cell_angle_beta 90.000000
_cell_angle_gamma 90.000000
_cell_volume 4540.544003
_symmetry_space_group_name_H-M "I M M A"
_symmetry_group_IT_number 74
_symmetry_cell_setting 'orthorhombic'
loop_
_space_group_symop_operation_xyz
x,y,z
-x,1/2-y,z
x,-y,-z
-x,1/2+y,-z
-x,-y,-z
x,1/2+y,-z
-x,y,z
x,1/2-y,z
1/2+x,1/2+y,1/2+z
1/2-x,-y,1/2+z
1/2+x,1/2-y,1/2-z
1/2-x,y,1/2-z
1/2-x,1/2-y,1/2-z
1/2+x,y,1/2-z
1/2-x,1/2+y,1/2+z
1/2+x,-y,1/2+z
loop_
_atom_site_type_symbol
_atom_site_label
_atom_site_fract_x
_atom_site_fract_y
_atom_site_fract_z
Si Si1 0.103037 0.560623 0.716670
Si Si2 0.945768 0.060589 0.139295
Si Si3 0.651975 0.937566 0.424686
Si Si4 0.555914 0.439240 0.073645
Si Si5 0.699694 0.439355 0.717731
O O1 0.105768 0.750000 0.715658
O O2 0.067382 0.519249 0.780591
O O3 0.083821 0.506442 0.642142
O O4 0.154964 0.492881 0.735407
O O5 0.944438 0.250000 0.133783
O O6 0.000000 0.008022 0.121669
O O7 0.902377 0.992954 0.093408
O O8 0.652477 0.750000 0.425659
O O9 0.686114 0.992283 0.360803
O O10 0.666476 0.000000 0.500000
O O11 0.500000 0.489458 0.079164
O O12 0.556671 0.250000 0.072914
O O13 0.575214 0.500000 0.000000
O O14 0.701092 0.250000 0.716441
O O15 0.750000 0.496248 0.750000
#
# Coordination Sequence:
#
# PCOD9537443 Si02
#       5
#    16  16  16  16  16
#     4   9  17  30  49  72  96 123 159 201 240 281
#     4   9  17  30  49  72  98 129 162 195 233 278
#     4  10  20  34  52  73  98 127 158 194 235 280
#     4   9  17  29  45  67  97 131 163 195 234 280
#     4   9  19  36  55  73  94 122 156 196 243 288
#
# _framework density 17.619035
#
# number of rings (size 3 to 8) (size 9 to 14) (size 15 to 20)
#    0.000    2.800    0.000    1.200    0.000    5.200 
#    0.000    1.000    0.000    8.400    0.000    0.000 
#    0.000    0.000    0.000    0.000    0.000    0.000 
#
# Total GULP energy -222985.480331 kJ/mol
# GULP energy per Si atom -5574.637008 kJ/mol
# Density = 1.757893 g / cm^3
# Si number density = 17.619035 Si / 1000 Ang^3
#
#
#
# Elastic Constant Matrix: (Units=GPa)
#
#
# Indices 1 2 3 4 5 6 
#
# 1 105.0953 16.7320 60.4094 0.0000 0.0000 0.0000
# 2 16.7320 6.0926 20.0587 0.0000 0.0000 0.0000
# 3 60.4094 20.0587 149.3458 0.0000 0.0000 0.0000
# 4 0.0000 0.0000 0.0000 26.1206 0.0000 0.0000
# 5 0.0000 0.0000 0.0000 0.0000 10.0691 0.0000
# 6 0.0000 0.0000 0.0000 0.0000 0.0000 18.3172
#
#
#
# Elastic Compliance Matrix: (Units=1/GPa)
#
#
# Indices 1 2 3 4 5 6 
#
# 1 0.017006 -0.043126 -0.001086 0.000000 0.000000 0.000000
# 2 -0.043126 0.403613 -0.036765 0.000000 0.000000 0.000000
# 3 -0.001086 -0.036765 0.012073 0.000000 0.000000 0.000000
# 4 0.000000 0.000000 0.000000 0.038284 0.000000 0.000000
# 5 0.000000 0.000000 0.000000 0.000000 0.099314 0.000000
# 6 0.000000 0.000000 0.000000 0.000000 0.000000 0.054593
#
#
# Mechanical properties :
#
#
# Convention : Reuss Voigt Hill
#
# Bulk Modulus (GPa) = 3.69362 50.54822 27.12092
# Shear Modulus (GPa) = 5.70071 21.79029 13.74550
#
# Velocity S-wave (km/s) = 1.80071 3.52056 2.79615
# Velocity P-wave (km/s) = 2.53463 6.72886 5.08438
#
# Compressibility (1/GPa) = 0.27073747
#
# Stress axis : x y z
#
# Youngs Moduli (GPa) = 58.80405 2.47762 82.82744
#
# Poissons Ratio (x) = 0.10685 0.08999
# Poissons Ratio (y) = 2.53596 3.04518
# Poissons Ratio (z) = 0.06389 0.09109
#
# Static dielectric constant tensor:
#      x y z
#    x 1.579260 0.000000 0.000000 
#    y 0.000000 1.604740 0.000000 
#    z 0.000000 0.000000 1.609310 
# 
# From -- ./inp_files/30713.got.cif
#   From: 2010.05.17/outbox.cif.g08.bks.cpg/sg74_16_cif.got.tgz:30713.got - 2010.06.03 17:57:02.
