data_PCOD9537201
_publ_section_title
;
Structure prediction by ZEFSAII (Michael W. Deem and Ramdas Pophale) SiO2 
 PCOD9537201
Probable space group: I M M A
;
_chemical_formula_sum "Si O2"
_cell_formula_units_Z 112
_cell_length_a 13.908186
_cell_length_b 25.510233
_cell_length_c 15.300859
_cell_angle_alpha 90.000000
_cell_angle_beta 90.000000
_cell_angle_gamma 90.000000
_cell_volume 5428.761076
_symmetry_space_group_name_H-M "I M M A"
_symmetry_group_IT_number 74
_symmetry_cell_setting 'orthorhombic'
loop_
_space_group_symop_operation_xyz
x,y,z
-x,1/2-y,z
x,-y,-z
-x,1/2+y,-z
-x,-y,-z
x,1/2+y,-z
-x,y,z
x,1/2-y,z
1/2+x,1/2+y,1/2+z
1/2-x,-y,1/2+z
1/2+x,1/2-y,1/2-z
1/2-x,y,1/2-z
1/2-x,1/2-y,1/2-z
1/2+x,y,1/2-z
1/2-x,1/2+y,1/2+z
1/2+x,-y,1/2+z
loop_
_atom_site_type_symbol
_atom_site_label
_atom_site_fract_x
_atom_site_fract_y
_atom_site_fract_z
Si Si1 0.116034 0.689007 0.654603
Si Si2 0.881573 0.489112 0.100881
Si Si3 0.887449 0.119545 0.183569
Si Si4 0.818360 0.191807 0.531947
Si Si5 0.606103 0.169354 0.500871
Si Si6 0.115432 0.189110 0.718335
Si Si7 0.389387 0.402702 0.656407
O O1 0.149524 0.750000 0.666074
O O2 0.148336 0.649911 0.731031
O O3 0.150494 0.668130 0.560336
O O4 0.000000 0.690803 0.655381
O O5 0.847186 0.435120 0.145647
O O6 0.847117 0.539446 0.156899
O O7 0.000000 0.488339 0.100126
O O8 0.852878 0.500000 0.000000
O O9 0.886044 0.159460 0.101817
O O10 0.000000 0.108428 0.201870
O O11 0.862687 0.250000 0.530964
O O12 0.703379 0.195999 0.531192
O O13 0.854201 0.168733 0.622679
O O14 0.500000 0.192075 0.520608
O O15 0.607731 0.115144 0.554998
O O16 0.147496 0.250000 0.730824
O O17 0.149381 0.146927 0.789830
O O18 0.000000 0.191157 0.723082
O O19 0.500000 0.408030 0.685938
#
# Coordination Sequence:
#
# PCOD9537201 Si02
#       7
#    16  16  16  16  16  16  16
#     4   9  18  34  55  78 104 136 178 222 263 310
#     4   9  14  26  52  80 106 138 179 213 248 316
#     4   9  17  30  52  80 106 136 173 216 264 310
#     4  10  21  35  53  74 100 143 186 220 259 307
#     4  10  20  33  49  74 107 139 172 214 266 316
#     4   9  18  34  55  78 104 136 178 222 263 310
#     4   9  17  30  52  80 106 136 173 216 264 310
#
# _framework density 20.630856999999999
#
# number of rings (size 3 to 8) (size 9 to 14) (size 15 to 20)
#    0.000    2.714    1.429    0.429    0.000    4.286 
#    0.000    5.714    0.000    6.000    0.000    5.000 
#    0.000    0.000    0.000    0.000    0.000    0.000 
#
# Total GULP energy -311897.106850 kJ/mol
# GULP energy per Si atom -5569.591194 kJ/mol
# Density = 2.058390 g / cm^3
# Si number density = 20.630857 Si / 1000 Ang^3
#
#
#
# Elastic Constant Matrix: (Units=GPa)
#
#
# Indices 1 2 3 4 5 6 
#
# 1 55.5049 8.6883 14.1902 0.0000 0.0000 0.0000
# 2 8.6883 104.5101 53.5037 0.0000 0.0000 0.0000
# 3 14.1902 53.5037 138.5084 0.0001 0.0000 0.0000
# 4 0.0000 0.0000 0.0001 25.5595 0.0000 0.0000
# 5 0.0000 0.0000 0.0000 0.0000 15.0782 0.0000
# 6 0.0000 0.0000 0.0000 0.0000 0.0000 1.5927
#
#
#
# Elastic Compliance Matrix: (Units=1/GPa)
#
#
# Indices 1 2 3 4 5 6 
#
# 1 0.018543 -0.000709 -0.001626 0.000000 0.000000 0.000000
# 2 -0.000709 0.011954 -0.004545 0.000000 0.000000 0.000000
# 3 -0.001626 -0.004545 0.009142 0.000000 0.000000 0.000000
# 4 0.000000 0.000000 0.000000 0.039124 0.000000 0.000000
# 5 0.000000 0.000000 0.000000 0.000000 0.066321 0.000000
# 6 0.000000 0.000000 0.000000 0.000000 0.000000 0.627862
#
#
# Mechanical properties :
#
#
# Convention : Reuss Voigt Hill
#
# Bulk Modulus (GPa) = 38.64108 50.14307 44.39208
# Shear Modulus (GPa) = 6.28667 23.25550 14.77109
#
# Velocity S-wave (km/s) = 1.74752 3.36105 2.67867
# Velocity P-wave (km/s) = 4.77935 6.27852 5.57952
#
# Compressibility (1/GPa) = 0.02587919
#
# Stress axis : x y z
#
# Youngs Moduli (GPa) = 53.92845 83.65217 109.38480
#
# Poissons Ratio (x) = 0.05933 0.17784
# Poissons Ratio (y) = 0.03825 0.49716
# Poissons Ratio (z) = 0.08768 0.38021
#
# Static dielectric constant tensor:
#      x y z
#    x 1.747420 0.000000 0.000000 
#    y 0.000000 1.778260 0.000000 
#    z 0.000000 0.000000 1.763210 
# 
# From -- ./inp_files/32888.got.cif
#   From: 2010.05.17/outbox.cif.g08.bks.cpg/sg74_17_cif.got.tgz:32888.got - 2010.06.03 17:57:02.
