data_PCOD9537674
_publ_section_title
;
Structure prediction by ZEFSAII (Michael W. Deem and Ramdas Pophale) SiO2 
 PCOD9537674
Probable space group: I M M A
;
_chemical_formula_sum "Si O2"
_cell_formula_units_Z 80
_cell_length_a 14.769027
_cell_length_b 8.691710
_cell_length_c 31.528698
_cell_angle_alpha 90.000000
_cell_angle_beta 90.000000
_cell_angle_gamma 90.000000
_cell_volume 4047.279047
_symmetry_space_group_name_H-M "I M M A"
_symmetry_group_IT_number 74
_symmetry_cell_setting 'orthorhombic'
loop_
_space_group_symop_operation_xyz
x,y,z
-x,1/2-y,z
x,-y,-z
-x,1/2+y,-z
-x,-y,-z
x,1/2+y,-z
-x,y,z
x,1/2-y,z
1/2+x,1/2+y,1/2+z
1/2-x,-y,1/2+z
1/2+x,1/2-y,1/2-z
1/2-x,y,1/2-z
1/2-x,1/2-y,1/2-z
1/2+x,y,1/2-z
1/2-x,1/2+y,1/2+z
1/2+x,-y,1/2+z
loop_
_atom_site_type_symbol
_atom_site_label
_atom_site_fract_x
_atom_site_fract_y
_atom_site_fract_z
Si Si1 0.204684 0.068210 0.955983
Si Si2 0.900047 0.575941 0.352616
Si Si3 0.745039 0.067451 0.300295
Si Si4 0.604697 0.564877 0.627232
Si Si5 0.601710 0.570196 0.941312
O O1 0.194420 0.250000 0.956132
O O2 0.158880 0.001936 0.913243
O O3 0.311237 0.024018 0.955877
O O4 0.165949 0.000000 0.000000
O O5 0.888303 0.750000 0.369871
O O6 0.823386 0.534710 0.320159
O O7 0.896064 0.455232 0.390762
O O8 0.000000 0.568002 0.333283
O O9 0.762125 0.250000 0.307446
O O10 0.750000 0.043643 0.250000
O O11 0.655661 0.029708 0.328255
O O12 0.500000 0.513310 0.627296
O O13 0.605617 0.750000 0.622814
O O14 0.500000 0.518766 0.954095
O O15 0.612142 0.750000 0.952073
#
# Coordination Sequence:
#
# PCOD9537674 Si02
#       5
#    16  16  16  16  16
#     4  12  25  41  64  92 124 163 208 260 315 375
#     4  10  20  34  55  85 120 158 197 241 297 359
#     4  10  21  37  61  92 124 161 205 252 304 365
#     4  10  22  42  65  89 123 165 210 262 315 367
#     4  10  20  36  60  89 122 160 200 245 301 364
#
# _framework density 19.766366999999999
#
# number of rings (size 3 to 8) (size 9 to 14) (size 15 to 20)
#    0.000    1.600    2.000    3.000    0.000    4.800 
#    0.000    2.000    0.000    0.000    0.000    0.000 
#    0.000    0.000    0.000    0.000    0.000    0.000 
#
# Total GULP energy -223207.453363 kJ/mol
# GULP energy per Si atom -5580.186334 kJ/mol
# Density = 1.972138 g / cm^3
# Si number density = 19.766367 Si / 1000 Ang^3
#
#
#
# Elastic Constant Matrix: (Units=GPa)
#
#
# Indices 1 2 3 4 5 6 
#
# 1 120.2912 43.0305 62.7991 0.0000 0.0000 0.0000
# 2 43.0305 44.5479 42.0705 0.0000 0.0000 0.0000
# 3 62.7991 42.0705 116.1350 0.0000 0.0000 0.0000
# 4 0.0000 0.0000 0.0000 25.0558 0.0000 0.0000
# 5 0.0000 0.0000 0.0000 0.0000 -6.0828 0.0000
# 6 0.0000 0.0000 0.0000 0.0000 0.0000 20.3030
#
#
#
# Elastic Compliance Matrix: (Units=1/GPa)
#
#
# Indices 1 2 3 4 5 6 
#
# 1 0.013832 -0.009572 -0.004012 0.000000 0.000000 0.000000
# 2 -0.009572 0.040744 -0.009584 0.000000 0.000000 0.000000
# 3 -0.004012 -0.009584 0.014252 0.000000 0.000000 0.000000
# 4 0.000000 0.000000 0.000000 0.039911 0.000000 0.000000
# 5 0.000000 0.000000 0.000000 0.000000 -0.164399 0.000000
# 6 0.000000 0.000000 0.000000 0.000000 0.000000 0.049254
#
#
# Mechanical properties :
#
#
# Convention : Reuss Voigt Hill
#
# Bulk Modulus (GPa) = 44.45897 64.08604 54.27251
# Shear Modulus (GPa) = 105.42698 16.72683 61.07690
#
# Velocity S-wave (km/s) = 7.31111 2.91215 5.56475
# Velocity P-wave (km/s) = 9.68560 6.61813 8.29489
#
# Compressibility (1/GPa) = 0.02249265
#
# Stress axis : x y z
#
# Youngs Moduli (GPa) = 72.29832 24.54325 70.16565
#
# Poissons Ratio (x) = 0.23492 0.28150
# Poissons Ratio (y) = 0.69201 0.67248
# Poissons Ratio (z) = 0.29006 0.23523
#
# Static dielectric constant tensor:
#      x y z
#    x 1.707600 0.000000 0.000000 
#    y 0.000000 1.670340 0.000000 
#    z 0.000000 0.000000 1.703440 
# 
# From -- ./inp_files/72862.got.cif
#   From: 2010.05.17/outbox.cif.g08.bks.cpg/sg74_37_cif.got.tgz:72862.got - 2010.06.03 17:57:02.
