data_PCOD9537735
_publ_section_title
;
Structure prediction by ZEFSAII (Michael W. Deem and Ramdas Pophale) SiO2 
 PCOD9537735
Probable space group: I M M A
;
_chemical_formula_sum "Si O2"
_cell_formula_units_Z 112
_cell_length_a 29.463165
_cell_length_b 13.873334
_cell_length_c 11.698665
_cell_angle_alpha 90.000000
_cell_angle_beta 90.000000
_cell_angle_gamma 90.000000
_cell_volume 4781.856562
_symmetry_space_group_name_H-M "I M M A"
_symmetry_group_IT_number 74
_symmetry_cell_setting 'orthorhombic'
loop_
_space_group_symop_operation_xyz
x,y,z
-x,1/2-y,z
x,-y,-z
-x,1/2+y,-z
-x,-y,-z
x,1/2+y,-z
-x,y,z
x,1/2-y,z
1/2+x,1/2+y,1/2+z
1/2-x,-y,1/2+z
1/2+x,1/2-y,1/2-z
1/2-x,y,1/2-z
1/2-x,1/2-y,1/2-z
1/2+x,y,1/2-z
1/2-x,1/2+y,1/2+z
1/2+x,-y,1/2+z
loop_
_atom_site_type_symbol
_atom_site_label
_atom_site_fract_x
_atom_site_fract_y
_atom_site_fract_z
Si Si1 0.137246 0.608332 0.951284
Si Si2 0.049336 0.867282 0.570737
Si Si3 0.312563 0.560210 0.163273
Si Si4 0.720729 0.407179 0.579230
Si Si5 0.586560 0.866252 0.168028
Si Si6 0.949904 0.362452 0.908421
Si Si7 0.146142 0.363406 0.319334
O O1 0.181056 0.651220 0.016700
O O2 0.087207 0.637015 0.991930
O O3 0.138144 0.500000 0.000000
O O4 0.143941 0.625003 0.817889
O O5 0.048571 0.750000 0.572751
O O6 0.055936 0.897358 0.438581
O O7 0.095976 0.891463 0.635103
O O8 0.000000 0.899285 0.615073
O O9 0.299493 0.565983 0.297086
O O10 0.272689 0.620985 0.102987
O O11 0.361760 0.604777 0.145410
O O12 0.318810 0.445527 0.136514
O O13 0.727406 0.500000 0.500000
O O14 0.585269 0.750000 0.170432
O O15 0.570409 0.905636 0.290994
O O16 0.955338 0.250000 0.882170
O O17 0.000000 0.401127 0.935355
O O18 0.155403 0.250000 0.346924
#
# Coordination Sequence:
#
# PCOD9537735 Si02
#       7
#    16  16  16  16  16  16  16
#     4  11  20  41  62  85 124 162 205 260 316 374
#     4   9  20  39  61  90 132 175 217 266 318 378
#     4  11  22  40  65  90 125 163 207 268 320 382
#     4  10  21  40  65  84 120 165 199 253 331 374
#     4  10  20  38  63  92 126 169 215 266 321 376
#     4  10  20  34  57  89 121 158 204 255 315 374
#     4  11  23  40  65  93 126 172 217 258 315 384
#
# _framework density 23.421865
#
# number of rings (size 3 to 8) (size 9 to 14) (size 15 to 20)
#    0.000    1.714    4.286    0.857    2.000    2.571 
#    0.000    9.286    0.000    0.000    0.000    0.000 
#    0.000    0.000    0.000    0.000    0.000    0.000 
#
# Total GULP energy -312432.229404 kJ/mol
# GULP energy per Si atom -5579.146954 kJ/mol
# Density = 2.336856 g / cm^3
# Si number density = 23.421865 Si / 1000 Ang^3
#
#
#
# Elastic Constant Matrix: (Units=GPa)
#
#
# Indices 1 2 3 4 5 6 
#
# 1 182.5823 13.2318 34.0292 0.0000 0.0000 0.0000
# 2 13.2318 81.1772 -1.1757 0.0000 0.0000 0.0000
# 3 34.0292 -1.1757 57.9209 0.0000 0.0000 0.0000
# 4 0.0000 0.0000 0.0000 15.3961 0.0000 0.0000
# 5 0.0000 0.0000 0.0000 0.0000 101.8369 0.0000
# 6 0.0000 0.0000 0.0000 0.0000 0.0000 42.4725
#
#
#
# Elastic Compliance Matrix: (Units=1/GPa)
#
#
# Indices 1 2 3 4 5 6 
#
# 1 0.006242 -0.001071 -0.003689 0.000000 0.000000 0.000000
# 2 -0.001071 0.012506 0.000883 0.000000 0.000000 0.000000
# 3 -0.003689 0.000883 0.019450 0.000000 0.000000 0.000000
# 4 0.000000 0.000000 0.000000 0.064952 0.000000 0.000000
# 5 0.000000 0.000000 0.000000 0.000000 0.009820 0.000000
# 6 0.000000 0.000000 0.000000 0.000000 0.000000 0.023545
#
#
# Mechanical properties :
#
#
# Convention : Reuss Voigt Hill
#
# Bulk Modulus (GPa) = 32.84663 45.98345 39.41504
# Shear Modulus (GPa) = 32.38000 50.31410 41.34705
#
# Velocity S-wave (km/s) = 3.72219 4.63986 4.20613
# Velocity P-wave (km/s) = 5.70327 6.95555 6.36031
#
# Compressibility (1/GPa) = 0.03044452
#
# Stress axis : x y z
#
# Youngs Moduli (GPa) = 160.20126 79.96117 51.41332
#
# Poissons Ratio (x) = 0.08563 0.18967
# Poissons Ratio (y) = 0.17156 -0.04540
# Poissons Ratio (z) = 0.59099 -0.07061
#
# Static dielectric constant tensor:
#      x y z
#    x 1.937300 0.000000 0.000000 
#    y 0.000000 0.190090 0.000000 
#    z 0.000000 0.000000 1.903570 
# 
# From -- ./inp_files/27192.got.cif
#   From: 2010.05.17/outbox.cif.g08.bks.cpg/sg74_14_cif.got.tgz:27192.got - 2010.06.03 17:57:02.
