data_PCOD9537734
_publ_section_title
;
Structure prediction by ZEFSAII (Michael W. Deem and Ramdas Pophale) SiO2 
 PCOD9537734
Probable space group: I M M A
;
_chemical_formula_sum "Si O2"
_cell_formula_units_Z 88
_cell_length_a 18.949405
_cell_length_b 20.960748
_cell_length_c 11.295401
_cell_angle_alpha 90.000000
_cell_angle_beta 90.000000
_cell_angle_gamma 90.000000
_cell_volume 4486.462150
_symmetry_space_group_name_H-M "I M M A"
_symmetry_group_IT_number 74
_symmetry_cell_setting 'orthorhombic'
loop_
_space_group_symop_operation_xyz
x,y,z
-x,1/2-y,z
x,-y,-z
-x,1/2+y,-z
-x,-y,-z
x,1/2+y,-z
-x,y,z
x,1/2-y,z
1/2+x,1/2+y,1/2+z
1/2-x,-y,1/2+z
1/2+x,1/2-y,1/2-z
1/2-x,y,1/2-z
1/2-x,1/2-y,1/2-z
1/2+x,y,1/2-z
1/2-x,1/2+y,1/2+z
1/2+x,-y,1/2+z
loop_
_atom_site_type_symbol
_atom_site_label
_atom_site_fract_x
_atom_site_fract_y
_atom_site_fract_z
Si Si1 0.343884 0.051808 0.101937
Si Si2 0.147737 0.928200 0.055587
Si Si3 0.750000 0.963508 0.250000
Si Si4 0.000000 0.963775 0.128767
Si Si5 0.915798 0.323836 0.117767
Si Si6 0.500000 0.961238 0.875986
Si Si7 0.815955 0.182038 0.338211
O O1 0.306436 0.118996 0.084529
O O2 0.311403 0.012771 0.210596
O O3 0.424746 0.071055 0.118281
O O4 0.337497 0.000000 0.000000
O O5 0.213926 0.923118 0.144874
O O6 0.073974 0.927055 0.128365
O O7 0.130762 0.874597 0.956801
O O8 0.155244 0.000000 0.000000
O O9 0.000000 0.004187 0.248818
O O10 0.000000 0.000000 0.000000
O O11 0.909615 0.250000 0.074099
O O12 0.882575 0.322961 0.249039
O O13 0.000000 0.340656 0.116641
O O14 0.500000 0.000000 0.000000
O O15 0.819511 0.250000 0.402503
O O16 0.750000 0.183433 0.250000
#
# Coordination Sequence:
#
# PCOD9537734 Si02
#       7
#    16  16   8   8  16   8  16
#     4  11  23  37  58  85 118 159 207 251 303 373
#     4  11  22  35  58  87 122 155 199 261 312 368
#     4  12  22  34  56  86 120 154 202 250 310 370
#     4  10  20  34  57  89 115 157 203 256 316 366
#     4  10  22  39  62  91 122 158 200 256 319 376
#     4  10  22  40  55  83 127 163 201 260 316 370
#     4  10  22  38  58  87 126 163 196 250 321 379
#
# _framework density 19.614564000000001
#
# number of rings (size 3 to 8) (size 9 to 14) (size 15 to 20)
#    0.000    1.455    3.636    1.636    6.364    0.000 
#    0.000    0.455    0.000    1.091    0.000    1.273 
#    0.000    0.000    0.000    0.000    0.000    0.000 
#
# Total GULP energy -245024.021146 kJ/mol
# GULP energy per Si atom -5568.727753 kJ/mol
# Density = 1.956992 g / cm^3
# Si number density = 19.614564 Si / 1000 Ang^3
#
#
#
# Elastic Constant Matrix: (Units=GPa)
#
#
# Indices 1 2 3 4 5 6 
#
# 1 108.1898 19.7087 19.4264 0.0000 0.0000 0.0000
# 2 19.7087 137.3764 45.3071 0.0000 0.0000 0.0000
# 3 19.4264 45.3071 65.2592 0.0000 0.0000 0.0000
# 4 0.0000 0.0000 0.0000 26.9254 0.0000 0.0000
# 5 0.0000 0.0000 0.0000 0.0000 27.2157 0.0000
# 6 0.0000 0.0000 0.0000 0.0000 0.0000 16.3953
#
#
#
# Elastic Compliance Matrix: (Units=1/GPa)
#
#
# Indices 1 2 3 4 5 6 
#
# 1 0.009800 -0.000576 -0.002518 0.000000 0.000000 0.000000
# 2 -0.000576 0.009475 -0.006407 0.000000 0.000000 0.000000
# 3 -0.002518 -0.006407 0.020521 0.000000 0.000000 0.000000
# 4 0.000000 0.000000 0.000000 0.037140 0.000000 0.000000
# 5 0.000000 0.000000 0.000000 0.000000 0.036744 0.000000
# 6 0.000000 0.000000 0.000000 0.000000 0.000000 0.060993
#
#
# Mechanical properties :
#
#
# Convention : Reuss Voigt Hill
#
# Bulk Modulus (GPa) = 48.08664 53.30108 50.69386
# Shear Modulus (GPa) = 24.92477 29.19948 27.06213
#
# Velocity S-wave (km/s) = 3.56859 3.86251 3.71845
# Velocity P-wave (km/s) = 6.44584 6.86478 6.65860
#
# Compressibility (1/GPa) = 0.02079580
#
# Stress axis : x y z
#
# Youngs Moduli (GPa) = 102.04148 105.54331 48.73096
#
# Poissons Ratio (x) = 0.06075 0.12269
# Poissons Ratio (y) = 0.05874 0.31220
# Poissons Ratio (z) = 0.25690 0.67618
#
# Static dielectric constant tensor:
#      x y z
#    x 1.781990 0.000000 0.000000 
#    y 0.000000 1.708910 0.000000 
#    z 0.000000 0.000000 1.668120 
# 
# From -- ./inp_files/22266.got.cif
#   From: 2010.05.17/outbox.cif.g08.bks.cpg/sg74_12_cif.got.tgz:22266.got - 2010.06.03 17:57:02.
