data_PCOD9537962
_publ_section_title
;
Structure prediction by ZEFSAII (Michael W. Deem and Ramdas Pophale) SiO2 
 PCOD9537962
Probable space group: I M M A
;
_chemical_formula_sum "Si O2"
_cell_formula_units_Z 112
_cell_length_a 22.235279
_cell_length_b 13.669093
_cell_length_c 14.985158
_cell_angle_alpha 90.000000
_cell_angle_beta 90.000000
_cell_angle_gamma 90.000000
_cell_volume 4554.530428
_symmetry_space_group_name_H-M "I M M A"
_symmetry_group_IT_number 74
_symmetry_cell_setting 'orthorhombic'
loop_
_space_group_symop_operation_xyz
x,y,z
-x,1/2-y,z
x,-y,-z
-x,1/2+y,-z
-x,-y,-z
x,1/2+y,-z
-x,y,z
x,1/2-y,z
1/2+x,1/2+y,1/2+z
1/2-x,-y,1/2+z
1/2+x,1/2-y,1/2-z
1/2-x,y,1/2-z
1/2-x,1/2-y,1/2-z
1/2+x,y,1/2-z
1/2-x,1/2+y,1/2+z
1/2+x,-y,1/2+z
loop_
_atom_site_type_symbol
_atom_site_label
_atom_site_fract_x
_atom_site_fract_y
_atom_site_fract_z
Si Si1 0.094734 0.640476 0.060242
Si Si2 0.588881 0.070145 0.370637
Si Si3 0.845580 0.861292 0.347038
Si Si4 0.929509 0.358355 0.477451
Si Si5 0.239018 0.365617 0.957125
Si Si6 0.225597 0.130596 0.152156
Si Si7 0.433313 0.986566 0.807144
O O1 0.081805 0.750000 0.094739
O O2 0.071675 0.542489 0.107404
O O3 0.167666 0.625904 0.056900
O O4 0.072841 0.632256 0.957610
O O5 0.659878 0.086181 0.359521
O O6 0.564810 0.091270 0.272629
O O7 0.842404 0.750000 0.312223
O O8 0.885993 0.861295 0.437721
O O9 0.780489 0.900487 0.376057
O O10 0.882602 0.933861 0.285366
O O11 0.922646 0.250000 0.437836
O O12 0.917293 0.435797 0.400413
O O13 0.000000 0.369372 0.503237
O O14 0.252604 0.250000 0.957004
O O15 0.256447 0.399014 0.057411
O O16 0.221968 0.250000 0.149969
O O17 0.250000 0.104649 0.250000
O O18 0.500000 0.030237 0.814326
#
# Coordination Sequence:
#
# PCOD9537962 Si02
#       7
#    16  16  16  16  16  16  16
#     4   9  19  40  62  81 111 145 183 234 294 359
#     4  10  21  36  58  84 108 148 189 233 298 355
#     4  10  20  35  57  82 113 156 195 225 271 334
#     4   9  19  36  55  75 105 149 196 235 272 317
#     4   8  16  32  53  79 110 148 186 223 273 335
#     4   9  18  32  53  84 121 152 187 240 290 336
#     4  11  24  39  55  82 117 149 190 243 291 335
#
# _framework density 24.590899
#
# number of rings (size 3 to 8) (size 9 to 14) (size 15 to 20)
#    0.000    2.571    0.000    2.143    2.000    4.857 
#    7.714    1.429    0.000    3.857    0.000    0.000 
#    0.000    0.000    0.000    0.000    0.000    0.000 
#
# Total GULP energy -312792.061618 kJ/mol
# GULP energy per Si atom -5585.572529 kJ/mol
# Density = 2.453493 g / cm^3
# Si number density = 24.590899 Si / 1000 Ang^3
#
#
#
# Elastic Constant Matrix: (Units=GPa)
#
#
# Indices 1 2 3 4 5 6 
#
# 1 68.0751 6.8012 -0.8777 0.0000 0.0000 0.0000
# 2 6.8012 82.4126 -7.3330 0.0000 0.0000 0.0000
# 3 -0.8777 -7.3330 65.1200 0.0000 0.0000 0.0000
# 4 0.0000 0.0000 0.0000 23.0699 0.0000 0.0000
# 5 0.0000 0.0000 0.0000 0.0000 -78.2567 0.0000
# 6 0.0000 0.0000 0.0000 0.0000 0.0000 -1.4558
#
#
#
# Elastic Compliance Matrix: (Units=1/GPa)
#
#
# Indices 1 2 3 4 5 6 
#
# 1 0.014812 -0.001217 0.000063 0.000000 0.000000 0.000000
# 2 -0.001217 0.012357 0.001375 0.000000 0.000000 0.000000
# 3 0.000063 0.001375 0.015512 0.000000 0.000000 0.000000
# 4 0.000000 0.000000 0.000000 0.043346 0.000000 0.000000
# 5 0.000000 0.000000 0.000000 0.000000 -0.012778 0.000000
# 6 0.000000 0.000000 0.000000 0.000000 0.000000 -0.686917
#
#
# Mechanical properties :
#
#
# Convention : Reuss Voigt Hill
#
# Bulk Modulus (GPa) = 23.18969 23.64317 23.41643
# Shear Modulus (GPa) = -8.33700 3.13932 -2.59884
#
# Velocity S-wave (km/s) = -1.84327 1.13110 -1.02914
# Velocity P-wave (km/s) = 2.21821 3.36769 2.85147
#
# Compressibility (1/GPa) = 0.04312262
#
# Stress axis : x y z
#
# Youngs Moduli (GPa) = 67.51269 80.92682 64.46643
#
# Poissons Ratio (x) = 0.09847 -0.00404
# Poissons Ratio (y) = 0.08215 -0.08865
# Poissons Ratio (z) = -0.00423 -0.11128
#
# Static dielectric constant tensor:
#      x y z
#    x 1.984100 0.000000 0.000000 
#    y 0.000000 2.010680 0.000000 
#    z 0.000000 0.000000 1.938260 
# 
# From -- ./inp_files/36517.got.cif
#   From: 2010.05.17/outbox.cif.g08.bks.cpg/sg74_19_cif.got.tgz:36517.got - 2010.06.03 17:57:02.
