data_PCOD9537476
_publ_section_title
;
Structure prediction by ZEFSAII (Michael W. Deem and Ramdas Pophale) SiO2 
 PCOD9537476
Probable space group: I M M A
;
_chemical_formula_sum "Si O2"
_cell_formula_units_Z 104
_cell_length_a 9.424099
_cell_length_b 25.874470
_cell_length_c 22.091191
_cell_angle_alpha 90.000000
_cell_angle_beta 90.000000
_cell_angle_gamma 90.000000
_cell_volume 5386.794809
_symmetry_space_group_name_H-M "I M M A"
_symmetry_group_IT_number 74
_symmetry_cell_setting 'orthorhombic'
loop_
_space_group_symop_operation_xyz
x,y,z
-x,1/2-y,z
x,-y,-z
-x,1/2+y,-z
-x,-y,-z
x,1/2+y,-z
-x,y,z
x,1/2-y,z
1/2+x,1/2+y,1/2+z
1/2-x,-y,1/2+z
1/2+x,1/2-y,1/2-z
1/2-x,y,1/2-z
1/2-x,1/2-y,1/2-z
1/2+x,y,1/2-z
1/2-x,1/2+y,1/2+z
1/2+x,-y,1/2+z
loop_
_atom_site_type_symbol
_atom_site_label
_atom_site_fract_x
_atom_site_fract_y
_atom_site_fract_z
Si Si1 0.664082 0.191133 0.971615
Si Si2 0.333643 0.015266 0.068712
Si Si3 0.831883 0.750000 0.188567
Si Si4 0.672223 0.033130 0.685474
Si Si5 0.834491 0.807843 0.811978
Si Si6 0.657261 0.864737 0.903603
Si Si7 0.332743 0.141871 0.625821
O O1 0.500000 0.191111 0.951636
O O2 0.720085 0.250000 0.964057
O O3 0.745588 0.146182 0.935820
O O4 0.667322 0.175275 0.041382
O O5 0.500000 0.998440 0.075830
O O6 0.331045 0.077252 0.072549
O O7 0.241329 0.994604 0.125973
O O8 0.288182 0.000000 0.000000
O O9 0.750000 0.750000 0.250000
O O10 0.796337 0.696820 0.155460
O O11 0.000000 0.750000 0.198114
O O12 0.500000 0.024447 0.689328
O O13 0.750000 0.020749 0.750000
O O14 0.696822 0.093800 0.669357
O O15 0.808740 0.750000 0.837746
O O16 0.750000 0.811095 0.750000
O O17 0.777312 0.850987 0.856430
O O18 0.000000 0.813107 0.800586
O O19 0.500000 0.858868 0.875503
O O20 0.500000 0.140587 0.612317
#
# Coordination Sequence:
#
# PCOD9537476 Si02
#       7
#    16  16   8  16  16  16  16
#     4  10  20  34  56  87 119 153 193 236 286 345
#     4  10  22  42  66  90 118 157 203 253 308 362
#     4  10  20  34  52  76 108 144 183 226 271 324
#     4  11  24  41  63  90 120 158 203 252 305 361
#     4  10  21  37  58  85 117 154 192 232 286 349
#     4  10  21  37  59  86 115 149 192 241 291 347
#     4  10  21  37  56  81 115 153 191 235 288 341
#
# _framework density 19.306471999999999
#
# number of rings (size 3 to 8) (size 9 to 14) (size 15 to 20)
#    0.000    1.846    0.769    2.769    0.000    6.769 
#    0.000    0.000    0.000    0.000    0.000    0.000 
#    0.000    0.000    0.000    0.000    0.000    0.000 
#
# Total GULP energy -289940.008162 kJ/mol
# GULP energy per Si atom -5575.769388 kJ/mol
# Density = 1.926253 g / cm^3
# Si number density = 19.306472 Si / 1000 Ang^3
#
#
#
# Elastic Constant Matrix: (Units=GPa)
#
#
# Indices 1 2 3 4 5 6 
#
# 1 58.4071 30.6516 61.8007 0.0000 0.0000 0.0000
# 2 30.6516 54.7218 36.2328 0.0000 0.0000 0.0000
# 3 61.8007 36.2328 102.0154 0.0000 0.0000 0.0000
# 4 0.0000 0.0000 0.0000 18.5332 0.0000 0.0000
# 5 0.0000 0.0000 0.0000 0.0000 35.3337 0.0000
# 6 0.0000 0.0000 0.0000 0.0000 0.0000 26.5641
#
#
#
# Elastic Compliance Matrix: (Units=1/GPa)
#
#
# Indices 1 2 3 4 5 6 
#
# 1 0.052195 -0.010852 -0.027765 0.000000 0.000000 0.000000
# 2 -0.010852 0.026149 -0.002713 0.000000 0.000000 0.000000
# 3 -0.027765 -0.002713 0.027586 0.000000 0.000000 0.000000
# 4 0.000000 0.000000 0.000000 0.053957 0.000000 0.000000
# 5 0.000000 0.000000 0.000000 0.000000 0.028302 0.000000
# 6 0.000000 0.000000 0.000000 0.000000 0.000000 0.037645
#
#
# Mechanical properties :
#
#
# Convention : Reuss Voigt Hill
#
# Bulk Modulus (GPa) = 42.97508 52.50162 47.73835
# Shear Modulus (GPa) = 15.81022 21.85014 18.83018
#
# Velocity S-wave (km/s) = 2.86476 3.36780 3.12642
# Velocity P-wave (km/s) = 5.76630 6.50966 6.14922
#
# Compressibility (1/GPa) = 0.02326930
#
# Stress axis : x y z
#
# Youngs Moduli (GPa) = 19.15908 38.24170 36.25007
#
# Poissons Ratio (x) = 0.41500 1.00648
# Poissons Ratio (y) = 0.20792 0.09836
# Poissons Ratio (z) = 0.53195 0.10376
#
# Static dielectric constant tensor:
#      x y z
#    x 1.685730 0.000000 0.000000 
#    y 0.000000 1.700850 0.000000 
#    z 0.000000 0.000000 1.686290 
# 
# From -- ./inp_files/49258.got.cif
#   From: 2010.05.17/outbox.cif.g08.bks.cpg/sg74_25_cif.got.tgz:49258.got - 2010.06.03 17:57:02.
