data_PCOD9537825
_publ_section_title
;
Structure prediction by ZEFSAII (Michael W. Deem and Ramdas Pophale) SiO2 
 PCOD9537825
Probable space group: I M M A
;
_chemical_formula_sum "Si O2"
_cell_formula_units_Z 112
_cell_length_a 18.446360
_cell_length_b 28.511328
_cell_length_c 11.714532
_cell_angle_alpha 90.000000
_cell_angle_beta 90.000000
_cell_angle_gamma 90.000000
_cell_volume 6161.026396
_symmetry_space_group_name_H-M "I M M A"
_symmetry_group_IT_number 74
_symmetry_cell_setting 'orthorhombic'
loop_
_space_group_symop_operation_xyz
x,y,z
-x,1/2-y,z
x,-y,-z
-x,1/2+y,-z
-x,-y,-z
x,1/2+y,-z
-x,y,z
x,1/2-y,z
1/2+x,1/2+y,1/2+z
1/2-x,-y,1/2+z
1/2+x,1/2-y,1/2-z
1/2-x,y,1/2-z
1/2-x,1/2-y,1/2-z
1/2+x,y,1/2-z
1/2-x,1/2+y,1/2+z
1/2+x,-y,1/2+z
loop_
_atom_site_type_symbol
_atom_site_label
_atom_site_fract_x
_atom_site_fract_y
_atom_site_fract_z
Si Si1 0.583058 0.949734 0.320732
Si Si2 0.811327 0.804421 0.080359
Si Si3 0.810484 0.952539 0.574306
Si Si4 0.647332 0.304470 0.846229
Si Si5 0.584092 0.399136 0.915047
Si Si6 0.652359 0.453329 0.341099
Si Si7 0.918393 0.375582 0.024026
O O1 0.500000 0.965883 0.308582
O O2 0.605544 0.928496 0.198852
O O3 0.584905 0.908023 0.411238
O O4 0.627225 0.993835 0.366309
O O5 0.818323 0.750000 0.047697
O O6 0.725768 0.814501 0.095794
O O7 0.842581 0.809153 0.209414
O O8 0.856626 0.836895 0.995316
O O9 0.860040 0.914494 0.511891
O O10 0.725293 0.942089 0.588298
O O11 0.835362 0.955903 0.705397
O O12 0.818831 0.000000 0.500000
O O13 0.628427 0.250000 0.869283
O O14 0.592969 0.344255 0.887603
O O15 0.500000 0.409969 0.941718
O O16 0.597433 0.412205 0.374680
O O17 0.000000 0.355972 0.032959
#
# Coordination Sequence:
#
# PCOD9537825 Si02
#       7
#    16  16  16  16  16  16  16
#     4  10  20  35  54  80 114 151 187 230 285 339
#     4   9  18  33  54  83 116 150 190 240 292 343
#     4  11  23  40  57  81 110 148 196 237 280 336
#     4   9  18  34  56  83 114 151 193 238 293 350
#     4  11  22  36  57  85 117 153 191 235 291 345
#     4  11  23  38  57  80 111 150 197 237 278 335
#     4  11  21  34  54  82 115 151 187 232 291 345
#
# _framework density 18.178788999999998
#
# number of rings (size 3 to 8) (size 9 to 14) (size 15 to 20)
#    0.000    1.714    2.857    3.429    0.000    3.143 
#    0.000    1.429    0.000    0.857    0.000    6.000 
#    0.000    0.000    0.000    0.000    0.000    0.000 
#
# Total GULP energy -312388.862826 kJ/mol
# GULP energy per Si atom -5578.372550 kJ/mol
# Density = 1.813741 g / cm^3
# Si number density = 18.178789 Si / 1000 Ang^3
#
#
#
# Elastic Constant Matrix: (Units=GPa)
#
#
# Indices 1 2 3 4 5 6 
#
# 1 57.2000 38.0350 28.9200 0.0000 0.0000 0.0000
# 2 38.0350 77.0940 18.1286 0.0000 0.0000 0.0000
# 3 28.9200 18.1286 60.7032 -0.0004 -0.0002 -0.0001
# 4 0.0000 0.0000 -0.0004 23.5133 -0.0001 0.0000
# 5 0.0000 0.0000 -0.0002 -0.0001 22.7917 0.0000
# 6 0.0000 0.0000 -0.0001 0.0000 0.0000 23.6872
#
#
#
# Elastic Compliance Matrix: (Units=1/GPa)
#
#
# Indices 1 2 3 4 5 6 
#
# 1 0.031883 -0.013076 -0.011284 0.000000 0.000000 0.000000
# 2 -0.013076 0.019314 0.000462 0.000000 0.000000 0.000000
# 3 -0.011284 0.000462 0.021712 0.000000 0.000000 0.000000
# 4 0.000000 0.000000 0.000000 0.042529 0.000000 0.000000
# 5 0.000000 0.000000 0.000000 0.000000 0.043876 0.000000
# 6 0.000000 0.000000 0.000000 0.000000 0.000000 0.042217
#
#
# Mechanical properties :
#
#
# Convention : Reuss Voigt Hill
#
# Bulk Modulus (GPa) = 39.82349 40.57385 40.19867
# Shear Modulus (GPa) = 19.40256 21.32600 20.36428
#
# Velocity S-wave (km/s) = 3.27053 3.42881 3.35060
# Velocity P-wave (km/s) = 6.01797 6.16793 6.09341
#
# Compressibility (1/GPa) = 0.02511081
#
# Stress axis : x y z
#
# Youngs Moduli (GPa) = 31.36488 51.77640 46.05796
#
# Poissons Ratio (x) = 0.67704 0.51974
# Poissons Ratio (y) = 0.41013 -0.02127
# Poissons Ratio (z) = 0.35393 -0.02391
#
# Static dielectric constant tensor:
#      x y z
#    x 1.650970 0.000000 0.000000 
#    y 0.000000 1.619020 0.000000 
#    z 0.000000 0.000000 1.621870 
# 
# From -- ./inp_files/24179.got.cif
#   From: 2010.05.17/outbox.cif.g08.bks.cpg/sg74_13_cif.got.tgz:24179.got - 2010.06.03 17:57:02.
