data_PCOD9537959
_publ_section_title
;
Structure prediction by ZEFSAII (Michael W. Deem and Ramdas Pophale) SiO2 
 PCOD9537959
Probable space group: I M M A
;
_chemical_formula_sum "Si O2"
_cell_formula_units_Z 88
_cell_length_a 30.313099
_cell_length_b 9.140202
_cell_length_c 17.866268
_cell_angle_alpha 90.000000
_cell_angle_beta 90.000000
_cell_angle_gamma 90.000000
_cell_volume 4950.168428
_symmetry_space_group_name_H-M "I M M A"
_symmetry_group_IT_number 74
_symmetry_cell_setting 'orthorhombic'
loop_
_space_group_symop_operation_xyz
x,y,z
-x,1/2-y,z
x,-y,-z
-x,1/2+y,-z
-x,-y,-z
x,1/2+y,-z
-x,y,z
x,1/2-y,z
1/2+x,1/2+y,1/2+z
1/2-x,-y,1/2+z
1/2+x,1/2-y,1/2-z
1/2-x,y,1/2-z
1/2-x,1/2-y,1/2-z
1/2+x,y,1/2-z
1/2-x,1/2+y,1/2+z
1/2+x,-y,1/2+z
loop_
_atom_site_type_symbol
_atom_site_label
_atom_site_fract_x
_atom_site_fract_y
_atom_site_fract_z
Si Si1 0.948981 0.425713 0.418399
Si Si2 0.198632 0.578057 0.769610
Si Si3 0.880427 0.920770 0.306519
Si Si4 0.673869 0.078909 0.576586
Si Si5 0.000000 0.081130 0.078611
Si Si6 0.921361 0.587321 0.140757
O O1 0.944750 0.500000 0.500000
O O2 0.943314 0.250000 0.423346
O O3 0.912512 0.496309 0.364021
O O4 0.000000 0.453148 0.392974
O O5 0.186772 0.750000 0.773815
O O6 0.250000 0.565589 0.750000
O O7 0.166352 0.499327 0.709814
O O8 0.191868 0.501981 0.850000
O O9 0.874495 0.750000 0.327860
O O10 0.903832 0.922481 0.225217
O O11 0.686377 0.250000 0.576717
O O12 0.620885 0.072525 0.587153
O O13 0.686874 0.000000 0.500000
O O14 0.000000 0.250000 0.064224
O O15 0.957146 0.032794 0.123832
O O16 0.000000 0.000000 0.000000
O O17 0.940465 0.750000 0.129494
#
# Coordination Sequence:
#
# PCOD9537959 Si02
#       6
#    16  16  16  16   8  16
#     4  10  21  37  58  85 117 153 193 238 289 346
#     4  10  21  38  60  85 114 147 185 233 286 341
#     4  10  21  37  59  84 111 147 186 230 281 336
#     4  10  20  35  57  82 108 142 181 224 274 328
#     4  12  24  34  48  70 101 140 179 220 264 306
#     4   9  20  36  52  74 104 140 179 219 264 314
#
# _framework density 17.777173000000001
#
# number of rings (size 3 to 8) (size 9 to 14) (size 15 to 20)
#    0.000    2.000    0.000    4.636    1.273    8.364 
#    0.000    0.909    0.000    4.364    0.000    0.000 
#    0.000    0.000    0.000    0.000    0.000    0.000 
#
# Total GULP energy -245567.893506 kJ/mol
# GULP energy per Si atom -5581.088489 kJ/mol
# Density = 1.773671 g / cm^3
# Si number density = 17.777173 Si / 1000 Ang^3
#
#
#
# Elastic Constant Matrix: (Units=GPa)
#
#
# Indices 1 2 3 4 5 6 
#
# 1 87.0499 73.4373 41.6819 0.0000 0.0000 0.0000
# 2 73.4373 166.8188 52.8026 0.0000 0.0000 0.0000
# 3 41.6819 52.8026 73.9863 0.0000 0.0000 0.0000
# 4 0.0000 0.0000 0.0000 34.2113 0.0000 0.0000
# 5 0.0000 0.0000 0.0000 0.0000 15.1269 0.0000
# 6 0.0000 0.0000 0.0000 0.0000 0.0000 28.4654
#
#
#
# Elastic Compliance Matrix: (Units=1/GPa)
#
#
# Indices 1 2 3 4 5 6 
#
# 1 0.020498 -0.006935 -0.006599 0.000000 0.000000 0.000000
# 2 -0.006935 0.010090 -0.003294 0.000000 0.000000 0.000000
# 3 -0.006599 -0.003294 0.019584 0.000000 0.000000 0.000000
# 4 0.000000 0.000000 0.000000 0.029230 0.000000 0.000000
# 5 0.000000 0.000000 0.000000 0.000000 0.066107 0.000000
# 6 0.000000 0.000000 0.000000 0.000000 0.000000 0.035130
#
#
# Mechanical properties :
#
#
# Convention : Reuss Voigt Hill
#
# Bulk Modulus (GPa) = 60.54369 73.74428 67.14399
# Shear Modulus (GPa) = 22.74784 26.22294 24.48539
#
# Velocity S-wave (km/s) = 3.58104 3.84486 3.71529
# Velocity P-wave (km/s) = 7.15747 7.82836 7.50042
#
# Compressibility (1/GPa) = 0.01651700
#
# Stress axis : x y z
#
# Youngs Moduli (GPa) = 48.78604 99.10682 51.06090
#
# Poissons Ratio (x) = 0.68730 0.33693
# Poissons Ratio (y) = 0.33833 0.16820
# Poissons Ratio (z) = 0.32192 0.32648
#
# Static dielectric constant tensor:
#      x y z
#    x 1.598230 0.000000 0.000000 
#    y 0.000000 1.609580 0.000000 
#    z 0.000000 0.000000 1.581310 
# 
# From -- ./inp_files/47004.got.cif
#   From: 2010.05.17/outbox.cif.g08.bks.cpg/sg74_24_cif.got.tgz:47004.got - 2010.06.03 17:57:02.
