data_PCOD9537831
_publ_section_title
;
Structure prediction by ZEFSAII (Michael W. Deem and Ramdas Pophale) SiO2 
 PCOD9537831
Probable space group: I M M A
;
_chemical_formula_sum "Si O2"
_cell_formula_units_Z 96
_cell_length_a 15.611520
_cell_length_b 15.851932
_cell_length_c 18.955250
_cell_angle_alpha 90.000000
_cell_angle_beta 90.000000
_cell_angle_gamma 90.000000
_cell_volume 4690.907910
_symmetry_space_group_name_H-M "I M M A"
_symmetry_group_IT_number 74
_symmetry_cell_setting 'orthorhombic'
loop_
_space_group_symop_operation_xyz
x,y,z
-x,1/2-y,z
x,-y,-z
-x,1/2+y,-z
-x,-y,-z
x,1/2+y,-z
-x,y,z
x,1/2-y,z
1/2+x,1/2+y,1/2+z
1/2-x,-y,1/2+z
1/2+x,1/2-y,1/2-z
1/2-x,y,1/2-z
1/2-x,1/2-y,1/2-z
1/2+x,y,1/2-z
1/2-x,1/2+y,1/2+z
1/2+x,-y,1/2+z
loop_
_atom_site_type_symbol
_atom_site_label
_atom_site_fract_x
_atom_site_fract_y
_atom_site_fract_z
Si Si1 0.643009 0.343020 0.405266
Si Si2 0.149239 0.521798 0.262341
Si Si3 0.103095 0.341347 0.256449
Si Si4 0.758724 0.594912 0.481312
Si Si5 0.403537 0.654382 0.120957
Si Si6 0.093422 0.031909 0.898540
O O1 0.606407 0.250000 0.423978
O O2 0.648062 0.342503 0.320447
O O3 0.729952 0.355448 0.448942
O O4 0.597049 0.432694 0.420826
O O5 0.250000 0.532309 0.250000
O O6 0.131860 0.427675 0.291958
O O7 0.114413 0.589646 0.316385
O O8 0.105202 0.530867 0.185962
O O9 0.121841 0.250000 0.289762
O O10 0.000000 0.345473 0.244634
O O11 0.786862 0.500000 0.500000
O O12 0.832224 0.639703 0.437944
O O13 0.672938 0.580630 0.433491
O O14 0.500000 0.641730 0.093631
O O15 0.396967 0.750000 0.147676
O O16 0.000000 0.066455 0.916844
#
# Coordination Sequence:
#
# PCOD9537831 Si02
#       6
#    16  16  16  16  16  16
#     4   9  17  30  52  80 112 147 182 219 270 336
#     4  11  20  36  60  83 115 155 191 241 291 346
#     4   9  18  33  56  88 122 154 188 229 286 356
#     4  10  21  37  58  84 114 149 190 239 289 340
#     4  11  24  42  63  85 111 152 203 248 291 340
#     4  10  20  35  54  82 116 149 186 230 285 347
#
# _framework density 20.465121
#
# number of rings (size 3 to 8) (size 9 to 14) (size 15 to 20)
#    0.000    2.000    1.667    3.500    0.000    5.667 
#    0.000    0.000    0.000    2.500    0.000    2.333 
#    0.000    0.000    0.000    0.000    0.000    0.000 
#
# Total GULP energy -267834.604014 kJ/mol
# GULP energy per Si atom -5579.887584 kJ/mol
# Density = 2.041854 g / cm^3
# Si number density = 20.465121 Si / 1000 Ang^3
#
#
#
# Elastic Constant Matrix: (Units=GPa)
#
#
# Indices 1 2 3 4 5 6 
#
# 1 118.5540 61.4327 29.9144 0.0000 0.0000 0.0000
# 2 61.4327 110.7704 22.3301 0.0000 0.0000 0.0000
# 3 29.9144 22.3301 42.4687 0.0000 0.0000 0.0000
# 4 0.0000 0.0000 0.0000 18.8901 0.0000 0.0000
# 5 0.0000 0.0000 0.0000 0.0000 6.4809 0.0000
# 6 0.0000 0.0000 0.0000 0.0000 0.0000 8.0003
#
#
#
# Elastic Compliance Matrix: (Units=1/GPa)
#
#
# Indices 1 2 3 4 5 6 
#
# 1 0.013091 -0.006042 -0.006044 0.000000 0.000000 0.000000
# 2 -0.006042 0.012886 -0.002520 0.000000 0.000000 0.000000
# 3 -0.006044 -0.002520 0.029129 0.000000 0.000000 0.000000
# 4 0.000000 0.000000 0.000000 0.052938 0.000000 0.000000
# 5 0.000000 0.000000 0.000000 0.000000 0.154299 0.000000
# 6 0.000000 0.000000 0.000000 0.000000 0.000000 0.124996
#
#
# Mechanical properties :
#
#
# Convention : Reuss Voigt Hill
#
# Bulk Modulus (GPa) = 38.61812 55.46084 47.03948
# Shear Modulus (GPa) = 11.75965 17.21531 14.48748
#
# Velocity S-wave (km/s) = 2.39972 2.90350 2.66355
# Velocity P-wave (km/s) = 5.15649 6.19672 5.70039
#
# Compressibility (1/GPa) = 0.02589458
#
# Stress axis : x y z
#
# Youngs Moduli (GPa) = 76.38971 77.60153 34.32969
#
# Poissons Ratio (x) = 0.46884 0.20750
# Poissons Ratio (y) = 0.46152 0.08651
# Poissons Ratio (z) = 0.46172 0.19556
#
# Static dielectric constant tensor:
#      x y z
#    x 1.744740 0.000000 0.000000 
#    y 0.000000 1.754320 0.000000 
#    z 0.000000 0.000000 1.727120 
# 
# From -- ./inp_files/51934.got.cif
#   From: 2010.05.17/outbox.cif.g08.bks.cpg/sg74_26_cif.got.tgz:51934.got - 2010.06.03 17:57:02.
