data_PCOD9537108
_publ_section_title
;
Structure prediction by ZEFSAII (Michael W. Deem and Ramdas Pophale) SiO2 
 PCOD9537108
Probable space group: I M M A
;
_chemical_formula_sum "Si O2"
_cell_formula_units_Z 112
_cell_length_a 29.568616
_cell_length_b 14.019493
_cell_length_c 14.230326
_cell_angle_alpha 90.000000
_cell_angle_beta 90.000000
_cell_angle_gamma 90.000000
_cell_volume 5898.996721
_symmetry_space_group_name_H-M "I M M A"
_symmetry_group_IT_number 74
_symmetry_cell_setting 'orthorhombic'
loop_
_space_group_symop_operation_xyz
x,y,z
-x,1/2-y,z
x,-y,-z
-x,1/2+y,-z
-x,-y,-z
x,1/2+y,-z
-x,y,z
x,1/2-y,z
1/2+x,1/2+y,1/2+z
1/2-x,-y,1/2+z
1/2+x,1/2-y,1/2-z
1/2-x,y,1/2-z
1/2-x,1/2-y,1/2-z
1/2+x,y,1/2-z
1/2-x,1/2+y,1/2+z
1/2+x,-y,1/2+z
loop_
_atom_site_type_symbol
_atom_site_label
_atom_site_fract_x
_atom_site_fract_y
_atom_site_fract_z
Si Si1 0.772020 0.025986 0.891521
Si Si2 0.949926 0.357150 0.745112
Si Si3 0.363374 0.553864 0.281959
Si Si4 0.552137 0.533268 0.900044
Si Si5 0.205752 0.357191 0.389260
Si Si6 0.884059 0.645084 0.729699
Si Si7 0.683246 0.862295 0.101200
O O1 0.817421 0.055319 0.839939
O O2 0.735211 0.109478 0.878323
O O3 0.744268 0.931459 0.860781
O O4 0.781583 0.000000 0.000000
O O5 0.947139 0.250000 0.705170
O O6 0.904728 0.375765 0.805139
O O7 0.948161 0.440222 0.667092
O O8 0.000000 0.365110 0.790508
O O9 0.383354 0.447537 0.294709
O O10 0.347902 0.578334 0.173660
O O11 0.500000 0.563794 0.912723
O O12 0.580952 0.616200 0.852128
O O13 0.570674 0.500000 0.000000
O O14 0.224317 0.250000 0.401469
O O15 0.166106 0.354304 0.313816
O O16 0.182102 0.384157 0.489254
O O17 0.893999 0.750000 0.768084
O O18 0.674241 0.750000 0.114586
#
# Coordination Sequence:
#
# PCOD9537108 Si02
#       7
#    16  16  16  16  16  16  16
#     4  10  21  36  52  73 104 134 168 212 266 312
#     4   9  19  35  53  75 104 136 170 213 265 313
#     4  11  21  33  54  77 100 133 176 218 255 305
#     4   9  19  32  48  72 102 136 175 215 253 298
#     4   9  19  34  50  71 102 141 174 206 249 298
#     4  10  21  32  48  71  98 135 179 214 249 295
#     4  10  20  32  50  75 104 136 169 207 251 300
#
# _framework density 18.986279
#
# number of rings (size 3 to 8) (size 9 to 14) (size 15 to 20)
#    0.000    2.286    1.429    0.857    4.000    3.143 
#    0.000    2.857    0.000    0.429    0.000    0.000 
#    0.000    0.000    0.000    0.000    0.000    0.000 
#
# Total GULP energy -311930.508760 kJ/mol
# GULP energy per Si atom -5570.187656 kJ/mol
# Density = 1.894307 g / cm^3
# Si number density = 18.986279 Si / 1000 Ang^3
#
#
#
# Elastic Constant Matrix: (Units=GPa)
#
#
# Indices 1 2 3 4 5 6 
#
# 1 98.0095 7.0332 11.3101 0.0000 0.0000 0.0000
# 2 7.0332 91.2066 -3.0008 0.0000 0.0000 0.0000
# 3 11.3101 -3.0008 21.4976 0.0000 0.0000 0.0000
# 4 0.0000 0.0000 0.0000 5.9802 0.0000 0.0000
# 5 0.0000 0.0000 0.0000 0.0000 15.5593 0.0000
# 6 0.0000 0.0000 0.0000 0.0000 0.0000 15.1645
#
#
#
# Elastic Compliance Matrix: (Units=1/GPa)
#
#
# Indices 1 2 3 4 5 6 
#
# 1 0.010960 -0.001040 -0.005911 0.000000 0.000000 0.000000
# 2 -0.001040 0.011113 0.002098 0.000000 0.000000 0.000000
# 3 -0.005911 0.002098 0.049919 0.000000 0.000000 0.000000
# 4 0.000000 0.000000 0.000000 0.167219 0.000000 0.000000
# 5 0.000000 0.000000 0.000000 0.000000 0.064270 0.000000
# 6 0.000000 0.000000 0.000000 0.000000 0.000000 0.065944
#
#
# Mechanical properties :
#
#
# Convention : Reuss Voigt Hill
#
# Bulk Modulus (GPa) = 16.05458 26.82208 21.43833
# Shear Modulus (GPa) = 12.50334 20.36555 16.43445
#
# Velocity S-wave (km/s) = 2.56900 3.27868 2.94529
# Velocity P-wave (km/s) = 4.15619 5.33767 4.78355
#
# Compressibility (1/GPa) = 0.06228750
#
# Stress axis : x y z
#
# Youngs Moduli (GPa) = 91.24233 89.98217 20.03225
#
# Poissons Ratio (x) = 0.09355 0.11841
# Poissons Ratio (y) = 0.09486 -0.04203
# Poissons Ratio (z) = 0.53935 -0.18880
#
# Static dielectric constant tensor:
#      x y z
#    x 1.688620 0.000000 0.000000 
#    y 0.000000 1.698710 0.000000 
#    z 0.000000 0.000000 1.688680 
# 
# From -- ./inp_files/37951.got.cif
#   From: 2010.05.17/outbox.cif.g08.bks.cpg/sg74_19_cif.got.tgz:37951.got - 2010.06.03 17:57:02.
