data_PCOD9537900
_publ_section_title
;
Structure prediction by ZEFSAII (Michael W. Deem and Ramdas Pophale) SiO2 
 PCOD9537900
Probable space group: I M M A
;
_chemical_formula_sum "Si O2"
_cell_formula_units_Z 104
_cell_length_a 20.446762
_cell_length_b 9.097538
_cell_length_c 32.688380
_cell_angle_alpha 90.000000
_cell_angle_beta 90.000000
_cell_angle_gamma 90.000000
_cell_volume 6080.535356
_symmetry_space_group_name_H-M "I M M A"
_symmetry_group_IT_number 74
_symmetry_cell_setting 'orthorhombic'
loop_
_space_group_symop_operation_xyz
x,y,z
-x,1/2-y,z
x,-y,-z
-x,1/2+y,-z
-x,-y,-z
x,1/2+y,-z
-x,y,z
x,1/2-y,z
1/2+x,1/2+y,1/2+z
1/2-x,-y,1/2+z
1/2+x,1/2-y,1/2-z
1/2-x,y,1/2-z
1/2-x,1/2-y,1/2-z
1/2+x,y,1/2-z
1/2-x,1/2+y,1/2+z
1/2+x,-y,1/2+z
loop_
_atom_site_type_symbol
_atom_site_label
_atom_site_fract_x
_atom_site_fract_y
_atom_site_fract_z
Si Si1 0.575953 0.575335 0.677638
Si Si2 0.236085 0.576104 0.956922
Si Si3 0.329381 0.576008 0.160118
Si Si4 0.877594 0.920543 0.580002
Si Si5 0.688310 0.424334 0.626464
Si Si6 0.500000 0.922545 0.043359
Si Si7 0.424848 0.924579 0.234970
O O1 0.500000 0.546950 0.666866
O O2 0.586930 0.750000 0.676803
O O3 0.625415 0.494954 0.647393
O O4 0.585492 0.514094 0.723515
O O5 0.220840 0.750000 0.957783
O O6 0.314027 0.561402 0.948699
O O7 0.203783 0.499883 0.917193
O O8 0.219269 0.500000 0.000000
O O9 0.341104 0.750000 0.150752
O O10 0.357116 0.471784 0.124955
O O11 0.251117 0.554977 0.156729
O O12 0.368919 0.543942 0.201569
O O13 0.897152 0.750000 0.579035
O O14 0.935893 0.023350 0.566321
O O15 0.680561 0.250000 0.620514
O O16 0.500000 0.750000 0.038422
O O17 0.500000 0.000000 0.000000
O O18 0.500000 0.953710 0.220220
O O19 0.421474 0.750000 0.244074
#
# Coordination Sequence:
#
# PCOD9537900 Si02
#       7
#    16  16  16  16  16   8  16
#     4  10  21  37  56  79 107 139 177 220 269 322
#     4  10  20  35  56  80 108 139 175 217 263 317
#     4   9  19  34  52  78 108 141 181 224 270 316
#     4  10  21  35  51  74 103 138 179 224 272 320
#     4  10  20  35  56  81 110 141 177 219 266 321
#     4  12  24  36  50  68  96 134 180 230 278 326
#     4   9  18  33  53  76 105 143 186 224 265 318
#
# _framework density 17.103757000000002
#
# number of rings (size 3 to 8) (size 9 to 14) (size 15 to 20)
#    0.000    2.154    0.000    3.000    1.077    5.846 
#    0.000    3.077    0.000    0.462    0.000    0.000 
#    0.000    0.000    0.000    0.000    0.000    0.000 
#
# Total GULP energy -290119.797972 kJ/mol
# GULP energy per Si atom -5579.226884 kJ/mol
# Density = 1.706483 g / cm^3
# Si number density = 17.103757 Si / 1000 Ang^3
#
#
#
# Elastic Constant Matrix: (Units=GPa)
#
#
# Indices 1 2 3 4 5 6 
#
# 1 98.3525 80.6299 74.5206 0.0000 0.0000 0.0000
# 2 80.6299 117.6123 69.9525 0.0000 0.0000 0.0000
# 3 74.5206 69.9525 97.3845 0.0000 0.0000 0.0000
# 4 0.0000 0.0000 0.0000 30.1157 0.0000 0.0000
# 5 0.0000 0.0000 0.0000 0.0000 10.9245 0.0000
# 6 0.0000 0.0000 0.0000 0.0000 0.0000 26.5918
#
#
#
# Elastic Compliance Matrix: (Units=1/GPa)
#
#
# Indices 1 2 3 4 5 6 
#
# 1 0.032867 -0.013223 -0.015653 0.000000 0.000000 0.000000
# 2 -0.013223 0.020164 -0.004366 0.000000 0.000000 0.000000
# 3 -0.015653 -0.004366 0.025383 0.000000 0.000000 0.000000
# 4 0.000000 0.000000 0.000000 0.033205 0.000000 0.000000
# 5 0.000000 0.000000 0.000000 0.000000 0.091538 0.000000
# 6 0.000000 0.000000 0.000000 0.000000 0.000000 0.037606
#
#
# Mechanical properties :
#
#
# Convention : Reuss Voigt Hill
#
# Bulk Modulus (GPa) = 83.81305 84.83947 84.32626
# Shear Modulus (GPa) = 16.06568 19.40949 17.73758
#
# Velocity S-wave (km/s) = 3.06814 3.37235 3.22383
# Velocity P-wave (km/s) = 7.85241 8.05445 7.95407
#
# Compressibility (1/GPa) = 0.01193132
#
# Stress axis : x y z
#
# Youngs Moduli (GPa) = 30.42519 49.59316 39.39713
#
# Poissons Ratio (x) = 0.65575 0.61668
# Poissons Ratio (y) = 0.40230 0.17200
# Poissons Ratio (z) = 0.47624 0.21652
#
# Static dielectric constant tensor:
#      x y z
#    x 1.572330 0.000000 0.000000 
#    y 0.000000 1.565670 0.000000 
#    z 0.000000 0.000000 1.619620 
# 
# From -- ./inp_files/73378.got.cif
#   From: 2010.05.17/outbox.cif.g08.bks.cpg/sg74_37_cif.got.tgz:73378.got - 2010.06.03 17:57:02.
