data_PCOD9537765
_publ_section_title
;
Structure prediction by ZEFSAII (Michael W. Deem and Ramdas Pophale) SiO2 
 PCOD9537765
Probable space group: I M M A
;
_chemical_formula_sum "Si O2"
_cell_formula_units_Z 80
_cell_length_a 14.583146
_cell_length_b 13.766438
_cell_length_c 22.766668
_cell_angle_alpha 90.000000
_cell_angle_beta 90.000000
_cell_angle_gamma 90.000000
_cell_volume 4570.590171
_symmetry_space_group_name_H-M "I M M A"
_symmetry_group_IT_number 74
_symmetry_cell_setting 'orthorhombic'
loop_
_space_group_symop_operation_xyz
x,y,z
-x,1/2-y,z
x,-y,-z
-x,1/2+y,-z
-x,-y,-z
x,1/2+y,-z
-x,y,z
x,1/2-y,z
1/2+x,1/2+y,1/2+z
1/2-x,-y,1/2+z
1/2+x,1/2-y,1/2-z
1/2-x,y,1/2-z
1/2-x,1/2-y,1/2-z
1/2+x,y,1/2-z
1/2-x,1/2+y,1/2+z
1/2+x,-y,1/2+z
loop_
_atom_site_type_symbol
_atom_site_label
_atom_site_fract_x
_atom_site_fract_y
_atom_site_fract_z
Si Si1 0.896554 0.979738 0.080231
Si Si2 0.134833 0.136595 0.805524
Si Si3 0.209890 0.364906 0.017817
Si Si4 0.397391 0.367872 0.953831
Si Si5 0.645560 0.362677 0.823371
O O1 0.827787 0.070183 0.071225
O O2 0.000000 0.008722 0.064450
O O3 0.899750 0.932945 0.143981
O O4 0.855900 0.898251 0.036000
O O5 0.106532 0.250000 0.811412
O O6 0.244679 0.136971 0.816107
O O7 0.111646 0.100312 0.739835
O O8 0.204326 0.250000 0.027687
O O9 0.312967 0.391104 0.996789
O O10 0.500000 0.395089 0.972954
O O11 0.394552 0.250000 0.950232
O O12 0.380651 0.404778 0.886855
O O13 0.615847 0.250000 0.824762
#
# Coordination Sequence:
#
# PCOD9537765 Si02
#       5
#    16  16  16  16  16
#     4  11  22  32  47  71  96 129 173 206 237 288
#     4   9  16  28  47  71 102 135 160 191 238 290
#     4  10  20  35  49  65  98 132 160 204 249 284
#     4   9  16  28  49  73  96 125 158 193 240 298
#     4   8  14  26  46  71  99 132 158 184 237 297
#
# _framework density 17.503209999999999
#
# number of rings (size 3 to 8) (size 9 to 14) (size 15 to 20)
#    0.000    2.600    2.000    3.000    0.000    3.600 
#    0.000    4.000    0.000    0.000    0.000    2.800 
#    0.000    0.000    0.000    0.000    0.000    0.000 
#
# Total GULP energy -222732.269314 kJ/mol
# GULP energy per Si atom -5568.306733 kJ/mol
# Density = 1.746337 g / cm^3
# Si number density = 17.503210 Si / 1000 Ang^3
#
#
#
# Elastic Constant Matrix: (Units=GPa)
#
#
# Indices 1 2 3 4 5 6 
#
# 1 133.2356 27.7237 41.5198 0.0000 0.0000 0.0000
# 2 27.7237 85.4322 39.9071 0.0000 0.0000 0.0000
# 3 41.5198 39.9071 75.8899 0.0000 0.0000 0.0000
# 4 0.0000 0.0000 0.0000 24.9751 0.0000 0.0000
# 5 0.0000 0.0000 0.0000 0.0000 0.5517 0.0000
# 6 0.0000 0.0000 0.0000 0.0000 0.0000 11.0380
#
#
#
# Elastic Compliance Matrix: (Units=1/GPa)
#
#
# Indices 1 2 3 4 5 6 
#
# 1 0.009092 -0.000831 -0.004538 0.000000 0.000000 0.000000
# 2 -0.000831 0.015593 -0.007745 0.000000 0.000000 0.000000
# 3 -0.004538 -0.007745 0.019732 0.000000 0.000000 0.000000
# 4 0.000000 0.000000 0.000000 0.040040 0.000000 0.000000
# 5 0.000000 0.000000 0.000000 0.000000 1.812688 0.000000
# 6 0.000000 0.000000 0.000000 0.000000 0.000000 0.090596
#
#
# Mechanical properties :
#
#
# Convention : Reuss Voigt Hill
#
# Bulk Modulus (GPa) = 54.97380 56.98432 55.97906
# Shear Modulus (GPa) = 2.47521 19.67342 11.07432
#
# Velocity S-wave (km/s) = 1.19047 3.35623 2.51809
# Velocity P-wave (km/s) = 5.77630 6.90262 6.36443
#
# Compressibility (1/GPa) = 0.01819048
#
# Stress axis : x y z
#
# Youngs Moduli (GPa) = 109.98152 64.13290 50.67871
#
# Poissons Ratio (x) = 0.05330 0.22996
# Poissons Ratio (y) = 0.09140 0.39250
# Poissons Ratio (z) = 0.49904 0.49670
#
# Static dielectric constant tensor:
#      x y z
#    x 1.663630 0.000000 0.000000 
#    y 0.000000 1.588310 0.000000 
#    z 0.000000 0.000000 1.635000 
# 
# From -- ./inp_files/51657.got.cif
#   From: 2010.05.17/outbox.cif.g08.bks.cpg/sg74_26_cif.got.tgz:51657.got - 2010.06.03 17:57:02.
