data_PCOD9537535
_publ_section_title
;
Structure prediction by ZEFSAII (Michael W. Deem and Ramdas Pophale) SiO2 
 PCOD9537535
Probable space group: I M M A
;
_chemical_formula_sum "Si O2"
_cell_formula_units_Z 96
_cell_length_a 7.938728
_cell_length_b 20.995908
_cell_length_c 28.855661
_cell_angle_alpha 90.000000
_cell_angle_beta 90.000000
_cell_angle_gamma 90.000000
_cell_volume 4809.684739
_symmetry_space_group_name_H-M "I M M A"
_symmetry_group_IT_number 74
_symmetry_cell_setting 'orthorhombic'
loop_
_space_group_symop_operation_xyz
x,y,z
-x,1/2-y,z
x,-y,-z
-x,1/2+y,-z
-x,-y,-z
x,1/2+y,-z
-x,y,z
x,1/2-y,z
1/2+x,1/2+y,1/2+z
1/2-x,-y,1/2+z
1/2+x,1/2-y,1/2-z
1/2-x,y,1/2-z
1/2-x,1/2-y,1/2-z
1/2+x,y,1/2-z
1/2-x,1/2+y,1/2+z
1/2+x,-y,1/2+z
loop_
_atom_site_type_symbol
_atom_site_label
_atom_site_fract_x
_atom_site_fract_y
_atom_site_fract_z
Si Si1 0.699482 0.936879 0.696538
Si Si2 0.297052 0.678304 0.302845
Si Si3 0.703563 0.177233 0.025557
Si Si4 0.798583 0.056018 0.966961
Si Si5 0.792820 0.058185 0.861447
Si Si6 0.202813 0.821944 0.630846
O O1 0.500000 0.942461 0.695422
O O2 0.750000 0.934517 0.750000
O O3 0.746331 0.873814 0.668188
O O4 0.767070 0.998832 0.669470
O O5 0.500000 0.679863 0.305442
O O6 0.234113 0.750000 0.312564
O O7 0.250000 0.662085 0.250000
O O8 0.237599 0.624085 0.337812
O O9 0.500000 0.176543 0.025206
O O10 0.756919 0.250000 0.015055
O O11 0.759756 0.161955 0.078368
O O12 0.765082 0.124097 0.990281
O O13 0.734834 0.052387 0.914406
O O14 0.000000 0.047478 0.964288
O O15 0.730142 0.000000 0.000000
O O16 0.000000 0.058186 0.861550
O O17 0.261577 0.750000 0.641609
O O18 0.000000 0.820335 0.629564
#
# Coordination Sequence:
#
# PCOD9537535 Si02
#       6
#    16  16  16  16  16  16
#     4  11  22  36  55  78 106 138 174 218 263 310
#     4   9  17  31  51  72  96 128 165 204 247 296
#     4   9  19  36  56  79 108 140 175 217 264 314
#     4  10  20  34  53  78 107 138 175 217 259 309
#     4   9  19  34  51  74 104 137 172 210 253 303
#     4   9  19  37  58  78 104 138 174 213 258 310
#
# _framework density 19.959727000000001
#
# number of rings (size 3 to 8) (size 9 to 14) (size 15 to 20)
#    0.000    2.500    0.000    3.000    0.000    4.000 
#    0.000    6.667    0.000    2.000    0.000    0.000 
#    0.000    0.000    0.000    0.000    0.000    0.000 
#
# Total GULP energy -267956.951449 kJ/mol
# GULP energy per Si atom -5582.436489 kJ/mol
# Density = 1.991430 g / cm^3
# Si number density = 19.959727 Si / 1000 Ang^3
#
#
#
# Elastic Constant Matrix: (Units=GPa)
#
#
# Indices 1 2 3 4 5 6 
#
# 1 12.8813 -6.4536 -5.7697 0.0000 0.0000 0.0000
# 2 -6.4536 85.7737 51.8016 0.0000 0.0000 0.0000
# 3 -5.7697 51.8016 84.7298 0.0000 0.0000 0.0000
# 4 0.0000 0.0000 0.0000 42.4325 0.0000 0.0000
# 5 0.0000 0.0000 0.0000 0.0000 20.8310 0.0000
# 6 0.0000 0.0000 0.0000 0.0000 0.0000 3.7102
#
#
#
# Elastic Compliance Matrix: (Units=1/GPa)
#
#
# Indices 1 2 3 4 5 6 
#
# 1 0.081102 0.004386 0.002841 0.000000 0.000000 0.000000
# 2 0.004386 0.018720 -0.011146 0.000000 0.000000 0.000000
# 3 0.002841 -0.011146 0.018810 0.000000 0.000000 0.000000
# 4 0.000000 0.000000 0.000000 0.023567 0.000000 0.000000
# 5 0.000000 0.000000 0.000000 0.000000 0.048005 0.000000
# 6 0.000000 0.000000 0.000000 0.000000 0.000000 0.269524
#
#
# Mechanical properties :
#
#
# Convention : Reuss Voigt Hill
#
# Bulk Modulus (GPa) = 9.02576 29.17128 19.09852
# Shear Modulus (GPa) = 9.91083 22.98186 16.44635
#
# Velocity S-wave (km/s) = 2.23074 3.39693 2.87361
# Velocity P-wave (km/s) = 3.34167 5.48017 4.53867
#
# Compressibility (1/GPa) = 0.11079401
#
# Stress axis : x y z
#
# Youngs Moduli (GPa) = 12.33020 53.41788 53.16233
#
# Poissons Ratio (x) = -0.23431 -0.15103
# Poissons Ratio (y) = -0.05408 0.59257
# Poissons Ratio (z) = -0.03503 0.59542
#
# Static dielectric constant tensor:
#      x y z
#    x 1.726830 0.000000 0.000000 
#    y 0.000000 1.705010 0.000000 
#    z 0.000000 0.000000 1.570890 
# 
# From -- ./inp_files/64267.got.cif
#   From: 2010.05.17/outbox.cif.g08.bks.cpg/sg74_33_cif.got.tgz:64267.got - 2010.06.03 17:57:02.
