data_PCOD9537076
_publ_section_title
;
Structure prediction by ZEFSAII (Michael W. Deem and Ramdas Pophale) SiO2 
 PCOD9537076
Probable space group: I M M A
;
_chemical_formula_sum "Si O2"
_cell_formula_units_Z 112
_cell_length_a 18.567304
_cell_length_b 18.063690
_cell_length_c 18.152482
_cell_angle_alpha 90.000000
_cell_angle_beta 90.000000
_cell_angle_gamma 90.000000
_cell_volume 6088.233976
_symmetry_space_group_name_H-M "I M M A"
_symmetry_group_IT_number 74
_symmetry_cell_setting 'orthorhombic'
loop_
_space_group_symop_operation_xyz
x,y,z
-x,1/2-y,z
x,-y,-z
-x,1/2+y,-z
-x,-y,-z
x,1/2+y,-z
-x,y,z
x,1/2-y,z
1/2+x,1/2+y,1/2+z
1/2-x,-y,1/2+z
1/2+x,1/2-y,1/2-z
1/2-x,y,1/2-z
1/2-x,1/2-y,1/2-z
1/2+x,y,1/2-z
1/2-x,1/2+y,1/2+z
1/2+x,-y,1/2+z
loop_
_atom_site_type_symbol
_atom_site_label
_atom_site_fract_x
_atom_site_fract_y
_atom_site_fract_z
Si Si1 0.212604 0.065230 0.677562
Si Si2 0.780006 0.665930 0.061454
Si Si3 0.689934 0.838939 0.596439
Si Si4 0.886007 0.833062 0.492520
Si Si5 0.577878 0.661617 0.172848
Si Si6 0.914692 0.661779 0.770595
Si Si7 0.157088 0.913448 0.630321
O O1 0.250000 0.033345 0.750000
O O2 0.270864 0.109332 0.628377
O O3 0.148872 0.121085 0.700965
O O4 0.174594 0.000015 0.632489
O O5 0.800599 0.750000 0.083568
O O6 0.823857 0.640440 0.989230
O O7 0.698210 0.670056 0.030277
O O8 0.699024 0.750000 0.595913
O O9 0.627310 0.856998 0.654030
O O10 0.764918 0.874100 0.623070
O O11 0.907793 0.750000 0.515834
O O12 0.922810 0.851700 0.415481
O O13 0.890124 0.888694 0.560162
O O14 0.500000 0.638255 0.203446
O O15 0.585396 0.750000 0.182319
O O16 0.903018 0.750000 0.756296
O O17 0.881268 0.615023 0.703953
O O18 0.000000 0.649609 0.776889
#
# Coordination Sequence:
#
# PCOD9537076 Si02
#       7
#    16  16  16  16  16  16  16
#     4  11  22  33  49  76 104 132 167 210 254 296
#     4   8  16  31  50  71  91 117 159 209 257 298
#     4   9  17  32  53  72  95 131 172 211 251 297
#     4   8  15  29  49  71  95 125 162 202 241 289
#     4   9  19  36  55  74  99 132 167 204 253 309
#     4  10  20  32  48  73 105 140 174 206 242 286
#     4  11  20  31  47  74 106 138 170 201 242 295
#
# _framework density 18.396139000000002
#
# number of rings (size 3 to 8) (size 9 to 14) (size 15 to 20)
#    0.000    2.571    0.000    4.714    0.000    8.571 
#    0.000    2.143    0.000    0.857    0.000    6.000 
#    0.000    0.000    0.000    0.000    0.000    0.000 
#
# Total GULP energy -312069.224887 kJ/mol
# GULP energy per Si atom -5572.664730 kJ/mol
# Density = 1.835427 g / cm^3
# Si number density = 18.396139 Si / 1000 Ang^3
#
#
#
# Elastic Constant Matrix: (Units=GPa)
#
#
# Indices 1 2 3 4 5 6 
#
# 1 37.9617 4.7042 -1.0465 0.0000 0.0000 0.0000
# 2 4.7042 34.6959 8.0471 0.0000 0.0000 0.0000
# 3 -1.0465 8.0471 29.3132 0.0000 0.0000 0.0000
# 4 0.0000 0.0000 0.0000 4.1771 0.0000 0.0000
# 5 0.0000 0.0000 0.0000 0.0000 7.1760 0.0000
# 6 0.0000 0.0000 0.0000 0.0000 0.0000 5.7321
#
#
#
# Elastic Compliance Matrix: (Units=1/GPa)
#
#
# Indices 1 2 3 4 5 6 
#
# 1 0.026913 -0.004135 0.002096 0.000000 0.000000 0.000000
# 2 -0.004135 0.031417 -0.008772 0.000000 0.000000 0.000000
# 3 0.002096 -0.008772 0.036597 0.000000 0.000000 0.000000
# 4 0.000000 0.000000 0.000000 0.239400 0.000000 0.000000
# 5 0.000000 0.000000 0.000000 0.000000 0.139353 0.000000
# 6 0.000000 0.000000 0.000000 0.000000 0.000000 0.174455
#
#
# Mechanical properties :
#
#
# Convention : Reuss Voigt Hill
#
# Bulk Modulus (GPa) = 13.64179 13.93117 13.78648
# Shear Modulus (GPa) = 7.20262 9.43478 8.31870
#
# Velocity S-wave (km/s) = 1.98086 2.26712 2.12880
# Velocity P-wave (km/s) = 3.55857 3.80032 3.68143
#
# Compressibility (1/GPa) = 0.07330414
#
# Stress axis : x y z
#
# Youngs Moduli (GPa) = 37.15741 31.82984 27.32439
#
# Poissons Ratio (x) = 0.13162 -0.05727
# Poissons Ratio (y) = 0.15365 0.23970
# Poissons Ratio (z) = -0.07788 0.27922
#
# Static dielectric constant tensor:
#      x y z
#    x 1.638890 0.000000 0.000000 
#    y 0.000000 1.650650 0.000000 
#    z 0.000000 0.000000 1.661260 
# 
# From -- ./inp_files/45422.got.cif
#   From: 2010.05.17/outbox.cif.g08.bks.cpg/sg74_23_cif.got.tgz:45422.got - 2010.06.03 17:57:02.
