data_PCOD9537172
_publ_section_title
;
Structure prediction by ZEFSAII (Michael W. Deem and Ramdas Pophale) SiO2 
 PCOD9537172
Probable space group: I M M A
;
_chemical_formula_sum "Si O2"
_cell_formula_units_Z 68
_cell_length_a 7.408815
_cell_length_b 22.394752
_cell_length_c 23.585192
_cell_angle_alpha 90.000000
_cell_angle_beta 90.000000
_cell_angle_gamma 90.000000
_cell_volume 3913.221437
_symmetry_space_group_name_H-M "I M M A"
_symmetry_group_IT_number 74
_symmetry_cell_setting 'orthorhombic'
loop_
_space_group_symop_operation_xyz
x,y,z
-x,1/2-y,z
x,-y,-z
-x,1/2+y,-z
-x,-y,-z
x,1/2+y,-z
-x,y,z
x,1/2-y,z
1/2+x,1/2+y,1/2+z
1/2-x,-y,1/2+z
1/2+x,1/2-y,1/2-z
1/2-x,y,1/2-z
1/2-x,1/2-y,1/2-z
1/2+x,y,1/2-z
1/2-x,1/2+y,1/2+z
1/2+x,-y,1/2+z
loop_
_atom_site_type_symbol
_atom_site_label
_atom_site_fract_x
_atom_site_fract_y
_atom_site_fract_z
Si Si1 0.718940 0.954601 0.420122
Si Si2 0.718341 0.750000 0.349178
Si Si3 0.214769 0.379727 0.812970
Si Si4 0.000000 0.750000 0.447240
Si Si5 0.216716 0.913684 0.953339
Si Si6 0.000000 0.682574 0.558438
O O1 0.500000 0.954487 0.418790
O O2 0.785808 0.918925 0.365280
O O3 0.764842 0.924349 0.480255
O O4 0.770005 0.024185 0.423040
O O5 0.500000 0.750000 0.356004
O O6 0.775921 0.810922 0.318231
O O7 0.822781 0.750000 0.408674
O O8 0.250000 0.403093 0.750000
O O9 0.000000 0.378020 0.819905
O O10 0.000000 0.804873 0.490688
O O11 0.325400 0.857577 0.929563
O O12 0.000000 0.906216 0.949686
O O13 0.000000 0.750000 0.583016
#
# Coordination Sequence:
#
# PCOD9537172 Si02
#       6
#    16   8  16   4  16   8
#     4   8  16  31  52  71  91 128 174 205 246 311
#     4  10  21  35  50  64  94 142 182 210 250 277
#     4  10  20  33  47  70  98 131 176 216 246 292
#     4  10  22  32  48  72 100 128 172 214 236 294
#     4   9  17  34  53  69  97 132 161 206 261 295
#     4  10  22  31  43  80 104 119 167 208 231 325
#
# _framework density 17.376987
#
# number of rings (size 3 to 8) (size 9 to 14) (size 15 to 20)
#    0.353    2.353    0.000    3.176    1.647    5.176 
#    4.235    0.000    0.000    0.000    0.000    0.000 
#    0.000    0.941    0.471    0.000    0.000    0.000 
#
# Total GULP energy -189470.266357 kJ/mol
# GULP energy per Si atom -5572.654893 kJ/mol
# Density = 1.733744 g / cm^3
# Si number density = 17.376987 Si / 1000 Ang^3
#
#
#
# Elastic Constant Matrix: (Units=GPa)
#
#
# Indices 1 2 3 4 5 6 
#
# 1 71.0111 35.9455 2.5628 0.0000 0.0000 0.0000
# 2 35.9455 140.5563 42.6087 0.0000 0.0000 0.0000
# 3 2.5628 42.6087 76.8957 0.0000 0.0000 0.0000
# 4 0.0000 0.0000 0.0000 5.7897 0.0000 0.0000
# 5 0.0000 0.0000 0.0000 0.0000 13.9110 0.0000
# 6 0.0000 0.0000 0.0000 0.0000 0.0000 15.7288
#
#
#
# Elastic Compliance Matrix: (Units=1/GPa)
#
#
# Indices 1 2 3 4 5 6 
#
# 1 0.016466 -0.004861 0.002145 0.000000 0.000000 0.000000
# 2 -0.004861 0.009986 -0.005371 0.000000 0.000000 0.000000
# 3 0.002145 -0.005371 0.015909 0.000000 0.000000 0.000000
# 4 0.000000 0.000000 0.000000 0.172722 0.000000 0.000000
# 5 0.000000 0.000000 0.000000 0.000000 0.071885 0.000000
# 6 0.000000 0.000000 0.000000 0.000000 0.000000 0.063578
#
#
# Mechanical properties :
#
#
# Convention : Reuss Voigt Hill
#
# Bulk Modulus (GPa) = 38.18864 50.07745 44.13304
# Shear Modulus (GPa) = 13.31737 20.90897 17.11317
#
# Velocity S-wave (km/s) = 2.77136 3.47256 3.14159
# Velocity P-wave (km/s) = 5.68022 6.70515 6.21385
#
# Compressibility (1/GPa) = 0.02618580
#
# Stress axis : x y z
#
# Youngs Moduli (GPa) = 60.73300 100.14005 62.85574
#
# Poissons Ratio (x) = 0.48678 -0.13481
# Poissons Ratio (y) = 0.29522 0.33762
# Poissons Ratio (z) = -0.13026 0.53789
#
# Static dielectric constant tensor:
#      x y z
#    x 1.649610 0.000000 0.000000 
#    y 0.000000 1.611080 0.000000 
#    z 0.000000 0.000000 1.570250 
# 
# From -- ./inp_files/56737.got.cif
#   From: 2010.05.17/outbox.cif.g08.bks.cpg/sg74_29_cif.got.tgz:56737.got - 2010.06.03 17:57:02.
