data_PCOD9537305
_publ_section_title
;
Structure prediction by ZEFSAII (Michael W. Deem and Ramdas Pophale) SiO2 
 PCOD9537305
Probable space group: I M M A
;
_chemical_formula_sum "Si O2"
_cell_formula_units_Z 112
_cell_length_a 29.855974
_cell_length_b 14.520681
_cell_length_c 14.149559
_cell_angle_alpha 90.000000
_cell_angle_beta 90.000000
_cell_angle_gamma 90.000000
_cell_volume 6134.245216
_symmetry_space_group_name_H-M "I M M A"
_symmetry_group_IT_number 74
_symmetry_cell_setting 'orthorhombic'
loop_
_space_group_symop_operation_xyz
x,y,z
-x,1/2-y,z
x,-y,-z
-x,1/2+y,-z
-x,-y,-z
x,1/2+y,-z
-x,y,z
x,1/2-y,z
1/2+x,1/2+y,1/2+z
1/2-x,-y,1/2+z
1/2+x,1/2-y,1/2-z
1/2-x,y,1/2-z
1/2-x,1/2-y,1/2-z
1/2+x,y,1/2-z
1/2-x,1/2+y,1/2+z
1/2+x,-y,1/2+z
loop_
_atom_site_type_symbol
_atom_site_label
_atom_site_fract_x
_atom_site_fract_y
_atom_site_fract_z
Si Si1 0.896508 0.358064 0.241186
Si Si2 0.306709 0.145422 0.374969
Si Si3 0.131132 0.998792 0.388299
Si Si4 0.053553 0.997851 0.111051
Si Si5 0.885931 0.360919 0.775938
Si Si6 0.193605 0.857566 0.082871
Si Si7 0.736650 0.486247 0.852484
O O1 0.907691 0.250000 0.249836
O O2 0.846296 0.365756 0.199093
O O3 0.893403 0.415001 0.338275
O O4 0.927725 0.413491 0.167880
O O5 0.290525 0.250000 0.372547
O O6 0.327266 0.128957 0.479198
O O7 0.265791 0.078386 0.357904
O O8 0.122351 0.000000 0.500000
O O9 0.116366 0.909372 0.326568
O O10 0.184973 0.002148 0.372468
O O11 0.075120 0.909593 0.163517
O O12 0.000000 0.995214 0.117220
O O13 0.066025 0.000000 0.000000
O O14 0.889218 0.250000 0.771954
O O15 0.840738 0.386517 0.835248
O O16 0.202603 0.750000 0.096823
O O17 0.239686 0.913313 0.079184
O O18 0.750000 0.446469 0.750000
#
# Coordination Sequence:
#
# PCOD9537305 Si02
#       7
#    16  16  16  16  16  16  16
#     4  10  21  38  58  81 113 151 187 228 276 332
#     4  10  20  33  52  77 105 142 185 225 272 333
#     4  11  23  37  54  79 109 150 201 249 287 321
#     4  10  21  37  61  95 126 146 169 209 268 344
#     4  10  21  38  58  81 113 151 187 228 276 332
#     4  10  20  33  52  77 105 142 185 225 272 333
#     4  12  20  34  52  73 107 148 187 235 288 327
#
# _framework density 18.258154999999999
#
# number of rings (size 3 to 8) (size 9 to 14) (size 15 to 20)
#    0.000    1.571    2.857    3.000    0.000    4.571 
#    0.000    1.429    0.000    6.857    0.000    8.000 
#    0.000    0.000    0.000    0.000    0.000    0.000 
#
# Total GULP energy -312437.738183 kJ/mol
# GULP energy per Si atom -5579.245325 kJ/mol
# Density = 1.821660 g / cm^3
# Si number density = 18.258155 Si / 1000 Ang^3
#
#
#
# Elastic Constant Matrix: (Units=GPa)
#
#
# Indices 1 2 3 4 5 6 
#
# 1 68.7275 42.1479 32.8965 0.0000 0.0000 0.0000
# 2 42.1479 105.3191 51.1229 0.0000 0.0000 0.0000
# 3 32.8965 51.1229 128.8088 0.0000 0.0000 0.0000
# 4 0.0000 0.0000 0.0000 20.6871 0.0000 0.0000
# 5 0.0000 0.0000 0.0000 0.0000 24.1505 0.0000
# 6 0.0000 0.0000 0.0000 0.0000 0.0000 -33.2674
#
#
#
# Elastic Compliance Matrix: (Units=1/GPa)
#
#
# Indices 1 2 3 4 5 6 
#
# 1 0.019852 -0.006792 -0.002374 0.000000 0.000000 0.000000
# 2 -0.006792 0.014085 -0.003855 0.000000 0.000000 0.000000
# 3 -0.002374 -0.003855 0.009900 0.000000 0.000000 0.000000
# 4 0.000000 0.000000 0.000000 0.048339 0.000000 0.000000
# 5 0.000000 0.000000 0.000000 0.000000 0.041407 0.000000
# 6 0.000000 0.000000 0.000000 0.000000 0.000000 -0.030059
#
#
# Mechanical properties :
#
#
# Convention : Reuss Voigt Hill
#
# Bulk Modulus (GPa) = 56.20195 61.68777 58.94486
# Shear Modulus (GPa) = 36.90093 14.09325 25.49709
#
# Velocity S-wave (km/s) = 4.50050 2.78130 3.74100
# Velocity P-wave (km/s) = 7.60623 6.64635 7.14243
#
# Compressibility (1/GPa) = 0.01779298
#
# Stress axis : x y z
#
# Youngs Moduli (GPa) = 50.37270 70.99979 101.01038
#
# Poissons Ratio (x) = 0.48224 0.23983
# Poissons Ratio (y) = 0.34214 0.38943
# Poissons Ratio (z) = 0.11960 0.27373
#
# Static dielectric constant tensor:
#      x y z
#    x 1.600490 0.000000 0.000000 
#    y 0.000000 1.640580 0.000000 
#    z 0.000000 0.000000 1.706830 
# 
# From -- ./inp_files/36558.got.cif
#   From: 2010.05.17/outbox.cif.g08.bks.cpg/sg74_19_cif.got.tgz:36558.got - 2010.06.03 17:57:02.
