data_PCOD9537366
_publ_section_title
;
Structure prediction by ZEFSAII (Michael W. Deem and Ramdas Pophale) SiO2 
 PCOD9537366
Probable space group: I M M A
;
_chemical_formula_sum "Si O2"
_cell_formula_units_Z 120
_cell_length_a 25.945314
_cell_length_b 19.375451
_cell_length_c 12.808826
_cell_angle_alpha 90.000000
_cell_angle_beta 90.000000
_cell_angle_gamma 90.000000
_cell_volume 6439.024498
_symmetry_space_group_name_H-M "I M M A"
_symmetry_group_IT_number 74
_symmetry_cell_setting 'orthorhombic'
loop_
_space_group_symop_operation_xyz
x,y,z
-x,1/2-y,z
x,-y,-z
-x,1/2+y,-z
-x,-y,-z
x,1/2+y,-z
-x,y,z
x,1/2-y,z
1/2+x,1/2+y,1/2+z
1/2-x,-y,1/2+z
1/2+x,1/2-y,1/2-z
1/2-x,y,1/2-z
1/2-x,1/2-y,1/2-z
1/2+x,y,1/2-z
1/2-x,1/2+y,1/2+z
1/2+x,-y,1/2+z
loop_
_atom_site_type_symbol
_atom_site_label
_atom_site_fract_x
_atom_site_fract_y
_atom_site_fract_z
Si Si1 0.750000 0.133157 0.250000
Si Si2 0.905892 0.166552 0.858136
Si Si3 0.873439 0.079060 0.486294
Si Si4 0.132610 0.170505 0.281000
Si Si5 0.942321 0.831973 0.362735
Si Si6 0.288147 0.667121 0.342868
Si Si7 0.748266 0.424513 0.023420
Si Si8 0.440837 0.333827 0.413014
O O1 0.805514 0.170609 0.260393
O O2 0.754237 0.089584 0.144932
O O3 0.907841 0.250000 0.865589
O O4 0.940007 0.147111 0.758932
O O5 0.847601 0.148178 0.826395
O O6 0.922810 0.140996 0.972259
O O7 0.879424 0.116565 0.373808
O O8 0.901750 0.126183 0.570340
O O9 0.812151 0.077330 0.504826
O O10 0.891855 0.000000 0.500000
O O11 0.118321 0.250000 0.309326
O O12 0.100035 0.149728 0.178164
O O13 0.930910 0.750000 0.367687
O O14 0.000000 0.842931 0.403533
O O15 0.284226 0.750000 0.348877
O O16 0.250000 0.643755 0.250000
O O17 0.273320 0.633928 0.452691
O O18 0.769645 0.500000 0.000000
O O19 0.500000 0.355859 0.391845
O O20 0.441495 0.250000 0.417152
#
# Coordination Sequence:
#
# PCOD9537366 Si02
#       8
#     8  16  16  16  16  16  16  16
#     4  10  21  36  54  82 115 148 186 232 289 342
#     4   9  17  31  52  81 113 142 174 221 281 335
#     4  10  22  39  55  77 111 148 186 228 280 337
#     4  10  20  35  58  84 112 145 187 235 285 338
#     4  10  20  35  58  85 109 140 187 236 281 334
#     4  10  20  33  54  84 114 147 187 233 282 335
#     4  10  22  37  55  80 112 152 190 229 274 339
#     4   9  17  30  51  79 110 141 176 224 277 330
#
# _framework density 18.636362999999999
#
# number of rings (size 3 to 8) (size 9 to 14) (size 15 to 20)
#    0.000    2.267    0.000    2.600    0.933    7.733 
#    2.400    1.333    0.000    0.000    0.000    1.867 
#    0.000    0.000    0.000    0.000    0.000    0.000 
#
# Total GULP energy -334422.273722 kJ/mol
# GULP energy per Si atom -5573.704562 kJ/mol
# Density = 1.859395 g / cm^3
# Si number density = 18.636363 Si / 1000 Ang^3
#
#
#
# Elastic Constant Matrix: (Units=GPa)
#
#
# Indices 1 2 3 4 5 6 
#
# 1 78.3215 26.5319 53.4398 0.0000 0.0000 0.0000
# 2 26.5319 48.2320 33.3625 0.0000 0.0000 0.0000
# 3 53.4398 33.3625 105.8000 0.0000 0.0000 0.0000
# 4 0.0000 0.0000 0.0000 -1.0437 0.0000 0.0000
# 5 0.0000 0.0000 0.0000 0.0000 19.7578 0.0000
# 6 0.0000 0.0000 0.0000 0.0000 0.0000 1.0450
#
#
#
# Elastic Compliance Matrix: (Units=1/GPa)
#
#
# Indices 1 2 3 4 5 6 
#
# 1 0.020473 -0.005255 -0.008684 0.000000 0.000000 0.000000
# 2 -0.005255 0.027866 -0.006133 0.000000 0.000000 0.000000
# 3 -0.008684 -0.006133 0.015772 0.000000 0.000000 0.000000
# 4 0.000000 0.000000 0.000000 -0.958087 0.000000 0.000000
# 5 0.000000 0.000000 0.000000 0.000000 0.050613 0.000000
# 6 0.000000 0.000000 0.000000 0.000000 0.000000 0.956960
#
#
# Mechanical properties :
#
#
# Convention : Reuss Voigt Hill
#
# Bulk Modulus (GPa) = 41.72338 51.00244 46.36291
# Shear Modulus (GPa) = 30.91578 11.88641 21.40110
#
# Velocity S-wave (km/s) = 4.07737 2.52822 3.39241
# Velocity P-wave (km/s) = 6.67858 5.99576 6.34636
#
# Compressibility (1/GPa) = 0.02396738
#
# Stress axis : x y z
#
# Youngs Moduli (GPa) = 48.84394 35.88586 63.40385
#
# Poissons Ratio (x) = 0.18860 0.55059
# Poissons Ratio (y) = 0.25670 0.38883
# Poissons Ratio (z) = 0.42416 0.22008
#
# Static dielectric constant tensor:
#      x y z
#    x 1.646210 0.000000 0.000000 
#    y 0.000000 1.648560 0.000000 
#    z 0.000000 0.000000 1.631180 
# 
# From -- ./inp_files/26532.got.cif
#   From: 2010.05.17/outbox.cif.g08.bks.cpg/sg74_14_cif.got.tgz:26532.got - 2010.06.03 17:57:02.
