data_PCOD9537994
_publ_section_title
;
Structure prediction by ZEFSAII (Michael W. Deem and Ramdas Pophale) SiO2 
 PCOD9537994
Probable space group: I M M A
;
_chemical_formula_sum "Si O2"
_cell_formula_units_Z 96
_cell_length_a 22.184245
_cell_length_b 19.466627
_cell_length_c 11.197360
_cell_angle_alpha 90.000000
_cell_angle_beta 90.000000
_cell_angle_gamma 90.000000
_cell_volume 4835.607044
_symmetry_space_group_name_H-M "I M M A"
_symmetry_group_IT_number 74
_symmetry_cell_setting 'orthorhombic'
loop_
_space_group_symop_operation_xyz
x,y,z
-x,1/2-y,z
x,-y,-z
-x,1/2+y,-z
-x,-y,-z
x,1/2+y,-z
-x,y,z
x,1/2-y,z
1/2+x,1/2+y,1/2+z
1/2-x,-y,1/2+z
1/2+x,1/2-y,1/2-z
1/2-x,y,1/2-z
1/2-x,1/2-y,1/2-z
1/2+x,y,1/2-z
1/2-x,1/2+y,1/2+z
1/2+x,-y,1/2+z
loop_
_atom_site_type_symbol
_atom_site_label
_atom_site_fract_x
_atom_site_fract_y
_atom_site_fract_z
Si Si1 0.568230 0.171985 0.890468
Si Si2 0.789266 0.418698 0.369391
Si Si3 0.068074 0.429828 0.130322
Si Si4 0.860153 0.453768 0.722609
Si Si5 0.316905 0.920581 0.467801
Si Si6 0.095255 0.171560 0.335612
O O1 0.500000 0.165962 0.843314
O O2 0.590360 0.250000 0.861290
O O3 0.606616 0.107280 0.845960
O O4 0.566057 0.167791 0.033997
O O5 0.750000 0.422625 0.250000
O O6 0.823800 0.493215 0.363243
O O7 0.743759 0.392802 0.472249
O O8 0.839505 0.361573 0.353171
O O9 0.094542 0.497601 0.198365
O O10 0.065432 0.373340 0.233521
O O11 0.000000 0.439938 0.083617
O O12 0.119088 0.405655 0.034245
O O13 0.820667 0.417356 0.825849
O O14 0.308003 0.000000 0.500000
O O15 0.097642 0.250000 0.297989
#
# Coordination Sequence:
#
# PCOD9537994 Si02
#       6
#    16  16  16  16  16  16
#     4  10  22  40  59  83 117 156 195 239 295 348
#     4  11  20  37  59  88 116 153 193 236 291 343
#     4  10  20  35  57  86 113 146 194 238 288 347
#     4  10  22  35  60  85 115 152 189 237 285 347
#     4  10  20  36  55  88 118 150 186 235 295 341
#     4  10  22  38  58  83 115 155 197 245 293 343
#
# _framework density 19.852730000000001
#
# number of rings (size 3 to 8) (size 9 to 14) (size 15 to 20)
#    0.000    1.833    5.000    1.000    2.333    7.000 
#    0.000    5.833    0.000    2.500    0.000    0.000 
#    0.000    0.000    0.000    0.000    0.000    0.000 
#
# Total GULP energy -267457.618585 kJ/mol
# GULP energy per Si atom -5572.033721 kJ/mol
# Density = 1.980754 g / cm^3
# Si number density = 19.852730 Si / 1000 Ang^3
#
#
#
# Elastic Constant Matrix: (Units=GPa)
#
#
# Indices 1 2 3 4 5 6 
#
# 1 98.2437 23.0883 11.2621 0.0000 0.0000 0.0000
# 2 23.0883 98.9308 33.5388 0.0000 0.0000 0.0000
# 3 11.2621 33.5388 63.9392 0.0000 0.0000 0.0000
# 4 0.0000 0.0000 0.0000 22.9201 0.0000 0.0000
# 5 0.0000 0.0000 0.0000 0.0000 28.7001 0.0000
# 6 0.0000 0.0000 0.0000 0.0000 0.0000 42.2439
#
#
#
# Elastic Compliance Matrix: (Units=1/GPa)
#
#
# Indices 1 2 3 4 5 6 
#
# 1 0.010796 -0.002280 -0.000705 0.000000 0.000000 0.000000
# 2 -0.002280 0.012776 -0.006300 0.000000 0.000000 0.000000
# 3 -0.000705 -0.006300 0.019069 0.000000 0.000000 0.000000
# 4 0.000000 0.000000 0.000000 0.043630 0.000000 0.000000
# 5 0.000000 0.000000 0.000000 0.000000 0.034843 0.000000
# 6 0.000000 0.000000 0.000000 0.000000 0.000000 0.023672
#
#
# Mechanical properties :
#
#
# Convention : Reuss Voigt Hill
#
# Bulk Modulus (GPa) = 41.54721 44.09912 42.82316
# Shear Modulus (GPa) = 29.17505 31.65446 30.41475
#
# Velocity S-wave (km/s) = 3.83766 3.99741 3.91835
# Velocity P-wave (km/s) = 6.37260 6.60053 6.48757
#
# Compressibility (1/GPa) = 0.02406901
#
# Stress axis : x y z
#
# Youngs Moduli (GPa) = 92.63097 78.27186 52.44207
#
# Poissons Ratio (x) = 0.17848 0.03699
# Poissons Ratio (y) = 0.21123 0.33038
# Poissons Ratio (z) = 0.06534 0.49310
#
# Static dielectric constant tensor:
#      x y z
#    x 1.792290 0.000000 0.000000 
#    y 0.000000 1.682400 0.000000 
#    z 0.000000 0.000000 1.788230 
# 
# From -- ./inp_files/22488.got.cif
#   From: 2010.05.17/outbox.cif.g08.bks.cpg/sg74_12_cif.got.tgz:22488.got - 2010.06.03 17:57:02.
