data_PCOD9537149
_publ_section_title
;
Structure prediction by ZEFSAII (Michael W. Deem and Ramdas Pophale) SiO2 
 PCOD9537149
Probable space group: I M M A
;
_chemical_formula_sum "Si O2"
_cell_formula_units_Z 128
_cell_length_a 12.468909
_cell_length_b 24.498738
_cell_length_c 23.940003
_cell_angle_alpha 90.000000
_cell_angle_beta 90.000000
_cell_angle_gamma 90.000000
_cell_volume 7313.013398
_symmetry_space_group_name_H-M "I M M A"
_symmetry_group_IT_number 74
_symmetry_cell_setting 'orthorhombic'
loop_
_space_group_symop_operation_xyz
x,y,z
-x,1/2-y,z
x,-y,-z
-x,1/2+y,-z
-x,-y,-z
x,1/2+y,-z
-x,y,z
x,1/2-y,z
1/2+x,1/2+y,1/2+z
1/2-x,-y,1/2+z
1/2+x,1/2-y,1/2-z
1/2-x,y,1/2-z
1/2-x,1/2-y,1/2-z
1/2+x,y,1/2-z
1/2-x,1/2+y,1/2+z
1/2+x,-y,1/2+z
loop_
_atom_site_type_symbol
_atom_site_label
_atom_site_fract_x
_atom_site_fract_y
_atom_site_fract_z
Si Si1 0.333322 0.687281 0.168233
Si Si2 0.624440 0.581792 0.890660
Si Si3 0.622380 0.854420 0.291880
Si Si4 0.234825 0.511607 0.060058
Si Si5 0.869592 0.420696 0.259344
Si Si6 0.629608 0.811316 0.948204
Si Si7 0.626157 0.024446 0.678848
Si Si8 0.376630 0.379813 0.942491
O O1 0.366359 0.750000 0.162064
O O2 0.373568 0.663365 0.227218
O O3 0.204580 0.682851 0.174157
O O4 0.369652 0.651173 0.116400
O O5 0.500000 0.580048 0.906349
O O6 0.685565 0.538645 0.928297
O O7 0.631899 0.567634 0.825433
O O8 0.664092 0.643325 0.903074
O O9 0.500000 0.849999 0.311246
O O10 0.664274 0.916566 0.299325
O O11 0.165936 0.513896 0.116336
O O12 0.300546 0.567908 0.057261
O O13 0.180993 0.500000 0.000000
O O14 0.750000 0.390860 0.250000
O O15 0.855549 0.474090 0.220692
O O16 0.000000 0.402076 0.249407
O O17 0.500000 0.807482 0.944685
O O18 0.672314 0.750000 0.941400
O O19 0.653997 0.837583 0.008436
O O20 0.500000 0.030202 0.676476
O O21 0.500000 0.396802 0.951926
#
# Coordination Sequence:
#
# PCOD9537149 Si02
#       8
#    16  16  16  16  16  16  16  16
#     4  11  23  35  51  76 103 140 188 221 258 316
#     4  10  20  32  52  83 112 143 179 225 279 334
#     4  10  21  36  53  72 100 136 180 229 271 310
#     4  12  22  35  56  80 110 140 181 231 279 330
#     4  10  20  34  56  83 114 147 183 225 278 342
#     4   9  18  34  53  75 108 147 182 218 268 330
#     4  10  22  38  55  78 108 144 185 227 278 342
#     4  11  22  34  51  76 109 146 180 219 268 321
#
# _framework density 17.503045
#
# number of rings (size 3 to 8) (size 9 to 14) (size 15 to 20)
#    0.000    1.625    3.750    1.875    3.500    3.000 
#    0.000    0.000    0.000    0.375    0.000    0.000 
#    0.000    3.500    0.000    0.000    0.000    0.000 
#
# Total GULP energy -356315.771342 kJ/mol
# GULP energy per Si atom -5567.433927 kJ/mol
# Density = 1.746321 g / cm^3
# Si number density = 17.503045 Si / 1000 Ang^3
#
#
#
# Elastic Constant Matrix: (Units=GPa)
#
#
# Indices 1 2 3 4 5 6 
#
# 1 54.5097 -4.2765 0.3405 0.0000 0.0000 0.0000
# 2 -4.2765 92.8746 32.9230 0.0000 0.0000 0.0000
# 3 0.3405 32.9230 97.5535 0.0000 0.0000 0.0000
# 4 0.0000 0.0000 0.0000 20.6905 0.0000 0.0000
# 5 0.0000 0.0000 0.0000 0.0000 17.0778 0.0000
# 6 0.0000 0.0000 0.0000 0.0000 0.0000 -2.4486
#
#
#
# Elastic Compliance Matrix: (Units=1/GPa)
#
#
# Indices 1 2 3 4 5 6 
#
# 1 0.018425 0.000990 -0.000398 0.000000 0.000000 0.000000
# 2 0.000990 0.012284 -0.004149 0.000000 0.000000 0.000000
# 3 -0.000398 -0.004149 0.011652 0.000000 0.000000 0.000000
# 4 0.000000 0.000000 0.000000 0.048331 0.000000 0.000000
# 5 0.000000 0.000000 0.000000 0.000000 0.058556 0.000000
# 6 0.000000 0.000000 0.000000 0.000000 0.000000 -0.408397
#
#
# Mechanical properties :
#
#
# Convention : Reuss Voigt Hill
#
# Bulk Modulus (GPa) = 28.37193 33.65687 31.01440
# Shear Modulus (GPa) = -20.80870 21.46066 0.32598
#
# Velocity S-wave (km/s) = -3.45173 3.50538 0.43203
# Velocity P-wave (km/s) = 0.59917 5.97114 4.24344
#
# Compressibility (1/GPa) = 0.03524610
#
# Stress axis : x y z
#
# Youngs Moduli (GPa) = 54.27264 81.40971 85.81920
#
# Poissons Ratio (x) = -0.08056 0.03418
# Poissons Ratio (y) = -0.05371 0.35606
# Poissons Ratio (z) = 0.02162 0.33777
#
# Static dielectric constant tensor:
#      x y z
#    x 1.656180 0.000000 0.000000 
#    y 0.000000 1.630440 0.000000 
#    z 0.000000 0.000000 1.613290 
# 
# From -- ./inp_files/59205.got.cif
#   From: 2010.05.17/outbox.cif.g08.bks.cpg/sg74_30_cif.got.tgz:59205.got - 2010.06.03 17:57:02.
