data_PCOD9537000
_publ_section_title
;
Structure prediction by ZEFSAII (Michael W. Deem and Ramdas Pophale) SiO2 
 PCOD9537000
Probable space group: I M M A
;
_chemical_formula_sum "Si O2"
_cell_formula_units_Z 104
_cell_length_a 9.305448
_cell_length_b 24.659592
_cell_length_c 22.654653
_cell_angle_alpha 90.000000
_cell_angle_beta 90.000000
_cell_angle_gamma 90.000000
_cell_volume 5198.530399
_symmetry_space_group_name_H-M "I M M A"
_symmetry_group_IT_number 74
_symmetry_cell_setting 'orthorhombic'
loop_
_space_group_symop_operation_xyz
x,y,z
-x,1/2-y,z
x,-y,-z
-x,1/2+y,-z
-x,-y,-z
x,1/2+y,-z
-x,y,z
x,1/2-y,z
1/2+x,1/2+y,1/2+z
1/2-x,-y,1/2+z
1/2+x,1/2-y,1/2-z
1/2-x,y,1/2-z
1/2-x,1/2-y,1/2-z
1/2+x,y,1/2-z
1/2-x,1/2+y,1/2+z
1/2+x,-y,1/2+z
loop_
_atom_site_type_symbol
_atom_site_label
_atom_site_fract_x
_atom_site_fract_y
_atom_site_fract_z
Si Si1 0.834228 0.581993 0.124073
Si Si2 0.836044 0.311719 0.480297
Si Si3 0.835495 0.582786 0.981282
Si Si4 0.171911 0.867803 0.687449
Si Si5 0.172632 0.750000 0.686239
Si Si6 0.334071 0.310700 0.875884
Si Si7 0.171132 0.524632 0.614675
O O1 0.762223 0.638629 0.143257
O O2 0.743982 0.528968 0.141083
O O3 0.000000 0.578571 0.142481
O O4 0.830550 0.581177 0.052211
O O5 0.806133 0.250000 0.461651
O O6 0.724847 0.358095 0.463827
O O7 0.835950 0.310998 0.552223
O O8 0.000000 0.325954 0.461486
O O9 0.736340 0.539150 0.949108
O O10 0.000000 0.574425 0.962687
O O11 0.250000 0.869870 0.750000
O O12 0.208494 0.808845 0.659107
O O13 0.208407 0.921556 0.651672
O O14 0.000000 0.868593 0.695725
O O15 0.250000 0.750000 0.750000
O O16 0.000000 0.750000 0.693687
O O17 0.500000 0.317844 0.857297
O O18 0.285479 0.250000 0.858096
O O19 0.000000 0.517931 0.611616
#
# Coordination Sequence:
#
# PCOD9537000 Si02
#       7
#    16  16  16  16   8  16  16
#     4  10  20  32  47  68  96 132 168 205 248 287
#     4   8  14  26  43  61  83 116 157 197 239 284
#     4  10  20  32  45  64  93 127 165 206 247 290
#     4   9  19  35  56  78  98 123 157 201 254 306
#     4   8  14  30  54  76  96 118 150 194 246 302
#     4   8  14  26  45  67  90 120 159 199 237 278
#     4  11  22  34  48  70  96 126 165 201 242 298
#
# _framework density 20.005654
#
# number of rings (size 3 to 8) (size 9 to 14) (size 15 to 20)
#    0.000    2.769    0.000    2.769    0.000    5.538 
#    1.385    3.077    0.000    0.000    0.000    0.000 
#    0.000    0.615    0.000    2.000    0.000    2.462 
#
# Total GULP energy -290060.759851 kJ/mol
# GULP energy per Si atom -5578.091536 kJ/mol
# Density = 1.996012 g / cm^3
# Si number density = 20.005654 Si / 1000 Ang^3
#
#
#
# Elastic Constant Matrix: (Units=GPa)
#
#
# Indices 1 2 3 4 5 6 
#
# 1 74.2192 82.6035 6.5276 0.0000 0.0000 0.0000
# 2 82.6035 188.2089 16.7331 0.0000 0.0000 0.0000
# 3 6.5276 16.7331 15.4393 0.0000 0.0000 0.0000
# 4 0.0000 0.0000 0.0000 15.4471 0.0000 0.0000
# 5 0.0000 0.0000 0.0000 0.0000 11.4376 0.0000
# 6 0.0000 0.0000 0.0000 0.0000 0.0000 14.3517
#
#
#
# Elastic Compliance Matrix: (Units=1/GPa)
#
#
# Indices 1 2 3 4 5 6 
#
# 1 0.026373 -0.011712 0.001543 0.000000 0.000000 0.000000
# 2 -0.011712 0.011081 -0.007058 0.000000 0.000000 0.000000
# 3 0.001543 -0.007058 0.071766 0.000000 0.000000 0.000000
# 4 0.000000 0.000000 0.000000 0.064737 0.000000 0.000000
# 5 0.000000 0.000000 0.000000 0.000000 0.087431 0.000000
# 6 0.000000 0.000000 0.000000 0.000000 0.000000 0.069678
#
#
# Mechanical properties :
#
#
# Convention : Reuss Voigt Hill
#
# Bulk Modulus (GPa) = 13.37484 54.39951 33.88718
# Shear Modulus (GPa) = 12.80597 19.71416 16.26007
#
# Velocity S-wave (km/s) = 2.53280 3.14256 2.85401
# Velocity P-wave (km/s) = 3.90557 6.35757 5.27599
#
# Compressibility (1/GPa) = 0.07476726
#
# Stress axis : x y z
#
# Youngs Moduli (GPa) = 37.91732 90.24341 13.93409
#
# Poissons Ratio (x) = 1.05695 -0.02151
# Poissons Ratio (y) = 0.44410 0.09835
# Poissons Ratio (z) = -0.05852 0.63693
#
# Static dielectric constant tensor:
#      x y z
#    x 1.670930 0.000000 0.000000 
#    y 0.000000 1.740730 0.000000 
#    z 0.000000 0.000000 1.746600 
# 
# From -- ./inp_files/64793.got.cif
#   From: 2010.05.17/outbox.cif.g08.bks.cpg/sg74_33_cif.got.tgz:64793.got - 2010.06.03 17:57:02.
