data_PCOD9537217
_publ_section_title
;
Structure prediction by ZEFSAII (Michael W. Deem and Ramdas Pophale) SiO2 
 PCOD9537217
Probable space group: I M M A
;
_chemical_formula_sum "Si O2"
_cell_formula_units_Z 116
_cell_length_a 7.547132
_cell_length_b 29.291248
_cell_length_c 23.865188
_cell_angle_alpha 90.000000
_cell_angle_beta 90.000000
_cell_angle_gamma 90.000000
_cell_volume 5275.755759
_symmetry_space_group_name_H-M "I M M A"
_symmetry_group_IT_number 74
_symmetry_cell_setting 'orthorhombic'
loop_
_space_group_symop_operation_xyz
x,y,z
-x,1/2-y,z
x,-y,-z
-x,1/2+y,-z
-x,-y,-z
x,1/2+y,-z
-x,y,z
x,1/2-y,z
1/2+x,1/2+y,1/2+z
1/2-x,-y,1/2+z
1/2+x,1/2-y,1/2-z
1/2-x,y,1/2-z
1/2-x,1/2-y,1/2-z
1/2+x,y,1/2-z
1/2-x,1/2+y,1/2+z
1/2+x,-y,1/2+z
loop_
_atom_site_type_symbol
_atom_site_label
_atom_site_fract_x
_atom_site_fract_y
_atom_site_fract_z
Si Si1 0.283968 0.676564 0.842039
Si Si2 0.000000 0.750000 0.802858
Si Si3 0.796693 0.582845 0.619332
Si Si4 0.208535 0.200145 0.470031
Si Si5 0.287009 0.108754 0.687207
Si Si6 0.215561 0.947303 0.500651
Si Si7 0.703671 0.134737 0.571680
Si Si8 0.289514 0.495455 0.686646
O O1 0.500000 0.684279 0.832978
O O2 0.235555 0.622646 0.838759
O O3 0.157695 0.710003 0.807775
O O4 0.233910 0.686221 0.907697
O O5 0.717085 0.577362 0.557347
O O6 0.789697 0.532820 0.645642
O O7 0.000000 0.596405 0.608865
O O8 0.284869 0.250000 0.483888
O O9 0.228671 0.165155 0.520745
O O10 0.000000 0.204486 0.463077
O O11 0.500000 0.106492 0.682243
O O12 0.250000 0.125354 0.750000
O O13 0.217632 0.137101 0.634109
O O14 0.220766 0.056393 0.682147
O O15 0.278733 0.917685 0.448398
O O16 0.000000 0.946676 0.500497
O O17 0.271078 0.000000 0.500000
O O18 0.500000 0.147547 0.576238
O O19 0.500000 0.495152 0.677383
O O20 0.250000 0.510148 0.750000
#
# Coordination Sequence:
#
# PCOD9537217 Si02
#       8
#    16   4  16  16  16  16  16  16
#     4  10  21  35  52  80 115 145 185 236 275 340
#     4  12  22  32  60  78 108 148 198 220 296 334
#     4  10  20  34  51  76 114 144 177 228 274 320
#     4  10  20  36  54  74 108 144 181 228 276 325
#     4   9  20  37  54  78 106 142 183 234 275 320
#     4  10  20  33  50  73 106 150 186 211 259 331
#     4  11  22  33  52  80 111 138 180 228 276 332
#     4  10  20  35  56  78 108 142 187 228 272 325
#
# _framework density 21.987371
#
# number of rings (size 3 to 8) (size 9 to 14) (size 15 to 20)
#    0.000    1.931    2.069    1.862    1.931    2.759 
#    0.000    0.000    0.000    0.414    0.000    0.483 
#    0.000    0.000    0.000    0.000    0.000    0.000 
#
# Total GULP energy -323130.514319 kJ/mol
# GULP energy per Si atom -5571.215764 kJ/mol
# Density = 2.193733 g / cm^3
# Si number density = 21.987371 Si / 1000 Ang^3
#
#
#
# Elastic Constant Matrix: (Units=GPa)
#
#
# Indices 1 2 3 4 5 6 
#
# 1 75.7936 6.6301 -0.8765 0.0000 0.0000 0.0000
# 2 6.6301 49.9603 5.1121 0.0000 0.0000 0.0000
# 3 -0.8765 5.1121 97.4075 0.0000 0.0000 0.0000
# 4 0.0000 0.0000 0.0000 1.1296 0.0000 0.0000
# 5 0.0000 0.0000 0.0000 0.0000 6.6281 0.0000
# 6 0.0000 0.0000 0.0000 0.0000 0.0000 29.2558
#
#
#
# Elastic Compliance Matrix: (Units=1/GPa)
#
#
# Indices 1 2 3 4 5 6 
#
# 1 0.013353 -0.001794 0.000214 0.000000 0.000000 0.000000
# 2 -0.001794 0.020365 -0.001085 0.000000 0.000000 0.000000
# 3 0.000214 -0.001085 0.010325 0.000000 0.000000 0.000000
# 4 0.000000 0.000000 0.000000 0.885288 0.000000 0.000000
# 5 0.000000 0.000000 0.000000 0.000000 0.150873 0.000000
# 6 0.000000 0.000000 0.000000 0.000000 0.000000 0.034181
#
#
# Mechanical properties :
#
#
# Convention : Reuss Voigt Hill
#
# Bulk Modulus (GPa) = 25.83049 27.21030 26.52039
# Shear Modulus (GPa) = 4.41454 21.55574 12.98514
#
# Velocity S-wave (km/s) = 1.41849 3.13448 2.43281
# Velocity P-wave (km/s) = 3.80213 5.04998 4.46981
#
# Compressibility (1/GPa) = 0.03871394
#
# Stress axis : x y z
#
# Youngs Moduli (GPa) = 74.88878 49.10387 96.85220
#
# Poissons Ratio (x) = 0.08809 -0.02076
# Poissons Ratio (y) = 0.13435 0.10508
# Poissons Ratio (z) = -0.01605 0.05327
#
# Static dielectric constant tensor:
#      x y z
#    x 1.804080 0.000000 0.000000 
#    y 0.000000 1.834830 0.000000 
#    z 0.000000 0.000000 1.845390 
# 
# From -- ./inp_files/57906.got.cif
#   From: 2010.05.17/outbox.cif.g08.bks.cpg/sg74_29_cif.got.tgz:57906.got - 2010.06.03 17:57:02.
