data_PCOD9537545
_publ_section_title
;
Structure prediction by ZEFSAII (Michael W. Deem and Ramdas Pophale) SiO2 
 PCOD9537545
Probable space group: I M M A
;
_chemical_formula_sum "Si O2"
_cell_formula_units_Z 88
_cell_length_a 14.072316
_cell_length_b 20.406355
_cell_length_c 15.586042
_cell_angle_alpha 90.000000
_cell_angle_beta 90.000000
_cell_angle_gamma 90.000000
_cell_volume 4475.760701
_symmetry_space_group_name_H-M "I M M A"
_symmetry_group_IT_number 74
_symmetry_cell_setting 'orthorhombic'
loop_
_space_group_symop_operation_xyz
x,y,z
-x,1/2-y,z
x,-y,-z
-x,1/2+y,-z
-x,-y,-z
x,1/2+y,-z
-x,y,z
x,1/2-y,z
1/2+x,1/2+y,1/2+z
1/2-x,-y,1/2+z
1/2+x,1/2-y,1/2-z
1/2-x,y,1/2-z
1/2-x,1/2-y,1/2-z
1/2+x,y,1/2-z
1/2-x,1/2+y,1/2+z
1/2+x,-y,1/2+z
loop_
_atom_site_type_symbol
_atom_site_label
_atom_site_fract_x
_atom_site_fract_y
_atom_site_fract_z
Si Si1 0.261504 0.000000 0.500000
Si Si2 0.115489 0.174145 0.731347
Si Si3 0.392568 0.828032 0.042925
Si Si4 0.891262 0.085969 0.204883
Si Si5 0.388070 0.061303 0.638192
Si Si6 0.299371 0.607628 0.884970
O O1 0.328668 0.050291 0.551622
O O2 0.199384 0.036812 0.430152
O O3 0.143674 0.250000 0.747128
O O4 0.145023 0.150446 0.636189
O O5 0.143232 0.122591 0.804128
O O6 0.000000 0.174110 0.728671
O O7 0.500000 0.854173 0.030833
O O8 0.398662 0.750000 0.051065
O O9 0.332105 0.844888 0.959989
O O10 0.809003 0.117561 0.146413
O O11 0.865677 0.106183 0.301700
O O12 0.000000 0.102466 0.183271
O O13 0.879593 0.007340 0.190876
O O14 0.500000 0.069233 0.617744
#
# Coordination Sequence:
#
# PCOD9537545 Si02
#       6
#     8  16  16  16  16  16
#     4  10  21  32  47  78 108 140 182 232 276 324
#     4   8  15  29  51  80 111 144 182 222 267 327
#     4   9  18  34  56  82 114 147 180 223 275 328
#     4   9  19  35  53  76 108 145 184 229 283 332
#     4   9  17  32  53  74 105 148 187 227 276 329
#     4  10  20  34  53  79 107 141 180 231 277 329
#
# _framework density 19.661462
#
# number of rings (size 3 to 8) (size 9 to 14) (size 15 to 20)
#    0.000    2.909    0.000    1.909    2.545    0.727 
#    0.000    3.636    0.000    3.818    0.000    0.000 
#    0.000    0.000    0.000    0.000    0.000    0.000 
#
# Total GULP energy -245360.569156 kJ/mol
# GULP energy per Si atom -5576.376572 kJ/mol
# Density = 1.961671 g / cm^3
# Si number density = 19.661462 Si / 1000 Ang^3
#
#
#
# Elastic Constant Matrix: (Units=GPa)
#
#
# Indices 1 2 3 4 5 6 
#
# 1 88.4206 21.3419 33.2702 0.0000 0.0000 0.0000
# 2 21.3419 33.4666 36.6939 0.0001 0.0000 0.0000
# 3 33.2702 36.6939 109.6854 0.0002 0.0001 0.0000
# 4 0.0000 0.0001 0.0002 42.4184 0.0000 0.0000
# 5 0.0000 0.0000 0.0001 0.0000 9.8991 0.0000
# 6 0.0000 0.0000 0.0000 0.0000 0.0000 11.5092
#
#
#
# Elastic Compliance Matrix: (Units=1/GPa)
#
#
# Indices 1 2 3 4 5 6 
#
# 1 0.013622 -0.006564 -0.001936 0.000000 0.000000 0.000000
# 2 -0.006564 0.050353 -0.014854 0.000000 0.000000 0.000000
# 3 -0.001936 -0.014854 0.014673 0.000000 0.000000 0.000000
# 4 0.000000 0.000000 0.000000 0.023575 0.000000 0.000000
# 5 0.000000 0.000000 0.000000 0.000000 0.101019 0.000000
# 6 0.000000 0.000000 0.000000 0.000000 0.000000 0.086887
#
#
# Mechanical properties :
#
#
# Convention : Reuss Voigt Hill
#
# Bulk Modulus (GPa) = 31.30839 46.02052 38.66446
# Shear Modulus (GPa) = 14.38912 22.11646 18.25279
#
# Velocity S-wave (km/s) = 2.70820 3.35754 3.05019
# Velocity P-wave (km/s) = 5.07320 6.20387 5.66681
#
# Compressibility (1/GPa) = 0.03194032
#
# Stress axis : x y z
#
# Youngs Moduli (GPa) = 73.40806 19.85978 68.15069
#
# Poissons Ratio (x) = 0.13037 0.13194
# Poissons Ratio (y) = 0.48189 1.01230
# Poissons Ratio (z) = 0.14211 0.29499
#
# Static dielectric constant tensor:
#      x y z
#    x 1.727940 0.000000 0.000000 
#    y 0.000000 1.703810 0.000000 
#    z 0.000000 0.000000 1.676830 
# 
# From -- ./inp_files/32570.got.cif
#   From: 2010.05.17/outbox.cif.g08.bks.cpg/sg74_17_cif.got.tgz:32570.got - 2010.06.03 17:57:02.
