data_PCOD9537259
_publ_section_title
;
Structure prediction by ZEFSAII (Michael W. Deem and Ramdas Pophale) SiO2 
 PCOD9537259
Probable space group: I M M A
;
_chemical_formula_sum "Si O2"
_cell_formula_units_Z 104
_cell_length_a 8.455919
_cell_length_b 21.745490
_cell_length_c 29.097098
_cell_angle_alpha 90.000000
_cell_angle_beta 90.000000
_cell_angle_gamma 90.000000
_cell_volume 5350.319156
_symmetry_space_group_name_H-M "I M M A"
_symmetry_group_IT_number 74
_symmetry_cell_setting 'orthorhombic'
loop_
_space_group_symop_operation_xyz
x,y,z
-x,1/2-y,z
x,-y,-z
-x,1/2+y,-z
-x,-y,-z
x,1/2+y,-z
-x,y,z
x,1/2-y,z
1/2+x,1/2+y,1/2+z
1/2-x,-y,1/2+z
1/2+x,1/2-y,1/2-z
1/2-x,y,1/2-z
1/2-x,1/2-y,1/2-z
1/2+x,y,1/2-z
1/2-x,1/2+y,1/2+z
1/2+x,-y,1/2+z
loop_
_atom_site_type_symbol
_atom_site_label
_atom_site_fract_x
_atom_site_fract_y
_atom_site_fract_z
Si Si1 0.807610 0.820304 0.941133
Si Si2 0.810091 0.125172 0.151963
Si Si3 0.190102 0.250000 0.301959
Si Si4 0.811412 0.497978 0.302032
Si Si5 0.809631 0.320414 0.954170
Si Si6 0.320574 0.676683 0.297639
Si Si7 0.817658 0.398862 0.627040
O O1 0.758041 0.750000 0.929835
O O2 0.759002 0.867546 0.901478
O O3 0.000000 0.819972 0.941011
O O4 0.757140 0.833002 0.993370
O O5 0.759298 0.189247 0.174510
O O6 0.000000 0.118619 0.153917
O O7 0.733304 0.069300 0.179460
O O8 0.250000 0.250000 0.250000
O O9 0.000000 0.250000 0.304186
O O10 0.750000 0.506920 0.250000
O O11 0.750646 0.545516 0.341418
O O12 0.000000 0.505468 0.300044
O O13 0.756858 0.250000 0.941870
O O14 0.758927 0.373953 0.919579
O O15 0.000000 0.318425 0.953714
O O16 0.500000 0.654401 0.305512
O O17 0.328055 0.750000 0.294749
O O18 0.250000 0.652662 0.250000
O O19 0.206084 0.657800 0.338241
O O20 0.000000 0.412273 0.617740
#
# Coordination Sequence:
#
# PCOD9537259 Si02
#       7
#    16  16   8  16  16  16  16
#     4   8  15  32  59  89 118 147 184 232 283 337
#     4  11  21  38  64  90 116 150 191 237 287 341
#     4  12  24  38  58  88 124 156 188 232 285 344
#     4  11  25  43  59  80 112 152 196 240 289 345
#     4   9  18  34  59  88 117 150 190 239 288 337
#     4  10  20  33  51  76 105 137 178 231 289 346
#     4  11  23  37  54  77 110 151 193 238 286 340
#
# _framework density 19.438092999999999
#
# number of rings (size 3 to 8) (size 9 to 14) (size 15 to 20)
#    0.000    1.846    0.769    4.846    0.000    6.769 
#    0.000    2.308    0.000    4.615    0.000    0.000 
#    0.000    0.000    0.000    0.000    0.000    0.000 
#
# Total GULP energy -290058.735424 kJ/mol
# GULP energy per Si atom -5578.052604 kJ/mol
# Density = 1.939385 g / cm^3
# Si number density = 19.438093 Si / 1000 Ang^3
#
#
#
# Elastic Constant Matrix: (Units=GPa)
#
#
# Indices 1 2 3 4 5 6 
#
# 1 19.7702 15.5878 8.4300 0.0000 0.0000 0.0000
# 2 15.5878 99.4153 61.2624 0.0000 0.0000 0.0000
# 3 8.4300 61.2624 135.5979 0.0000 0.0000 0.0000
# 4 0.0000 0.0000 0.0000 38.7804 0.0000 0.0000
# 5 0.0000 0.0000 0.0000 0.0000 22.0965 0.0000
# 6 0.0000 0.0000 0.0000 0.0000 0.0000 22.1343
#
#
#
# Elastic Compliance Matrix: (Units=1/GPa)
#
#
# Indices 1 2 3 4 5 6 
#
# 1 0.057763 -0.009485 0.000694 0.000000 0.000000 0.000000
# 2 -0.009485 0.015497 -0.006412 0.000000 0.000000 0.000000
# 3 0.000694 -0.006412 0.010228 0.000000 0.000000 0.000000
# 4 0.000000 0.000000 0.000000 0.025786 0.000000 0.000000
# 5 0.000000 0.000000 0.000000 0.000000 0.045256 0.000000
# 6 0.000000 0.000000 0.000000 0.000000 0.000000 0.045179
#
#
# Mechanical properties :
#
#
# Convention : Reuss Voigt Hill
#
# Bulk Modulus (GPa) = 18.83809 47.26042 33.04925
# Shear Modulus (GPa) = 20.17677 27.90244 24.03960
#
# Velocity S-wave (km/s) = 3.22530 3.79285 3.52053
# Velocity P-wave (km/s) = 4.85617 6.59901 5.79351
#
# Compressibility (1/GPa) = 0.05308395
#
# Stress axis : x y z
#
# Youngs Moduli (GPa) = 17.31200 64.52813 97.76663
#
# Poissons Ratio (x) = 0.61203 -0.06785
# Poissons Ratio (y) = 0.16420 0.62687
# Poissons Ratio (z) = -0.01201 0.41375
#
# Static dielectric constant tensor:
#      x y z
#    x 1.689700 0.000000 0.000000 
#    y 0.000000 1.686390 0.000000 
#    z 0.000000 0.000000 1.686360 
# 
# From -- ./inp_files/64497.got.cif
#   From: 2010.05.17/outbox.cif.g08.bks.cpg/sg74_33_cif.got.tgz:64497.got - 2010.06.03 17:57:02.
