data_PCOD9537173
_publ_section_title
;
Structure prediction by ZEFSAII (Michael W. Deem and Ramdas Pophale) SiO2 
 PCOD9537173
Probable space group: I M M A
;
_chemical_formula_sum "Si O2"
_cell_formula_units_Z 100
_cell_length_a 21.425965
_cell_length_b 7.405238
_cell_length_c 27.758603
_cell_angle_alpha 90.000000
_cell_angle_beta 90.000000
_cell_angle_gamma 90.000000
_cell_volume 4404.301263
_symmetry_space_group_name_H-M "I M M A"
_symmetry_group_IT_number 74
_symmetry_cell_setting 'orthorhombic'
loop_
_space_group_symop_operation_xyz
x,y,z
-x,1/2-y,z
x,-y,-z
-x,1/2+y,-z
-x,-y,-z
x,1/2+y,-z
-x,y,z
x,1/2-y,z
1/2+x,1/2+y,1/2+z
1/2-x,-y,1/2+z
1/2+x,1/2-y,1/2-z
1/2-x,y,1/2-z
1/2-x,1/2-y,1/2-z
1/2+x,y,1/2-z
1/2-x,1/2+y,1/2+z
1/2+x,-y,1/2+z
loop_
_atom_site_type_symbol
_atom_site_label
_atom_site_fract_x
_atom_site_fract_y
_atom_site_fract_z
Si Si1 0.341374 0.463451 0.944050
Si Si2 0.432501 0.031547 0.723204
Si Si3 0.569443 0.541728 0.866130
Si Si4 0.500000 0.750000 0.573157
Si Si5 0.737651 0.529807 0.368743
Si Si6 0.405380 0.033343 0.612538
Si Si7 0.827819 0.953611 0.290421
O O1 0.343146 0.250000 0.937677
O O2 0.404700 0.535768 0.920367
O O3 0.284267 0.531249 0.911046
O O4 0.333790 0.500000 0.000000
O O5 0.500000 0.968395 0.742721
O O6 0.431256 0.250000 0.729402
O O7 0.431007 0.997547 0.666475
O O8 0.369572 0.961256 0.748225
O O9 0.500000 0.467687 0.862123
O O10 0.569130 0.750000 0.850610
O O11 0.620524 0.446108 0.833137
O O12 0.554662 0.590703 0.577402
O O13 0.739018 0.750000 0.365891
O O14 0.667470 0.483475 0.382607
O O15 0.767169 0.467692 0.317443
O O16 0.410829 0.250000 0.602990
O O17 0.811979 0.750000 0.275041
#
# Coordination Sequence:
#
# PCOD9537173 Si02
#       7
#    16  16  16   4  16  16  16
#     4  10  20  36  57  81 105 135 174 219 268 325
#     4   9  16  28  49  74 103 142 186 226 270 312
#     4  10  20  33  47  71 105 146 186 225 273 310
#     4  12  22  36  56  88 106 144 190 216 278 328
#     4   8  17  34  55  78 108 138 173 215 270 326
#     4  10  20  37  56  80 115 142 178 230 270 323
#     4   9  17  31  51  75 102 143 189 227 267 320
#
# _framework density 22.705079000000001
#
# number of rings (size 3 to 8) (size 9 to 14) (size 15 to 20)
#    0.000    2.560    0.800    2.640    0.000    2.880 
#    8.640    3.200    0.000    0.960    0.000    0.560 
#    0.000    0.000    0.000    0.000    0.000    0.000 
#
# Total GULP energy -278532.002368 kJ/mol
# GULP energy per Si atom -5570.640047 kJ/mol
# Density = 2.265340 g / cm^3
# Si number density = 22.705079 Si / 1000 Ang^3
#
#
#
# Elastic Constant Matrix: (Units=GPa)
#
#
# Indices 1 2 3 4 5 6 
#
# 1 151.0038 14.7175 -5.9764 0.0000 0.0000 0.0000
# 2 14.7175 98.6994 -6.8193 0.0000 0.0000 0.0000
# 3 -5.9764 -6.8193 20.7800 0.0000 0.0000 0.0000
# 4 0.0000 0.0000 0.0000 -6.4207 0.0000 0.0000
# 5 0.0000 0.0000 0.0000 0.0000 12.6015 0.0000
# 6 0.0000 0.0000 0.0000 0.0000 0.0000 -74.8876
#
#
#
# Elastic Compliance Matrix: (Units=1/GPa)
#
#
# Indices 1 2 3 4 5 6 
#
# 1 0.006775 -0.000896 0.001655 0.000000 0.000000 0.000000
# 2 -0.000896 0.010485 0.003183 0.000000 0.000000 0.000000
# 3 0.001655 0.003183 0.049644 0.000000 0.000000 0.000000
# 4 0.000000 0.000000 0.000000 -0.155746 0.000000 0.000000
# 5 0.000000 0.000000 0.000000 0.000000 0.079355 0.000000
# 6 0.000000 0.000000 0.000000 0.000000 0.000000 -0.013353
#
#
# Mechanical properties :
#
#
# Convention : Reuss Voigt Hill
#
# Bulk Modulus (GPa) = 13.37117 30.48075 21.92596
# Shear Modulus (GPa) = -862.96677 4.16273 -429.40202
#
# Velocity S-wave (km/s) = -19.51670 1.35550 -13.76707
# Velocity P-wave (km/s) = 22.40462 3.98793 15.58947
#
# Compressibility (1/GPa) = 0.07478779
#
# Stress axis : x y z
#
# Youngs Moduli (GPa) = 147.59800 95.37148 20.14356
#
# Poissons Ratio (x) = 0.08545 -0.03333
# Poissons Ratio (y) = 0.13224 -0.06412
# Poissons Ratio (z) = -0.24421 -0.30359
#
# Static dielectric constant tensor:
#      x y z
#    x 1.876240 0.000000 0.000000 
#    y 0.000000 1.892380 0.000000 
#    z 0.000000 0.000000 1.863780 
# 
# From -- ./inp_files/73340.got.cif
#   From: 2010.05.17/outbox.cif.g08.bks.cpg/sg74_37_cif.got.tgz:73340.got - 2010.06.03 17:57:02.
