data_PCOD9537314
_publ_section_title
;
Structure prediction by ZEFSAII (Michael W. Deem and Ramdas Pophale) SiO2 
 PCOD9537314
Probable space group: I M M A
;
_chemical_formula_sum "Si O2"
_cell_formula_units_Z 72
_cell_length_a 8.513274
_cell_length_b 29.973332
_cell_length_c 14.325496
_cell_angle_alpha 90.000000
_cell_angle_beta 90.000000
_cell_angle_gamma 90.000000
_cell_volume 3655.453833
_symmetry_space_group_name_H-M "I M M A"
_symmetry_group_IT_number 74
_symmetry_cell_setting 'orthorhombic'
loop_
_space_group_symop_operation_xyz
x,y,z
-x,1/2-y,z
x,-y,-z
-x,1/2+y,-z
-x,-y,-z
x,1/2+y,-z
-x,y,z
x,1/2-y,z
1/2+x,1/2+y,1/2+z
1/2-x,-y,1/2+z
1/2+x,1/2-y,1/2-z
1/2-x,y,1/2-z
1/2-x,1/2-y,1/2-z
1/2+x,y,1/2-z
1/2-x,1/2+y,1/2+z
1/2+x,-y,1/2+z
loop_
_atom_site_type_symbol
_atom_site_label
_atom_site_fract_x
_atom_site_fract_y
_atom_site_fract_z
Si Si1 0.688646 0.977025 0.356841
Si Si2 0.810600 0.338742 0.462944
Si Si3 0.312528 0.617781 0.145369
Si Si4 0.309301 0.750000 0.855891
Si Si5 0.188767 0.574767 0.856244
O O1 0.500000 0.973840 0.358526
O O2 0.750000 0.978294 0.250000
O O3 0.756587 0.930522 0.392805
O O4 0.732931 0.025667 0.396540
O O5 0.760743 0.345223 0.570531
O O6 0.755492 0.294297 0.410721
O O7 0.756102 0.382893 0.409267
O O8 0.000000 0.337755 0.461910
O O9 0.500000 0.616949 0.150287
O O10 0.250000 0.624118 0.250000
O O11 0.500000 0.750000 0.854259
O O12 0.250000 0.750000 0.750000
O O13 0.250000 0.576501 0.750000
O O14 0.000000 0.576899 0.856263
#
# Coordination Sequence:
#
# PCOD9537314 Si02
#       5
#    16  16  16   8  16
#     4   9  17  30  49  75 108 146 182 219 264 314
#     4  10  22  38  57  80 107 141 181 223 272 325
#     4  10  20  35  55  79 108 144 182 223 267 314
#     4  10  22  42  63  84 110 138 171 216 269 324
#     4  10  20  33  52  79 112 146 182 224 269 319
#
# _framework density 19.696597000000001
#
# number of rings (size 3 to 8) (size 9 to 14) (size 15 to 20)
#    0.000    2.222    0.000    4.000    0.000    8.000 
#    0.000    5.000    0.000    0.000    0.000    0.000 
#    0.000    0.000    0.000    0.000    0.000    0.000 
#
# Total GULP energy -200912.245136 kJ/mol
# GULP energy per Si atom -5580.895698 kJ/mol
# Density = 1.965177 g / cm^3
# Si number density = 19.696597 Si / 1000 Ang^3
#
#
#
# Elastic Constant Matrix: (Units=GPa)
#
#
# Indices 1 2 3 4 5 6 
#
# 1 20.4928 29.0652 22.0168 0.0003 0.0000 -0.0001
# 2 29.0652 160.5470 97.9041 0.0004 0.0000 -0.0003
# 3 22.0168 97.9041 130.2375 0.0035 0.0000 -0.0007
# 4 0.0003 0.0004 0.0035 -61.0223 0.0004 -0.0168
# 5 0.0000 0.0000 0.0000 0.0004 19.5635 0.0000
# 6 -0.0001 -0.0003 -0.0007 -0.0168 0.0000 201.7722
#
#
#
# Elastic Compliance Matrix: (Units=1/GPa)
#
#
# Indices 1 2 3 4 5 6 
#
# 1 0.066802 -0.009615 -0.004065 0.000000 0.000000 0.000000
# 2 -0.009615 0.012885 -0.008061 0.000000 0.000000 0.000000
# 3 -0.004065 -0.008061 0.014425 0.000001 0.000000 0.000000
# 4 0.000000 0.000000 0.000001 -0.016387 0.000000 -0.000001
# 5 0.000000 0.000000 0.000000 0.000000 0.051116 0.000000
# 6 0.000000 0.000000 0.000000 -0.000001 0.000000 0.004956
#
#
# Mechanical properties :
#
#
# Convention : Reuss Voigt Hill
#
# Bulk Modulus (GPa) = 19.75092 67.69437 43.72265
# Shear Modulus (GPa) = 25.75282 42.88211 34.31746
#
# Velocity S-wave (km/s) = 3.61983 4.67104 4.17862
# Velocity P-wave (km/s) = 5.24597 7.97086 6.74740
#
# Compressibility (1/GPa) = 0.05063055
#
# Stress axis : x y z
#
# Youngs Moduli (GPa) = 14.96966 77.61076 69.32434
#
# Poissons Ratio (x) = 0.74620 0.28182
# Poissons Ratio (y) = 0.14393 0.55880
# Poissons Ratio (z) = 0.06086 0.62559
#
# Static dielectric constant tensor:
#      x y z
#    x 1.673470 0.000000 0.000000 
#    y 0.000000 1.700050 0.000000 
#    z 0.000000 0.000000 1.645040 
# 
# From -- ./inp_files/29191.got.cif
#   From: 2010.05.17/outbox.cif.g08.bks.cpg/sg74_15_cif.got.tgz:29191.got - 2010.06.03 17:57:02.
