data_PCOD9537116
_publ_section_title
;
Structure prediction by ZEFSAII (Michael W. Deem and Ramdas Pophale) SiO2 
 PCOD9537116
Probable space group: I M M A
;
_chemical_formula_sum "Si O2"
_cell_formula_units_Z 112
_cell_length_a 24.873399
_cell_length_b 14.502563
_cell_length_c 16.124850
_cell_angle_alpha 90.000000
_cell_angle_beta 90.000000
_cell_angle_gamma 90.000000
_cell_volume 5816.685472
_symmetry_space_group_name_H-M "I M M A"
_symmetry_group_IT_number 74
_symmetry_cell_setting 'orthorhombic'
loop_
_space_group_symop_operation_xyz
x,y,z
-x,1/2-y,z
x,-y,-z
-x,1/2+y,-z
-x,-y,-z
x,1/2+y,-z
-x,y,z
x,1/2-y,z
1/2+x,1/2+y,1/2+z
1/2-x,-y,1/2+z
1/2+x,1/2-y,1/2-z
1/2-x,y,1/2-z
1/2-x,1/2-y,1/2-z
1/2+x,y,1/2-z
1/2-x,1/2+y,1/2+z
1/2+x,-y,1/2+z
loop_
_atom_site_type_symbol
_atom_site_label
_atom_site_fract_x
_atom_site_fract_y
_atom_site_fract_z
Si Si1 0.652671 0.858878 0.942787
Si Si2 0.788881 0.502471 0.814064
Si Si3 0.752235 0.853057 0.062492
Si Si4 0.384290 0.006230 0.202015
Si Si5 0.148378 0.596232 0.957281
Si Si6 0.062666 0.647399 0.829348
Si Si7 0.562815 0.357819 0.916316
O O1 0.655418 0.750000 0.919215
O O2 0.643396 0.926740 0.866025
O O3 0.706682 0.880382 0.995512
O O4 0.601966 0.870819 0.004856
O O5 0.750000 0.551968 0.750000
O O6 0.756402 0.424364 0.862780
O O7 0.838586 0.463282 0.761203
O O8 0.813025 0.571060 0.880657
O O9 0.738483 0.750000 0.090111
O O10 0.811551 0.854200 0.020840
O O11 0.418938 0.071026 0.263216
O O12 0.417619 0.928497 0.154023
O O13 0.097390 0.641052 0.913658
O O14 0.132092 0.500000 0.000000
O O15 0.071317 0.750000 0.793496
O O16 0.000000 0.636128 0.847615
O O17 0.500000 0.373848 0.936599
O O18 0.568361 0.250000 0.891054
#
# Coordination Sequence:
#
# PCOD9537116 Si02
#       7
#    16  16  16  16  16  16  16
#     4  10  21  36  56  83 112 146 187 227 271 327
#     4  10  20  32  50  77 106 136 173 217 266 322
#     4  10  20  35  55  78 107 141 179 224 270 321
#     4  11  21  35  56  80 110 146 181 224 278 331
#     4   9  19  35  54  77 104 140 182 224 270 322
#     4  10  21  36  55  81 111 143 182 229 280 332
#     4  10  22  38  55  78 109 146 188 230 272 324
#
# _framework density 19.254951999999999
#
# number of rings (size 3 to 8) (size 9 to 14) (size 15 to 20)
#    0.000    2.000    0.000    3.429    0.000    5.143 
#    0.000    1.429    0.000    6.857    0.000   15.000 
#    0.000    0.000    0.000    0.000    0.000    0.000 
#
# Total GULP energy -312533.981157 kJ/mol
# GULP energy per Si atom -5580.963949 kJ/mol
# Density = 1.921113 g / cm^3
# Si number density = 19.254952 Si / 1000 Ang^3
#
#
#
# Elastic Constant Matrix: (Units=GPa)
#
#
# Indices 1 2 3 4 5 6 
#
# 1 93.2543 31.4542 30.5303 0.0000 0.0000 0.0000
# 2 31.4542 64.5253 26.8582 0.0000 0.0000 0.0000
# 3 30.5303 26.8582 63.7524 0.0000 0.0000 0.0000
# 4 0.0000 0.0000 0.0000 10.5708 0.0000 0.0000
# 5 0.0000 0.0000 0.0000 0.0000 28.3480 0.0000
# 6 0.0000 0.0000 0.0000 0.0000 0.0000 874.9341
#
#
#
# Elastic Compliance Matrix: (Units=1/GPa)
#
#
# Indices 1 2 3 4 5 6 
#
# 1 0.013862 -0.004844 -0.004598 0.000000 0.000000 0.000000
# 2 -0.004844 0.020486 -0.006311 0.000000 0.000000 0.000000
# 3 -0.004598 -0.006311 0.020546 0.000000 0.000000 0.000000
# 4 0.000000 0.000000 0.000000 0.094600 0.000000 0.000000
# 5 0.000000 0.000000 0.000000 0.000000 0.035276 0.000000
# 6 0.000000 0.000000 0.000000 0.000000 0.000000 0.001143
#
#
# Mechanical properties :
#
#
# Convention : Reuss Voigt Hill
#
# Bulk Modulus (GPa) = 42.75422 44.35750 43.55586
# Shear Modulus (GPa) = 22.20101 191.61654 106.90878
#
# Velocity S-wave (km/s) = 3.39927 9.98657 7.45944
# Velocity P-wave (km/s) = 6.13671 12.49249 9.84179
#
# Compressibility (1/GPa) = 0.02338951
#
# Stress axis : x y z
#
# Youngs Moduli (GPa) = 72.13740 48.81431 48.67047
#
# Poissons Ratio (x) = 0.23644 0.22379
# Poissons Ratio (y) = 0.34941 0.30715
# Poissons Ratio (z) = 0.33169 0.30806
#
# Static dielectric constant tensor:
#      x y z
#    x 1.690400 0.000000 0.000000 
#    y 0.000000 1.689630 0.000000 
#    z 0.000000 0.000000 1.661360 
# 
# From -- ./inp_files/32686.got.cif
#   From: 2010.05.17/outbox.cif.g08.bks.cpg/sg74_17_cif.got.tgz:32686.got - 2010.06.03 17:57:02.
