data_PCOD9537482
_publ_section_title
;
Structure prediction by ZEFSAII (Michael W. Deem and Ramdas Pophale) SiO2 
 PCOD9537482
Probable space group: I M M A
;
_chemical_formula_sum "Si O2"
_cell_formula_units_Z 116
_cell_length_a 7.667357
_cell_length_b 29.054602
_cell_length_c 23.857173
_cell_angle_alpha 90.000000
_cell_angle_beta 90.000000
_cell_angle_gamma 90.000000
_cell_volume 5314.710287
_symmetry_space_group_name_H-M "I M M A"
_symmetry_group_IT_number 74
_symmetry_cell_setting 'orthorhombic'
loop_
_space_group_symop_operation_xyz
x,y,z
-x,1/2-y,z
x,-y,-z
-x,1/2+y,-z
-x,-y,-z
x,1/2+y,-z
-x,y,z
x,1/2-y,z
1/2+x,1/2+y,1/2+z
1/2-x,-y,1/2+z
1/2+x,1/2-y,1/2-z
1/2-x,y,1/2-z
1/2-x,1/2-y,1/2-z
1/2+x,y,1/2-z
1/2-x,1/2+y,1/2+z
1/2+x,-y,1/2+z
loop_
_atom_site_type_symbol
_atom_site_label
_atom_site_fract_x
_atom_site_fract_y
_atom_site_fract_z
Si Si1 0.797885 0.869296 0.426312
Si Si2 0.708811 0.198509 0.474791
Si Si3 0.209948 0.075996 0.123325
Si Si4 0.791501 0.948273 0.499128
Si Si5 0.000000 0.250000 0.307368
Si Si6 0.209354 0.486866 0.813781
Si Si7 0.299126 0.883912 0.310337
Si Si8 0.211554 0.324217 0.156257
O O1 0.780188 0.834504 0.477598
O O2 0.717243 0.916992 0.449306
O O3 0.725018 0.854842 0.366373
O O4 0.000000 0.876766 0.415808
O O5 0.500000 0.197583 0.480790
O O6 0.774301 0.250000 0.484028
O O7 0.741953 0.186411 0.410041
O O8 0.278712 0.027534 0.146963
O O9 0.257517 0.121396 0.158938
O O10 0.000000 0.075809 0.124139
O O11 0.261422 0.077155 0.058126
O O12 0.000000 0.951259 0.491288
O O13 0.720266 0.000000 0.500000
O O14 0.156442 0.290524 0.311645
O O15 0.250000 0.500078 0.750000
O O16 0.282645 0.434948 0.820158
O O17 0.000000 0.486460 0.822082
O O18 0.500000 0.893727 0.304216
O O19 0.250000 0.864083 0.250000
O O20 0.000000 0.317035 0.167483
#
# Coordination Sequence:
#
# PCOD9537482 Si02
#       8
#    16  16  16  16   4  16  16  16
#     4  11  22  33  52  79 109 142 185 226 275 333
#     4  10  20  35  53  75 108 144 182 228 282 328
#     4  10  20  34  52  76 112 144 181 228 278 334
#     4  10  21  33  47  73 111 150 184 220 268 331
#     4  12  22  32  60  78 112 148 194 224 290 348
#     4   9  19  35  55  80 107 144 186 231 277 325
#     4  10  20  36  57  78 106 142 187 231 276 327
#     4  10  21  35  53  81 114 146 185 237 281 339
#
# _framework density 21.826214
#
# number of rings (size 3 to 8) (size 9 to 14) (size 15 to 20)
#    0.000    1.931    2.069    1.862    1.931    2.207 
#    0.000    0.000    0.000    0.414    0.000    0.483 
#    0.000    0.000    0.000    0.000    0.000    0.000 
#
# Total GULP energy -323147.513529 kJ/mol
# GULP energy per Si atom -5571.508854 kJ/mol
# Density = 2.177654 g / cm^3
# Si number density = 21.826214 Si / 1000 Ang^3
#
#
#
# Elastic Constant Matrix: (Units=GPa)
#
#
# Indices 1 2 3 4 5 6 
#
# 1 62.7629 8.1778 0.7437 0.0000 0.0000 0.0000
# 2 8.1778 38.5967 -12.6495 0.0000 0.0000 0.0000
# 3 0.7437 -12.6495 66.7520 0.0000 0.0000 0.0000
# 4 0.0000 0.0000 0.0000 16.6065 0.0000 0.0000
# 5 0.0000 0.0000 0.0000 0.0000 12.4104 0.0000
# 6 0.0000 0.0000 0.0000 0.0000 0.0000 16.9850
#
#
#
# Elastic Compliance Matrix: (Units=1/GPa)
#
#
# Indices 1 2 3 4 5 6 
#
# 1 0.016436 -0.003777 -0.000899 0.000000 0.000000 0.000000
# 2 -0.003777 0.028493 0.005441 0.000000 0.000000 0.000000
# 3 -0.000899 0.005441 0.016022 0.000000 0.000000 0.000000
# 4 0.000000 0.000000 0.000000 0.060217 0.000000 0.000000
# 5 0.000000 0.000000 0.000000 0.000000 0.080578 0.000000
# 6 0.000000 0.000000 0.000000 0.000000 0.000000 0.058875
#
#
# Mechanical properties :
#
#
# Convention : Reuss Voigt Hill
#
# Bulk Modulus (GPa) = 16.00472 17.85061 16.92767
# Shear Modulus (GPa) = 17.86246 20.65637 19.25941
#
# Velocity S-wave (km/s) = 2.86386 3.07970 2.97374
# Velocity P-wave (km/s) = 4.27602 4.56534 4.42305
#
# Compressibility (1/GPa) = 0.06248155
#
# Stress axis : x y z
#
# Youngs Moduli (GPa) = 60.84298 35.09689 62.41418
#
# Poissons Ratio (x) = 0.13256 0.05610
# Poissons Ratio (y) = 0.22980 -0.33962
# Poissons Ratio (z) = 0.05469 -0.19098
#
# Static dielectric constant tensor:
#      x y z
#    x 1.797580 0.000000 0.000000 
#    y 0.000000 1.830430 0.000000 
#    z 0.000000 0.000000 1.816980 
# 
# From -- ./inp_files/57691.got.cif
#   From: 2010.05.17/outbox.cif.g08.bks.cpg/sg74_29_cif.got.tgz:57691.got - 2010.06.03 17:57:02.
