data_PCOD9537975
_publ_section_title
;
Structure prediction by ZEFSAII (Michael W. Deem and Ramdas Pophale) SiO2 
 PCOD9537975
Probable space group: I M M A
;
_chemical_formula_sum "Si O2"
_cell_formula_units_Z 96
_cell_length_a 13.270910
_cell_length_b 11.399142
_cell_length_c 26.608926
_cell_angle_alpha 90.000000
_cell_angle_beta 90.000000
_cell_angle_gamma 90.000000
_cell_volume 4025.318167
_symmetry_space_group_name_H-M "I M M A"
_symmetry_group_IT_number 74
_symmetry_cell_setting 'orthorhombic'
loop_
_space_group_symop_operation_xyz
x,y,z
-x,1/2-y,z
x,-y,-z
-x,1/2+y,-z
-x,-y,-z
x,1/2+y,-z
-x,y,z
x,1/2-y,z
1/2+x,1/2+y,1/2+z
1/2-x,-y,1/2+z
1/2+x,1/2-y,1/2-z
1/2-x,y,1/2-z
1/2-x,1/2-y,1/2-z
1/2+x,y,1/2-z
1/2-x,1/2+y,1/2+z
1/2+x,-y,1/2+z
loop_
_atom_site_type_symbol
_atom_site_label
_atom_site_fract_x
_atom_site_fract_y
_atom_site_fract_z
Si Si1 0.117129 0.512054 0.124028
Si Si2 0.120457 0.449072 0.767087
Si Si3 0.658423 0.250000 0.925558
Si Si4 0.622915 0.250000 0.812284
Si Si5 0.621155 0.879001 0.814071
Si Si6 0.673488 0.494443 0.081635
Si Si7 0.705149 0.750000 0.965782
Si Si8 0.110257 0.750000 0.890935
O O1 0.150059 0.573514 0.175756
O O2 0.205447 0.524555 0.082765
O O3 0.116675 0.372832 0.137758
O O4 0.000000 0.542137 0.110512
O O5 0.147758 0.357472 0.724093
O O6 0.146845 0.570782 0.740385
O O7 0.000000 0.444769 0.770492
O O8 0.677923 0.250000 0.865741
O O9 0.616457 0.384335 0.930921
O O10 0.727389 0.250000 0.975266
O O11 0.500000 0.250000 0.822404
O O12 0.500000 0.873686 0.815664
O O13 0.663736 0.750000 0.822818
O O14 0.650802 0.958769 0.861050
O O15 0.653562 0.375090 0.049879
O O16 0.804829 0.750000 0.932605
O O17 0.000000 0.750000 0.915567
#
# Coordination Sequence:
#
# PCOD9537975 Si02
#       8
#    16  16   8   8  16  16   8   8
#     4   9  19  35  57  86 122 158 194 238 294 358
#     4   9  18  33  54  82 116 158 195 233 286 351
#     4  12  24  39  60  86 114 156 204 254 302 350
#     4  10  20  37  57  78 116 164 206 241 287 356
#     4  10  20  35  57  83 118 157 195 239 293 350
#     4  11  22  40  61  88 116 153 197 252 304 357
#     4  10  22  42  62  82 118 152 196 257 317 356
#     4   8  16  34  61  88 114 150 198 250 302 362
#
# _framework density 23.849046000000001
#
# number of rings (size 3 to 8) (size 9 to 14) (size 15 to 20)
#    0.000    2.167    2.500    0.500    1.167    1.333 
#    0.000    4.583    0.000    6.000    0.000    0.000 
#    0.000    0.000    0.000    0.000    0.000    0.000 
#
# Total GULP energy -267412.075289 kJ/mol
# GULP energy per Si atom -5571.084902 kJ/mol
# Density = 2.379476 g / cm^3
# Si number density = 23.849046 Si / 1000 Ang^3
#
#
#
# Elastic Constant Matrix: (Units=GPa)
#
#
# Indices 1 2 3 4 5 6 
#
# 1 97.8846 13.0447 10.3551 0.0000 0.0000 0.0000
# 2 13.0447 143.8034 25.2804 0.0000 0.0000 0.0000
# 3 10.3551 25.2804 89.3864 0.0000 0.0000 0.0000
# 4 0.0000 0.0000 0.0000 -14.2431 0.0000 0.0000
# 5 0.0000 0.0000 0.0000 0.0000 -6.1315 0.0000
# 6 0.0000 0.0000 0.0000 0.0000 0.0000 7.5287
#
#
#
# Elastic Compliance Matrix: (Units=1/GPa)
#
#
# Indices 1 2 3 4 5 6 
#
# 1 0.010424 -0.000772 -0.000989 0.000000 0.000000 0.000000
# 2 -0.000772 0.007375 -0.001996 0.000000 0.000000 0.000000
# 3 -0.000989 -0.001996 0.011867 0.000000 0.000000 0.000000
# 4 0.000000 0.000000 0.000000 -0.070209 0.000000 0.000000
# 5 0.000000 0.000000 0.000000 0.000000 -0.163093 0.000000
# 6 0.000000 0.000000 0.000000 0.000000 0.000000 0.132825
#
#
# Mechanical properties :
#
#
# Convention : Reuss Voigt Hill
#
# Bulk Modulus (GPa) = 45.14577 47.60386 46.37481
# Shear Modulus (GPa) = -89.42203 16.25711 -36.58246
#
# Velocity S-wave (km/s) = -6.12996 2.61371 -3.92077
# Velocity P-wave (km/s) = 5.57952 5.39560 1.00462
#
# Compressibility (1/GPa) = 0.02215047
#
# Stress axis : x y z
#
# Youngs Moduli (GPa) = 95.93609 135.59515 84.27002
#
# Poissons Ratio (x) = 0.10463 0.08337
# Poissons Ratio (y) = 0.07403 0.16824
# Poissons Ratio (z) = 0.09491 0.27070
#
# Static dielectric constant tensor:
#      x y z
#    x 1.989750 0.000000 0.000000 
#    y 0.000000 2.000370 0.000000 
#    z 0.000000 0.000000 1.834230 
# 
# From -- ./inp_files/60859.got.cif
#   From: 2010.05.17/outbox.cif.g08.bks.cpg/sg74_31_cif.got.tgz:60859.got - 2010.06.03 17:57:02.
