data_PCOD9537659
_publ_section_title
;
Structure prediction by ZEFSAII (Michael W. Deem and Ramdas Pophale) SiO2 
 PCOD9537659
Probable space group: I M M A
;
_chemical_formula_sum "Si O2"
_cell_formula_units_Z 112
_cell_length_a 26.615100
_cell_length_b 14.596922
_cell_length_c 16.401051
_cell_angle_alpha 90.000000
_cell_angle_beta 90.000000
_cell_angle_gamma 90.000000
_cell_volume 6371.784347
_symmetry_space_group_name_H-M "I M M A"
_symmetry_group_IT_number 74
_symmetry_cell_setting 'orthorhombic'
loop_
_space_group_symop_operation_xyz
x,y,z
-x,1/2-y,z
x,-y,-z
-x,1/2+y,-z
-x,-y,-z
x,1/2+y,-z
-x,y,z
x,1/2-y,z
1/2+x,1/2+y,1/2+z
1/2-x,-y,1/2+z
1/2+x,1/2-y,1/2-z
1/2-x,y,1/2-z
1/2-x,1/2-y,1/2-z
1/2+x,y,1/2-z
1/2-x,1/2+y,1/2+z
1/2+x,-y,1/2+z
loop_
_atom_site_type_symbol
_atom_site_label
_atom_site_fract_x
_atom_site_fract_y
_atom_site_fract_z
Si Si1 0.306264 0.144858 0.783654
Si Si2 0.862036 0.141277 0.284738
Si Si3 0.941513 0.049635 0.166825
Si Si4 0.783220 0.852801 0.856937
Si Si5 0.309543 0.521987 0.905044
Si Si6 0.397315 0.351684 0.657835
Si Si7 0.869575 0.601293 0.977480
O O1 0.310770 0.250000 0.812790
O O2 0.250000 0.132805 0.750000
O O3 0.347101 0.132562 0.711704
O O4 0.314496 0.070997 0.853584
O O5 0.867987 0.250000 0.291573
O O6 0.908818 0.097168 0.237377
O O7 0.813053 0.124256 0.226378
O O8 0.851218 0.091491 0.369572
O O9 0.917182 0.085487 0.081950
O O10 0.000000 0.070718 0.171500
O O11 0.932211 0.940044 0.170914
O O12 0.761221 0.750000 0.850277
O O13 0.742834 0.927507 0.883166
O O14 0.826682 0.851167 0.925136
O O15 0.312680 0.500000 0.000000
O O16 0.417194 0.250000 0.678670
O O17 0.383239 0.352696 0.562339
O O18 0.850421 0.500000 0.000000
#
# Coordination Sequence:
#
# PCOD9537659 Si02
#       7
#    16  16  16  16  16  16  16
#     4  10  22  37  55  79 113 155 193 226 267 329
#     4  10  21  40  60  81 113 152 190 231 285 341
#     4  10  21  38  60  86 115 145 187 240 288 337
#     4  10  20  34  55  82 115 154 190 226 269 328
#     4  12  24  35  56  83 114 145 188 238 284 328
#     4  10  20  36  57  81 118 160 191 224 273 333
#     4   9  19  32  52  83 117 155 188 225 270 326
#
# _framework density 17.577494000000002
#
# number of rings (size 3 to 8) (size 9 to 14) (size 15 to 20)
#    0.000    1.857    1.429    2.571    6.000    6.000 
#    0.000    0.000    0.000    0.429    0.000    0.000 
#    0.000    0.000    0.000    0.000    0.000    0.000 
#
# Total GULP energy -312677.886710 kJ/mol
# GULP energy per Si atom -5583.533691 kJ/mol
# Density = 1.753749 g / cm^3
# Si number density = 17.577494 Si / 1000 Ang^3
#
#
#
# Elastic Constant Matrix: (Units=GPa)
#
#
# Indices 1 2 3 4 5 6 
#
# 1 83.7920 45.6501 57.6078 0.0000 0.0000 0.0000
# 2 45.6501 115.6700 70.5924 0.0000 0.0000 0.0000
# 3 57.6078 70.5924 109.2413 0.0000 0.0000 0.0000
# 4 0.0000 0.0000 0.0000 9.3440 0.0000 0.0000
# 5 0.0000 0.0000 0.0000 0.0000 5.5068 0.0000
# 6 0.0000 0.0000 0.0000 0.0000 0.0000 6.9321
#
#
#
# Elastic Compliance Matrix: (Units=1/GPa)
#
#
# Indices 1 2 3 4 5 6 
#
# 1 0.019084 -0.002295 -0.008581 0.000000 0.000000 0.000000
# 2 -0.002295 0.014551 -0.008193 0.000000 0.000000 0.000000
# 3 -0.008581 -0.008193 0.018973 0.000000 0.000000 0.000000
# 4 0.000000 0.000000 0.000000 0.107021 0.000000 0.000000
# 5 0.000000 0.000000 0.000000 0.000000 0.181593 0.000000
# 6 0.000000 0.000000 0.000000 0.000000 0.000000 0.144256
#
#
# Mechanical properties :
#
#
# Convention : Reuss Voigt Hill
#
# Bulk Modulus (GPa) = 69.10216 72.93379 71.01798
# Shear Modulus (GPa) = 9.46185 13.34679 11.40432
#
# Velocity S-wave (km/s) = 2.32263 2.75855 2.54992
# Velocity P-wave (km/s) = 6.82576 7.19228 7.01142
#
# Compressibility (1/GPa) = 0.01447133
#
# Stress axis : x y z
#
# Youngs Moduli (GPa) = 52.39991 68.72422 52.70549
#
# Poissons Ratio (x) = 0.15771 0.45226
# Poissons Ratio (y) = 0.12025 0.43180
# Poissons Ratio (z) = 0.44964 0.56304
#
# Static dielectric constant tensor:
#      x y z
#    x 1.576240 0.000000 0.000000 
#    y 0.000000 1.641750 0.000000 
#    z 0.000000 0.000000 1.591050 
# 
# From -- ./inp_files/32753.got.cif
#   From: 2010.05.17/outbox.cif.g08.bks.cpg/sg74_17_cif.got.tgz:32753.got - 2010.06.03 17:57:02.
