data_PCOD9537632
_publ_section_title
;
Structure prediction by ZEFSAII (Michael W. Deem and Ramdas Pophale) SiO2 
 PCOD9537632
Probable space group: I M M A
;
_chemical_formula_sum "Si O2"
_cell_formula_units_Z 92
_cell_length_a 7.959068
_cell_length_b 22.364671
_cell_length_c 28.456897
_cell_angle_alpha 90.000000
_cell_angle_beta 90.000000
_cell_angle_gamma 90.000000
_cell_volume 5065.382795
_symmetry_space_group_name_H-M "I M M A"
_symmetry_group_IT_number 74
_symmetry_cell_setting 'orthorhombic'
loop_
_space_group_symop_operation_xyz
x,y,z
-x,1/2-y,z
x,-y,-z
-x,1/2+y,-z
-x,-y,-z
x,1/2+y,-z
-x,y,z
x,1/2-y,z
1/2+x,1/2+y,1/2+z
1/2-x,-y,1/2+z
1/2+x,1/2-y,1/2-z
1/2-x,y,1/2-z
1/2-x,1/2-y,1/2-z
1/2+x,y,1/2-z
1/2-x,1/2+y,1/2+z
1/2+x,-y,1/2+z
loop_
_atom_site_type_symbol
_atom_site_label
_atom_site_fract_x
_atom_site_fract_y
_atom_site_fract_z
Si Si1 0.801097 0.877026 0.343912
Si Si2 0.298505 0.068162 0.941585
Si Si3 0.801510 0.445900 0.100998
Si Si4 0.500000 0.750000 0.531493
Si Si5 0.302881 0.150208 0.031583
Si Si6 0.196626 0.998741 0.197956
Si Si7 0.698318 0.250000 0.695743
O O1 0.742865 0.892281 0.396656
O O2 0.729603 0.928277 0.310082
O O3 0.760929 0.810359 0.328504
O O4 0.000000 0.884490 0.342830
O O5 0.500000 0.059639 0.939394
O O6 0.220334 0.003203 0.933240
O O7 0.265001 0.104251 0.988797
O O8 0.710205 0.389327 0.078778
O O9 0.732365 0.467129 0.152051
O O10 0.000000 0.432681 0.104483
O O11 0.652869 0.698371 0.531502
O O12 0.500000 0.170803 0.025912
O O13 0.250000 0.017053 0.250000
O O14 0.000000 0.008081 0.195210
O O15 0.500000 0.250000 0.693057
O O16 0.750000 0.250000 0.750000
#
# Coordination Sequence:
#
# PCOD9537632 Si02
#       7
#    16  16  16   4  16  16   8
#     4  10  20  36  53  73 106 147 190 239 289 336
#     4   9  20  36  57  85 115 151 191 239 295 351
#     4  10  20  35  59  90 120 151 194 239 294 354
#     4  12  26  42  58  86 116 160 202 244 292 336
#     4  11  23  41  62  87 121 157 201 241 291 355
#     4  10  20  34  54  83 118 146 183 233 291 348
#     4  12  24  37  50  68  95 140 200 241 285 335
#
# _framework density 18.162496000000001
#
# number of rings (size 3 to 8) (size 9 to 14) (size 15 to 20)
#    0.000    1.739    0.870    3.652    1.217    5.565 
#    1.565    2.609    0.000    0.000    0.000    0.609 
#    0.000    0.000    0.000    0.000    0.000    0.000 
#
# Total GULP energy -256106.373917 kJ/mol
# GULP energy per Si atom -5567.529868 kJ/mol
# Density = 1.812116 g / cm^3
# Si number density = 18.162496 Si / 1000 Ang^3
#
#
#
# Elastic Constant Matrix: (Units=GPa)
#
#
# Indices 1 2 3 4 5 6 
#
# 1 78.6116 36.4073 30.3272 0.0000 0.0000 0.0000
# 2 36.4073 57.3843 41.9917 0.0000 0.0000 0.0000
# 3 30.3272 41.9917 89.3125 0.0000 0.0000 0.0000
# 4 0.0000 0.0000 0.0000 7.3557 0.0000 0.0000
# 5 0.0000 0.0000 0.0000 0.0000 21.1388 0.0000
# 6 0.0000 0.0000 0.0000 0.0000 0.0000 19.3347
#
#
#
# Elastic Compliance Matrix: (Units=1/GPa)
#
#
# Indices 1 2 3 4 5 6 
#
# 1 0.018089 -0.010644 -0.001138 0.000000 0.000000 0.000000
# 2 -0.010644 0.032830 -0.011821 0.000000 0.000000 0.000000
# 3 -0.001138 -0.011821 0.017141 0.000000 0.000000 0.000000
# 4 0.000000 0.000000 0.000000 0.135949 0.000000 0.000000
# 5 0.000000 0.000000 0.000000 0.000000 0.047306 0.000000
# 6 0.000000 0.000000 0.000000 0.000000 0.000000 0.051720
#
#
# Mechanical properties :
#
#
# Convention : Reuss Voigt Hill
#
# Bulk Modulus (GPa) = 47.95300 49.19564 48.57432
# Shear Modulus (GPa) = 13.99801 17.33799 15.66800
#
# Velocity S-wave (km/s) = 2.77918 3.09302 2.94029
# Velocity P-wave (km/s) = 6.06283 6.31671 6.19108
#
# Compressibility (1/GPa) = 0.02085375
#
# Stress axis : x y z
#
# Youngs Moduli (GPa) = 55.28116 30.46032 58.33988
#
# Poissons Ratio (x) = 0.32422 0.06639
# Poissons Ratio (y) = 0.58841 0.68964
# Poissons Ratio (z) = 0.06291 0.36007
#
# Static dielectric constant tensor:
#      x y z
#    x 1.640750 0.000000 0.000000 
#    y 0.000000 1.588090 0.000000 
#    z 0.000000 0.000000 1.698810 
# 
# From -- ./inp_files/64386.got.cif
#   From: 2010.05.17/outbox.cif.g08.bks.cpg/sg74_33_cif.got.tgz:64386.got - 2010.06.03 17:57:02.
