data_PCOD9537218
_publ_section_title
;
Structure prediction by ZEFSAII (Michael W. Deem and Ramdas Pophale) SiO2 
 PCOD9537218
Probable space group: I M M A
;
_chemical_formula_sum "Si O2"
_cell_formula_units_Z 96
_cell_length_a 9.383269
_cell_length_b 14.652455
_cell_length_c 31.989939
_cell_angle_alpha 90.000000
_cell_angle_beta 90.000000
_cell_angle_gamma 90.000000
_cell_volume 4398.230391
_symmetry_space_group_name_H-M "I M M A"
_symmetry_group_IT_number 74
_symmetry_cell_setting 'orthorhombic'
loop_
_space_group_symop_operation_xyz
x,y,z
-x,1/2-y,z
x,-y,-z
-x,1/2+y,-z
-x,-y,-z
x,1/2+y,-z
-x,y,z
x,1/2-y,z
1/2+x,1/2+y,1/2+z
1/2-x,-y,1/2+z
1/2+x,1/2-y,1/2-z
1/2-x,y,1/2-z
1/2-x,1/2-y,1/2-z
1/2+x,y,1/2-z
1/2-x,1/2+y,1/2+z
1/2+x,-y,1/2+z
loop_
_atom_site_type_symbol
_atom_site_label
_atom_site_fract_x
_atom_site_fract_y
_atom_site_fract_z
Si Si1 0.837063 0.638275 0.462489
Si Si2 0.837912 0.858966 0.117781
Si Si3 0.337471 0.109698 0.289960
Si Si4 0.838678 0.859060 0.625728
Si Si5 0.163543 0.638290 0.955110
Si Si6 0.338555 0.608495 0.289345
O O1 0.840184 0.750000 0.462322
O O2 0.759832 0.608156 0.419973
O O3 0.745741 0.611368 0.502866
O O4 0.000000 0.606822 0.464994
O O5 0.849121 0.750000 0.112519
O O6 0.778354 0.874349 0.164331
O O7 0.000000 0.896998 0.116076
O O8 0.500000 0.144082 0.292129
O O9 0.250000 0.144967 0.250000
O O10 0.250209 0.126244 0.332160
O O11 0.346683 0.000552 0.285025
O O12 0.850826 0.750000 0.620524
O O13 0.750249 0.892186 0.585703
O O14 0.000000 0.896388 0.628250
O O15 0.160363 0.750000 0.954629
O O16 0.000000 0.607058 0.954652
O O17 0.500000 0.644655 0.288938
O O18 0.250000 0.643469 0.250000
#
# Coordination Sequence:
#
# PCOD9537218 Si02
#       6
#    16  16  16  16  16  16
#     4   9  16  26  42  67  98 129 161 197 236 279
#     4   9  17  30  48  71  99 129 161 198 240 284
#     4  10  20  35  53  71  94 126 163 199 238 287
#     4  10  20  33  50  74 101 126 156 197 241 283
#     4   9  16  27  45  69  97 129 161 192 232 283
#     4   9  19  34  51  71  95 126 163 200 239 286
#
# _framework density 21.82696
#
# number of rings (size 3 to 8) (size 9 to 14) (size 15 to 20)
#    0.000    2.667    0.000    2.000    0.000    7.000 
#    0.000    0.000    0.000    1.000    0.000    7.000 
#    0.000    0.000    0.000    0.000    0.000    0.000 
#
# Total GULP energy -268147.346201 kJ/mol
# GULP energy per Si atom -5586.403046 kJ/mol
# Density = 2.177728 g / cm^3
# Si number density = 21.826960 Si / 1000 Ang^3
#
#
#
# Elastic Constant Matrix: (Units=GPa)
#
#
# Indices 1 2 3 4 5 6 
#
# 1 209.6711 7.4391 151.7549 0.0000 0.0000 0.0000
# 2 7.4391 57.6794 -2.0829 0.0000 0.0000 0.0000
# 3 151.7549 -2.0829 259.8916 0.0000 0.0000 0.0000
# 4 0.0000 0.0000 0.0000 29.1004 0.0000 0.0000
# 5 0.0000 0.0000 0.0000 0.0000 33.4007 0.0000
# 6 0.0000 0.0000 0.0000 0.0000 0.0000 -3.6887
#
#
#
# Elastic Compliance Matrix: (Units=1/GPa)
#
#
# Indices 1 2 3 4 5 6 
#
# 1 0.008350 -0.001253 -0.004886 0.000000 0.000000 0.000000
# 2 -0.001253 0.017530 0.000872 0.000000 0.000000 0.000000
# 3 -0.004886 0.000872 0.006708 0.000000 0.000000 0.000000
# 4 0.000000 0.000000 0.000000 0.034364 0.000000 0.000000
# 5 0.000000 0.000000 0.000000 0.000000 0.029939 0.000000
# 6 0.000000 0.000000 0.000000 0.000000 0.000000 -0.271099
#
#
# Mechanical properties :
#
#
# Convention : Reuss Voigt Hill
#
# Bulk Modulus (GPa) = 45.34228 93.49604 69.41916
# Shear Modulus (GPa) = -31.98508 36.43790 2.22641
#
# Velocity S-wave (km/s) = -3.83220 4.09026 1.01106
# Velocity P-wave (km/s) = 1.11249 8.07682 5.76510
#
# Compressibility (1/GPa) = 0.02205447
#
# Stress axis : x y z
#
# Youngs Moduli (GPa) = 119.75974 57.04391 149.08392
#
# Poissons Ratio (x) = 0.07150 0.72839
# Poissons Ratio (y) = 0.15010 -0.13005
# Poissons Ratio (z) = 0.58512 -0.04976
#
# Static dielectric constant tensor:
#      x y z
#    x 1.772910 0.000000 0.000000 
#    y 0.000000 1.844730 0.000000 
#    z 0.000000 0.000000 1.754950 
# 
# From -- ./inp_files/64664.got.cif
#   From: 2010.05.17/outbox.cif.g08.bks.cpg/sg74_33_cif.got.tgz:64664.got - 2010.06.03 17:57:02.
