data_PCOD9537472
_publ_section_title
;
Structure prediction by ZEFSAII (Michael W. Deem and Ramdas Pophale) SiO2 
 PCOD9537472
Probable space group: I M M A
;
_chemical_formula_sum "Si O2"
_cell_formula_units_Z 112
_cell_length_a 13.870576
_cell_length_b 14.752457
_cell_length_c 26.173560
_cell_angle_alpha 90.000000
_cell_angle_beta 90.000000
_cell_angle_gamma 90.000000
_cell_volume 5355.766704
_symmetry_space_group_name_H-M "I M M A"
_symmetry_group_IT_number 74
_symmetry_cell_setting 'orthorhombic'
loop_
_space_group_symop_operation_xyz
x,y,z
-x,1/2-y,z
x,-y,-z
-x,1/2+y,-z
-x,-y,-z
x,1/2+y,-z
-x,y,z
x,1/2-y,z
1/2+x,1/2+y,1/2+z
1/2-x,-y,1/2+z
1/2+x,1/2-y,1/2-z
1/2-x,y,1/2-z
1/2-x,1/2-y,1/2-z
1/2+x,y,1/2-z
1/2-x,1/2+y,1/2+z
1/2+x,-y,1/2+z
loop_
_atom_site_type_symbol
_atom_site_label
_atom_site_fract_x
_atom_site_fract_y
_atom_site_fract_z
Si Si1 0.311304 0.354204 0.484784
Si Si2 0.809185 0.590634 0.361794
Si Si3 0.885167 0.649437 0.254259
Si Si4 0.606746 0.401320 0.973747
Si Si5 0.894187 0.640807 0.089676
Si Si6 0.388465 0.354776 0.381121
Si Si7 0.796556 0.968808 0.798317
O O1 0.343898 0.250000 0.479574
O O2 0.199857 0.354792 0.501273
O O3 0.371240 0.393376 0.532267
O O4 0.329810 0.395011 0.429281
O O5 0.853653 0.644386 0.313850
O O6 0.871664 0.593828 0.413026
O O7 0.700785 0.619718 0.377828
O O8 0.790252 0.492539 0.337188
O O9 0.857975 0.750000 0.233905
O O10 0.839914 0.563378 0.224663
O O11 0.000000 0.642211 0.251017
O O12 0.500000 0.361590 0.981682
O O13 0.606531 0.500000 0.000000
O O14 0.898436 0.750000 0.087759
O O15 0.000000 0.608225 0.107479
O O16 0.500000 0.356211 0.396039
O O17 0.359873 0.250000 0.371525
O O18 0.371888 0.412743 0.330623
O O19 0.750000 0.919539 0.750000
#
# Coordination Sequence:
#
# PCOD9537472 Si02
#       7
#    16  16  16  16  16  16  16
#     4   9  18  33  53  79 110 141 175 218 267 320
#     4  10  20  34  52  76 107 144 187 227 267 318
#     4  10  21  37  57  80 109 146 186 230 279 329
#     4  10  20  34  53  77 108 146 183 220 264 316
#     4   9  17  29  47  75 111 146 176 210 256 310
#     4  10  20  36  60  85 109 141 181 227 280 337
#     4  10  22  37  55  79 109 144 183 231 283 331
#
# _framework density 20.912037999999999
#
# number of rings (size 3 to 8) (size 9 to 14) (size 15 to 20)
#    0.000    2.286    0.000    2.571    0.000    7.143 
#    0.000    1.429    0.000    5.571    0.000    0.000 
#    0.000    0.000    0.000    0.000    0.000    0.000 
#
# Total GULP energy -312383.895192 kJ/mol
# GULP energy per Si atom -5578.283843 kJ/mol
# Density = 2.086444 g / cm^3
# Si number density = 20.912038 Si / 1000 Ang^3
#
#
#
# Elastic Constant Matrix: (Units=GPa)
#
#
# Indices 1 2 3 4 5 6 
#
# 1 103.7803 3.6654 36.0513 0.0000 0.0000 0.0000
# 2 3.6654 57.1491 36.0749 0.0000 0.0000 0.0000
# 3 36.0513 36.0749 141.1353 0.0000 0.0000 0.0000
# 4 0.0000 0.0000 0.0000 22.4623 0.0000 0.0000
# 5 0.0000 0.0000 0.0000 0.0000 24.1304 0.0000
# 6 0.0000 0.0000 0.0000 0.0000 0.0000 24.0582
#
#
#
# Elastic Compliance Matrix: (Units=1/GPa)
#
#
# Indices 1 2 3 4 5 6 
#
# 1 0.010646 0.001233 -0.003035 0.000000 0.000000 0.000000
# 2 0.001233 0.021007 -0.005684 0.000000 0.000000 0.000000
# 3 -0.003035 -0.005684 0.009314 0.000000 0.000000 0.000000
# 4 0.000000 0.000000 0.000000 0.044519 0.000000 0.000000
# 5 0.000000 0.000000 0.000000 0.000000 0.041442 0.000000
# 6 0.000000 0.000000 0.000000 0.000000 0.000000 0.041566
#
#
# Mechanical properties :
#
#
# Convention : Reuss Voigt Hill
#
# Bulk Modulus (GPa) = 38.46960 50.40533 44.43747
# Shear Modulus (GPa) = 26.02390 29.21505 27.61947
#
# Velocity S-wave (km/s) = 3.53150 3.74176 3.63815
# Velocity P-wave (km/s) = 5.92153 6.54397 6.24051
#
# Compressibility (1/GPa) = 0.02599455
#
# Stress axis : x y z
#
# Youngs Moduli (GPa) = 93.92885 47.60249 107.37081
#
# Poissons Ratio (x) = -0.05868 0.32582
# Poissons Ratio (y) = -0.11579 0.61034
# Poissons Ratio (z) = 0.28503 0.27059
#
# Static dielectric constant tensor:
#      x y z
#    x 1.752880 0.000000 0.000000 
#    y 0.000000 1.790860 0.000000 
#    z 0.000000 0.000000 1.800650 
# 
# From -- ./inp_files/60114.got.cif
#   From: 2010.05.17/outbox.cif.g08.bks.cpg/sg74_31_cif.got.tgz:60114.got - 2010.06.03 17:57:02.
