data_PCOD9537893
_publ_section_title
;
Structure prediction by ZEFSAII (Michael W. Deem and Ramdas Pophale) SiO2 
 PCOD9537893
Probable space group: I M M A
;
_chemical_formula_sum "Si O2"
_cell_formula_units_Z 96
_cell_length_a 8.092590
_cell_length_b 24.713862
_cell_length_c 25.176970
_cell_angle_alpha 90.000000
_cell_angle_beta 90.000000
_cell_angle_gamma 90.000000
_cell_volume 5035.372662
_symmetry_space_group_name_H-M "I M M A"
_symmetry_group_IT_number 74
_symmetry_cell_setting 'orthorhombic'
loop_
_space_group_symop_operation_xyz
x,y,z
-x,1/2-y,z
x,-y,-z
-x,1/2+y,-z
-x,-y,-z
x,1/2+y,-z
-x,y,z
x,1/2-y,z
1/2+x,1/2+y,1/2+z
1/2-x,-y,1/2+z
1/2+x,1/2-y,1/2-z
1/2-x,y,1/2-z
1/2-x,1/2-y,1/2-z
1/2+x,y,1/2-z
1/2-x,1/2+y,1/2+z
1/2+x,-y,1/2+z
loop_
_atom_site_type_symbol
_atom_site_label
_atom_site_fract_x
_atom_site_fract_y
_atom_site_fract_z
Si Si1 0.697190 0.105097 0.808775
Si Si2 0.299282 0.892932 0.895141
Si Si3 0.803460 0.689379 0.102473
Si Si4 0.196470 0.811664 0.517782
Si Si5 0.802316 0.189670 0.305529
Si Si6 0.299968 0.980939 0.810124
O O1 0.500000 0.103603 0.810721
O O2 0.750000 0.123346 0.750000
O O3 0.758046 0.144867 0.854375
O O4 0.757285 0.043139 0.815806
O O5 0.500000 0.898953 0.899094
O O6 0.241556 0.865030 0.950293
O O7 0.253129 0.845327 0.854714
O O8 0.242734 0.945584 0.861252
O O9 0.753470 0.750000 0.120302
O O10 0.000000 0.689061 0.094963
O O11 0.724423 0.680321 0.044728
O O12 0.260520 0.750000 0.531197
O O13 0.000000 0.809136 0.528787
O O14 0.732110 0.250000 0.308040
O O15 0.750000 0.164676 0.250000
O O16 0.000000 0.192663 0.306325
O O17 0.500000 0.979088 0.810703
O O18 0.250000 0.963252 0.750000
#
# Coordination Sequence:
#
# PCOD9537893 Si02
#       6
#    16  16  16  16  16  16
#     4  10  20  35  56  80 105 133 164 199 242 294
#     4   9  16  28  47  69  94 128 171 211 245 288
#     4  10  21  37  56  78 104 131 159 197 247 301
#     4   9  17  31  52  75  99 132 173 213 252 293
#     4   9  16  25  38  59  88 121 158 203 252 295
#     4   9  18  32  50  73 101 134 171 210 251 293
#
# _framework density 19.065124000000001
#
# number of rings (size 3 to 8) (size 9 to 14) (size 15 to 20)
#    0.000    2.667    0.000    2.000    0.000    4.000 
#    0.000    2.500    0.000    9.000    0.000    0.000 
#    0.000    0.000    0.000    0.000    0.000    0.000 
#
# Total GULP energy -267208.862941 kJ/mol
# GULP energy per Si atom -5566.851311 kJ/mol
# Density = 1.902173 g / cm^3
# Si number density = 19.065124 Si / 1000 Ang^3
#
#
#
# Elastic Constant Matrix: (Units=GPa)
#
#
# Indices 1 2 3 4 5 6 
#
# 1 8.9451 6.8155 2.0592 0.0000 0.0000 0.0000
# 2 6.8155 108.5642 72.0035 0.0000 0.0000 0.0000
# 3 2.0592 72.0035 100.2773 0.0000 0.0000 0.0000
# 4 0.0000 0.0000 0.0000 41.1831 0.0000 0.0000
# 5 0.0000 0.0000 0.0000 0.0000 23.8466 0.0000
# 6 0.0000 0.0000 0.0000 0.0000 0.0000 11.1428
#
#
#
# Elastic Compliance Matrix: (Units=1/GPa)
#
#
# Indices 1 2 3 4 5 6 
#
# 1 0.119020 -0.011171 0.005577 0.000000 0.000000 0.000000
# 2 -0.011171 0.018635 -0.013151 0.000000 0.000000 0.000000
# 3 0.005577 -0.013151 0.019301 0.000000 0.000000 0.000000
# 4 0.000000 0.000000 0.000000 0.024282 0.000000 0.000000
# 5 0.000000 0.000000 0.000000 0.000000 0.041935 0.000000
# 6 0.000000 0.000000 0.000000 0.000000 0.000000 0.089744
#
#
# Mechanical properties :
#
#
# Convention : Reuss Voigt Hill
#
# Bulk Modulus (GPa) = 8.37057 42.17145 25.27101
# Shear Modulus (GPa) = 12.81301 24.36174 18.58738
#
# Velocity S-wave (km/s) = 2.59523 3.57853 3.12579
# Velocity P-wave (km/s) = 3.65792 6.26436 5.12946
#
# Compressibility (1/GPa) = 0.11946621
#
# Stress axis : x y z
#
# Youngs Moduli (GPa) = 8.40192 53.66334 51.81101
#
# Poissons Ratio (x) = 0.59946 -0.28895
# Poissons Ratio (y) = 0.09386 0.68137
# Poissons Ratio (z) = -0.04686 0.70573
#
# Static dielectric constant tensor:
#      x y z
#    x 1.672560 0.000000 0.000000 
#    y 0.000000 1.709130 0.000000 
#    z 0.000000 0.000000 1.274280 
# 
# From -- ./inp_files/49135.got.cif
#   From: 2010.05.17/outbox.cif.g08.bks.cpg/sg74_25_cif.got.tgz:49135.got - 2010.06.03 17:57:02.
