data_PCOD9537290
_publ_section_title
;
Structure prediction by ZEFSAII (Michael W. Deem and Ramdas Pophale) SiO2 
 PCOD9537290
Probable space group: I M M A
;
_chemical_formula_sum "Si O2"
_cell_formula_units_Z 72
_cell_length_a 27.489092
_cell_length_b 24.520795
_cell_length_c 5.152947
_cell_angle_alpha 90.000000
_cell_angle_beta 90.000000
_cell_angle_gamma 90.000000
_cell_volume 3473.366545
_symmetry_space_group_name_H-M "I M M A"
_symmetry_group_IT_number 74
_symmetry_cell_setting 'orthorhombic'
loop_
_space_group_symop_operation_xyz
x,y,z
-x,1/2-y,z
x,-y,-z
-x,1/2+y,-z
-x,-y,-z
x,1/2+y,-z
-x,y,z
x,1/2-y,z
1/2+x,1/2+y,1/2+z
1/2-x,-y,1/2+z
1/2+x,1/2-y,1/2-z
1/2-x,y,1/2-z
1/2-x,1/2-y,1/2-z
1/2+x,y,1/2-z
1/2-x,1/2+y,1/2+z
1/2+x,-y,1/2+z
loop_
_atom_site_type_symbol
_atom_site_label
_atom_site_fract_x
_atom_site_fract_y
_atom_site_fract_z
Si Si1 0.691455 0.467669 0.760303
Si Si2 0.716705 0.250000 0.995229
Si Si3 0.695897 0.865714 0.878090
Si Si4 0.445325 0.814719 0.059438
Si Si5 0.882523 0.184116 0.045461
O O1 0.674450 0.500000 0.500000
O O2 0.750000 0.475245 0.750000
O O3 0.668931 0.500000 0.000000
O O4 0.687641 0.407287 0.887384
O O5 0.750000 0.250000 0.750000
O O6 0.750000 0.250000 0.250000
O O7 0.689001 0.193985 0.997375
O O8 0.750000 0.874176 0.750000
O O9 0.659522 0.857930 0.635873
O O10 0.500000 0.837525 0.073740
O O11 0.448923 0.750000 0.110570
O O12 0.408909 0.834088 0.282859
O O13 0.422067 0.819872 0.776295
O O14 0.867509 0.250000 0.030645
#
# Coordination Sequence:
#
# PCOD9537290 Si02
#       5
#    16   8  16  16  16
#     4  10  21  37  55  73  98 144 202 247 281 317
#     4  10  22  34  50  76 111 158 191 216 272 342
#     4  11  22  38  56  84 122 160 194 238 288 351
#     4   9  18  33  52  73 106 150 196 242 284 331
#     4  10  20  33  51  81 114 152 193 232 283 352
#
# _framework density 20.729168000000001
#
# number of rings (size 3 to 8) (size 9 to 14) (size 15 to 20)
#    0.000    2.000    1.111    3.333    0.000   11.556 
#    0.000    0.000    0.000    0.000    0.000    0.000 
#    0.000   17.778    0.000    0.000    0.000    6.444 
#
# Total GULP energy -200550.094731 kJ/mol
# GULP energy per Si atom -5570.835965 kJ/mol
# Density = 2.068199 g / cm^3
# Si number density = 20.729168 Si / 1000 Ang^3
#
#
#
# Elastic Constant Matrix: (Units=GPa)
#
#
# Indices 1 2 3 4 5 6 
#
# 1 102.1584 7.0074 29.4873 0.0000 0.0000 0.0000
# 2 7.0074 110.2818 50.2725 0.0000 0.0000 0.0000
# 3 29.4873 50.2725 139.2385 0.0000 0.0000 0.0000
# 4 0.0000 0.0000 0.0000 18.3717 0.0000 0.0000
# 5 0.0000 0.0000 0.0000 0.0000 15.6663 0.0000
# 6 0.0000 0.0000 0.0000 0.0000 0.0000 44.0248
#
#
#
# Elastic Compliance Matrix: (Units=1/GPa)
#
#
# Indices 1 2 3 4 5 6 
#
# 1 0.010442 0.000412 -0.002360 0.000000 0.000000 0.000000
# 2 0.000412 0.010870 -0.004012 0.000000 0.000000 0.000000
# 3 -0.002360 -0.004012 0.009130 0.000000 0.000000 0.000000
# 4 0.000000 0.000000 0.000000 0.054432 0.000000 0.000000
# 5 0.000000 0.000000 0.000000 0.000000 0.063831 0.000000
# 6 0.000000 0.000000 0.000000 0.000000 0.000000 0.022714
#
#
# Mechanical properties :
#
#
# Convention : Reuss Voigt Hill
#
# Bulk Modulus (GPa) = 53.98799 58.35703 56.17251
# Shear Modulus (GPa) = 26.38332 33.27332 29.82832
#
# Velocity S-wave (km/s) = 3.57145 4.01077 3.79747
# Velocity P-wave (km/s) = 6.56567 7.04710 6.81064
#
# Compressibility (1/GPa) = 0.01852264
#
# Stress axis : x y z
#
# Youngs Moduli (GPa) = 95.76997 91.99266 109.52469
#
# Poissons Ratio (x) = -0.03794 0.25850
# Poissons Ratio (y) = -0.03950 0.43943
# Poissons Ratio (z) = 0.22604 0.36909
#
# Static dielectric constant tensor:
#      x y z
#    x 1.780590 0.000000 0.000000 
#    y 0.000000 1.876310 0.000000 
#    z 0.000000 0.000000 1.838950 
# 
# From -- ./inp_files/4462.got.cif
#   From: 2010.05.17/outbox.cif.g08.bks.cpg/sg74_3_cif.got.tgz:4462.got - 2010.06.03 17:57:02.
