data_PCOD9537518
_publ_section_title
;
Structure prediction by ZEFSAII (Michael W. Deem and Ramdas Pophale) SiO2 
 PCOD9537518
Probable space group: I M M A
;
_chemical_formula_sum "Si O2"
_cell_formula_units_Z 96
_cell_length_a 8.889158
_cell_length_b 16.815169
_cell_length_c 29.921387
_cell_angle_alpha 90.000000
_cell_angle_beta 90.000000
_cell_angle_gamma 90.000000
_cell_volume 4472.430324
_symmetry_space_group_name_H-M "I M M A"
_symmetry_group_IT_number 74
_symmetry_cell_setting 'orthorhombic'
loop_
_space_group_symop_operation_xyz
x,y,z
-x,1/2-y,z
x,-y,-z
-x,1/2+y,-z
-x,-y,-z
x,1/2+y,-z
-x,y,z
x,1/2-y,z
1/2+x,1/2+y,1/2+z
1/2-x,-y,1/2+z
1/2+x,1/2-y,1/2-z
1/2-x,y,1/2-z
1/2-x,1/2-y,1/2-z
1/2+x,y,1/2-z
1/2-x,1/2+y,1/2+z
1/2+x,-y,1/2+z
loop_
_atom_site_type_symbol
_atom_site_label
_atom_site_fract_x
_atom_site_fract_y
_atom_site_fract_z
Si Si1 0.170263 0.157149 0.621703
Si Si2 0.324889 0.943936 0.444859
Si Si3 0.328121 0.414095 0.705219
Si Si4 0.178123 0.661436 0.515419
Si Si5 0.828877 0.893961 0.796151
Si Si6 0.322994 0.408806 0.108871
O O1 0.172565 0.250000 0.631223
O O2 0.289121 0.134468 0.584161
O O3 0.220975 0.110332 0.665182
O O4 0.000000 0.135619 0.607504
O O5 0.500000 0.961489 0.448770
O O6 0.258021 0.913799 0.492087
O O7 0.248586 0.012372 0.414305
O O8 0.500000 0.385578 0.699494
O O9 0.250000 0.383750 0.750000
O O10 0.334250 0.509726 0.707316
O O11 0.228274 0.750000 0.501225
O O12 0.195372 0.654118 0.568776
O O13 0.000000 0.654923 0.505347
O O14 0.750000 0.865824 0.750000
O O15 0.748179 0.881881 0.844054
O O16 0.000000 0.864223 0.797883
O O17 0.500000 0.423219 0.116119
#
# Coordination Sequence:
#
# PCOD9537518 Si02
#       6
#    16  16  16  16  16  16
#     4  11  23  37  54  76 107 150 196 243 293 346
#     4  12  24  38  58  87 119 155 198 245 292 344
#     4  10  20  34  53  76 106 146 189 238 293 347
#     4  10  23  43  64  88 120 158 199 243 296 356
#     4  10  20  35  58  89 122 155 193 242 295 350
#     4  11  22  38  64  92 120 157 198 244 295 349
#
# _framework density 21.464839000000001
#
# number of rings (size 3 to 8) (size 9 to 14) (size 15 to 20)
#    0.000    1.333    1.667    4.500    0.000    8.667 
#    0.000    0.000    0.000    0.500    0.000    0.000 
#    0.000    0.000    0.000    0.000    0.000    0.000 
#
# Total GULP energy -267985.191400 kJ/mol
# GULP energy per Si atom -5583.024821 kJ/mol
# Density = 2.141598 g / cm^3
# Si number density = 21.464839 Si / 1000 Ang^3
#
#
#
# Elastic Constant Matrix: (Units=GPa)
#
#
# Indices 1 2 3 4 5 6 
#
# 1 100.7036 14.0557 48.9478 0.0000 0.0000 0.0000
# 2 14.0557 42.4314 -1.3926 0.0000 0.0000 0.0000
# 3 48.9478 -1.3926 155.8518 0.0000 0.0000 0.0000
# 4 0.0000 0.0000 0.0000 2.0013 0.0000 0.0000
# 5 0.0000 0.0000 0.0000 0.0000 38.6074 0.0000
# 6 0.0000 0.0000 0.0000 0.0000 0.0000 3.2490
#
#
#
# Elastic Compliance Matrix: (Units=1/GPa)
#
#
# Indices 1 2 3 4 5 6 
#
# 1 0.012441 -0.004251 -0.003945 0.000000 0.000000 0.000000
# 2 -0.004251 0.025027 0.001559 0.000000 0.000000 0.000000
# 3 -0.003945 0.001559 0.007669 0.000000 0.000000 0.000000
# 4 0.000000 0.000000 0.000000 0.499686 0.000000 0.000000
# 5 0.000000 0.000000 0.000000 0.000000 0.025902 0.000000
# 6 0.000000 0.000000 0.000000 0.000000 0.000000 0.307786
#
#
# Mechanical properties :
#
#
# Convention : Reuss Voigt Hill
#
# Bulk Modulus (GPa) = 31.38497 46.91207 39.14852
# Shear Modulus (GPa) = 5.54074 24.59660 15.06867
#
# Velocity S-wave (km/s) = 1.60839 3.38879 2.65243
# Velocity P-wave (km/s) = 4.25471 6.10038 5.25914
#
# Compressibility (1/GPa) = 0.03186238
#
# Stress axis : x y z
#
# Youngs Moduli (GPa) = 80.37896 39.95737 130.38893
#
# Poissons Ratio (x) = 0.16985 0.51442
# Poissons Ratio (y) = 0.34166 -0.20323
# Poissons Ratio (z) = 0.31712 -0.06228
#
# Static dielectric constant tensor:
#      x y z
#    x 1.750160 0.000000 0.000000 
#    y 0.000000 1.801800 0.000000 
#    z 0.000000 0.000000 1.880790 
# 
# From -- ./inp_files/64362.got.cif
#   From: 2010.05.17/outbox.cif.g08.bks.cpg/sg74_33_cif.got.tgz:64362.got - 2010.06.03 17:57:02.
