data_PCOD9537310
_publ_section_title
;
Structure prediction by ZEFSAII (Michael W. Deem and Ramdas Pophale) SiO2 
 PCOD9537310
Probable space group: I M M A
;
_chemical_formula_sum "Si O2"
_cell_formula_units_Z 112
_cell_length_a 15.477025
_cell_length_b 15.514274
_cell_length_c 25.897977
_cell_angle_alpha 90.000000
_cell_angle_beta 90.000000
_cell_angle_gamma 90.000000
_cell_volume 6218.487738
_symmetry_space_group_name_H-M "I M M A"
_symmetry_group_IT_number 74
_symmetry_cell_setting 'orthorhombic'
loop_
_space_group_symop_operation_xyz
x,y,z
-x,1/2-y,z
x,-y,-z
-x,1/2+y,-z
-x,-y,-z
x,1/2+y,-z
-x,y,z
x,1/2-y,z
1/2+x,1/2+y,1/2+z
1/2-x,-y,1/2+z
1/2+x,1/2-y,1/2-z
1/2-x,y,1/2-z
1/2-x,1/2-y,1/2-z
1/2+x,y,1/2-z
1/2-x,1/2+y,1/2+z
1/2+x,-y,1/2+z
loop_
_atom_site_type_symbol
_atom_site_label
_atom_site_fract_x
_atom_site_fract_y
_atom_site_fract_z
Si Si1 0.903582 0.845039 0.349284
Si Si2 0.902163 0.586649 0.534103
Si Si3 0.741599 0.480804 0.407545
Si Si4 0.807698 0.510820 0.296339
Si Si5 0.398561 0.850725 0.621369
Si Si6 0.103157 0.848511 0.754916
Si Si7 0.718064 0.156356 0.949469
O O1 0.897289 0.750000 0.324888
O O2 0.839498 0.846084 0.397584
O O3 0.000000 0.856094 0.370153
O O4 0.881679 0.921453 0.310760
O O5 0.910359 0.500000 0.500000
O O6 0.835108 0.561092 0.578933
O O7 0.848386 0.649803 0.497078
O O8 0.000000 0.613364 0.548547
O O9 0.749733 0.504600 0.347461
O O10 0.665090 0.411858 0.410559
O O11 0.730399 0.566126 0.443260
O O12 0.750000 0.545354 0.250000
O O13 0.845958 0.419511 0.277730
O O14 0.500000 0.869450 0.612568
O O15 0.383323 0.750000 0.609479
O O16 0.383138 0.860703 0.683385
O O17 0.128638 0.750000 0.742077
O O18 0.000000 0.856545 0.746115
O O19 0.763054 0.250000 0.951534
#
# Coordination Sequence:
#
# PCOD9537310 Si02
#       7
#    16  16  16  16  16  16  16
#     4   9  18  32  50  72  99 135 179 218 249 297
#     4   9  18  32  51  77 109 140 170 209 259 315
#     4  10  20  33  52  79 107 137 178 222 265 309
#     4  11  20  30  47  73 102 137 170 211 266 314
#     4   9  18  34  54  73  95 130 177 223 264 310
#     4   9  18  32  49  67  91 129 173 212 255 312
#     4   9  18  33  54  77 106 144 176 203 252 324
#
# _framework density 18.010809999999999
#
# number of rings (size 3 to 8) (size 9 to 14) (size 15 to 20)
#    0.000    2.571    1.429    1.714    0.000    6.571 
#    0.000    0.000    0.000    4.286    0.000    0.000 
#    0.000    0.000    0.000    0.000    0.000    0.000 
#
# Total GULP energy -311888.073378 kJ/mol
# GULP energy per Si atom -5569.429882 kJ/mol
# Density = 1.796982 g / cm^3
# Si number density = 18.010810 Si / 1000 Ang^3
#
#
#
# Elastic Constant Matrix: (Units=GPa)
#
#
# Indices 1 2 3 4 5 6 
#
# 1 31.6178 20.5647 2.7810 0.0000 0.0000 0.0000
# 2 20.5647 94.0298 7.2440 0.0000 0.0000 0.0000
# 3 2.7810 7.2440 38.3841 0.0000 0.0000 0.0000
# 4 0.0000 0.0000 0.0000 22.4881 0.0000 0.0000
# 5 0.0000 0.0000 0.0000 0.0000 18.3642 0.0000
# 6 0.0000 0.0000 0.0000 0.0000 0.0000 28.1689
#
#
#
# Elastic Compliance Matrix: (Units=1/GPa)
#
#
# Indices 1 2 3 4 5 6 
#
# 1 0.036924 -0.007986 -0.001168 0.000000 0.000000 0.000000
# 2 -0.007986 0.012519 -0.001784 0.000000 0.000000 0.000000
# 3 -0.001168 -0.001784 0.026474 0.000000 0.000000 0.000000
# 4 0.000000 0.000000 0.000000 0.044468 0.000000 0.000000
# 5 0.000000 0.000000 0.000000 0.000000 0.054454 0.000000
# 6 0.000000 0.000000 0.000000 0.000000 0.000000 0.035500
#
#
# Mechanical properties :
#
#
# Convention : Reuss Voigt Hill
#
# Bulk Modulus (GPa) = 18.50428 25.02345 21.76387
# Shear Modulus (GPa) = 19.98173 22.70035 21.34104
#
# Velocity S-wave (km/s) = 3.33442 3.55403 3.44597
# Velocity P-wave (km/s) = 5.01207 5.54664 5.28611
#
# Compressibility (1/GPa) = 0.05404156
#
# Stress axis : x y z
#
# Youngs Moduli (GPa) = 27.08233 79.87958 37.77323
#
# Poissons Ratio (x) = 0.63788 0.04413
# Poissons Ratio (y) = 0.21627 0.06739
# Poissons Ratio (z) = 0.03164 0.14251
#
# Static dielectric constant tensor:
#      x y z
#    x 1.622820 0.000000 0.000000 
#    y 0.000000 1.677780 0.000000 
#    z 0.000000 0.000000 1.612640 
# 
# From -- ./inp_files/67211.got.cif
#   From: 2010.05.17/outbox.cif.g08.bks.cpg/sg74_34_cif.got.tgz:67211.got - 2010.06.03 17:57:02.
