data_PCOD9537528
_publ_section_title
;
Structure prediction by ZEFSAII (Michael W. Deem and Ramdas Pophale) SiO2 
 PCOD9537528
Probable space group: I M M A
;
_chemical_formula_sum "Si O2"
_cell_formula_units_Z 96
_cell_length_a 8.421881
_cell_length_b 29.067511
_cell_length_c 19.160244
_cell_angle_alpha 90.000000
_cell_angle_beta 90.000000
_cell_angle_gamma 90.000000
_cell_volume 4690.487484
_symmetry_space_group_name_H-M "I M M A"
_symmetry_group_IT_number 74
_symmetry_cell_setting 'orthorhombic'
loop_
_space_group_symop_operation_xyz
x,y,z
-x,1/2-y,z
x,-y,-z
-x,1/2+y,-z
-x,-y,-z
x,1/2+y,-z
-x,y,z
x,1/2-y,z
1/2+x,1/2+y,1/2+z
1/2-x,-y,1/2+z
1/2+x,1/2-y,1/2-z
1/2-x,y,1/2-z
1/2-x,1/2-y,1/2-z
1/2+x,y,1/2-z
1/2-x,1/2+y,1/2+z
1/2+x,-y,1/2+z
loop_
_atom_site_type_symbol
_atom_site_label
_atom_site_fract_x
_atom_site_fract_y
_atom_site_fract_z
Si Si1 0.179969 0.608611 0.678660
Si Si2 0.184455 0.051641 0.063819
Si Si3 0.311561 0.599747 0.073345
Si Si4 0.311953 0.026491 0.671419
Si Si5 0.816988 0.197600 0.144154
Si Si6 0.191093 0.198218 0.512624
O O1 0.250000 0.589325 0.750000
O O2 0.292847 0.593974 0.616035
O O3 0.193800 0.663359 0.679556
O O4 0.000000 0.593848 0.666829
O O5 0.000000 0.043369 0.047355
O O6 0.248407 0.010077 0.112639
O O7 0.270053 0.067437 0.993442
O O8 0.500000 0.599084 0.083612
O O9 0.230000 0.576244 0.139791
O O10 0.263983 0.652583 0.056303
O O11 0.500000 0.019753 0.673605
O O12 0.250000 0.020496 0.750000
O O13 0.795493 0.250000 0.166263
O O14 0.780197 0.196081 0.061276
O O15 0.000000 0.184076 0.157476
O O16 0.219885 0.250000 0.542147
O O17 0.000000 0.194709 0.499939
#
# Coordination Sequence:
#
# PCOD9537528 Si02
#       6
#    16  16  16  16  16  16
#     4  12  24  37  54  77 109 152 197 246 301 354
#     4  11  23  40  61  87 119 156 200 248 296 349
#     4  11  22  37  63  95 124 160 200 244 294 352
#     4  11  25  43  63  88 121 160 199 249 305 360
#     4  10  20  34  53  77 107 146 192 243 297 352
#     4   9  18  34  57  87 121 156 195 240 292 350
#
# _framework density 20.466954999999999
#
# number of rings (size 3 to 8) (size 9 to 14) (size 15 to 20)
#    0.000    1.333    1.667    4.500    0.000    8.000 
#    0.000    0.000    0.000    0.500    0.000    0.000 
#    0.000    0.000    0.000    0.000    0.000    0.000 
#
# Total GULP energy -268058.411695 kJ/mol
# GULP energy per Si atom -5584.550244 kJ/mol
# Density = 2.042037 g / cm^3
# Si number density = 20.466955 Si / 1000 Ang^3
#
#
#
# Elastic Constant Matrix: (Units=GPa)
#
#
# Indices 1 2 3 4 5 6 
#
# 1 41.7039 24.5750 7.1676 0.0001 0.0000 0.0000
# 2 24.5750 115.9903 51.3271 0.0000 0.0000 0.0000
# 3 7.1676 51.3271 56.5932 0.0003 0.0000 -0.0001
# 4 0.0001 0.0000 0.0003 -43.3212 0.0000 -0.0001
# 5 0.0000 0.0000 0.0000 0.0000 27.8476 0.0000
# 6 0.0000 0.0000 -0.0001 -0.0001 0.0000 56.1670
#
#
#
# Elastic Compliance Matrix: (Units=1/GPa)
#
#
# Indices 1 2 3 4 5 6 
#
# 1 0.027707 -0.007212 0.003032 0.000000 0.000000 0.000000
# 2 -0.007212 0.016278 -0.013850 0.000000 0.000000 0.000000
# 3 0.003032 -0.013850 0.029847 0.000000 0.000000 0.000000
# 4 0.000000 0.000000 0.000000 -0.023083 0.000000 0.000000
# 5 0.000000 0.000000 0.000000 0.000000 0.035910 0.000000
# 6 0.000000 0.000000 0.000000 0.000000 0.000000 0.017804
#
#
# Mechanical properties :
#
#
# Convention : Reuss Voigt Hill
#
# Bulk Modulus (GPa) = 26.47451 42.26965 34.37208
# Shear Modulus (GPa) = 32.65522 16.88652 24.77087
#
# Velocity S-wave (km/s) = 3.99872 2.87551 3.48269
# Velocity P-wave (km/s) = 5.85517 5.63225 5.74479
#
# Compressibility (1/GPa) = 0.03777218
#
# Stress axis : x y z
#
# Youngs Moduli (GPa) = 36.09153 61.43162 33.50382
#
# Poissons Ratio (x) = 0.44304 -0.10157
# Poissons Ratio (y) = 0.26029 0.46403
# Poissons Ratio (z) = -0.10942 0.85084
#
# Static dielectric constant tensor:
#      x y z
#    x 1.701360 0.000000 0.000000 
#    y 0.000000 1.825710 0.000000 
#    z 0.000000 0.000000 1.711270 
# 
# From -- ./inp_files/49041.got.cif
#   From: 2010.05.17/outbox.cif.g08.bks.cpg/sg74_25_cif.got.tgz:49041.got - 2010.06.03 17:57:02.
