data_PCOD9537009
_publ_section_title
;
Structure prediction by ZEFSAII (Michael W. Deem and Ramdas Pophale) SiO2 
 PCOD9537009
Probable space group: I M M A
;
_chemical_formula_sum "Si O2"
_cell_formula_units_Z 104
_cell_length_a 8.845286
_cell_length_b 21.073573
_cell_length_c 32.027207
_cell_angle_alpha 90.000000
_cell_angle_beta 90.000000
_cell_angle_gamma 90.000000
_cell_volume 5969.928400
_symmetry_space_group_name_H-M "I M M A"
_symmetry_group_IT_number 74
_symmetry_cell_setting 'orthorhombic'
loop_
_space_group_symop_operation_xyz
x,y,z
-x,1/2-y,z
x,-y,-z
-x,1/2+y,-z
-x,-y,-z
x,1/2+y,-z
-x,y,z
x,1/2-y,z
1/2+x,1/2+y,1/2+z
1/2-x,-y,1/2+z
1/2+x,1/2-y,1/2-z
1/2-x,y,1/2-z
1/2-x,1/2-y,1/2-z
1/2+x,y,1/2-z
1/2-x,1/2+y,1/2+z
1/2+x,-y,1/2+z
loop_
_atom_site_type_symbol
_atom_site_label
_atom_site_fract_x
_atom_site_fract_y
_atom_site_fract_z
Si Si1 0.181717 0.058007 0.880815
Si Si2 0.318432 0.678752 0.976531
Si Si3 0.825351 0.570286 0.920397
Si Si4 0.179373 0.011839 0.706007
Si Si5 0.682140 0.750000 0.704301
Si Si6 0.318563 0.822468 0.074600
Si Si7 0.176027 0.886635 0.824633
O O1 0.250924 0.045301 0.835047
O O2 0.233565 0.124908 0.898842
O O3 0.000000 0.053028 0.877646
O O4 0.232784 0.001559 0.912731
O O5 0.500000 0.679064 0.973440
O O6 0.265441 0.750000 0.963186
O O7 0.257208 0.619704 0.950315
O O8 0.280142 0.671252 0.025472
O O9 0.820006 0.598224 0.873580
O O10 0.000000 0.566378 0.933989
O O11 0.250000 0.033448 0.750000
O O12 0.000000 0.019419 0.706600
O O13 0.224723 0.938064 0.699427
O O14 0.500000 0.750000 0.705729
O O15 0.750000 0.750000 0.750000
O O16 0.728286 0.684869 0.682453
O O17 0.500000 0.830983 0.078520
O O18 0.283142 0.750000 0.087057
O O19 0.000000 0.893605 0.811031
#
# Coordination Sequence:
#
# PCOD9537009 Si02
#       7
#    16  16  16  16   8  16  16
#     4  10  21  37  56  81 110 138 176 220 263 316
#     4   9  19  34  51  74 106 143 183 225 265 313
#     4   9  19  33  50  73 103 138 178 224 270 313
#     4  11  21  35  56  79 105 137 173 214 262 315
#     4  10  20  32  46  64  92 130 174 222 272 320
#     4   9  19  37  58  80 108 141 175 213 263 319
#     4   9  19  34  49  69  99 136 177 223 271 317
#
# _framework density 17.420643999999999
#
# number of rings (size 3 to 8) (size 9 to 14) (size 15 to 20)
#    0.000    2.462    0.000    4.154    1.077    6.769 
#    0.000    4.615    0.000    0.462    0.000    0.000 
#    0.000    0.000    0.000    0.000    0.000    0.000 
#
# Total GULP energy -289966.327893 kJ/mol
# GULP energy per Si atom -5576.275536 kJ/mol
# Density = 1.738099 g / cm^3
# Si number density = 17.420644 Si / 1000 Ang^3
#
#
#
# Elastic Constant Matrix: (Units=GPa)
#
#
# Indices 1 2 3 4 5 6 
#
# 1 62.0020 48.0417 42.8067 0.0000 0.0000 0.0000
# 2 48.0417 131.9873 66.2860 0.0000 0.0000 0.0000
# 3 42.8067 66.2860 69.8134 0.0000 0.0000 0.0000
# 4 0.0000 0.0000 0.0000 13.9806 0.0000 0.0000
# 5 0.0000 0.0000 0.0000 0.0000 29.4879 0.0000
# 6 0.0000 0.0000 0.0000 0.0000 0.0000 29.5257
#
#
#
# Elastic Compliance Matrix: (Units=1/GPa)
#
#
# Indices 1 2 3 4 5 6 
#
# 1 0.028602 -0.003064 -0.014628 0.000000 0.000000 0.000000
# 2 -0.003064 0.014810 -0.012183 0.000000 0.000000 0.000000
# 3 -0.014628 -0.012183 0.034861 0.000000 0.000000 0.000000
# 4 0.000000 0.000000 0.000000 0.071527 0.000000 0.000000
# 5 0.000000 0.000000 0.000000 0.000000 0.033912 0.000000
# 6 0.000000 0.000000 0.000000 0.000000 0.000000 0.033869
#
#
# Mechanical properties :
#
#
# Convention : Reuss Voigt Hill
#
# Bulk Modulus (GPa) = 53.98942 64.23018 59.10980
# Shear Modulus (GPa) = 17.63616 21.71006 19.67311
#
# Velocity S-wave (km/s) = 3.18523 3.53402 3.36415
# Velocity P-wave (km/s) = 6.67731 7.32138 7.00675
#
# Compressibility (1/GPa) = 0.01852215
#
# Stress axis : x y z
#
# Youngs Moduli (GPa) = 34.96206 67.51980 28.68528
#
# Poissons Ratio (x) = 0.20690 0.41962
# Poissons Ratio (y) = 0.10714 0.34948
# Poissons Ratio (z) = 0.51144 0.82261
#
# Static dielectric constant tensor:
#      x y z
#    x 1.592340 0.000000 0.000000 
#    y 0.000000 1.766460 0.000000 
#    z 0.000000 0.000000 1.572940 
# 
# From -- ./inp_files/70620.got.cif
#   From: 2010.05.17/outbox.cif.g08.bks.cpg/sg74_36_cif.got.tgz:70620.got - 2010.06.03 17:57:02.
