data_PCOD9537250
_publ_section_title
;
Structure prediction by ZEFSAII (Michael W. Deem and Ramdas Pophale) SiO2 
 PCOD9537250
Probable space group: I M M A
;
_chemical_formula_sum "Si O2"
_cell_formula_units_Z 64
_cell_length_a 9.999273
_cell_length_b 27.452876
_cell_length_c 12.042917
_cell_angle_alpha 90.000000
_cell_angle_beta 90.000000
_cell_angle_gamma 90.000000
_cell_volume 3305.886715
_symmetry_space_group_name_H-M "I M M A"
_symmetry_group_IT_number 74
_symmetry_cell_setting 'orthorhombic'
loop_
_space_group_symop_operation_xyz
x,y,z
-x,1/2-y,z
x,-y,-z
-x,1/2+y,-z
-x,-y,-z
x,1/2+y,-z
-x,y,z
x,1/2-y,z
1/2+x,1/2+y,1/2+z
1/2-x,-y,1/2+z
1/2+x,1/2-y,1/2-z
1/2-x,y,1/2-z
1/2-x,1/2-y,1/2-z
1/2+x,y,1/2-z
1/2-x,1/2+y,1/2+z
1/2+x,-y,1/2+z
loop_
_atom_site_type_symbol
_atom_site_label
_atom_site_fract_x
_atom_site_fract_y
_atom_site_fract_z
Si Si1 0.344688 0.910022 0.353266
Si Si2 0.769834 0.500000 0.000000
Si Si3 0.349176 0.156614 0.984159
Si Si4 0.840257 0.250000 0.361666
Si Si5 0.358251 0.570475 0.838691
O O1 0.500000 0.901015 0.323164
O O2 0.250000 0.924930 0.250000
O O3 0.267290 0.862468 0.402683
O O4 0.343934 0.953923 0.444453
O O5 0.679831 0.478350 0.097850
O O6 0.500000 0.163989 0.934723
O O7 0.315369 0.203281 0.059518
O O8 0.362905 0.111988 0.069531
O O9 0.750000 0.250000 0.250000
O O10 0.000000 0.250000 0.332786
O O11 0.500000 0.565036 0.780903
O O12 0.250000 0.583909 0.750000
#
# Coordination Sequence:
#
# PCOD9537250 Si02
#       5
#    16   8  16   8  16
#     4  11  23  39  59  83 112 148 189 233 280 332
#     4  10  22  36  54  78 108 144 186 228 272 326
#     4   9  20  38  57  81 113 147 183 226 276 331
#     4  10  20  36  61  90 119 150 185 230 284 336
#     4  10  20  33  51  75 106 142 179 221 270 323
#
# _framework density 19.359404999999999
#
# number of rings (size 3 to 8) (size 9 to 14) (size 15 to 20)
#    0.000    2.000    0.000    3.000    0.000   11.000 
#    0.000    0.625    0.000    0.000    0.000    0.000 
#    0.000    0.000    0.000    0.000    0.000    0.000 
#
# Total GULP energy -178296.839033 kJ/mol
# GULP energy per Si atom -5571.776220 kJ/mol
# Density = 1.931534 g / cm^3
# Si number density = 19.359405 Si / 1000 Ang^3
#
#
#
# Elastic Constant Matrix: (Units=GPa)
#
#
# Indices 1 2 3 4 5 6 
#
# 1 161.8108 23.9494 49.1719 0.0000 0.0000 0.0000
# 2 23.9494 92.2932 9.0986 0.0000 0.0000 0.0000
# 3 49.1719 9.0986 56.5261 -0.0002 -0.0003 0.0002
# 4 0.0000 0.0000 -0.0002 17.1180 0.0000 0.0000
# 5 0.0000 0.0000 -0.0003 0.0000 29.1248 -0.0001
# 6 0.0000 0.0000 0.0002 0.0000 -0.0001 8.0671
#
#
#
# Elastic Compliance Matrix: (Units=1/GPa)
#
#
# Indices 1 2 3 4 5 6 
#
# 1 0.008605 -0.001519 -0.007241 0.000000 0.000000 0.000000
# 2 -0.001519 0.011278 -0.000494 0.000000 0.000000 0.000000
# 3 -0.007241 -0.000494 0.024070 0.000000 0.000000 0.000000
# 4 0.000000 0.000000 0.000000 0.058418 0.000000 0.000000
# 5 0.000000 0.000000 0.000000 0.000000 0.034335 0.000000
# 6 0.000000 0.000000 0.000000 0.000000 0.000000 0.123960
#
#
# Mechanical properties :
#
#
# Convention : Reuss Voigt Hill
#
# Bulk Modulus (GPa) = 39.30135 52.78553 46.04344
# Shear Modulus (GPa) = 17.38188 26.08934 21.73561
#
# Velocity S-wave (km/s) = 2.99967 3.67499 3.35437
# Velocity P-wave (km/s) = 5.68703 6.73296 6.23198
#
# Compressibility (1/GPa) = 0.02544442
#
# Stress axis : x y z
#
# Youngs Moduli (GPa) = 116.20564 88.66878 41.54615
#
# Poissons Ratio (x) = 0.13470 0.30085
# Poissons Ratio (y) = 0.17654 0.02052
# Poissons Ratio (z) = 0.84148 0.04378
#
# Static dielectric constant tensor:
#      x y z
#    x 1.715500 0.000000 0.000000 
#    y 0.000000 1.677110 0.000000 
#    z 0.000000 0.000000 1.719810 
# 
# From -- ./inp_files/17633.got.cif
#   From: 2010.05.17/outbox.cif.g08.bks.cpg/sg74_9_cif.got.tgz:17633.got - 2010.06.03 17:57:02.
