data_PCOD9537958
_publ_section_title
;
Structure prediction by ZEFSAII (Michael W. Deem and Ramdas Pophale) SiO2 
 PCOD9537958
Probable space group: I M M A
;
_chemical_formula_sum "Si O2"
_cell_formula_units_Z 88
_cell_length_a 9.088077
_cell_length_b 25.367711
_cell_length_c 20.438146
_cell_angle_alpha 90.000000
_cell_angle_beta 90.000000
_cell_angle_gamma 90.000000
_cell_volume 4711.886022
_symmetry_space_group_name_H-M "I M M A"
_symmetry_group_IT_number 74
_symmetry_cell_setting 'orthorhombic'
loop_
_space_group_symop_operation_xyz
x,y,z
-x,1/2-y,z
x,-y,-z
-x,1/2+y,-z
-x,-y,-z
x,1/2+y,-z
-x,y,z
x,1/2-y,z
1/2+x,1/2+y,1/2+z
1/2-x,-y,1/2+z
1/2+x,1/2-y,1/2-z
1/2-x,y,1/2-z
1/2-x,1/2-y,1/2-z
1/2+x,y,1/2-z
1/2-x,1/2+y,1/2+z
1/2+x,-y,1/2+z
loop_
_atom_site_type_symbol
_atom_site_label
_atom_site_fract_x
_atom_site_fract_y
_atom_site_fract_z
Si Si1 0.330832 0.494204 0.310148
Si Si2 0.324117 0.339243 0.930010
Si Si3 0.322141 0.626410 0.684438
Si Si4 0.827934 0.953085 0.049362
Si Si5 0.170201 0.191173 0.059448
Si Si6 0.821372 0.750000 0.323075
O O1 0.500000 0.489909 0.290980
O O2 0.250000 0.521331 0.250000
O O3 0.274764 0.434646 0.318793
O O4 0.321594 0.522557 0.378602
O O5 0.500000 0.343496 0.927921
O O6 0.255711 0.397628 0.942000
O O7 0.281057 0.302276 0.867188
O O8 0.268240 0.310435 0.995214
O O9 0.500000 0.629722 0.688562
O O10 0.250000 0.649387 0.750000
O O11 0.277759 0.653054 0.616738
O O12 0.000000 0.942888 0.031283
O O13 0.775581 0.000000 0.000000
O O14 0.169738 0.250000 0.086950
O O15 0.000000 0.177885 0.042114
O O16 0.750000 0.750000 0.250000
O O17 0.000000 0.750000 0.316632
#
# Coordination Sequence:
#
# PCOD9537958 Si02
#       6
#    16  16  16  16  16   8
#     4   9  18  33  53  75 106 144 180 224 275 330
#     4  11  23  40  60  86 120 151 190 247 304 356
#     4   9  18  33  52  78 111 148 189 230 274 325
#     4  10  21  38  60  86 116 152 196 242 290 352
#     4  10  20  35  57  81 108 148 194 234 277 338
#     4  10  24  44  64  88 119 156 201 256 311 368
#
# _framework density 18.676172000000001
#
# number of rings (size 3 to 8) (size 9 to 14) (size 15 to 20)
#    0.000    2.182    0.909    1.636    0.000    7.273 
#    0.000    7.273    0.000    0.000    0.000    0.000 
#    0.000    0.000    0.000    0.000    0.000    0.000 
#
# Total GULP energy -245036.856365 kJ/mol
# GULP energy per Si atom -5569.019463 kJ/mol
# Density = 1.863366 g / cm^3
# Si number density = 18.676172 Si / 1000 Ang^3
#
#
#
# Elastic Constant Matrix: (Units=GPa)
#
#
# Indices 1 2 3 4 5 6 
#
# 1 33.5413 34.8033 35.5108 0.0000 0.0000 0.0000
# 2 34.8033 101.9200 35.9940 0.0000 0.0000 0.0000
# 3 35.5108 35.9940 77.9997 0.0000 0.0000 0.0000
# 4 0.0000 0.0000 0.0000 5.2034 0.0000 0.0000
# 5 0.0000 0.0000 0.0000 0.0000 32.6479 0.0000
# 6 0.0000 0.0000 0.0000 0.0000 0.0000 3.6607
#
#
#
# Elastic Compliance Matrix: (Units=1/GPa)
#
#
# Indices 1 2 3 4 5 6 
#
# 1 0.074634 -0.016112 -0.026544 0.000000 0.000000 0.000000
# 2 -0.016112 0.015200 0.000321 0.000000 0.000000 0.000000
# 3 -0.026544 0.000321 0.024757 0.000000 0.000000 0.000000
# 4 0.000000 0.000000 0.000000 0.192184 0.000000 0.000000
# 5 0.000000 0.000000 0.000000 0.000000 0.030630 0.000000
# 6 0.000000 0.000000 0.000000 0.000000 0.000000 0.273175
#
#
# Mechanical properties :
#
#
# Convention : Reuss Voigt Hill
#
# Bulk Modulus (GPa) = 33.41985 47.34190 40.38087
# Shear Modulus (GPa) = 7.08995 15.44591 11.26793
#
# Velocity S-wave (km/s) = 1.95051 2.87895 2.45895
# Velocity P-wave (km/s) = 4.79645 6.03779 5.45256
#
# Compressibility (1/GPa) = 0.02992233
#
# Stress axis : x y z
#
# Youngs Moduli (GPa) = 13.39868 65.78922 40.39267
#
# Poissons Ratio (x) = 1.05998 1.07217
# Poissons Ratio (y) = 0.21588 -0.01296
# Poissons Ratio (z) = 0.35565 -0.02111
#
# Static dielectric constant tensor:
#      x y z
#    x 1.649390 0.000000 0.000000 
#    y 0.000000 1.706470 0.000000 
#    z 0.000000 0.000000 1.641430 
# 
# From -- ./inp_files/48702.got.cif
#   From: 2010.05.17/outbox.cif.g08.bks.cpg/sg74_25_cif.got.tgz:48702.got - 2010.06.03 17:57:02.
