data_PCOD9537884
_publ_section_title
;
Structure prediction by ZEFSAII (Michael W. Deem and Ramdas Pophale) SiO2 
 PCOD9537884
Probable space group: I M M A
;
_chemical_formula_sum "Si O2"
_cell_formula_units_Z 80
_cell_length_a 26.244728
_cell_length_b 18.896331
_cell_length_c 8.607052
_cell_angle_alpha 90.000000
_cell_angle_beta 90.000000
_cell_angle_gamma 90.000000
_cell_volume 4268.487271
_symmetry_space_group_name_H-M "I M M A"
_symmetry_group_IT_number 74
_symmetry_cell_setting 'orthorhombic'
loop_
_space_group_symop_operation_xyz
x,y,z
-x,1/2-y,z
x,-y,-z
-x,1/2+y,-z
-x,-y,-z
x,1/2+y,-z
-x,y,z
x,1/2-y,z
1/2+x,1/2+y,1/2+z
1/2-x,-y,1/2+z
1/2+x,1/2-y,1/2-z
1/2-x,y,1/2-z
1/2-x,1/2-y,1/2-z
1/2+x,y,1/2-z
1/2-x,1/2+y,1/2+z
1/2+x,-y,1/2+z
loop_
_atom_site_type_symbol
_atom_site_label
_atom_site_fract_x
_atom_site_fract_y
_atom_site_fract_z
Si Si1 0.441458 0.417260 0.484524
Si Si2 0.057526 0.833587 0.663564
Si Si3 0.838733 0.170094 0.517261
Si Si4 0.851041 0.330015 0.888325
Si Si5 0.244169 0.421608 0.937695
O O1 0.428236 0.500000 0.500000
O O2 0.500000 0.409300 0.535489
O O3 0.438111 0.385542 0.310619
O O4 0.402974 0.370955 0.583029
O O5 0.060392 0.750000 0.710180
O O6 0.105709 0.846955 0.552388
O O7 0.000000 0.843296 0.596829
O O8 0.824926 0.250000 0.464608
O O9 0.842052 0.172431 0.703910
O O10 0.794143 0.114035 0.485936
O O11 0.853498 0.250000 0.947861
O O12 0.804707 0.372261 0.966152
O O13 0.250000 0.424494 0.750000
O O14 0.236319 0.500000 0.000000
#
# Coordination Sequence:
#
# PCOD9537884 Si02
#       5
#    16  16  16  16  16
#     4  10  21  36  53  76 108 142 175 214 260 310
#     4   9  18  34  55  78 106 139 173 213 261 309
#     4   9  19  35  55  79 106 137 175 218 262 309
#     4  10  20  35  56  79 104 136 175 218 261 308
#     4  10  21  36  54  77 107 140 173 213 262 313
#
# _framework density 18.742001999999999
#
# number of rings (size 3 to 8) (size 9 to 14) (size 15 to 20)
#    0.000    2.400    0.000    1.800    0.000    9.200 
#    0.000    2.000    0.000    9.000    0.000    0.000 
#    0.000    0.000    0.000    0.000    0.000    0.000 
#
# Total GULP energy -223059.678661 kJ/mol
# GULP energy per Si atom -5576.491967 kJ/mol
# Density = 1.869934 g / cm^3
# Si number density = 18.742002 Si / 1000 Ang^3
#
#
#
# Elastic Constant Matrix: (Units=GPa)
#
#
# Indices 1 2 3 4 5 6 
#
# 1 75.9288 92.5155 18.2595 0.0000 0.0000 0.0000
# 2 92.5155 160.1205 23.3040 0.0000 0.0000 0.0000
# 3 18.2595 23.3040 8.3300 0.0000 0.0000 0.0000
# 4 0.0000 0.0000 0.0000 23.5690 0.0000 0.0000
# 5 0.0000 0.0000 0.0000 0.0000 34.6064 0.0000
# 6 0.0000 0.0000 0.0000 0.0000 0.0000 37.8185
#
#
#
# Elastic Compliance Matrix: (Units=1/GPa)
#
#
# Indices 1 2 3 4 5 6 
#
# 1 0.056119 -0.024495 -0.054487 0.000000 0.000000 0.000000
# 2 -0.024495 0.021226 -0.005689 0.000000 0.000000 0.000000
# 3 -0.054487 -0.005689 0.255399 0.000000 0.000000 0.000000
# 4 0.000000 0.000000 0.000000 0.042429 0.000000 0.000000
# 5 0.000000 0.000000 0.000000 0.000000 0.028896 0.000000
# 6 0.000000 0.000000 0.000000 0.000000 0.000000 0.026442
#
#
# Mechanical properties :
#
#
# Convention : Reuss Voigt Hill
#
# Bulk Modulus (GPa) = 6.11986 56.94859 31.53422
# Shear Modulus (GPa) = 7.64151 26.55213 17.09682
#
# Velocity S-wave (km/s) = 2.02140 3.76801 3.02357
# Velocity P-wave (km/s) = 2.95305 7.02724 5.38992
#
# Compressibility (1/GPa) = 0.16340247
#
# Stress axis : x y z
#
# Youngs Moduli (GPa) = 17.81924 47.11206 3.91544
#
# Poissons Ratio (x) = 1.15400 0.21334
# Poissons Ratio (y) = 0.43648 0.02227
# Poissons Ratio (z) = 0.97093 0.26801
#
# Static dielectric constant tensor:
#      x y z
#    x 1.648080 0.000000 0.000000 
#    y 0.000000 1.634600 0.000000 
#    z 0.000000 0.000000 1.638700 
# 
# From -- ./inp_files/10875.got.cif
#   From: 2010.05.17/outbox.cif.g08.bks.cpg/sg74_6_cif.got.tgz:10875.got - 2010.06.03 17:57:02.
