data_PCOD9537331
_publ_section_title
;
Structure prediction by ZEFSAII (Michael W. Deem and Ramdas Pophale) SiO2 
 PCOD9537331
Probable space group: I M M A
;
_chemical_formula_sum "Si O2"
_cell_formula_units_Z 112
_cell_length_a 14.099241
_cell_length_b 14.226730
_cell_length_c 22.881710
_cell_angle_alpha 90.000000
_cell_angle_beta 90.000000
_cell_angle_gamma 90.000000
_cell_volume 4589.752854
_symmetry_space_group_name_H-M "I M M A"
_symmetry_group_IT_number 74
_symmetry_cell_setting 'orthorhombic'
loop_
_space_group_symop_operation_xyz
x,y,z
-x,1/2-y,z
x,-y,-z
-x,1/2+y,-z
-x,-y,-z
x,1/2+y,-z
-x,y,z
x,1/2-y,z
1/2+x,1/2+y,1/2+z
1/2-x,-y,1/2+z
1/2+x,1/2-y,1/2-z
1/2-x,y,1/2-z
1/2-x,1/2-y,1/2-z
1/2+x,y,1/2-z
1/2-x,1/2+y,1/2+z
1/2+x,-y,1/2+z
loop_
_atom_site_type_symbol
_atom_site_label
_atom_site_fract_x
_atom_site_fract_y
_atom_site_fract_z
Si Si1 0.893722 0.351589 0.346941
Si Si2 0.785092 0.862506 0.099296
Si Si3 0.385473 0.441616 0.836714
Si Si4 0.398325 0.388946 0.014657
Si Si5 0.318153 0.354619 0.480570
Si Si6 0.886962 0.452710 0.791703
Si Si7 0.613234 0.640348 0.646531
O O1 0.849222 0.250000 0.335462
O O2 0.851516 0.450412 0.330234
O O3 0.904931 0.365344 0.416467
O O4 0.000000 0.349532 0.320843
O O5 0.788035 0.750000 0.096237
O O6 0.676422 0.895294 0.112580
O O7 0.842585 0.902504 0.042300
O O8 0.838325 0.897296 0.156568
O O9 0.500000 0.439608 0.847835
O O10 0.364918 0.407333 0.771324
O O11 0.500000 0.356413 0.989173
O O12 0.294184 0.349050 0.004541
O O13 0.393402 0.500000 0.000000
O O14 0.361040 0.250000 0.478923
O O15 0.335111 0.388225 0.414655
O O16 0.864735 0.563613 0.803705
O O17 0.000000 0.446867 0.796487
O O18 0.500000 0.635906 0.635608
O O19 0.634842 0.750000 0.660381
#
# Coordination Sequence:
#
# PCOD9537331 Si02
#       7
#    16  16  16  16  16  16  16
#     4   9  18  33  55  85 121 159 197 242 297 356
#     4  11  25  43  62  88 123 162 208 266 323 374
#     4  10  22  41  63  91 125 162 209 258 309 376
#     4  10  20  33  52  81 119 163 206 246 289 349
#     4  10  22  37  58  87 119 161 205 251 309 373
#     4  10  23  42  65  91 120 160 209 261 316 375
#     4   9  20  40  65  95 129 163 203 255 316 382
#
# _framework density 24.402184999999999
#
# number of rings (size 3 to 8) (size 9 to 14) (size 15 to 20)
#    0.000    2.143    0.000    1.714    4.000    5.429 
#    0.000    8.571    0.000    1.714    0.000    0.000 
#    0.000    0.000    0.000    0.000    0.000    0.000 
#
# Total GULP energy -312166.108031 kJ/mol
# GULP energy per Si atom -5574.394786 kJ/mol
# Density = 2.434664 g / cm^3
# Si number density = 24.402185 Si / 1000 Ang^3
#
#
#
# Elastic Constant Matrix: (Units=GPa)
#
#
# Indices 1 2 3 4 5 6 
#
# 1 54.6741 -6.9193 9.7149 0.0000 0.0000 0.0000
# 2 -6.9193 77.9104 -3.0442 0.0000 0.0000 0.0000
# 3 9.7149 -3.0442 95.3252 0.0000 0.0000 0.0000
# 4 0.0000 0.0000 0.0000 -32.3124 0.0000 0.0000
# 5 0.0000 0.0000 0.0000 0.0000 26.5244 0.0000
# 6 0.0000 0.0000 0.0000 0.0000 0.0000 21.5095
#
#
#
# Elastic Compliance Matrix: (Units=1/GPa)
#
#
# Indices 1 2 3 4 5 6 
#
# 1 0.018824 0.001599 -0.001867 0.000000 0.000000 0.000000
# 2 0.001599 0.012987 0.000252 0.000000 0.000000 0.000000
# 3 -0.001867 0.000252 0.010689 0.000000 0.000000 0.000000
# 4 0.000000 0.000000 0.000000 -0.030948 0.000000 0.000000
# 5 0.000000 0.000000 0.000000 0.000000 0.037701 0.000000
# 6 0.000000 0.000000 0.000000 0.000000 0.000000 0.046491
#
#
# Mechanical properties :
#
#
# Convention : Reuss Voigt Hill
#
# Bulk Modulus (GPa) = 23.54784 25.26804 24.40794
# Shear Modulus (GPa) = 45.48193 18.35484 31.91838
#
# Velocity S-wave (km/s) = 4.32191 2.74557 3.62057
# Velocity P-wave (km/s) = 5.88014 4.51975 5.24425
#
# Compressibility (1/GPa) = 0.04246674
#
# Stress axis : x y z
#
# Youngs Moduli (GPa) = 53.12265 76.99949 93.55625
#
# Poissons Ratio (x) = -0.12311 0.17471
# Poissons Ratio (y) = -0.08494 -0.02356
# Poissons Ratio (z) = 0.09920 -0.01939
#
# Static dielectric constant tensor:
#      x y z
#    x 2.035400 0.000000 0.000000 
#    y 0.000000 1.943600 0.000000 
#    z 0.000000 0.000000 2.016890 
# 
# From -- ./inp_files/60093.got.cif
#   From: 2010.05.17/outbox.cif.g08.bks.cpg/sg74_31_cif.got.tgz:60093.got - 2010.06.03 17:57:02.
