data_PCOD9537363
_publ_section_title
;
Structure prediction by ZEFSAII (Michael W. Deem and Ramdas Pophale) SiO2 
 PCOD9537363
Probable space group: I M M A
;
_chemical_formula_sum "Si O2"
_cell_formula_units_Z 72
_cell_length_a 22.241459
_cell_length_b 11.352179
_cell_length_c 14.136536
_cell_angle_alpha 90.000000
_cell_angle_beta 90.000000
_cell_angle_gamma 90.000000
_cell_volume 3569.320174
_symmetry_space_group_name_H-M "I M M A"
_symmetry_group_IT_number 74
_symmetry_cell_setting 'orthorhombic'
loop_
_space_group_symop_operation_xyz
x,y,z
-x,1/2-y,z
x,-y,-z
-x,1/2+y,-z
-x,-y,-z
x,1/2+y,-z
-x,y,z
x,1/2-y,z
1/2+x,1/2+y,1/2+z
1/2-x,-y,1/2+z
1/2+x,1/2-y,1/2-z
1/2-x,y,1/2-z
1/2-x,1/2-y,1/2-z
1/2+x,y,1/2-z
1/2-x,1/2+y,1/2+z
1/2+x,-y,1/2+z
loop_
_atom_site_type_symbol
_atom_site_label
_atom_site_fract_x
_atom_site_fract_y
_atom_site_fract_z
Si Si1 0.750000 0.057050 0.750000
Si Si2 0.427664 0.618555 0.946510
Si Si3 0.360420 0.880941 0.750752
Si Si4 0.262985 0.375437 0.537582
Si Si5 0.400975 0.120306 0.461973
O O1 0.691367 0.976076 0.757472
O O2 0.743127 0.123019 0.650585
O O3 0.500000 0.617085 0.947883
O O4 0.409441 0.750000 0.983503
O O5 0.404303 0.610241 0.839530
O O6 0.406944 0.500000 0.000000
O O7 0.332919 0.750000 0.751300
O O8 0.393957 0.892080 0.650740
O O9 0.237483 0.500000 0.500000
O O10 0.237896 0.250000 0.500521
O O11 0.333044 0.376598 0.505735
O O12 0.427328 0.250000 0.482934
O O13 0.429512 0.000000 0.500000
#
# Coordination Sequence:
#
# PCOD9537363 Si02
#       5
#     8  16  16  16  16
#     4  12  20  32  50  80 115 146 183 230 273 330
#     4   9  19  39  63  85 111 143 184 233 282 330
#     4  10  20  33  54  82 108 144 184 224 276 332
#     4  10  20  34  50  70 101 146 186 220 266 322
#     4   9  16  32  50  69  97 137 177 212 261 317
#
# _framework density 20.171907000000001
#
# number of rings (size 3 to 8) (size 9 to 14) (size 15 to 20)
#    0.000    2.222    4.444    0.667    0.000    1.778 
#    0.000    5.556    0.000    0.667    0.000    0.000 
#    0.000    0.000    0.000    0.000    0.000    0.222 
#
# Total GULP energy -200656.030311 kJ/mol
# GULP energy per Si atom -5573.778620 kJ/mol
# Density = 2.012600 g / cm^3
# Si number density = 20.171907 Si / 1000 Ang^3
#
#
#
# Elastic Constant Matrix: (Units=GPa)
#
#
# Indices 1 2 3 4 5 6 
#
# 1 41.1424 26.5555 3.9885 0.0000 0.0000 0.0000
# 2 26.5555 228.0799 67.4296 0.0000 0.0000 0.0000
# 3 3.9885 67.4296 114.5633 0.0000 0.0000 0.0000
# 4 0.0000 0.0000 0.0000 22.9925 0.0000 0.0000
# 5 0.0000 0.0000 0.0000 0.0000 15.0407 0.0000
# 6 0.0000 0.0000 0.0000 0.0000 0.0000 -2.0473
#
#
#
# Elastic Compliance Matrix: (Units=1/GPa)
#
#
# Indices 1 2 3 4 5 6 
#
# 1 0.026390 -0.003391 0.001077 0.000000 0.000000 0.000000
# 2 -0.003391 0.005744 -0.003263 0.000000 0.000000 0.000000
# 3 0.001077 -0.003263 0.010612 0.000000 0.000000 0.000000
# 4 0.000000 0.000000 0.000000 0.043492 0.000000 0.000000
# 5 0.000000 0.000000 0.000000 0.000000 0.066486 0.000000
# 6 0.000000 0.000000 0.000000 0.000000 0.000000 -0.488455
#
#
# Mechanical properties :
#
#
# Convention : Reuss Voigt Hill
#
# Bulk Modulus (GPa) = 31.65308 64.41476 48.03392
# Shear Modulus (GPa) = -15.92123 26.25130 5.16504
#
# Velocity S-wave (km/s) = -2.81246 3.61138 1.60190
# Velocity P-wave (km/s) = 2.27578 7.02792 5.22354
#
# Compressibility (1/GPa) = 0.03159250
#
# Stress axis : x y z
#
# Youngs Moduli (GPa) = 37.89284 174.10022 94.23639
#
# Poissons Ratio (x) = 0.59039 -0.10151
# Poissons Ratio (y) = 0.12850 0.30746
# Poissons Ratio (z) = -0.04082 0.56802
#
# Static dielectric constant tensor:
#      x y z
#    x 1.675620 0.000000 0.000000 
#    y 0.000000 1.830590 0.000000 
#    z 0.000000 0.000000 1.692010 
# 
# From -- ./inp_files/26865.got.cif
#   From: 2010.05.17/outbox.cif.g08.bks.cpg/sg74_14_cif.got.tgz:26865.got - 2010.06.03 17:57:02.
