data_PCOD9537021
_publ_section_title
;
Structure prediction by ZEFSAII (Michael W. Deem and Ramdas Pophale) SiO2 
 PCOD9537021
Probable space group: I M M A
;
_chemical_formula_sum "Si O2"
_cell_formula_units_Z 96
_cell_length_a 20.946091
_cell_length_b 7.450200
_cell_length_c 28.160734
_cell_angle_alpha 90.000000
_cell_angle_beta 90.000000
_cell_angle_gamma 90.000000
_cell_volume 4394.554834
_symmetry_space_group_name_H-M "I M M A"
_symmetry_group_IT_number 74
_symmetry_cell_setting 'orthorhombic'
loop_
_space_group_symop_operation_xyz
x,y,z
-x,1/2-y,z
x,-y,-z
-x,1/2+y,-z
-x,-y,-z
x,1/2+y,-z
-x,y,z
x,1/2-y,z
1/2+x,1/2+y,1/2+z
1/2-x,-y,1/2+z
1/2+x,1/2-y,1/2-z
1/2-x,y,1/2-z
1/2-x,1/2-y,1/2-z
1/2+x,y,1/2-z
1/2-x,1/2+y,1/2+z
1/2+x,-y,1/2+z
loop_
_atom_site_type_symbol
_atom_site_label
_atom_site_fract_x
_atom_site_fract_y
_atom_site_fract_z
Si Si1 0.812526 0.541724 0.123229
Si Si2 0.794877 0.464971 0.553091
Si Si3 0.571020 0.031358 0.911324
Si Si4 0.071459 0.031554 0.698926
Si Si5 0.927618 0.963200 0.945198
Si Si6 0.819003 0.030711 0.770125
O O1 0.795533 0.750000 0.131262
O O2 0.754024 0.463521 0.092625
O O3 0.875414 0.535514 0.090894
O O4 0.824563 0.467026 0.175616
O O5 0.771394 0.500000 0.500000
O O6 0.797067 0.250000 0.558580
O O7 0.867306 0.531950 0.559901
O O8 0.500000 0.971024 0.926304
O O9 0.569967 0.250000 0.913051
O O10 0.581126 0.980302 0.856064
O O11 0.072734 0.250000 0.699067
O O12 0.125331 0.968196 0.734945
O O13 0.000000 0.976465 0.713109
O O14 0.928780 0.750000 0.938911
O O15 0.000000 0.032142 0.937777
O O16 0.910287 0.000000 0.000000
O O17 0.822535 0.250000 0.769796
O O18 0.750000 0.981061 0.750000
#
# Coordination Sequence:
#
# PCOD9537021 Si02
#       6
#    16  16  16  16  16  16
#     4  10  20  32  49  74 103 133 163 201 249 296
#     4  10  20  32  46  67  94 124 159 197 238 283
#     4   8  14  26  44  65  92 125 157 192 237 285
#     4   8  13  22  38  61  88 117 149 186 228 273
#     4  10  21  37  56  76  99 129 165 205 249 300
#     4   9  16  26  42  66  97 130 162 198 238 280
#
# _framework density 21.845215
#
# number of rings (size 3 to 8) (size 9 to 14) (size 15 to 20)
#    0.000    2.833    0.000    3.000    0.000    8.000 
#    0.000    1.667    0.000    0.500    0.000    1.167 
#    0.000    1.333    0.000    0.000    0.000    0.000 
#
# Total GULP energy -268017.349434 kJ/mol
# GULP energy per Si atom -5583.694780 kJ/mol
# Density = 2.179549 g / cm^3
# Si number density = 21.845215 Si / 1000 Ang^3
#
#
#
# Elastic Constant Matrix: (Units=GPa)
#
#
# Indices 1 2 3 4 5 6 
#
# 1 80.8081 -9.3933 20.9375 0.0000 0.0000 0.0000
# 2 -9.3933 65.5452 -12.4407 0.0000 0.0000 0.0000
# 3 20.9375 -12.4407 50.0296 0.0000 0.0000 0.0000
# 4 0.0000 0.0000 0.0000 3.7489 0.0000 0.0000
# 5 0.0000 0.0000 0.0000 0.0000 43.4695 0.0000
# 6 0.0000 0.0000 0.0000 0.0000 0.0000 14.3176
#
#
#
# Elastic Compliance Matrix: (Units=1/GPa)
#
#
# Indices 1 2 3 4 5 6 
#
# 1 0.013934 0.000934 -0.005599 0.000000 0.000000 0.000000
# 2 0.000934 0.016075 0.003606 0.000000 0.000000 0.000000
# 3 -0.005599 0.003606 0.023228 0.000000 0.000000 0.000000
# 4 0.000000 0.000000 0.000000 0.266747 0.000000 0.000000
# 5 0.000000 0.000000 0.000000 0.000000 0.023005 0.000000
# 6 0.000000 0.000000 0.000000 0.000000 0.000000 0.069844
#
#
# Mechanical properties :
#
#
# Convention : Reuss Voigt Hill
#
# Bulk Modulus (GPa) = 19.56171 21.62108 20.59140
# Shear Modulus (GPa) = 11.57431 25.45915 18.51673
#
# Velocity S-wave (km/s) = 2.30431 3.41755 2.91457
# Velocity P-wave (km/s) = 4.00673 5.04893 4.55772
#
# Compressibility (1/GPa) = 0.05112027
#
# Stress axis : x y z
#
# Youngs Moduli (GPa) = 71.76504 62.20823 43.05106
#
# Poissons Ratio (x) = -0.05811 0.24105
# Poissons Ratio (y) = -0.06704 -0.15526
# Poissons Ratio (z) = 0.40183 -0.22435
#
# Static dielectric constant tensor:
#      x y z
#    x 1.790520 0.000000 0.000000 
#    y 0.000000 1.901950 0.000000 
#    z 0.000000 0.000000 1.757130 
# 
# From -- ./inp_files/68137.got.cif
#   From: 2010.05.17/outbox.cif.g08.bks.cpg/sg74_35_cif.got.tgz:68137.got - 2010.06.03 17:57:02.
