data_PCOD9537024
_publ_section_title
;
Structure prediction by ZEFSAII (Michael W. Deem and Ramdas Pophale) SiO2 
 PCOD9537024
Probable space group: I M M A
;
_chemical_formula_sum "Si O2"
_cell_formula_units_Z 116
_cell_length_a 31.837660
_cell_length_b 7.836506
_cell_length_c 27.228618
_cell_angle_alpha 90.000000
_cell_angle_beta 90.000000
_cell_angle_gamma 90.000000
_cell_volume 6793.431647
_symmetry_space_group_name_H-M "I M M A"
_symmetry_group_IT_number 74
_symmetry_cell_setting 'orthorhombic'
loop_
_space_group_symop_operation_xyz
x,y,z
-x,1/2-y,z
x,-y,-z
-x,1/2+y,-z
-x,-y,-z
x,1/2+y,-z
-x,y,z
x,1/2-y,z
1/2+x,1/2+y,1/2+z
1/2-x,-y,1/2+z
1/2+x,1/2-y,1/2-z
1/2-x,y,1/2-z
1/2-x,1/2-y,1/2-z
1/2+x,y,1/2-z
1/2-x,1/2+y,1/2+z
1/2+x,-y,1/2+z
loop_
_atom_site_type_symbol
_atom_site_label
_atom_site_fract_x
_atom_site_fract_y
_atom_site_fract_z
Si Si1 0.698609 0.454313 0.443354
Si Si2 0.655495 0.054983 0.184041
Si Si3 0.738176 0.456167 0.139664
Si Si4 0.063791 0.948570 0.290565
Si Si5 0.047432 0.454286 0.824156
Si Si6 0.307625 0.056890 0.717167
Si Si7 0.000000 0.250000 0.318394
Si Si8 0.131711 0.450631 0.133219
O O1 0.701424 0.500000 0.500000
O O2 0.700144 0.250000 0.441041
O O3 0.736409 0.518129 0.408253
O O4 0.655115 0.507098 0.416541
O O5 0.645794 0.250000 0.170442
O O6 0.690600 0.982505 0.146965
O O7 0.611813 0.959637 0.191562
O O8 0.679280 0.053699 0.236498
O O9 0.736417 0.250000 0.137997
O O10 0.766734 0.503331 0.186630
O O11 0.049668 0.750000 0.296173
O O12 0.060721 0.990985 0.232142
O O13 0.036267 0.096162 0.315652
O O14 0.046872 0.250000 0.828918
O O15 0.082330 0.523068 0.861195
O O16 0.000000 0.519132 0.831409
O O17 0.302919 0.250000 0.734699
O O18 0.345380 0.045816 0.677831
O O19 0.140971 0.250000 0.140092
#
# Coordination Sequence:
#
# PCOD9537024 Si02
#       8
#    16  16  16  16  16  16   4  16
#     4   9  19  36  54  74  94 122 161 209 257 307
#     4  11  20  32  48  68  99 140 172 203 257 299
#     4   9  20  35  49  69  97 129 169 204 246 309
#     4  11  22  34  49  73 102 135 183 225 247 300
#     4  10  20  32  46  68  98 126 161 212 260 294
#     4  11  20  29  44  67  98 131 167 211 247 292
#     4  12  22  36  52  70  94 148 190 204 272 294
#     4  10  20  32  49  70  94 123 166 208 249 307
#
# _framework density 17.075316000000001
#
# number of rings (size 3 to 8) (size 9 to 14) (size 15 to 20)
#    0.000    1.793    2.759    3.517    0.966    5.793 
#    0.000    0.000    0.000    0.414    0.000    0.000 
#    0.000    0.000    0.000    0.621    2.759    0.690 
#
# Total GULP energy -322961.163618 kJ/mol
# GULP energy per Si atom -5568.295924 kJ/mol
# Density = 1.703645 g / cm^3
# Si number density = 17.075316 Si / 1000 Ang^3
#
#
#
# Elastic Constant Matrix: (Units=GPa)
#
#
# Indices 1 2 3 4 5 6 
#
# 1 154.5150 24.9901 45.0983 0.0000 0.0000 0.0000
# 2 24.9901 56.9048 6.4699 0.0000 0.0000 0.0000
# 3 45.0983 6.4699 41.3549 0.0000 0.0000 0.0000
# 4 0.0000 0.0000 0.0000 14.1195 0.0000 0.0000
# 5 0.0000 0.0000 0.0000 0.0000 5.2113 0.0000
# 6 0.0000 0.0000 0.0000 0.0000 0.0000 19.2284
#
#
#
# Elastic Compliance Matrix: (Units=1/GPa)
#
#
# Indices 1 2 3 4 5 6 
#
# 1 0.010042 -0.003222 -0.010447 0.000000 0.000000 0.000000
# 2 -0.003222 0.018925 0.000553 0.000000 0.000000 0.000000
# 3 -0.010447 0.000553 0.035487 0.000000 0.000000 0.000000
# 4 0.000000 0.000000 0.000000 0.070824 0.000000 0.000000
# 5 0.000000 0.000000 0.000000 0.000000 0.191892 0.000000
# 6 0.000000 0.000000 0.000000 0.000000 0.000000 0.052006
#
#
# Mechanical properties :
#
#
# Convention : Reuss Voigt Hill
#
# Bulk Modulus (GPa) = 26.16277 45.09902 35.63090
# Shear Modulus (GPa) = 11.95742 19.45959 15.70850
#
# Velocity S-wave (km/s) = 2.64914 3.37951 3.03636
# Velocity P-wave (km/s) = 4.97117 6.45734 5.76237
#
# Compressibility (1/GPa) = 0.03822226
#
# Stress axis : x y z
#
# Youngs Moduli (GPa) = 99.57980 52.83898 28.17923
#
# Poissons Ratio (x) = 0.17026 0.29439
# Poissons Ratio (y) = 0.32088 -0.01559
# Poissons Ratio (z) = 1.04032 -0.02923
#
# Static dielectric constant tensor:
#      x y z
#    x 1.626980 0.000000 0.000000 
#    y 0.000000 1.621320 0.000000 
#    z 0.000000 0.000000 1.554150 
# 
# From -- ./inp_files/69202.got.cif
#   From: 2010.05.17/outbox.cif.g08.bks.cpg/sg74_35_cif.got.tgz:69202.got - 2010.06.03 17:57:02.
