data_PCOD9537372
_publ_section_title
;
Structure prediction by ZEFSAII (Michael W. Deem and Ramdas Pophale) SiO2 
 PCOD9537372
Probable space group: I M M A
;
_chemical_formula_sum "Si O2"
_cell_formula_units_Z 104
_cell_length_a 14.618157
_cell_length_b 31.515000
_cell_length_c 11.052115
_cell_angle_alpha 90.000000
_cell_angle_beta 90.000000
_cell_angle_gamma 90.000000
_cell_volume 5091.612319
_symmetry_space_group_name_H-M "I M M A"
_symmetry_group_IT_number 74
_symmetry_cell_setting 'orthorhombic'
loop_
_space_group_symop_operation_xyz
x,y,z
-x,1/2-y,z
x,-y,-z
-x,1/2+y,-z
-x,-y,-z
x,1/2+y,-z
-x,y,z
x,1/2-y,z
1/2+x,1/2+y,1/2+z
1/2-x,-y,1/2+z
1/2+x,1/2-y,1/2-z
1/2-x,y,1/2-z
1/2-x,1/2-y,1/2-z
1/2+x,y,1/2-z
1/2-x,1/2+y,1/2+z
1/2+x,-y,1/2+z
loop_
_atom_site_type_symbol
_atom_site_label
_atom_site_fract_x
_atom_site_fract_y
_atom_site_fract_z
Si Si1 0.331509 0.882487 0.847070
Si Si2 0.895137 0.663851 0.031223
Si Si3 0.104780 0.299198 0.706437
Si Si4 0.602325 0.461823 0.280697
Si Si5 0.192977 0.074901 0.986817
Si Si6 0.292808 0.299449 0.042275
Si Si7 0.250000 0.974823 0.250000
O O1 0.250000 0.881097 0.750000
O O2 0.398774 0.916258 0.786901
O O3 0.287426 0.904293 0.965330
O O4 0.349834 0.833616 0.879220
O O5 0.880888 0.674311 0.172834
O O6 0.877593 0.613980 0.017921
O O7 0.814696 0.687706 0.957579
O O8 0.000000 0.675225 0.999433
O O9 0.113574 0.250000 0.743909
O O10 0.172407 0.305883 0.595391
O O11 0.000000 0.305816 0.664325
O O12 0.500000 0.477665 0.296253
O O13 0.652668 0.455464 0.409419
O O14 0.667145 0.494363 0.209475
O O15 0.211598 0.053005 0.859817
O O16 0.305102 0.250000 0.074101
#
# Coordination Sequence:
#
# PCOD9537372 Si02
#       7
#    16  16  16  16  16  16   8
#     4   9  20  40  60  84 120 163 203 255 308 365
#     4  10  20  33  54  85 123 164 206 252 309 373
#     4   9  18  32  50  78 116 157 202 250 305 370
#     4  11  23  43  69  91 122 169 212 256 319 380
#     4  10  22  39  63  90 127 163 200 256 314 379
#     4  10  20  33  57  86 119 165 209 256 313 369
#     4  12  24  40  68  96 128 160 204 270 322 384
#
# _framework density 20.425749
#
# number of rings (size 3 to 8) (size 9 to 14) (size 15 to 20)
#    0.000    2.000    2.308    1.846    4.308    4.923 
#    0.000    1.538    0.000    0.000    0.000    2.154 
#    0.000    0.000    0.000    0.000    0.000    0.000 
#
# Total GULP energy -290103.533866 kJ/mol
# GULP energy per Si atom -5578.914113 kJ/mol
# Density = 2.037926 g / cm^3
# Si number density = 20.425749 Si / 1000 Ang^3
#
#
#
# Elastic Constant Matrix: (Units=GPa)
#
#
# Indices 1 2 3 4 5 6 
#
# 1 68.0791 12.3915 8.4395 0.0003 -0.0002 0.0000
# 2 12.3915 70.8972 20.7266 0.0000 0.0000 0.0000
# 3 8.4395 20.7266 37.5572 0.0006 -0.0006 -0.0004
# 4 0.0003 0.0000 0.0006 38.7328 -0.0002 0.0000
# 5 -0.0002 0.0000 -0.0006 -0.0002 8.8541 0.0000
# 6 0.0000 0.0000 -0.0004 0.0000 0.0000 17.1116
#
#
#
# Elastic Compliance Matrix: (Units=1/GPa)
#
#
# Indices 1 2 3 4 5 6 
#
# 1 0.015343 -0.001996 -0.002346 0.000000 0.000000 0.000000
# 2 -0.001996 0.017078 -0.008976 0.000000 -0.000001 0.000000
# 3 -0.002346 -0.008976 0.032107 -0.000001 0.000002 0.000001
# 4 0.000000 0.000000 -0.000001 0.025818 0.000001 0.000000
# 5 0.000000 -0.000001 0.000002 0.000001 0.112942 0.000000
# 6 0.000000 0.000000 0.000001 0.000000 0.000000 0.058440
#
#
# Mechanical properties :
#
#
# Convention : Reuss Voigt Hill
#
# Bulk Modulus (GPa) = 26.39137 28.84986 27.62061
# Shear Modulus (GPa) = 16.61156 21.93809 19.27483
#
# Velocity S-wave (km/s) = 2.85488 3.28081 3.07523
# Velocity P-wave (km/s) = 4.88014 5.33915 5.11480
#
# Compressibility (1/GPa) = 0.03789118
#
# Stress axis : x y z
#
# Youngs Moduli (GPa) = 65.17668 58.55513 31.14585
#
# Poissons Ratio (x) = 0.11686 0.07308
# Poissons Ratio (y) = 0.13007 0.27957
# Poissons Ratio (z) = 0.15293 0.52561
#
# Static dielectric constant tensor:
#      x y z
#    x 1.739590 0.000000 0.000000 
#    y 0.000000 1.768680 0.000000 
#    z 0.000000 0.000000 1.741770 
# 
# From -- ./inp_files/21187.got.cif
#   From: 2010.05.17/outbox.cif.g08.bks.cpg/sg74_11_cif.got.tgz:21187.got - 2010.06.03 17:57:02.
