data_PCOD9537499
_publ_section_title
;
Structure prediction by ZEFSAII (Michael W. Deem and Ramdas Pophale) SiO2 
 PCOD9537499
Probable space group: I M M A
;
_chemical_formula_sum "Si O2"
_cell_formula_units_Z 80
_cell_length_a 18.587425
_cell_length_b 7.770996
_cell_length_c 27.731510
_cell_angle_alpha 90.000000
_cell_angle_beta 90.000000
_cell_angle_gamma 90.000000
_cell_volume 4005.617100
_symmetry_space_group_name_H-M "I M M A"
_symmetry_group_IT_number 74
_symmetry_cell_setting 'orthorhombic'
loop_
_space_group_symop_operation_xyz
x,y,z
-x,1/2-y,z
x,-y,-z
-x,1/2+y,-z
-x,-y,-z
x,1/2+y,-z
-x,y,z
x,1/2-y,z
1/2+x,1/2+y,1/2+z
1/2-x,-y,1/2+z
1/2+x,1/2-y,1/2-z
1/2-x,y,1/2-z
1/2-x,1/2-y,1/2-z
1/2+x,y,1/2-z
1/2-x,1/2+y,1/2+z
1/2+x,-y,1/2+z
loop_
_atom_site_type_symbol
_atom_site_label
_atom_site_fract_x
_atom_site_fract_y
_atom_site_fract_z
Si Si1 0.078530 0.545116 0.788890
Si Si2 0.878793 0.451324 0.681898
Si Si3 0.718911 0.040730 0.344298
Si Si4 0.922340 0.548867 0.576423
Si Si5 0.766732 0.543582 0.551898
O O1 0.077155 0.750000 0.797617
O O2 0.090788 0.517969 0.732105
O O3 0.147427 0.476769 0.817860
O O4 0.000000 0.474474 0.802441
O O5 0.894299 0.250000 0.677877
O O6 0.792834 0.481051 0.680460
O O7 0.911275 0.538635 0.634238
O O8 0.719675 0.250000 0.342392
O O9 0.724955 0.985940 0.400276
O O10 0.924192 0.750000 0.562948
O O11 0.848699 0.472250 0.555229
O O12 0.000000 0.471690 0.563468
O O13 0.735299 0.500000 0.500000
O O14 0.771358 0.750000 0.555551
#
# Coordination Sequence:
#
# PCOD9537499 Si02
#       5
#    16  16  16  16  16
#     4  10  20  34  53  74  96 127 165 201 238 282
#     4  11  21  31  47  74 105 134 163 195 234 281
#     4   9  19  36  54  71  95 128 165 201 235 281
#     4   9  18  33  50  68  96 134 170 200 232 277
#     4   9  18  32  50  71  93 121 159 202 245 287
#
# _framework density 19.971955000000001
#
# number of rings (size 3 to 8) (size 9 to 14) (size 15 to 20)
#    0.000    2.400    0.000    4.200    0.000   10.000 
#    0.000    0.000    0.000    0.600    0.000    0.000 
#    0.000    0.000    0.000    0.000    0.000    0.400 
#
# Total GULP energy -223271.849659 kJ/mol
# GULP energy per Si atom -5581.796241 kJ/mol
# Density = 1.992650 g / cm^3
# Si number density = 19.971955 Si / 1000 Ang^3
#
#
#
# Elastic Constant Matrix: (Units=GPa)
#
#
# Indices 1 2 3 4 5 6 
#
# 1 82.7399 -3.7666 24.4151 0.0000 0.0000 0.0000
# 2 -3.7666 31.4050 -13.0146 0.0000 0.0000 0.0000
# 3 24.4151 -13.0146 70.4536 0.0000 0.0000 0.0000
# 4 0.0000 0.0000 0.0000 13.7863 0.0000 0.0000
# 5 0.0000 0.0000 0.0000 0.0000 21.7113 0.0000
# 6 0.0000 0.0000 0.0000 0.0000 0.0000 -15.3344
#
#
#
# Elastic Compliance Matrix: (Units=1/GPa)
#
#
# Indices 1 2 3 4 5 6 
#
# 1 0.013466 -0.000345 -0.004730 0.000000 0.000000 0.000000
# 2 -0.000345 0.034491 0.006491 0.000000 0.000000 0.000000
# 3 -0.004730 0.006491 0.017032 0.000000 0.000000 0.000000
# 4 0.000000 0.000000 0.000000 0.072536 0.000000 0.000000
# 5 0.000000 0.000000 0.000000 0.000000 0.046059 0.000000
# 6 0.000000 0.000000 0.000000 0.000000 0.000000 -0.065213
#
#
# Mechanical properties :
#
#
# Convention : Reuss Voigt Hill
#
# Bulk Modulus (GPa) = 14.74502 22.20737 18.47620
# Shear Modulus (GPa) = 36.19347 15.83027 26.01187
#
# Velocity S-wave (km/s) = 4.26163 2.81841 3.61282
# Velocity P-wave (km/s) = 5.62265 4.66205 5.16473
#
# Compressibility (1/GPa) = 0.06781949
#
# Stress axis : x y z
#
# Youngs Moduli (GPa) = 74.25997 28.99341 58.71279
#
# Poissons Ratio (x) = 0.01001 0.27773
# Poissons Ratio (y) = 0.02564 -0.38110
# Poissons Ratio (z) = 0.35128 -0.18819
#
# Static dielectric constant tensor:
#      x y z
#    x 1.731280 0.000000 0.000000 
#    y 0.000000 1.732600 0.000000 
#    z 0.000000 0.000000 1.695250 
# 
# From -- ./inp_files/63926.got.cif
#   From: 2010.05.17/outbox.cif.g08.bks.cpg/sg74_32_cif.got.tgz:63926.got - 2010.06.03 17:57:02.
