data_PCOD9537032
_publ_section_title
;
Structure prediction by ZEFSAII (Michael W. Deem and Ramdas Pophale) SiO2 
 PCOD9537032
Probable space group: I M M A
;
_chemical_formula_sum "Si O2"
_cell_formula_units_Z 72
_cell_length_a 7.304298
_cell_length_b 20.339861
_cell_length_c 21.556678
_cell_angle_alpha 90.000000
_cell_angle_beta 90.000000
_cell_angle_gamma 90.000000
_cell_volume 3202.641290
_symmetry_space_group_name_H-M "I M M A"
_symmetry_group_IT_number 74
_symmetry_cell_setting 'orthorhombic'
loop_
_space_group_symop_operation_xyz
x,y,z
-x,1/2-y,z
x,-y,-z
-x,1/2+y,-z
-x,-y,-z
x,1/2+y,-z
-x,y,z
x,1/2-y,z
1/2+x,1/2+y,1/2+z
1/2-x,-y,1/2+z
1/2+x,1/2-y,1/2-z
1/2-x,y,1/2-z
1/2-x,1/2-y,1/2-z
1/2+x,y,1/2-z
1/2-x,1/2+y,1/2+z
1/2+x,-y,1/2+z
loop_
_atom_site_type_symbol
_atom_site_label
_atom_site_fract_x
_atom_site_fract_y
_atom_site_fract_z
Si Si1 0.777277 0.358781 0.087931
Si Si2 0.281646 0.104581 0.680384
Si Si3 0.216701 0.250000 0.178696
Si Si4 0.222122 0.750000 0.008955
Si Si5 0.722943 0.750000 0.347981
Si Si6 0.722900 0.004965 0.572544
O O1 0.714247 0.314596 0.144873
O O2 0.720074 0.433188 0.095869
O O3 0.000000 0.361174 0.085066
O O4 0.721022 0.316058 0.027663
O O5 0.500000 0.107785 0.672392
O O6 0.250000 0.077211 0.750000
O O7 0.212833 0.180157 0.678934
O O8 0.215331 0.061029 0.621414
O O9 0.250000 0.250000 0.250000
O O10 0.000000 0.250000 0.167172
O O11 0.276027 0.750000 0.079801
O O12 0.000000 0.750000 0.007570
O O13 0.500000 0.750000 0.343789
O O14 0.500000 0.010349 0.571167
O O15 0.778888 0.000000 0.500000
#
# Coordination Sequence:
#
# PCOD9537032 Si02
#       6
#    16  16   8   8   8  16
#     4   8  14  24  39  62  89 111 137 180 228 264
#     4  10  20  32  47  68  94 122 151 185 225 269
#     4   9  17  28  42  61  86 116 146 176 214 261
#     4   8  12  21  40  65  90 112 137 179 230 266
#     4   9  16  27  44  66  90 116 148 183 219 261
#     4   9  16  27  45  69  93 116 148 191 231 264
#
# _framework density 22.481445000000001
#
# number of rings (size 3 to 8) (size 9 to 14) (size 15 to 20)
#    0.000    3.111    0.000    3.000    0.000    6.222 
#    0.000    0.000    0.000    0.667    0.000   12.444 
#    0.000    0.000    0.000    0.000    0.000    0.000 
#
# Total GULP energy -200745.910150 kJ/mol
# GULP energy per Si atom -5576.275282 kJ/mol
# Density = 2.243028 g / cm^3
# Si number density = 22.481445 Si / 1000 Ang^3
#
#
#
# Elastic Constant Matrix: (Units=GPa)
#
#
# Indices 1 2 3 4 5 6 
#
# 1 91.0246 6.7234 -4.8366 0.0000 0.0000 0.0000
# 2 6.7234 173.4015 86.5757 0.0000 0.0000 0.0000
# 3 -4.8366 86.5757 176.2318 0.0000 0.0000 0.0000
# 4 0.0000 0.0000 0.0000 -2.9399 0.0000 0.0000
# 5 0.0000 0.0000 0.0000 0.0000 11.7786 0.0000
# 6 0.0000 0.0000 0.0000 0.0000 0.0000 -33.5474
#
#
#
# Elastic Compliance Matrix: (Units=1/GPa)
#
#
# Indices 1 2 3 4 5 6 
#
# 1 0.011079 -0.000770 0.000683 0.000000 0.000000 0.000000
# 2 -0.000770 0.007695 -0.003801 0.000000 0.000000 0.000000
# 3 0.000683 -0.003801 0.007560 0.000000 0.000000 0.000000
# 4 0.000000 0.000000 0.000000 -0.340149 0.000000 0.000000
# 5 0.000000 0.000000 0.000000 0.000000 0.084900 0.000000
# 6 0.000000 0.000000 0.000000 0.000000 0.000000 -0.029809
#
#
# Mechanical properties :
#
#
# Convention : Reuss Voigt Hill
#
# Bulk Modulus (GPa) = 53.89029 68.62034 61.25532
# Shear Modulus (GPa) = -20.42817 18.53795 -0.94511
#
# Velocity S-wave (km/s) = -3.01768 2.87468 -0.64908
# Velocity P-wave (km/s) = 3.44691 6.45041 5.17150
#
# Compressibility (1/GPa) = 0.01855622
#
# Stress axis : x y z
#
# Youngs Moduli (GPa) = 90.25918 129.95929 132.26669
#
# Poissons Ratio (x) = 0.10011 -0.09027
# Poissons Ratio (y) = 0.06953 0.50278
# Poissons Ratio (z) = -0.06160 0.49401
#
# Static dielectric constant tensor:
#      x y z
#    x 1.902920 0.000000 0.000000 
#    y 0.000000 1.822750 0.000000 
#    z 0.000000 0.000000 1.789300 
# 
# From -- ./inp_files/41127.got.cif
#   From: 2010.05.17/outbox.cif.g08.bks.cpg/sg74_21_cif.got.tgz:41127.got - 2010.06.03 17:57:02.
