data_PCOD9537284
_publ_section_title
;
Structure prediction by ZEFSAII (Michael W. Deem and Ramdas Pophale) SiO2 
 PCOD9537284
Probable space group: I M M A
;
_chemical_formula_sum "Si O2"
_cell_formula_units_Z 64
_cell_length_a 8.457252
_cell_length_b 18.853293
_cell_length_c 17.902538
_cell_angle_alpha 90.000000
_cell_angle_beta 90.000000
_cell_angle_gamma 90.000000
_cell_volume 2854.506870
_symmetry_space_group_name_H-M "I M M A"
_symmetry_group_IT_number 74
_symmetry_cell_setting 'orthorhombic'
loop_
_space_group_symop_operation_xyz
x,y,z
-x,1/2-y,z
x,-y,-z
-x,1/2+y,-z
-x,-y,-z
x,1/2+y,-z
-x,y,z
x,1/2-y,z
1/2+x,1/2+y,1/2+z
1/2-x,-y,1/2+z
1/2+x,1/2-y,1/2-z
1/2-x,y,1/2-z
1/2-x,1/2-y,1/2-z
1/2+x,y,1/2-z
1/2-x,1/2+y,1/2+z
1/2+x,-y,1/2+z
loop_
_atom_site_type_symbol
_atom_site_label
_atom_site_fract_x
_atom_site_fract_y
_atom_site_fract_z
Si Si1 0.312423 0.667362 0.409998
Si Si2 0.187669 0.464570 0.667657
Si Si3 0.180510 0.080837 0.451451
Si Si4 0.821788 0.168131 0.168685
O O1 0.500000 0.668511 0.398096
O O2 0.257932 0.750000 0.413245
O O3 0.234422 0.617045 0.347404
O O4 0.276728 0.623400 0.485775
O O5 0.250000 0.487121 0.750000
O O6 0.239625 0.509660 0.592718
O O7 0.000000 0.472969 0.669209
O O8 0.192138 0.133888 0.383011
O O9 0.000000 0.072186 0.477529
O O10 0.836232 0.250000 0.148455
O O11 0.750000 0.162768 0.250000
O O12 0.000000 0.136723 0.162703
#
# Coordination Sequence:
#
# PCOD9537284 Si02
#       4
#    16  16  16  16
#     4  11  25  44  67  96 129 168 214 263 318 379
#     4  11  25  44  67  96 129 168 214 263 318 379
#     4  11  23  39  62  93 127 163 207 258 314 376
#     4  10  20  33  51  79 117 162 210 257 309 371
#
# _framework density 22.420687000000001
#
# number of rings (size 3 to 8) (size 9 to 14) (size 15 to 20)
#    0.000    1.250    0.000    5.250    0.000   16.000 
#    0.000    0.000    0.000    0.000    0.000    0.000 
#    0.000    0.000    0.000    0.000    0.000    0.000 
#
# Total GULP energy -178474.132529 kJ/mol
# GULP energy per Si atom -5577.316642 kJ/mol
# Density = 2.236966 g / cm^3
# Si number density = 22.420687 Si / 1000 Ang^3
#
#
#
# Elastic Constant Matrix: (Units=GPa)
#
#
# Indices 1 2 3 4 5 6 
#
# 1 65.9925 13.7581 3.4721 0.0000 0.0000 0.0000
# 2 13.7581 190.0516 -27.6471 0.0000 0.0000 0.0000
# 3 3.4721 -27.6471 78.1969 0.0000 0.0000 0.0000
# 4 0.0000 0.0000 0.0000 24.9278 0.0000 0.0000
# 5 0.0000 0.0000 0.0000 0.0000 41.8919 0.0000
# 6 0.0000 0.0000 0.0000 0.0000 0.0000 17.5189
#
#
#
# Elastic Compliance Matrix: (Units=1/GPa)
#
#
# Indices 1 2 3 4 5 6 
#
# 1 0.015482 -0.001287 -0.001142 0.000000 0.000000 0.000000
# 2 -0.001287 0.005654 0.002056 0.000000 0.000000 0.000000
# 3 -0.001142 0.002056 0.013566 0.000000 0.000000 0.000000
# 4 0.000000 0.000000 0.000000 0.040116 0.000000 0.000000
# 5 0.000000 0.000000 0.000000 0.000000 0.023871 0.000000
# 6 0.000000 0.000000 0.000000 0.000000 0.000000 0.057081
#
#
# Mechanical properties :
#
#
# Convention : Reuss Voigt Hill
#
# Bulk Modulus (GPa) = 29.45056 34.82301 32.13679
# Shear Modulus (GPa) = 29.79127 39.84491 34.81809
#
# Velocity S-wave (km/s) = 3.64914 4.22020 3.94502
# Velocity P-wave (km/s) = 5.56048 6.26994 5.92584
#
# Compressibility (1/GPa) = 0.03395521
#
# Stress axis : x y z
#
# Youngs Moduli (GPa) = 64.59259 176.86580 73.71411
#
# Poissons Ratio (x) = 0.22761 0.08421
# Poissons Ratio (y) = 0.08313 -0.15157
# Poissons Ratio (z) = 0.07379 -0.36366
#
# Static dielectric constant tensor:
#      x y z
#    x 1.873910 0.000000 0.000000 
#    y 0.000000 1.893380 0.000000 
#    z 0.000000 0.000000 2.845260 
# 
# From -- ./inp_files/48011.got.cif
#   From: 2010.05.17/outbox.cif.g08.bks.cpg/sg74_25_cif.got.tgz:48011.got - 2010.06.03 17:57:02.
