data_PCOD9537914
_publ_section_title
;
Structure prediction by ZEFSAII (Michael W. Deem and Ramdas Pophale) SiO2 
 PCOD9537914
Probable space group: I M M A
;
_chemical_formula_sum "Si O2"
_cell_formula_units_Z 80
_cell_length_a 10.549392
_cell_length_b 16.137538
_cell_length_c 24.694316
_cell_angle_alpha 90.000000
_cell_angle_beta 90.000000
_cell_angle_gamma 90.000000
_cell_volume 4203.990342
_symmetry_space_group_name_H-M "I M M A"
_symmetry_group_IT_number 74
_symmetry_cell_setting 'orthorhombic'
loop_
_space_group_symop_operation_xyz
x,y,z
-x,1/2-y,z
x,-y,-z
-x,1/2+y,-z
-x,-y,-z
x,1/2+y,-z
-x,y,z
x,1/2-y,z
1/2+x,1/2+y,1/2+z
1/2-x,-y,1/2+z
1/2+x,1/2-y,1/2-z
1/2-x,y,1/2-z
1/2-x,1/2-y,1/2-z
1/2+x,y,1/2-z
1/2-x,1/2+y,1/2+z
1/2+x,-y,1/2+z
loop_
_atom_site_type_symbol
_atom_site_label
_atom_site_fract_x
_atom_site_fract_y
_atom_site_fract_z
Si Si1 0.862831 0.346759 0.084199
Si Si2 0.856476 0.901681 0.506659
Si Si3 0.786738 0.658841 0.687203
Si Si4 0.653415 0.842746 0.112142
Si Si5 0.354684 0.477221 0.797656
O O1 0.866328 0.250000 0.069343
O O2 0.743597 0.383433 0.053168
O O3 0.834404 0.350095 0.148136
O O4 0.000000 0.384435 0.071483
O O5 0.810528 0.863907 0.449517
O O6 0.000000 0.870718 0.518353
O O7 0.864324 0.000000 0.500000
O O8 0.844001 0.750000 0.673523
O O9 0.750000 0.662256 0.750000
O O10 0.858459 0.572028 0.680845
O O11 0.500000 0.842348 0.111602
O O12 0.697000 0.750000 0.127005
O O13 0.686996 0.913939 0.154998
O O14 0.500000 0.456229 0.780648
O O15 0.250000 0.473120 0.750000
#
# Coordination Sequence:
#
# PCOD9537914 Si02
#       5
#    16  16  16  16  16
#     4  10  21  36  54  79 111 143 177 223 278 331
#     4  10  20  35  56  81 109 144 188 232 273 327
#     4   9  19  35  54  76 106 144 180 216 266 330
#     4   9  18  34  56  80 109 147 187 227 273 325
#     4  10  21  37  57  82 110 141 182 230 278 331
#
# _framework density 19.029540000000001
#
# number of rings (size 3 to 8) (size 9 to 14) (size 15 to 20)
#    0.000    2.400    0.000    1.800    0.000    8.000 
#    0.000    7.000    0.000    1.200    0.000    0.000 
#    0.000    0.000    0.000    0.000    0.000    0.000 
#
# Total GULP energy -222770.900639 kJ/mol
# GULP energy per Si atom -5569.272516 kJ/mol
# Density = 1.898623 g / cm^3
# Si number density = 19.029540 Si / 1000 Ang^3
#
#
#
# Elastic Constant Matrix: (Units=GPa)
#
#
# Indices 1 2 3 4 5 6 
#
# 1 104.4768 17.0646 53.8981 0.0000 0.0000 0.0000
# 2 17.0646 110.5203 41.0818 0.0000 0.0000 0.0000
# 3 53.8981 41.0818 93.4014 0.0000 0.0000 0.0000
# 4 0.0000 0.0000 0.0000 34.1097 0.0000 0.0000
# 5 0.0000 0.0000 0.0000 0.0000 10.8481 0.0000
# 6 0.0000 0.0000 0.0000 0.0000 0.0000 12.1878
#
#
#
# Elastic Compliance Matrix: (Units=1/GPa)
#
#
# Indices 1 2 3 4 5 6 
#
# 1 0.013718 0.000986 -0.008350 0.000000 0.000000 0.000000
# 2 0.000986 0.010887 -0.005357 0.000000 0.000000 0.000000
# 3 -0.008350 -0.005357 0.017881 0.000000 0.000000 0.000000
# 4 0.000000 0.000000 0.000000 0.029317 0.000000 0.000000
# 5 0.000000 0.000000 0.000000 0.000000 0.092182 0.000000
# 6 0.000000 0.000000 0.000000 0.000000 0.000000 0.082049
#
#
# Mechanical properties :
#
#
# Convention : Reuss Voigt Hill
#
# Bulk Modulus (GPa) = 58.67331 59.16529 58.91930
# Shear Modulus (GPa) = 18.04021 24.51940 21.27981
#
# Velocity S-wave (km/s) = 3.08232 3.59345 3.34765
# Velocity P-wave (km/s) = 6.60055 6.95528 6.78024
#
# Compressibility (1/GPa) = 0.01704352
#
# Stress axis : x y z
#
# Youngs Moduli (GPa) = 72.89720 91.84960 55.92500
#
# Poissons Ratio (x) = -0.09052 0.46695
# Poissons Ratio (y) = -0.07184 0.29961
# Poissons Ratio (z) = 0.60866 0.49208
#
# Static dielectric constant tensor:
#      x y z
#    x 1.702010 0.000000 0.000000 
#    y 0.000000 1.693750 0.000000 
#    z 0.000000 0.000000 1.664780 
# 
# From -- ./inp_files/58506.got.cif
#   From: 2010.05.17/outbox.cif.g08.bks.cpg/sg74_30_cif.got.tgz:58506.got - 2010.06.03 17:57:02.
