data_PCOD9537758
_publ_section_title
;
Structure prediction by ZEFSAII (Michael W. Deem and Ramdas Pophale) SiO2 
 PCOD9537758
Probable space group: I M M A
;
_chemical_formula_sum "Si O2"
_cell_formula_units_Z 116
_cell_length_a 15.465028
_cell_length_b 20.019607
_cell_length_c 17.042682
_cell_angle_alpha 90.000000
_cell_angle_beta 90.000000
_cell_angle_gamma 90.000000
_cell_volume 5276.478816
_symmetry_space_group_name_H-M "I M M A"
_symmetry_group_IT_number 74
_symmetry_cell_setting 'orthorhombic'
loop_
_space_group_symop_operation_xyz
x,y,z
-x,1/2-y,z
x,-y,-z
-x,1/2+y,-z
-x,-y,-z
x,1/2+y,-z
-x,y,z
x,1/2-y,z
1/2+x,1/2+y,1/2+z
1/2-x,-y,1/2+z
1/2+x,1/2-y,1/2-z
1/2-x,y,1/2-z
1/2-x,1/2-y,1/2-z
1/2+x,y,1/2-z
1/2-x,1/2+y,1/2+z
1/2+x,-y,1/2+z
loop_
_atom_site_type_symbol
_atom_site_label
_atom_site_fract_x
_atom_site_fract_y
_atom_site_fract_z
Si Si1 0.500000 0.250000 0.048812
Si Si2 0.599693 0.386616 0.861969
Si Si3 0.352253 0.419128 0.266766
Si Si4 0.842682 0.570291 0.207780
Si Si5 0.402425 0.458939 0.102627
Si Si6 0.335338 0.155033 0.015771
Si Si7 0.853583 0.825566 0.914316
Si Si8 0.900466 0.931326 0.041583
O O1 0.421525 0.192710 0.045403
O O2 0.500000 0.374580 0.884667
O O3 0.606725 0.381729 0.767909
O O4 0.620491 0.465297 0.875652
O O5 0.657745 0.343082 0.920859
O O6 0.250000 0.418857 0.250000
O O7 0.376629 0.493600 0.295685
O O8 0.396155 0.415100 0.182075
O O9 0.367353 0.362846 0.331259
O O10 0.750000 0.568319 0.250000
O O11 0.845274 0.589625 0.117327
O O12 0.500000 0.459667 0.074134
O O13 0.343726 0.422668 0.039886
O O14 0.247484 0.176933 0.058134
O O15 0.885688 0.750000 0.911360
O O16 0.896968 0.872676 0.978532
O O17 0.000000 0.941948 0.066925
O O18 0.870197 0.000000 0.000000
#
# Coordination Sequence:
#
# PCOD9537758 Si02
#       8
#     4  16  16  16  16  16  16  16
#     4  12  24  40  58  86 136 180 232 260 310 422
#     4  10  20  34  61  91 122 153 200 271 329 379
#     4  10  20  37  57  91 128 165 213 262 324 394
#     4  10  20  38  64  99 126 160 210 274 334 396
#     4  10  20  35  58  90 123 157 208 267 325 392
#     4  12  22  39  61  88 128 176 218 264 326 400
#     4  12  26  42  64  94 130 176 225 278 329 394
#     4  11  24  44  72  97 131 180 231 279 336 401
#
# _framework density 21.984359000000001
#
# number of rings (size 3 to 8) (size 9 to 14) (size 15 to 20)
#    0.000    1.241    4.828    1.655    0.000    3.862 
#    1.241    0.000    1.517    1.241    0.000    0.000 
#    0.000    0.000    0.000    0.000    0.000    0.000 
#
# Total GULP energy -323253.822410 kJ/mol
# GULP energy per Si atom -5573.341766 kJ/mol
# Density = 2.193432 g / cm^3
# Si number density = 21.984359 Si / 1000 Ang^3
#
#
#
# Elastic Constant Matrix: (Units=GPa)
#
#
# Indices 1 2 3 4 5 6 
#
# 1 73.4993 2.8598 11.5561 0.0000 0.0000 0.0000
# 2 2.8598 53.6332 29.7266 0.0000 0.0000 0.0000
# 3 11.5561 29.7266 153.2096 0.0000 0.0000 0.0000
# 4 0.0000 0.0000 0.0000 0.1806 0.0000 0.0000
# 5 0.0000 0.0000 0.0000 0.0000 22.0201 0.0000
# 6 0.0000 0.0000 0.0000 0.0000 0.0000 93.4772
#
#
#
# Elastic Compliance Matrix: (Units=1/GPa)
#
#
# Indices 1 2 3 4 5 6 
#
# 1 0.013770 -0.000178 -0.001004 0.000000 0.000000 0.000000
# 2 -0.000178 0.020894 -0.004041 0.000002 0.000000 0.000000
# 3 -0.001004 -0.004041 0.007387 -0.000001 0.000000 0.000000
# 4 0.000000 0.000002 -0.000001 5.538115 0.000002 -0.000001
# 5 0.000000 0.000000 0.000000 0.000002 0.045413 0.000000
# 6 0.000000 0.000000 0.000000 -0.000001 0.000000 0.010698
#
#
# Mechanical properties :
#
#
# Convention : Reuss Voigt Hill
#
# Bulk Modulus (GPa) = 31.63921 40.95856 36.29888
# Shear Modulus (GPa) = 0.88382 38.88222 19.88302
#
# Velocity S-wave (km/s) = 0.63474 4.21007 3.01061
# Velocity P-wave (km/s) = 3.86783 6.50416 5.35090
#
# Compressibility (1/GPa) = 0.03160635
#
# Stress axis : x y z
#
# Youngs Moduli (GPa) = 72.61968 47.86022 135.37795
#
# Poissons Ratio (x) = 0.00850 0.13594
# Poissons Ratio (y) = 0.01290 0.54701
# Poissons Ratio (z) = 0.07292 0.19338
#
# Static dielectric constant tensor:
#      x y z
#    x 1.841130 0.000000 0.000000 
#    y 0.000000 1.801670 0.000000 
#    z 0.000000 0.000000 1.874660 
# 
# From -- ./inp_files/44240.got.cif
#   From: 2010.05.17/outbox.cif.g08.bks.cpg/sg74_23_cif.got.tgz:44240.got - 2010.06.03 17:57:02.
