data_PCOD9537921
_publ_section_title
;
Structure prediction by ZEFSAII (Michael W. Deem and Ramdas Pophale) SiO2 
 PCOD9537921
Probable space group: I M M A
;
_chemical_formula_sum "Si O2"
_cell_formula_units_Z 88
_cell_length_a 8.008615
_cell_length_b 16.895799
_cell_length_c 30.056089
_cell_angle_alpha 90.000000
_cell_angle_beta 90.000000
_cell_angle_gamma 90.000000
_cell_volume 4066.947991
_symmetry_space_group_name_H-M "I M M A"
_symmetry_group_IT_number 74
_symmetry_cell_setting 'orthorhombic'
loop_
_space_group_symop_operation_xyz
x,y,z
-x,1/2-y,z
x,-y,-z
-x,1/2+y,-z
-x,-y,-z
x,1/2+y,-z
-x,y,z
x,1/2-y,z
1/2+x,1/2+y,1/2+z
1/2-x,-y,1/2+z
1/2+x,1/2-y,1/2-z
1/2-x,y,1/2-z
1/2-x,1/2-y,1/2-z
1/2+x,y,1/2-z
1/2-x,1/2+y,1/2+z
1/2+x,-y,1/2+z
loop_
_atom_site_type_symbol
_atom_site_label
_atom_site_fract_x
_atom_site_fract_y
_atom_site_fract_z
Si Si1 0.692335 0.336324 0.807892
Si Si2 0.311708 0.004492 0.296766
Si Si3 0.689841 0.892352 0.868926
Si Si4 0.297794 0.001388 0.051351
Si Si5 0.297591 0.250000 0.196598
Si Si6 0.197146 0.663886 0.093530
O O1 0.500000 0.345441 0.793819
O O2 0.758043 0.250000 0.795235
O O3 0.801000 0.410287 0.793551
O O4 0.700208 0.336893 0.861146
O O5 0.500000 0.029000 0.306293
O O6 0.250000 0.038828 0.250000
O O7 0.195290 0.031530 0.336754
O O8 0.500000 0.867262 0.878696
O O9 0.762933 0.927335 0.915449
O O10 0.758320 0.824832 0.834727
O O11 0.500000 0.006229 0.052669
O O12 0.243261 0.915711 0.068650
O O13 0.243635 0.000000 0.000000
O O14 0.500000 0.250000 0.197773
O O15 0.250000 0.250000 0.250000
O O16 0.227183 0.750000 0.071090
O O17 0.000000 0.660730 0.104609
#
# Coordination Sequence:
#
# PCOD9537921 Si02
#       6
#    16  16  16  16   8  16
#     4  10  20  35  56  81 113 152 193 239 288 342
#     4  12  24  37  57  84 115 154 198 243 299 360
#     4  10  21  40  62  86 121 157 199 253 312 373
#     4  10  21  38  61  91 123 160 206 254 309 373
#     4  10  22  40  64  92 122 162 204 260 325 386
#     4  10  20  35  57  86 119 157 200 246 299 360
#
# _framework density 21.637847000000001
#
# number of rings (size 3 to 8) (size 9 to 14) (size 15 to 20)
#    0.000    1.636    1.818    3.273    0.000    5.091 
#    1.636    0.000    0.000    0.000    0.000    0.000 
#    0.000    0.000    0.000    0.000    0.000    0.000 
#
# Total GULP energy -245223.614571 kJ/mol
# GULP energy per Si atom -5573.263968 kJ/mol
# Density = 2.158860 g / cm^3
# Si number density = 21.637847 Si / 1000 Ang^3
#
#
#
# Elastic Constant Matrix: (Units=GPa)
#
#
# Indices 1 2 3 4 5 6 
#
# 1 35.8792 10.7528 11.7837 0.0000 0.0000 0.0000
# 2 10.7528 128.7373 67.8655 0.0000 0.0000 0.0000
# 3 11.7837 67.8655 158.2547 0.0000 0.0000 0.0000
# 4 0.0000 0.0000 0.0000 77.3718 0.0000 0.0000
# 5 0.0000 0.0000 0.0000 0.0000 16.7116 0.0000
# 6 0.0000 0.0000 0.0000 0.0000 0.0000 22.9858
#
#
#
# Elastic Compliance Matrix: (Units=1/GPa)
#
#
# Indices 1 2 3 4 5 6 
#
# 1 0.028839 -0.001650 -0.001440 0.000000 0.000000 0.000000
# 2 -0.001650 0.010131 -0.004222 0.000000 0.000000 0.000000
# 3 -0.001440 -0.004222 0.008237 0.000000 0.000000 0.000000
# 4 0.000000 0.000000 0.000000 0.012925 0.000000 0.000000
# 5 0.000000 0.000000 0.000000 0.000000 0.059839 0.000000
# 6 0.000000 0.000000 0.000000 0.000000 0.000000 0.043505
#
#
# Mechanical properties :
#
#
# Convention : Reuss Voigt Hill
#
# Bulk Modulus (GPa) = 30.69028 55.96391 43.32710
# Shear Modulus (GPa) = 26.46079 38.91176 32.68628
#
# Velocity S-wave (km/s) = 3.50078 4.24526 3.89087
# Velocity P-wave (km/s) = 5.52766 7.06751 6.34448
#
# Compressibility (1/GPa) = 0.03258360
#
# Stress axis : x y z
#
# Youngs Moduli (GPa) = 34.67575 98.70598 121.40951
#
# Poissons Ratio (x) = 0.16284 0.17482
# Poissons Ratio (y) = 0.05720 0.51256
# Poissons Ratio (z) = 0.04993 0.41671
#
# Static dielectric constant tensor:
#      x y z
#    x 1.776450 0.000000 0.000000 
#    y 0.000000 1.842290 0.000000 
#    z 0.000000 0.000000 1.803590 
# 
# From -- ./inp_files/70298.got.cif
#   From: 2010.05.17/outbox.cif.g08.bks.cpg/sg74_36_cif.got.tgz:70298.got - 2010.06.03 17:57:02.
