data_PCOD9537004
_publ_section_title
;
Structure prediction by ZEFSAII (Michael W. Deem and Ramdas Pophale) SiO2 
 PCOD9537004
Probable space group: I M M A
;
_chemical_formula_sum "Si O2"
_cell_formula_units_Z 80
_cell_length_a 9.848618
_cell_length_b 14.046177
_cell_length_c 28.026636
_cell_angle_alpha 90.000000
_cell_angle_beta 90.000000
_cell_angle_gamma 90.000000
_cell_volume 3877.076788
_symmetry_space_group_name_H-M "I M M A"
_symmetry_group_IT_number 74
_symmetry_cell_setting 'orthorhombic'
loop_
_space_group_symop_operation_xyz
x,y,z
-x,1/2-y,z
x,-y,-z
-x,1/2+y,-z
-x,-y,-z
x,1/2+y,-z
-x,y,z
x,1/2-y,z
1/2+x,1/2+y,1/2+z
1/2-x,-y,1/2+z
1/2+x,1/2-y,1/2-z
1/2-x,y,1/2-z
1/2-x,1/2-y,1/2-z
1/2+x,y,1/2-z
1/2-x,1/2+y,1/2+z
1/2+x,-y,1/2+z
loop_
_atom_site_type_symbol
_atom_site_label
_atom_site_fract_x
_atom_site_fract_y
_atom_site_fract_z
Si Si1 0.152009 0.140749 0.816894
Si Si2 0.662558 0.034376 0.206415
Si Si3 0.221257 0.852763 0.415154
Si Si4 0.347304 0.610463 0.514971
Si Si5 0.651343 0.429640 0.098885
O O1 0.170021 0.250000 0.801366
O O2 0.271379 0.071083 0.800150
O O3 0.162942 0.140449 0.874538
O O4 0.000000 0.108818 0.802943
O O5 0.500000 0.032016 0.214371
O O6 0.750000 0.077022 0.250000
O O7 0.684898 0.082814 0.154754
O O8 0.152249 0.750000 0.404938
O O9 0.277341 0.847281 0.468381
O O10 0.149031 0.955067 0.409990
O O11 0.355143 0.500000 0.500000
O O12 0.500000 0.644475 0.522504
O O13 0.257618 0.615380 0.562458
O O14 0.500000 0.393260 0.089477
#
# Coordination Sequence:
#
# PCOD9537004 Si02
#       5
#    16  16  16  16  16
#     4   9  17  29  44  61  84 115 147 179 215 252
#     4  10  20  32  46  62  80 106 142 184 225 263
#     4   9  17  28  45  69  94 120 153 189 219 252
#     4   9  17  28  44  65  88 118 152 182 217 261
#     4   9  19  33  46  63  89 119 150 185 225 268
#
# _framework density 20.634101000000001
#
# number of rings (size 3 to 8) (size 9 to 14) (size 15 to 20)
#    0.000    2.800    0.000    1.200    0.000   11.600 
#    0.000    4.000    0.000    0.000    0.000    0.000 
#    0.000    0.800    0.000    1.600    0.000    1.800 
#
# Total GULP energy -222764.273047 kJ/mol
# GULP energy per Si atom -5569.106826 kJ/mol
# Density = 2.058714 g / cm^3
# Si number density = 20.634101 Si / 1000 Ang^3
#
#
#
# Elastic Constant Matrix: (Units=GPa)
#
#
# Indices 1 2 3 4 5 6 
#
# 1 127.2698 -11.0293 77.0595 0.0000 0.0000 0.0000
# 2 -11.0293 21.3608 -1.2760 0.0000 0.0000 0.0000
# 3 77.0595 -1.2760 174.3104 0.0000 0.0000 0.0000
# 4 0.0000 0.0000 0.0000 13.1215 0.0000 0.0000
# 5 0.0000 0.0000 0.0000 0.0000 18.6985 0.0000
# 6 0.0000 0.0000 0.0000 0.0000 0.0000 -15.7121
#
#
#
# Elastic Compliance Matrix: (Units=1/GPa)
#
#
# Indices 1 2 3 4 5 6 
#
# 1 0.011354 0.005565 -0.004979 0.000000 0.000000 0.000000
# 2 0.005565 0.049563 -0.002097 0.000000 0.000000 0.000000
# 3 -0.004979 -0.002097 0.007923 0.000000 0.000000 0.000000
# 4 0.000000 0.000000 0.000000 0.076211 0.000000 0.000000
# 5 0.000000 0.000000 0.000000 0.000000 0.053480 0.000000
# 6 0.000000 0.000000 0.000000 0.000000 0.000000 -0.063645
#
#
# Mechanical properties :
#
#
# Convention : Reuss Voigt Hill
#
# Bulk Modulus (GPa) = 15.19353 50.27217 32.73285
# Shear Modulus (GPa) = 31.27995 20.43402 25.85699
#
# Velocity S-wave (km/s) = 3.89772 3.15032 3.54378
# Velocity P-wave (km/s) = 5.25696 6.13590 5.71336
#
# Compressibility (1/GPa) = 0.06581748
#
# Stress axis : x y z
#
# Youngs Moduli (GPa) = 88.07380 20.17638 126.22216
#
# Poissons Ratio (x) = -0.11228 0.62842
# Poissons Ratio (y) = -0.49014 0.26474
# Poissons Ratio (z) = 0.43849 0.04232
#
# Static dielectric constant tensor:
#      x y z
#    x 1.723300 0.000000 0.000000 
#    y 0.000000 1.766730 0.000000 
#    z 0.000000 0.000000 1.760670 
# 
# From -- ./inp_files/70141.got.cif
#   From: 2010.05.17/outbox.cif.g08.bks.cpg/sg74_36_cif.got.tgz:70141.got - 2010.06.03 17:57:02.
