data_PCOD9537934
_publ_section_title
;
Structure prediction by ZEFSAII (Michael W. Deem and Ramdas Pophale) SiO2 
 PCOD9537934
Probable space group: I M M A
;
_chemical_formula_sum "Si O2"
_cell_formula_units_Z 120
_cell_length_a 8.637766
_cell_length_b 27.788797
_cell_length_c 28.169384
_cell_angle_alpha 90.000000
_cell_angle_beta 90.000000
_cell_angle_gamma 90.000000
_cell_volume 6761.585296
_symmetry_space_group_name_H-M "I M M A"
_symmetry_group_IT_number 74
_symmetry_cell_setting 'orthorhombic'
loop_
_space_group_symop_operation_xyz
x,y,z
-x,1/2-y,z
x,-y,-z
-x,1/2+y,-z
-x,-y,-z
x,1/2+y,-z
-x,y,z
x,1/2-y,z
1/2+x,1/2+y,1/2+z
1/2-x,-y,1/2+z
1/2+x,1/2-y,1/2-z
1/2-x,y,1/2-z
1/2-x,1/2-y,1/2-z
1/2+x,y,1/2-z
1/2-x,1/2+y,1/2+z
1/2+x,-y,1/2+z
loop_
_atom_site_type_symbol
_atom_site_label
_atom_site_fract_x
_atom_site_fract_y
_atom_site_fract_z
Si Si1 0.813452 0.945364 0.989108
Si Si2 0.186677 0.304398 0.436004
Si Si3 0.186579 0.750000 0.197089
Si Si4 0.814105 0.602758 0.889478
Si Si5 0.815109 0.931441 0.302467
Si Si6 0.684693 0.852194 0.035304
Si Si7 0.685325 0.843839 0.361860
Si Si8 0.686550 0.037375 0.302237
O O1 0.773687 0.929812 0.935373
O O2 0.000000 0.941163 0.994650
O O3 0.732865 0.906833 0.023160
O O4 0.769387 0.000000 0.000000
O O5 0.239307 0.250000 0.426548
O O6 0.246922 0.344616 0.399812
O O7 0.233726 0.321256 0.489124
O O8 0.000000 0.305142 0.435025
O O9 0.250000 0.750000 0.250000
O O10 0.235310 0.702176 0.169028
O O11 0.000000 0.750000 0.198682
O O12 0.763642 0.575963 0.841703
O O13 0.000000 0.606416 0.888246
O O14 0.500000 0.933554 0.199808
O O15 0.750000 0.919033 0.250000
O O16 0.760565 0.891525 0.339638
O O17 0.748842 0.984179 0.314592
O O18 0.500000 0.848448 0.040127
O O19 0.764315 0.836963 0.083909
O O20 0.500000 0.848359 0.359145
O O21 0.500000 0.035477 0.300975
O O22 0.750000 0.049113 0.250000
#
# Coordination Sequence:
#
# PCOD9537934 Si02
#       8
#    16  16   8  16  16  16  16  16
#     4   9  18  33  53  76 106 146 181 217 270 324
#     4   9  19  36  57  80 110 145 180 222 273 329
#     4  10  24  42  60  80 102 136 182 232 287 336
#     4   9  19  34  53  81 110 142 183 224 272 324
#     4  11  22  37  56  81 108 142 183 224 274 327
#     4  10  21  35  52  80 110 142 181 222 269 321
#     4  11  23  39  57  79 107 140 182 231 279 331
#     4  10  20  35  56  83 115 149 184 224 269 321
#
# _framework density 17.747318
#
# number of rings (size 3 to 8) (size 9 to 14) (size 15 to 20)
#    0.000    2.133    0.000    3.600    2.800    4.267 
#    0.000    0.000    0.000    0.400    0.000    0.000 
#    0.000    0.000    0.000    0.000    0.000    0.000 
#
# Total GULP energy -335029.253943 kJ/mol
# GULP energy per Si atom -5583.820899 kJ/mol
# Density = 1.770692 g / cm^3
# Si number density = 17.747318 Si / 1000 Ang^3
#
#
#
# Elastic Constant Matrix: (Units=GPa)
#
#
# Indices 1 2 3 4 5 6 
#
# 1 49.4403 32.8429 32.7118 0.0000 0.0000 0.0000
# 2 32.8429 137.6840 79.9726 0.0000 0.0000 0.0000
# 3 32.7118 79.9726 116.2826 0.0000 0.0000 0.0000
# 4 0.0000 0.0000 0.0000 19.5461 0.0000 0.0000
# 5 0.0000 0.0000 0.0000 0.0000 30.5087 0.0000
# 6 0.0000 0.0000 0.0000 0.0000 0.0000 19.6751
#
#
#
# Elastic Compliance Matrix: (Units=1/GPa)
#
#
# Indices 1 2 3 4 5 6 
#
# 1 0.025678 -0.003213 -0.005014 0.000000 0.000000 0.000000
# 2 -0.003213 0.012496 -0.007690 0.000000 0.000000 0.000000
# 3 -0.005014 -0.007690 0.015299 0.000000 0.000000 0.000000
# 4 0.000000 0.000000 0.000000 0.051161 0.000000 0.000000
# 5 0.000000 0.000000 0.000000 0.000000 0.032778 0.000000
# 6 0.000000 0.000000 0.000000 0.000000 0.000000 0.050826
#
#
# Mechanical properties :
#
#
# Convention : Reuss Voigt Hill
#
# Bulk Modulus (GPa) = 46.21248 66.05128 56.13188
# Shear Modulus (GPa) = 21.99874 24.47129 23.23502
#
# Velocity S-wave (km/s) = 3.52455 3.71735 3.62223
# Velocity P-wave (km/s) = 6.53138 7.46480 7.01364
#
# Compressibility (1/GPa) = 0.02163918
#
# Stress axis : x y z
#
# Youngs Moduli (GPa) = 38.94362 80.02339 65.36254
#
# Poissons Ratio (x) = 0.25711 0.32772
# Poissons Ratio (y) = 0.12512 0.50267
# Poissons Ratio (z) = 0.19526 0.61542
#
# Static dielectric constant tensor:
#      x y z
#    x 1.601540 0.000000 0.000000 
#    y 0.000000 1.590420 0.000000 
#    z 0.000000 0.000000 1.589400 
# 
# From -- ./inp_files/65132.got.cif
#   From: 2010.05.17/outbox.cif.g08.bks.cpg/sg74_33_cif.got.tgz:65132.got - 2010.06.03 17:57:02.
