data_PCOD9537640
_publ_section_title
;
Structure prediction by ZEFSAII (Michael W. Deem and Ramdas Pophale) SiO2 
 PCOD9537640
Probable space group: I M M A
;
_chemical_formula_sum "Si O2"
_cell_formula_units_Z 72
_cell_length_a 16.681293
_cell_length_b 26.866138
_cell_length_c 7.806773
_cell_angle_alpha 90.000000
_cell_angle_beta 90.000000
_cell_angle_gamma 90.000000
_cell_volume 3498.698375
_symmetry_space_group_name_H-M "I M M A"
_symmetry_group_IT_number 74
_symmetry_cell_setting 'orthorhombic'
loop_
_space_group_symop_operation_xyz
x,y,z
-x,1/2-y,z
x,-y,-z
-x,1/2+y,-z
-x,-y,-z
x,1/2+y,-z
-x,y,z
x,1/2-y,z
1/2+x,1/2+y,1/2+z
1/2-x,-y,1/2+z
1/2+x,1/2-y,1/2-z
1/2-x,y,1/2-z
1/2-x,1/2-y,1/2-z
1/2+x,y,1/2-z
1/2-x,1/2+y,1/2+z
1/2+x,-y,1/2+z
loop_
_atom_site_type_symbol
_atom_site_label
_atom_site_fract_x
_atom_site_fract_y
_atom_site_fract_z
Si Si1 0.171214 0.394348 0.363300
Si Si2 0.407137 0.637645 0.534647
Si Si3 0.750801 0.194282 0.545245
Si Si4 0.869697 0.000000 0.500000
Si Si5 0.591889 0.961316 0.369569
O O1 0.250000 0.395417 0.250000
O O2 0.100298 0.386000 0.225849
O O3 0.185144 0.346692 0.482799
O O4 0.170069 0.447211 0.456259
O O5 0.500000 0.652265 0.502199
O O6 0.338585 0.679439 0.519856
O O7 0.377898 0.594516 0.400741
O O8 0.770898 0.250000 0.484904
O O9 0.750000 0.194036 0.750000
O O10 0.909333 0.984386 0.318962
O O11 0.500000 0.955387 0.427441
O O12 0.632962 0.000000 0.500000
#
# Coordination Sequence:
#
# PCOD9537640 Si02
#       5
#    16  16  16   8  16
#     4  10  23  37  57  89 120 162 203 253 308 368
#     4  10  21  39  61  90 126 159 205 257 306 372
#     4  10  22  43  65  86 118 161 209 260 318 374
#     4  12  21  34  60  86 123 168 210 246 296 366
#     4  10  20  34  54  84 123 161 195 242 302 363
#
# _framework density 20.579083000000001
#
# number of rings (size 3 to 8) (size 9 to 14) (size 15 to 20)
#    0.000    1.778    2.222    1.667    0.000    9.778 
#    0.000    1.111    0.000    1.333    0.000    0.000 
#    0.000    0.000    0.000    0.000    0.000    0.000 
#
# Total GULP energy -200487.454675 kJ/mol
# GULP energy per Si atom -5569.095963 kJ/mol
# Density = 2.053224 g / cm^3
# Si number density = 20.579083 Si / 1000 Ang^3
#
#
#
# Elastic Constant Matrix: (Units=GPa)
#
#
# Indices 1 2 3 4 5 6 
#
# 1 41.1964 16.5312 10.2348 -0.0001 -0.0001 0.0000
# 2 16.5312 156.3095 33.9937 -0.0001 0.0000 0.0000
# 3 10.2348 33.9937 86.3595 0.0003 0.0019 -0.0008
# 4 -0.0001 -0.0001 0.0003 30.4779 0.0006 0.0000
# 5 -0.0001 0.0000 0.0019 0.0006 27.8173 0.0001
# 6 0.0000 0.0000 -0.0008 0.0000 0.0001 21.8850
#
#
#
# Elastic Compliance Matrix: (Units=1/GPa)
#
#
# Indices 1 2 3 4 5 6 
#
# 1 0.025714 -0.002249 -0.002162 0.000000 0.000000 0.000000
# 2 -0.002249 0.007193 -0.002565 0.000000 0.000000 0.000000
# 3 -0.002162 -0.002565 0.012845 0.000000 -0.000001 0.000000
# 4 0.000000 0.000000 0.000000 0.032811 -0.000001 0.000000
# 5 0.000000 0.000000 -0.000001 -0.000001 0.035949 0.000000
# 6 0.000000 0.000000 0.000000 0.000000 0.000000 0.045693
#
#
# Mechanical properties :
#
#
# Convention : Reuss Voigt Hill
#
# Bulk Modulus (GPa) = 31.44667 45.04274 38.24471
# Shear Modulus (GPa) = 27.06249 30.90976 28.98612
#
# Velocity S-wave (km/s) = 3.63029 3.87977 3.75710
# Velocity P-wave (km/s) = 5.73464 6.48115 6.11929
#
# Compressibility (1/GPa) = 0.03179987
#
# Stress axis : x y z
#
# Youngs Moduli (GPa) = 38.88977 139.01917 77.84914
#
# Poissons Ratio (x) = 0.31269 0.16831
# Poissons Ratio (y) = 0.08747 0.19968
# Poissons Ratio (z) = 0.08408 0.35657
#
# Static dielectric constant tensor:
#      x y z
#    x 1.743020 0.000000 0.000000 
#    y 0.000000 1.825850 0.000000 
#    z 0.000000 0.000000 1.777670 
# 
# From -- ./inp_files/10667.got.cif
#   From: 2010.05.17/outbox.cif.g08.bks.cpg/sg74_6_cif.got.tgz:10667.got - 2010.06.03 17:57:02.
