data_PCOD9537694
_publ_section_title
;
Structure prediction by ZEFSAII (Michael W. Deem and Ramdas Pophale) SiO2 
 PCOD9537694
Probable space group: I M M A
;
_chemical_formula_sum "Si O2"
_cell_formula_units_Z 68
_cell_length_a 7.295129
_cell_length_b 17.248348
_cell_length_c 23.312819
_cell_angle_alpha 90.000000
_cell_angle_beta 90.000000
_cell_angle_gamma 90.000000
_cell_volume 2933.426923
_symmetry_space_group_name_H-M "I M M A"
_symmetry_group_IT_number 74
_symmetry_cell_setting 'orthorhombic'
loop_
_space_group_symop_operation_xyz
x,y,z
-x,1/2-y,z
x,-y,-z
-x,1/2+y,-z
-x,-y,-z
x,1/2+y,-z
-x,y,z
x,1/2-y,z
1/2+x,1/2+y,1/2+z
1/2-x,-y,1/2+z
1/2+x,1/2-y,1/2-z
1/2-x,y,1/2-z
1/2-x,1/2-y,1/2-z
1/2+x,y,1/2-z
1/2-x,1/2+y,1/2+z
1/2+x,-y,1/2+z
loop_
_atom_site_type_symbol
_atom_site_label
_atom_site_fract_x
_atom_site_fract_y
_atom_site_fract_z
Si Si1 0.719660 0.369456 0.623895
Si Si2 0.500000 0.250000 0.828089
Si Si3 0.720598 0.666016 0.508253
Si Si4 0.205025 0.961857 0.908920
Si Si5 0.782966 0.162467 0.316496
O O1 0.500000 0.364963 0.636019
O O2 0.839246 0.317985 0.666164
O O3 0.753159 0.337133 0.559468
O O4 0.780728 0.458952 0.617091
O O5 0.500000 0.665077 0.516608
O O6 0.786928 0.750000 0.530398
O O7 0.790759 0.588802 0.539696
O O8 0.196964 0.899567 0.858220
O O9 0.000000 0.984970 0.928485
O O10 0.715255 0.250000 0.326478
O O11 0.750000 0.144274 0.250000
O O12 0.000000 0.161376 0.326955
#
# Coordination Sequence:
#
# PCOD9537694 Si02
#       5
#    16   4  16  16  16
#     4  10  21  37  55  80 113 148 196 236 278 337
#     4  12  22  36  58  78 108 160 190 240 286 334
#     4   9  16  31  53  75 109 153 189 222 271 330
#     4  10  20  34  56  82 110 146 187 232 282 329
#     4  10  21  37  56  81 115 149 183 225 271 333
#
# _framework density 23.181080000000001
#
# number of rings (size 3 to 8) (size 9 to 14) (size 15 to 20)
#    0.000    2.118    1.176    2.471    1.647    5.176 
#    2.118    1.176    0.000    0.000    0.000    0.824 
#    0.000    0.000    0.000    0.000    0.000    0.000 
#
# Total GULP energy -189404.201617 kJ/mol
# GULP energy per Si atom -5570.711812 kJ/mol
# Density = 2.312832 g / cm^3
# Si number density = 23.181080 Si / 1000 Ang^3
#
#
#
# Elastic Constant Matrix: (Units=GPa)
#
#
# Indices 1 2 3 4 5 6 
#
# 1 122.9758 9.4232 -8.9812 0.0000 0.0000 0.0000
# 2 9.4232 100.3701 -10.0654 0.0000 0.0000 0.0000
# 3 -8.9812 -10.0654 21.2651 0.0000 0.0000 0.0000
# 4 0.0000 0.0000 0.0000 23.5940 0.0000 0.0000
# 5 0.0000 0.0000 0.0000 0.0000 -168.1298 0.0000
# 6 0.0000 0.0000 0.0000 0.0000 0.0000 -3.1679
#
#
#
# Elastic Compliance Matrix: (Units=1/GPa)
#
#
# Indices 1 2 3 4 5 6 
#
# 1 0.008410 -0.000455 0.003337 0.000000 0.000000 0.000000
# 2 -0.000455 0.010484 0.004770 0.000000 0.000000 0.000000
# 3 0.003337 0.004770 0.050693 0.000000 0.000000 0.000000
# 4 0.000000 0.000000 0.000000 0.042384 0.000000 0.000000
# 5 0.000000 0.000000 0.000000 0.000000 -0.005948 0.000000
# 6 0.000000 0.000000 0.000000 0.000000 0.000000 -0.315667
#
#
# Mechanical properties :
#
#
# Convention : Reuss Voigt Hill
#
# Bulk Modulus (GPa) = 11.77981 25.04048 18.41014
# Shear Modulus (GPa) = -25.42570 -12.59179 -19.00874
#
# Velocity S-wave (km/s) = -3.31544 -2.33318 -2.86669
# Velocity P-wave (km/s) = 3.09249 1.88872 1.73150
#
# Compressibility (1/GPa) = 0.08489105
#
# Stress axis : x y z
#
# Youngs Moduli (GPa) = 118.90284 95.38137 19.72674
#
# Poissons Ratio (x) = 0.04340 -0.06582
# Poissons Ratio (y) = 0.05410 -0.09410
# Poissons Ratio (z) = -0.39674 -0.45500
#
# Static dielectric constant tensor:
#      x y z
#    x 1.988190 0.000000 0.000000 
#    y 0.000000 1.893340 0.000000 
#    z 0.000000 0.000000 1.851820 
# 
# From -- ./inp_files/56632.got.cif
#   From: 2010.05.17/outbox.cif.g08.bks.cpg/sg74_29_cif.got.tgz:56632.got - 2010.06.03 17:57:02.
