data_PCOD9537903
_publ_section_title
;
Structure prediction by ZEFSAII (Michael W. Deem and Ramdas Pophale) SiO2 
 PCOD9537903
Probable space group: I M M A
;
_chemical_formula_sum "Si O2"
_cell_formula_units_Z 80
_cell_length_a 18.173978
_cell_length_b 27.340505
_cell_length_c 8.417432
_cell_angle_alpha 90.000000
_cell_angle_beta 90.000000
_cell_angle_gamma 90.000000
_cell_volume 4182.501898
_symmetry_space_group_name_H-M "I M M A"
_symmetry_group_IT_number 74
_symmetry_cell_setting 'orthorhombic'
loop_
_space_group_symop_operation_xyz
x,y,z
-x,1/2-y,z
x,-y,-z
-x,1/2+y,-z
-x,-y,-z
x,1/2+y,-z
-x,y,z
x,1/2-y,z
1/2+x,1/2+y,1/2+z
1/2-x,-y,1/2+z
1/2+x,1/2-y,1/2-z
1/2-x,y,1/2-z
1/2-x,1/2-y,1/2-z
1/2+x,y,1/2-z
1/2-x,1/2+y,1/2+z
1/2+x,-y,1/2+z
loop_
_atom_site_type_symbol
_atom_site_label
_atom_site_fract_x
_atom_site_fract_y
_atom_site_fract_z
Si Si1 0.662981 0.696003 0.784707
Si Si2 0.415108 0.592607 0.179525
Si Si3 0.332091 0.500767 0.687880
Si Si4 0.085078 0.097445 0.295023
Si Si5 0.587789 0.196681 0.871399
O O1 0.638873 0.750000 0.722817
O O2 0.750000 0.692511 0.750000
O O3 0.625051 0.645886 0.728600
O O4 0.638501 0.696738 0.971056
O O5 0.500000 0.582405 0.222428
O O6 0.365189 0.549616 0.244773
O O7 0.395701 0.648226 0.229573
O O8 0.410271 0.595388 0.987600
O O9 0.331163 0.500000 0.500000
O O10 0.250000 0.507232 0.750000
O O11 0.379785 0.547193 0.738901
O O12 0.000000 0.099952 0.250947
O O13 0.500000 0.192586 0.917631
O O14 0.596662 0.250000 0.793890
#
# Coordination Sequence:
#
# PCOD9537903 Si02
#       5
#    16  16  16  16  16
#     4   9  16  26  45  76 111 145 181 220 260 305
#     4   9  18  34  57  83 110 140 176 217 262 314
#     4  12  25  39  56  77 105 139 178 225 274 325
#     4  10  20  35  56  80 109 144 181 221 265 319
#     4   8  14  27  50  79 108 139 176 216 258 310
#
# _framework density 19.127307999999999
#
# number of rings (size 3 to 8) (size 9 to 14) (size 15 to 20)
#    0.000    2.400    0.000    4.800    0.000    6.000 
#    0.000    0.000    0.000    1.800    0.000    2.800 
#    0.000    0.000    0.000    0.000    0.000    0.000 
#
# Total GULP energy -222886.086862 kJ/mol
# GULP energy per Si atom -5572.152172 kJ/mol
# Density = 1.908377 g / cm^3
# Si number density = 19.127308 Si / 1000 Ang^3
#
#
#
# Elastic Constant Matrix: (Units=GPa)
#
#
# Indices 1 2 3 4 5 6 
#
# 1 102.7175 84.7317 24.8084 0.0000 0.0000 0.0000
# 2 84.7317 211.3807 37.1135 0.0000 0.0000 0.0000
# 3 24.8084 37.1135 17.5629 -0.0001 -0.0002 -0.0001
# 4 0.0000 0.0000 -0.0001 -18.6144 0.0000 0.0000
# 5 0.0000 0.0000 -0.0002 0.0000 6.8593 0.0000
# 6 0.0000 0.0000 -0.0001 0.0000 0.0000 49.4553
#
#
#
# Elastic Compliance Matrix: (Units=1/GPa)
#
#
# Indices 1 2 3 4 5 6 
#
# 1 0.016716 -0.004062 -0.015028 0.000000 0.000000 0.000000
# 2 -0.004062 0.008508 -0.012242 0.000000 0.000000 0.000000
# 3 -0.015028 -0.012242 0.104037 -0.000001 0.000003 0.000000
# 4 0.000000 0.000000 -0.000001 -0.053722 0.000000 0.000000
# 5 0.000000 0.000000 0.000003 0.000000 0.145788 0.000000
# 6 0.000000 0.000000 0.000000 0.000000 0.000000 0.020220
#
#
# Mechanical properties :
#
#
# Convention : Reuss Voigt Hill
#
# Bulk Modulus (GPa) = 15.01597 69.44093 42.22845
# Shear Modulus (GPa) = 15.31810 19.87386 17.59598
#
# Velocity S-wave (km/s) = 2.83300 3.22690 3.03634
# Velocity P-wave (km/s) = 4.30915 7.08994 5.86669
#
# Compressibility (1/GPa) = 0.06659578
#
# Stress axis : x y z
#
# Youngs Moduli (GPa) = 59.82396 117.53030 9.61200
#
# Poissons Ratio (x) = 0.47739 0.14445
# Poissons Ratio (y) = 0.24300 0.11767
# Poissons Ratio (z) = 0.89906 1.43884
#
# Static dielectric constant tensor:
#      x y z
#    x 1.637670 0.000000 0.000000 
#    y 0.000000 1.742860 0.000000 
#    z 0.000000 0.000000 1.662620 
# 
# From -- ./inp_files/10876.got.cif
#   From: 2010.05.17/outbox.cif.g08.bks.cpg/sg74_6_cif.got.tgz:10876.got - 2010.06.03 17:57:02.
