data_PCOD9537245
_publ_section_title
;
Structure prediction by ZEFSAII (Michael W. Deem and Ramdas Pophale) SiO2 
 PCOD9537245
Probable space group: I M M A
;
_chemical_formula_sum "Si O2"
_cell_formula_units_Z 96
_cell_length_a 7.506364
_cell_length_b 25.431296
_cell_length_c 22.761036
_cell_angle_alpha 90.000000
_cell_angle_beta 90.000000
_cell_angle_gamma 90.000000
_cell_volume 4345.003583
_symmetry_space_group_name_H-M "I M M A"
_symmetry_group_IT_number 74
_symmetry_cell_setting 'orthorhombic'
loop_
_space_group_symop_operation_xyz
x,y,z
-x,1/2-y,z
x,-y,-z
-x,1/2+y,-z
-x,-y,-z
x,1/2+y,-z
-x,y,z
x,1/2-y,z
1/2+x,1/2+y,1/2+z
1/2-x,-y,1/2+z
1/2+x,1/2-y,1/2-z
1/2-x,y,1/2-z
1/2-x,1/2-y,1/2-z
1/2+x,y,1/2-z
1/2-x,1/2+y,1/2+z
1/2+x,-y,1/2+z
loop_
_atom_site_type_symbol
_atom_site_label
_atom_site_fract_x
_atom_site_fract_y
_atom_site_fract_z
Si Si1 0.288500 0.555237 0.472060
Si Si2 0.286339 0.435274 0.183604
Si Si3 0.786641 0.336129 0.686303
Si Si4 0.796616 0.551803 0.338640
Si Si5 0.213912 0.135687 0.423916
Si Si6 0.781785 0.750000 0.540199
Si Si7 0.282091 0.250000 0.904597
O O1 0.227748 0.500000 0.500000
O O2 0.500000 0.551822 0.462526
O O3 0.201800 0.560383 0.408637
O O4 0.252407 0.602088 0.517454
O O5 0.500000 0.437910 0.175674
O O6 0.250000 0.417660 0.250000
O O7 0.215685 0.494888 0.175245
O O8 0.218160 0.396755 0.132512
O O9 0.750000 0.312238 0.750000
O O10 0.710730 0.395141 0.685598
O O11 0.722273 0.300596 0.632624
O O12 0.000000 0.339831 0.679216
O O13 0.000000 0.549410 0.316487
O O14 0.278143 0.195518 0.430359
O O15 0.000000 0.138444 0.418832
O O16 0.726308 0.750000 0.471925
O O17 0.000000 0.750000 0.540843
O O18 0.500000 0.250000 0.904627
#
# Coordination Sequence:
#
# PCOD9537245 Si02
#       7
#    16  16  16  16  16   8   8
#     4  11  22  34  53  84 116 146 179 224 280 330
#     4  10  21  35  54  79 108 143 182 225 276 332
#     4  10  20  33  51  74 104 142 183 223 264 313
#     4  10  20  35  54  78 108 145 186 226 270 324
#     4  10  20  37  60  84 110 144 187 229 275 332
#     4   9  18  35  61  85 105 137 184 237 278 325
#     4   9  17  31  50  75 103 135 176 223 272 315
#
# _framework density 22.094342999999999
#
# number of rings (size 3 to 8) (size 9 to 14) (size 15 to 20)
#    0.000    2.000    1.667    2.250    0.000    5.333 
#    0.000    0.833    0.000    1.000    0.000    0.000 
#    0.000    0.000    0.000    0.000    0.000    0.000 
#
# Total GULP energy -268279.892078 kJ/mol
# GULP energy per Si atom -5589.164418 kJ/mol
# Density = 2.204405 g / cm^3
# Si number density = 22.094343 Si / 1000 Ang^3
#
#
#
# Elastic Constant Matrix: (Units=GPa)
#
#
# Indices 1 2 3 4 5 6 
#
# 1 65.4994 12.4405 -4.4335 0.0000 0.0000 0.0000
# 2 12.4405 164.1423 54.4063 0.0000 0.0000 0.0000
# 3 -4.4335 54.4063 124.1685 0.0000 0.0000 0.0000
# 4 0.0000 0.0000 0.0000 11.7935 0.0000 0.0000
# 5 0.0000 0.0000 0.0000 0.0000 18.8340 0.0000
# 6 0.0000 0.0000 0.0000 0.0000 0.0000 1.9565
#
#
#
# Elastic Compliance Matrix: (Units=1/GPa)
#
#
# Indices 1 2 3 4 5 6 
#
# 1 0.015658 -0.001605 0.001262 0.000000 0.000000 0.000000
# 2 -0.001605 0.007292 -0.003252 0.000000 0.000000 0.000000
# 3 0.001262 -0.003252 0.009524 0.000000 0.000000 0.000000
# 4 0.000000 0.000000 0.000000 0.084792 0.000000 0.000000
# 5 0.000000 0.000000 0.000000 0.000000 0.053095 0.000000
# 6 0.000000 0.000000 0.000000 0.000000 0.000000 0.511127
#
#
# Mechanical properties :
#
#
# Convention : Reuss Voigt Hill
#
# Bulk Modulus (GPa) = 39.55223 53.18185 46.36704
# Shear Modulus (GPa) = 7.17251 25.94325 16.55788
#
# Velocity S-wave (km/s) = 1.80371 3.43038 2.74052
# Velocity P-wave (km/s) = 4.71998 6.30973 5.57184
#
# Compressibility (1/GPa) = 0.02528303
#
# Stress axis : x y z
#
# Youngs Moduli (GPa) = 63.86662 137.13730 105.00084
#
# Poissons Ratio (x) = 0.22012 -0.13255
# Poissons Ratio (y) = 0.10251 0.34150
# Poissons Ratio (z) = -0.08062 0.44602
#
# Static dielectric constant tensor:
#      x y z
#    x 1.814730 0.000000 0.000000 
#    y 0.000000 1.825810 0.000000 
#    z 0.000000 0.000000 1.788440 
# 
# From -- ./inp_files/57317.got.cif
#   From: 2010.05.17/outbox.cif.g08.bks.cpg/sg74_29_cif.got.tgz:57317.got - 2010.06.03 17:57:02.
