data_PCOD9537212
_publ_section_title
;
Structure prediction by ZEFSAII (Michael W. Deem and Ramdas Pophale) SiO2 
 PCOD9537212
Probable space group: I M M A
;
_chemical_formula_sum "Si O2"
_cell_formula_units_Z 56
_cell_length_a 19.306816
_cell_length_b 14.927314
_cell_length_c 7.224955
_cell_angle_alpha 90.000000
_cell_angle_beta 90.000000
_cell_angle_gamma 90.000000
_cell_volume 2082.224118
_symmetry_space_group_name_H-M "I M M A"
_symmetry_group_IT_number 74
_symmetry_cell_setting 'orthorhombic'
loop_
_space_group_symop_operation_xyz
x,y,z
-x,1/2-y,z
x,-y,-z
-x,1/2+y,-z
-x,-y,-z
x,1/2+y,-z
-x,y,z
x,1/2-y,z
1/2+x,1/2+y,1/2+z
1/2-x,-y,1/2+z
1/2+x,1/2-y,1/2-z
1/2-x,y,1/2-z
1/2-x,1/2-y,1/2-z
1/2+x,y,1/2-z
1/2-x,1/2+y,1/2+z
1/2+x,-y,1/2+z
loop_
_atom_site_type_symbol
_atom_site_label
_atom_site_fract_x
_atom_site_fract_y
_atom_site_fract_z
Si Si1 0.000000 0.886313 0.661239
Si Si2 0.846689 0.153253 0.385433
Si Si3 0.250000 0.005086 0.750000
Si Si4 0.500000 0.915518 0.286960
Si Si5 0.351138 0.649387 0.332052
O O1 0.075380 0.846122 0.693462
O O2 0.000000 0.894110 0.434943
O O3 0.000000 0.978152 0.775305
O O4 0.815764 0.250000 0.338406
O O5 0.808620 0.063268 0.322118
O O6 0.849957 0.149616 0.607967
O O7 0.293427 0.075620 0.620677
O O8 0.570117 0.877439 0.374908
O O9 0.334626 0.750000 0.395828
#
# Coordination Sequence:
#
# PCOD9537212 Si02
#       5
#     8  16   8   8  16
#     4   9  15  29  51  72  95 125 157 197 246 293
#     4  10  20  33  50  73 101 131 162 198 242 290
#     4  12  20  30  46  72 106 134 160 194 236 296
#     4   9  15  29  51  72  95 125 157 197 246 293
#     4  10  20  33  50  73 101 131 162 198 242 290
#
# _framework density 26.894318999999999
#
# number of rings (size 3 to 8) (size 9 to 14) (size 15 to 20)
#    0.000    2.000    2.857    2.571    0.000    3.429 
#    0.000    0.000    0.000    0.000    0.000   16.000 
#    0.000   36.571    0.000    0.000    0.000    0.000 
#
# Total GULP energy -156710.501870 kJ/mol
# GULP energy per Si atom -5596.803638 kJ/mol
# Density = 2.683311 g / cm^3
# Si number density = 26.894319 Si / 1000 Ang^3
#
#
#
# Elastic Constant Matrix: (Units=GPa)
#
#
# Indices 1 2 3 4 5 6 
#
# 1 236.6067 109.1239 17.7422 0.0000 0.0000 0.0000
# 2 109.1239 245.2790 19.0668 0.0000 0.0000 0.0000
# 3 17.7422 19.0668 99.5582 0.0000 0.0000 0.0000
# 4 0.0000 0.0000 0.0000 13.0657 0.0000 0.0000
# 5 0.0000 0.0000 0.0000 0.0000 24.8169 0.0000
# 6 0.0000 0.0000 0.0000 0.0000 0.0000 -10.2013
#
#
#
# Elastic Compliance Matrix: (Units=1/GPa)
#
#
# Indices 1 2 3 4 5 6 
#
# 1 0.005342 -0.002338 -0.000504 0.000000 0.000000 0.000000
# 2 -0.002338 0.005161 -0.000572 0.000000 0.000000 0.000000
# 3 -0.000504 -0.000572 0.010244 0.000000 0.000000 0.000000
# 4 0.000000 0.000000 0.000000 0.076536 0.000000 0.000000
# 5 0.000000 0.000000 0.000000 0.000000 0.040295 0.000000
# 6 0.000000 0.000000 0.000000 0.000000 0.000000 -0.098027
#
#
# Mechanical properties :
#
#
# Convention : Reuss Voigt Hill
#
# Bulk Modulus (GPa) = 71.83995 97.03441 84.43718
# Shear Modulus (GPa) = 98.00132 34.57032 66.28582
#
# Velocity S-wave (km/s) = 6.04306 3.58916 4.96994
# Velocity P-wave (km/s) = 8.68685 7.30303 8.02482
#
# Compressibility (1/GPa) = 0.01391983
#
# Stress axis : x y z
#
# Youngs Moduli (GPa) = 187.18357 193.74465 97.62008
#
# Poissons Ratio (x) = 0.45290 0.04924
# Poissons Ratio (y) = 0.43756 0.05583
# Poissons Ratio (z) = 0.09441 0.11080
#
# Static dielectric constant tensor:
#      x y z
#    x 2.032960 0.000000 0.000000 
#    y 0.000000 2.019340 0.000000 
#    z 0.000000 0.000000 2.149870 
# 
# From -- ./inp_files/8478.got.cif
#   From: 2010.05.17/outbox.cif.g08.bks.cpg/sg74_5_cif.got.tgz:8478.got - 2010.06.03 17:57:02.
