data_PCOD9537441
_publ_section_title
;
Structure prediction by ZEFSAII (Michael W. Deem and Ramdas Pophale) SiO2 
 PCOD9537441
Probable space group: I M M A
;
_chemical_formula_sum "Si O2"
_cell_formula_units_Z 72
_cell_length_a 14.448948
_cell_length_b 8.361594
_cell_length_c 23.685305
_cell_angle_alpha 90.000000
_cell_angle_beta 90.000000
_cell_angle_gamma 90.000000
_cell_volume 2861.569420
_symmetry_space_group_name_H-M "I M M A"
_symmetry_group_IT_number 74
_symmetry_cell_setting 'orthorhombic'
loop_
_space_group_symop_operation_xyz
x,y,z
-x,1/2-y,z
x,-y,-z
-x,1/2+y,-z
-x,-y,-z
x,1/2+y,-z
-x,y,z
x,1/2-y,z
1/2+x,1/2+y,1/2+z
1/2-x,-y,1/2+z
1/2+x,1/2-y,1/2-z
1/2-x,y,1/2-z
1/2-x,1/2-y,1/2-z
1/2+x,y,1/2-z
1/2-x,1/2+y,1/2+z
1/2+x,-y,1/2+z
loop_
_atom_site_type_symbol
_atom_site_label
_atom_site_fract_x
_atom_site_fract_y
_atom_site_fract_z
Si Si1 0.155775 0.424235 0.713338
Si Si2 0.609932 0.916119 0.085252
Si Si3 0.301575 0.250000 0.372253
Si Si4 0.097019 0.750000 0.761525
Si Si5 0.106572 0.250000 0.420148
Si Si6 0.611119 0.059016 0.564354
O O1 0.112866 0.250000 0.728061
O O2 0.250000 0.429591 0.750000
O O3 0.162365 0.421485 0.645320
O O4 0.102035 0.585145 0.727911
O O5 0.500000 0.909437 0.098629
O O6 0.635453 0.750000 0.056934
O O7 0.620416 0.079428 0.051917
O O8 0.322658 0.250000 0.306665
O O9 0.191718 0.250000 0.377791
O O10 0.343147 0.415070 0.398850
O O11 0.000000 0.750000 0.794517
O O12 0.000000 0.250000 0.398881
O O13 0.500000 0.054505 0.573915
O O14 0.638258 0.250000 0.571861
O O15 0.628339 0.000000 0.500000
#
# Coordination Sequence:
#
# PCOD9537441 Si02
#       6
#    16  16   8   8   8  16
#     4  10  20  34  52  73 103 148 200 246 286 333
#     4   9  17  31  51  72  97 141 201 249 281 322
#     4  12  24  38  58  89 122 149 187 232 287 346
#     4  12  24  34  49  78 120 156 184 232 302 357
#     4  10  21  36  56  81 114 153 196 246 292 331
#     4  10  20  38  66  94 118 145 180 220 264 328
#
# _framework density 25.161016
#
# number of rings (size 3 to 8) (size 9 to 14) (size 15 to 20)
#    0.000    1.778    1.111    4.000    0.000    4.000 
#    0.000    0.000    0.000    0.667    0.000    0.000 
#    0.000    0.000    0.000    0.000    0.000    0.000 
#
# Total GULP energy -200853.770911 kJ/mol
# GULP energy per Si atom -5579.271414 kJ/mol
# Density = 2.510375 g / cm^3
# Si number density = 25.161016 Si / 1000 Ang^3
#
#
#
# Elastic Constant Matrix: (Units=GPa)
#
#
# Indices 1 2 3 4 5 6 
#
# 1 107.3637 56.5338 32.3103 0.0000 0.0000 0.0000
# 2 56.5338 346.2703 80.2443 0.0000 0.0000 0.0000
# 3 32.3103 80.2443 102.3140 0.0000 0.0000 0.0000
# 4 0.0000 0.0000 0.0000 52.7738 0.0000 0.0000
# 5 0.0000 0.0000 0.0000 0.0000 -56.4352 0.0000
# 6 0.0000 0.0000 0.0000 0.0000 0.0000 1.0079
#
#
#
# Elastic Compliance Matrix: (Units=1/GPa)
#
#
# Indices 1 2 3 4 5 6 
#
# 1 0.010669 -0.001175 -0.002448 0.000000 0.000000 0.000000
# 2 -0.001175 0.003659 -0.002499 0.000000 0.000000 0.000000
# 3 -0.002448 -0.002499 0.012507 0.000000 0.000000 0.000000
# 4 0.000000 0.000000 0.000000 0.018949 0.000000 0.000000
# 5 0.000000 0.000000 0.000000 0.000000 -0.017719 0.000000
# 6 0.000000 0.000000 0.000000 0.000000 0.000000 0.992162
#
#
# Mechanical properties :
#
#
# Convention : Reuss Voigt Hill
#
# Bulk Modulus (GPa) = 68.53035 99.34720 83.93877
# Shear Modulus (GPa) = 4.82006 25.25993 15.04000
#
# Velocity S-wave (km/s) = 1.38558 3.17192 2.44754
# Velocity P-wave (km/s) = 5.46403 7.27909 6.43587
#
# Compressibility (1/GPa) = 0.01459208
#
# Stress axis : x y z
#
# Youngs Moduli (GPa) = 93.72612 273.32069 79.95816
#
# Poissons Ratio (x) = 0.32105 0.19575
# Poissons Ratio (y) = 0.11009 0.19978
# Poissons Ratio (z) = 0.22945 0.68291
#
# Static dielectric constant tensor:
#      x y z
#    x 1.966080 0.000000 0.000000 
#    y 0.000000 2.080430 0.000000 
#    z 0.000000 0.000000 2.025410 
# 
# From -- ./inp_files/66774.got.cif
#   From: 2010.05.17/outbox.cif.g08.bks.cpg/sg74_34_cif.got.tgz:66774.got - 2010.06.03 17:57:02.
