data_PCOD9537003
_publ_section_title
;
Structure prediction by ZEFSAII (Michael W. Deem and Ramdas Pophale) SiO2 
 PCOD9537003
Probable space group: I M M A
;
_chemical_formula_sum "Si O2"
_cell_formula_units_Z 88
_cell_length_a 20.418679
_cell_length_b 8.165804
_cell_length_c 31.138497
_cell_angle_alpha 90.000000
_cell_angle_beta 90.000000
_cell_angle_gamma 90.000000
_cell_volume 5191.875138
_symmetry_space_group_name_H-M "I M M A"
_symmetry_group_IT_number 74
_symmetry_cell_setting 'orthorhombic'
loop_
_space_group_symop_operation_xyz
x,y,z
-x,1/2-y,z
x,-y,-z
-x,1/2+y,-z
-x,-y,-z
x,1/2+y,-z
-x,y,z
x,1/2-y,z
1/2+x,1/2+y,1/2+z
1/2-x,-y,1/2+z
1/2+x,1/2-y,1/2-z
1/2-x,y,1/2-z
1/2-x,1/2-y,1/2-z
1/2+x,y,1/2-z
1/2-x,1/2+y,1/2+z
1/2+x,-y,1/2+z
loop_
_atom_site_type_symbol
_atom_site_label
_atom_site_fract_x
_atom_site_fract_y
_atom_site_fract_z
Si Si1 0.000000 0.052524 0.049857
Si Si2 0.707174 0.060555 0.368085
Si Si3 0.355672 0.051641 0.450797
Si Si4 0.707241 0.942440 0.209367
Si Si5 0.426671 0.941299 0.332772
Si Si6 0.571871 0.558329 0.763038
O O1 0.928350 0.992608 0.064460
O O2 0.000000 0.250000 0.053679
O O3 0.000000 0.000000 0.000000
O O4 0.727220 0.250000 0.368910
O O5 0.698848 0.996082 0.416721
O O6 0.753276 0.970203 0.334414
O O7 0.633131 0.045712 0.350322
O O8 0.356673 0.250000 0.449479
O O9 0.345632 0.000000 0.500000
O O10 0.698396 0.750000 0.216632
O O11 0.750000 0.007536 0.250000
O O12 0.635595 0.021229 0.209201
O O13 0.500000 0.996180 0.345762
O O14 0.418505 0.750000 0.344068
O O15 0.423381 0.957689 0.281133
O O16 0.500000 0.523902 0.782538
O O17 0.573168 0.750000 0.751236
#
# Coordination Sequence:
#
# PCOD9537003 Si02
#       6
#     8  16  16  16  16  16
#     4   8  14  28  46  64  88 118 156 200 246 288
#     4  11  22  33  50  72  95 128 168 209 252 295
#     4   9  19  33  49  68  92 123 161 206 251 296
#     4  11  22  35  51  72 101 134 167 203 245 292
#     4  10  20  32  45  66  96 129 167 207 247 293
#     4  10  20  34  53  74  96 127 165 205 247 290
#
# _framework density 16.949560000000002
#
# number of rings (size 3 to 8) (size 9 to 14) (size 15 to 20)
#    0.000    2.000    1.818    2.182    1.273    4.364 
#    0.000    0.000    0.000    0.000    0.000    0.000 
#    0.000    0.727    0.000    2.364    0.000    2.909 
#
# Total GULP energy -245411.647375 kJ/mol
# GULP energy per Si atom -5577.537440 kJ/mol
# Density = 1.691098 g / cm^3
# Si number density = 16.949560 Si / 1000 Ang^3
#
#
#
# Elastic Constant Matrix: (Units=GPa)
#
#
# Indices 1 2 3 4 5 6 
#
# 1 89.4161 9.3864 43.0343 0.0000 0.0000 0.0000
# 2 9.3864 31.7063 0.4103 0.0000 0.0000 0.0000
# 3 43.0343 0.4103 78.8364 0.0000 0.0000 0.0000
# 4 0.0000 0.0000 0.0000 18.1751 0.0000 0.0000
# 5 0.0000 0.0000 0.0000 0.0000 27.3289 0.0000
# 6 0.0000 0.0000 0.0000 0.0000 0.0000 9.0859
#
#
#
# Elastic Compliance Matrix: (Units=1/GPa)
#
#
# Indices 1 2 3 4 5 6 
#
# 1 0.015804 -0.004567 -0.008603 0.000000 0.000000 0.000000
# 2 -0.004567 0.032861 0.002322 0.000000 0.000000 0.000000
# 3 -0.008603 0.002322 0.017368 0.000000 0.000000 0.000000
# 4 0.000000 0.000000 0.000000 0.055020 0.000000 0.000000
# 5 0.000000 0.000000 0.000000 0.000000 0.036591 0.000000
# 6 0.000000 0.000000 0.000000 0.000000 0.000000 0.110060
#
#
# Mechanical properties :
#
#
# Convention : Reuss Voigt Hill
#
# Bulk Modulus (GPa) = 22.55432 33.95790 28.25611
# Shear Modulus (GPa) = 16.43760 20.72649 18.58204
#
# Velocity S-wave (km/s) = 3.11753 3.50070 3.31466
# Velocity P-wave (km/s) = 5.12780 6.03473 5.59966
#
# Compressibility (1/GPa) = 0.04433740
#
# Stress axis : x y z
#
# Youngs Moduli (GPa) = 63.27709 30.43078 57.57567
#
# Poissons Ratio (x) = 0.13898 0.49532
# Poissons Ratio (y) = 0.28900 -0.13369
# Poissons Ratio (z) = 0.54436 -0.07066
#
# Static dielectric constant tensor:
#      x y z
#    x 1.580440 0.000000 0.000000 
#    y 0.000000 1.585610 0.000000 
#    z 0.000000 0.000000 1.588320 
# 
# From -- ./inp_files/70473.got.cif
#   From: 2010.05.17/outbox.cif.g08.bks.cpg/sg74_36_cif.got.tgz:70473.got - 2010.06.03 17:57:02.
