data_PCOD9537886
_publ_section_title
;
Structure prediction by ZEFSAII (Michael W. Deem and Ramdas Pophale) SiO2 
 PCOD9537886
Probable space group: I M M A
;
_chemical_formula_sum "Si O2"
_cell_formula_units_Z 96
_cell_length_a 28.463769
_cell_length_b 7.960633
_cell_length_c 21.023877
_cell_angle_alpha 90.000000
_cell_angle_beta 90.000000
_cell_angle_gamma 90.000000
_cell_volume 4763.792275
_symmetry_space_group_name_H-M "I M M A"
_symmetry_group_IT_number 74
_symmetry_cell_setting 'orthorhombic'
loop_
_space_group_symop_operation_xyz
x,y,z
-x,1/2-y,z
x,-y,-z
-x,1/2+y,-z
-x,-y,-z
x,1/2+y,-z
-x,y,z
x,1/2-y,z
1/2+x,1/2+y,1/2+z
1/2-x,-y,1/2+z
1/2+x,1/2-y,1/2-z
1/2-x,y,1/2-z
1/2-x,1/2-y,1/2-z
1/2+x,y,1/2-z
1/2-x,1/2+y,1/2+z
1/2+x,-y,1/2+z
loop_
_atom_site_type_symbol
_atom_site_label
_atom_site_fract_x
_atom_site_fract_y
_atom_site_fract_z
Si Si1 0.724761 0.455949 0.815055
Si Si2 0.053686 0.047346 0.570696
Si Si3 0.291448 0.047790 0.571182
Si Si4 0.399195 0.049021 0.571410
Si Si5 0.117877 0.049432 0.685296
Si Si6 0.947364 0.051287 0.199895
O O1 0.724284 0.250000 0.816044
O O2 0.750000 0.506433 0.750000
O O3 0.755575 0.512494 0.875182
O O4 0.671042 0.515522 0.815462
O O5 0.052430 0.250000 0.574411
O O6 0.086806 0.982715 0.626786
O O7 0.000000 0.985763 0.578357
O O8 0.069931 0.000000 0.500000
O O9 0.292980 0.250000 0.575102
O O10 0.345219 0.987323 0.580577
O O11 0.276784 0.000000 0.500000
O O12 0.398995 0.250000 0.575738
O O13 0.413850 0.000000 0.500000
O O14 0.431431 0.981888 0.627762
O O15 0.121271 0.250000 0.676880
O O16 0.090574 0.020070 0.750980
O O17 0.948667 0.250000 0.210190
O O18 0.000000 0.982604 0.211319
#
# Coordination Sequence:
#
# PCOD9537886 Si02
#       6
#    16  16  16  16  16  16
#     4   9  17  31  52  77 104 135 173 214 256 305
#     4   9  18  32  50  73 101 133 170 211 255 305
#     4   9  18  33  54  80 109 141 176 215 260 311
#     4  10  20  36  59  83 109 143 180 219 263 314
#     4  10  20  35  56  79 104 139 181 221 262 313
#     4  11  24  39  55  78 108 140 176 222 274 325
#
# _framework density 20.152011000000002
#
# number of rings (size 3 to 8) (size 9 to 14) (size 15 to 20)
#    0.000    2.333    0.000    2.500    0.000    7.000 
#    0.000    2.500    0.000    2.000    0.000    0.000 
#    0.000    0.000    0.000    0.000    0.000    0.000 
#
# Total GULP energy -268033.746327 kJ/mol
# GULP energy per Si atom -5584.036382 kJ/mol
# Density = 2.010614 g / cm^3
# Si number density = 20.152011 Si / 1000 Ang^3
#
#
#
# Elastic Constant Matrix: (Units=GPa)
#
#
# Indices 1 2 3 4 5 6 
#
# 1 62.0024 0.9815 28.9280 0.0000 0.0000 0.0000
# 2 0.9815 13.1409 -10.6074 0.0000 0.0000 0.0000
# 3 28.9280 -10.6074 80.2117 0.0000 0.0000 0.0000
# 4 0.0000 0.0000 0.0000 30.3638 0.0000 0.0000
# 5 0.0000 0.0000 0.0000 0.0000 41.2187 0.0000
# 6 0.0000 0.0000 0.0000 0.0000 0.0000 8.8315
#
#
#
# Elastic Compliance Matrix: (Units=1/GPa)
#
#
# Indices 1 2 3 4 5 6 
#
# 1 0.020161 -0.008256 -0.008363 0.000000 0.000000 0.000000
# 2 -0.008256 0.088573 0.014691 0.000000 0.000000 0.000000
# 3 -0.008363 0.014691 0.017426 0.000000 0.000000 0.000000
# 4 0.000000 0.000000 0.000000 0.032934 0.000000 0.000000
# 5 0.000000 0.000000 0.000000 0.000000 0.024261 0.000000
# 6 0.000000 0.000000 0.000000 0.000000 0.000000 0.113231
#
#
# Mechanical properties :
#
#
# Convention : Reuss Voigt Hill
#
# Bulk Modulus (GPa) = 8.17639 21.55105 14.86372
# Shear Modulus (GPa) = 14.65374 25.15299 19.90337
#
# Velocity S-wave (km/s) = 2.69952 3.53677 3.14612
# Velocity P-wave (km/s) = 3.71250 5.23410 4.53753
#
# Compressibility (1/GPa) = 0.12230330
#
# Stress axis : x y z
#
# Youngs Moduli (GPa) = 49.60108 11.29008 57.38642
#
# Poissons Ratio (x) = 0.09321 0.47991
# Poissons Ratio (y) = 0.40952 -0.84305
# Poissons Ratio (z) = 0.41480 -0.16586
#
# Static dielectric constant tensor:
#      x y z
#    x 1.718540 0.000000 0.000000 
#    y 0.000000 1.769750 0.000000 
#    z 0.000000 0.000000 1.678960 
# 
# From -- ./inp_files/49075.got.cif
#   From: 2010.05.17/outbox.cif.g08.bks.cpg/sg74_25_cif.got.tgz:49075.got - 2010.06.03 17:57:02.
