data_PCOD9537144
_publ_section_title
;
Structure prediction by ZEFSAII (Michael W. Deem and Ramdas Pophale) SiO2 
 PCOD9537144
Probable space group: I M M A
;
_chemical_formula_sum "Si O2"
_cell_formula_units_Z 72
_cell_length_a 8.844942
_cell_length_b 22.215916
_cell_length_c 19.986344
_cell_angle_alpha 90.000000
_cell_angle_beta 90.000000
_cell_angle_gamma 90.000000
_cell_volume 3927.286387
_symmetry_space_group_name_H-M "I M M A"
_symmetry_group_IT_number 74
_symmetry_cell_setting 'orthorhombic'
loop_
_space_group_symop_operation_xyz
x,y,z
-x,1/2-y,z
x,-y,-z
-x,1/2+y,-z
-x,-y,-z
x,1/2+y,-z
-x,y,z
x,1/2-y,z
1/2+x,1/2+y,1/2+z
1/2-x,-y,1/2+z
1/2+x,1/2-y,1/2-z
1/2-x,y,1/2-z
1/2-x,1/2-y,1/2-z
1/2+x,y,1/2-z
1/2-x,1/2+y,1/2+z
1/2+x,-y,1/2+z
loop_
_atom_site_type_symbol
_atom_site_label
_atom_site_fract_x
_atom_site_fract_y
_atom_site_fract_z
Si Si1 0.817340 0.635423 0.585026
Si Si2 0.318284 0.750000 0.823884
Si Si3 0.818407 0.972902 0.678490
Si Si4 0.181385 0.887300 0.322032
Si Si5 0.819267 0.679441 0.051736
O O1 0.774828 0.690853 0.633785
O O2 0.771793 0.573432 0.620999
O O3 0.743840 0.645468 0.513216
O O4 0.000000 0.636074 0.577782
O O5 0.500000 0.750000 0.818030
O O6 0.250000 0.750000 0.750000
O O7 0.750000 0.954978 0.750000
O O8 0.000000 0.969936 0.683677
O O9 0.777138 0.042399 0.665525
O O10 0.250000 0.870530 0.250000
O O11 0.246898 0.847381 0.381356
O O12 0.000000 0.882852 0.319791
O O13 0.780223 0.750000 0.044958
O O14 0.000000 0.673966 0.054874
#
# Coordination Sequence:
#
# PCOD9537144 Si02
#       5
#    16   8  16  16  16
#     4  10  20  36  56  81 114 152 190 228 277 332
#     4  10  20  32  52  80 111 150 191 228 270 320
#     4   9  19  35  57  85 116 149 187 231 277 331
#     4  10  21  39  62  86 113 146 184 230 283 338
#     4  11  24  40  58  82 112 147 189 237 285 334
#
# _framework density 18.333269000000001
#
# number of rings (size 3 to 8) (size 9 to 14) (size 15 to 20)
#    0.000    2.000    1.111    2.000    0.000    5.333 
#    0.000    4.444    0.000    0.000    0.000    0.000 
#    0.000    0.000    0.000    0.000    0.000    0.000 
#
# Total GULP energy -201084.461206 kJ/mol
# GULP energy per Si atom -5585.679478 kJ/mol
# Density = 1.829154 g / cm^3
# Si number density = 18.333269 Si / 1000 Ang^3
#
#
#
# Elastic Constant Matrix: (Units=GPa)
#
#
# Indices 1 2 3 4 5 6 
#
# 1 26.6443 28.2840 42.6416 0.0000 0.0000 0.0000
# 2 28.2840 52.2850 58.4232 0.0000 0.0000 0.0000
# 3 42.6416 58.4232 154.3000 0.0000 0.0000 0.0000
# 4 0.0000 0.0000 0.0000 37.0711 0.0000 0.0000
# 5 0.0000 0.0000 0.0000 0.0000 41.5007 0.0000
# 6 0.0000 0.0000 0.0000 0.0000 0.0000 16.5221
#
#
#
# Elastic Compliance Matrix: (Units=1/GPa)
#
#
# Indices 1 2 3 4 5 6 
#
# 1 0.100247 -0.040341 -0.012429 0.000000 0.000000 0.000000
# 2 -0.040341 0.049386 -0.007551 0.000000 0.000000 0.000000
# 3 -0.012429 -0.007551 0.012775 0.000000 0.000000 0.000000
# 4 0.000000 0.000000 0.000000 0.026975 0.000000 0.000000
# 5 0.000000 0.000000 0.000000 0.000000 0.024096 0.000000
# 6 0.000000 0.000000 0.000000 0.000000 0.000000 0.060525
#
#
# Mechanical properties :
#
#
# Convention : Reuss Voigt Hill
#
# Bulk Modulus (GPa) = 23.94316 54.65854 39.30085
# Shear Modulus (GPa) = 12.23789 25.94414 19.09102
#
# Velocity S-wave (km/s) = 2.58645 3.76592 3.23047
# Velocity P-wave (km/s) = 4.69126 6.98485 5.94962
#
# Compressibility (1/GPa) = 0.04176558
#
# Stress axis : x y z
#
# Youngs Moduli (GPa) = 9.97538 20.24873 78.27947
#
# Poissons Ratio (x) = 0.81685 0.97296
# Poissons Ratio (y) = 0.40242 0.59107
# Poissons Ratio (z) = 0.12399 0.15289
#
# Static dielectric constant tensor:
#      x y z
#    x 1.615600 0.000000 0.000000 
#    y 0.000000 1.635710 0.000000 
#    z 0.000000 0.000000 1.583410 
# 
# From -- ./inp_files/39456.got.cif
#   From: 2010.05.17/outbox.cif.g08.bks.cpg/sg74_20_cif.got.tgz:39456.got - 2010.06.03 17:57:02.
