data_PCOD9537937
_publ_section_title
;
Structure prediction by ZEFSAII (Michael W. Deem and Ramdas Pophale) SiO2 
 PCOD9537937
Probable space group: I M M A
;
_chemical_formula_sum "Si O2"
_cell_formula_units_Z 56
_cell_length_a 27.042056
_cell_length_b 11.295428
_cell_length_c 7.571960
_cell_angle_alpha 90.000000
_cell_angle_beta 90.000000
_cell_angle_gamma 90.000000
_cell_volume 2312.867271
_symmetry_space_group_name_H-M "I M M A"
_symmetry_group_IT_number 74
_symmetry_cell_setting 'orthorhombic'
loop_
_space_group_symop_operation_xyz
x,y,z
-x,1/2-y,z
x,-y,-z
-x,1/2+y,-z
-x,-y,-z
x,1/2+y,-z
-x,y,z
x,1/2-y,z
1/2+x,1/2+y,1/2+z
1/2-x,-y,1/2+z
1/2+x,1/2-y,1/2-z
1/2-x,y,1/2-z
1/2-x,1/2-y,1/2-z
1/2+x,y,1/2-z
1/2-x,1/2+y,1/2+z
1/2+x,-y,1/2+z
loop_
_atom_site_type_symbol
_atom_site_label
_atom_site_fract_x
_atom_site_fract_y
_atom_site_fract_z
Si Si1 0.648447 0.621633 0.167070
Si Si2 0.393359 0.379373 0.214605
Si Si3 0.245487 0.123413 0.038358
Si Si4 0.500000 0.381449 0.385231
O O1 0.641876 0.750000 0.254909
O O2 0.634565 0.500742 0.266259
O O3 0.612705 0.623806 0.996444
O O4 0.702916 0.616282 0.074107
O O5 0.372913 0.250000 0.275565
O O6 0.449817 0.385615 0.272713
O O7 0.224213 0.250000 0.984580
O O8 0.250000 0.126850 0.250000
O O9 0.219864 0.000000 0.000000
O O10 0.500000 0.250000 0.475614
O O11 0.500000 0.500000 0.500000
#
# Coordination Sequence:
#
# PCOD9537937 Si02
#       4
#    16  16  16   8
#     4   9  17  31  54  80 103 133 177 225 271 324
#     4   9  17  32  54  77 104 139 177 222 273 326
#     4  10  20  35  56  83 116 150 188 239 293 343
#     4  10  22  37  52  76 112 147 181 226 281 334
#
# _framework density 24.212371000000001
#
# number of rings (size 3 to 8) (size 9 to 14) (size 15 to 20)
#    0.000    2.571    2.857    0.000    0.000    4.000 
#    0.000    2.857    0.000    0.000    0.000    0.000 
#    0.000    0.000    0.000    0.000    0.000    0.000 
#
# Total GULP energy -156117.703566 kJ/mol
# GULP energy per Si atom -5575.632270 kJ/mol
# Density = 2.415726 g / cm^3
# Si number density = 24.212371 Si / 1000 Ang^3
#
#
#
# Elastic Constant Matrix: (Units=GPa)
#
#
# Indices 1 2 3 4 5 6 
#
# 1 117.3126 75.3745 49.2887 0.0000 0.0000 0.0000
# 2 75.3745 357.7261 45.1815 0.0000 0.0000 0.0000
# 3 49.2887 45.1815 50.8521 0.0000 0.0000 0.0000
# 4 0.0000 0.0000 0.0000 3.6761 0.0000 0.0000
# 5 0.0000 0.0000 0.0000 0.0000 32.4741 0.0000
# 6 0.0000 0.0000 0.0000 0.0000 0.0000 122.2097
#
#
#
# Elastic Compliance Matrix: (Units=1/GPa)
#
#
# Indices 1 2 3 4 5 6 
#
# 1 0.015061 -0.001498 -0.013267 0.000000 0.000000 0.000000
# 2 -0.001498 0.003298 -0.001478 0.000000 0.000000 0.000000
# 3 -0.013267 -0.001478 0.033837 0.000000 0.000000 0.000000
# 4 0.000000 0.000000 0.000000 0.272030 0.000000 0.000000
# 5 0.000000 0.000000 0.000000 0.000000 0.030794 0.000000
# 6 0.000000 0.000000 0.000000 0.000000 0.000000 0.008183
#
#
# Mechanical properties :
#
#
# Convention : Reuss Voigt Hill
#
# Bulk Modulus (GPa) = 50.73605 96.17557 73.45581
# Shear Modulus (GPa) = 12.42982 55.40836 33.91909
#
# Velocity S-wave (km/s) = 2.26822 4.78895 3.74692
# Velocity P-wave (km/s) = 5.27824 8.38967 7.00879
#
# Compressibility (1/GPa) = 0.01970985
#
# Stress axis : x y z
#
# Youngs Moduli (GPa) = 66.39853 303.23948 29.55315
#
# Poissons Ratio (x) = 0.45416 0.39208
# Poissons Ratio (y) = 0.09945 0.04369
# Poissons Ratio (z) = 0.88090 0.44829
#
# Static dielectric constant tensor:
#      x y z
#    x 1.880360 0.000000 0.000000 
#    y 0.000000 2.068420 0.000000 
#    z 0.000000 0.000000 1.999150 
# 
# From -- ./inp_files/15779.got.cif
#   From: 2010.05.17/outbox.cif.g08.bks.cpg/sg74_8_cif.got.tgz:15779.got - 2010.06.03 17:57:02.
