data_PCOD9537939
_publ_section_title
;
Structure prediction by ZEFSAII (Michael W. Deem and Ramdas Pophale) SiO2 
 PCOD9537939
Probable space group: I M M A
;
_chemical_formula_sum "Si O2"
_cell_formula_units_Z 104
_cell_length_a 8.948117
_cell_length_b 21.007819
_cell_length_c 28.734069
_cell_angle_alpha 90.000000
_cell_angle_beta 90.000000
_cell_angle_gamma 90.000000
_cell_volume 5401.442426
_symmetry_space_group_name_H-M "I M M A"
_symmetry_group_IT_number 74
_symmetry_cell_setting 'orthorhombic'
loop_
_space_group_symop_operation_xyz
x,y,z
-x,1/2-y,z
x,-y,-z
-x,1/2+y,-z
-x,-y,-z
x,1/2+y,-z
-x,y,z
x,1/2-y,z
1/2+x,1/2+y,1/2+z
1/2-x,-y,1/2+z
1/2+x,1/2-y,1/2-z
1/2-x,y,1/2-z
1/2-x,1/2-y,1/2-z
1/2+x,y,1/2-z
1/2-x,1/2+y,1/2+z
1/2+x,-y,1/2+z
loop_
_atom_site_type_symbol
_atom_site_label
_atom_site_fract_x
_atom_site_fract_y
_atom_site_fract_z
Si Si1 0.823031 0.381105 0.878619
Si Si2 0.179758 0.017233 0.800055
Si Si3 0.669323 0.750000 0.513382
Si Si4 0.819411 0.750000 0.698659
Si Si5 0.668332 0.861510 0.944258
Si Si6 0.677216 0.389808 0.159897
Si Si7 0.166441 0.429682 0.980897
Si Si8 0.321544 0.750000 0.088396
O O1 0.774832 0.427587 0.836793
O O2 0.806510 0.420769 0.926530
O O3 0.739910 0.314102 0.886895
O O4 0.000000 0.367575 0.872668
O O5 0.250000 0.031066 0.750000
O O6 0.235999 0.947200 0.815732
O O7 0.000000 0.016397 0.797964
O O8 0.500000 0.750000 0.498235
O O9 0.711385 0.807924 0.546402
O O10 0.764927 0.750000 0.465571
O O11 0.750000 0.750000 0.750000
O O12 0.777483 0.682675 0.674056
O O13 0.000000 0.750000 0.700854
O O14 0.500000 0.835483 0.942370
O O15 0.695844 0.896155 0.895724
O O16 0.695752 0.902636 0.989987
O O17 0.500000 0.395887 0.170635
O O18 0.000000 0.399643 0.989488
O O19 0.153295 0.500000 0.000000
O O20 0.500000 0.750000 0.088573
#
# Coordination Sequence:
#
# PCOD9537939 Si02
#       8
#    16  16   8   8  16  16  16   8
#     4  10  22  41  64  90 125 167 209 258 321 390
#     4  11  24  43  68  95 124 163 210 262 322 387
#     4  12  23  37  57  83 122 169 209 247 301 369
#     4  10  21  38  58  82 115 159 208 259 315 367
#     4  11  22  36  56  85 119 157 203 251 299 353
#     4  10  22  40  61  88 127 169 209 261 319 374
#     4  10  20  35  56  83 118 161 202 243 298 367
#     4  12  24  39  64  95 125 160 207 264 318 380
#
# _framework density 19.254117000000001
#
# number of rings (size 3 to 8) (size 9 to 14) (size 15 to 20)
#    0.000    1.385    1.538    4.154    0.000    7.077 
#    0.000    1.154    0.000    0.000    0.000    0.000 
#    0.000    0.000    0.000    0.000    0.000    0.000 
#
# Total GULP energy -290050.445926 kJ/mol
# GULP energy per Si atom -5577.893191 kJ/mol
# Density = 1.921029 g / cm^3
# Si number density = 19.254117 Si / 1000 Ang^3
#
#
#
# Elastic Constant Matrix: (Units=GPa)
#
#
# Indices 1 2 3 4 5 6 
#
# 1 67.6736 44.8304 50.5434 0.0000 0.0000 0.0000
# 2 44.8304 103.5721 53.6413 0.0000 0.0000 0.0000
# 3 50.5434 53.6413 130.9497 0.0000 0.0000 0.0000
# 4 0.0000 0.0000 0.0000 26.5487 0.0000 0.0000
# 5 0.0000 0.0000 0.0000 0.0000 31.5543 0.0000
# 6 0.0000 0.0000 0.0000 0.0000 0.0000 26.1332
#
#
#
# Elastic Compliance Matrix: (Units=1/GPa)
#
#
# Indices 1 2 3 4 5 6 
#
# 1 0.024371 -0.007206 -0.006455 0.000000 0.000000 0.000000
# 2 -0.007206 0.014386 -0.003112 0.000000 0.000000 0.000000
# 3 -0.006455 -0.003112 0.011403 0.000000 0.000000 0.000000
# 4 0.000000 0.000000 0.000000 0.037667 0.000000 0.000000
# 5 0.000000 0.000000 0.000000 0.000000 0.031691 0.000000
# 6 0.000000 0.000000 0.000000 0.000000 0.000000 0.038266
#
#
# Mechanical properties :
#
#
# Convention : Reuss Voigt Hill
#
# Bulk Modulus (GPa) = 60.18730 66.69173 63.43952
# Shear Modulus (GPa) = 25.39795 27.05924 26.22860
#
# Velocity S-wave (km/s) = 3.63587 3.75290 3.69485
# Velocity P-wave (km/s) = 6.99667 7.31381 7.15700
#
# Compressibility (1/GPa) = 0.01661480
#
# Stress axis : x y z
#
# Youngs Moduli (GPa) = 41.03172 69.51394 87.69939
#
# Poissons Ratio (x) = 0.50091 0.56610
# Poissons Ratio (y) = 0.29567 0.27288
# Poissons Ratio (z) = 0.26486 0.21630
#
# Static dielectric constant tensor:
#      x y z
#    x 1.696870 0.000000 0.000000 
#    y 0.000000 1.709180 0.000000 
#    z 0.000000 0.000000 1.650250 
# 
# From -- ./inp_files/64541.got.cif
#   From: 2010.05.17/outbox.cif.g08.bks.cpg/sg74_33_cif.got.tgz:64541.got - 2010.06.03 17:57:02.
