data_PCOD9537044
_publ_section_title
;
Structure prediction by ZEFSAII (Michael W. Deem and Ramdas Pophale) SiO2 
 PCOD9537044
Probable space group: I M M A
;
_chemical_formula_sum "Si O2"
_cell_formula_units_Z 80
_cell_length_a 27.831167
_cell_length_b 8.930226
_cell_length_c 18.450020
_cell_angle_alpha 90.000000
_cell_angle_beta 90.000000
_cell_angle_gamma 90.000000
_cell_volume 4585.542347
_symmetry_space_group_name_H-M "I M M A"
_symmetry_group_IT_number 74
_symmetry_cell_setting 'orthorhombic'
loop_
_space_group_symop_operation_xyz
x,y,z
-x,1/2-y,z
x,-y,-z
-x,1/2+y,-z
-x,-y,-z
x,1/2+y,-z
-x,y,z
x,1/2-y,z
1/2+x,1/2+y,1/2+z
1/2-x,-y,1/2+z
1/2+x,1/2-y,1/2-z
1/2-x,y,1/2-z
1/2-x,1/2-y,1/2-z
1/2+x,y,1/2-z
1/2-x,1/2+y,1/2+z
1/2+x,-y,1/2+z
loop_
_atom_site_type_symbol
_atom_site_label
_atom_site_fract_x
_atom_site_fract_y
_atom_site_fract_z
Si Si1 0.915633 0.072862 0.575987
Si Si2 0.947655 0.569970 0.724396
Si Si3 0.691631 0.927511 0.132496
Si Si4 0.711548 0.429087 0.424481
Si Si5 0.844457 0.930424 0.779163
O O1 0.924370 0.250000 0.574713
O O2 0.858657 0.047778 0.590656
O O3 0.929516 0.000000 0.500000
O O4 0.941448 0.999538 0.644768
O O5 0.946400 0.750000 0.717879
O O6 0.900486 0.526668 0.769987
O O7 0.000000 0.526865 0.754275
O O8 0.700661 0.750000 0.135218
O O9 0.735500 0.009988 0.094227
O O10 0.683799 0.991973 0.213266
O O11 0.695349 0.500000 0.500000
O O12 0.712965 0.250000 0.430632
O O13 0.677753 0.469824 0.356545
O O14 0.840375 0.750000 0.770267
#
# Coordination Sequence:
#
# PCOD9537044 Si02
#       5
#    16  16  16  16  16
#     4  10  20  32  47  70 101 134 165 199 238 281
#     4   9  18  34  55  74  92 121 162 205 248 293
#     4  10  20  33  51  75 102 134 169 201 236 284
#     4  11  22  34  50  73 102 134 165 201 244 289
#     4   9  19  35  53  74 100 129 163 203 245 290
#
# _framework density 17.446137
#
# number of rings (size 3 to 8) (size 9 to 14) (size 15 to 20)
#    0.000    2.200    0.000    3.000    0.000    8.800 
#    0.000    0.000    0.000    0.600    0.000    0.000 
#    0.000    0.000    0.000    0.000    0.000    0.200 
#
# Total GULP energy -223330.465941 kJ/mol
# GULP energy per Si atom -5583.261649 kJ/mol
# Density = 1.740643 g / cm^3
# Si number density = 17.446137 Si / 1000 Ang^3
#
#
#
# Elastic Constant Matrix: (Units=GPa)
#
#
# Indices 1 2 3 4 5 6 
#
# 1 56.8742 16.6763 12.7222 0.0000 0.0000 0.0000
# 2 16.6763 20.9652 18.9301 0.0000 0.0000 0.0000
# 3 12.7222 18.9301 67.8931 0.0000 0.0000 0.0000
# 4 0.0000 0.0000 0.0000 28.8716 0.0000 0.0000
# 5 0.0000 0.0000 0.0000 0.0000 1.9934 0.0000
# 6 0.0000 0.0000 0.0000 0.0000 0.0000 15.1586
#
#
#
# Elastic Compliance Matrix: (Units=1/GPa)
#
#
# Indices 1 2 3 4 5 6 
#
# 1 0.022987 -0.019239 0.001057 0.000000 0.000000 0.000000
# 2 -0.019239 0.079849 -0.018659 0.000000 0.000000 0.000000
# 3 0.001057 -0.018659 0.019733 0.000000 0.000000 0.000000
# 4 0.000000 0.000000 0.000000 0.034636 0.000000 0.000000
# 5 0.000000 0.000000 0.000000 0.000000 0.501644 0.000000
# 6 0.000000 0.000000 0.000000 0.000000 0.000000 0.065969
#
#
# Mechanical properties :
#
#
# Convention : Reuss Voigt Hill
#
# Bulk Modulus (GPa) = 20.45490 26.93221 23.69356
# Shear Modulus (GPa) = 6.13650 15.69832 10.91741
#
# Velocity S-wave (km/s) = 1.87751 3.00295 2.50427
# Velocity P-wave (km/s) = 4.05587 5.24352 4.68746
#
# Compressibility (1/GPa) = 0.04888804
#
# Stress axis : x y z
#
# Youngs Moduli (GPa) = 43.50205 12.52366 50.67543
#
# Poissons Ratio (x) = 0.24094 -0.05355
# Poissons Ratio (y) = 0.83694 0.94553
# Poissons Ratio (z) = -0.04597 0.23367
#
# Static dielectric constant tensor:
#      x y z
#    x 1.615900 0.000000 0.000000 
#    y 0.000000 1.579370 0.000000 
#    z 0.000000 0.000000 1.562450 
# 
# From -- ./inp_files/39691.got.cif
#   From: 2010.05.17/outbox.cif.g08.bks.cpg/sg74_20_cif.got.tgz:39691.got - 2010.06.03 17:57:02.
