data_PCOD9537894
_publ_section_title
;
Structure prediction by ZEFSAII (Michael W. Deem and Ramdas Pophale) SiO2 
 PCOD9537894
Probable space group: I M M A
;
_chemical_formula_sum "Si O2"
_cell_formula_units_Z 80
_cell_length_a 9.040853
_cell_length_b 28.089911
_cell_length_c 18.185340
_cell_angle_alpha 90.000000
_cell_angle_beta 90.000000
_cell_angle_gamma 90.000000
_cell_volume 4618.289956
_symmetry_space_group_name_H-M "I M M A"
_symmetry_group_IT_number 74
_symmetry_cell_setting 'orthorhombic'
loop_
_space_group_symop_operation_xyz
x,y,z
-x,1/2-y,z
x,-y,-z
-x,1/2+y,-z
-x,-y,-z
x,1/2+y,-z
-x,y,z
x,1/2-y,z
1/2+x,1/2+y,1/2+z
1/2-x,-y,1/2+z
1/2+x,1/2-y,1/2-z
1/2-x,y,1/2-z
1/2-x,1/2-y,1/2-z
1/2+x,y,1/2-z
1/2-x,1/2+y,1/2+z
1/2+x,-y,1/2+z
loop_
_atom_site_type_symbol
_atom_site_label
_atom_site_fract_x
_atom_site_fract_y
_atom_site_fract_z
Si Si1 0.333302 0.042670 0.440167
Si Si2 0.178058 0.963359 0.170361
Si Si3 0.324629 0.106376 0.948541
Si Si4 0.168599 0.807896 0.822902
Si Si5 0.321359 0.194237 0.487884
O O1 0.500000 0.063033 0.434126
O O2 0.222015 0.079845 0.475641
O O3 0.341447 0.000000 0.500000
O O4 0.291041 0.015230 0.365995
O O5 0.250000 0.959635 0.250000
O O6 0.247407 0.923728 0.116319
O O7 0.000000 0.958057 0.172071
O O8 0.500000 0.106497 0.939224
O O9 0.257489 0.158968 0.956120
O O10 0.167068 0.750000 0.819746
O O11 0.250000 0.825302 0.750000
O O12 0.228161 0.818550 0.904262
O O13 0.000000 0.824438 0.820049
O O14 0.500000 0.188795 0.490710
O O15 0.289132 0.250000 0.500236
#
# Coordination Sequence:
#
# PCOD9537894 Si02
#       5
#    16  16  16  16  16
#     4   8  16  32  52  73  99 131 163 199 247 300
#     4  10  20  35  56  80 106 135 168 208 255 308
#     4  11  21  32  51  78 106 136 172 213 255 304
#     4   8  14  25  42  63  86 115 153 198 247 294
#     4   9  18  33  51  70  97 137 181 221 262 307
#
# _framework density 17.322429
#
# number of rings (size 3 to 8) (size 9 to 14) (size 15 to 20)
#    0.000    2.800    0.000    4.800    0.000    5.600 
#    0.000    3.000    0.000    0.600    0.000    0.000 
#    0.000    0.000    0.000    0.000    0.000    0.000 
#
# Total GULP energy -222845.743592 kJ/mol
# GULP energy per Si atom -5571.143590 kJ/mol
# Density = 1.728300 g / cm^3
# Si number density = 17.322429 Si / 1000 Ang^3
#
#
#
# Elastic Constant Matrix: (Units=GPa)
#
#
# Indices 1 2 3 4 5 6 
#
# 1 77.8738 44.4702 49.8512 0.0000 0.0000 0.0000
# 2 44.4702 69.3853 45.9584 0.0000 0.0000 0.0000
# 3 49.8512 45.9584 106.9386 -0.0001 0.0000 0.0000
# 4 0.0000 0.0000 -0.0001 21.7221 0.0000 0.0000
# 5 0.0000 0.0000 0.0000 0.0000 27.9675 0.0000
# 6 0.0000 0.0000 0.0000 0.0000 0.0000 18.7731
#
#
#
# Elastic Compliance Matrix: (Units=1/GPa)
#
#
# Indices 1 2 3 4 5 6 
#
# 1 0.022761 -0.010568 -0.006069 0.000000 0.000000 0.000000
# 2 -0.010568 0.025055 -0.005841 0.000000 0.000000 0.000000
# 3 -0.006069 -0.005841 0.014690 0.000000 0.000000 0.000000
# 4 0.000000 0.000000 0.000000 0.046036 0.000000 0.000000
# 5 0.000000 0.000000 0.000000 0.000000 0.035756 0.000000
# 6 0.000000 0.000000 0.000000 0.000000 0.000000 0.053268
#
#
# Mechanical properties :
#
#
# Convention : Reuss Voigt Hill
#
# Bulk Modulus (GPa) = 56.97912 59.41749 58.19830
# Shear Modulus (GPa) = 20.13111 21.28707 20.70909
#
# Velocity S-wave (km/s) = 3.41272 3.50933 3.46136
# Velocity P-wave (km/s) = 6.96373 7.12712 7.04590
#
# Compressibility (1/GPa) = 0.01755029
#
# Stress axis : x y z
#
# Youngs Moduli (GPa) = 43.93431 39.91286 68.07188
#
# Poissons Ratio (x) = 0.42182 0.41310
# Poissons Ratio (y) = 0.46432 0.39760
# Poissons Ratio (z) = 0.26662 0.23313
#
# Static dielectric constant tensor:
#      x y z
#    x 1.580620 0.000000 0.000000 
#    y 0.000000 1.604730 0.000000 
#    z 0.000000 0.000000 1.597410 
# 
# From -- ./inp_files/39731.got.cif
#   From: 2010.05.17/outbox.cif.g08.bks.cpg/sg74_20_cif.got.tgz:39731.got - 2010.06.03 17:57:02.
