data_PCOD9537630
_publ_section_title
;
Structure prediction by ZEFSAII (Michael W. Deem and Ramdas Pophale) SiO2 
 PCOD9537630
Probable space group: I M M A
;
_chemical_formula_sum "Si O2"
_cell_formula_units_Z 116
_cell_length_a 31.951433
_cell_length_b 8.193856
_cell_length_c 23.160120
_cell_angle_alpha 90.000000
_cell_angle_beta 90.000000
_cell_angle_gamma 90.000000
_cell_volume 6063.445430
_symmetry_space_group_name_H-M "I M M A"
_symmetry_group_IT_number 74
_symmetry_cell_setting 'orthorhombic'
loop_
_space_group_symop_operation_xyz
x,y,z
-x,1/2-y,z
x,-y,-z
-x,1/2+y,-z
-x,-y,-z
x,1/2+y,-z
-x,y,z
x,1/2-y,z
1/2+x,1/2+y,1/2+z
1/2-x,-y,1/2+z
1/2+x,1/2-y,1/2-z
1/2-x,y,1/2-z
1/2-x,1/2-y,1/2-z
1/2+x,y,1/2-z
1/2-x,1/2+y,1/2+z
1/2+x,-y,1/2+z
loop_
_atom_site_type_symbol
_atom_site_label
_atom_site_fract_x
_atom_site_fract_y
_atom_site_fract_z
Si Si1 0.000000 0.500000 0.500000
Si Si2 0.692024 0.053416 0.296138
Si Si3 0.451878 0.947036 0.436213
Si Si4 0.783893 0.947746 0.667942
Si Si5 0.601275 0.446392 0.672617
Si Si6 0.068262 0.561612 0.588678
Si Si7 0.339614 0.057966 0.938145
Si Si8 0.951384 0.446940 0.716791
O O1 0.963256 0.537222 0.451608
O O2 0.691800 0.250000 0.296171
O O3 0.735200 0.002601 0.326995
O O4 0.695077 0.002074 0.228856
O O5 0.649705 0.992144 0.324477
O O6 0.500000 0.002677 0.427794
O O7 0.452223 0.750000 0.434690
O O8 0.422424 0.006564 0.384593
O O9 0.438230 0.000000 0.500000
O O10 0.785518 0.750000 0.664902
O O11 0.808182 0.018258 0.613686
O O12 0.597948 0.250000 0.672694
O O13 0.577616 0.504358 0.730522
O O14 0.056187 0.750000 0.577868
O O15 0.116263 0.531467 0.572685
O O16 0.061778 0.521094 0.655701
O O17 0.347966 0.250000 0.939800
O O18 0.322756 0.000000 0.000000
O O19 0.947759 0.250000 0.712399
O O20 0.000000 0.485258 0.728548
#
# Coordination Sequence:
#
# PCOD9537630 Si02
#       8
#     4  16  16  16  16  16  16  16
#     4  12  26  40  60  78 114 160 204 236 286 328
#     4   9  19  36  60  86 112 145 179 222 278 335
#     4   9  18  34  55  78 108 146 188 227 270 324
#     4   9  19  39  62  84 112 144 182 226 278 333
#     4  10  20  34  54  83 116 149 184 229 280 334
#     4  12  25  41  60  82 113 152 197 242 285 331
#     4  12  25  40  60  85 112 146 188 232 282 333
#     4  10  21  36  55  80 114 153 194 237 285 334
#
# _framework density 19.131036999999999
#
# number of rings (size 3 to 8) (size 9 to 14) (size 15 to 20)
#    0.000    1.793    1.379    3.931    0.000    7.724 
#    0.000    2.069    0.000    4.138    0.000    0.000 
#    0.000    0.000    0.000    0.000    0.000    0.000 
#
# Total GULP energy -323530.640087 kJ/mol
# GULP energy per Si atom -5578.114484 kJ/mol
# Density = 1.908749 g / cm^3
# Si number density = 19.131037 Si / 1000 Ang^3
#
#
#
# Elastic Constant Matrix: (Units=GPa)
#
#
# Indices 1 2 3 4 5 6 
#
# 1 106.1427 5.0868 88.6874 0.0000 0.0000 0.0000
# 2 5.0868 18.9821 5.3728 0.0000 0.0000 0.0000
# 3 88.6874 5.3728 146.2374 0.0000 0.0000 0.0000
# 4 0.0000 0.0000 0.0000 22.0577 0.0000 0.0000
# 5 0.0000 0.0000 0.0000 0.0000 419.5035 0.0000
# 6 0.0000 0.0000 0.0000 0.0000 0.0000 20.7286
#
#
#
# Elastic Compliance Matrix: (Units=1/GPa)
#
#
# Indices 1 2 3 4 5 6 
#
# 1 0.019165 -0.001865 -0.011554 0.000000 0.000000 0.000000
# 2 -0.001865 0.053416 -0.000831 0.000000 0.000000 0.000000
# 3 -0.011554 -0.000831 0.013876 0.000000 0.000000 0.000000
# 4 0.000000 0.000000 0.000000 0.045336 0.000000 0.000000
# 5 0.000000 0.000000 0.000000 0.000000 0.002384 0.000000
# 6 0.000000 0.000000 0.000000 0.000000 0.000000 0.048243
#
#
# Mechanical properties :
#
#
# Convention : Reuss Voigt Hill
#
# Bulk Modulus (GPa) = 17.25462 52.18401 34.71932
# Shear Modulus (GPa) = 21.71655 103.93896 62.82776
#
# Velocity S-wave (km/s) = 3.37285 7.37889 5.73690
# Velocity P-wave (km/s) = 4.92005 9.99668 7.87847
#
# Compressibility (1/GPa) = 0.05795549
#
# Stress axis : x y z
#
# Youngs Moduli (GPa) = 52.17912 18.72083 72.06741
#
# Poissons Ratio (x) = 0.03492 0.83268
# Poissons Ratio (y) = 0.09734 0.05990
# Poissons Ratio (z) = 0.60289 0.01556
#
# Static dielectric constant tensor:
#      x y z
#    x 1.641370 0.000000 0.000000 
#    y 0.000000 1.701660 0.000000 
#    z 0.000000 0.000000 1.646710 
# 
# From -- ./inp_files/62768.got.cif
#   From: 2010.05.17/outbox.cif.g08.bks.cpg/sg74_32_cif.got.tgz:62768.got - 2010.06.03 17:57:02.
