data_PCOD9537210
_publ_section_title
;
Structure prediction by ZEFSAII (Michael W. Deem and Ramdas Pophale) SiO2 
 PCOD9537210
Probable space group: I M M A
;
_chemical_formula_sum "Si O2"
_cell_formula_units_Z 112
_cell_length_a 15.224467
_cell_length_b 27.503420
_cell_length_c 14.304800
_cell_angle_alpha 90.000000
_cell_angle_beta 90.000000
_cell_angle_gamma 90.000000
_cell_volume 5989.776095
_symmetry_space_group_name_H-M "I M M A"
_symmetry_group_IT_number 74
_symmetry_cell_setting 'orthorhombic'
loop_
_space_group_symop_operation_xyz
x,y,z
-x,1/2-y,z
x,-y,-z
-x,1/2+y,-z
-x,-y,-z
x,1/2+y,-z
-x,y,z
x,1/2-y,z
1/2+x,1/2+y,1/2+z
1/2-x,-y,1/2+z
1/2+x,1/2-y,1/2-z
1/2-x,y,1/2-z
1/2-x,1/2-y,1/2-z
1/2+x,y,1/2-z
1/2-x,1/2+y,1/2+z
1/2+x,-y,1/2+z
loop_
_atom_site_type_symbol
_atom_site_label
_atom_site_fract_x
_atom_site_fract_y
_atom_site_fract_z
Si Si1 0.768507 0.694132 0.995462
Si Si2 0.902513 0.438888 0.081481
Si Si3 0.601438 0.166127 0.331844
Si Si4 0.902188 0.042830 0.575701
Si Si5 0.781332 0.594868 0.083509
Si Si6 0.345685 0.519133 0.276755
Si Si7 0.599492 0.308452 0.121573
O O1 0.766216 0.750000 0.028682
O O2 0.836082 0.690660 0.908290
O O3 0.673530 0.679290 0.953532
O O4 0.793678 0.652402 0.069321
O O5 0.896838 0.391092 0.146100
O O6 0.888228 0.485493 0.145224
O O7 0.000000 0.439694 0.038726
O O8 0.830240 0.431704 0.002400
O O9 0.500000 0.183053 0.341669
O O10 0.627638 0.175120 0.225082
O O11 0.820597 0.079725 0.575985
O O12 0.898993 0.022010 0.681259
O O13 0.000000 0.062882 0.557458
O O14 0.886667 0.000000 0.500000
O O15 0.823950 0.571284 0.175969
O O16 0.250000 0.497912 0.250000
O O17 0.500000 0.326483 0.103408
O O18 0.596220 0.250000 0.123905
#
# Coordination Sequence:
#
# PCOD9537210 Si02
#       7
#    16  16  16  16  16  16  16
#     4  10  20  33  50  72  99 136 182 229 275 320
#     4  10  20  33  52  80 111 144 179 212 254 313
#     4   9  18  30  45  70 104 141 180 221 266 316
#     4  10  21  37  58  83 109 140 175 211 261 323
#     4  10  21  36  54  79 110 142 178 221 265 310
#     4  10  20  35  54  76 108 142 173 213 260 314
#     4   9  17  29  46  70 102 141 183 224 267 316
#
# _framework density 18.698529000000001
#
# number of rings (size 3 to 8) (size 9 to 14) (size 15 to 20)
#    0.000    2.286    0.000    3.429    0.000    7.714 
#    0.000    2.857    0.000    3.857    0.000    0.000 
#    0.000    0.000    0.000    0.000    0.000    0.000 
#
# Total GULP energy -312375.375912 kJ/mol
# GULP energy per Si atom -5578.131713 kJ/mol
# Density = 1.865597 g / cm^3
# Si number density = 18.698529 Si / 1000 Ang^3
#
#
#
# Elastic Constant Matrix: (Units=GPa)
#
#
# Indices 1 2 3 4 5 6 
#
# 1 73.6038 19.8207 15.4056 0.0000 0.0000 0.0000
# 2 19.8207 76.6196 36.0998 0.0001 0.0000 0.0000
# 3 15.4056 36.0998 71.1378 0.0001 0.0000 0.0000
# 4 0.0000 0.0001 0.0001 15.4375 0.0000 0.0000
# 5 0.0000 0.0000 0.0000 0.0000 13.1495 0.0000
# 6 0.0000 0.0000 0.0000 0.0000 0.0000 10.7941
#
#
#
# Elastic Compliance Matrix: (Units=1/GPa)
#
#
# Indices 1 2 3 4 5 6 
#
# 1 0.014750 -0.003037 -0.001653 0.000000 0.000000 0.000000
# 2 -0.003037 0.017778 -0.008364 0.000000 0.000000 0.000000
# 3 -0.001653 -0.008364 0.018660 0.000000 0.000000 0.000000
# 4 0.000000 0.000000 0.000000 0.064777 0.000000 0.000000
# 5 0.000000 0.000000 0.000000 0.000000 0.076049 0.000000
# 6 0.000000 0.000000 0.000000 0.000000 0.000000 0.092643
#
#
# Mechanical properties :
#
#
# Convention : Reuss Voigt Hill
#
# Bulk Modulus (GPa) = 39.87299 40.44594 40.15946
# Shear Modulus (GPa) = 15.66788 17.87856 16.77322
#
# Velocity S-wave (km/s) = 2.89783 3.09552 2.99830
# Velocity P-wave (km/s) = 5.70675 5.86974 5.78882
#
# Compressibility (1/GPa) = 0.02507963
#
# Stress axis : x y z
#
# Youngs Moduli (GPa) = 67.79644 56.24996 53.59159
#
# Poissons Ratio (x) = 0.17082 0.08860
# Poissons Ratio (y) = 0.20588 0.44824
# Poissons Ratio (z) = 0.11208 0.47047
#
# Static dielectric constant tensor:
#      x y z
#    x 1.679700 0.000000 0.000000 
#    y 0.000000 1.653920 0.000000 
#    z 0.000000 0.000000 1.626880 
# 
# From -- ./inp_files/33166.got.cif
#   From: 2010.05.17/outbox.cif.g08.bks.cpg/sg74_17_cif.got.tgz:33166.got - 2010.06.03 17:57:02.
