data_PCOD9537336
_publ_section_title
;
Structure prediction by ZEFSAII (Michael W. Deem and Ramdas Pophale) SiO2 
 PCOD9537336
Probable space group: I M M A
;
_chemical_formula_sum "Si O2"
_cell_formula_units_Z 68
_cell_length_a 7.776925
_cell_length_b 32.336876
_cell_length_c 14.609668
_cell_angle_alpha 90.000000
_cell_angle_beta 90.000000
_cell_angle_gamma 90.000000
_cell_volume 3674.060630
_symmetry_space_group_name_H-M "I M M A"
_symmetry_group_IT_number 74
_symmetry_cell_setting 'orthorhombic'
loop_
_space_group_symop_operation_xyz
x,y,z
-x,1/2-y,z
x,-y,-z
-x,1/2+y,-z
-x,-y,-z
x,1/2+y,-z
-x,y,z
x,1/2-y,z
1/2+x,1/2+y,1/2+z
1/2-x,-y,1/2+z
1/2+x,1/2-y,1/2-z
1/2-x,y,1/2-z
1/2-x,1/2-y,1/2-z
1/2+x,y,1/2-z
1/2-x,1/2+y,1/2+z
1/2+x,-y,1/2+z
loop_
_atom_site_type_symbol
_atom_site_label
_atom_site_fract_x
_atom_site_fract_y
_atom_site_fract_z
Si Si1 0.802217 0.180796 0.149534
Si Si2 0.198091 0.895738 0.538375
Si Si3 0.000000 0.250000 0.373532
Si Si4 0.697796 0.570039 0.355687
Si Si5 0.705626 0.023851 0.144398
O O1 0.750000 0.163891 0.250000
O O2 0.794267 0.144064 0.076199
O O3 0.654685 0.214293 0.128354
O O4 0.000000 0.197032 0.154852
O O5 0.203875 0.902734 0.429854
O O6 0.267802 0.938093 0.583370
O O7 0.000000 0.891381 0.568117
O O8 0.500000 0.580786 0.365021
O O9 0.750000 0.575357 0.250000
O O10 0.722673 0.521420 0.377971
O O11 0.500000 0.020505 0.133854
O O12 0.750000 0.032347 0.250000
#
# Coordination Sequence:
#
# PCOD9537336 Si02
#       5
#    16  16   4  16  16
#     4  12  24  39  63  91 122 159 194 231 291 352
#     4  11  22  38  55  83 120 151 196 247 291 340
#     4  12  24  44  62  90 124 156 188 240 284 366
#     4  11  22  36  55  79 110 154 203 246 291 340
#     4  10  20  33  53  77 113 159 196 238 287 337
#
# _framework density 18.508132
#
# number of rings (size 3 to 8) (size 9 to 14) (size 15 to 20)
#    0.000    0.941    2.353    7.059    0.000    8.471 
#    0.000    0.000    0.000    0.000    0.000    0.824 
#    0.000    0.000    0.000    0.000    0.000    0.000 
#
# Total GULP energy -189407.242500 kJ/mol
# GULP energy per Si atom -5570.801250 kJ/mol
# Density = 1.846601 g / cm^3
# Si number density = 18.508132 Si / 1000 Ang^3
#
#
#
# Elastic Constant Matrix: (Units=GPa)
#
#
# Indices 1 2 3 4 5 6 
#
# 1 119.3031 20.8702 12.1829 0.0000 0.0000 0.0000
# 2 20.8702 78.2821 64.2814 0.0000 0.0000 0.0000
# 3 12.1829 64.2814 74.7956 -0.0002 0.0000 0.0000
# 4 0.0000 0.0000 -0.0002 -19.2735 0.0000 0.0000
# 5 0.0000 0.0000 0.0000 0.0000 20.5485 0.0000
# 6 0.0000 0.0000 0.0000 0.0000 0.0000 12.4679
#
#
#
# Elastic Compliance Matrix: (Units=1/GPa)
#
#
# Indices 1 2 3 4 5 6 
#
# 1 0.008879 -0.004008 0.001999 0.000000 0.000000 0.000000
# 2 -0.004008 0.045218 -0.038209 0.000000 0.000000 0.000000
# 3 0.001999 -0.038209 0.045882 0.000000 0.000000 0.000000
# 4 0.000000 0.000000 0.000000 -0.051885 0.000000 0.000000
# 5 0.000000 0.000000 0.000000 0.000000 0.048665 0.000000
# 6 0.000000 0.000000 0.000000 0.000000 0.000000 0.080206
#
#
# Mechanical properties :
#
#
# Convention : Reuss Voigt Hill
#
# Bulk Modulus (GPa) = 51.17158 51.89443 51.53301
# Shear Modulus (GPa) = 18.94533 14.41834 16.68183
#
# Velocity S-wave (km/s) = 3.20288 2.79413 3.00546
# Velocity P-wave (km/s) = 6.43320 6.20558 6.32041
#
# Compressibility (1/GPa) = 0.01954210
#
# Stress axis : x y z
#
# Youngs Moduli (GPa) = 112.62379 22.11496 21.79502
#
# Poissons Ratio (x) = 0.08865 -0.04356
# Poissons Ratio (y) = 0.45144 0.83276
# Poissons Ratio (z) = -0.22510 0.84499
#
# Static dielectric constant tensor:
#      x y z
#    x 1.665170 0.000000 0.000000 
#    y 0.000000 1.614510 0.000000 
#    z 0.000000 0.000000 1.676600 
# 
# From -- ./inp_files/29058.got.cif
#   From: 2010.05.17/outbox.cif.g08.bks.cpg/sg74_15_cif.got.tgz:29058.got - 2010.06.03 17:57:02.
