data_PCOD9537946
_publ_section_title
;
Structure prediction by ZEFSAII (Michael W. Deem and Ramdas Pophale) SiO2 
 PCOD9537946
Probable space group: I M M A
;
_chemical_formula_sum "Si O2"
_cell_formula_units_Z 96
_cell_length_a 14.340946
_cell_length_b 20.848589
_cell_length_c 14.317224
_cell_angle_alpha 90.000000
_cell_angle_beta 90.000000
_cell_angle_gamma 90.000000
_cell_volume 4280.685171
_symmetry_space_group_name_H-M "I M M A"
_symmetry_group_IT_number 74
_symmetry_cell_setting 'orthorhombic'
loop_
_space_group_symop_operation_xyz
x,y,z
-x,1/2-y,z
x,-y,-z
-x,1/2+y,-z
-x,-y,-z
x,1/2+y,-z
-x,y,z
x,1/2-y,z
1/2+x,1/2+y,1/2+z
1/2-x,-y,1/2+z
1/2+x,1/2-y,1/2-z
1/2-x,y,1/2-z
1/2-x,1/2-y,1/2-z
1/2+x,y,1/2-z
1/2-x,1/2+y,1/2+z
1/2+x,-y,1/2+z
loop_
_atom_site_type_symbol
_atom_site_label
_atom_site_fract_x
_atom_site_fract_y
_atom_site_fract_z
Si Si1 0.228101 0.389588 0.145773
Si Si2 0.888746 0.642644 0.022451
Si Si3 0.791888 0.750000 0.141064
Si Si4 0.392613 0.423718 0.013169
Si Si5 0.387990 0.978916 0.356560
Si Si6 0.106033 0.891447 0.314206
Si Si7 0.901156 0.750000 0.355598
O O1 0.250000 0.366006 0.250000
O O2 0.165558 0.347666 0.074631
O O3 0.326511 0.403407 0.096300
O O4 0.171433 0.456978 0.149979
O O5 0.000000 0.652943 0.014591
O O6 0.847860 0.688974 0.102599
O O7 0.875118 0.568512 0.055327
O O8 0.692574 0.750000 0.086411
O O9 0.000000 0.750000 0.408239
O O10 0.500000 0.402022 0.025958
O O11 0.393318 0.500000 0.000000
O O12 0.349830 0.398200 0.915649
O O13 0.500000 0.992498 0.351720
O O14 0.358341 0.934171 0.268977
O O15 0.099118 0.815722 0.296989
O O16 0.000000 0.915077 0.328096
O O17 0.750000 0.750000 0.250000
#
# Coordination Sequence:
#
# PCOD9537946 Si02
#       7
#    16  16   8  16  16  16   8
#     4  12  25  39  61  91 126 177 235 285 332 393
#     4  11  25  45  67  97 138 182 228 281 345 411
#     4  12  25  41  71 106 135 169 217 269 332 413
#     4  10  20  35  56  84 120 160 210 278 347 405
#     4  10  21  38  62  93 131 174 221 277 342 414
#     4   9  18  34  58  89 125 163 204 259 333 410
#     4  10  20  35  58  90 131 169 199 247 318 399
#
# _framework density 22.426316
#
# number of rings (size 3 to 8) (size 9 to 14) (size 15 to 20)
#    0.000    1.500    0.000    5.250    0.000    8.000 
#    0.000    0.417    0.000    0.000    0.000    2.333 
#    0.000    0.000    0.000    0.000    0.000    0.000 
#
# Total GULP energy -268044.621457 kJ/mol
# GULP energy per Si atom -5584.262947 kJ/mol
# Density = 2.237527 g / cm^3
# Si number density = 22.426316 Si / 1000 Ang^3
#
#
#
# Elastic Constant Matrix: (Units=GPa)
#
#
# Indices 1 2 3 4 5 6 
#
# 1 143.7275 6.7677 49.3040 0.0000 0.0000 -0.0001
# 2 6.7677 71.6254 24.9218 0.0000 0.0000 0.0000
# 3 49.3040 24.9218 164.5133 0.0001 0.0000 0.0000
# 4 0.0000 0.0000 0.0001 16.5925 0.0000 0.0000
# 5 0.0000 0.0000 0.0000 0.0000 34.1401 0.0000
# 6 -0.0001 0.0000 0.0000 0.0000 0.0000 -8.5417
#
#
#
# Elastic Compliance Matrix: (Units=1/GPa)
#
#
# Indices 1 2 3 4 5 6 
#
# 1 0.007755 0.000080 -0.002336 0.000000 0.000000 0.000000
# 2 0.000080 0.014739 -0.002257 0.000000 0.000000 0.000000
# 3 -0.002336 -0.002257 0.007121 0.000000 0.000000 0.000000
# 4 0.000000 0.000000 0.000000 0.060268 0.000000 0.000000
# 5 0.000000 0.000000 0.000000 0.000000 0.029291 0.000000
# 6 0.000000 0.000000 0.000000 0.000000 0.000000 -0.117073
#
#
# Mechanical properties :
#
#
# Convention : Reuss Voigt Hill
#
# Bulk Modulus (GPa) = 48.56958 60.20593 54.38775
# Shear Modulus (GPa) = 277.92894 28.36304 153.14599
#
# Velocity S-wave (km/s) = 11.14445 3.56015 8.27265
# Velocity P-wave (km/s) = 13.68587 6.61845 10.74958
#
# Compressibility (1/GPa) = 0.02058902
#
# Stress axis : x y z
#
# Youngs Moduli (GPa) = 128.94397 67.84622 140.43713
#
# Poissons Ratio (x) = -0.00544 0.32811
# Poissons Ratio (y) = -0.01034 0.31694
# Poissons Ratio (z) = 0.30126 0.15312
#
# Static dielectric constant tensor:
#      x y z
#    x 1.913420 0.000000 0.000000 
#    y 0.000000 1.854360 0.000000 
#    z 0.000000 0.000000 1.904300 
# 
# From -- ./inp_files/32460.got.cif
#   From: 2010.05.17/outbox.cif.g08.bks.cpg/sg74_17_cif.got.tgz:32460.got - 2010.06.03 17:57:02.
