data_PCOD9537487
_publ_section_title
;
Structure prediction by ZEFSAII (Michael W. Deem and Ramdas Pophale) SiO2 
 PCOD9537487
Probable space group: I M M A
;
_chemical_formula_sum "Si O2"
_cell_formula_units_Z 80
_cell_length_a 20.129119
_cell_length_b 10.867493
_cell_length_c 15.677524
_cell_angle_alpha 90.000000
_cell_angle_beta 90.000000
_cell_angle_gamma 90.000000
_cell_volume 3429.506346
_symmetry_space_group_name_H-M "I M M A"
_symmetry_group_IT_number 74
_symmetry_cell_setting 'orthorhombic'
loop_
_space_group_symop_operation_xyz
x,y,z
-x,1/2-y,z
x,-y,-z
-x,1/2+y,-z
-x,-y,-z
x,1/2+y,-z
-x,y,z
x,1/2-y,z
1/2+x,1/2+y,1/2+z
1/2-x,-y,1/2+z
1/2+x,1/2-y,1/2-z
1/2-x,y,1/2-z
1/2-x,1/2-y,1/2-z
1/2+x,y,1/2-z
1/2-x,1/2+y,1/2+z
1/2+x,-y,1/2+z
loop_
_atom_site_type_symbol
_atom_site_label
_atom_site_fract_x
_atom_site_fract_y
_atom_site_fract_z
Si Si1 0.500000 0.891626 0.930958
Si Si2 0.345744 0.000000 0.000000
Si Si3 0.605102 0.250000 0.722306
Si Si4 0.425836 0.979802 0.675276
Si Si5 0.855850 0.000000 0.000000
Si Si6 0.706704 0.750000 0.423850
Si Si7 0.140979 0.891103 0.663335
Si Si8 0.635158 0.250000 0.920476
O O1 0.500000 0.750000 0.962536
O O2 0.434676 0.906136 0.871603
O O3 0.500000 0.000000 0.000000
O O4 0.381955 0.873774 0.028782
O O5 0.315213 0.038285 0.092088
O O6 0.570844 0.374559 0.692585
O O7 0.674729 0.250000 0.670731
O O8 0.609493 0.250000 0.824538
O O9 0.500000 0.926309 0.688340
O O10 0.401174 0.960449 0.579716
O O11 0.368269 0.935430 0.740516
O O12 0.816289 0.123149 0.970274
O O13 0.785365 0.750000 0.419269
O O14 0.160845 0.750000 0.661741
#
# Coordination Sequence:
#
# PCOD9537487 Si02
#       8
#     8   8   8  16   8   8  16   8
#     4  10  20  34  52  77 116 168 204 235 290 365
#     4  12  23  37  62  89 125 166 205 257 310 372
#     4  10  22  40  66  92 126 162 212 265 315 381
#     4  11  22  40  64  95 129 167 205 254 317 385
#     4  10  24  44  68  93 125 162 211 269 318 378
#     4  10  23  45  66  93 121 161 216 272 327 371
#     4  11  22  36  53  85 125 164 204 243 298 370
#     4  12  23  41  66  91 123 169 212 269 324 370
#
# _framework density 23.326972999999999
#
# number of rings (size 3 to 8) (size 9 to 14) (size 15 to 20)
#    0.000    1.200    5.000    1.500    1.400    0.000 
#    1.800    1.000    0.000    1.200    0.000    0.000 
#    0.000    0.000    0.000    0.000    0.000    0.000 
#
# Total GULP energy -223342.418984 kJ/mol
# GULP energy per Si atom -5583.560475 kJ/mol
# Density = 2.327388 g / cm^3
# Si number density = 23.326973 Si / 1000 Ang^3
#
#
#
# Elastic Constant Matrix: (Units=GPa)
#
#
# Indices 1 2 3 4 5 6 
#
# 1 60.6121 -2.5565 9.5216 0.0000 0.0000 0.0000
# 2 -2.5565 113.2960 12.2785 0.0000 0.0000 0.0000
# 3 9.5216 12.2785 170.1027 0.0000 0.0000 0.0000
# 4 0.0000 0.0000 0.0000 38.1737 0.0000 0.0000
# 5 0.0000 0.0000 0.0000 0.0000 11.4769 0.0000
# 6 0.0000 0.0000 0.0000 0.0000 0.0000 5.7400
#
#
#
# Elastic Compliance Matrix: (Units=1/GPa)
#
#
# Indices 1 2 3 4 5 6 
#
# 1 0.016671 0.000481 -0.000968 0.000000 0.000000 0.000000
# 2 0.000481 0.008910 -0.000670 0.000000 0.000000 0.000000
# 3 -0.000968 -0.000670 0.005981 0.000000 0.000000 0.000000
# 4 0.000000 0.000000 0.000000 0.026196 0.000000 0.000000
# 5 0.000000 0.000000 0.000000 0.000000 0.087131 0.000000
# 6 0.000000 0.000000 0.000000 0.000000 0.000000 0.174216
#
#
# Mechanical properties :
#
#
# Convention : Reuss Voigt Hill
#
# Bulk Modulus (GPa) = 34.19015 42.49977 38.34496
# Shear Modulus (GPa) = 15.09807 32.72927 23.91367
#
# Velocity S-wave (km/s) = 2.54684 3.74982 3.20527
# Velocity P-wave (km/s) = 4.83087 6.08333 5.49291
#
# Compressibility (1/GPa) = 0.02924819
#
# Stress axis : x y z
#
# Youngs Moduli (GPa) = 59.98548 112.23457 167.18647
#
# Poissons Ratio (x) = -0.05399 0.16182
# Poissons Ratio (y) = -0.02886 0.11203
# Poissons Ratio (z) = 0.05806 0.07520
#
# Static dielectric constant tensor:
#      x y z
#    x 1.981980 0.000000 0.000000 
#    y 0.000000 1.867630 0.000000 
#    z 0.000000 0.000000 1.907940 
# 
# From -- ./inp_files/36229.got.cif
#   From: 2010.05.17/outbox.cif.g08.bks.cpg/sg74_19_cif.got.tgz:36229.got - 2010.06.03 17:57:02.
