data_PCOD9537492
_publ_section_title
;
Structure prediction by ZEFSAII (Michael W. Deem and Ramdas Pophale) SiO2 
 PCOD9537492
Probable space group: I M M A
;
_chemical_formula_sum "Si O2"
_cell_formula_units_Z 88
_cell_length_a 20.471403
_cell_length_b 7.809824
_cell_length_c 24.831999
_cell_angle_alpha 90.000000
_cell_angle_beta 90.000000
_cell_angle_gamma 90.000000
_cell_volume 3970.091689
_symmetry_space_group_name_H-M "I M M A"
_symmetry_group_IT_number 74
_symmetry_cell_setting 'orthorhombic'
loop_
_space_group_symop_operation_xyz
x,y,z
-x,1/2-y,z
x,-y,-z
-x,1/2+y,-z
-x,-y,-z
x,1/2+y,-z
-x,y,z
x,1/2-y,z
1/2+x,1/2+y,1/2+z
1/2-x,-y,1/2+z
1/2+x,1/2-y,1/2-z
1/2-x,y,1/2-z
1/2-x,1/2-y,1/2-z
1/2+x,y,1/2-z
1/2-x,1/2+y,1/2+z
1/2+x,-y,1/2+z
loop_
_atom_site_type_symbol
_atom_site_label
_atom_site_fract_x
_atom_site_fract_y
_atom_site_fract_z
Si Si1 0.570040 0.050089 0.824784
Si Si2 0.374674 0.040264 0.367682
Si Si3 0.757369 0.454860 0.058980
Si Si4 0.176592 0.951449 0.755693
Si Si5 0.391788 0.454838 0.059362
Si Si6 0.500000 0.543391 0.563592
O O1 0.500000 0.978205 0.805605
O O2 0.572151 0.250000 0.811476
O O3 0.633376 0.968519 0.797650
O O4 0.573034 0.029185 0.888936
O O5 0.377845 0.250000 0.368520
O O6 0.307698 0.984920 0.396532
O O7 0.366482 0.982303 0.305977
O O8 0.436185 0.982112 0.403268
O O9 0.753450 0.250000 0.063382
O O10 0.683391 0.520423 0.062377
O O11 0.783522 0.500000 0.000000
O O12 0.185621 0.750000 0.767030
O O13 0.250000 0.024721 0.750000
O O14 0.392582 0.250000 0.064339
O O15 0.417046 0.500000 0.000000
O O16 0.500000 0.750000 0.565841
O O17 0.500000 0.500000 0.500000
#
# Coordination Sequence:
#
# PCOD9537492 Si02
#       6
#    16  16  16  16  16   8
#     4  11  25  42  59  84 120 157 195 242 295 356
#     4   9  18  32  53  79 110 147 189 235 285 346
#     4   9  17  31  52  80 112 144 184 234 284 337
#     4  10  21  39  64  90 115 150 200 252 303 363
#     4  10  20  36  60  87 115 150 192 240 295 353
#     4  10  20  34  52  78 112 152 193 234 283 346
#
# _framework density 22.165734
#
# number of rings (size 3 to 8) (size 9 to 14) (size 15 to 20)
#    0.000    2.182    0.000    2.727    1.273    5.818 
#    0.000    1.818    0.000    0.000    0.000    0.000 
#    0.000    0.000    0.000    0.000    0.000    0.000 
#
# Total GULP energy -245664.139899 kJ/mol
# GULP energy per Si atom -5583.275907 kJ/mol
# Density = 2.211528 g / cm^3
# Si number density = 22.165734 Si / 1000 Ang^3
#
#
#
# Elastic Constant Matrix: (Units=GPa)
#
#
# Indices 1 2 3 4 5 6 
#
# 1 127.3478 2.9937 58.4668 0.0000 0.0000 0.0000
# 2 2.9937 27.5671 -9.0611 0.0000 0.0000 0.0000
# 3 58.4668 -9.0611 124.5609 0.0000 0.0000 0.0000
# 4 0.0000 0.0000 0.0000 25.4856 0.0000 0.0000
# 5 0.0000 0.0000 0.0000 0.0000 30.7579 0.0000
# 6 0.0000 0.0000 0.0000 0.0000 0.0000 5.5755
#
#
#
# Elastic Compliance Matrix: (Units=1/GPa)
#
#
# Indices 1 2 3 4 5 6 
#
# 1 0.010209 -0.002749 -0.004992 0.000000 0.000000 0.000000
# 2 -0.002749 0.037904 0.004048 0.000000 0.000000 0.000000
# 3 -0.004992 0.004048 0.010666 0.000000 0.000000 0.000000
# 4 0.000000 0.000000 0.000000 0.039238 0.000000 0.000000
# 5 0.000000 0.000000 0.000000 0.000000 0.032512 0.000000
# 6 0.000000 0.000000 0.000000 0.000000 0.000000 0.179355
#
#
# Mechanical properties :
#
#
# Convention : Reuss Voigt Hill
#
# Bulk Modulus (GPa) = 19.45835 42.69719 31.07777
# Shear Modulus (GPa) = 14.95208 27.50223 21.22716
#
# Velocity S-wave (km/s) = 2.60004 3.52626 3.09796
# Velocity P-wave (km/s) = 4.22034 5.99031 5.18146
#
# Compressibility (1/GPa) = 0.05139182
#
# Stress axis : x y z
#
# Youngs Moduli (GPa) = 97.95277 26.38233 93.75770
#
# Poissons Ratio (x) = 0.07254 0.46803
# Poissons Ratio (y) = 0.26932 -0.37952
# Poissons Ratio (z) = 0.48897 -0.10679
#
# Static dielectric constant tensor:
#      x y z
#    x 1.825640 0.000000 0.000000 
#    y 0.000000 1.814540 0.000000 
#    z 0.000000 0.000000 1.789640 
# 
# From -- ./inp_files/56982.got.cif
#   From: 2010.05.17/outbox.cif.g08.bks.cpg/sg74_29_cif.got.tgz:56982.got - 2010.06.03 17:57:02.
