data_PCOD9537199
_publ_section_title
;
Structure prediction by ZEFSAII (Michael W. Deem and Ramdas Pophale) SiO2 
 PCOD9537199
Probable space group: I M M A
;
_chemical_formula_sum "Si O2"
_cell_formula_units_Z 104
_cell_length_a 8.659331
_cell_length_b 26.598478
_cell_length_c 24.372641
_cell_angle_alpha 90.000000
_cell_angle_beta 90.000000
_cell_angle_gamma 90.000000
_cell_volume 5613.629150
_symmetry_space_group_name_H-M "I M M A"
_symmetry_group_IT_number 74
_symmetry_cell_setting 'orthorhombic'
loop_
_space_group_symop_operation_xyz
x,y,z
-x,1/2-y,z
x,-y,-z
-x,1/2+y,-z
-x,-y,-z
x,1/2+y,-z
-x,y,z
x,1/2-y,z
1/2+x,1/2+y,1/2+z
1/2-x,-y,1/2+z
1/2+x,1/2-y,1/2-z
1/2-x,y,1/2-z
1/2-x,1/2-y,1/2-z
1/2+x,y,1/2-z
1/2-x,1/2+y,1/2+z
1/2+x,-y,1/2+z
loop_
_atom_site_type_symbol
_atom_site_label
_atom_site_fract_x
_atom_site_fract_y
_atom_site_fract_z
Si Si1 0.814229 0.431833 0.190264
Si Si2 0.185877 0.660049 0.883827
Si Si3 0.813380 0.452204 0.810641
Si Si4 0.180470 0.868743 0.102293
Si Si5 0.185000 0.691374 0.498092
Si Si6 0.684779 0.750000 0.810977
Si Si7 0.325455 0.190190 0.806187
O O1 0.750000 0.416554 0.250000
O O2 0.768027 0.393699 0.142141
O O3 0.768117 0.489648 0.179707
O O4 0.000000 0.430677 0.193819
O O5 0.249863 0.672984 0.943710
O O6 0.251858 0.701746 0.842905
O O7 0.000000 0.662706 0.885215
O O8 0.750000 0.438970 0.750000
O O9 0.763342 0.416757 0.861475
O O10 0.000000 0.448615 0.808162
O O11 0.212248 0.824387 0.145362
O O12 0.000000 0.875923 0.090592
O O13 0.262566 0.848673 0.047802
O O14 0.235171 0.750000 0.487456
O O15 0.000000 0.692218 0.499744
O O16 0.500000 0.750000 0.810892
O O17 0.750000 0.750000 0.750000
O O18 0.500000 0.170442 0.814438
O O19 0.336822 0.250000 0.803267
O O20 0.250000 0.172081 0.750000
#
# Coordination Sequence:
#
# PCOD9537199 Si02
#       7
#    16  16  16  16  16   8  16
#     4   9  19  36  59  87 117 149 184 227 281 340
#     4  11  22  38  61  87 115 150 191 234 282 339
#     4   9  19  36  57  84 116 148 186 233 288 341
#     4  11  22  35  55  80 107 145 191 237 283 339
#     4  11  24  41  59  80 111 152 193 239 290 341
#     4  12  24  38  58  88 124 156 187 230 281 338
#     4  10  20  33  49  72 104 139 177 228 288 345
#
# _framework density 18.526340000000001
#
# number of rings (size 3 to 8) (size 9 to 14) (size 15 to 20)
#    0.000    1.692    0.769    3.923    0.000    8.615 
#    0.000    0.769    0.000    4.615    0.000    0.000 
#    0.000    0.000    0.000    0.000    0.000    0.000 
#
# Total GULP energy -290155.642645 kJ/mol
# GULP energy per Si atom -5579.916205 kJ/mol
# Density = 1.848417 g / cm^3
# Si number density = 18.526340 Si / 1000 Ang^3
#
#
#
# Elastic Constant Matrix: (Units=GPa)
#
#
# Indices 1 2 3 4 5 6 
#
# 1 40.8548 34.6241 32.7095 0.0000 0.0000 0.0000
# 2 34.6241 129.0066 73.2842 0.0000 0.0000 0.0000
# 3 32.7095 73.2842 161.0512 0.0000 0.0000 0.0000
# 4 0.0000 0.0000 0.0000 29.3198 0.0000 0.0000
# 5 0.0000 0.0000 0.0000 0.0000 34.1187 0.0000
# 6 0.0000 0.0000 0.0000 0.0000 0.0000 30.8766
#
#
#
# Elastic Compliance Matrix: (Units=1/GPa)
#
#
# Indices 1 2 3 4 5 6 
#
# 1 0.033181 -0.006847 -0.003623 0.000000 0.000000 0.000000
# 2 -0.006847 0.011867 -0.004009 0.000000 0.000000 0.000000
# 3 -0.003623 -0.004009 0.008769 0.000000 0.000000 0.000000
# 4 0.000000 0.000000 0.000000 0.034107 0.000000 0.000000
# 5 0.000000 0.000000 0.000000 0.000000 0.029309 0.000000
# 6 0.000000 0.000000 0.000000 0.000000 0.000000 0.032387
#
#
# Mechanical properties :
#
#
# Convention : Reuss Voigt Hill
#
# Bulk Modulus (GPa) = 40.22894 68.01643 54.12268
# Shear Modulus (GPa) = 26.75730 31.54934 29.15332
#
# Velocity S-wave (km/s) = 3.80450 4.13115 3.97119
# Velocity P-wave (km/s) = 6.40785 7.71675 7.09256
#
# Compressibility (1/GPa) = 0.02485773
#
# Stress axis : x y z
#
# Youngs Moduli (GPa) = 30.13798 84.26958 114.03286
#
# Poissons Ratio (x) = 0.57700 0.41318
# Poissons Ratio (y) = 0.20636 0.45717
# Poissons Ratio (z) = 0.10920 0.33785
#
# Static dielectric constant tensor:
#      x y z
#    x 1.642080 0.000000 0.000000 
#    y 0.000000 1.659250 0.000000 
#    z 0.000000 0.000000 1.606380 
# 
# From -- ./inp_files/49334.got.cif
#   From: 2010.05.17/outbox.cif.g08.bks.cpg/sg74_25_cif.got.tgz:49334.got - 2010.06.03 17:57:02.
