data_PCOD9537534
_publ_section_title
;
Structure prediction by ZEFSAII (Michael W. Deem and Ramdas Pophale) SiO2 
 PCOD9537534
Probable space group: I M M A
;
_chemical_formula_sum "Si O2"
_cell_formula_units_Z 96
_cell_length_a 24.011554
_cell_length_b 9.041948
_cell_length_c 24.698426
_cell_angle_alpha 90.000000
_cell_angle_beta 90.000000
_cell_angle_gamma 90.000000
_cell_volume 5362.305467
_symmetry_space_group_name_H-M "I M M A"
_symmetry_group_IT_number 74
_symmetry_cell_setting 'orthorhombic'
loop_
_space_group_symop_operation_xyz
x,y,z
-x,1/2-y,z
x,-y,-z
-x,1/2+y,-z
-x,-y,-z
x,1/2+y,-z
-x,y,z
x,1/2-y,z
1/2+x,1/2+y,1/2+z
1/2-x,-y,1/2+z
1/2+x,1/2-y,1/2-z
1/2-x,y,1/2-z
1/2-x,1/2-y,1/2-z
1/2+x,y,1/2-z
1/2-x,1/2+y,1/2+z
1/2+x,-y,1/2+z
loop_
_atom_site_type_symbol
_atom_site_label
_atom_site_fract_x
_atom_site_fract_y
_atom_site_fract_z
Si Si1 0.644474 0.927015 0.656878
Si Si2 0.235137 0.574301 0.336942
Si Si3 0.935050 0.071770 0.057571
Si Si4 0.365428 0.073983 0.221149
Si Si5 0.064204 0.571402 0.372941
Si Si6 0.336237 0.575390 0.055276
O O1 0.653579 0.750000 0.652094
O O2 0.604879 0.973147 0.607208
O O3 0.619005 0.953563 0.716448
O O4 0.703669 0.007860 0.658320
O O5 0.236546 0.750000 0.326435
O O6 0.194792 0.496320 0.293295
O O7 0.204972 0.548601 0.394676
O O8 0.932076 0.250000 0.052809
O O9 0.000000 0.033001 0.068297
O O10 0.919206 0.000000 0.000000
O O11 0.362461 0.250000 0.212467
O O12 0.409156 0.001372 0.180178
O O13 0.068981 0.750000 0.367827
O O14 0.103174 0.525592 0.423155
O O15 0.000000 0.532407 0.379821
O O16 0.338367 0.750000 0.046086
O O17 0.319341 0.500000 0.000000
#
# Coordination Sequence:
#
# PCOD9537534 Si02
#       6
#    16  16  16  16  16  16
#     4  10  21  35  54  80 106 134 170 212 257 306
#     4  10  21  36  53  75 106 140 172 211 259 308
#     4   9  19  37  57  76 103 137 170 209 257 305
#     4  10  20  34  53  78 107 137 172 214 258 306
#     4   9  19  36  54  74 105 141 175 215 261 305
#     4   9  19  34  51  73 101 135 173 213 257 302
#
# _framework density 17.902747000000002
#
# number of rings (size 3 to 8) (size 9 to 14) (size 15 to 20)
#    0.000    2.500    0.000    2.500    0.000    9.333 
#    0.000    5.000    0.000    2.000    0.000    0.000 
#    0.000    0.000    0.000    0.000    0.000    0.000 
#
# Total GULP energy -267756.406669 kJ/mol
# GULP energy per Si atom -5578.258472 kJ/mol
# Density = 1.786200 g / cm^3
# Si number density = 17.902747 Si / 1000 Ang^3
#
#
#
# Elastic Constant Matrix: (Units=GPa)
#
#
# Indices 1 2 3 4 5 6 
#
# 1 22.5764 4.1232 5.6526 0.0000 0.0000 0.0000
# 2 4.1232 12.6053 25.6448 0.0000 0.0000 0.0000
# 3 5.6526 25.6448 93.3054 0.0000 0.0000 0.0000
# 4 0.0000 0.0000 0.0000 31.1675 0.0000 0.0000
# 5 0.0000 0.0000 0.0000 0.0000 13.3559 0.0000
# 6 0.0000 0.0000 0.0000 0.0000 0.0000 25.2068
#
#
#
# Elastic Compliance Matrix: (Units=1/GPa)
#
#
# Indices 1 2 3 4 5 6 
#
# 1 0.047516 -0.021972 0.003160 0.000000 0.000000 0.000000
# 2 -0.021972 0.190116 -0.050922 0.000000 0.000000 0.000000
# 3 0.003160 -0.050922 0.024522 0.000000 0.000000 0.000000
# 4 0.000000 0.000000 0.000000 0.032085 0.000000 0.000000
# 5 0.000000 0.000000 0.000000 0.000000 0.074873 0.000000
# 6 0.000000 0.000000 0.000000 0.000000 0.000000 0.039672
#
#
# Mechanical properties :
#
#
# Convention : Reuss Voigt Hill
#
# Bulk Modulus (GPa) = 8.15083 22.14760 15.14921
# Shear Modulus (GPa) = 8.48687 20.15046 14.31867
#
# Velocity S-wave (km/s) = 2.17964 3.35856 2.83115
# Velocity P-wave (km/s) = 3.30109 5.23812 4.37807
#
# Compressibility (1/GPa) = 0.12268690
#
# Stress axis : x y z
#
# Youngs Moduli (GPa) = 21.04572 5.25995 40.78000
#
# Poissons Ratio (x) = 0.11557 -0.12887
# Poissons Ratio (y) = 0.46241 2.07660
# Poissons Ratio (z) = -0.06651 0.26785
#
# Static dielectric constant tensor:
#      x y z
#    x 1.604750 0.000000 0.000000 
#    y 0.000000 1.603170 0.000000 
#    z 0.000000 0.000000 1.626070 
# 
# From -- ./inp_files/57254.got.cif
#   From: 2010.05.17/outbox.cif.g08.bks.cpg/sg74_29_cif.got.tgz:57254.got - 2010.06.03 17:57:02.
