data_PCOD9537960
_publ_section_title
;
Structure prediction by ZEFSAII (Michael W. Deem and Ramdas Pophale) SiO2 
 PCOD9537960
Probable space group: I M M A
;
_chemical_formula_sum "Si O2"
_cell_formula_units_Z 88
_cell_length_a 19.469587
_cell_length_b 8.251203
_cell_length_c 28.521041
_cell_angle_alpha 90.000000
_cell_angle_beta 90.000000
_cell_angle_gamma 90.000000
_cell_volume 4581.834352
_symmetry_space_group_name_H-M "I M M A"
_symmetry_group_IT_number 74
_symmetry_cell_setting 'orthorhombic'
loop_
_space_group_symop_operation_xyz
x,y,z
-x,1/2-y,z
x,-y,-z
-x,1/2+y,-z
-x,-y,-z
x,1/2+y,-z
-x,y,z
x,1/2-y,z
1/2+x,1/2+y,1/2+z
1/2-x,-y,1/2+z
1/2+x,1/2-y,1/2-z
1/2-x,y,1/2-z
1/2-x,1/2-y,1/2-z
1/2+x,y,1/2-z
1/2-x,1/2+y,1/2+z
1/2+x,-y,1/2+z
loop_
_atom_site_type_symbol
_atom_site_label
_atom_site_fract_x
_atom_site_fract_y
_atom_site_fract_z
Si Si1 0.577578 0.443910 0.266570
Si Si2 0.716426 0.055899 0.551463
Si Si3 0.667145 0.557454 0.346891
Si Si4 0.689876 0.061165 0.192634
Si Si5 0.358400 0.057511 0.904430
Si Si6 0.000000 0.444003 0.446841
O O1 0.500000 0.506056 0.258380
O O2 0.575547 0.250000 0.259678
O O3 0.604400 0.480325 0.318718
O O4 0.637023 0.506479 0.231343
O O5 0.711672 0.250000 0.551787
O O6 0.678747 0.998251 0.599407
O O7 0.796465 0.012064 0.560368
O O8 0.693606 0.000000 0.500000
O O9 0.658035 0.750000 0.348454
O O10 0.736600 0.520758 0.317096
O O11 0.703307 0.250000 0.202981
O O12 0.652237 0.040409 0.143139
O O13 0.351238 0.250000 0.894686
O O14 0.432000 0.016871 0.924222
O O15 0.000000 0.500000 0.500000
O O16 0.000000 0.750000 0.557092
#
# Coordination Sequence:
#
# PCOD9537960 Si02
#       6
#    16  16  16  16  16   8
#     4  10  22  38  56  81 113 146 184 230 277 332
#     4   9  19  34  54  79 106 134 173 223 272 323
#     4  10  21  37  56  82 114 145 183 230 274 328
#     4  10  20  35  57  82 110 147 186 227 276 328
#     4  10  21  36  52  76 108 141 183 232 276 329
#     4  12  24  36  50  70 102 146 190 234 285 334
#
# _framework density 19.206282000000002
#
# number of rings (size 3 to 8) (size 9 to 14) (size 15 to 20)
#    0.000    2.000    0.000    4.636    1.273    9.818 
#    0.000    0.000    0.000    0.545    0.000    0.000 
#    0.000    0.000    0.000    0.000    0.000    0.000 
#
# Total GULP energy -245495.723175 kJ/mol
# GULP energy per Si atom -5579.448254 kJ/mol
# Density = 1.916257 g / cm^3
# Si number density = 19.206282 Si / 1000 Ang^3
#
#
#
# Elastic Constant Matrix: (Units=GPa)
#
#
# Indices 1 2 3 4 5 6 
#
# 1 40.6855 -6.4939 42.3050 0.0000 0.0000 0.0000
# 2 -6.4939 19.5147 3.7565 0.0000 0.0000 0.0000
# 3 42.3050 3.7565 116.7589 0.0000 0.0000 0.0000
# 4 0.0000 0.0000 0.0000 27.6804 0.0000 0.0000
# 5 0.0000 0.0000 0.0000 0.0000 9.0191 0.0000
# 6 0.0000 0.0000 0.0000 0.0000 0.0000 19.7607
#
#
#
# Elastic Compliance Matrix: (Units=1/GPa)
#
#
# Indices 1 2 3 4 5 6 
#
# 1 0.045094 0.018264 -0.016927 0.000000 0.000000 0.000000
# 2 0.018264 0.058960 -0.008515 0.000000 0.000000 0.000000
# 3 -0.016927 -0.008515 0.014972 0.000000 0.000000 0.000000
# 4 0.000000 0.000000 0.000000 0.036127 0.000000 0.000000
# 5 0.000000 0.000000 0.000000 0.000000 0.110876 0.000000
# 6 0.000000 0.000000 0.000000 0.000000 0.000000 0.050606
#
#
# Mechanical properties :
#
#
# Convention : Reuss Voigt Hill
#
# Bulk Modulus (GPa) = 9.55359 28.45492 19.00425
# Shear Modulus (GPa) = 13.66572 20.45146 17.05859
#
# Velocity S-wave (km/s) = 2.67033 3.26672 2.98346
# Velocity P-wave (km/s) = 3.80691 5.39223 4.66737
#
# Compressibility (1/GPa) = 0.10467267
#
# Stress axis : x y z
#
# Youngs Moduli (GPa) = 22.17571 16.96054 66.79323
#
# Poissons Ratio (x) = -0.30977 1.13058
# Poissons Ratio (y) = -0.40503 0.56872
# Poissons Ratio (z) = 0.37536 0.14441
#
# Static dielectric constant tensor:
#      x y z
#    x 1.666680 0.000000 0.000000 
#    y 0.000000 1.671290 0.000000 
#    z 0.000000 0.000000 1.679860 
# 
# From -- ./inp_files/61444.got.cif
#   From: 2010.05.17/outbox.cif.g08.bks.cpg/sg74_31_cif.got.tgz:61444.got - 2010.06.03 17:57:02.
