data_PCOD9537416
_publ_section_title
;
Structure prediction by ZEFSAII (Michael W. Deem and Ramdas Pophale) SiO2 
 PCOD9537416
Probable space group: I M M A
;
_chemical_formula_sum "Si O2"
_cell_formula_units_Z 80
_cell_length_a 9.616602
_cell_length_b 23.581188
_cell_length_c 20.870294
_cell_angle_alpha 90.000000
_cell_angle_beta 90.000000
_cell_angle_gamma 90.000000
_cell_volume 4732.775347
_symmetry_space_group_name_H-M "I M M A"
_symmetry_group_IT_number 74
_symmetry_cell_setting 'orthorhombic'
loop_
_space_group_symop_operation_xyz
x,y,z
-x,1/2-y,z
x,-y,-z
-x,1/2+y,-z
-x,-y,-z
x,1/2+y,-z
-x,y,z
x,1/2-y,z
1/2+x,1/2+y,1/2+z
1/2-x,-y,1/2+z
1/2+x,1/2-y,1/2-z
1/2-x,y,1/2-z
1/2-x,1/2-y,1/2-z
1/2+x,y,1/2-z
1/2-x,1/2+y,1/2+z
1/2+x,-y,1/2+z
loop_
_atom_site_type_symbol
_atom_site_label
_atom_site_fract_x
_atom_site_fract_y
_atom_site_fract_z
Si Si1 0.776648 0.750000 0.826076
Si Si2 0.335681 0.023776 0.189779
Si Si3 0.850102 0.378189 0.148010
Si Si4 0.662781 0.543996 0.058730
Si Si5 0.339272 0.859343 0.499993
Si Si6 0.839405 0.250000 0.464239
O O1 0.750000 0.750000 0.750000
O O2 0.847092 0.688954 0.838149
O O3 0.667504 0.750000 0.885833
O O4 0.500000 0.024446 0.200596
O O5 0.250000 0.000526 0.250000
O O6 0.275975 0.087110 0.177928
O O7 0.309441 0.988063 0.125261
O O8 0.842265 0.385548 0.071627
O O9 0.000000 0.400730 0.170634
O O10 0.500000 0.562106 0.057984
O O11 0.679748 0.500000 0.000000
O O12 0.765170 0.596261 0.046536
O O13 0.500000 0.846475 0.483048
O O14 0.244230 0.804009 0.509234
O O15 0.000000 0.250000 0.483310
#
# Coordination Sequence:
#
# PCOD9537416 Si02
#       6
#     8  16  16  16  16   8
#     4  10  21  33  47  71  97 136 184 229 264 308
#     4  11  23  37  54  77 108 141 177 222 270 323
#     4  10  20  34  51  71 101 138 179 225 271 313
#     4  10  20  36  57  80 106 139 181 225 269 322
#     4  10  20  34  55  81 107 137 177 226 271 315
#     4  10  21  35  53  77 108 142 178 221 268 320
#
# _framework density 16.903402
#
# number of rings (size 3 to 8) (size 9 to 14) (size 15 to 20)
#    0.000    1.800    2.000    2.400    0.000    8.400 
#    0.000    0.000    0.000    0.000    0.000    0.700 
#    0.000    0.000    0.000    0.000    0.000    0.000 
#
# Total GULP energy -222948.797412 kJ/mol
# GULP energy per Si atom -5573.719935 kJ/mol
# Density = 1.686493 g / cm^3
# Si number density = 16.903402 Si / 1000 Ang^3
#
#
#
# Elastic Constant Matrix: (Units=GPa)
#
#
# Indices 1 2 3 4 5 6 
#
# 1 151.1351 68.4390 58.2161 0.0000 0.0000 0.0000
# 2 68.4390 76.7854 48.8029 0.0000 0.0000 0.0000
# 3 58.2161 48.8029 103.3420 0.0000 0.0000 0.0000
# 4 0.0000 0.0000 0.0000 22.8629 0.0000 0.0000
# 5 0.0000 0.0000 0.0000 0.0000 19.5982 0.0000
# 6 0.0000 0.0000 0.0000 0.0000 0.0000 16.2995
#
#
#
# Elastic Compliance Matrix: (Units=1/GPa)
#
#
# Indices 1 2 3 4 5 6 
#
# 1 0.011476 -0.008744 -0.002335 0.000000 0.000000 0.000000
# 2 -0.008744 0.025271 -0.007008 0.000000 0.000000 0.000000
# 3 -0.002335 -0.007008 0.014302 0.000000 0.000000 0.000000
# 4 0.000000 0.000000 0.000000 0.043739 0.000000 0.000000
# 5 0.000000 0.000000 0.000000 0.000000 0.051025 0.000000
# 6 0.000000 0.000000 0.000000 0.000000 0.000000 0.061352
#
#
# Mechanical properties :
#
#
# Convention : Reuss Voigt Hill
#
# Bulk Modulus (GPa) = 67.23477 75.79760 71.51619
# Shear Modulus (GPa) = 20.13707 22.13908 21.13807
#
# Velocity S-wave (km/s) = 3.45527 3.62296 3.54011
# Velocity P-wave (km/s) = 7.46865 7.90190 7.68833
#
# Compressibility (1/GPa) = 0.01487326
#
# Stress axis : x y z
#
# Youngs Moduli (GPa) = 87.14010 39.57050 69.92081
#
# Poissons Ratio (x) = 0.34601 0.16329
# Poissons Ratio (y) = 0.76196 0.49004
# Poissons Ratio (z) = 0.20350 0.27733
#
# Static dielectric constant tensor:
#      x y z
#    x 1.589660 0.000000 0.000000 
#    y 0.000000 1.559900 0.000000 
#    z 0.000000 0.000000 1.572590 
# 
# From -- ./inp_files/48638.got.cif
#   From: 2010.05.17/outbox.cif.g08.bks.cpg/sg74_25_cif.got.tgz:48638.got - 2010.06.03 17:57:02.
