data_PCOD9537017
_publ_section_title
;
Structure prediction by ZEFSAII (Michael W. Deem and Ramdas Pophale) SiO2 
 PCOD9537017
Probable space group: I M M A
;
_chemical_formula_sum "Si O2"
_cell_formula_units_Z 104
_cell_length_a 32.132425
_cell_length_b 8.919774
_cell_length_c 21.206030
_cell_angle_alpha 90.000000
_cell_angle_beta 90.000000
_cell_angle_gamma 90.000000
_cell_volume 6077.944427
_symmetry_space_group_name_H-M "I M M A"
_symmetry_group_IT_number 74
_symmetry_cell_setting 'orthorhombic'
loop_
_space_group_symop_operation_xyz
x,y,z
-x,1/2-y,z
x,-y,-z
-x,1/2+y,-z
-x,-y,-z
x,1/2+y,-z
-x,y,z
x,1/2-y,z
1/2+x,1/2+y,1/2+z
1/2-x,-y,1/2+z
1/2+x,1/2-y,1/2-z
1/2-x,y,1/2-z
1/2-x,1/2-y,1/2-z
1/2+x,y,1/2-z
1/2-x,1/2+y,1/2+z
1/2+x,-y,1/2+z
loop_
_atom_site_type_symbol
_atom_site_label
_atom_site_fract_x
_atom_site_fract_y
_atom_site_fract_z
Si Si1 0.313271 0.071693 0.566684
Si Si2 0.547014 0.574055 0.299716
Si Si3 0.339941 0.927687 0.822267
Si Si4 0.135888 0.429987 0.181014
Si Si5 0.500000 0.570169 0.067327
Si Si6 0.425862 0.425368 0.844074
Si Si7 0.214206 0.928113 0.432493
O O1 0.320055 0.250000 0.565690
O O2 0.263741 0.044593 0.573909
O O3 0.326033 0.000000 0.500000
O O4 0.338028 0.997995 0.623938
O O5 0.500000 0.522397 0.316862
O O6 0.550343 0.750000 0.317475
O O7 0.588049 0.487236 0.323004
O O8 0.552044 0.566463 0.223967
O O9 0.332690 0.750000 0.823559
O O10 0.342903 0.976090 0.748293
O O11 0.385787 0.971237 0.845896
O O12 0.308388 0.005625 0.870798
O O13 0.135953 0.250000 0.179292
O O14 0.500000 0.750000 0.065139
O O15 0.459026 0.525779 0.104889
O O16 0.500000 0.500000 0.000000
O O17 0.413934 0.750000 0.146704
O O18 0.207026 0.750000 0.435514
O O19 0.201026 0.000000 0.500000
#
# Coordination Sequence:
#
# PCOD9537017 Si02
#       7
#    16  16  16  16   8  16  16
#     4  10  21  38  60  83 108 140 178 219 266 324
#     4   9  16  30  54  78 101 134 176 220 264 313
#     4  10  21  35  52  78 110 142 179 223 270 316
#     4  10  21  35  53  82 115 145 179 220 268 319
#     4  10  20  32  46  66  92 128 173 218 265 314
#     4   9  17  32  50  68  95 132 174 219 267 313
#     4  10  21  37  57  79 104 140 183 225 271 323
#
# _framework density 17.111048
#
# number of rings (size 3 to 8) (size 9 to 14) (size 15 to 20)
#    0.000    2.308    0.769    1.846    0.000    5.846 
#    0.000    4.615    0.000    0.462    0.000    0.000 
#    0.000    0.000    0.000    0.000    0.000    0.000 
#
# Total GULP energy -289891.195200 kJ/mol
# GULP energy per Si atom -5574.830677 kJ/mol
# Density = 1.707210 g / cm^3
# Si number density = 17.111048 Si / 1000 Ang^3
#
#
#
# Elastic Constant Matrix: (Units=GPa)
#
#
# Indices 1 2 3 4 5 6 
#
# 1 87.0213 54.2924 81.2790 0.0000 0.0000 0.0000
# 2 54.2924 54.1853 58.6331 0.0000 0.0000 0.0000
# 3 81.2790 58.6331 137.6359 0.0000 0.0000 0.0000
# 4 0.0000 0.0000 0.0000 30.2394 0.0000 0.0000
# 5 0.0000 0.0000 0.0000 0.0000 30.0935 0.0000
# 6 0.0000 0.0000 0.0000 0.0000 0.0000 21.2277
#
#
#
# Elastic Compliance Matrix: (Units=1/GPa)
#
#
# Indices 1 2 3 4 5 6 
#
# 1 0.038790 -0.026120 -0.011780 0.000000 0.000000 0.000000
# 2 -0.026120 0.051826 -0.006653 0.000000 0.000000 0.000000
# 3 -0.011780 -0.006653 0.017056 0.000000 0.000000 0.000000
# 4 0.000000 0.000000 0.000000 0.033069 0.000000 0.000000
# 5 0.000000 0.000000 0.000000 0.000000 0.033230 0.000000
# 6 0.000000 0.000000 0.000000 0.000000 0.000000 0.047108
#
#
# Mechanical properties :
#
#
# Convention : Reuss Voigt Hill
#
# Bulk Modulus (GPa) = 53.86059 74.13907 63.99983
# Shear Modulus (GPa) = 15.80400 21.95465 18.87933
#
# Velocity S-wave (km/s) = 3.04240 3.58588 3.32526
# Velocity P-wave (km/s) = 6.62473 7.78248 7.22682
#
# Compressibility (1/GPa) = 0.01856645
#
# Stress axis : x y z
#
# Youngs Moduli (GPa) = 25.77965 19.29520 58.62963
#
# Poissons Ratio (x) = 0.50399 0.69065
# Poissons Ratio (y) = 0.67337 0.39007
# Poissons Ratio (z) = 0.30368 0.12837
#
# Static dielectric constant tensor:
#      x y z
#    x 1.619590 0.000000 0.000000 
#    y 0.000000 1.580650 0.000000 
#    z 0.000000 0.000000 1.562980 
# 
# From -- ./inp_files/55227.got.cif
#   From: 2010.05.17/outbox.cif.g08.bks.cpg/sg74_28_cif.got.tgz:55227.got - 2010.06.03 17:57:02.
