data_PCOD9537102
_publ_section_title
;
Structure prediction by ZEFSAII (Michael W. Deem and Ramdas Pophale) SiO2 
 PCOD9537102
Probable space group: I M M A
;
_chemical_formula_sum "Si O2"
_cell_formula_units_Z 96
_cell_length_a 15.210292
_cell_length_b 14.511818
_cell_length_c 22.445158
_cell_angle_alpha 90.000000
_cell_angle_beta 90.000000
_cell_angle_gamma 90.000000
_cell_volume 4954.297038
_symmetry_space_group_name_H-M "I M M A"
_symmetry_group_IT_number 74
_symmetry_cell_setting 'orthorhombic'
loop_
_space_group_symop_operation_xyz
x,y,z
-x,1/2-y,z
x,-y,-z
-x,1/2+y,-z
-x,-y,-z
x,1/2+y,-z
-x,y,z
x,1/2-y,z
1/2+x,1/2+y,1/2+z
1/2-x,-y,1/2+z
1/2+x,1/2-y,1/2-z
1/2-x,y,1/2-z
1/2-x,1/2-y,1/2-z
1/2+x,y,1/2-z
1/2-x,1/2+y,1/2+z
1/2+x,-y,1/2+z
loop_
_atom_site_type_symbol
_atom_site_label
_atom_site_fract_x
_atom_site_fract_y
_atom_site_fract_z
Si Si1 0.906236 0.859868 0.514931
Si Si2 0.898257 0.855461 0.774031
Si Si3 0.215651 0.859881 0.976559
Si Si4 0.397401 0.358088 0.590886
Si Si5 0.404132 0.940740 0.852503
Si Si6 0.712185 0.016711 0.358320
O O1 0.909041 0.750000 0.509294
O O2 0.809484 0.887920 0.492827
O O3 0.903971 0.887569 0.584557
O O4 0.000000 0.895584 0.489689
O O5 0.875842 0.750000 0.788132
O O6 0.896680 0.871333 0.703062
O O7 0.831587 0.924134 0.805833
O O8 0.000000 0.872301 0.793217
O O9 0.220313 0.750000 0.962066
O O10 0.202826 0.920226 0.917829
O O11 0.139132 0.873379 0.024133
O O12 0.500000 0.380206 0.594504
O O13 0.385058 0.250000 0.604146
O O14 0.341218 0.423643 0.632803
O O15 0.500000 0.987415 0.847183
O O16 0.315905 0.000127 0.849904
#
# Coordination Sequence:
#
# PCOD9537102 Si02
#       6
#    16  16  16  16  16  16
#     4   8  13  24  44  69  99 134 166 193 227 282
#     4  10  20  32  49  78 113 142 167 199 243 297
#     4   9  18  31  48  74 104 132 164 203 250 301
#     4  10  22  39  55  70  93 128 169 213 258 299
#     4   9  18  31  47  71 105 139 165 194 241 299
#     4  11  20  32  53  76 100 133 173 211 246 294
#
# _framework density 19.377116999999998
#
# number of rings (size 3 to 8) (size 9 to 14) (size 15 to 20)
#    0.000    2.500    0.000    2.500    0.000    6.667 
#    0.000    2.500    0.000    7.500    0.000    2.333 
#    0.000    0.000    0.000    0.000    0.000    0.000 
#
# Total GULP energy -267703.221375 kJ/mol
# GULP energy per Si atom -5577.150445 kJ/mol
# Density = 1.933301 g / cm^3
# Si number density = 19.377117 Si / 1000 Ang^3
#
#
#
# Elastic Constant Matrix: (Units=GPa)
#
#
# Indices 1 2 3 4 5 6 
#
# 1 147.6140 60.4886 24.6750 0.0000 0.0000 0.0000
# 2 60.4886 50.3113 14.8729 0.0000 0.0000 0.0000
# 3 24.6750 14.8729 26.9709 0.0000 0.0000 0.0000
# 4 0.0000 0.0000 0.0000 18.6207 0.0000 0.0000
# 5 0.0000 0.0000 0.0000 0.0000 13.7836 0.0000
# 6 0.0000 0.0000 0.0000 0.0000 0.0000 18.4831
#
#
#
# Elastic Compliance Matrix: (Units=1/GPa)
#
#
# Indices 1 2 3 4 5 6 
#
# 1 0.013728 -0.015283 -0.004131 0.000000 0.000000 0.000000
# 2 -0.015283 0.040763 -0.008496 0.000000 0.000000 0.000000
# 3 -0.004131 -0.008496 0.045542 0.000000 0.000000 0.000000
# 4 0.000000 0.000000 0.000000 0.053704 0.000000 0.000000
# 5 0.000000 0.000000 0.000000 0.000000 0.072550 0.000000
# 6 0.000000 0.000000 0.000000 0.000000 0.000000 0.054103
#
#
# Mechanical properties :
#
#
# Convention : Reuss Voigt Hill
#
# Bulk Modulus (GPa) = 22.61884 47.21883 34.91883
# Shear Modulus (GPa) = 14.24714 18.50147 16.37430
#
# Velocity S-wave (km/s) = 2.71450 3.09335 2.91010
# Velocity P-wave (km/s) = 4.63929 6.09751 5.41769
#
# Compressibility (1/GPa) = 0.04421094
#
# Stress axis : x y z
#
# Youngs Moduli (GPa) = 72.84492 24.53210 21.95794
#
# Poissons Ratio (x) = 0.37494 0.09071
# Poissons Ratio (y) = 1.11332 0.18655
# Poissons Ratio (z) = 0.30094 0.20842
#
# Static dielectric constant tensor:
#      x y z
#    x 1.743840 0.000000 0.000000 
#    y 0.000000 1.670950 0.000000 
#    z 0.000000 0.000000 1.665040 
# 
# From -- ./inp_files/51851.got.cif
#   From: 2010.05.17/outbox.cif.g08.bks.cpg/sg74_26_cif.got.tgz:51851.got - 2010.06.03 17:57:02.
