data_PCOD9537721
_publ_section_title
;
Structure prediction by ZEFSAII (Michael W. Deem and Ramdas Pophale) SiO2 
 PCOD9537721
Probable space group: I M M A
;
_chemical_formula_sum "Si O2"
_cell_formula_units_Z 104
_cell_length_a 8.321913
_cell_length_b 22.570950
_cell_length_c 28.137242
_cell_angle_alpha 90.000000
_cell_angle_beta 90.000000
_cell_angle_gamma 90.000000
_cell_volume 5285.116145
_symmetry_space_group_name_H-M "I M M A"
_symmetry_group_IT_number 74
_symmetry_cell_setting 'orthorhombic'
loop_
_space_group_symop_operation_xyz
x,y,z
-x,1/2-y,z
x,-y,-z
-x,1/2+y,-z
-x,-y,-z
x,1/2+y,-z
-x,y,z
x,1/2-y,z
1/2+x,1/2+y,1/2+z
1/2-x,-y,1/2+z
1/2+x,1/2-y,1/2-z
1/2-x,y,1/2-z
1/2-x,1/2-y,1/2-z
1/2+x,y,1/2-z
1/2-x,1/2+y,1/2+z
1/2+x,-y,1/2+z
loop_
_atom_site_type_symbol
_atom_site_label
_atom_site_fract_x
_atom_site_fract_y
_atom_site_fract_z
Si Si1 0.320667 0.528252 0.051102
Si Si2 0.184065 0.651658 0.035347
Si Si3 0.191793 0.641537 0.137322
Si Si4 0.303730 0.182592 0.429315
Si Si5 0.308907 0.750000 0.197040
Si Si6 0.309126 0.472501 0.804131
Si Si7 0.692847 0.933647 0.626250
O O1 0.500000 0.549395 0.066182
O O2 0.196670 0.581108 0.042547
O O3 0.256996 0.479005 0.086588
O O4 0.337894 0.500000 0.000000
O O5 0.257375 0.667225 0.086657
O O6 0.000000 0.672911 0.034174
O O7 0.252872 0.668395 0.983660
O O8 0.237449 0.691419 0.174044
O O9 0.251139 0.578971 0.159087
O O10 0.000000 0.636020 0.131933
O O11 0.500000 0.180257 0.430443
O O12 0.257155 0.250000 0.417237
O O13 0.253259 0.131583 0.391991
O O14 0.500000 0.750000 0.193082
O O15 0.250000 0.750000 0.250000
O O16 0.500000 0.471083 0.803816
O O17 0.250000 0.462400 0.750000
O O18 0.251901 0.536128 0.824925
O O19 0.500000 0.933892 0.626757
#
# Coordination Sequence:
#
# PCOD9537721 Si02
#       7
#    16  16  16  16   8  16  16
#     4  11  21  32  51  81 119 155 191 236 288 342
#     4  10  20  34  57  84 116 156 199 241 285 345
#     4  11  23  39  61  90 122 159 204 251 300 355
#     4   9  19  35  58  88 120 159 203 246 291 350
#     4  12  26  44  62  80 112 158 210 260 307 354
#     4  12  25  42  64  90 120 152 193 249 310 369
#     4  11  21  36  60  88 119 155 199 247 301 363
#
# _framework density 19.677902
#
# number of rings (size 3 to 8) (size 9 to 14) (size 15 to 20)
#    0.000    1.231    3.077    3.923    1.077    1.231 
#    0.000    0.000    0.000    4.154    0.000    0.000 
#    0.000    0.000    0.000    0.000    0.000    0.000 
#
# Total GULP energy -289933.746427 kJ/mol
# GULP energy per Si atom -5575.648970 kJ/mol
# Density = 1.963311 g / cm^3
# Si number density = 19.677902 Si / 1000 Ang^3
#
#
#
# Elastic Constant Matrix: (Units=GPa)
#
#
# Indices 1 2 3 4 5 6 
#
# 1 69.8276 16.4861 22.2298 0.0000 0.0000 0.0000
# 2 16.4861 126.4043 36.2018 0.0000 0.0000 0.0000
# 3 22.2298 36.2018 77.1616 0.0000 0.0000 0.0000
# 4 0.0000 0.0000 0.0000 35.0476 0.0000 0.0000
# 5 0.0000 0.0000 0.0000 0.0000 -37.5009 0.0000
# 6 0.0000 0.0000 0.0000 0.0000 0.0000 20.8810
#
#
#
# Elastic Compliance Matrix: (Units=1/GPa)
#
#
# Indices 1 2 3 4 5 6 
#
# 1 0.015851 -0.000877 -0.004155 0.000000 0.000000 0.000000
# 2 -0.000877 0.009188 -0.004058 0.000000 0.000000 0.000000
# 3 -0.004155 -0.004058 0.016061 0.000000 0.000000 0.000000
# 4 0.000000 0.000000 0.000000 0.028533 0.000000 0.000000
# 5 0.000000 0.000000 0.000000 0.000000 -0.026666 0.000000
# 6 0.000000 0.000000 0.000000 0.000000 0.000000 0.047890
#
#
# Mechanical properties :
#
#
# Convention : Reuss Voigt Hill
#
# Bulk Modulus (GPa) = 43.63194 47.02543 45.32869
# Shear Modulus (GPa) = 42.85369 16.91726 29.88547
#
# Velocity S-wave (km/s) = 4.67171 2.93526 3.90132
# Velocity P-wave (km/s) = 7.16387 5.95291 6.58628
#
# Compressibility (1/GPa) = 0.02291899
#
# Stress axis : x y z
#
# Youngs Moduli (GPa) = 63.08802 108.84116 62.26404
#
# Poissons Ratio (x) = 0.09549 0.25870
# Poissons Ratio (y) = 0.05535 0.25266
# Poissons Ratio (z) = 0.26213 0.44166
#
# Static dielectric constant tensor:
#      x y z
#    x 1.747590 0.000000 0.000000 
#    y 0.000000 1.680730 0.000000 
#    z 0.000000 0.000000 1.512550 
# 
# From -- ./inp_files/64464.got.cif
#   From: 2010.05.17/outbox.cif.g08.bks.cpg/sg74_33_cif.got.tgz:64464.got - 2010.06.03 17:57:02.
