data_PCOD9537398
_publ_section_title
;
Structure prediction by ZEFSAII (Michael W. Deem and Ramdas Pophale) SiO2 
 PCOD9537398
Probable space group: I M M A
;
_chemical_formula_sum "Si O2"
_cell_formula_units_Z 96
_cell_length_a 7.733495
_cell_length_b 31.566528
_cell_length_c 21.385487
_cell_angle_alpha 90.000000
_cell_angle_beta 90.000000
_cell_angle_gamma 90.000000
_cell_volume 5220.616243
_symmetry_space_group_name_H-M "I M M A"
_symmetry_group_IT_number 74
_symmetry_cell_setting 'orthorhombic'
loop_
_space_group_symop_operation_xyz
x,y,z
-x,1/2-y,z
x,-y,-z
-x,1/2+y,-z
-x,-y,-z
x,1/2+y,-z
-x,y,z
x,1/2-y,z
1/2+x,1/2+y,1/2+z
1/2-x,-y,1/2+z
1/2+x,1/2-y,1/2-z
1/2-x,y,1/2-z
1/2-x,1/2-y,1/2-z
1/2+x,y,1/2-z
1/2-x,1/2+y,1/2+z
1/2+x,-y,1/2+z
loop_
_atom_site_type_symbol
_atom_site_label
_atom_site_fract_x
_atom_site_fract_y
_atom_site_fract_z
Si Si1 0.206942 0.974042 0.559594
Si Si2 0.706485 0.386794 0.642105
Si Si3 0.794303 0.704869 0.003252
Si Si4 0.294953 0.520765 0.182166
Si Si5 0.295095 0.704117 0.345095
Si Si6 0.790945 0.386701 0.001533
O O1 0.240089 0.924968 0.545931
O O2 0.000000 0.979761 0.560335
O O3 0.276884 0.000000 0.500000
O O4 0.276264 0.993772 0.623897
O O5 0.500000 0.380638 0.637963
O O6 0.737688 0.430390 0.677254
O O7 0.776102 0.342607 0.671572
O O8 0.769943 0.393505 0.570412
O O9 0.719886 0.750000 0.982198
O O10 0.726765 0.660020 0.979239
O O11 0.000000 0.705671 0.990073
O O12 0.780953 0.703615 0.079006
O O13 0.500000 0.521245 0.176935
O O14 0.250000 0.503190 0.250000
O O15 0.500000 0.705179 0.329527
O O16 0.221291 0.750000 0.324258
O O17 0.000000 0.385638 0.999534
#
# Coordination Sequence:
#
# PCOD9537398 Si02
#       6
#    16  16  16  16  16  16
#     4  10  20  34  49  67  93 124 153 187 236 284
#     4   9  16  27  45  69  93 118 152 191 230 269
#     4   7  10  18  33  58  93 124 147 177 220 263
#     4  11  23  37  51  66  89 121 155 192 235 281
#     4   7  10  18  35  60  88 116 146 182 224 267
#     4   9  16  25  44  72  95 120 156 193 222 260
#
# _framework density 18.388635000000001
#
# number of rings (size 3 to 8) (size 9 to 14) (size 15 to 20)
#    0.000    3.167    1.667    3.500    0.000    1.667 
#    0.000    0.000    0.000    1.500    0.000    4.667 
#    0.000    0.667    0.000    1.500    0.000    2.333 
#
# Total GULP energy -267284.731721 kJ/mol
# GULP energy per Si atom -5568.431911 kJ/mol
# Density = 1.834678 g / cm^3
# Si number density = 18.388635 Si / 1000 Ang^3
#
#
#
# Elastic Constant Matrix: (Units=GPa)
#
#
# Indices 1 2 3 4 5 6 
#
# 1 28.1759 -0.4996 5.5363 0.0000 0.0000 0.0000
# 2 -0.4996 155.7250 67.8824 0.0000 0.0000 0.0000
# 3 5.5363 67.8824 86.7787 0.0000 0.0000 0.0000
# 4 0.0000 0.0000 0.0000 4.9257 0.0000 0.0000
# 5 0.0000 0.0000 0.0000 0.0000 10.1025 0.0000
# 6 0.0000 0.0000 0.0000 0.0000 0.0000 44.4513
#
#
#
# Elastic Compliance Matrix: (Units=1/GPa)
#
#
# Indices 1 2 3 4 5 6 
#
# 1 0.036238 0.001706 -0.003646 0.000000 0.000000 0.000000
# 2 0.001706 0.009825 -0.007794 0.000000 0.000000 0.000000
# 3 -0.003646 -0.007794 0.017853 0.000000 0.000000 0.000000
# 4 0.000000 0.000000 0.000000 0.203019 0.000000 0.000000
# 5 0.000000 0.000000 0.000000 0.000000 0.098986 0.000000
# 6 0.000000 0.000000 0.000000 0.000000 0.000000 0.022497
#
#
# Mechanical properties :
#
#
# Convention : Reuss Voigt Hill
#
# Bulk Modulus (GPa) = 22.49897 46.27979 34.38938
# Shear Modulus (GPa) = 11.82869 25.07992 18.45431
#
# Velocity S-wave (km/s) = 2.53901 3.69708 3.17136
# Velocity P-wave (km/s) = 4.56697 6.59142 5.67028
#
# Compressibility (1/GPa) = 0.04444648
#
# Stress axis : x y z
#
# Youngs Moduli (GPa) = 27.59535 101.78560 56.01276
#
# Poissons Ratio (x) = -0.17361 0.20423
# Poissons Ratio (y) = -0.04707 0.43657
# Poissons Ratio (z) = 0.10062 0.79332
#
# Static dielectric constant tensor:
#      x y z
#    x 1.676160 0.000000 0.000000 
#    y 0.000000 1.709720 0.000000 
#    z 0.000000 0.000000 1.623240 
# 
# From -- ./inp_files/41647.got.cif
#   From: 2010.05.17/outbox.cif.g08.bks.cpg/sg74_21_cif.got.tgz:41647.got - 2010.06.03 17:57:02.
