data_PCOD9537221
_publ_section_title
;
Structure prediction by ZEFSAII (Michael W. Deem and Ramdas Pophale) SiO2 
 PCOD9537221
Probable space group: I M M A
;
_chemical_formula_sum "Si O2"
_cell_formula_units_Z 88
_cell_length_a 7.755166
_cell_length_b 21.756502
_cell_length_c 23.996160
_cell_angle_alpha 90.000000
_cell_angle_beta 90.000000
_cell_angle_gamma 90.000000
_cell_volume 4048.758925
_symmetry_space_group_name_H-M "I M M A"
_symmetry_group_IT_number 74
_symmetry_cell_setting 'orthorhombic'
loop_
_space_group_symop_operation_xyz
x,y,z
-x,1/2-y,z
x,-y,-z
-x,1/2+y,-z
-x,-y,-z
x,1/2+y,-z
-x,y,z
x,1/2-y,z
1/2+x,1/2+y,1/2+z
1/2-x,-y,1/2+z
1/2+x,1/2-y,1/2-z
1/2-x,y,1/2-z
1/2-x,1/2-y,1/2-z
1/2+x,y,1/2-z
1/2-x,1/2+y,1/2+z
1/2+x,-y,1/2+z
loop_
_atom_site_type_symbol
_atom_site_label
_atom_site_fract_x
_atom_site_fract_y
_atom_site_fract_z
Si Si1 0.696684 0.823152 0.810152
Si Si2 0.191810 0.096400 0.098844
Si Si3 0.712173 0.322398 0.502716
Si Si4 0.208417 0.492670 0.815894
Si Si5 0.704989 0.750000 0.185775
Si Si6 0.799157 0.628896 0.121954
O O1 0.500000 0.840361 0.822380
O O2 0.706079 0.750000 0.807920
O O3 0.750000 0.848007 0.750000
O O4 0.817160 0.847887 0.857649
O O5 0.000000 0.074711 0.082070
O O6 0.270434 0.043697 0.138895
O O7 0.271761 0.129881 0.045138
O O8 0.500000 0.321329 0.501328
O O9 0.764450 0.250000 0.496583
O O10 0.770912 0.351288 0.561533
O O11 0.250000 0.499797 0.750000
O O12 0.271130 0.427954 0.841955
O O13 0.000000 0.495553 0.817250
O O14 0.500000 0.750000 0.177264
O O15 0.750000 0.750000 0.250000
O O16 0.783184 0.689755 0.158261
O O17 0.000000 0.613860 0.112262
#
# Coordination Sequence:
#
# PCOD9537221 Si02
#       6
#    16  16  16  16   8  16
#     4  10  20  33  50  74 104 141 188 241 293 340
#     4  10  20  34  54  82 113 149 191 230 281 340
#     4   9  17  32  58  86 114 149 189 235 284 337
#     4  10  22  37  56  83 115 152 193 240 285 341
#     4  12  24  38  60  90 118 148 189 240 293 346
#     4  10  20  38  61  85 116 152 191 235 288 344
#
# _framework density 21.735054999999999
#
# number of rings (size 3 to 8) (size 9 to 14) (size 15 to 20)
#    0.000    2.000    0.909    3.000    0.000    6.909 
#    0.000    4.545    0.000    0.000    0.000    3.818 
#    0.000    0.000    0.000    0.000    0.000    0.000 
#
# Total GULP energy -245280.270023 kJ/mol
# GULP energy per Si atom -5574.551591 kJ/mol
# Density = 2.168558 g / cm^3
# Si number density = 21.735055 Si / 1000 Ang^3
#
#
#
# Elastic Constant Matrix: (Units=GPa)
#
#
# Indices 1 2 3 4 5 6 
#
# 1 32.1760 14.9230 -8.2226 0.0000 0.0000 0.0000
# 2 14.9230 148.4682 96.8422 0.0000 0.0000 0.0000
# 3 -8.2226 96.8422 209.0031 0.0000 0.0000 0.0000
# 4 0.0000 0.0000 0.0000 34.3618 0.0000 0.0000
# 5 0.0000 0.0000 0.0000 0.0000 14.0961 0.0000
# 6 0.0000 0.0000 0.0000 0.0000 0.0000 7.6094
#
#
#
# Elastic Compliance Matrix: (Units=1/GPa)
#
#
# Indices 1 2 3 4 5 6 
#
# 1 0.035131 -0.006353 0.004326 0.000000 0.000000 0.000000
# 2 -0.006353 0.010802 -0.005255 0.000000 0.000000 0.000000
# 3 0.004326 -0.005255 0.007390 0.000000 0.000000 0.000000
# 4 0.000000 0.000000 0.000000 0.029102 0.000000 0.000000
# 5 0.000000 0.000000 0.000000 0.000000 0.070941 0.000000
# 6 0.000000 0.000000 0.000000 0.000000 0.000000 0.131417
#
#
# Mechanical properties :
#
#
# Convention : Reuss Voigt Hill
#
# Bulk Modulus (GPa) = 25.80094 66.30361 46.05227
# Shear Modulus (GPa) = 16.01201 30.28711 23.14956
#
# Velocity S-wave (km/s) = 2.71715 3.73697 3.26710
# Velocity P-wave (km/s) = 4.66265 7.01367 5.95533
#
# Compressibility (1/GPa) = 0.03875828
#
# Stress axis : x y z
#
# Youngs Moduli (GPa) = 28.46509 92.57893 135.32423
#
# Poissons Ratio (x) = 0.58812 -0.58536
# Poissons Ratio (y) = 0.18083 0.71111
# Poissons Ratio (z) = -0.12313 0.48649
#
# Static dielectric constant tensor:
#      x y z
#    x 1.883940 0.000000 0.000000 
#    y 0.000000 1.802210 0.000000 
#    z 0.000000 0.000000 1.792690 
# 
# From -- ./inp_files/56997.got.cif
#   From: 2010.05.17/outbox.cif.g08.bks.cpg/sg74_29_cif.got.tgz:56997.got - 2010.06.03 17:57:02.
