data_PCOD9537479
_publ_section_title
;
Structure prediction by ZEFSAII (Michael W. Deem and Ramdas Pophale) SiO2 
 PCOD9537479
Probable space group: I M M A
;
_chemical_formula_sum "Si O2"
_cell_formula_units_Z 72
_cell_length_a 18.273130
_cell_length_b 8.577434
_cell_length_c 24.139752
_cell_angle_alpha 90.000000
_cell_angle_beta 90.000000
_cell_angle_gamma 90.000000
_cell_volume 3783.581846
_symmetry_space_group_name_H-M "I M M A"
_symmetry_group_IT_number 74
_symmetry_cell_setting 'orthorhombic'
loop_
_space_group_symop_operation_xyz
x,y,z
-x,1/2-y,z
x,-y,-z
-x,1/2+y,-z
-x,-y,-z
x,1/2+y,-z
-x,y,z
x,1/2-y,z
1/2+x,1/2+y,1/2+z
1/2-x,-y,1/2+z
1/2+x,1/2-y,1/2-z
1/2-x,y,1/2-z
1/2-x,1/2-y,1/2-z
1/2+x,y,1/2-z
1/2-x,1/2+y,1/2+z
1/2+x,-y,1/2+z
loop_
_atom_site_type_symbol
_atom_site_label
_atom_site_fract_x
_atom_site_fract_y
_atom_site_fract_z
Si Si1 0.416740 0.562237 0.632618
Si Si2 0.855332 0.061116 0.630260
Si Si3 0.000000 0.438042 0.562266
Si Si4 0.280735 0.936828 0.561619
Si Si5 0.585828 0.062619 0.752894
O O1 0.500000 0.505372 0.623222
O O2 0.418269 0.750000 0.631549
O O3 0.358001 0.508820 0.587546
O O4 0.393528 0.509728 0.694092
O O5 0.851863 0.250000 0.629333
O O6 0.867606 0.012334 0.693952
O O7 0.927193 0.013553 0.595295
O O8 0.783946 0.993768 0.601475
O O9 0.000000 0.500000 0.500000
O O10 0.000000 0.250000 0.560869
O O11 0.280410 0.750000 0.559887
O O12 0.269793 0.000000 0.500000
O O13 0.500000 0.024976 0.763291
O O14 0.590898 0.250000 0.748615
#
# Coordination Sequence:
#
# PCOD9537479 Si02
#       5
#    16  16   8  16  16
#     4   9  20  39  60  82 110 144 181 228 283 335
#     4  10  20  36  57  81 114 150 184 226 273 321
#     4  10  20  34  52  76 108 148 189 226 263 312
#     4  11  24  40  57  80 111 145 186 233 280 331
#     4   9  17  33  58  86 114 145 184 227 270 323
#
# _framework density 19.029586999999999
#
# number of rings (size 3 to 8) (size 9 to 14) (size 15 to 20)
#    0.000    2.222    1.111    1.333    0.000    6.667 
#    0.000    4.444    0.000    0.000    0.000    0.000 
#    0.000    0.000    0.000    0.000    0.000    0.000 
#
# Total GULP energy -200994.544771 kJ/mol
# GULP energy per Si atom -5583.181799 kJ/mol
# Density = 1.898627 g / cm^3
# Si number density = 19.029587 Si / 1000 Ang^3
#
#
#
# Elastic Constant Matrix: (Units=GPa)
#
#
# Indices 1 2 3 4 5 6 
#
# 1 83.7280 15.7298 25.1221 0.0000 0.0000 0.0000
# 2 15.7298 8.2360 5.7702 0.0000 0.0000 0.0000
# 3 25.1221 5.7702 35.3968 0.0000 0.0000 0.0000
# 4 0.0000 0.0000 0.0000 31.4280 0.0000 0.0000
# 5 0.0000 0.0000 0.0000 0.0000 29.4791 0.0000
# 6 0.0000 0.0000 0.0000 0.0000 0.0000 24.0593
#
#
#
# Elastic Compliance Matrix: (Units=1/GPa)
#
#
# Indices 1 2 3 4 5 6 
#
# 1 0.021122 -0.033685 -0.009500 0.000000 0.000000 0.000000
# 2 -0.033685 0.190793 -0.007195 0.000000 0.000000 0.000000
# 3 -0.009500 -0.007195 0.036166 0.000000 0.000000 0.000000
# 4 0.000000 0.000000 0.000000 0.031819 0.000000 0.000000
# 5 0.000000 0.000000 0.000000 0.000000 0.033922 0.000000
# 6 0.000000 0.000000 0.000000 0.000000 0.000000 0.041564
#
#
# Mechanical properties :
#
#
# Convention : Reuss Voigt Hill
#
# Bulk Modulus (GPa) = 6.78785 24.51166 15.64975
# Shear Modulus (GPa) = 9.89604 22.37587 16.13595
#
# Velocity S-wave (km/s) = 2.28290 3.43278 2.91510
# Velocity P-wave (km/s) = 3.24401 5.34984 4.42405
#
# Compressibility (1/GPa) = 0.14732214
#
# Stress axis : x y z
#
# Youngs Moduli (GPa) = 47.34375 5.24129 27.65009
#
# Poissons Ratio (x) = 0.17655 0.26267
# Poissons Ratio (y) = 1.59478 0.19893
# Poissons Ratio (z) = 0.44976 0.03771
#
# Static dielectric constant tensor:
#      x y z
#    x 1.663280 0.000000 0.000000 
#    y 0.000000 1.652790 0.000000 
#    z 0.000000 0.000000 1.631150 
# 
# From -- ./inp_files/56636.got.cif
#   From: 2010.05.17/outbox.cif.g08.bks.cpg/sg74_29_cif.got.tgz:56636.got - 2010.06.03 17:57:02.
