data_PCOD9537053
_publ_section_title
;
Structure prediction by ZEFSAII (Michael W. Deem and Ramdas Pophale) SiO2 
 PCOD9537053
Probable space group: I M M A
;
_chemical_formula_sum "Si O2"
_cell_formula_units_Z 104
_cell_length_a 7.942571
_cell_length_b 26.993931
_cell_length_c 24.046535
_cell_angle_alpha 90.000000
_cell_angle_beta 90.000000
_cell_angle_gamma 90.000000
_cell_volume 5155.606285
_symmetry_space_group_name_H-M "I M M A"
_symmetry_group_IT_number 74
_symmetry_cell_setting 'orthorhombic'
loop_
_space_group_symop_operation_xyz
x,y,z
-x,1/2-y,z
x,-y,-z
-x,1/2+y,-z
-x,-y,-z
x,1/2+y,-z
-x,y,z
x,1/2-y,z
1/2+x,1/2+y,1/2+z
1/2-x,-y,1/2+z
1/2+x,1/2-y,1/2-z
1/2-x,y,1/2-z
1/2-x,1/2-y,1/2-z
1/2+x,y,1/2-z
1/2-x,1/2+y,1/2+z
1/2+x,-y,1/2+z
loop_
_atom_site_type_symbol
_atom_site_label
_atom_site_fract_x
_atom_site_fract_y
_atom_site_fract_z
Si Si1 0.300513 0.193038 0.488239
Si Si2 0.799032 0.925825 0.188434
Si Si3 0.196212 0.193652 0.313752
Si Si4 0.203656 0.460292 0.187990
Si Si5 0.300083 0.660800 0.110089
Si Si6 0.690182 0.382032 0.397907
Si Si7 0.297670 0.250000 0.813655
O O1 0.500000 0.195903 0.475360
O O2 0.234185 0.250000 0.483199
O O3 0.279091 0.173445 0.550801
O O4 0.228141 0.150263 0.447482
O O5 0.750000 0.906535 0.250000
O O6 0.733975 0.891827 0.138638
O O7 0.000000 0.926515 0.185564
O O8 0.737554 0.982698 0.184939
O O9 0.213704 0.250000 0.334023
O O10 0.250000 0.192580 0.250000
O O11 0.311796 0.157949 0.348659
O O12 0.000000 0.179333 0.319039
O O13 0.250000 0.441023 0.250000
O O14 0.267398 0.428914 0.134946
O O15 0.000000 0.459186 0.185419
O O16 0.500000 0.666669 0.103093
O O17 0.236276 0.701624 0.153978
O O18 0.500000 0.396124 0.415502
O O19 0.500000 0.250000 0.816582
O O20 0.250000 0.250000 0.750000
#
# Coordination Sequence:
#
# PCOD9537053 Si02
#       7
#    16  16  16  16  16  16   8
#     4  10  21  37  57  80 108 147 190 231 277 329
#     4  10  20  36  58  85 114 146 181 221 274 333
#     4  10  20  32  47  71 103 138 176 224 283 338
#     4   9  19  35  56  82 113 145 181 229 281 331
#     4  11  22  38  57  81 112 147 184 225 274 327
#     4  10  20  35  55  79 106 141 187 233 277 328
#     4  10  22  36  54  82 112 140 171 214 267 324
#
# _framework density 20.172215000000001
#
# number of rings (size 3 to 8) (size 9 to 14) (size 15 to 20)
#    0.000    2.000    0.769    2.769    0.000    7.077 
#    0.000    0.769    0.000    4.615    0.000    0.000 
#    0.000    0.000    0.000    0.000    0.000    0.000 
#
# Total GULP energy -290063.125926 kJ/mol
# GULP energy per Si atom -5578.137037 kJ/mol
# Density = 2.012630 g / cm^3
# Si number density = 20.172215 Si / 1000 Ang^3
#
#
#
# Elastic Constant Matrix: (Units=GPa)
#
#
# Indices 1 2 3 4 5 6 
#
# 1 29.2814 2.6958 -16.6499 0.0000 0.0000 0.0000
# 2 2.6958 94.7615 65.2116 0.0000 0.0000 0.0000
# 3 -16.6499 65.2116 112.0990 0.0000 0.0000 0.0000
# 4 0.0000 0.0000 0.0000 37.3498 0.0000 0.0000
# 5 0.0000 0.0000 0.0000 0.0000 22.6093 0.0000
# 6 0.0000 0.0000 0.0000 0.0000 0.0000 28.9746
#
#
#
# Elastic Compliance Matrix: (Units=1/GPa)
#
#
# Indices 1 2 3 4 5 6 
#
# 1 0.041475 -0.009037 0.011417 0.000000 0.000000 0.000000
# 2 -0.009037 0.019567 -0.012725 0.000000 0.000000 0.000000
# 3 0.011417 -0.012725 0.018019 0.000000 0.000000 0.000000
# 4 0.000000 0.000000 0.000000 0.026774 0.000000 0.000000
# 5 0.000000 0.000000 0.000000 0.000000 0.044230 0.000000
# 6 0.000000 0.000000 0.000000 0.000000 0.000000 0.034513
#
#
# Mechanical properties :
#
#
# Convention : Reuss Voigt Hill
#
# Bulk Modulus (GPa) = 17.13141 37.62855 27.37998
# Shear Modulus (GPa) = 22.24952 30.11234 26.18093
#
# Velocity S-wave (km/s) = 3.32472 3.86782 3.60651
# Velocity P-wave (km/s) = 4.82176 6.21618 5.56283
#
# Compressibility (1/GPa) = 0.05837231
#
# Stress axis : x y z
#
# Youngs Moduli (GPa) = 24.11062 51.10725 55.49716
#
# Poissons Ratio (x) = 0.46185 -0.63363
# Poissons Ratio (y) = 0.21789 0.70619
# Poissons Ratio (z) = -0.27528 0.65033
#
# Static dielectric constant tensor:
#      x y z
#    x 1.751470 0.000000 0.000000 
#    y 0.000000 1.751840 0.000000 
#    z 0.000000 0.000000 1.699480 
# 
# From -- ./inp_files/49327.got.cif
#   From: 2010.05.17/outbox.cif.g08.bks.cpg/sg74_25_cif.got.tgz:49327.got - 2010.06.03 17:57:02.
