data_PCOD9537548
_publ_section_title
;
Structure prediction by ZEFSAII (Michael W. Deem and Ramdas Pophale) SiO2 
 PCOD9537548
Probable space group: I M M A
;
_chemical_formula_sum "Si O2"
_cell_formula_units_Z 116
_cell_length_a 18.426749
_cell_length_b 14.229600
_cell_length_c 21.084790
_cell_angle_alpha 90.000000
_cell_angle_beta 90.000000
_cell_angle_gamma 90.000000
_cell_volume 5528.543004
_symmetry_space_group_name_H-M "I M M A"
_symmetry_group_IT_number 74
_symmetry_cell_setting 'orthorhombic'
loop_
_space_group_symop_operation_xyz
x,y,z
-x,1/2-y,z
x,-y,-z
-x,1/2+y,-z
-x,-y,-z
x,1/2+y,-z
-x,y,z
x,1/2-y,z
1/2+x,1/2+y,1/2+z
1/2-x,-y,1/2+z
1/2+x,1/2-y,1/2-z
1/2-x,y,1/2-z
1/2-x,1/2-y,1/2-z
1/2+x,y,1/2-z
1/2-x,1/2+y,1/2+z
1/2+x,-y,1/2+z
loop_
_atom_site_type_symbol
_atom_site_label
_atom_site_fract_x
_atom_site_fract_y
_atom_site_fract_z
Si Si1 0.416454 0.360664 0.311131
Si Si2 0.215131 0.360881 0.492632
Si Si3 0.699082 0.992386 0.304899
Si Si4 0.322022 0.500155 0.896322
Si Si5 0.383398 0.640871 0.539588
Si Si6 0.916527 0.353859 0.676343
Si Si7 0.000000 0.000000 0.000000
Si Si8 0.919614 0.642072 0.169709
O O1 0.500000 0.383298 0.294362
O O2 0.404050 0.250000 0.298622
O O3 0.357202 0.429117 0.280282
O O4 0.406487 0.375919 0.386944
O O5 0.202330 0.250000 0.497565
O O6 0.161819 0.412521 0.442351
O O7 0.205616 0.417154 0.557548
O O8 0.298374 0.376859 0.470865
O O9 0.750000 0.947756 0.250000
O O10 0.758224 0.036028 0.351008
O O11 0.649759 0.920399 0.345022
O O12 0.379814 0.444910 0.853732
O O13 0.395853 0.750000 0.526835
O O14 0.436005 0.580082 0.497106
O O15 0.884369 0.250000 0.660055
O O16 0.916872 0.359017 0.752982
O O17 0.000000 0.352674 0.655873
O O18 0.913125 0.750000 0.149123
O O19 0.000000 0.605863 0.151085
#
# Coordination Sequence:
#
# PCOD9537548 Si02
#       8
#    16  16  16  16  16  16   4  16
#     4  10  21  39  59  79 110 154 198 234 273 333
#     4  10  22  39  57  80 115 150 186 238 288 337
#     4  12  23  35  57  90 119 147 186 241 287 338
#     4  11  21  36  60  88 112 150 194 232 288 341
#     4  10  20  34  53  79 110 148 189 231 282 334
#     4   9  18  35  59  84 113 150 189 231 284 350
#     4  12  18  28  56  78 104 144 192 240 272 316
#     4   9  19  36  55  79 117 157 187 226 283 339
#
# _framework density 20.982019999999999
#
# number of rings (size 3 to 8) (size 9 to 14) (size 15 to 20)
#    0.000    1.793    3.448    2.690    0.000    1.655 
#    0.000    1.379    0.000    1.241    0.000    0.000 
#    0.000    0.000    0.000    0.000    0.000    0.000 
#
# Total GULP energy -323143.863418 kJ/mol
# GULP energy per Si atom -5571.445921 kJ/mol
# Density = 2.093426 g / cm^3
# Si number density = 20.982020 Si / 1000 Ang^3
#
#
#
# Elastic Constant Matrix: (Units=GPa)
#
#
# Indices 1 2 3 4 5 6 
#
# 1 64.5291 24.2197 1.5158 0.0000 0.0000 0.0000
# 2 24.2197 76.8502 -5.2571 0.0000 0.0000 0.0000
# 3 1.5158 -5.2571 25.1848 0.0000 0.0000 0.0000
# 4 0.0000 0.0000 0.0000 11.4544 0.0000 0.0000
# 5 0.0000 0.0000 0.0000 0.0000 18.1014 0.0000
# 6 0.0000 0.0000 0.0000 0.0000 0.0000 33.7450
#
#
#
# Elastic Compliance Matrix: (Units=1/GPa)
#
#
# Indices 1 2 3 4 5 6 
#
# 1 0.017702 -0.005734 -0.002262 0.000000 0.000000 0.000000
# 2 -0.005734 0.015058 0.003488 0.000000 0.000000 0.000000
# 3 -0.002262 0.003488 0.040571 0.000000 0.000000 0.000000
# 4 0.000000 0.000000 0.000000 0.087303 0.000000 0.000000
# 5 0.000000 0.000000 0.000000 0.000000 0.055244 0.000000
# 6 0.000000 0.000000 0.000000 0.000000 0.000000 0.029634
#
#
# Mechanical properties :
#
#
# Convention : Reuss Voigt Hill
#
# Bulk Modulus (GPa) = 15.54836 23.05790 19.30313
# Shear Modulus (GPa) = 18.11819 22.39920 20.25870
#
# Velocity S-wave (km/s) = 2.94174 3.27087 3.11066
# Velocity P-wave (km/s) = 4.35487 5.02773 4.70334
#
# Compressibility (1/GPa) = 0.06431547
#
# Stress axis : x y z
#
# Youngs Moduli (GPa) = 56.49071 66.41014 24.64827
#
# Poissons Ratio (x) = 0.38077 0.05576
# Poissons Ratio (y) = 0.32390 -0.08598
# Poissons Ratio (z) = 0.12780 -0.23166
#
# Static dielectric constant tensor:
#      x y z
#    x 1.755600 0.000000 0.000000 
#    y 0.000000 1.767170 0.000000 
#    z 0.000000 0.000000 1.800610 
# 
# From -- ./inp_files/61013.got.cif
#   From: 2010.05.17/outbox.cif.g08.bks.cpg/sg74_31_cif.got.tgz:61013.got - 2010.06.03 17:57:02.
