data_PCOD9537422
_publ_section_title
;
Structure prediction by ZEFSAII (Michael W. Deem and Ramdas Pophale) SiO2 
 PCOD9537422
Probable space group: I M M A
;
_chemical_formula_sum "Si O2"
_cell_formula_units_Z 120
_cell_length_a 7.758088
_cell_length_b 27.916247
_cell_length_c 28.656598
_cell_angle_alpha 90.000000
_cell_angle_beta 90.000000
_cell_angle_gamma 90.000000
_cell_volume 6206.351453
_symmetry_space_group_name_H-M "I M M A"
_symmetry_group_IT_number 74
_symmetry_cell_setting 'orthorhombic'
loop_
_space_group_symop_operation_xyz
x,y,z
-x,1/2-y,z
x,-y,-z
-x,1/2+y,-z
-x,-y,-z
x,1/2+y,-z
-x,y,z
x,1/2-y,z
1/2+x,1/2+y,1/2+z
1/2-x,-y,1/2+z
1/2+x,1/2-y,1/2-z
1/2-x,y,1/2-z
1/2-x,1/2-y,1/2-z
1/2+x,y,1/2-z
1/2-x,1/2+y,1/2+z
1/2+x,-y,1/2+z
loop_
_atom_site_type_symbol
_atom_site_label
_atom_site_fract_x
_atom_site_fract_y
_atom_site_fract_z
Si Si1 0.295342 0.339498 0.136155
Si Si2 0.205485 0.569712 0.803530
Si Si3 0.793320 0.696963 0.063745
Si Si4 0.708606 0.551572 0.016945
Si Si5 0.708464 0.148188 0.032065
Si Si6 0.792022 0.750000 0.695664
Si Si7 0.294632 0.398640 0.612029
Si Si8 0.707706 0.538956 0.303260
O O1 0.500000 0.331355 0.132136
O O2 0.271255 0.390588 0.160856
O O3 0.225872 0.338979 0.083418
O O4 0.226144 0.297337 0.169140
O O5 0.250000 0.582591 0.750000
O O6 0.271659 0.515523 0.811939
O O7 0.000000 0.568819 0.807459
O O8 0.725539 0.750000 0.074321
O O9 0.724515 0.652953 0.095150
O O10 0.000000 0.697917 0.069755
O O11 0.759770 0.683267 0.009864
O O12 0.500000 0.448964 0.983412
O O13 0.765594 0.565464 0.068842
O O14 0.770536 0.500000 0.000000
O O15 0.765987 0.595054 0.983593
O O16 0.500000 0.147653 0.033420
O O17 0.750000 0.750000 0.750000
O O18 0.000000 0.750000 0.692934
O O19 0.500000 0.392696 0.618048
O O20 0.225579 0.423244 0.658846
O O21 0.500000 0.537366 0.307389
O O22 0.750000 0.551539 0.250000
#
# Coordination Sequence:
#
# PCOD9537422 Si02
#       8
#    16  16  16  16  16   8  16  16
#     4  10  21  35  52  72  94 125 164 205 250 298
#     4  10  20  34  51  72  97 125 161 203 246 294
#     4   9  18  33  53  75 100 130 166 208 249 294
#     4   9  18  31  47  72 103 132 164 200 241 292
#     4   9  19  33  49  72 100 131 164 200 246 294
#     4  10  22  38  52  68  90 120 162 206 251 298
#     4   9  18  33  51  73 101 133 168 204 247 299
#     4   9  19  34  52  76 103 133 167 202 244 295
#
# _framework density 19.335032000000002
#
# number of rings (size 3 to 8) (size 9 to 14) (size 15 to 20)
#    0.000    2.667    0.000    0.800    2.800    3.733 
#    0.000    0.000    0.000    0.400    0.000    0.000 
#    0.000    0.000    0.000    0.000    0.000    0.000 
#
# Total GULP energy -334743.673942 kJ/mol
# GULP energy per Si atom -5579.061232 kJ/mol
# Density = 1.929102 g / cm^3
# Si number density = 19.335032 Si / 1000 Ang^3
#
#
#
# Elastic Constant Matrix: (Units=GPa)
#
#
# Indices 1 2 3 4 5 6 
#
# 1 24.8239 2.4542 0.9383 0.0000 0.0000 0.0000
# 2 2.4542 147.3783 98.3072 0.0000 0.0000 0.0000
# 3 0.9383 98.3072 152.9558 0.0000 0.0000 0.0000
# 4 0.0000 0.0000 0.0000 15.1827 0.0000 0.0000
# 5 0.0000 0.0000 0.0000 0.0000 18.3903 0.0000
# 6 0.0000 0.0000 0.0000 0.0000 0.0000 9.3232
#
#
#
# Elastic Compliance Matrix: (Units=1/GPa)
#
#
# Indices 1 2 3 4 5 6 
#
# 1 0.040359 -0.000887 0.000323 0.000000 0.000000 0.000000
# 2 -0.000887 0.011897 -0.007641 0.000000 0.000000 0.000000
# 3 0.000323 -0.007641 0.011447 0.000000 0.000000 0.000000
# 4 0.000000 0.000000 0.000000 0.065864 0.000000 0.000000
# 5 0.000000 0.000000 0.000000 0.000000 0.054376 0.000000
# 6 0.000000 0.000000 0.000000 0.000000 0.000000 0.107259
#
#
# Mechanical properties :
#
#
# Convention : Reuss Voigt Hill
#
# Bulk Modulus (GPa) = 21.14525 58.72858 39.93691
# Shear Modulus (GPa) = 15.46180 23.47648 19.46914
#
# Velocity S-wave (km/s) = 2.83093 3.48831 3.17667
# Velocity P-wave (km/s) = 4.65247 6.83114 5.84423
#
# Compressibility (1/GPa) = 0.04729195
#
# Stress axis : x y z
#
# Youngs Moduli (GPa) = 24.77744 84.05655 87.36125
#
# Poissons Ratio (x) = 0.07459 -0.02820
# Poissons Ratio (y) = 0.02199 0.66751
# Poissons Ratio (z) = -0.00800 0.64226
#
# Static dielectric constant tensor:
#      x y z
#    x 1.717980 0.000000 0.000000 
#    y 0.000000 1.692440 0.000000 
#    z 0.000000 0.000000 1.648830 
# 
# From -- ./inp_files/65143.got.cif
#   From: 2010.05.17/outbox.cif.g08.bks.cpg/sg74_33_cif.got.tgz:65143.got - 2010.06.03 17:57:02.
