data_PCOD9537833
_publ_section_title
;
Structure prediction by ZEFSAII (Michael W. Deem and Ramdas Pophale) SiO2 
 PCOD9537833
Probable space group: I M M A
;
_chemical_formula_sum "Si O2"
_cell_formula_units_Z 128
_cell_length_a 12.232975
_cell_length_b 21.373060
_cell_length_c 19.798667
_cell_angle_alpha 90.000000
_cell_angle_beta 90.000000
_cell_angle_gamma 90.000000
_cell_volume 5176.482430
_symmetry_space_group_name_H-M "I M M A"
_symmetry_group_IT_number 74
_symmetry_cell_setting 'orthorhombic'
loop_
_space_group_symop_operation_xyz
x,y,z
-x,1/2-y,z
x,-y,-z
-x,1/2+y,-z
-x,-y,-z
x,1/2+y,-z
-x,y,z
x,1/2-y,z
1/2+x,1/2+y,1/2+z
1/2-x,-y,1/2+z
1/2+x,1/2-y,1/2-z
1/2-x,y,1/2-z
1/2-x,1/2-y,1/2-z
1/2+x,y,1/2-z
1/2-x,1/2+y,1/2+z
1/2+x,-y,1/2+z
loop_
_atom_site_type_symbol
_atom_site_label
_atom_site_fract_x
_atom_site_fract_y
_atom_site_fract_z
Si Si1 0.877112 0.385805 0.764470
Si Si2 0.375936 0.344894 0.238605
Si Si3 0.878631 0.018868 0.192635
Si Si4 0.653586 0.680592 0.397824
Si Si5 0.796147 0.493917 0.576237
Si Si6 0.380044 0.175856 0.444352
Si Si7 0.845058 0.627302 0.588212
Si Si8 0.381804 0.645868 0.064396
O O1 0.750000 0.363077 0.750000
O O2 0.873996 0.460592 0.755283
O O3 0.884016 0.368937 0.843733
O O4 0.000000 0.365367 0.737831
O O5 0.500000 0.322137 0.261729
O O6 0.250000 0.318752 0.250000
O O7 0.366891 0.415479 0.268540
O O8 0.384555 0.344780 0.157551
O O9 0.791488 0.002874 0.135066
O O10 0.000000 0.018159 0.162290
O O11 0.615575 0.750000 0.380322
O O12 0.622004 0.665861 0.474899
O O13 0.784298 0.680805 0.400052
O O14 0.747884 0.500000 0.500000
O O15 0.873087 0.554281 0.583828
O O16 0.856086 0.427425 0.577825
O O17 0.500000 0.160908 0.418752
O O18 0.358787 0.250000 0.433565
O O19 0.286350 0.135457 0.411242
O O20 0.876716 0.656867 0.516504
O O21 0.500000 0.663589 0.088340
#
# Coordination Sequence:
#
# PCOD9537833 Si02
#       8
#    16  16  16  16  16  16  16  16
#     4  11  24  41  61  85 120 165 217 269 320 377
#     4  11  22  37  58  85 123 165 209 256 304 369
#     4  10  21  38  57  84 122 165 213 261 316 377
#     4  10  21  40  65  91 122 161 211 268 327 384
#     4  10  20  35  54  87 124 162 203 255 320 390
#     4   9  19  38  66  97 127 162 205 260 326 391
#     4  10  21  35  58  90 126 162 208 253 312 381
#     4  10  21  37  58  87 125 166 209 258 321 388
#
# _framework density 24.727215999999999
#
# number of rings (size 3 to 8) (size 9 to 14) (size 15 to 20)
#    0.000    1.875    2.500    1.125    0.000    5.750 
#    0.000    0.000    0.000    1.500    0.000    0.000 
#    0.000    0.000    0.000    0.000    0.000    0.000 
#
# Total GULP energy -357170.856750 kJ/mol
# GULP energy per Si atom -5580.794637 kJ/mol
# Density = 2.467094 g / cm^3
# Si number density = 24.727216 Si / 1000 Ang^3
#
#
#
# Elastic Constant Matrix: (Units=GPa)
#
#
# Indices 1 2 3 4 5 6 
#
# 1 238.2382 23.5321 34.2235 0.0000 0.0000 0.0000
# 2 23.5321 71.2010 13.8131 0.0000 0.0000 0.0000
# 3 34.2235 13.8131 92.9383 0.0000 0.0000 0.0000
# 4 0.0000 0.0000 0.0000 1.3787 0.0000 0.0000
# 5 0.0000 0.0000 0.0000 0.0000 40.5989 0.0000
# 6 0.0000 0.0000 0.0000 0.0000 0.0000 -59.0739
#
#
#
# Elastic Compliance Matrix: (Units=1/GPa)
#
#
# Indices 1 2 3 4 5 6 
#
# 1 0.004531 -0.001209 -0.001489 0.000000 0.000000 0.000000
# 2 -0.001209 0.014784 -0.001752 0.000000 0.000000 0.000000
# 3 -0.001489 -0.001752 0.011568 0.000000 0.000000 0.000000
# 4 0.000000 0.000000 0.000000 0.725312 0.000000 0.000000
# 5 0.000000 0.000000 0.000000 0.000000 0.024631 0.000000
# 6 0.000000 0.000000 0.000000 0.000000 0.000000 -0.016928
#
#
# Mechanical properties :
#
#
# Convention : Reuss Voigt Hill
#
# Bulk Modulus (GPa) = 45.48743 60.61278 53.05010
# Shear Modulus (GPa) = 6.40922 18.63465 12.52194
#
# Velocity S-wave (km/s) = 1.61171 2.74817 2.25278
# Velocity P-wave (km/s) = 4.67965 5.88521 5.31671
#
# Compressibility (1/GPa) = 0.02198410
#
# Stress axis : x y z
#
# Youngs Moduli (GPa) = 220.71531 67.64007 86.44183
#
# Poissons Ratio (x) = 0.08175 0.12869
# Poissons Ratio (y) = 0.26676 0.15147
# Poissons Ratio (z) = 0.32859 0.11852
#
# Static dielectric constant tensor:
#      x y z
#    x 2.053000 0.000000 0.000000 
#    y 0.000000 1.947710 0.000000 
#    z 0.000000 0.000000 1.934460 
# 
# From -- ./inp_files/59215.got.cif
#   From: 2010.05.17/outbox.cif.g08.bks.cpg/sg74_30_cif.got.tgz:59215.got - 2010.06.03 17:57:02.
