data_PCOD9537234
_publ_section_title
;
Structure prediction by ZEFSAII (Michael W. Deem and Ramdas Pophale) SiO2 
 PCOD9537234
Probable space group: I M M A
;
_chemical_formula_sum "Si O2"
_cell_formula_units_Z 112
_cell_length_a 30.270090
_cell_length_b 15.797753
_cell_length_c 12.593770
_cell_angle_alpha 90.000000
_cell_angle_beta 90.000000
_cell_angle_gamma 90.000000
_cell_volume 6022.333322
_symmetry_space_group_name_H-M "I M M A"
_symmetry_group_IT_number 74
_symmetry_cell_setting 'orthorhombic'
loop_
_space_group_symop_operation_xyz
x,y,z
-x,1/2-y,z
x,-y,-z
-x,1/2+y,-z
-x,-y,-z
x,1/2+y,-z
-x,y,z
x,1/2-y,z
1/2+x,1/2+y,1/2+z
1/2-x,-y,1/2+z
1/2+x,1/2-y,1/2-z
1/2-x,y,1/2-z
1/2-x,1/2-y,1/2-z
1/2+x,y,1/2-z
1/2-x,1/2+y,1/2+z
1/2+x,-y,1/2+z
loop_
_atom_site_type_symbol
_atom_site_label
_atom_site_fract_x
_atom_site_fract_y
_atom_site_fract_z
Si Si1 0.788608 0.852438 0.048398
Si Si2 0.451322 0.150853 0.786187
Si Si3 0.643298 0.146362 0.732525
Si Si4 0.295898 0.646397 0.695082
Si Si5 0.451166 0.098663 0.026368
Si Si6 0.635384 0.653402 0.861762
Si Si7 0.189521 0.908287 0.446950
O O1 0.785129 0.750000 0.050180
O O2 0.826254 0.876190 0.132350
O O3 0.740563 0.888775 0.075185
O O4 0.798327 0.878694 0.927325
O O5 0.500000 0.112147 0.765860
O O6 0.454140 0.250000 0.760512
O O7 0.407880 0.118460 0.726681
O O8 0.443109 0.143519 0.912954
O O9 0.644461 0.250000 0.743619
O O10 0.663269 0.106026 0.838833
O O11 0.295988 0.750000 0.699340
O O12 0.250000 0.618898 0.750000
O O13 0.336977 0.615046 0.764674
O O14 0.500000 0.125285 0.065224
O O15 0.410455 0.112361 0.104154
O O16 0.452750 0.000000 0.000000
O O17 0.625095 0.750000 0.835128
O O18 0.668541 0.651377 0.962447
O O19 0.184356 0.000000 0.500000
#
# Coordination Sequence:
#
# PCOD9537234 Si02
#       7
#    16  16  16  16  16  16  16
#     4  10  20  38  57  74 102 146 192 226 264 319
#     4   9  17  30  50  76 104 135 170 209 260 322
#     4  10  20  35  57  80 107 142 183 227 270 320
#     4   9  17  32  54  75  97 134 182 222 260 312
#     4  10  20  33  50  78 109 137 170 215 273 325
#     4  11  20  33  55  76 101 140 179 215 260 320
#     4  12  23  34  48  78 112 140 174 218 276 320
#
# _framework density 18.597442999999998
#
# number of rings (size 3 to 8) (size 9 to 14) (size 15 to 20)
#    0.000    1.857    2.857    2.571    0.000    2.000 
#    5.143    0.000    0.000    0.857    0.000    4.000 
#    0.000    4.000    0.000    0.000    0.000    0.000 
#
# Total GULP energy -312531.886459 kJ/mol
# GULP energy per Si atom -5580.926544 kJ/mol
# Density = 1.855511 g / cm^3
# Si number density = 18.597443 Si / 1000 Ang^3
#
#
#
# Elastic Constant Matrix: (Units=GPa)
#
#
# Indices 1 2 3 4 5 6 
#
# 1 188.4709 17.5505 68.7400 0.0000 0.0000 0.0000
# 2 17.5505 24.9095 10.4529 0.0000 0.0000 0.0000
# 3 68.7400 10.4529 92.7067 0.0000 0.0000 0.0000
# 4 0.0000 0.0000 0.0000 10.5522 0.0000 0.0000
# 5 0.0000 0.0000 0.0000 0.0000 42.2006 0.0000
# 6 0.0000 0.0000 0.0000 0.0000 0.0000 16.2667
#
#
#
# Elastic Compliance Matrix: (Units=1/GPa)
#
#
# Indices 1 2 3 4 5 6 
#
# 1 0.007493 -0.003094 -0.005207 0.000000 0.000000 0.000000
# 2 -0.003094 0.043417 -0.002601 0.000000 0.000000 0.000000
# 3 -0.005207 -0.002601 0.014941 0.000000 0.000000 0.000000
# 4 0.000000 0.000000 0.000000 0.094767 0.000000 0.000000
# 5 0.000000 0.000000 0.000000 0.000000 0.023696 0.000000
# 6 0.000000 0.000000 0.000000 0.000000 0.000000 0.061475
#
#
# Mechanical properties :
#
#
# Convention : Reuss Voigt Hill
#
# Bulk Modulus (GPa) = 22.70347 55.50822 39.10585
# Shear Modulus (GPa) = 17.71314 27.76015 22.73664
#
# Velocity S-wave (km/s) = 3.08953 3.86772 3.50032
# Velocity P-wave (km/s) = 4.99612 7.06100 6.11633
#
# Compressibility (1/GPa) = 0.04404612
#
# Stress axis : x y z
#
# Youngs Moduli (GPa) = 133.45476 23.03249 66.93018
#
# Poissons Ratio (x) = 0.07127 0.34851
# Poissons Ratio (y) = 0.41296 0.17408
# Poissons Ratio (z) = 0.69492 0.05991
#
# Static dielectric constant tensor:
#      x y z
#    x 1.671820 0.000000 0.000000 
#    y 0.000000 1.689790 0.000000 
#    z 0.000000 0.000000 1.620500 
# 
# From -- ./inp_files/27216.got.cif
#   From: 2010.05.17/outbox.cif.g08.bks.cpg/sg74_14_cif.got.tgz:27216.got - 2010.06.03 17:57:02.
