data_PCOD9537387
_publ_section_title
;
Structure prediction by ZEFSAII (Michael W. Deem and Ramdas Pophale) SiO2 
 PCOD9537387
Probable space group: I M M A
;
_chemical_formula_sum "Si O2"
_cell_formula_units_Z 112
_cell_length_a 14.480365
_cell_length_b 28.070116
_cell_length_c 11.613186
_cell_angle_alpha 90.000000
_cell_angle_beta 90.000000
_cell_angle_gamma 90.000000
_cell_volume 4720.359748
_symmetry_space_group_name_H-M "I M M A"
_symmetry_group_IT_number 74
_symmetry_cell_setting 'orthorhombic'
loop_
_space_group_symop_operation_xyz
x,y,z
-x,1/2-y,z
x,-y,-z
-x,1/2+y,-z
-x,-y,-z
x,1/2+y,-z
-x,y,z
x,1/2-y,z
1/2+x,1/2+y,1/2+z
1/2-x,-y,1/2+z
1/2+x,1/2-y,1/2-z
1/2-x,y,1/2-z
1/2-x,1/2-y,1/2-z
1/2+x,y,1/2-z
1/2-x,1/2+y,1/2+z
1/2+x,-y,1/2+z
loop_
_atom_site_type_symbol
_atom_site_label
_atom_site_fract_x
_atom_site_fract_y
_atom_site_fract_z
Si Si1 0.107816 0.195853 0.385393
Si Si2 0.610490 0.802250 0.530236
Si Si3 0.111032 0.700220 0.238991
Si Si4 0.635695 0.015225 0.369546
Si Si5 0.844734 0.120498 0.189769
Si Si6 0.887267 0.374963 0.589244
Si Si7 0.653243 0.518810 0.118446
O O1 0.147430 0.250000 0.374343
O O2 0.113976 0.160397 0.276237
O O3 0.138902 0.162763 0.490746
O O4 0.000000 0.202716 0.406934
O O5 0.500000 0.809797 0.547131
O O6 0.631970 0.750000 0.581438
O O7 0.627687 0.799596 0.395380
O O8 0.664511 0.846683 0.578969
O O9 0.146497 0.750000 0.291440
O O10 0.141611 0.652260 0.296025
O O11 0.000000 0.700907 0.255529
O O12 0.610190 0.989031 0.247027
O O13 0.746653 0.006567 0.376184
O O14 0.603811 0.000000 0.500000
O O15 0.610574 0.070480 0.344946
O O16 0.750000 0.106639 0.250000
O O17 0.838764 0.425474 0.590946
O O18 0.000000 0.382763 0.583839
O O19 0.606312 0.500000 0.000000
#
# Coordination Sequence:
#
# PCOD9537387 Si02
#       7
#    16  16  16  16  16  16  16
#     4  10  22  40  63  94 130 164 196 242 310 381
#     4   9  19  36  59  86 119 158 195 237 299 371
#     4   8  15  31  54  82 116 150 188 235 287 353
#     4  10  23  41  61  81 110 162 211 259 310 364
#     4  12  23  38  62  86 118 159 204 257 301 367
#     4  10  20  33  59  90 118 152 196 245 298 363
#     4  10  20  39  61  81 113 154 208 255 305 363
#
# _framework density 23.727005999999999
#
# number of rings (size 3 to 8) (size 9 to 14) (size 15 to 20)
#    0.000    2.143    1.429    3.000    4.000    4.286 
#    0.000    1.429    0.000    2.143    0.000    7.000 
#    0.000    0.000    0.000    0.000    0.000    0.000 
#
# Total GULP energy -312185.593339 kJ/mol
# GULP energy per Si atom -5574.742738 kJ/mol
# Density = 2.367300 g / cm^3
# Si number density = 23.727006 Si / 1000 Ang^3
#
#
#
# Elastic Constant Matrix: (Units=GPa)
#
#
# Indices 1 2 3 4 5 6 
#
# 1 75.7795 21.6129 17.3851 0.0008 0.0000 0.0000
# 2 21.6129 217.1945 70.6150 -0.0009 0.0000 0.0000
# 3 17.3851 70.6150 132.9748 0.0002 -0.0002 -0.0001
# 4 0.0008 -0.0009 0.0002 118.5437 0.0003 0.0001
# 5 0.0000 0.0000 -0.0002 0.0003 -0.5966 0.0000
# 6 0.0000 0.0000 -0.0001 0.0001 0.0000 12.1937
#
#
#
# Elastic Compliance Matrix: (Units=1/GPa)
#
#
# Indices 1 2 3 4 5 6 
#
# 1 0.013764 -0.000948 -0.001296 0.000000 0.000000 0.000000
# 2 -0.000948 0.005630 -0.002866 0.000000 0.000001 0.000000
# 3 -0.001296 -0.002866 0.009212 0.000000 -0.000003 0.000000
# 4 0.000000 0.000000 0.000000 0.008436 0.000004 0.000000
# 5 0.000000 0.000001 -0.000003 0.000004 -1.676121 -0.000002
# 6 0.000000 0.000000 0.000000 0.000000 -0.000002 0.082010
#
#
# Mechanical properties :
#
#
# Convention : Reuss Voigt Hill
#
# Bulk Modulus (GPa) = 54.39060 71.68608 63.03834
# Shear Modulus (GPa) = -3.24523 47.11722 21.93599
#
# Velocity S-wave (km/s) = -1.17077 4.46107 3.04388
# Velocity P-wave (km/s) = 4.59844 7.53746 6.24336
#
# Compressibility (1/GPa) = 0.01838553
#
# Stress axis : x y z
#
# Youngs Moduli (GPa) = 72.65359 177.60987 108.55905
#
# Poissons Ratio (x) = 0.16843 0.14068
# Poissons Ratio (y) = 0.06890 0.31112
# Poissons Ratio (z) = 0.09415 0.50902
#
# Static dielectric constant tensor:
#      x y z
#    x 1.950340 0.000000 0.000000 
#    y 0.000000 1.719770 0.000000 
#    z 0.000000 0.000000 2.031420 
# 
# From -- ./inp_files/24198.got.cif
#   From: 2010.05.17/outbox.cif.g08.bks.cpg/sg74_13_cif.got.tgz:24198.got - 2010.06.03 17:57:02.
