data_PCOD9537494
_publ_section_title
;
Structure prediction by ZEFSAII (Michael W. Deem and Ramdas Pophale) SiO2 
 PCOD9537494
Probable space group: I M M A
;
_chemical_formula_sum "Si O2"
_cell_formula_units_Z 48
_cell_length_a 8.089634
_cell_length_b 7.549426
_cell_length_c 39.344748
_cell_angle_alpha 90.000000
_cell_angle_beta 90.000000
_cell_angle_gamma 90.000000
_cell_volume 2402.866119
_symmetry_space_group_name_H-M "I M M A"
_symmetry_group_IT_number 74
_symmetry_cell_setting 'orthorhombic'
loop_
_space_group_symop_operation_xyz
x,y,z
-x,1/2-y,z
x,-y,-z
-x,1/2+y,-z
-x,-y,-z
x,1/2+y,-z
-x,y,z
x,1/2-y,z
1/2+x,1/2+y,1/2+z
1/2-x,-y,1/2+z
1/2+x,1/2-y,1/2-z
1/2-x,y,1/2-z
1/2-x,1/2-y,1/2-z
1/2+x,y,1/2-z
1/2-x,1/2+y,1/2+z
1/2+x,-y,1/2+z
loop_
_atom_site_type_symbol
_atom_site_label
_atom_site_fract_x
_atom_site_fract_y
_atom_site_fract_z
Si Si1 0.500000 0.462181 0.460172
Si Si2 0.698450 0.449609 0.160140
Si Si3 0.194728 0.250000 0.788893
Si Si4 0.190562 0.033640 0.415982
O O1 0.500000 0.250000 0.455637
O O2 0.500000 0.500000 0.500000
O O3 0.668838 0.526745 0.442149
O O4 0.500000 0.439936 0.159100
O O5 0.763682 0.250000 0.164977
O O6 0.745808 0.579620 0.190125
O O7 0.744437 0.515621 0.122375
O O8 0.250000 0.250000 0.750000
O O9 0.000000 0.250000 0.789347
O O10 0.185796 0.250000 0.416254
O O11 0.000000 0.975606 0.422415
#
# Coordination Sequence:
#
# PCOD9537494 Si02
#       4
#     8  16   8  16
#     4  10  20  34  52  78 114 150 186 244 296 354
#     4   9  19  39  65  88 113 152 202 253 302 359
#     4  12  26  40  58  88 126 162 194 248 306 364
#     4   8  16  33  57  80 106 147 195 241 293 351
#
# _framework density 19.976144999999999
#
# number of rings (size 3 to 8) (size 9 to 14) (size 15 to 20)
#    0.000    2.667    0.000    3.500    2.333    2.000 
#    3.000    0.000    0.000    0.000    0.000    0.000 
#    0.000    0.000    0.000    0.000    0.000    0.000 
#
# Total GULP energy -133938.130061 kJ/mol
# GULP energy per Si atom -5580.755419 kJ/mol
# Density = 1.993068 g / cm^3
# Si number density = 19.976145 Si / 1000 Ang^3
#
#
#
# Elastic Constant Matrix: (Units=GPa)
#
#
# Indices 1 2 3 4 5 6 
#
# 1 88.1833 26.4133 89.0641 0.0000 0.0000 0.0000
# 2 26.4133 70.6537 54.0688 0.0000 0.0000 0.0000
# 3 89.0641 54.0688 205.9038 0.0000 0.0000 0.0000
# 4 0.0000 0.0000 0.0000 30.0508 0.0000 0.0000
# 5 0.0000 0.0000 0.0000 0.0000 42.7696 0.0000
# 6 0.0000 0.0000 0.0000 0.0000 0.0000 15.3576
#
#
#
# Elastic Compliance Matrix: (Units=1/GPa)
#
#
# Indices 1 2 3 4 5 6 
#
# 1 0.020204 -0.001083 -0.008455 0.000000 0.000000 0.000000
# 2 -0.001083 0.017771 -0.004198 0.000000 0.000000 0.000000
# 3 -0.008455 -0.004198 0.009616 0.000000 0.000000 0.000000
# 4 0.000000 0.000000 0.000000 0.033277 0.000000 0.000000
# 5 0.000000 0.000000 0.000000 0.000000 0.023381 0.000000
# 6 0.000000 0.000000 0.000000 0.000000 0.000000 0.065114
#
#
# Mechanical properties :
#
#
# Convention : Reuss Voigt Hill
#
# Bulk Modulus (GPa) = 49.70347 78.20369 63.95358
# Shear Modulus (GPa) = 24.56507 30.64857 27.60682
#
# Velocity S-wave (km/s) = 3.51054 3.92121 3.72154
# Velocity P-wave (km/s) = 6.43174 7.72882 7.10992
#
# Compressibility (1/GPa) = 0.02011932
#
# Stress axis : x y z
#
# Youngs Moduli (GPa) = 49.49623 56.27126 103.99147
#
# Poissons Ratio (x) = 0.06093 0.87922
# Poissons Ratio (y) = 0.05359 0.43658
# Poissons Ratio (z) = 0.41848 0.23624
#
# Static dielectric constant tensor:
#      x y z
#    x 1.651030 0.000000 0.000000 
#    y 0.000000 1.698740 0.000000 
#    z 0.000000 0.000000 1.624120 
# 
# From -- ./inp_files/69531.got.cif
#   From: 2010.05.17/outbox.cif.g08.bks.cpg/sg74_35_cif.got.tgz:69531.got - 2010.06.03 17:57:02.
