data_PCOD9537240
_publ_section_title
;
Structure prediction by ZEFSAII (Michael W. Deem and Ramdas Pophale) SiO2 
 PCOD9537240
Probable space group: I M M A
;
_chemical_formula_sum "Si O2"
_cell_formula_units_Z 96
_cell_length_a 14.513613
_cell_length_b 22.972526
_cell_length_c 16.812612
_cell_angle_alpha 90.000000
_cell_angle_beta 90.000000
_cell_angle_gamma 90.000000
_cell_volume 5605.566135
_symmetry_space_group_name_H-M "I M M A"
_symmetry_group_IT_number 74
_symmetry_cell_setting 'orthorhombic'
loop_
_space_group_symop_operation_xyz
x,y,z
-x,1/2-y,z
x,-y,-z
-x,1/2+y,-z
-x,-y,-z
x,1/2+y,-z
-x,y,z
x,1/2-y,z
1/2+x,1/2+y,1/2+z
1/2-x,-y,1/2+z
1/2+x,1/2-y,1/2-z
1/2-x,y,1/2-z
1/2-x,1/2-y,1/2-z
1/2+x,y,1/2-z
1/2-x,1/2+y,1/2+z
1/2+x,-y,1/2+z
loop_
_atom_site_type_symbol
_atom_site_label
_atom_site_fract_x
_atom_site_fract_y
_atom_site_fract_z
Si Si1 0.108805 0.040028 0.879519
Si Si2 0.106591 0.750000 0.047496
Si Si3 0.398269 0.654318 0.135866
Si Si4 0.858845 0.250000 0.762762
Si Si5 0.724692 0.858734 0.466639
Si Si6 0.604804 0.978430 0.191752
Si Si7 0.735508 0.539170 0.927017
O O1 0.167775 0.094748 0.912133
O O2 0.119613 0.033125 0.784865
O O3 0.000000 0.044869 0.898031
O O4 0.160102 0.983467 0.914453
O O5 0.117337 0.750000 0.144368
O O6 0.156011 0.692969 0.014637
O O7 0.000000 0.750000 0.028847
O O8 0.500000 0.664666 0.100515
O O9 0.393764 0.692813 0.216008
O O10 0.311092 0.667930 0.081162
O O11 0.388698 0.585768 0.153510
O O12 0.750000 0.250000 0.750000
O O13 0.761610 0.895519 0.541387
O O14 0.500000 0.999693 0.180589
O O15 0.676343 0.021478 0.149571
O O16 0.696689 0.500000 0.000000
#
# Coordination Sequence:
#
# PCOD9537240 Si02
#       7
#    16   8  16   8  16  16  16
#     4  10  20  33  52  76 104 138 178 223 269 317
#     4  12  24  37  54  75 107 144 185 224 260 309
#     4  11  21  33  50  73 105 141 180 220 262 307
#     4  12  22  35  53  74 107 145 188 226 253 302
#     4  11  22  36  52  78 104 147 182 221 266 316
#     4  10  20  33  53  78 105 138 179 224 273 321
#     4  10  20  33  51  73 106 139 177 217 271 321
#
# _framework density 17.125834999999999
#
# number of rings (size 3 to 8) (size 9 to 14) (size 15 to 20)
#    0.000    1.333    5.000    2.750    0.000    6.000 
#    0.000    0.000    0.000    0.000    0.000    2.333 
#    0.000    2.667    0.000    0.000    0.000    0.000 
#
# Total GULP energy -267852.706054 kJ/mol
# GULP energy per Si atom -5580.264709 kJ/mol
# Density = 1.708686 g / cm^3
# Si number density = 17.125835 Si / 1000 Ang^3
#
#
#
# Elastic Constant Matrix: (Units=GPa)
#
#
# Indices 1 2 3 4 5 6 
#
# 1 103.3453 22.1053 21.1482 0.0000 0.0000 0.0000
# 2 22.1053 79.2085 17.7535 0.0001 0.0000 0.0000
# 3 21.1482 17.7535 30.0910 0.0003 -0.0001 0.0000
# 4 0.0000 0.0001 0.0003 27.3625 0.0000 0.0000
# 5 0.0000 0.0000 -0.0001 0.0000 15.7669 0.0000
# 6 0.0000 0.0000 0.0000 0.0000 0.0000 18.5915
#
#
#
# Elastic Compliance Matrix: (Units=1/GPa)
#
#
# Indices 1 2 3 4 5 6 
#
# 1 0.011477 -0.001608 -0.007117 0.000000 0.000000 0.000000
# 2 -0.001608 0.014774 -0.007587 0.000000 0.000000 0.000000
# 3 -0.007117 -0.007587 0.042711 0.000000 0.000000 0.000000
# 4 0.000000 0.000000 0.000000 0.036546 0.000000 0.000000
# 5 0.000000 0.000000 0.000000 0.000000 0.063424 0.000000
# 6 0.000000 0.000000 0.000000 0.000000 0.000000 0.053788
#
#
# Mechanical properties :
#
#
# Convention : Reuss Voigt Hill
#
# Bulk Modulus (GPa) = 27.51943 37.18432 32.35187
# Shear Modulus (GPa) = 18.69467 22.45337 20.57402
#
# Velocity S-wave (km/s) = 3.30753 3.62481 3.46980
# Velocity P-wave (km/s) = 5.53987 6.26726 5.91476
#
# Compressibility (1/GPa) = 0.03633796
#
# Stress axis : x y z
#
# Youngs Moduli (GPa) = 87.13353 67.68641 23.41329
#
# Poissons Ratio (x) = 0.10881 0.16664
# Poissons Ratio (y) = 0.14008 0.17763
# Poissons Ratio (z) = 0.62016 0.51352
#
# Static dielectric constant tensor:
#      x y z
#    x 1.618900 0.000000 0.000000 
#    y 0.000000 1.584790 0.000000 
#    z 0.000000 0.000000 1.596270 
# 
# From -- ./inp_files/32621.got.cif
#   From: 2010.05.17/outbox.cif.g08.bks.cpg/sg74_17_cif.got.tgz:32621.got - 2010.06.03 17:57:02.
