data_PCOD9537933
_publ_section_title
;
Structure prediction by ZEFSAII (Michael W. Deem and Ramdas Pophale) SiO2 
 PCOD9537933
Probable space group: I M M A
;
_chemical_formula_sum "Si O2"
_cell_formula_units_Z 88
_cell_length_a 24.894648
_cell_length_b 8.512980
_cell_length_c 20.838991
_cell_angle_alpha 90.000000
_cell_angle_beta 90.000000
_cell_angle_gamma 90.000000
_cell_volume 4416.358194
_symmetry_space_group_name_H-M "I M M A"
_symmetry_group_IT_number 74
_symmetry_cell_setting 'orthorhombic'
loop_
_space_group_symop_operation_xyz
x,y,z
-x,1/2-y,z
x,-y,-z
-x,1/2+y,-z
-x,-y,-z
x,1/2+y,-z
-x,y,z
x,1/2-y,z
1/2+x,1/2+y,1/2+z
1/2-x,-y,1/2+z
1/2+x,1/2-y,1/2-z
1/2-x,y,1/2-z
1/2-x,1/2-y,1/2-z
1/2+x,y,1/2-z
1/2-x,1/2+y,1/2+z
1/2+x,-y,1/2+z
loop_
_atom_site_type_symbol
_atom_site_label
_atom_site_fract_x
_atom_site_fract_y
_atom_site_fract_z
Si Si1 0.280641 0.059719 0.316186
Si Si2 0.208262 0.438141 0.434874
Si Si3 0.000000 0.939562 0.924999
Si Si4 0.061468 0.574483 0.299162
Si Si5 0.599755 0.059540 0.664347
Si Si6 0.914255 0.563711 0.565830
O O1 0.287159 0.250000 0.312916
O O2 0.250000 0.011982 0.250000
O O3 0.239333 0.016032 0.371921
O O4 0.337664 0.989103 0.339834
O O5 0.234086 0.500000 0.500000
O O6 0.206478 0.250000 0.437402
O O7 0.147171 0.496825 0.432203
O O8 0.000000 0.750000 0.925982
O O9 0.054134 0.996289 0.885656
O O10 0.000000 0.000000 0.000000
O O11 0.084120 0.750000 0.309359
O O12 0.088070 0.499418 0.237023
O O13 0.062647 0.487053 0.366365
O O14 0.000000 0.589327 0.279539
O O15 0.595005 0.250000 0.663586
O O16 0.938925 0.500000 0.500000
O O17 0.914967 0.750000 0.561915
#
# Coordination Sequence:
#
# PCOD9537933 Si02
#       6
#    16  16   8  16  16  16
#     4  10  21  38  60  89 125 163 208 261 313 372
#     4   9  19  35  55  79 112 149 188 237 290 347
#     4  12  26  46  72  98 127 166 215 268 330 396
#     4  10  21  38  58  80 113 153 192 241 295 347
#     4  11  23  42  65  92 127 163 206 261 320 381
#     4  10  20  35  56  83 114 153 198 243 293 348
#
# _framework density 19.925920999999999
#
# number of rings (size 3 to 8) (size 9 to 14) (size 15 to 20)
#    0.000    1.818    0.909    3.000    0.000    6.182 
#    0.000    1.818    0.000    0.000    0.000    0.000 
#    0.000    0.000    0.000    0.000    0.000    0.000 
#
# Total GULP energy -245112.675522 kJ/mol
# GULP energy per Si atom -5570.742625 kJ/mol
# Density = 1.988057 g / cm^3
# Si number density = 19.925921 Si / 1000 Ang^3
#
#
#
# Elastic Constant Matrix: (Units=GPa)
#
#
# Indices 1 2 3 4 5 6 
#
# 1 109.7812 19.8510 50.8227 0.0000 0.0000 0.0000
# 2 19.8510 45.2624 28.3359 0.0000 0.0000 0.0000
# 3 50.8227 28.3359 144.4314 0.0000 0.0000 0.0000
# 4 0.0000 0.0000 0.0000 27.5341 0.0000 0.0000
# 5 0.0000 0.0000 0.0000 0.0000 11.7615 0.0000
# 6 0.0000 0.0000 0.0000 0.0000 0.0000 26.3066
#
#
#
# Elastic Compliance Matrix: (Units=1/GPa)
#
#
# Indices 1 2 3 4 5 6 
#
# 1 0.011181 -0.002782 -0.003388 0.000000 0.000000 0.000000
# 2 -0.002782 0.025879 -0.004098 0.000000 0.000000 0.000000
# 3 -0.003388 -0.004098 0.008920 0.000000 0.000000 0.000000
# 4 0.000000 0.000000 0.000000 0.036319 0.000000 0.000000
# 5 0.000000 0.000000 0.000000 0.000000 0.085023 0.000000
# 6 0.000000 0.000000 0.000000 0.000000 0.000000 0.038013
#
#
# Mechanical properties :
#
#
# Convention : Reuss Voigt Hill
#
# Bulk Modulus (GPa) = 39.30479 55.27714 47.29096
# Shear Modulus (GPa) = 21.33529 26.48481 23.91005
#
# Velocity S-wave (km/s) = 3.27575 3.64973 3.46778
# Velocity P-wave (km/s) = 5.83744 6.74998 6.31022
#
# Compressibility (1/GPa) = 0.02544219
#
# Stress axis : x y z
#
# Youngs Moduli (GPa) = 89.43899 38.64092 112.10689
#
# Poissons Ratio (x) = 0.10751 0.37987
# Poissons Ratio (y) = 0.24885 0.45944
# Poissons Ratio (z) = 0.30306 0.15836
#
# Static dielectric constant tensor:
#      x y z
#    x 1.755620 0.000000 0.000000 
#    y 0.000000 1.707900 0.000000 
#    z 0.000000 0.000000 1.739430 
# 
# From -- ./inp_files/54530.got.cif
#   From: 2010.05.17/outbox.cif.g08.bks.cpg/sg74_28_cif.got.tgz:54530.got - 2010.06.03 17:57:02.
