data_PCOD9537816
_publ_section_title
;
Structure prediction by ZEFSAII (Michael W. Deem and Ramdas Pophale) SiO2 
 PCOD9537816
Probable space group: I M M A
;
_chemical_formula_sum "Si O2"
_cell_formula_units_Z 96
_cell_length_a 8.603556
_cell_length_b 24.822017
_cell_length_c 23.989504
_cell_angle_alpha 90.000000
_cell_angle_beta 90.000000
_cell_angle_gamma 90.000000
_cell_volume 5123.141218
_symmetry_space_group_name_H-M "I M M A"
_symmetry_group_IT_number 74
_symmetry_cell_setting 'orthorhombic'
loop_
_space_group_symop_operation_xyz
x,y,z
-x,1/2-y,z
x,-y,-z
-x,1/2+y,-z
-x,-y,-z
x,1/2+y,-z
-x,y,z
x,1/2-y,z
1/2+x,1/2+y,1/2+z
1/2-x,-y,1/2+z
1/2+x,1/2-y,1/2-z
1/2-x,y,1/2-z
1/2-x,1/2-y,1/2-z
1/2+x,y,1/2-z
1/2-x,1/2+y,1/2+z
1/2+x,-y,1/2+z
loop_
_atom_site_type_symbol
_atom_site_label
_atom_site_fract_x
_atom_site_fract_y
_atom_site_fract_z
Si Si1 0.313481 0.188109 0.187583
Si Si2 0.688087 0.913882 0.483333
Si Si3 0.314977 0.522664 0.118710
Si Si4 0.186404 0.091443 0.112820
Si Si5 0.686274 0.122559 0.688545
Si Si6 0.688607 0.309349 0.585224
O O1 0.500000 0.185500 0.188776
O O2 0.268194 0.250000 0.172630
O O3 0.250000 0.177822 0.250000
O O4 0.250648 0.143325 0.145094
O O5 0.500000 0.918765 0.480605
O O6 0.755514 0.959975 0.443051
O O7 0.734151 0.911542 0.547687
O O8 0.737001 0.857163 0.455671
O O9 0.500000 0.521320 0.118687
O O10 0.248051 0.465016 0.136624
O O11 0.253684 0.568940 0.159915
O O12 0.000000 0.092829 0.115141
O O13 0.500000 0.118313 0.689180
O O14 0.750000 0.129660 0.750000
O O15 0.729698 0.171512 0.647362
O O16 0.500000 0.307959 0.582351
O O17 0.747798 0.250000 0.571845
#
# Coordination Sequence:
#
# PCOD9537816 Si02
#       6
#    16  16  16  16  16  16
#     4  10  22  41  62  84 113 146 181 224 273 324
#     4   9  19  35  55  80 112 147 182 224 271 320
#     4  11  22  36  55  79 110 146 183 226 277 328
#     4  11  22  36  58  86 113 144 184 224 267 325
#     4  10  20  35  54  77 107 142 182 227 274 324
#     4   8  15  30  52  77 106 141 179 219 263 311
#
# _framework density 18.738503999999999
#
# number of rings (size 3 to 8) (size 9 to 14) (size 15 to 20)
#    0.000    2.167    0.000    4.500    0.000    6.000 
#    0.000    5.000    0.000   12.000    0.000    0.000 
#    0.000    0.000    0.000    0.000    0.000    0.000 
#
# Total GULP energy -267935.755067 kJ/mol
# GULP energy per Si atom -5581.994897 kJ/mol
# Density = 1.869585 g / cm^3
# Si number density = 18.738504 Si / 1000 Ang^3
#
#
#
# Elastic Constant Matrix: (Units=GPa)
#
#
# Indices 1 2 3 4 5 6 
#
# 1 49.4480 22.8239 10.3218 0.0000 0.0000 0.0000
# 2 22.8239 124.6848 20.6090 0.0000 0.0000 0.0000
# 3 10.3218 20.6090 33.7729 0.0000 0.0000 0.0000
# 4 0.0000 0.0000 0.0000 19.4726 0.0000 0.0000
# 5 0.0000 0.0000 0.0000 0.0000 29.0218 0.0000
# 6 0.0000 0.0000 0.0000 0.0000 0.0000 24.5003
#
#
#
# Elastic Compliance Matrix: (Units=1/GPa)
#
#
# Indices 1 2 3 4 5 6 
#
# 1 0.022801 -0.003361 -0.004918 0.000000 0.000000 0.000000
# 2 -0.003361 0.009415 -0.004718 0.000000 0.000000 0.000000
# 3 -0.004918 -0.004718 0.033992 0.000000 0.000000 0.000000
# 4 0.000000 0.000000 0.000000 0.051354 0.000000 0.000000
# 5 0.000000 0.000000 0.000000 0.000000 0.034457 0.000000
# 6 0.000000 0.000000 0.000000 0.000000 0.000000 0.040816
#
#
# Mechanical properties :
#
#
# Convention : Reuss Voigt Hill
#
# Bulk Modulus (GPa) = 24.86671 35.04611 29.95641
# Shear Modulus (GPa) = 21.53007 24.87569 23.20288
#
# Velocity S-wave (km/s) = 3.39333 3.64746 3.52269
# Velocity P-wave (km/s) = 5.35277 6.04003 5.70675
#
# Compressibility (1/GPa) = 0.04021441
#
# Stress axis : x y z
#
# Youngs Moduli (GPa) = 43.85753 106.20973 29.41895
#
# Poissons Ratio (x) = 0.35697 0.14467
# Poissons Ratio (y) = 0.14740 0.13881
# Poissons Ratio (z) = 0.21568 0.50112
#
# Static dielectric constant tensor:
#      x y z
#    x 1.632770 0.000000 0.000000 
#    y 0.000000 1.645230 0.000000 
#    z 0.000000 0.000000 0.961870 
# 
# From -- ./inp_files/57292.got.cif
#   From: 2010.05.17/outbox.cif.g08.bks.cpg/sg74_29_cif.got.tgz:57292.got - 2010.06.03 17:57:02.
