data_PCOD9537855
_publ_section_title
;
Structure prediction by ZEFSAII (Michael W. Deem and Ramdas Pophale) SiO2 
 PCOD9537855
Probable space group: I M M A
;
_chemical_formula_sum "Si O2"
_cell_formula_units_Z 112
_cell_length_a 13.436370
_cell_length_b 26.616396
_cell_length_c 13.265668
_cell_angle_alpha 90.000000
_cell_angle_beta 90.000000
_cell_angle_gamma 90.000000
_cell_volume 4744.170929
_symmetry_space_group_name_H-M "I M M A"
_symmetry_group_IT_number 74
_symmetry_cell_setting 'orthorhombic'
loop_
_space_group_symop_operation_xyz
x,y,z
-x,1/2-y,z
x,-y,-z
-x,1/2+y,-z
-x,-y,-z
x,1/2+y,-z
-x,y,z
x,1/2-y,z
1/2+x,1/2+y,1/2+z
1/2-x,-y,1/2+z
1/2+x,1/2-y,1/2-z
1/2-x,y,1/2-z
1/2-x,1/2-y,1/2-z
1/2+x,y,1/2-z
1/2-x,1/2+y,1/2+z
1/2+x,-y,1/2+z
loop_
_atom_site_type_symbol
_atom_site_label
_atom_site_fract_x
_atom_site_fract_y
_atom_site_fract_z
Si Si1 0.380424 0.302715 0.727335
Si Si2 0.115958 0.168004 0.982171
Si Si3 0.807592 0.060668 0.933183
Si Si4 0.826380 0.463832 0.160410
Si Si5 0.115563 0.649239 0.799495
Si Si6 0.618905 0.117564 0.894189
Si Si7 0.621540 0.808390 0.916921
O O1 0.500000 0.303825 0.718899
O O2 0.354938 0.250000 0.778051
O O3 0.340209 0.304016 0.613948
O O4 0.357559 0.349379 0.796351
O O5 0.126815 0.110414 0.946283
O O6 0.000000 0.181770 0.989799
O O7 0.157339 0.171897 0.095366
O O8 0.698442 0.072833 0.889991
O O9 0.867483 0.019186 0.868279
O O10 0.783370 0.047192 0.049543
O O11 0.750000 0.471323 0.250000
O O12 0.880229 0.411683 0.190216
O O13 0.153506 0.668493 0.691784
O O14 0.000000 0.663442 0.799584
O O15 0.500000 0.105380 0.897184
O O16 0.643389 0.152794 0.991715
O O17 0.500000 0.806845 0.916310
O O18 0.653742 0.750000 0.929500
#
# Coordination Sequence:
#
# PCOD9537855 Si02
#       7
#    16  16  16  16  16  16  16
#     4   9  18  33  54  80 111 148 183 222 275 327
#     4   9  19  35  55  78 107 142 182 229 276 330
#     4  10  22  37  56  81 105 144 190 231 283 336
#     4  10  21  37  55  76 108 144 181 231 286 332
#     4   9  18  34  56  82 110 143 183 229 280 339
#     4  10  20  35  55  79 112 149 187 232 276 331
#     4   9  17  31  56  87 116 149 187 230 286 348
#
# _framework density 23.607918999999999
#
# number of rings (size 3 to 8) (size 9 to 14) (size 15 to 20)
#    0.000    2.571    0.000    1.286    2.000    2.857 
#    0.000   10.000    0.000    9.000    0.000    0.000 
#    0.000    0.000    0.000    0.286    0.000    0.000 
#
# Total GULP energy -312166.686097 kJ/mol
# GULP energy per Si atom -5574.405109 kJ/mol
# Density = 2.355419 g / cm^3
# Si number density = 23.607919 Si / 1000 Ang^3
#
#
#
# Elastic Constant Matrix: (Units=GPa)
#
#
# Indices 1 2 3 4 5 6 
#
# 1 81.4307 -5.1303 20.1205 0.0000 0.0000 0.0000
# 2 -5.1303 69.7571 14.7072 -0.0002 0.0000 0.0000
# 3 20.1205 14.7072 104.9108 -0.0002 0.0001 0.0001
# 4 0.0000 -0.0002 -0.0002 27.1473 0.0001 0.0000
# 5 0.0000 0.0000 0.0001 0.0001 22.7879 0.0000
# 6 0.0000 0.0000 0.0001 0.0000 0.0000 9.3720
#
#
#
# Elastic Compliance Matrix: (Units=1/GPa)
#
#
# Indices 1 2 3 4 5 6 
#
# 1 0.013048 0.001533 -0.002717 0.000000 0.000000 0.000000
# 2 0.001533 0.014952 -0.002390 0.000000 0.000000 0.000000
# 3 -0.002717 -0.002390 0.010388 0.000000 0.000000 0.000000
# 4 0.000000 0.000000 0.000000 0.036836 0.000000 0.000000
# 5 0.000000 0.000000 0.000000 0.000000 0.043883 0.000000
# 6 0.000000 0.000000 0.000000 0.000000 0.000000 0.106701
#
#
# Mechanical properties :
#
#
# Convention : Reuss Voigt Hill
#
# Bulk Modulus (GPa) = 32.01136 35.05483 33.53310
# Shear Modulus (GPa) = 20.54473 26.95485 23.74979
#
# Velocity S-wave (km/s) = 2.95320 3.38268 3.17521
# Velocity P-wave (km/s) = 5.02170 5.48978 5.26095
#
# Compressibility (1/GPa) = 0.03123891
#
# Stress axis : x y z
#
# Youngs Moduli (GPa) = 76.63796 66.88038 96.26387
#
# Poissons Ratio (x) = -0.10250 0.26158
# Poissons Ratio (y) = -0.11745 0.23007
# Poissons Ratio (z) = 0.20825 0.15985
#
# Static dielectric constant tensor:
#      x y z
#    x 1.923510 0.000000 0.000000 
#    y 0.000000 1.983170 0.000000 
#    z 0.000000 0.000000 1.885660 
# 
# From -- ./inp_files/21116.got.cif
#   From: 2010.05.17/outbox.cif.g08.bks.cpg/sg74_11_cif.got.tgz:21116.got - 2010.06.03 17:57:02.
