data_PCOD9537138
_publ_section_title
;
Structure prediction by ZEFSAII (Michael W. Deem and Ramdas Pophale) SiO2 
 PCOD9537138
Probable space group: I M M A
;
_chemical_formula_sum "Si O2"
_cell_formula_units_Z 128
_cell_length_a 25.592646
_cell_length_b 22.820207
_cell_length_c 12.144166
_cell_angle_alpha 90.000000
_cell_angle_beta 90.000000
_cell_angle_gamma 90.000000
_cell_volume 7092.550947
_symmetry_space_group_name_H-M "I M M A"
_symmetry_group_IT_number 74
_symmetry_cell_setting 'orthorhombic'
loop_
_space_group_symop_operation_xyz
x,y,z
-x,1/2-y,z
x,-y,-z
-x,1/2+y,-z
-x,-y,-z
x,1/2+y,-z
-x,y,z
x,1/2-y,z
1/2+x,1/2+y,1/2+z
1/2-x,-y,1/2+z
1/2+x,1/2-y,1/2-z
1/2-x,y,1/2-z
1/2-x,1/2-y,1/2-z
1/2+x,y,1/2-z
1/2-x,1/2+y,1/2+z
1/2+x,-y,1/2+z
loop_
_atom_site_type_symbol
_atom_site_label
_atom_site_fract_x
_atom_site_fract_y
_atom_site_fract_z
Si Si1 0.938590 0.318101 0.905526
Si Si2 0.613848 0.981139 0.879918
Si Si3 0.557101 0.370306 0.040789
Si Si4 0.940478 0.406035 0.708544
Si Si5 0.162712 0.819276 0.951517
Si Si6 0.245000 0.820650 0.373600
Si Si7 0.693480 0.898426 0.754789
Si Si8 0.831404 0.681345 0.554731
O O1 0.933603 0.250000 0.869121
O O2 0.925423 0.362112 0.806002
O O3 0.000000 0.326757 0.936151
O O4 0.896060 0.326393 0.001445
O O5 0.567409 0.936121 0.914324
O O6 0.652698 0.944006 0.805074
O O7 0.594509 0.037423 0.813769
O O8 0.636313 0.000000 0.000000
O O9 0.500000 0.349252 0.076807
O O10 0.608019 0.333774 0.072296
O O11 0.558260 0.372807 0.908385
O O12 0.000000 0.425606 0.731129
O O13 0.169045 0.750000 0.919107
O O14 0.174114 0.865031 0.854169
O O15 0.204250 0.830702 0.050125
O O16 0.240158 0.750000 0.364073
O O17 0.250000 0.844434 0.250000
O O18 0.193749 0.841538 0.440591
O O19 0.750000 0.927682 0.750000
O O20 0.699765 0.848105 0.846851
O O21 0.824172 0.750000 0.557290
#
# Coordination Sequence:
#
# PCOD9537138 Si02
#       8
#    16  16  16  16  16  16  16  16
#     4   9  19  35  55  84 118 148 182 225 276 334
#     4   9  19  37  58  78 107 142 190 237 285 334
#     4   9  18  31  51  79 110 145 187 232 282 335
#     4   9  17  33  58  81 106 147 187 224 273 336
#     4  10  20  35  57  82 114 154 191 228 278 342
#     4   9  18  31  49  76 110 152 193 229 274 331
#     4  11  21  37  59  82 107 146 198 242 280 332
#     4  10  20  32  51  81 117 150 184 231 282 337
#
# _framework density 18.047103
#
# number of rings (size 3 to 8) (size 9 to 14) (size 15 to 20)
#    0.000    2.500    1.250    0.750    1.750    2.750 
#    0.000    6.250    0.000    4.500    0.000    0.000 
#    0.000    0.000    0.000    0.000    0.000    0.000 
#
# Total GULP energy -356506.595210 kJ/mol
# GULP energy per Si atom -5570.415550 kJ/mol
# Density = 1.800603 g / cm^3
# Si number density = 18.047103 Si / 1000 Ang^3
#
#
#
# Elastic Constant Matrix: (Units=GPa)
#
#
# Indices 1 2 3 4 5 6 
#
# 1 82.0985 16.8187 33.7859 0.0000 0.0000 0.0000
# 2 16.8187 50.4687 35.1536 0.0000 0.0000 0.0000
# 3 33.7859 35.1536 93.1793 0.0000 0.0000 0.0000
# 4 0.0000 0.0000 0.0000 26.1707 0.0000 0.0000
# 5 0.0000 0.0000 0.0000 0.0000 19.9695 0.0000
# 6 0.0000 0.0000 0.0000 0.0000 0.0000 12.4697
#
#
#
# Elastic Compliance Matrix: (Units=1/GPa)
#
#
# Indices 1 2 3 4 5 6 
#
# 1 0.014409 -0.001577 -0.004629 0.000000 0.000000 0.000000
# 2 -0.001577 0.027050 -0.009633 0.000000 0.000000 0.000000
# 3 -0.004629 -0.009633 0.016045 0.000000 0.000000 0.000000
# 4 0.000000 0.000000 0.000000 0.038211 0.000000 0.000000
# 5 0.000000 0.000000 0.000000 0.000000 0.050076 0.000000
# 6 0.000000 0.000000 0.000000 0.000000 0.000000 0.080194
#
#
# Mechanical properties :
#
#
# Convention : Reuss Voigt Hill
#
# Bulk Modulus (GPa) = 38.72383 44.14032 41.43208
# Shear Modulus (GPa) = 18.77781 21.05456 19.91618
#
# Velocity S-wave (km/s) = 3.22916 3.41932 3.32560
# Velocity P-wave (km/s) = 5.95038 6.33250 6.14441
#
# Compressibility (1/GPa) = 0.02582389
#
# Stress axis : x y z
#
# Youngs Moduli (GPa) = 69.40229 36.96899 62.32517
#
# Poissons Ratio (x) = 0.05830 0.28853
# Poissons Ratio (y) = 0.10945 0.60039
# Poissons Ratio (z) = 0.32130 0.35613
#
# Static dielectric constant tensor:
#      x y z
#    x 1.650750 0.000000 0.000000 
#    y 0.000000 1.611250 0.000000 
#    z 0.000000 0.000000 1.622610 
# 
# From -- ./inp_files/25595.got.cif
#   From: 2010.05.17/outbox.cif.g08.bks.cpg/sg74_13_cif.got.tgz:25595.got - 2010.06.03 17:57:02.
