data_PCOD9537002
_publ_section_title
;
Structure prediction by ZEFSAII (Michael W. Deem and Ramdas Pophale) SiO2 
 PCOD9537002
Probable space group: I M M A
;
_chemical_formula_sum "Si O2"
_cell_formula_units_Z 96
_cell_length_a 24.357927
_cell_length_b 8.526486
_cell_length_c 25.088984
_cell_angle_alpha 90.000000
_cell_angle_beta 90.000000
_cell_angle_gamma 90.000000
_cell_volume 5210.668955
_symmetry_space_group_name_H-M "I M M A"
_symmetry_group_IT_number 74
_symmetry_cell_setting 'orthorhombic'
loop_
_space_group_symop_operation_xyz
x,y,z
-x,1/2-y,z
x,-y,-z
-x,1/2+y,-z
-x,-y,-z
x,1/2+y,-z
-x,y,z
x,1/2-y,z
1/2+x,1/2+y,1/2+z
1/2-x,-y,1/2+z
1/2+x,1/2-y,1/2-z
1/2-x,y,1/2-z
1/2-x,1/2-y,1/2-z
1/2+x,y,1/2-z
1/2-x,1/2+y,1/2+z
1/2+x,-y,1/2+z
loop_
_atom_site_type_symbol
_atom_site_label
_atom_site_fract_x
_atom_site_fract_y
_atom_site_fract_z
Si Si1 0.062447 0.558694 0.232529
Si Si2 0.360107 0.931925 0.358974
Si Si3 0.646865 0.062578 0.057787
Si Si4 0.726896 0.562718 0.558482
Si Si5 0.937914 0.060884 0.643875
Si Si6 0.434566 0.929494 0.556875
O O1 0.062271 0.750000 0.229368
O O2 0.112980 0.503339 0.195680
O O3 0.070554 0.515105 0.294292
O O4 0.000000 0.508411 0.216552
O O5 0.346357 0.750000 0.351279
O O6 0.310487 0.009857 0.391849
O O7 0.410722 0.956194 0.399154
O O8 0.646891 0.250000 0.056401
O O9 0.710005 0.008862 0.066167
O O10 0.607053 0.005343 0.104152
O O11 0.628926 0.000000 0.000000
O O12 0.708926 0.500000 0.500000
O O13 0.725989 0.750000 0.555682
O O14 0.935906 0.250000 0.642100
O O15 0.000000 0.012487 0.628796
O O16 0.500000 0.925176 0.559950
O O17 0.414162 0.750000 0.563279
O O18 0.419257 0.000000 0.500000
#
# Coordination Sequence:
#
# PCOD9537002 Si02
#       6
#    16  16  16  16  16  16
#     4   8  16  32  53  77 105 138 176 216 258 305
#     4  11  20  31  51  75  99 133 177 220 261 307
#     4  10  21  37  58  82 108 139 172 210 257 309
#     4  10  21  37  54  74 103 138 177 220 265 312
#     4   9  18  35  59  84 110 139 170 208 254 305
#     4  10  20  32  45  64  93 128 167 215 269 318
#
# _framework density 18.423736999999999
#
# number of rings (size 3 to 8) (size 9 to 14) (size 15 to 20)
#    0.000    2.333    0.000    4.000    0.000    4.333 
#    0.000    2.500    0.000    7.000    0.000    0.000 
#    0.000    0.000    0.000    0.000    0.000    0.000 
#
# Total GULP energy -267609.625801 kJ/mol
# GULP energy per Si atom -5575.200538 kJ/mol
# Density = 1.838180 g / cm^3
# Si number density = 18.423737 Si / 1000 Ang^3
#
#
#
# Elastic Constant Matrix: (Units=GPa)
#
#
# Indices 1 2 3 4 5 6 
#
# 1 109.7643 17.5873 76.7690 0.0000 0.0000 0.0000
# 2 17.5873 24.5078 13.8635 0.0000 0.0000 0.0000
# 3 76.7690 13.8635 110.0893 0.0000 0.0000 0.0000
# 4 0.0000 0.0000 0.0000 22.0878 0.0000 0.0000
# 5 0.0000 0.0000 0.0000 0.0000 36.3531 0.0000
# 6 0.0000 0.0000 0.0000 0.0000 0.0000 -3.6088
#
#
#
# Elastic Compliance Matrix: (Units=1/GPa)
#
#
# Indices 1 2 3 4 5 6 
#
# 1 0.018700 -0.006507 -0.012221 0.000000 0.000000 0.000000
# 2 -0.006507 0.046197 -0.001280 0.000000 0.000000 0.000000
# 3 -0.012221 -0.001280 0.017767 0.000000 0.000000 0.000000
# 4 0.000000 0.000000 0.000000 0.045274 0.000000 0.000000
# 5 0.000000 0.000000 0.000000 0.000000 0.027508 0.000000
# 6 0.000000 0.000000 0.000000 0.000000 0.000000 -0.277098
#
#
# Mechanical properties :
#
#
# Convention : Reuss Voigt Hill
#
# Bulk Modulus (GPa) = 23.44758 51.20011 37.32385
# Shear Modulus (GPa) = -74.16183 20.04251 -27.05966
#
# Velocity S-wave (km/s) = -6.35144 3.30186 -3.83657
# Velocity P-wave (km/s) = 6.40572 6.51053 0.82270
#
# Compressibility (1/GPa) = 0.04264833
#
# Stress axis : x y z
#
# Youngs Moduli (GPa) = 53.47503 21.64648 56.28457
#
# Poissons Ratio (x) = 0.14085 0.68785
# Poissons Ratio (y) = 0.34794 0.07206
# Poissons Ratio (z) = 0.65352 0.02771
#
# Static dielectric constant tensor:
#      x y z
#    x 1.654630 0.000000 0.000000 
#    y 0.000000 1.646340 0.000000 
#    z 0.000000 0.000000 1.640630 
# 
# From -- ./inp_files/57300.got.cif
#   From: 2010.05.17/outbox.cif.g08.bks.cpg/sg74_29_cif.got.tgz:57300.got - 2010.06.03 17:57:02.
