data_PCOD9537671
_publ_section_title
;
Structure prediction by ZEFSAII (Michael W. Deem and Ramdas Pophale) SiO2 
 PCOD9537671
Probable space group: I M M A
;
_chemical_formula_sum "Si O2"
_cell_formula_units_Z 92
_cell_length_a 7.923204
_cell_length_b 21.870358
_cell_length_c 28.295339
_cell_angle_alpha 90.000000
_cell_angle_beta 90.000000
_cell_angle_gamma 90.000000
_cell_volume 4903.109943
_symmetry_space_group_name_H-M "I M M A"
_symmetry_group_IT_number 74
_symmetry_cell_setting 'orthorhombic'
loop_
_space_group_symop_operation_xyz
x,y,z
-x,1/2-y,z
x,-y,-z
-x,1/2+y,-z
-x,-y,-z
x,1/2+y,-z
-x,y,z
x,1/2-y,z
1/2+x,1/2+y,1/2+z
1/2-x,-y,1/2+z
1/2+x,1/2-y,1/2-z
1/2-x,y,1/2-z
1/2-x,1/2-y,1/2-z
1/2+x,y,1/2-z
1/2-x,1/2+y,1/2+z
1/2+x,-y,1/2+z
loop_
_atom_site_type_symbol
_atom_site_label
_atom_site_fract_x
_atom_site_fract_y
_atom_site_fract_z
Si Si1 0.310708 0.152031 0.529583
Si Si2 0.304448 0.068872 0.053000
Si Si3 0.000000 0.250000 0.521829
Si Si4 0.300500 0.442111 0.899649
Si Si5 0.200989 0.499085 0.803412
Si Si6 0.200409 0.250000 0.304763
Si Si7 0.800342 0.376540 0.148115
O O1 0.500000 0.178372 0.526171
O O2 0.293094 0.099469 0.489699
O O3 0.288978 0.116989 0.579390
O O4 0.152274 0.197129 0.522458
O O5 0.500000 0.061927 0.039201
O O6 0.290999 0.113350 0.098364
O O7 0.242287 0.003349 0.072330
O O8 0.500000 0.435858 0.908153
O O9 0.272356 0.455786 0.844451
O O10 0.250000 0.484385 0.750000
O O11 0.256018 0.568342 0.817247
O O12 0.000000 0.497033 0.806899
O O13 0.250000 0.250000 0.250000
O O14 0.267892 0.188939 0.329386
O O15 0.000000 0.250000 0.308734
O O16 0.000000 0.383690 0.139635
#
# Coordination Sequence:
#
# PCOD9537671 Si02
#       7
#    16  16   4  16  16   8  16
#     4  12  24  41  65  90 122 161 206 249 300 363
#     4  10  20  37  60  88 121 158 196 249 307 357
#     4  12  26  46  58  86 122 160 206 250 298 352
#     4  10  20  37  62  91 124 157 196 245 306 364
#     4  10  20  34  55  85 119 150 189 242 304 362
#     4  12  24  37  52  70  98 146 204 250 296 347
#     4  10  21  36  53  77 109 151 201 248 297 353
#
# _framework density 18.763601000000001
#
# number of rings (size 3 to 8) (size 9 to 14) (size 15 to 20)
#    0.000    1.391    1.739    4.174    0.000    8.348 
#    1.565    1.739    0.000    0.000    0.000    0.609 
#    0.000    0.000    0.000    0.000    0.000    0.000 
#
# Total GULP energy -256455.304557 kJ/mol
# GULP energy per Si atom -5575.115316 kJ/mol
# Density = 1.872089 g / cm^3
# Si number density = 18.763601 Si / 1000 Ang^3
#
#
#
# Elastic Constant Matrix: (Units=GPa)
#
#
# Indices 1 2 3 4 5 6 
#
# 1 113.1078 17.2009 16.6081 0.0000 0.0000 0.0000
# 2 17.2009 31.1430 28.9284 0.0000 0.0000 0.0000
# 3 16.6081 28.9284 91.5316 0.0000 0.0000 0.0000
# 4 0.0000 0.0000 0.0000 -81.5566 0.0000 0.0000
# 5 0.0000 0.0000 0.0000 0.0000 29.0245 0.0000
# 6 0.0000 0.0000 0.0000 0.0000 0.0000 16.6667
#
#
#
# Elastic Compliance Matrix: (Units=1/GPa)
#
#
# Indices 1 2 3 4 5 6 
#
# 1 0.009652 -0.005244 -0.000094 0.000000 0.000000 0.000000
# 2 -0.005244 0.048303 -0.014315 0.000000 0.000000 0.000000
# 3 -0.000094 -0.014315 0.015466 0.000000 0.000000 0.000000
# 4 0.000000 0.000000 0.000000 -0.012261 0.000000 0.000000
# 5 0.000000 0.000000 0.000000 0.000000 0.034454 0.000000
# 6 0.000000 0.000000 0.000000 0.000000 0.000000 0.060000
#
#
# Mechanical properties :
#
#
# Convention : Reuss Voigt Hill
#
# Bulk Modulus (GPa) = 29.31120 40.13969 34.72544
# Shear Modulus (GPa) = 24.23763 4.36324 14.30043
#
# Velocity S-wave (km/s) = 3.59797 1.52657 2.76368
# Velocity P-wave (km/s) = 5.73723 4.95439 5.36012
#
# Compressibility (1/GPa) = 0.03411666
#
# Stress axis : x y z
#
# Youngs Moduli (GPa) = 103.60121 20.70273 64.65655
#
# Poissons Ratio (x) = 0.10856 0.00608
# Poissons Ratio (y) = 0.54327 0.92553
# Poissons Ratio (z) = 0.00975 0.29635
#
# Static dielectric constant tensor:
#      x y z
#    x 1.671710 0.000000 0.000000 
#    y 0.000000 1.653240 0.000000 
#    z 0.000000 0.000000 1.656960 
# 
# From -- ./inp_files/64404.got.cif
#   From: 2010.05.17/outbox.cif.g08.bks.cpg/sg74_33_cif.got.tgz:64404.got - 2010.06.03 17:57:02.
