data_PCOD9537802
_publ_section_title
;
Structure prediction by ZEFSAII (Michael W. Deem and Ramdas Pophale) SiO2 
 PCOD9537802
Probable space group: I M M A
;
_chemical_formula_sum "Si O2"
_cell_formula_units_Z 80
_cell_length_a 25.588455
_cell_length_b 21.069908
_cell_length_c 7.407795
_cell_angle_alpha 90.000000
_cell_angle_beta 90.000000
_cell_angle_gamma 90.000000
_cell_volume 3993.885952
_symmetry_space_group_name_H-M "I M M A"
_symmetry_group_IT_number 74
_symmetry_cell_setting 'orthorhombic'
loop_
_space_group_symop_operation_xyz
x,y,z
-x,1/2-y,z
x,-y,-z
-x,1/2+y,-z
-x,-y,-z
x,1/2+y,-z
-x,y,z
x,1/2-y,z
1/2+x,1/2+y,1/2+z
1/2-x,-y,1/2+z
1/2+x,1/2-y,1/2-z
1/2-x,y,1/2-z
1/2-x,1/2-y,1/2-z
1/2+x,y,1/2-z
1/2-x,1/2+y,1/2+z
1/2+x,-y,1/2+z
loop_
_atom_site_type_symbol
_atom_site_label
_atom_site_fract_x
_atom_site_fract_y
_atom_site_fract_z
Si Si1 0.806593 0.645366 0.795761
Si Si2 0.811208 0.868872 0.222828
Si Si3 0.835066 0.989587 0.793607
Si Si4 0.890062 0.681084 0.514345
Si Si5 0.942426 0.554864 0.649487
O O1 0.750000 0.672622 0.750000
O O2 0.806357 0.572547 0.720891
O O3 0.851504 0.679888 0.686458
O O4 0.819269 0.641136 0.008229
O O5 0.750000 0.854044 0.250000
O O6 0.852010 0.829633 0.342569
O O7 0.822073 0.941881 0.286521
O O8 0.895590 0.968334 0.778542
O O9 0.819773 0.000000 0.000000
O O10 0.916038 0.750000 0.500137
O O11 0.927142 0.620835 0.551460
O O12 0.943946 0.500000 0.500000
O O13 0.000000 0.560325 0.733816
#
# Coordination Sequence:
#
# PCOD9537802 Si02
#       5
#    16  16  16  16  16
#     4  10  20  35  53  84 116 156 195 235 279 341
#     4  11  20  35  56  84 117 159 193 232 281 343
#     4   9  19  33  56  87 118 145 190 241 293 339
#     4  11  24  39  57  83 118 156 193 239 288 344
#     4  10  20  38  64  86 110 145 191 246 294 340
#
# _framework density 20.030618
#
# number of rings (size 3 to 8) (size 9 to 14) (size 15 to 20)
#    0.000    1.800    4.000    0.600    0.000    2.400 
#    0.000    0.000    0.000    0.000    0.000    2.800 
#    0.000    0.000    0.000    0.000    0.000    0.000 
#
# Total GULP energy -223019.485513 kJ/mol
# GULP energy per Si atom -5575.487138 kJ/mol
# Density = 1.998503 g / cm^3
# Si number density = 20.030618 Si / 1000 Ang^3
#
#
#
# Elastic Constant Matrix: (Units=GPa)
#
#
# Indices 1 2 3 4 5 6 
#
# 1 73.9267 -0.9286 -8.8543 0.0000 0.0000 0.0000
# 2 -0.9286 115.3021 12.3068 0.0000 0.0000 0.0000
# 3 -8.8543 12.3068 83.1197 0.0000 0.0000 0.0000
# 4 0.0000 0.0000 0.0000 88.8351 0.0000 0.0000
# 5 0.0000 0.0000 0.0000 0.0000 22.4014 0.0000
# 6 0.0000 0.0000 0.0000 0.0000 0.0000 1.7668
#
#
#
# Elastic Compliance Matrix: (Units=1/GPa)
#
#
# Indices 1 2 3 4 5 6 
#
# 1 0.013702 -0.000046 0.001466 0.000000 0.000000 0.000000
# 2 -0.000046 0.008812 -0.001310 0.000000 0.000000 0.000000
# 3 0.001466 -0.001310 0.012381 0.000000 0.000000 0.000000
# 4 0.000000 0.000000 0.000000 0.011257 0.000000 0.000000
# 5 0.000000 0.000000 0.000000 0.000000 0.044640 0.000000
# 6 0.000000 0.000000 0.000000 0.000000 0.000000 0.565994
#
#
# Mechanical properties :
#
#
# Convention : Reuss Voigt Hill
#
# Bulk Modulus (GPa) = 28.47675 30.82183 29.64929
# Shear Modulus (GPa) = 7.48200 40.58896 24.03548
#
# Velocity S-wave (km/s) = 1.93478 4.50638 3.46777
# Velocity P-wave (km/s) = 4.38619 6.51900 5.55590
#
# Compressibility (1/GPa) = 0.03511637
#
# Stress axis : x y z
#
# Youngs Moduli (GPa) = 72.98226 113.47791 80.76912
#
# Poissons Ratio (x) = 0.00524 -0.11844
# Poissons Ratio (y) = 0.00337 0.10578
# Poissons Ratio (z) = -0.10702 0.14862
#
# Static dielectric constant tensor:
#      x y z
#    x 1.710410 0.000000 0.000000 
#    y 0.000000 1.783260 0.000000 
#    z 0.000000 0.000000 1.692500 
# 
# From -- ./inp_files/16139.got.cif
#   From: 2010.05.17/outbox.cif.g08.bks.cpg/sg74_9_cif.got.tgz:16139.got - 2010.06.03 17:57:02.
