data_PCOD9537318
_publ_section_title
;
Structure prediction by ZEFSAII (Michael W. Deem and Ramdas Pophale) SiO2 
 PCOD9537318
Probable space group: I M M A
;
_chemical_formula_sum "Si O2"
_cell_formula_units_Z 80
_cell_length_a 18.193369
_cell_length_b 8.722517
_cell_length_c 28.744979
_cell_angle_alpha 90.000000
_cell_angle_beta 90.000000
_cell_angle_gamma 90.000000
_cell_volume 4561.597356
_symmetry_space_group_name_H-M "I M M A"
_symmetry_group_IT_number 74
_symmetry_cell_setting 'orthorhombic'
loop_
_space_group_symop_operation_xyz
x,y,z
-x,1/2-y,z
x,-y,-z
-x,1/2+y,-z
-x,-y,-z
x,1/2+y,-z
-x,y,z
x,1/2-y,z
1/2+x,1/2+y,1/2+z
1/2-x,-y,1/2+z
1/2+x,1/2-y,1/2-z
1/2-x,y,1/2-z
1/2-x,1/2-y,1/2-z
1/2+x,y,1/2-z
1/2-x,1/2+y,1/2+z
1/2+x,-y,1/2+z
loop_
_atom_site_type_symbol
_atom_site_label
_atom_site_fract_x
_atom_site_fract_y
_atom_site_fract_z
Si Si1 0.682425 0.424272 0.786672
Si Si2 0.579892 0.934109 0.052373
Si Si3 0.797462 0.934656 0.139834
Si Si4 0.734057 0.432714 0.051985
Si Si5 0.085183 0.067313 0.211093
O O1 0.656543 0.250000 0.795001
O O2 0.750000 0.416497 0.750000
O O3 0.723466 0.485012 0.832293
O O4 0.620074 0.519086 0.760669
O O5 0.500000 0.969108 0.074561
O O6 0.587986 0.750000 0.051100
O O7 0.654552 0.008232 0.070427
O O8 0.575974 0.000000 0.000000
O O9 0.796676 0.750000 0.138211
O O10 0.793289 0.004863 0.088626
O O11 0.866043 0.989351 0.170789
O O12 0.734348 0.250000 0.049586
O O13 0.743942 0.500000 0.000000
O O14 0.090910 0.250000 0.206023
O O15 0.000000 0.022039 0.208311
#
# Coordination Sequence:
#
# PCOD9537318 Si02
#       5
#    16  16  16  16  16
#     4   8  16  31  51  74  99 129 164 203 248 300
#     4   9  16  27  44  65  90 121 159 203 249 296
#     4  10  20  35  54  76 103 136 176 217 258 307
#     4  11  21  33  51  74 102 137 178 222 265 310
#     4  10  20  33  52  80 110 137 168 208 255 310
#
# _framework density 17.537714999999999
#
# number of rings (size 3 to 8) (size 9 to 14) (size 15 to 20)
#    0.000    2.400    0.000    6.000    0.000    7.200 
#    0.000    1.000    0.000    1.800    0.000    0.000 
#    0.000    0.000    0.000    0.000    0.000    0.000 
#
# Total GULP energy -222847.366828 kJ/mol
# GULP energy per Si atom -5571.184171 kJ/mol
# Density = 1.749780 g / cm^3
# Si number density = 17.537715 Si / 1000 Ang^3
#
#
#
# Elastic Constant Matrix: (Units=GPa)
#
#
# Indices 1 2 3 4 5 6 
#
# 1 103.0226 49.4166 49.3725 0.0000 0.0000 0.0000
# 2 49.4166 87.9682 35.0890 0.0000 0.0000 0.0000
# 3 49.3725 35.0890 90.9193 0.0000 0.0000 0.0000
# 4 0.0000 0.0000 0.0000 22.2548 0.0000 0.0000
# 5 0.0000 0.0000 0.0000 0.0000 20.3834 0.0000
# 6 0.0000 0.0000 0.0000 0.0000 0.0000 11.4592
#
#
#
# Elastic Compliance Matrix: (Units=1/GPa)
#
#
# Indices 1 2 3 4 5 6 
#
# 1 0.015668 -0.006392 -0.006041 0.000000 0.000000 0.000000
# 2 -0.006392 0.016044 -0.002721 0.000000 0.000000 0.000000
# 3 -0.006041 -0.002721 0.015330 0.000000 0.000000 0.000000
# 4 0.000000 0.000000 0.000000 0.044934 0.000000 0.000000
# 5 0.000000 0.000000 0.000000 0.000000 0.049059 0.000000
# 6 0.000000 0.000000 0.000000 0.000000 0.000000 0.087266
#
#
# Mechanical properties :
#
#
# Convention : Reuss Voigt Hill
#
# Bulk Modulus (GPa) = 59.76203 61.07403 60.41803
# Shear Modulus (GPa) = 18.92603 20.68828 19.80715
#
# Velocity S-wave (km/s) = 3.28862 3.43832 3.36431
# Velocity P-wave (km/s) = 6.96924 7.11778 7.04390
#
# Compressibility (1/GPa) = 0.01673303
#
# Stress axis : x y z
#
# Youngs Moduli (GPa) = 63.82537 62.33010 65.23341
#
# Poissons Ratio (x) = 0.39839 0.39410
# Poissons Ratio (y) = 0.40795 0.17749
# Poissons Ratio (z) = 0.38559 0.16959
#
# Static dielectric constant tensor:
#      x y z
#    x 1.617540 0.000000 0.000000 
#    y 0.000000 1.588290 0.000000 
#    z 0.000000 0.000000 1.634660 
# 
# From -- ./inp_files/63910.got.cif
#   From: 2010.05.17/outbox.cif.g08.bks.cpg/sg74_32_cif.got.tgz:63910.got - 2010.06.03 17:57:02.
