data_PCOD9537335
_publ_section_title
;
Structure prediction by ZEFSAII (Michael W. Deem and Ramdas Pophale) SiO2 
 PCOD9537335
Probable space group: I M M A
;
_chemical_formula_sum "Si O2"
_cell_formula_units_Z 80
_cell_length_a 8.368218
_cell_length_b 19.463163
_cell_length_c 24.971274
_cell_angle_alpha 90.000000
_cell_angle_beta 90.000000
_cell_angle_gamma 90.000000
_cell_volume 4067.121113
_symmetry_space_group_name_H-M "I M M A"
_symmetry_group_IT_number 74
_symmetry_cell_setting 'orthorhombic'
loop_
_space_group_symop_operation_xyz
x,y,z
-x,1/2-y,z
x,-y,-z
-x,1/2+y,-z
-x,-y,-z
x,1/2+y,-z
-x,y,z
x,1/2-y,z
1/2+x,1/2+y,1/2+z
1/2-x,-y,1/2+z
1/2+x,1/2-y,1/2-z
1/2-x,y,1/2-z
1/2-x,1/2-y,1/2-z
1/2+x,y,1/2-z
1/2-x,1/2+y,1/2+z
1/2+x,-y,1/2+z
loop_
_atom_site_type_symbol
_atom_site_label
_atom_site_fract_x
_atom_site_fract_y
_atom_site_fract_z
Si Si1 0.675812 0.897332 0.909840
Si Si2 0.312045 0.142558 0.690642
Si Si3 0.666918 0.250000 0.145034
Si Si4 0.817261 0.250000 0.609093
Si Si5 0.813457 0.491188 0.305743
Si Si6 0.000000 0.750000 0.036310
Si Si7 0.000000 0.250000 0.144654
Si Si8 0.000000 0.134043 0.051997
O O1 0.500000 0.915303 0.932523
O O2 0.668039 0.817289 0.892490
O O3 0.698926 0.940078 0.855297
O O4 0.833612 0.906808 0.945212
O O5 0.250000 0.160560 0.750000
O O6 0.211740 0.184321 0.647206
O O7 0.000000 0.158668 0.814451
O O8 0.282853 0.061247 0.684301
O O9 0.500000 0.250000 0.176032
O O10 0.834037 0.250000 0.175838
O O11 0.666728 0.250000 0.568745
O O12 0.000000 0.250000 0.587741
O O13 0.750000 0.460463 0.250000
O O14 0.000000 0.509571 0.298700
O O15 0.000000 0.816483 0.998578
O O16 0.000000 0.183747 0.104977
#
# Coordination Sequence:
#
# PCOD9537335 Si02
#       8
#    16  16   8   8  16   4   4   8
#     4   9  18  31  53  81 112 155 204 249 298 358
#     4  11  21  37  61  92 125 161 201 233 290 372
#     4   8  13  25  42  64  95 133 181 233 277 323
#     4  12  24  42  64  90 127 155 187 251 306 356
#     4  10  20  33  52  85 122 160 204 246 299 361
#     4  11  24  42  58 100 118 156 206 260 310 363
#     4   7  12  24  40  70  86 122 166 226 268 325
#     4   9  18  32  57  75 113 146 200 244 297 350
#
# _framework density 19.669931999999999
#
# number of rings (size 3 to 8) (size 9 to 14) (size 15 to 20)
#    0.000    2.200    1.000    4.500    2.800    0.800 
#    0.000    1.500    0.000    2.400    0.000    4.200 
#    0.000    0.000    0.000    0.000    0.000    0.000 
#
# Total GULP energy -222962.364347 kJ/mol
# GULP energy per Si atom -5574.059109 kJ/mol
# Density = 1.962516 g / cm^3
# Si number density = 19.669932 Si / 1000 Ang^3
#
#
#
# Elastic Constant Matrix: (Units=GPa)
#
#
# Indices 1 2 3 4 5 6 
#
# 1 212.4379 9.6440 48.2890 0.0000 0.0000 0.0000
# 2 9.6440 27.8520 17.1946 0.0000 0.0000 0.0000
# 3 48.2890 17.1946 57.4588 0.0000 0.0000 0.0000
# 4 0.0000 0.0000 0.0000 226.3352 0.0000 0.0000
# 5 0.0000 0.0000 0.0000 0.0000 22.2365 0.0000
# 6 0.0000 0.0000 0.0000 0.0000 0.0000 20.8941
#
#
#
# Elastic Compliance Matrix: (Units=1/GPa)
#
#
# Indices 1 2 3 4 5 6 
#
# 1 0.005854 0.001239 -0.005290 0.000000 0.000000 0.000000
# 2 0.001239 0.044303 -0.014299 0.000000 0.000000 0.000000
# 3 -0.005290 -0.014299 0.026129 0.000000 0.000000 0.000000
# 4 0.000000 0.000000 0.000000 0.004418 0.000000 0.000000
# 5 0.000000 0.000000 0.000000 0.000000 0.044971 0.000000
# 6 0.000000 0.000000 0.000000 0.000000 0.000000 0.047861
#
#
# Mechanical properties :
#
#
# Convention : Reuss Voigt Hill
#
# Bulk Modulus (GPa) = 25.26226 49.77821 37.52024
# Shear Modulus (GPa) = 22.37840 68.73455 45.55648
#
# Velocity S-wave (km/s) = 3.37663 5.91776 4.81775
# Velocity P-wave (km/s) = 5.29841 8.48851 7.07559
#
# Compressibility (1/GPa) = 0.03958474
#
# Stress axis : x y z
#
# Youngs Moduli (GPa) = 170.83773 22.57200 38.27212
#
# Poissons Ratio (x) = -0.02797 0.20247
# Poissons Ratio (y) = -0.21169 0.54725
# Poissons Ratio (z) = 0.90376 0.32276
#
# Static dielectric constant tensor:
#      x y z
#    x 1.786070 0.000000 0.000000 
#    y 0.000000 1.673210 0.000000 
#    z 0.000000 0.000000 1.639010 
# 
# From -- ./inp_files/56935.got.cif
#   From: 2010.05.17/outbox.cif.g08.bks.cpg/sg74_29_cif.got.tgz:56935.got - 2010.06.03 17:57:02.
