data_PCOD9537931
_publ_section_title
;
Structure prediction by ZEFSAII (Michael W. Deem and Ramdas Pophale) SiO2 
 PCOD9537931
Probable space group: I M M A
;
_chemical_formula_sum "Si O2"
_cell_formula_units_Z 104
_cell_length_a 26.700821
_cell_length_b 8.895833
_cell_length_c 20.976946
_cell_angle_alpha 90.000000
_cell_angle_beta 90.000000
_cell_angle_gamma 90.000000
_cell_volume 4982.571011
_symmetry_space_group_name_H-M "I M M A"
_symmetry_group_IT_number 74
_symmetry_cell_setting 'orthorhombic'
loop_
_space_group_symop_operation_xyz
x,y,z
-x,1/2-y,z
x,-y,-z
-x,1/2+y,-z
-x,-y,-z
x,1/2+y,-z
-x,y,z
x,1/2-y,z
1/2+x,1/2+y,1/2+z
1/2-x,-y,1/2+z
1/2+x,1/2-y,1/2-z
1/2-x,y,1/2-z
1/2-x,1/2-y,1/2-z
1/2+x,y,1/2-z
1/2-x,1/2+y,1/2+z
1/2+x,-y,1/2+z
loop_
_atom_site_type_symbol
_atom_site_label
_atom_site_fract_x
_atom_site_fract_y
_atom_site_fract_z
Si Si1 0.690833 0.578650 0.397723
Si Si2 0.393441 0.930942 0.930014
Si Si3 0.157703 0.421157 0.750381
Si Si4 0.000000 0.931374 0.571317
Si Si5 0.911035 0.428797 0.064590
Si Si6 0.208364 0.570412 0.638156
Si Si7 0.443508 0.068743 0.291965
O O1 0.691759 0.750000 0.422014
O O2 0.676289 0.582465 0.323076
O O3 0.646343 0.485027 0.429550
O O4 0.745079 0.503001 0.398135
O O5 0.392384 0.750000 0.934033
O O6 0.446802 0.974843 0.898776
O O7 0.343711 0.977224 0.894396
O O8 0.392621 0.000000 0.000000
O O9 0.154844 0.250000 0.726654
O O10 0.198037 0.512395 0.709368
O O11 0.102624 0.496066 0.753805
O O12 0.000000 0.750000 0.566430
O O13 0.000000 0.000000 0.500000
O O14 0.912991 0.250000 0.059212
O O15 0.936311 0.469865 0.132539
O O16 0.932777 0.500000 0.000000
O O17 0.213801 0.750000 0.637513
O O18 0.500000 0.026138 0.272346
O O19 0.439094 0.250000 0.286493
#
# Coordination Sequence:
#
# PCOD9537931 Si02
#       7
#    16  16  16   8  16  16  16
#     4  10  21  37  56  77 105 143 182 226 277 323
#     4   9  19  34  53  76 102 133 169 209 257 309
#     4  10  21  37  56  79 107 140 182 228 274 324
#     4   8  14  30  52  70  92 124 160 196 237 290
#     4  10  20  35  56  83 114 148 187 228 273 330
#     4  11  22  35  53  81 110 140 180 223 271 330
#     4   9  19  37  59  82 111 148 186 227 278 332
#
# _framework density 20.872758000000001
#
# number of rings (size 3 to 8) (size 9 to 14) (size 15 to 20)
#    0.000    2.308    0.000    2.308    0.000    6.769 
#    1.385    1.538    0.000    0.000    0.000    0.000 
#    0.000    0.000    0.000    0.000    0.000    0.000 
#
# Total GULP energy -290221.467515 kJ/mol
# GULP energy per Si atom -5581.182068 kJ/mol
# Density = 2.082525 g / cm^3
# Si number density = 20.872758 Si / 1000 Ang^3
#
#
#
# Elastic Constant Matrix: (Units=GPa)
#
#
# Indices 1 2 3 4 5 6 
#
# 1 126.5365 19.0960 -6.3754 0.0000 0.0000 0.0000
# 2 19.0960 33.8537 -3.7318 0.0000 0.0000 0.0000
# 3 -6.3754 -3.7318 20.4831 0.0000 0.0000 0.0000
# 4 0.0000 0.0000 0.0000 23.7095 0.0000 0.0000
# 5 0.0000 0.0000 0.0000 0.0000 21.4105 0.0000
# 6 0.0000 0.0000 0.0000 0.0000 0.0000 -21.5445
#
#
#
# Elastic Compliance Matrix: (Units=1/GPa)
#
#
# Indices 1 2 3 4 5 6 
#
# 1 0.008707 -0.004707 0.001852 0.000000 0.000000 0.000000
# 2 -0.004707 0.032689 0.004491 0.000000 0.000000 0.000000
# 3 0.001852 0.004491 0.050215 0.000000 0.000000 0.000000
# 4 0.000000 0.000000 0.000000 0.042177 0.000000 0.000000
# 5 0.000000 0.000000 0.000000 0.000000 0.046706 0.000000
# 6 0.000000 0.000000 0.000000 0.000000 0.000000 -0.046415
#
#
# Mechanical properties :
#
#
# Convention : Reuss Voigt Hill
#
# Bulk Modulus (GPa) = 10.53931 22.09454 16.31693
# Shear Modulus (GPa) = 30.78169 16.17406 23.47788
#
# Velocity S-wave (km/s) = 3.84439 2.78670 3.35746
# Velocity P-wave (km/s) = 4.97655 4.57849 4.78166
#
# Compressibility (1/GPa) = 0.09488288
#
# Stress axis : x y z
#
# Youngs Moduli (GPa) = 114.85631 30.59138 19.91421
#
# Poissons Ratio (x) = 0.14399 -0.03689
# Poissons Ratio (y) = 0.54062 -0.08943
# Poissons Ratio (z) = -0.21276 -0.13737
#
# Static dielectric constant tensor:
#      x y z
#    x 1.762680 0.000000 0.000000 
#    y 0.000000 1.714200 0.000000 
#    z 0.000000 0.000000 1.836340 
# 
# From -- ./inp_files/49295.got.cif
#   From: 2010.05.17/outbox.cif.g08.bks.cpg/sg74_25_cif.got.tgz:49295.got - 2010.06.03 17:57:02.
