data_PCOD9537627
_publ_section_title
;
Structure prediction by ZEFSAII (Michael W. Deem and Ramdas Pophale) SiO2 
 PCOD9537627
Probable space group: I M M A
;
_chemical_formula_sum "Si O2"
_cell_formula_units_Z 100
_cell_length_a 22.269413
_cell_length_b 7.582891
_cell_length_c 26.835954
_cell_angle_alpha 90.000000
_cell_angle_beta 90.000000
_cell_angle_gamma 90.000000
_cell_volume 4531.694469
_symmetry_space_group_name_H-M "I M M A"
_symmetry_group_IT_number 74
_symmetry_cell_setting 'orthorhombic'
loop_
_space_group_symop_operation_xyz
x,y,z
-x,1/2-y,z
x,-y,-z
-x,1/2+y,-z
-x,-y,-z
x,1/2+y,-z
-x,y,z
x,1/2-y,z
1/2+x,1/2+y,1/2+z
1/2-x,-y,1/2+z
1/2+x,1/2-y,1/2-z
1/2-x,y,1/2-z
1/2-x,1/2-y,1/2-z
1/2+x,y,1/2-z
1/2-x,1/2+y,1/2+z
1/2+x,-y,1/2+z
loop_
_atom_site_type_symbol
_atom_site_label
_atom_site_fract_x
_atom_site_fract_y
_atom_site_fract_z
Si Si1 0.767872 0.959932 0.942292
Si Si2 0.402902 0.964848 0.583698
Si Si3 0.816193 0.451545 0.257020
Si Si4 0.568032 0.461580 0.945133
Si Si5 0.567380 0.034705 0.302574
Si Si6 0.500000 0.500000 0.500000
Si Si7 0.836807 0.454082 0.632240
O O1 0.765578 0.750000 0.935583
O O2 0.835198 0.018926 0.928956
O O3 0.720609 0.038816 0.903805
O O4 0.754610 0.000000 0.000000
O O5 0.407236 0.750000 0.580457
O O6 0.421167 0.012940 0.639765
O O7 0.448089 0.032819 0.542338
O O8 0.811038 0.250000 0.237529
O O9 0.750000 0.534760 0.250000
O O10 0.875164 0.527054 0.229565
O O11 0.827453 0.450883 0.315836
O O12 0.500000 0.530131 0.943432
O O13 0.566169 0.250000 0.940641
O O14 0.609085 0.529316 0.900902
O O15 0.593354 0.500000 0.000000
O O16 0.500000 0.976356 0.287391
O O17 0.566725 0.250000 0.299742
O O18 0.849339 0.250000 0.644475
#
# Coordination Sequence:
#
# PCOD9537627 Si02
#       7
#    16  16  16  16  16   4  16
#     4  11  22  37  56  83 118 156 194 235 284 337
#     4  10  20  34  54  82 117 153 190 233 280 330
#     4  10  21  38  59  82 109 144 189 238 289 343
#     4   9  19  36  57  82 113 148 183 224 278 341
#     4   9  17  32  55  81 107 140 186 237 282 330
#     4  12  18  32  56  86 116 152 196 228 276 336
#     4  11  23  38  58  84 113 148 190 237 289 342
#
# _framework density 22.066800000000001
#
# number of rings (size 3 to 8) (size 9 to 14) (size 15 to 20)
#    0.000    1.920    1.600    2.640    0.000    6.080 
#    0.000    0.000    0.000    1.920    0.000    0.000 
#    0.000    0.000    0.000    0.000    0.000    0.000 
#
# Total GULP energy -278893.067570 kJ/mol
# GULP energy per Si atom -5577.861351 kJ/mol
# Density = 2.201658 g / cm^3
# Si number density = 22.066800 Si / 1000 Ang^3
#
#
#
# Elastic Constant Matrix: (Units=GPa)
#
#
# Indices 1 2 3 4 5 6 
#
# 1 169.5426 2.1169 95.3888 0.0000 0.0000 0.0000
# 2 2.1169 53.2099 -4.7539 0.0000 0.0000 0.0000
# 3 95.3888 -4.7539 149.2608 0.0000 0.0000 0.0000
# 4 0.0000 0.0000 0.0000 6.2049 0.0000 0.0000
# 5 0.0000 0.0000 0.0000 0.0000 56.7501 0.0000
# 6 0.0000 0.0000 0.0000 0.0000 0.0000 -21.6776
#
#
#
# Elastic Compliance Matrix: (Units=1/GPa)
#
#
# Indices 1 2 3 4 5 6 
#
# 1 0.009252 -0.000899 -0.005942 0.000000 0.000000 0.000000
# 2 -0.000899 0.018934 0.001178 0.000000 0.000000 0.000000
# 3 -0.005942 0.001178 0.010534 0.000000 0.000000 0.000000
# 4 0.000000 0.000000 0.000000 0.161162 0.000000 0.000000
# 5 0.000000 0.000000 0.000000 0.000000 0.017621 0.000000
# 6 0.000000 0.000000 0.000000 0.000000 0.000000 -0.046131
#
#
# Mechanical properties :
#
#
# Convention : Reuss Voigt Hill
#
# Bulk Modulus (GPa) = 36.50279 61.94631 49.22455
# Shear Modulus (GPa) = 26.06463 26.87292 26.46878
#
# Velocity S-wave (km/s) = 3.44054 3.49348 3.46711
# Velocity P-wave (km/s) = 5.68867 6.66376 6.19543
#
# Compressibility (1/GPa) = 0.02739517
#
# Stress axis : x y z
#
# Youngs Moduli (GPa) = 108.08121 52.81380 94.92819
#
# Poissons Ratio (x) = 0.04748 0.56402
# Poissons Ratio (y) = 0.09716 -0.11178
# Poissons Ratio (z) = 0.64217 -0.06219
#
# Static dielectric constant tensor:
#      x y z
#    x 1.822190 0.000000 0.000000 
#    y 0.000000 1.876540 0.000000 
#    z 0.000000 0.000000 1.726690 
# 
# From -- ./inp_files/68212.got.cif
#   From: 2010.05.17/outbox.cif.g08.bks.cpg/sg74_35_cif.got.tgz:68212.got - 2010.06.03 17:57:02.
