data_PCOD9537312
_publ_section_title
;
Structure prediction by ZEFSAII (Michael W. Deem and Ramdas Pophale) SiO2 
 PCOD9537312
Probable space group: I M M A
;
_chemical_formula_sum "Si O2"
_cell_formula_units_Z 80
_cell_length_a 26.234229
_cell_length_b 8.654197
_cell_length_c 18.820184
_cell_angle_alpha 90.000000
_cell_angle_beta 90.000000
_cell_angle_gamma 90.000000
_cell_volume 4272.862793
_symmetry_space_group_name_H-M "I M M A"
_symmetry_group_IT_number 74
_symmetry_cell_setting 'orthorhombic'
loop_
_space_group_symop_operation_xyz
x,y,z
-x,1/2-y,z
x,-y,-z
-x,1/2+y,-z
-x,-y,-z
x,1/2+y,-z
-x,y,z
x,1/2-y,z
1/2+x,1/2+y,1/2+z
1/2-x,-y,1/2+z
1/2+x,1/2-y,1/2-z
1/2-x,y,1/2-z
1/2-x,1/2-y,1/2-z
1/2+x,y,1/2-z
1/2-x,1/2+y,1/2+z
1/2+x,-y,1/2+z
loop_
_atom_site_type_symbol
_atom_site_label
_atom_site_fract_x
_atom_site_fract_y
_atom_site_fract_z
Si Si1 0.153138 0.933284 0.078688
Si Si2 0.942434 0.061896 0.326624
Si Si3 0.941059 0.936051 0.837661
Si Si4 0.347326 0.563062 0.920551
Si Si5 0.753031 0.436810 0.167806
O O1 0.155882 0.750000 0.075728
O O2 0.099204 0.986012 0.110953
O O3 0.197529 0.997136 0.129321
O O4 0.159902 0.000000 0.000000
O O5 0.942688 0.250000 0.327747
O O6 0.931497 0.018923 0.244734
O O7 0.898436 0.009820 0.379800
O O8 0.000000 0.010977 0.344830
O O9 0.935445 0.750000 0.842108
O O10 0.000000 0.973277 0.853964
O O11 0.348178 0.750000 0.922945
O O12 0.297721 0.517186 0.875094
O O13 0.344714 0.500000 0.000000
O O14 0.756160 0.250000 0.166488
O O15 0.750000 0.484982 0.250000
#
# Coordination Sequence:
#
# PCOD9537312 Si02
#       5
#    16  16  16  16  16
#     4  12  25  39  57  82 115 150 185 228 278 334
#     4   8  15  31  56  82 107 140 183 224 263 316
#     4   9  18  36  62  86 108 140 185 233 279 330
#     4  10  20  33  52  79 110 143 178 220 269 321
#     4  10  21  39  62  83 106 141 187 235 282 336
#
# _framework density 18.722809999999999
#
# number of rings (size 3 to 8) (size 9 to 14) (size 15 to 20)
#    0.000    2.200    0.000    4.800    0.000    7.200 
#    0.000    3.000    0.000    1.200    0.000    0.000 
#    0.000    0.000    0.000    0.000    0.000    0.000 
#
# Total GULP energy -223398.075941 kJ/mol
# GULP energy per Si atom -5584.951899 kJ/mol
# Density = 1.868020 g / cm^3
# Si number density = 18.722810 Si / 1000 Ang^3
#
#
#
# Elastic Constant Matrix: (Units=GPa)
#
#
# Indices 1 2 3 4 5 6 
#
# 1 129.6116 42.2733 107.7812 0.0000 0.0000 0.0000
# 2 42.2733 22.2648 43.2703 0.0000 0.0000 0.0000
# 3 107.7812 43.2703 173.1556 0.0000 0.0000 0.0000
# 4 0.0000 0.0000 0.0000 28.7211 0.0000 0.0000
# 5 0.0000 0.0000 0.0000 0.0000 -22.2804 0.0000
# 6 0.0000 0.0000 0.0000 0.0000 0.0000 3.4627
#
#
#
# Elastic Compliance Matrix: (Units=1/GPa)
#
#
# Indices 1 2 3 4 5 6 
#
# 1 0.023823 -0.031911 -0.006855 0.000000 0.000000 0.000000
# 2 -0.031911 0.130066 -0.012640 0.000000 0.000000 0.000000
# 3 -0.006855 -0.012640 0.013200 0.000000 0.000000 0.000000
# 4 0.000000 0.000000 0.000000 0.034818 0.000000 0.000000
# 5 0.000000 0.000000 0.000000 0.000000 -0.044882 0.000000
# 6 0.000000 0.000000 0.000000 0.000000 0.000000 0.288793
#
#
# Mechanical properties :
#
#
# Convention : Reuss Voigt Hill
#
# Bulk Modulus (GPa) = 15.55700 79.07575 47.31638
# Shear Modulus (GPa) = 8.77109 10.76116 9.76613
#
# Velocity S-wave (km/s) = 2.16677 2.40002 2.28637
# Velocity P-wave (km/s) = 3.81929 7.07155 5.68304
#
# Compressibility (1/GPa) = 0.06427973
#
# Stress axis : x y z
#
# Youngs Moduli (GPa) = 41.97578 7.68840 75.75565
#
# Poissons Ratio (x) = 0.24534 0.51927
# Poissons Ratio (y) = 1.33948 0.95752
# Poissons Ratio (z) = 0.28773 0.09718
#
# Static dielectric constant tensor:
#      x y z
#    x 1.637080 0.000000 0.000000 
#    y 0.000000 1.636660 0.000000 
#    z 0.000000 0.000000 1.614790 
# 
# From -- ./inp_files/39729.got.cif
#   From: 2010.05.17/outbox.cif.g08.bks.cpg/sg74_20_cif.got.tgz:39729.got - 2010.06.03 17:57:02.
