data_PCOD9537978
_publ_section_title
;
Structure prediction by ZEFSAII (Michael W. Deem and Ramdas Pophale) SiO2 
 PCOD9537978
Probable space group: I M M A
;
_chemical_formula_sum "Si O2"
_cell_formula_units_Z 120
_cell_length_a 9.092161
_cell_length_b 26.877513
_cell_length_c 28.365582
_cell_angle_alpha 90.000000
_cell_angle_beta 90.000000
_cell_angle_gamma 90.000000
_cell_volume 6931.829896
_symmetry_space_group_name_H-M "I M M A"
_symmetry_group_IT_number 74
_symmetry_cell_setting 'orthorhombic'
loop_
_space_group_symop_operation_xyz
x,y,z
-x,1/2-y,z
x,-y,-z
-x,1/2+y,-z
-x,-y,-z
x,1/2+y,-z
-x,y,z
x,1/2-y,z
1/2+x,1/2+y,1/2+z
1/2-x,-y,1/2+z
1/2+x,1/2-y,1/2-z
1/2-x,y,1/2-z
1/2-x,1/2-y,1/2-z
1/2+x,y,1/2-z
1/2-x,1/2+y,1/2+z
1/2+x,-y,1/2+z
loop_
_atom_site_type_symbol
_atom_site_label
_atom_site_fract_x
_atom_site_fract_y
_atom_site_fract_z
Si Si1 0.325490 0.550097 0.860477
Si Si2 0.176764 0.347653 0.139732
Si Si3 0.824954 0.895952 0.114195
Si Si4 0.177509 0.250000 0.199041
Si Si5 0.674543 0.308454 0.939605
Si Si6 0.329237 0.690573 0.537166
Si Si7 0.324431 0.951593 0.199303
Si Si8 0.175754 0.505453 0.054443
O O1 0.500000 0.555213 0.865607
O O2 0.253995 0.601800 0.845139
O O3 0.295944 0.506202 0.823014
O O4 0.255718 0.532097 0.909963
O O5 0.219459 0.299540 0.170197
O O6 0.213279 0.336852 0.085044
O O7 0.000000 0.352780 0.142610
O O8 0.759554 0.844620 0.095443
O O9 0.746115 0.913674 0.161843
O O10 0.796817 0.939329 0.075222
O O11 0.000000 0.892989 0.120943
O O12 0.250000 0.250000 0.250000
O O13 0.000000 0.250000 0.202915
O O14 0.500000 0.315519 0.935662
O O15 0.707854 0.250000 0.931663
O O16 0.729089 0.320621 0.992464
O O17 0.500000 0.678475 0.525941
O O18 0.322941 0.750000 0.546301
O O19 0.500000 0.944663 0.202253
O O20 0.250000 0.947071 0.250000
O O21 0.000000 0.496299 0.056934
O O22 0.221135 0.500000 0.000000
#
# Coordination Sequence:
#
# PCOD9537978 Si02
#       8
#    16  16  16   8  16  16  16  16
#     4  10  22  36  52  80 111 140 178 227 280 328
#     4  10  20  36  56  75 103 141 184 231 280 337
#     4  10  20  35  57  84 113 147 187 227 270 323
#     4  10  22  40  58  78 102 138 184 236 293 342
#     4  10  21  35  52  80 118 154 185 222 269 320
#     4   9  17  32  53  74  99 139 188 229 266 318
#     4  10  21  39  61  83 110 142 181 228 277 331
#     4   9  19  35  53  76 108 147 186 223 268 325
#
# _framework density 17.311444999999999
#
# number of rings (size 3 to 8) (size 9 to 14) (size 15 to 20)
#    0.000    2.267    0.667    1.600    1.867    4.800 
#    0.000    2.667    0.000    0.400    0.000    0.000 
#    0.000    0.000    0.000    0.000    0.000    0.000 
#
# Total GULP energy -334961.428297 kJ/mol
# GULP energy per Si atom -5582.690472 kJ/mol
# Density = 1.727204 g / cm^3
# Si number density = 17.311445 Si / 1000 Ang^3
#
#
#
# Elastic Constant Matrix: (Units=GPa)
#
#
# Indices 1 2 3 4 5 6 
#
# 1 60.3662 59.0296 64.6619 0.0000 0.0000 0.0000
# 2 59.0296 100.8591 64.8615 0.0000 0.0000 0.0000
# 3 64.6619 64.8615 136.8098 0.0000 0.0000 0.0000
# 4 0.0000 0.0000 0.0000 9.8908 0.0000 0.0000
# 5 0.0000 0.0000 0.0000 0.0000 31.0368 0.0000
# 6 0.0000 0.0000 0.0000 0.0000 0.0000 29.2239
#
#
#
# Elastic Compliance Matrix: (Units=1/GPa)
#
#
# Indices 1 2 3 4 5 6 
#
# 1 0.054581 -0.022089 -0.015325 0.000000 0.000000 0.000000
# 2 -0.022089 0.023203 -0.000560 0.000000 0.000000 0.000000
# 3 -0.015325 -0.000560 0.014818 0.000000 0.000000 0.000000
# 4 0.000000 0.000000 0.000000 0.101104 0.000000 0.000000
# 5 0.000000 0.000000 0.000000 0.000000 0.032220 0.000000
# 6 0.000000 0.000000 0.000000 0.000000 0.000000 0.034219
#
#
# Mechanical properties :
#
#
# Convention : Reuss Voigt Hill
#
# Bulk Modulus (GPa) = 60.04656 75.01568 67.53112
# Shear Modulus (GPa) = 14.63507 21.32911 17.98209
#
# Velocity S-wave (km/s) = 2.91073 3.51391 3.22645
# Velocity P-wave (km/s) = 6.78659 7.73889 7.27833
#
# Compressibility (1/GPa) = 0.01665374
#
# Stress axis : x y z
#
# Youngs Moduli (GPa) = 18.32137 43.09716 67.48473
#
# Poissons Ratio (x) = 0.95199 1.03418
# Poissons Ratio (y) = 0.40471 0.03782
# Poissons Ratio (z) = 0.28077 0.02415
#
# Static dielectric constant tensor:
#      x y z
#    x 1.572970 0.000000 0.000000 
#    y 0.000000 1.582890 0.000000 
#    z 0.000000 0.000000 1.560010 
# 
# From -- ./inp_files/65085.got.cif
#   From: 2010.05.17/outbox.cif.g08.bks.cpg/sg74_33_cif.got.tgz:65085.got - 2010.06.03 17:57:02.
