data_PCOD9537077
_publ_section_title
;
Structure prediction by ZEFSAII (Michael W. Deem and Ramdas Pophale) SiO2 
 PCOD9537077
Probable space group: I M M A
;
_chemical_formula_sum "Si O2"
_cell_formula_units_Z 64
_cell_length_a 14.637782
_cell_length_b 8.886703
_cell_length_c 28.693627
_cell_angle_alpha 90.000000
_cell_angle_beta 90.000000
_cell_angle_gamma 90.000000
_cell_volume 3732.513519
_symmetry_space_group_name_H-M "I M M A"
_symmetry_group_IT_number 74
_symmetry_cell_setting 'orthorhombic'
loop_
_space_group_symop_operation_xyz
x,y,z
-x,1/2-y,z
x,-y,-z
-x,1/2+y,-z
-x,-y,-z
x,1/2+y,-z
-x,y,z
x,1/2-y,z
1/2+x,1/2+y,1/2+z
1/2-x,-y,1/2+z
1/2+x,1/2-y,1/2-z
1/2-x,y,1/2-z
1/2-x,1/2-y,1/2-z
1/2+x,y,1/2-z
1/2-x,1/2+y,1/2+z
1/2+x,-y,1/2+z
loop_
_atom_site_type_symbol
_atom_site_label
_atom_site_fract_x
_atom_site_fract_y
_atom_site_fract_z
Si Si1 0.607525 0.570250 0.550268
Si Si2 0.789366 0.068886 0.862688
Si Si3 0.143637 0.920797 0.235404
Si Si4 0.600595 0.571172 0.829325
O O1 0.630155 0.500000 0.500000
O O2 0.500000 0.538021 0.559158
O O3 0.619273 0.750000 0.548985
O O4 0.668195 0.498710 0.590800
O O5 0.787901 0.250000 0.863861
O O6 0.852382 0.025592 0.817907
O O7 0.686828 0.009981 0.852955
O O8 0.107122 0.750000 0.237823
O O9 0.250000 0.911789 0.250000
O O10 0.101409 0.025181 0.274759
O O11 0.500000 0.529468 0.848178
O O12 0.612307 0.750000 0.833531
#
# Coordination Sequence:
#
# PCOD9537077 Si02
#       4
#    16  16  16  16
#     4  10  21  37  57  80 105 132 164 206 256 308
#     4  10  20  34  53  76 103 137 175 213 255 305
#     4   8  16  30  46  67  96 131 170 209 249 294
#     4  10  20  32  48  73 105 140 177 216 256 300
#
# _framework density 17.146623999999999
#
# number of rings (size 3 to 8) (size 9 to 14) (size 15 to 20)
#    0.000    2.500    0.000    3.750    0.000   10.000 
#    0.000    5.000    0.000    0.750    0.000    0.000 
#    0.000    0.000    0.000    0.000    0.000    0.000 
#
# Total GULP energy -178407.440089 kJ/mol
# GULP energy per Si atom -5575.232503 kJ/mol
# Density = 1.710760 g / cm^3
# Si number density = 17.146624 Si / 1000 Ang^3
#
#
#
# Elastic Constant Matrix: (Units=GPa)
#
#
# Indices 1 2 3 4 5 6 
#
# 1 93.9980 45.3823 68.6179 0.0000 0.0000 0.0000
# 2 45.3823 61.3947 51.0559 0.0000 0.0000 0.0000
# 3 68.6179 51.0559 142.5977 0.0000 0.0000 0.0000
# 4 0.0000 0.0000 0.0000 30.6191 0.0000 0.0000
# 5 0.0000 0.0000 0.0000 0.0000 20.5323 0.0000
# 6 0.0000 0.0000 0.0000 0.0000 0.0000 155.2432
#
#
#
# Elastic Compliance Matrix: (Units=1/GPa)
#
#
# Indices 1 2 3 4 5 6 
#
# 1 0.019634 -0.009479 -0.006054 0.000000 0.000000 0.000000
# 2 -0.009479 0.027770 -0.005382 0.000000 0.000000 0.000000
# 3 -0.006054 -0.005382 0.011853 0.000000 0.000000 0.000000
# 4 0.000000 0.000000 0.000000 0.032659 0.000000 0.000000
# 5 0.000000 0.000000 0.000000 0.000000 0.048704 0.000000
# 6 0.000000 0.000000 0.000000 0.000000 0.000000 0.006442
#
#
# Mechanical properties :
#
#
# Convention : Reuss Voigt Hill
#
# Bulk Modulus (GPa) = 57.37912 69.78920 63.58416
# Shear Modulus (GPa) = 25.68043 50.14123 37.91083
#
# Velocity S-wave (km/s) = 3.87421 5.41351 4.70721
# Velocity P-wave (km/s) = 7.31772 8.93670 8.16743
#
# Compressibility (1/GPa) = 0.01742794
#
# Stress axis : x y z
#
# Youngs Moduli (GPa) = 50.93078 36.01000 84.36762
#
# Poissons Ratio (x) = 0.34133 0.51078
# Poissons Ratio (y) = 0.48277 0.45403
# Poissons Ratio (z) = 0.30835 0.19379
#
# Static dielectric constant tensor:
#      x y z
#    x 1.599050 0.000000 0.000000 
#    y 0.000000 1.571130 0.000000 
#    z 0.000000 0.000000 1.569190 
# 
# From -- ./inp_files/56396.got.cif
#   From: 2010.05.17/outbox.cif.g08.bks.cpg/sg74_29_cif.got.tgz:56396.got - 2010.06.03 17:57:02.
