data_PCOD9537916
_publ_section_title
;
Structure prediction by ZEFSAII (Michael W. Deem and Ramdas Pophale) SiO2 
 PCOD9537916
Probable space group: I M M A
;
_chemical_formula_sum "Si O2"
_cell_formula_units_Z 100
_cell_length_a 7.731606
_cell_length_b 21.400337
_cell_length_c 31.540034
_cell_angle_alpha 90.000000
_cell_angle_beta 90.000000
_cell_angle_gamma 90.000000
_cell_volume 5218.581664
_symmetry_space_group_name_H-M "I M M A"
_symmetry_group_IT_number 74
_symmetry_cell_setting 'orthorhombic'
loop_
_space_group_symop_operation_xyz
x,y,z
-x,1/2-y,z
x,-y,-z
-x,1/2+y,-z
-x,-y,-z
x,1/2+y,-z
-x,y,z
x,1/2-y,z
1/2+x,1/2+y,1/2+z
1/2-x,-y,1/2+z
1/2+x,1/2-y,1/2-z
1/2-x,y,1/2-z
1/2-x,1/2-y,1/2-z
1/2+x,y,1/2-z
1/2-x,1/2+y,1/2+z
1/2+x,-y,1/2+z
loop_
_atom_site_type_symbol
_atom_site_label
_atom_site_fract_x
_atom_site_fract_y
_atom_site_fract_z
Si Si1 0.201167 0.018414 0.380766
Si Si2 0.297252 0.109635 0.918661
Si Si3 0.292424 0.179708 0.498725
Si Si4 0.500000 0.750000 0.873210
Si Si5 0.702860 0.180941 0.663068
Si Si6 0.793008 0.447112 0.798161
Si Si7 0.200382 0.656453 0.900375
O O1 0.292176 0.083778 0.388376
O O2 0.000000 0.027549 0.391688
O O3 0.271053 0.959676 0.408212
O O4 0.217401 0.994703 0.332488
O O5 0.500000 0.108391 0.908257
O O6 0.274009 0.131652 0.966490
O O7 0.216663 0.159116 0.885858
O O8 0.500000 0.180066 0.502107
O O9 0.228280 0.250000 0.507980
O O10 0.251092 0.164111 0.450159
O O11 0.345076 0.695854 0.875763
O O12 0.500000 0.184920 0.673558
O O13 0.779251 0.250000 0.669265
O O14 0.774164 0.122637 0.689965
O O15 0.750000 0.462294 0.750000
O O16 0.000000 0.447360 0.803901
O O17 0.000000 0.677681 0.895390
#
# Coordination Sequence:
#
# PCOD9537916 Si02
#       7
#    16  16  16   4  16  16  16
#     4  10  21  39  57  82 115 147 187 234 286 341
#     4  10  21  32  50  76 109 150 193 243 287 331
#     4  10  21  35  51  75 109 149 198 242 284 336
#     4  12  22  40  64  88 122 148 186 240 288 330
#     4   9  18  33  50  71 105 149 195 237 287 338
#     4  10  20  35  56  81 110 144 184 235 285 344
#     4  11  23  39  61  88 117 151 192 233 286 344
#
# _framework density 19.162296000000001
#
# number of rings (size 3 to 8) (size 9 to 14) (size 15 to 20)
#    0.000    1.920    1.600    2.160    1.120    6.080 
#    0.000    3.200    0.000    0.000    0.000    0.560 
#    0.000    0.000    0.000    0.000    0.000    0.000 
#
# Total GULP energy -278525.263349 kJ/mol
# GULP energy per Si atom -5570.505267 kJ/mol
# Density = 1.911868 g / cm^3
# Si number density = 19.162296 Si / 1000 Ang^3
#
#
#
# Elastic Constant Matrix: (Units=GPa)
#
#
# Indices 1 2 3 4 5 6 
#
# 1 63.5528 19.1705 4.4939 0.0000 0.0000 0.0000
# 2 19.1705 141.6357 31.6677 0.0000 0.0000 0.0000
# 3 4.4939 31.6677 18.9298 0.0000 0.0000 0.0000
# 4 0.0000 0.0000 0.0000 6.0686 0.0000 0.0000
# 5 0.0000 0.0000 0.0000 0.0000 12.9598 0.0000
# 6 0.0000 0.0000 0.0000 0.0000 0.0000 11.8033
#
#
#
# Elastic Compliance Matrix: (Units=1/GPa)
#
#
# Indices 1 2 3 4 5 6 
#
# 1 0.016406 -0.002156 -0.000288 0.000000 0.000000 0.000000
# 2 -0.002156 0.011563 -0.018831 0.000000 0.000000 0.000000
# 3 -0.000288 -0.018831 0.084397 0.000000 0.000000 0.000000
# 4 0.000000 0.000000 0.000000 0.164782 0.000000 0.000000
# 5 0.000000 0.000000 0.000000 0.000000 0.077161 0.000000
# 6 0.000000 0.000000 0.000000 0.000000 0.000000 0.084722
#
#
# Mechanical properties :
#
#
# Convention : Reuss Voigt Hill
#
# Bulk Modulus (GPa) = 14.32338 37.19807 25.76072
# Shear Modulus (GPa) = 9.90389 17.41878 13.66133
#
# Velocity S-wave (km/s) = 2.27588 3.01826 2.67297
# Velocity P-wave (km/s) = 3.79436 5.62145 4.79572
#
# Compressibility (1/GPa) = 0.06981593
#
# Stress axis : x y z
#
# Youngs Moduli (GPa) = 60.95438 86.48591 11.84871
#
# Poissons Ratio (x) = 0.18648 0.00341
# Poissons Ratio (y) = 0.13143 0.22312
# Poissons Ratio (z) = 0.01753 1.62863
#
# Static dielectric constant tensor:
#      x y z
#    x 1.710590 0.000000 0.000000 
#    y 0.000000 1.680650 0.000000 
#    z 0.000000 0.000000 1.637390 
# 
# From -- ./inp_files/70555.got.cif
#   From: 2010.05.17/outbox.cif.g08.bks.cpg/sg74_36_cif.got.tgz:70555.got - 2010.06.03 17:57:02.
