data_PCOD9537961
_publ_section_title
;
Structure prediction by ZEFSAII (Michael W. Deem and Ramdas Pophale) SiO2 
 PCOD9537961
Probable space group: I M M A
;
_chemical_formula_sum "Si O2"
_cell_formula_units_Z 80
_cell_length_a 18.956602
_cell_length_b 9.644882
_cell_length_c 23.920644
_cell_angle_alpha 90.000000
_cell_angle_beta 90.000000
_cell_angle_gamma 90.000000
_cell_volume 4373.511556
_symmetry_space_group_name_H-M "I M M A"
_symmetry_group_IT_number 74
_symmetry_cell_setting 'orthorhombic'
loop_
_space_group_symop_operation_xyz
x,y,z
-x,1/2-y,z
x,-y,-z
-x,1/2+y,-z
-x,-y,-z
x,1/2+y,-z
-x,y,z
x,1/2-y,z
1/2+x,1/2+y,1/2+z
1/2-x,-y,1/2+z
1/2+x,1/2-y,1/2-z
1/2-x,y,1/2-z
1/2-x,1/2-y,1/2-z
1/2+x,y,1/2-z
1/2-x,1/2+y,1/2+z
1/2+x,-y,1/2+z
loop_
_atom_site_type_symbol
_atom_site_label
_atom_site_fract_x
_atom_site_fract_y
_atom_site_fract_z
Si Si1 0.584024 0.414843 0.842975
Si Si2 0.335157 0.409497 0.252195
Si Si3 0.579575 0.902931 0.455904
Si Si4 0.687557 0.084006 0.941568
Si Si5 0.314826 0.594211 0.357265
O O1 0.500000 0.442843 0.840689
O O2 0.594683 0.250000 0.830831
O O3 0.627266 0.507156 0.798162
O O4 0.616608 0.438855 0.904914
O O5 0.360317 0.250000 0.253714
O O6 0.250000 0.405542 0.250000
O O7 0.342396 0.495081 0.309067
O O8 0.500000 0.952614 0.445984
O O9 0.576721 0.750000 0.480821
O O10 0.620769 0.895783 0.399430
O O11 0.617151 0.000000 0.500000
O O12 0.695106 0.250000 0.952811
O O13 0.749464 0.047278 0.896597
O O14 0.690009 0.000000 0.000000
O O15 0.296898 0.750000 0.335780
#
# Coordination Sequence:
#
# PCOD9537961 Si02
#       5
#    16  16  16  16  16
#     4  10  22  41  63  86 115 155 200 242 289 351
#     4  11  23  38  59  87 116 148 187 236 292 344
#     4   9  18  32  50  75 108 145 184 225 273 328
#     4  10  21  36  57  85 115 151 195 241 290 346
#     4  10  20  35  57  82 112 151 192 234 282 343
#
# _framework density 18.291937999999998
#
# number of rings (size 3 to 8) (size 9 to 14) (size 15 to 20)
#    0.000    2.000    2.000    1.200    0.000    4.800 
#    0.000    2.000    0.000    0.000    0.000    0.000 
#    0.000    0.000    0.000    0.000    0.000    0.000 
#
# Total GULP energy -222710.604606 kJ/mol
# GULP energy per Si atom -5567.765115 kJ/mol
# Density = 1.825030 g / cm^3
# Si number density = 18.291938 Si / 1000 Ang^3
#
#
#
# Elastic Constant Matrix: (Units=GPa)
#
#
# Indices 1 2 3 4 5 6 
#
# 1 76.5140 26.6514 32.3111 0.0000 0.0000 0.0000
# 2 26.6514 90.9943 75.5094 0.0000 0.0000 0.0000
# 3 32.3111 75.5094 119.6239 0.0000 0.0000 0.0000
# 4 0.0000 0.0000 0.0000 34.3160 0.0000 0.0000
# 5 0.0000 0.0000 0.0000 0.0000 24.3737 0.0000
# 6 0.0000 0.0000 0.0000 0.0000 0.0000 16.6911
#
#
#
# Elastic Compliance Matrix: (Units=1/GPa)
#
#
# Indices 1 2 3 4 5 6 
#
# 1 0.014951 -0.002159 -0.002676 0.000000 0.000000 0.000000
# 2 -0.002159 0.023390 -0.014181 0.000000 0.000000 0.000000
# 3 -0.002676 -0.014181 0.018034 0.000000 0.000000 0.000000
# 4 0.000000 0.000000 0.000000 0.029141 0.000000 0.000000
# 5 0.000000 0.000000 0.000000 0.000000 0.041028 0.000000
# 6 0.000000 0.000000 0.000000 0.000000 0.000000 0.059912
#
#
# Mechanical properties :
#
#
# Convention : Reuss Voigt Hill
#
# Bulk Modulus (GPa) = 54.51464 61.78623 58.15043
# Shear Modulus (GPa) = 21.68238 25.25350 23.46794
#
# Velocity S-wave (km/s) = 3.44663 3.71965 3.58574
# Velocity P-wave (km/s) = 6.76064 7.23180 7.00018
#
# Compressibility (1/GPa) = 0.01834370
#
# Stress axis : x y z
#
# Youngs Moduli (GPa) = 66.88345 42.75360 55.45143
#
# Poissons Ratio (x) = 0.09229 0.14838
# Poissons Ratio (y) = 0.14437 0.78637
# Poissons Ratio (z) = 0.17897 0.60630
#
# Static dielectric constant tensor:
#      x y z
#    x 1.666480 0.000000 0.000000 
#    y 0.000000 1.655870 0.000000 
#    z 0.000000 0.000000 2.158630 
# 
# From -- ./inp_files/67541.got.cif
#   From: 2010.05.17/outbox.cif.g08.bks.cpg/sg74_34_cif.got.tgz:67541.got - 2010.06.03 17:57:02.
