data_PCOD9537625
_publ_section_title
;
Structure prediction by ZEFSAII (Michael W. Deem and Ramdas Pophale) SiO2 
 PCOD9537625
Probable space group: I M M A
;
_chemical_formula_sum "Si O2"
_cell_formula_units_Z 56
_cell_length_a 10.022633
_cell_length_b 9.562009
_cell_length_c 28.686553
_cell_angle_alpha 90.000000
_cell_angle_beta 90.000000
_cell_angle_gamma 90.000000
_cell_volume 2749.219036
_symmetry_space_group_name_H-M "I M M A"
_symmetry_group_IT_number 74
_symmetry_cell_setting 'orthorhombic'
loop_
_space_group_symop_operation_xyz
x,y,z
-x,1/2-y,z
x,-y,-z
-x,1/2+y,-z
-x,-y,-z
x,1/2+y,-z
-x,y,z
x,1/2-y,z
1/2+x,1/2+y,1/2+z
1/2-x,-y,1/2+z
1/2+x,1/2-y,1/2-z
1/2-x,y,1/2-z
1/2-x,1/2-y,1/2-z
1/2+x,y,1/2-z
1/2-x,1/2+y,1/2+z
1/2+x,-y,1/2+z
loop_
_atom_site_type_symbol
_atom_site_label
_atom_site_fract_x
_atom_site_fract_y
_atom_site_fract_z
Si Si1 0.339673 0.587082 0.796674
Si Si2 0.151224 0.902848 0.538740
Si Si3 0.500000 0.585462 0.451054
Si Si4 0.242457 0.915644 0.384338
O O1 0.500000 0.557123 0.790316
O O2 0.331909 0.750000 0.812891
O O3 0.250000 0.578405 0.750000
O O4 0.271021 0.481852 0.833350
O O5 0.214529 0.750000 0.543791
O O6 0.000000 0.881088 0.522617
O O7 0.217389 0.000000 0.500000
O O8 0.143892 0.989311 0.585687
O O9 0.500000 0.750000 0.463576
O O10 0.500000 0.500000 0.500000
O O11 0.623712 0.562048 0.415141
O O12 0.214458 0.750000 0.383897
#
# Coordination Sequence:
#
# PCOD9537625 Si02
#       4
#    16  16   8  16
#     4  10  23  43  67  96 129 166 215 272 330 393
#     4  10  20  34  54  82 116 153 195 246 304 369
#     4  10  24  42  60  90 130 172 220 272 323 388
#     4  11  23  39  60  87 122 162 210 262 320 384
#
# _framework density 20.369420000000002
#
# number of rings (size 3 to 8) (size 9 to 14) (size 15 to 20)
#    0.000    1.714    0.000    3.429    2.000   10.857 
#    0.000    0.000    0.000    0.000    0.000    0.000 
#    0.000    0.000    0.000    0.000    0.000    0.000 
#
# Total GULP energy -155886.128071 kJ/mol
# GULP energy per Si atom -5567.361717 kJ/mol
# Density = 2.032306 g / cm^3
# Si number density = 20.369420 Si / 1000 Ang^3
#
#
#
# Elastic Constant Matrix: (Units=GPa)
#
#
# Indices 1 2 3 4 5 6 
#
# 1 112.2909 54.2149 33.8763 0.0000 0.0000 0.0000
# 2 54.2149 180.1364 95.4834 0.0000 0.0000 0.0000
# 3 33.8763 95.4834 119.9826 0.0000 0.0000 0.0000
# 4 0.0000 0.0000 0.0000 43.1381 0.0000 0.0000
# 5 0.0000 0.0000 0.0000 0.0000 192.2183 0.0000
# 6 0.0000 0.0000 0.0000 0.0000 0.0000 -221.3371
#
#
#
# Elastic Compliance Matrix: (Units=1/GPa)
#
#
# Indices 1 2 3 4 5 6 
#
# 1 0.010461 -0.002738 -0.000775 0.000000 0.000000 0.000000
# 2 -0.002738 0.010318 -0.007438 0.000000 0.000000 0.000000
# 3 -0.000775 -0.007438 0.014473 0.000000 0.000000 0.000000
# 4 0.000000 0.000000 0.000000 0.023181 0.000000 0.000000
# 5 0.000000 0.000000 0.000000 0.000000 0.005202 0.000000
# 6 0.000000 0.000000 0.000000 0.000000 0.000000 -0.004518
#
#
# Mechanical properties :
#
#
# Convention : Reuss Voigt Hill
#
# Bulk Modulus (GPa) = 74.90562 86.61769 80.76165
# Shear Modulus (GPa) = 58.50061 18.05955 38.28008
#
# Velocity S-wave (km/s) = 5.36490 2.98081 4.33978
# Velocity P-wave (km/s) = 8.67350 7.37989 8.05271
#
# Compressibility (1/GPa) = 0.01335013
#
# Stress axis : x y z
#
# Youngs Moduli (GPa) = 95.59331 96.91806 69.09533
#
# Poissons Ratio (x) = 0.26533 0.05355
# Poissons Ratio (y) = 0.26170 0.51395
# Poissons Ratio (z) = 0.07408 0.72090
#
# Static dielectric constant tensor:
#      x y z
#    x 1.925400 0.000000 0.000000 
#    y 0.000000 1.839750 0.000000 
#    z 0.000000 0.000000 1.767840 
# 
# From -- ./inp_files/65514.got.cif
#   From: 2010.05.17/outbox.cif.g08.bks.cpg/sg74_33_cif.got.tgz:65514.got - 2010.06.03 17:57:02.
