data_PCOD9537763
_publ_section_title
;
Structure prediction by ZEFSAII (Michael W. Deem and Ramdas Pophale) SiO2 
 PCOD9537763
Probable space group: I M M A
;
_chemical_formula_sum "Si O2"
_cell_formula_units_Z 68
_cell_length_a 13.390874
_cell_length_b 26.156752
_cell_length_c 9.403580
_cell_angle_alpha 90.000000
_cell_angle_beta 90.000000
_cell_angle_gamma 90.000000
_cell_volume 3293.714578
_symmetry_space_group_name_H-M "I M M A"
_symmetry_group_IT_number 74
_symmetry_cell_setting 'orthorhombic'
loop_
_space_group_symop_operation_xyz
x,y,z
-x,1/2-y,z
x,-y,-z
-x,1/2+y,-z
-x,-y,-z
x,1/2+y,-z
-x,y,z
x,1/2-y,z
1/2+x,1/2+y,1/2+z
1/2-x,-y,1/2+z
1/2+x,1/2-y,1/2-z
1/2-x,y,1/2-z
1/2-x,1/2-y,1/2-z
1/2+x,y,1/2-z
1/2-x,1/2+y,1/2+z
1/2+x,-y,1/2+z
loop_
_atom_site_type_symbol
_atom_site_label
_atom_site_fract_x
_atom_site_fract_y
_atom_site_fract_z
Si Si1 0.000000 0.250000 0.697149
Si Si2 0.782829 0.250000 0.587964
Si Si3 0.500000 0.640137 0.233468
Si Si4 0.500000 0.101122 0.455004
Si Si5 0.000000 0.688089 0.731283
Si Si6 0.709941 0.450243 0.404113
Si Si7 0.165162 0.648483 0.510222
O O1 0.903972 0.250000 0.595804
O O2 0.000000 0.301129 0.786014
O O3 0.750000 0.250000 0.750000
O O4 0.758913 0.195732 0.519045
O O5 0.500000 0.605881 0.372941
O O6 0.404170 0.637241 0.128584
O O7 0.500000 0.156376 0.377751
O O8 0.402649 0.070455 0.405534
O O9 0.905380 0.668003 0.638350
O O10 0.000000 0.750000 0.744839
O O11 0.718284 0.500000 0.500000
O O12 0.750000 0.464210 0.250000
O O13 0.776888 0.402719 0.455364
#
# Coordination Sequence:
#
# PCOD9537763 Si02
#       7
#     4   8   8   8   8  16  16
#     4   8  18  36  50  94 138 176 214 264 324 406
#     4  10  20  34  66 100 141 178 234 280 343 431
#     4   9  22  38  69 100 140 180 225 280 348 417
#     4  12  27  47  67 108 146 173 246 307 354 431
#     4  11  21  46  72 104 152 194 230 295 365 437
#     4  12  29  51  74 100 140 187 247 306 367 428
#     4  10  22  45  70 101 141 192 238 283 361 447
#
# _framework density 20.645384
#
# number of rings (size 3 to 8) (size 9 to 14) (size 15 to 20)
#    0.000    1.412    3.529    1.059   12.353    0.000 
#    2.118    4.706    0.000    0.000    0.000    0.000 
#    0.000    0.000    0.000    0.000    0.000    0.000 
#
# Total GULP energy -189968.592555 kJ/mol
# GULP energy per Si atom -5587.311546 kJ/mol
# Density = 2.059839 g / cm^3
# Si number density = 20.645384 Si / 1000 Ang^3
#
#
#
# Elastic Constant Matrix: (Units=GPa)
#
#
# Indices 1 2 3 4 5 6 
#
# 1 93.3790 73.5649 52.1285 0.0001 0.0000 0.0000
# 2 73.5649 185.2793 72.7540 -0.0004 0.0002 0.0001
# 3 52.1285 72.7540 137.9501 -0.0009 0.0011 0.0005
# 4 0.0001 -0.0004 -0.0009 29.6937 0.0004 0.0003
# 5 0.0000 0.0002 0.0011 0.0004 21.6080 -0.0002
# 6 0.0000 0.0001 0.0005 0.0003 -0.0002 12.9716
#
#
#
# Elastic Compliance Matrix: (Units=1/GPa)
#
#
# Indices 1 2 3 4 5 6 
#
# 1 0.016883 -0.005295 -0.003587 0.000000 0.000000 0.000000
# 2 -0.005295 0.008467 -0.002465 0.000000 0.000000 0.000000
# 3 -0.003587 -0.002465 0.009905 0.000000 0.000000 0.000000
# 4 0.000000 0.000000 0.000000 0.033677 -0.000001 -0.000001
# 5 0.000000 0.000000 0.000000 -0.000001 0.046279 0.000001
# 6 0.000000 0.000000 0.000000 -0.000001 0.000001 0.077091
#
#
# Mechanical properties :
#
#
# Convention : Reuss Voigt Hill
#
# Bulk Modulus (GPa) = 79.61135 90.38922 85.00029
# Shear Modulus (GPa) = 22.81197 27.39874 25.10535
#
# Velocity S-wave (km/s) = 3.32767 3.64691 3.49094
# Velocity P-wave (km/s) = 7.30819 7.84921 7.58352
#
# Compressibility (1/GPa) = 0.01256102
#
# Stress axis : x y z
#
# Youngs Moduli (GPa) = 59.23176 118.10003 100.96385
#
# Poissons Ratio (x) = 0.62530 0.36219
# Poissons Ratio (y) = 0.31361 0.24887
# Poissons Ratio (z) = 0.21248 0.29111
#
# Static dielectric constant tensor:
#      x y z
#    x 1.760460 0.000000 0.000000 
#    y 0.000000 1.744650 0.000000 
#    z 0.000000 0.000000 1.732860 
# 
# From -- ./inp_files/9114.got.cif
#   From: 2010.05.17/outbox.cif.g08.bks.cpg/sg74_5_cif.got.tgz:9114.got - 2010.06.03 17:57:02.
