data_PCOD9537786
_publ_section_title
;
Structure prediction by ZEFSAII (Michael W. Deem and Ramdas Pophale) SiO2 
 PCOD9537786
Probable space group: I M M A
;
_chemical_formula_sum "Si O2"
_cell_formula_units_Z 68
_cell_length_a 32.331781
_cell_length_b 18.367555
_cell_length_c 5.116495
_cell_angle_alpha 90.000000
_cell_angle_beta 90.000000
_cell_angle_gamma 90.000000
_cell_volume 3038.460056
_symmetry_space_group_name_H-M "I M M A"
_symmetry_group_IT_number 74
_symmetry_cell_setting 'orthorhombic'
loop_
_space_group_symop_operation_xyz
x,y,z
-x,1/2-y,z
x,-y,-z
-x,1/2+y,-z
-x,-y,-z
x,1/2+y,-z
-x,y,z
x,1/2-y,z
1/2+x,1/2+y,1/2+z
1/2-x,-y,1/2+z
1/2+x,1/2-y,1/2-z
1/2-x,y,1/2-z
1/2-x,1/2-y,1/2-z
1/2+x,y,1/2-z
1/2-x,1/2+y,1/2+z
1/2+x,-y,1/2+z
loop_
_atom_site_type_symbol
_atom_site_label
_atom_site_fract_x
_atom_site_fract_y
_atom_site_fract_z
Si Si1 0.206441 0.338657 0.373083
Si Si2 0.547784 0.548176 0.737648
Si Si3 0.581022 0.329738 0.941360
Si Si4 0.340929 0.661531 0.378232
Si Si5 0.000000 0.750000 0.280137
O O1 0.207715 0.250000 0.378989
O O2 0.250000 0.362343 0.250000
O O3 0.193777 0.360872 0.664695
O O4 0.171463 0.362799 0.166443
O O5 0.563524 0.500000 0.500000
O O6 0.500000 0.567993 0.680025
O O7 0.572312 0.619879 0.813797
O O8 0.548159 0.500000 0.000000
O O9 0.595847 0.250000 0.036460
O O10 0.615205 0.359561 0.745182
O O11 0.537042 0.312332 0.803284
O O12 0.340979 0.750000 0.387700
#
# Coordination Sequence:
#
# PCOD9537786 Si02
#       5
#    16  16  16  16   4
#     4   9  16  27  42  65  96 132 167 205 265 324
#     4  10  20  35  53  74 101 139 185 234 285 340
#     4   9  17  33  55  76 109 140 193 232 297 340
#     4   9  17  27  45  67  96 131 170 219 260 324
#     4   8  16  32  56  74 106 146 186 242 292 350
#
# _framework density 22.379757000000001
#
# number of rings (size 3 to 8) (size 9 to 14) (size 15 to 20)
#    0.706    2.118    1.176    0.706    0.000    4.706 
#    0.000    3.529    0.000    9.882    0.000    0.000 
#    0.000    5.647    0.000    0.235    0.000    0.471 
#
# Total GULP energy -189286.365535 kJ/mol
# GULP energy per Si atom -5567.246045 kJ/mol
# Density = 2.232882 g / cm^3
# Si number density = 22.379757 Si / 1000 Ang^3
#
#
#
# Elastic Constant Matrix: (Units=GPa)
#
#
# Indices 1 2 3 4 5 6 
#
# 1 85.2659 2.5632 -6.5833 -0.0001 0.0000 0.0000
# 2 2.5632 39.2501 18.7858 0.0000 0.0000 0.0000
# 3 -6.5833 18.7858 87.4698 0.0000 0.0002 0.0001
# 4 -0.0001 0.0000 0.0000 8.5436 0.0000 0.0000
# 5 0.0000 0.0000 0.0002 0.0000 28.0737 0.0000
# 6 0.0000 0.0000 0.0001 0.0000 0.0000 8.6650
#
#
#
# Elastic Compliance Matrix: (Units=1/GPa)
#
#
# Indices 1 2 3 4 5 6 
#
# 1 0.011859 -0.001339 0.001180 0.000000 0.000000 0.000000
# 2 -0.001339 0.028548 -0.006232 0.000000 0.000000 0.000000
# 3 0.001180 -0.006232 0.012860 0.000000 0.000000 0.000000
# 4 0.000000 0.000000 0.000000 0.117046 0.000000 0.000000
# 5 0.000000 0.000000 0.000000 0.000000 0.035621 0.000000
# 6 0.000000 0.000000 0.000000 0.000000 0.000000 0.115406
#
#
# Mechanical properties :
#
#
# Convention : Reuss Voigt Hill
#
# Bulk Modulus (GPa) = 24.70061 26.83524 25.76793
# Shear Modulus (GPa) = 14.38363 22.20448 18.29405
#
# Velocity S-wave (km/s) = 2.53792 3.15329 2.86219
# Velocity P-wave (km/s) = 4.43272 5.02738 4.73938
#
# Compressibility (1/GPa) = 0.04048483
#
# Stress axis : x y z
#
# Youngs Moduli (GPa) = 84.32132 35.02890 77.76181
#
# Poissons Ratio (x) = 0.04692 -0.09178
# Poissons Ratio (y) = 0.11293 0.48461
# Poissons Ratio (z) = -0.09952 0.21830
#
# Static dielectric constant tensor:
#      x y z
#    x 1.866630 0.000000 0.000000 
#    y 0.000000 1.888800 0.000000 
#    z 0.000000 0.000000 1.847950 
# 
# From -- ./inp_files/5010.got.cif
#   From: 2010.05.17/outbox.cif.g08.bks.cpg/sg74_3_cif.got.tgz:5010.got - 2010.06.03 17:57:02.
