data_PCOD9537227
_publ_section_title
;
Structure prediction by ZEFSAII (Michael W. Deem and Ramdas Pophale) SiO2 
 PCOD9537227
Probable space group: I M M A
;
_chemical_formula_sum "Si O2"
_cell_formula_units_Z 104
_cell_length_a 8.747706
_cell_length_b 29.028135
_cell_length_c 24.516025
_cell_angle_alpha 90.000000
_cell_angle_beta 90.000000
_cell_angle_gamma 90.000000
_cell_volume 6225.344194
_symmetry_space_group_name_H-M "I M M A"
_symmetry_group_IT_number 74
_symmetry_cell_setting 'orthorhombic'
loop_
_space_group_symop_operation_xyz
x,y,z
-x,1/2-y,z
x,-y,-z
-x,1/2+y,-z
-x,-y,-z
x,1/2+y,-z
-x,y,z
x,1/2-y,z
1/2+x,1/2+y,1/2+z
1/2-x,-y,1/2+z
1/2+x,1/2-y,1/2-z
1/2-x,y,1/2-z
1/2-x,1/2-y,1/2-z
1/2+x,y,1/2-z
1/2-x,1/2+y,1/2+z
1/2+x,-y,1/2+z
loop_
_atom_site_type_symbol
_atom_site_label
_atom_site_fract_x
_atom_site_fract_y
_atom_site_fract_z
Si Si1 0.681715 0.378796 0.689006
Si Si2 0.816156 0.337860 0.125462
Si Si3 0.183192 0.250000 0.310891
Si Si4 0.181905 0.196150 0.609119
Si Si5 0.817328 0.473063 0.688881
Si Si6 0.316553 0.924218 0.811394
Si Si7 0.318311 0.195650 0.492462
O O1 0.500000 0.380866 0.692939
O O2 0.750000 0.373895 0.750000
O O3 0.735133 0.336700 0.651803
O O4 0.744121 0.427091 0.664315
O O5 0.743530 0.295130 0.157945
O O6 0.755716 0.384801 0.151609
O O7 0.000000 0.335052 0.130069
O O8 0.775827 0.332175 0.061690
O O9 0.250000 0.250000 0.250000
O O10 0.000000 0.250000 0.309232
O O11 0.224280 0.250000 0.616903
O O12 0.229591 0.183561 0.547438
O O13 0.000000 0.191974 0.615656
O O14 0.750000 0.474358 0.750000
O O15 0.782890 0.524078 0.666601
O O16 0.000000 0.467596 0.690925
O O17 0.500000 0.919067 0.808564
O O18 0.250000 0.920332 0.750000
O O19 0.500000 0.190164 0.502172
O O20 0.291334 0.250000 0.480938
#
# Coordination Sequence:
#
# PCOD9537227 Si02
#       7
#    16  16   8  16  16  16  16
#     4  11  21  34  55  81 110 141 172 207 254 306
#     4  11  21  35  53  74 102 136 174 218 265 314
#     4  12  24  36  50  70 102 138 175 218 269 322
#     4  10  21  36  55  80 108 138 173 211 252 302
#     4   9  17  31  51  74 103 135 172 213 254 305
#     4  10  20  33  50  75 104 137 174 216 264 313
#     4   9  18  35  55  74  99 133 175 216 257 306
#
# _framework density 16.705904
#
# number of rings (size 3 to 8) (size 9 to 14) (size 15 to 20)
#    0.000    1.846    0.769    5.308    0.000    4.308 
#    0.000    0.000    0.000    0.923    0.000    6.462 
#    0.000    0.000    0.000    0.000    0.000    0.000 
#
# Total GULP energy -290183.052076 kJ/mol
# GULP energy per Si atom -5580.443309 kJ/mol
# Density = 1.666788 g / cm^3
# Si number density = 16.705904 Si / 1000 Ang^3
#
#
#
# Elastic Constant Matrix: (Units=GPa)
#
#
# Indices 1 2 3 4 5 6 
#
# 1 101.3285 70.3137 51.8722 0.0000 0.0000 0.0000
# 2 70.3137 137.5827 72.8875 0.0000 0.0000 0.0000
# 3 51.8722 72.8875 84.8214 0.0000 0.0000 0.0000
# 4 0.0000 0.0000 0.0000 0.3824 0.0000 0.0000
# 5 0.0000 0.0000 0.0000 0.0000 27.7686 0.0000
# 6 0.0000 0.0000 0.0000 0.0000 0.0000 26.7061
#
#
#
# Elastic Compliance Matrix: (Units=1/GPa)
#
#
# Indices 1 2 3 4 5 6 
#
# 1 0.016456 -0.005652 -0.005207 0.000000 0.000000 0.000000
# 2 -0.005652 0.015283 -0.009677 0.000000 0.000000 0.000000
# 3 -0.005207 -0.009677 0.023289 0.000000 0.000000 0.000000
# 4 0.000000 0.000000 0.000000 2.614748 0.000000 0.000000
# 5 0.000000 0.000000 0.000000 0.000000 0.036012 0.000000
# 6 0.000000 0.000000 0.000000 0.000000 0.000000 0.037445
#
#
# Mechanical properties :
#
#
# Convention : Reuss Voigt Hill
#
# Bulk Modulus (GPa) = 71.64622 79.31994 75.48308
# Shear Modulus (GPa) = 1.79279 19.54870 10.67074
#
# Velocity S-wave (km/s) = 1.03705 3.42448 2.53007
# Velocity P-wave (km/s) = 6.66437 7.95106 7.33598
#
# Compressibility (1/GPa) = 0.01395747
#
# Stress axis : x y z
#
# Youngs Moduli (GPa) = 60.76670 65.43183 42.93815
#
# Poissons Ratio (x) = 0.36979 0.22360
# Poissons Ratio (y) = 0.34342 0.41550
# Poissons Ratio (z) = 0.31644 0.63316
#
# Static dielectric constant tensor:
#      x y z
#    x 1.561410 0.000000 0.000000 
#    y 0.000000 1.578810 0.000000 
#    z 0.000000 0.000000 1.529560 
# 
# From -- ./inp_files/57871.got.cif
#   From: 2010.05.17/outbox.cif.g08.bks.cpg/sg74_29_cif.got.tgz:57871.got - 2010.06.03 17:57:02.
