data_PCOD9537908
_publ_section_title
;
Structure prediction by ZEFSAII (Michael W. Deem and Ramdas Pophale) SiO2 
 PCOD9537908
Probable space group: I M M A
;
_chemical_formula_sum "Si O2"
_cell_formula_units_Z 88
_cell_length_a 24.207278
_cell_length_b 8.794182
_cell_length_c 20.638569
_cell_angle_alpha 90.000000
_cell_angle_beta 90.000000
_cell_angle_gamma 90.000000
_cell_volume 4393.604787
_symmetry_space_group_name_H-M "I M M A"
_symmetry_group_IT_number 74
_symmetry_cell_setting 'orthorhombic'
loop_
_space_group_symop_operation_xyz
x,y,z
-x,1/2-y,z
x,-y,-z
-x,1/2+y,-z
-x,-y,-z
x,1/2+y,-z
-x,y,z
x,1/2-y,z
1/2+x,1/2+y,1/2+z
1/2-x,-y,1/2+z
1/2+x,1/2-y,1/2-z
1/2-x,y,1/2-z
1/2-x,1/2-y,1/2-z
1/2+x,y,1/2-z
1/2-x,1/2+y,1/2+z
1/2+x,-y,1/2+z
loop_
_atom_site_type_symbol
_atom_site_label
_atom_site_fract_x
_atom_site_fract_y
_atom_site_fract_z
Si Si1 0.500000 0.933557 0.073705
Si Si2 0.775016 0.068081 0.318291
Si Si3 0.782707 0.922202 0.065044
Si Si4 0.584909 0.078081 0.565132
Si Si5 0.935175 0.576017 0.207534
Si Si6 0.100202 0.568404 0.660429
O O1 0.500000 0.750000 0.071627
O O2 0.554686 0.990066 0.113560
O O3 0.500000 0.000000 0.000000
O O4 0.779299 0.250000 0.312187
O O5 0.750000 0.009496 0.250000
O O6 0.835630 0.016725 0.343376
O O7 0.732804 0.020815 0.373493
O O8 0.762140 0.750000 0.071775
O O9 0.848851 0.916278 0.060168
O O10 0.760743 0.000000 0.000000
O O11 0.563576 0.250000 0.567430
O O12 0.572578 0.009724 0.635518
O O13 0.564251 0.000000 0.500000
O O14 0.911452 0.750000 0.209435
O O15 0.912884 0.473568 0.265092
O O16 0.000000 0.589459 0.218962
O O17 0.096579 0.750000 0.649898
#
# Coordination Sequence:
#
# PCOD9537908 Si02
#       6
#     8  16  16  16  16  16
#     4  12  26  46  70  94 123 160 205 260 318 376
#     4  10  22  39  60  89 124 159 197 247 303 360
#     4  10  20  35  56  80 111 151 193 239 288 347
#     4   9  19  34  52  79 114 153 198 242 288 338
#     4  10  20  35  56  81 113 153 193 239 290 341
#     4  11  23  40  63  91 122 156 200 249 301 366
#
# _framework density 20.029111
#
# number of rings (size 3 to 8) (size 9 to 14) (size 15 to 20)
#    0.000    1.818    0.909    3.000    0.000    4.364 
#    0.000    0.000    0.000    0.000    0.000    0.000 
#    0.000    0.000    0.000    0.000    0.000    0.000 
#
# Total GULP energy -245378.549470 kJ/mol
# GULP energy per Si atom -5576.785215 kJ/mol
# Density = 1.998352 g / cm^3
# Si number density = 20.029111 Si / 1000 Ang^3
#
#
#
# Elastic Constant Matrix: (Units=GPa)
#
#
# Indices 1 2 3 4 5 6 
#
# 1 82.4542 29.3108 29.6378 0.0000 0.0000 0.0000
# 2 29.3108 31.3635 14.3973 0.0000 0.0000 0.0000
# 3 29.6378 14.3973 119.8491 0.0000 0.0000 0.0000
# 4 0.0000 0.0000 0.0000 18.6356 0.0000 0.0000
# 5 0.0000 0.0000 0.0000 0.0000 -97.8404 0.0000
# 6 0.0000 0.0000 0.0000 0.0000 0.0000 -10.3377
#
#
#
# Elastic Compliance Matrix: (Units=1/GPa)
#
#
# Indices 1 2 3 4 5 6 
#
# 1 0.018958 -0.016473 -0.002709 0.000000 0.000000 0.000000
# 2 -0.016473 0.048059 -0.001700 0.000000 0.000000 0.000000
# 3 -0.002709 -0.001700 0.009218 0.000000 0.000000 0.000000
# 4 0.000000 0.000000 0.000000 0.053661 0.000000 0.000000
# 5 0.000000 0.000000 0.000000 0.000000 -0.010221 0.000000
# 6 0.000000 0.000000 0.000000 0.000000 0.000000 -0.096733
#
#
# Mechanical properties :
#
#
# Convention : Reuss Voigt Hill
#
# Bulk Modulus (GPa) = 29.00987 42.26208 35.63598
# Shear Modulus (GPa) = 65.62017 -7.22044 29.19987
#
# Velocity S-wave (km/s) = 5.73005 -1.90074 3.82235
# Velocity P-wave (km/s) = 7.63501 4.04092 6.10829
#
# Compressibility (1/GPa) = 0.03447102
#
# Stress axis : x y z
#
# Youngs Moduli (GPa) = 52.74921 20.80755 108.48388
#
# Poissons Ratio (x) = 0.34277 0.29390
# Poissons Ratio (y) = 0.86895 0.18438
# Poissons Ratio (z) = 0.14291 0.03536
#
# Static dielectric constant tensor:
#      x y z
#    x 1.750100 0.000000 0.000000 
#    y 0.000000 1.711700 0.000000 
#    z 0.000000 0.000000 1.733440 
# 
# From -- ./inp_files/48739.got.cif
#   From: 2010.05.17/outbox.cif.g08.bks.cpg/sg74_25_cif.got.tgz:48739.got - 2010.06.03 17:57:02.
