data_PCOD9537906
_publ_section_title
;
Structure prediction by ZEFSAII (Michael W. Deem and Ramdas Pophale) SiO2 
 PCOD9537906
Probable space group: I M M A
;
_chemical_formula_sum "Si O2"
_cell_formula_units_Z 112
_cell_length_a 15.549378
_cell_length_b 14.890549
_cell_length_c 24.908186
_cell_angle_alpha 90.000000
_cell_angle_beta 90.000000
_cell_angle_gamma 90.000000
_cell_volume 5767.210875
_symmetry_space_group_name_H-M "I M M A"
_symmetry_group_IT_number 74
_symmetry_cell_setting 'orthorhombic'
loop_
_space_group_symop_operation_xyz
x,y,z
-x,1/2-y,z
x,-y,-z
-x,1/2+y,-z
-x,-y,-z
x,1/2+y,-z
-x,y,z
x,1/2-y,z
1/2+x,1/2+y,1/2+z
1/2-x,-y,1/2+z
1/2+x,1/2-y,1/2-z
1/2-x,y,1/2-z
1/2-x,1/2-y,1/2-z
1/2+x,y,1/2-z
1/2-x,1/2+y,1/2+z
1/2+x,-y,1/2+z
loop_
_atom_site_type_symbol
_atom_site_label
_atom_site_fract_x
_atom_site_fract_y
_atom_site_fract_z
Si Si1 0.900933 0.395207 0.514136
Si Si2 0.601134 0.147926 0.581653
Si Si3 0.714868 0.149903 0.474171
Si Si4 0.899554 0.647853 0.777456
Si Si5 0.164827 0.034632 0.125300
Si Si6 0.398020 0.151016 0.862422
Si Si7 0.813107 0.501853 0.295368
O O1 0.903542 0.500000 0.500000
O O2 0.817926 0.357703 0.482783
O O3 0.878834 0.380085 0.576779
O O4 0.000000 0.360766 0.504806
O O5 0.500000 0.139551 0.566510
O O6 0.612584 0.250000 0.603417
O O7 0.664083 0.140279 0.530332
O O8 0.625124 0.064931 0.620089
O O9 0.696181 0.250000 0.453267
O O10 0.679032 0.077227 0.432833
O O11 0.865097 0.750000 0.777966
O O12 0.887669 0.599729 0.835058
O O13 0.855994 0.583417 0.733453
O O14 0.000000 0.651739 0.765215
O O15 0.256594 0.028500 0.154290
O O16 0.500000 0.158576 0.860757
O O17 0.359063 0.250000 0.853942
O O18 0.372804 0.078886 0.818263
O O19 0.750000 0.540733 0.250000
#
# Coordination Sequence:
#
# PCOD9537906 Si02
#       7
#    16  16  16  16  16  16  16
#     4  10  20  35  56  82 116 159 202 242 288 348
#     4  10  22  39  59  86 120 156 193 236 289 348
#     4  11  22  35  55  85 121 158 196 239 289 347
#     4  10  22  41  63  84 109 145 190 240 293 347
#     4  11  22  37  59  85 114 150 190 236 288 346
#     4  10  20  35  56  80 109 147 189 232 279 336
#     4  10  22  37  57  82 109 143 184 236 293 347
#
# _framework density 19.420133
#
# number of rings (size 3 to 8) (size 9 to 14) (size 15 to 20)
#    0.000    1.714    0.000    4.714    0.000    7.714 
#    0.000    4.286    0.000    7.714    0.000    0.000 
#    0.000    0.000    0.000    0.000    0.000    0.000 
#
# Total GULP energy -312394.519825 kJ/mol
# GULP energy per Si atom -5578.473568 kJ/mol
# Density = 1.937593 g / cm^3
# Si number density = 19.420133 Si / 1000 Ang^3
#
#
#
# Elastic Constant Matrix: (Units=GPa)
#
#
# Indices 1 2 3 4 5 6 
#
# 1 75.4382 37.6067 20.7927 0.0000 0.0000 0.0000
# 2 37.6067 157.4966 59.9519 0.0000 0.0000 0.0000
# 3 20.7927 59.9519 50.2739 0.0000 0.0000 0.0000
# 4 0.0000 0.0000 0.0000 9.0678 0.0000 0.0000
# 5 0.0000 0.0000 0.0000 0.0000 16.2299 0.0000
# 6 0.0000 0.0000 0.0000 0.0000 0.0000 30.7891
#
#
#
# Elastic Compliance Matrix: (Units=1/GPa)
#
#
# Indices 1 2 3 4 5 6 
#
# 1 0.015401 -0.002294 -0.003634 0.000000 0.000000 0.000000
# 2 -0.002294 0.011969 -0.013324 0.000000 0.000000 0.000000
# 3 -0.003634 -0.013324 0.037283 0.000000 0.000000 0.000000
# 4 0.000000 0.000000 0.000000 0.110280 0.000000 0.000000
# 5 0.000000 0.000000 0.000000 0.000000 0.061615 0.000000
# 6 0.000000 0.000000 0.000000 0.000000 0.000000 0.032479
#
#
# Mechanical properties :
#
#
# Convention : Reuss Voigt Hill
#
# Bulk Modulus (GPa) = 38.24287 57.76792 48.00539
# Shear Modulus (GPa) = 15.81032 22.20786 19.00909
#
# Velocity S-wave (km/s) = 2.85637 3.38531 3.13203
# Velocity P-wave (km/s) = 5.53296 6.71501 6.15244
#
# Compressibility (1/GPa) = 0.02614867
#
# Stress axis : x y z
#
# Youngs Moduli (GPa) = 64.93019 83.54812 26.82157
#
# Poissons Ratio (x) = 0.19167 0.09747
# Poissons Ratio (y) = 0.14896 0.35738
# Poissons Ratio (z) = 0.23595 1.11323
#
# Static dielectric constant tensor:
#      x y z
#    x 1.705180 0.000000 0.000000 
#    y 0.000000 1.723070 0.000000 
#    z 0.000000 0.000000 1.654190 
# 
# From -- ./inp_files/60158.got.cif
#   From: 2010.05.17/outbox.cif.g08.bks.cpg/sg74_31_cif.got.tgz:60158.got - 2010.06.03 17:57:02.
