data_PCOD9537346
_publ_section_title
;
Structure prediction by ZEFSAII (Michael W. Deem and Ramdas Pophale) SiO2 
 PCOD9537346
Probable space group: I M M A
;
_chemical_formula_sum "Si O2"
_cell_formula_units_Z 68
_cell_length_a 19.542971
_cell_length_b 13.978339
_cell_length_c 12.642790
_cell_angle_alpha 90.000000
_cell_angle_beta 90.000000
_cell_angle_gamma 90.000000
_cell_volume 3453.735547
_symmetry_space_group_name_H-M "I M M A"
_symmetry_group_IT_number 74
_symmetry_cell_setting 'orthorhombic'
loop_
_space_group_symop_operation_xyz
x,y,z
-x,1/2-y,z
x,-y,-z
-x,1/2+y,-z
-x,-y,-z
x,1/2+y,-z
-x,y,z
x,1/2-y,z
1/2+x,1/2+y,1/2+z
1/2-x,-y,1/2+z
1/2+x,1/2-y,1/2-z
1/2-x,y,1/2-z
1/2-x,1/2-y,1/2-z
1/2+x,y,1/2-z
1/2-x,1/2+y,1/2+z
1/2+x,-y,1/2+z
loop_
_atom_site_type_symbol
_atom_site_label
_atom_site_fract_x
_atom_site_fract_y
_atom_site_fract_z
Si Si1 0.000000 0.000000 0.500000
Si Si2 0.618098 0.358936 0.959236
Si Si3 0.775428 0.137392 0.942698
Si Si4 0.421648 0.859504 0.802824
Si Si5 0.188470 0.955772 0.832331
O O1 0.060519 0.936569 0.438362
O O2 0.600250 0.250000 0.926415
O O3 0.694567 0.382137 0.923576
O O4 0.619094 0.357419 0.087557
O O5 0.787415 0.250000 0.929790
O O6 0.814198 0.066996 0.863711
O O7 0.794657 0.103353 0.061024
O O8 0.500000 0.888874 0.832494
O O9 0.424638 0.750000 0.764024
O O10 0.382179 0.922237 0.719120
O O11 0.250000 0.938887 0.750000
#
# Coordination Sequence:
#
# PCOD9537346 Si02
#       5
#     4  16  16  16  16
#     4  12  18  28  52  78 120 150 180 230 290 362
#     4  10  20  33  53  81 114 150 186 234 293 349
#     4  10  22  38  55  83 115 148 195 245 286 335
#     4  10  20  35  56  86 117 145 187 241 292 341
#     4  11  21  35  61  85 111 151 197 237 288 337
#
# _framework density 19.688827
#
# number of rings (size 3 to 8) (size 9 to 14) (size 15 to 20)
#    0.000    1.647    3.529    2.471    0.000    1.412 
#    0.000    2.353    0.000    2.118    0.000    0.000 
#    0.000    0.000    0.000    0.000    0.000    0.000 
#
# Total GULP energy -189425.142720 kJ/mol
# GULP energy per Si atom -5571.327727 kJ/mol
# Density = 1.964401 g / cm^3
# Si number density = 19.688827 Si / 1000 Ang^3
#
#
#
# Elastic Constant Matrix: (Units=GPa)
#
#
# Indices 1 2 3 4 5 6 
#
# 1 28.4021 20.9782 5.0400 0.0000 0.0000 0.0000
# 2 20.9782 112.5095 6.6992 0.0000 0.0000 0.0000
# 3 5.0400 6.6992 33.4866 0.0000 0.0000 0.0000
# 4 0.0000 0.0000 0.0000 24.4830 0.0000 0.0000
# 5 0.0000 0.0000 0.0000 0.0000 29.8896 0.0000
# 6 0.0000 0.0000 0.0000 0.0000 0.0000 38.9314
#
#
#
# Elastic Compliance Matrix: (Units=1/GPa)
#
#
# Indices 1 2 3 4 5 6 
#
# 1 0.041569 -0.007467 -0.004763 0.000000 0.000000 0.000000
# 2 -0.007467 0.010337 -0.000944 0.000000 0.000000 0.000000
# 3 -0.004763 -0.000944 0.030768 0.000000 0.000000 0.000000
# 4 0.000000 0.000000 0.000000 0.040845 0.000000 0.000000
# 5 0.000000 0.000000 0.000000 0.000000 0.033456 0.000000
# 6 0.000000 0.000000 0.000000 0.000000 0.000000 0.025686
#
#
# Mechanical properties :
#
#
# Convention : Reuss Voigt Hill
#
# Bulk Modulus (GPa) = 17.75368 26.64812 22.20090
# Shear Modulus (GPa) = 21.95052 28.10619 25.02836
#
# Velocity S-wave (km/s) = 3.34259 3.78235 3.56925
# Velocity P-wave (km/s) = 4.89223 5.71305 5.31850
#
# Compressibility (1/GPa) = 0.05632636
#
# Stress axis : x y z
#
# Youngs Moduli (GPa) = 24.05625 96.74284 32.50087
#
# Poissons Ratio (x) = 0.72241 0.15479
# Poissons Ratio (y) = 0.17964 0.03068
# Poissons Ratio (z) = 0.11457 0.09133
#
# Static dielectric constant tensor:
#      x y z
#    x 1.659530 0.000000 0.000000 
#    y 0.000000 1.197710 0.000000 
#    z 0.000000 0.000000 1.634020 
# 
# From -- ./inp_files/23395.got.cif
#   From: 2010.05.17/outbox.cif.g08.bks.cpg/sg74_12_cif.got.tgz:23395.got - 2010.06.03 17:57:02.
