data_PCOD9537211
_publ_section_title
;
Structure prediction by ZEFSAII (Michael W. Deem and Ramdas Pophale) SiO2 
 PCOD9537211
Probable space group: I M M A
;
_chemical_formula_sum "Si O2"
_cell_formula_units_Z 96
_cell_length_a 15.700998
_cell_length_b 14.379794
_cell_length_c 18.513091
_cell_angle_alpha 90.000000
_cell_angle_beta 90.000000
_cell_angle_gamma 90.000000
_cell_volume 4179.832310
_symmetry_space_group_name_H-M "I M M A"
_symmetry_group_IT_number 74
_symmetry_cell_setting 'orthorhombic'
loop_
_space_group_symop_operation_xyz
x,y,z
-x,1/2-y,z
x,-y,-z
-x,1/2+y,-z
-x,-y,-z
x,1/2+y,-z
-x,y,z
x,1/2-y,z
1/2+x,1/2+y,1/2+z
1/2-x,-y,1/2+z
1/2+x,1/2-y,1/2-z
1/2-x,y,1/2-z
1/2-x,1/2-y,1/2-z
1/2+x,y,1/2-z
1/2-x,1/2+y,1/2+z
1/2+x,-y,1/2+z
loop_
_atom_site_type_symbol
_atom_site_label
_atom_site_fract_x
_atom_site_fract_y
_atom_site_fract_z
Si Si1 0.901850 0.390368 0.482217
Si Si2 0.853764 0.645312 0.132053
Si Si3 0.900119 0.140196 0.031021
Si Si4 0.843318 0.150146 0.635927
Si Si5 0.601845 0.057591 0.169621
Si Si6 0.401485 0.550804 0.675024
O O1 0.905224 0.500000 0.500000
O O2 0.851352 0.348003 0.548672
O O3 0.866054 0.387096 0.400861
O O4 0.000000 0.356885 0.484092
O O5 0.888468 0.750000 0.141728
O O6 0.755741 0.645149 0.155601
O O7 0.899133 0.560957 0.171765
O O8 0.857878 0.623838 0.046308
O O9 0.896972 0.250000 0.045630
O O10 0.000000 0.113490 0.021660
O O11 0.862769 0.087702 0.100332
O O12 0.877978 0.250000 0.663037
O O13 0.884873 0.053373 0.659368
O O14 0.500000 0.072396 0.169503
O O15 0.636271 0.082783 0.248646
O O16 0.500000 0.582088 0.673745
#
# Coordination Sequence:
#
# PCOD9537211 Si02
#       6
#    16  16  16  16  16  16
#     4   8  15  30  50  69  91 122 160 201 244 290
#     4  10  21  34  49  74 105 134 170 213 248 289
#     4   9  18  34  55  77 101 129 165 210 253 296
#     4  10  20  33  50  73 100 131 168 208 250 295
#     4   9  19  34  50  72 102 131 163 205 250 300
#     4  10  20  34  53  76 102 135 169 201 250 307
#
# _framework density 22.967428999999999
#
# number of rings (size 3 to 8) (size 9 to 14) (size 15 to 20)
#    0.000    2.667    0.000    2.500    0.000    9.000 
#    0.000    4.167    0.000    3.000    0.000    5.833 
#    0.000    0.000    0.000    0.000    0.000    0.000 
#
# Total GULP energy -267825.588662 kJ/mol
# GULP energy per Si atom -5579.699764 kJ/mol
# Density = 2.291515 g / cm^3
# Si number density = 22.967429 Si / 1000 Ang^3
#
#
#
# Elastic Constant Matrix: (Units=GPa)
#
#
# Indices 1 2 3 4 5 6 
#
# 1 31.9839 -6.3982 -2.6363 0.0000 0.0000 0.0000
# 2 -6.3982 39.5412 7.1475 0.0000 0.0000 0.0000
# 3 -2.6363 7.1475 114.1308 0.0000 0.0000 0.0000
# 4 0.0000 0.0000 0.0000 3.7977 0.0000 0.0000
# 5 0.0000 0.0000 0.0000 0.0000 63.9308 0.0000
# 6 0.0000 0.0000 0.0000 0.0000 0.0000 9.3573
#
#
#
# Elastic Compliance Matrix: (Units=1/GPa)
#
#
# Indices 1 2 3 4 5 6 
#
# 1 0.032332 0.005155 0.000424 0.000000 0.000000 0.000000
# 2 0.005155 0.026402 -0.001534 0.000000 0.000000 0.000000
# 3 0.000424 -0.001534 0.008868 0.000000 0.000000 0.000000
# 4 0.000000 0.000000 0.000000 0.263317 0.000000 0.000000
# 5 0.000000 0.000000 0.000000 0.000000 0.015642 0.000000
# 6 0.000000 0.000000 0.000000 0.000000 0.000000 0.106868
#
#
# Mechanical properties :
#
#
# Convention : Reuss Voigt Hill
#
# Bulk Modulus (GPa) = 13.21167 20.20909 16.71038
# Shear Modulus (GPa) = 10.62542 27.92002 19.27272
#
# Velocity S-wave (km/s) = 2.15322 3.49038 2.89992
# Velocity P-wave (km/s) = 3.45639 5.00617 4.30165
#
# Compressibility (1/GPa) = 0.07569066
#
# Stress axis : x y z
#
# Youngs Moduli (GPa) = 30.92918 37.87656 112.76800
#
# Poissons Ratio (x) = -0.19526 -0.04781
# Poissons Ratio (y) = -0.15944 0.17302
# Poissons Ratio (z) = -0.01311 0.05812
#
# Static dielectric constant tensor:
#      x y z
#    x 1.823560 0.000000 0.000000 
#    y 0.000000 1.860730 0.000000 
#    z 0.000000 0.000000 1.930350 
# 
# From -- ./inp_files/44118.got.cif
#   From: 2010.05.17/outbox.cif.g08.bks.cpg/sg74_23_cif.got.tgz:44118.got - 2010.06.03 17:57:02.
