data_PCOD9537568
_publ_section_title
;
Structure prediction by ZEFSAII (Michael W. Deem and Ramdas Pophale) SiO2 
 PCOD9537568
Probable space group: I M M A
;
_chemical_formula_sum "Si O2"
_cell_formula_units_Z 88
_cell_length_a 19.500817
_cell_length_b 8.991041
_cell_length_c 28.374090
_cell_angle_alpha 90.000000
_cell_angle_beta 90.000000
_cell_angle_gamma 90.000000
_cell_volume 4974.904254
_symmetry_space_group_name_H-M "I M M A"
_symmetry_group_IT_number 74
_symmetry_cell_setting 'orthorhombic'
loop_
_space_group_symop_operation_xyz
x,y,z
-x,1/2-y,z
x,-y,-z
-x,1/2+y,-z
-x,-y,-z
x,1/2+y,-z
-x,y,z
x,1/2-y,z
1/2+x,1/2+y,1/2+z
1/2-x,-y,1/2+z
1/2+x,1/2-y,1/2-z
1/2-x,y,1/2-z
1/2-x,1/2-y,1/2-z
1/2+x,y,1/2-z
1/2-x,1/2+y,1/2+z
1/2+x,-y,1/2+z
loop_
_atom_site_type_symbol
_atom_site_label
_atom_site_fract_x
_atom_site_fract_y
_atom_site_fract_z
Si Si1 0.177245 0.427496 0.685098
Si Si2 0.826592 0.072970 0.852832
Si Si3 0.500000 0.575350 0.050259
Si Si4 0.219189 0.572693 0.950216
Si Si5 0.921766 0.930730 0.228528
Si Si6 0.632447 0.075435 0.089969
O O1 0.165161 0.250000 0.676775
O O2 0.259561 0.446412 0.681138
O O3 0.133918 0.469427 0.731287
O O4 0.150657 0.527822 0.642639
O O5 0.831500 0.250000 0.861957
O O6 0.891486 0.022254 0.822057
O O7 0.815833 0.992714 0.902865
O O8 0.500000 0.750000 0.045699
O O9 0.432087 0.520456 0.075650
O O10 0.500000 0.500000 0.000000
O O11 0.209242 0.750000 0.951956
O O12 0.300395 0.543499 0.941533
O O13 0.198368 0.500000 0.000000
O O14 0.923132 0.750000 0.227879
O O15 0.000000 0.981326 0.237413
O O16 0.617130 0.250000 0.086242
#
# Coordination Sequence:
#
# PCOD9537568 Si02
#       6
#    16  16   8  16  16  16
#     4   9  17  30  50  75 102 136 176 214 254 300
#     4   9  17  31  51  75 104 137 172 213 258 305
#     4  12  24  36  50  68  96 136 176 216 261 306
#     4  10  20  34  54  77 101 129 166 212 260 311
#     4   9  17  29  49  77 106 136 175 217 256 303
#     4  10  21  35  50  72 102 134 171 214 257 305
#
# _framework density 17.688782
#
# number of rings (size 3 to 8) (size 9 to 14) (size 15 to 20)
#    0.000    2.364    0.000    3.000    1.273    5.818 
#    0.000    0.909    0.000    6.545    0.000    0.000 
#    0.000    0.000    0.000    0.000    0.000    0.000 
#
# Total GULP energy -245252.327068 kJ/mol
# GULP energy per Si atom -5573.916524 kJ/mol
# Density = 1.764852 g / cm^3
# Si number density = 17.688782 Si / 1000 Ang^3
#
#
#
# Elastic Constant Matrix: (Units=GPa)
#
#
# Indices 1 2 3 4 5 6 
#
# 1 44.1525 16.5994 39.4909 0.0000 0.0000 0.0000
# 2 16.5994 29.7213 25.2927 0.0000 0.0000 0.0000
# 3 39.4909 25.2927 107.8347 0.0000 0.0000 0.0000
# 4 0.0000 0.0000 0.0000 21.8741 0.0000 0.0000
# 5 0.0000 0.0000 0.0000 0.0000 6.2876 0.0000
# 6 0.0000 0.0000 0.0000 0.0000 0.0000 11.8592
#
#
#
# Elastic Compliance Matrix: (Units=1/GPa)
#
#
# Indices 1 2 3 4 5 6 
#
# 1 0.036460 -0.011245 -0.010715 0.000000 0.000000 0.000000
# 2 -0.011245 0.045504 -0.006555 0.000000 0.000000 0.000000
# 3 -0.010715 -0.006555 0.014735 0.000000 0.000000 0.000000
# 4 0.000000 0.000000 0.000000 0.045716 0.000000 0.000000
# 5 0.000000 0.000000 0.000000 0.000000 0.159044 0.000000
# 6 0.000000 0.000000 0.000000 0.000000 0.000000 0.084323
#
#
# Mechanical properties :
#
#
# Convention : Reuss Voigt Hill
#
# Bulk Modulus (GPa) = 25.20792 38.27495 31.74144
# Shear Modulus (GPa) = 10.96409 14.69253 12.82831
#
# Velocity S-wave (km/s) = 2.49235 2.88516 2.69592
# Velocity P-wave (km/s) = 4.75017 5.72572 5.26061
#
# Compressibility (1/GPa) = 0.03967006
#
# Stress axis : x y z
#
# Youngs Moduli (GPa) = 27.42753 21.97592 67.86611
#
# Poissons Ratio (x) = 0.24711 0.72717
# Poissons Ratio (y) = 0.30841 0.44487
# Poissons Ratio (z) = 0.29388 0.14406
#
# Static dielectric constant tensor:
#      x y z
#    x 1.596380 0.000000 0.000000 
#    y 0.000000 1.582870 0.000000 
#    z 0.000000 0.000000 1.580090 
# 
# From -- ./inp_files/56984.got.cif
#   From: 2010.05.17/outbox.cif.g08.bks.cpg/sg74_29_cif.got.tgz:56984.got - 2010.06.03 17:57:02.
