data_PCOD9537495
_publ_section_title
;
Structure prediction by ZEFSAII (Michael W. Deem and Ramdas Pophale) SiO2 
 PCOD9537495
Probable space group: I M M A
;
_chemical_formula_sum "Si O2"
_cell_formula_units_Z 88
_cell_length_a 18.948784
_cell_length_b 7.676842
_cell_length_c 29.307221
_cell_angle_alpha 90.000000
_cell_angle_beta 90.000000
_cell_angle_gamma 90.000000
_cell_volume 4263.228267
_symmetry_space_group_name_H-M "I M M A"
_symmetry_group_IT_number 74
_symmetry_cell_setting 'orthorhombic'
loop_
_space_group_symop_operation_xyz
x,y,z
-x,1/2-y,z
x,-y,-z
-x,1/2+y,-z
-x,-y,-z
x,1/2+y,-z
-x,y,z
x,1/2-y,z
1/2+x,1/2+y,1/2+z
1/2-x,-y,1/2+z
1/2+x,1/2-y,1/2-z
1/2-x,y,1/2-z
1/2-x,1/2-y,1/2-z
1/2+x,y,1/2-z
1/2-x,1/2+y,1/2+z
1/2+x,-y,1/2+z
loop_
_atom_site_type_symbol
_atom_site_label
_atom_site_fract_x
_atom_site_fract_y
_atom_site_fract_z
Si Si1 0.078005 0.459510 0.446745
Si Si2 0.690570 0.956811 0.783590
Si Si3 0.706946 0.040468 0.113835
Si Si4 0.500000 0.459634 0.553630
Si Si5 0.133993 0.040654 0.887512
Si Si6 0.419197 0.460299 0.710229
O O1 0.086762 0.500000 0.500000
O O2 0.076849 0.250000 0.442013
O O3 0.144234 0.527022 0.418117
O O4 0.000000 0.524188 0.432455
O O5 0.703242 0.750000 0.787419
O O6 0.750000 0.032410 0.750000
O O7 0.696134 0.027544 0.834585
O O8 0.618072 0.982392 0.756610
O O9 0.700571 0.250000 0.114863
O O10 0.786545 0.002355 0.098047
O O11 0.500000 0.250000 0.557811
O O12 0.500000 0.500000 0.500000
O O13 0.570763 0.522920 0.579715
O O14 0.128512 0.250000 0.886398
O O15 0.121042 0.977461 0.835468
O O16 0.500000 0.517856 0.707456
O O17 0.418332 0.250000 0.709474
#
# Coordination Sequence:
#
# PCOD9537495 Si02
#       6
#    16  16  16   8  16  16
#     4   9  19  37  59  80 105 140 177 218 271 326
#     4  10  20  34  52  79 112 143 178 220 265 316
#     4  10  21  36  56  83 114 143 179 225 271 326
#     4  10  22  40  58  80 110 146 188 236 283 330
#     4  10  20  36  57  78 106 145 185 225 274 324
#     4  10  20  35  55  78 105 143 188 226 264 319
#
# _framework density 20.641635000000001
#
# number of rings (size 3 to 8) (size 9 to 14) (size 15 to 20)
#    0.000    2.182    2.727    0.000    0.000    4.364 
#    0.000    5.455    0.000    2.182    0.000    0.000 
#    0.000    0.000    0.000    0.000    0.000    0.000 
#
# Total GULP energy -245619.420393 kJ/mol
# GULP energy per Si atom -5582.259554 kJ/mol
# Density = 2.059465 g / cm^3
# Si number density = 20.641635 Si / 1000 Ang^3
#
#
#
# Elastic Constant Matrix: (Units=GPa)
#
#
# Indices 1 2 3 4 5 6 
#
# 1 198.5642 2.1750 98.4736 0.0000 0.0000 0.0000
# 2 2.1750 35.3873 5.2462 0.0000 0.0000 0.0000
# 3 98.4736 5.2462 117.2315 0.0000 0.0000 0.0000
# 4 0.0000 0.0000 0.0000 19.0522 0.0000 0.0000
# 5 0.0000 0.0000 0.0000 0.0000 38.7613 0.0000
# 6 0.0000 0.0000 0.0000 0.0000 0.0000 26.0731
#
#
#
# Elastic Compliance Matrix: (Units=1/GPa)
#
#
# Indices 1 2 3 4 5 6 
#
# 1 0.008643 0.000549 -0.007284 0.000000 0.000000 0.000000
# 2 0.000549 0.028482 -0.001736 0.000000 0.000000 0.000000
# 3 -0.007284 -0.001736 0.014727 0.000000 0.000000 0.000000
# 4 0.000000 0.000000 0.000000 0.052487 0.000000 0.000000
# 5 0.000000 0.000000 0.000000 0.000000 0.025799 0.000000
# 6 0.000000 0.000000 0.000000 0.000000 0.000000 0.038354
#
#
# Mechanical properties :
#
#
# Convention : Reuss Voigt Hill
#
# Bulk Modulus (GPa) = 28.64572 62.55253 45.59913
# Shear Modulus (GPa) = 25.37169 33.12987 29.25078
#
# Velocity S-wave (km/s) = 3.50973 4.01059 3.76849
# Velocity P-wave (km/s) = 5.50745 7.19836 6.40891
#
# Compressibility (1/GPa) = 0.03490923
#
# Stress axis : x y z
#
# Youngs Moduli (GPa) = 115.70541 35.10956 67.90454
#
# Poissons Ratio (x) = -0.01926 0.49464
# Poissons Ratio (y) = -0.06349 0.11785
# Poissons Ratio (z) = 0.84283 0.06093
#
# Static dielectric constant tensor:
#      x y z
#    x 1.745250 0.000000 0.000000 
#    y 0.000000 1.776250 0.000000 
#    z 0.000000 0.000000 1.714660 
# 
# From -- ./inp_files/72949.got.cif
#   From: 2010.05.17/outbox.cif.g08.bks.cpg/sg74_37_cif.got.tgz:72949.got - 2010.06.03 17:57:02.
