data_PCOD9537842
_publ_section_title
;
Structure prediction by ZEFSAII (Michael W. Deem and Ramdas Pophale) SiO2 
 PCOD9537842
Probable space group: I M M A
;
_chemical_formula_sum "Si O2"
_cell_formula_units_Z 96
_cell_length_a 25.772171
_cell_length_b 8.885281
_cell_length_c 24.166930
_cell_angle_alpha 90.000000
_cell_angle_beta 90.000000
_cell_angle_gamma 90.000000
_cell_volume 5534.057350
_symmetry_space_group_name_H-M "I M M A"
_symmetry_group_IT_number 74
_symmetry_cell_setting 'orthorhombic'
loop_
_space_group_symop_operation_xyz
x,y,z
-x,1/2-y,z
x,-y,-z
-x,1/2+y,-z
-x,-y,-z
x,1/2+y,-z
-x,y,z
x,1/2-y,z
1/2+x,1/2+y,1/2+z
1/2-x,-y,1/2+z
1/2+x,1/2-y,1/2-z
1/2-x,y,1/2-z
1/2-x,1/2-y,1/2-z
1/2+x,y,1/2-z
1/2-x,1/2+y,1/2+z
1/2+x,-y,1/2+z
loop_
_atom_site_type_symbol
_atom_site_label
_atom_site_fract_x
_atom_site_fract_y
_atom_site_fract_z
Si Si1 0.655873 0.431609 0.367233
Si Si2 0.940661 0.068764 0.059466
Si Si3 0.060737 0.929685 0.559656
Si Si4 0.248567 0.430022 0.939126
Si Si5 0.310991 0.569020 0.754993
Si Si6 0.649171 0.570282 0.131915
O O1 0.661134 0.250000 0.370914
O O2 0.601086 0.474971 0.394450
O O3 0.701753 0.505152 0.402578
O O4 0.662087 0.472170 0.302975
O O5 0.939741 0.250000 0.054831
O O6 0.000000 0.022907 0.072035
O O7 0.926281 0.000000 0.000000
O O8 0.066602 0.750000 0.556858
O O9 0.000000 0.964297 0.570004
O O10 0.074582 0.000000 0.500000
O O11 0.098029 0.996583 0.606118
O O12 0.244123 0.250000 0.942825
O O13 0.302406 0.467327 0.908301
O O14 0.247336 0.500000 0.000000
O O15 0.313963 0.750000 0.762065
O O16 0.250000 0.529301 0.750000
O O17 0.336571 0.491047 0.807643
O O18 0.643700 0.750000 0.133295
#
# Coordination Sequence:
#
# PCOD9537842 Si02
#       6
#    16  16  16  16  16  16
#     4  10  20  35  55  78 105 141 182 223 273 325
#     4   9  18  33  53  77 105 136 172 215 264 319
#     4  10  21  38  61  87 115 148 186 230 281 337
#     4  11  23  35  51  78 110 141 176 222 275 328
#     4  10  20  36  57  79 108 148 188 230 276 328
#     4  11  23  37  56  82 112 148 187 230 277 332
#
# _framework density 17.347128000000001
#
# number of rings (size 3 to 8) (size 9 to 14) (size 15 to 20)
#    0.000    1.833    1.667    2.500    0.000    7.333 
#    0.000    0.833    0.000    3.000    0.000    0.000 
#    0.000    0.000    0.000    0.000    0.000    0.000 
#
# Total GULP energy -268098.635183 kJ/mol
# GULP energy per Si atom -5585.388233 kJ/mol
# Density = 1.730765 g / cm^3
# Si number density = 17.347128 Si / 1000 Ang^3
#
#
#
# Elastic Constant Matrix: (Units=GPa)
#
#
# Indices 1 2 3 4 5 6 
#
# 1 109.5755 45.0430 90.5734 0.0000 0.0000 0.0000
# 2 45.0430 31.7154 55.2650 0.0000 0.0000 0.0000
# 3 90.5734 55.2650 170.9609 0.0000 0.0000 0.0000
# 4 0.0000 0.0000 0.0000 33.4151 0.0000 0.0000
# 5 0.0000 0.0000 0.0000 0.0000 23.0884 0.0000
# 6 0.0000 0.0000 0.0000 0.0000 0.0000 21.0505
#
#
#
# Elastic Compliance Matrix: (Units=1/GPa)
#
#
# Indices 1 2 3 4 5 6 
#
# 1 0.022910 -0.026076 -0.003708 0.000000 0.000000 0.000000
# 2 -0.026076 0.101879 -0.019119 0.000000 0.000000 0.000000
# 3 -0.003708 -0.019119 0.013994 0.000000 0.000000 0.000000
# 4 0.000000 0.000000 0.000000 0.029927 0.000000 0.000000
# 5 0.000000 0.000000 0.000000 0.000000 0.043312 0.000000
# 6 0.000000 0.000000 0.000000 0.000000 0.000000 0.047505
#
#
# Mechanical properties :
#
#
# Convention : Reuss Voigt Hill
#
# Bulk Modulus (GPa) = 24.40354 77.11273 50.75813
# Shear Modulus (GPa) = 13.47735 23.60215 18.53975
#
# Velocity S-wave (km/s) = 2.79035 3.69261 3.27272
# Velocity P-wave (km/s) = 4.94770 7.92021 6.60339
#
# Compressibility (1/GPa) = 0.04097767
#
# Stress axis : x y z
#
# Youngs Moduli (GPa) = 43.64823 9.81554 71.45773
#
# Poissons Ratio (x) = 0.25595 0.26499
# Poissons Ratio (y) = 1.13817 1.36618
# Poissons Ratio (z) = 0.16186 0.18766
#
# Static dielectric constant tensor:
#      x y z
#    x 1.582510 0.000000 0.000000 
#    y 0.000000 1.581690 0.000000 
#    z 0.000000 0.000000 1.554540 
# 
# From -- ./inp_files/49061.got.cif
#   From: 2010.05.17/outbox.cif.g08.bks.cpg/sg74_25_cif.got.tgz:49061.got - 2010.06.03 17:57:02.
