data_PCOD9537176
_publ_section_title
;
Structure prediction by ZEFSAII (Michael W. Deem and Ramdas Pophale) SiO2 
 PCOD9537176
Probable space group: I M M A
;
_chemical_formula_sum "Si O2"
_cell_formula_units_Z 128
_cell_length_a 27.295713
_cell_length_b 7.230440
_cell_length_c 29.487009
_cell_angle_alpha 90.000000
_cell_angle_beta 90.000000
_cell_angle_gamma 90.000000
_cell_volume 5819.556542
_symmetry_space_group_name_H-M "I M M A"
_symmetry_group_IT_number 74
_symmetry_cell_setting 'orthorhombic'
loop_
_space_group_symop_operation_xyz
x,y,z
-x,1/2-y,z
x,-y,-z
-x,1/2+y,-z
-x,-y,-z
x,1/2+y,-z
-x,y,z
x,1/2-y,z
1/2+x,1/2+y,1/2+z
1/2-x,-y,1/2+z
1/2+x,1/2-y,1/2-z
1/2-x,y,1/2-z
1/2-x,1/2-y,1/2-z
1/2+x,y,1/2-z
1/2-x,1/2+y,1/2+z
1/2+x,-y,1/2+z
loop_
_atom_site_type_symbol
_atom_site_label
_atom_site_fract_x
_atom_site_fract_y
_atom_site_fract_z
Si Si1 0.339814 0.975730 0.369832
Si Si2 0.338219 0.975666 0.085931
Si Si3 0.445928 0.030331 0.945866
Si Si4 0.856930 0.526906 0.316010
Si Si5 0.699053 0.525385 0.272103
Si Si6 0.054660 0.525224 0.267541
Si Si7 0.443831 0.474671 0.663501
Si Si8 0.733811 0.469497 0.551795
O O1 0.340195 0.750000 0.370357
O O2 0.314290 0.034175 0.322506
O O3 0.397174 0.032079 0.366776
O O4 0.306349 0.037705 0.411907
O O5 0.339254 0.750000 0.083218
O O6 0.392760 0.037909 0.071443
O O7 0.331477 0.033492 0.138338
O O8 0.289730 0.038175 0.059292
O O9 0.500000 0.961525 0.930052
O O10 0.445989 0.250000 0.936482
O O11 0.445106 0.000000 0.000000
O O12 0.852435 0.750000 0.316920
O O13 0.837708 0.467736 0.267221
O O14 0.913058 0.472611 0.310605
O O15 0.698800 0.750000 0.274213
O O16 0.750000 0.468873 0.250000
O O17 0.056394 0.750000 0.266147
O O18 0.067481 0.470854 0.215760
O O19 0.000000 0.464512 0.274702
O O20 0.500000 0.533070 0.652564
O O21 0.444655 0.250000 0.662646
O O22 0.718891 0.500000 0.500000
O O23 0.736465 0.250000 0.559496
#
# Coordination Sequence:
#
# PCOD9537176 Si02
#       8
#    16  16  16  16  16  16  16  16
#     4   9  15  24  38  57  81 110 143 177 213 255
#     4   9  17  27  39  57  83 113 144 176 215 260
#     4   9  17  29  44  60  79 106 142 183 223 259
#     4   9  14  20  30  48  76 108 136 162 196 242
#     4   9  14  19  29  47  74 106 135 162 198 245
#     4   8  12  17  26  43  71 108 142 164 188 235
#     4   8  12  19  32  51  77 110 144 170 198 248
#     4  10  20  33  48  65  86 112 144 183 223 262
#
# _framework density 21.994802
#
# number of rings (size 3 to 8) (size 9 to 14) (size 15 to 20)
#    0.000    3.125    1.250    1.875    0.000    3.500 
#    0.000    2.500    0.000    0.375    0.000    0.000 
#    0.000    5.500    0.000    0.000    0.000    1.000 
#
# Total GULP energy -356657.555227 kJ/mol
# GULP energy per Si atom -5572.774300 kJ/mol
# Density = 2.194474 g / cm^3
# Si number density = 21.994802 Si / 1000 Ang^3
#
#
#
# Elastic Constant Matrix: (Units=GPa)
#
#
# Indices 1 2 3 4 5 6 
#
# 1 151.0386 1.3095 70.2889 0.0000 0.0000 0.0000
# 2 1.3095 101.7707 -6.4868 0.0000 0.0000 0.0000
# 3 70.2889 -6.4868 120.5062 0.0000 0.0000 0.0000
# 4 0.0000 0.0000 0.0000 -8.5318 0.0000 0.0000
# 5 0.0000 0.0000 0.0000 0.0000 33.5359 0.0000
# 6 0.0000 0.0000 0.0000 0.0000 0.0000 -8.3153
#
#
#
# Elastic Compliance Matrix: (Units=1/GPa)
#
#
# Indices 1 2 3 4 5 6 
#
# 1 0.009109 -0.000457 -0.005338 0.000000 0.000000 0.000000
# 2 -0.000457 0.009883 0.000799 0.000000 0.000000 0.000000
# 3 -0.005338 0.000799 0.011455 0.000000 0.000000 0.000000
# 4 0.000000 0.000000 0.000000 -0.117209 0.000000 0.000000
# 5 0.000000 0.000000 0.000000 0.000000 0.029819 0.000000
# 6 0.000000 0.000000 0.000000 0.000000 0.000000 -0.120260
#
#
# Mechanical properties :
#
#
# Convention : Reuss Voigt Hill
#
# Bulk Modulus (GPa) = 48.89070 55.94873 52.41972
# Shear Modulus (GPa) = -31.17339 23.88469 -3.64435
#
# Velocity S-wave (km/s) = -3.76880 3.29891 -1.28861
# Velocity P-wave (km/s) = 1.82705 6.32478 4.65516
#
# Compressibility (1/GPa) = 0.02045379
#
# Stress axis : x y z
#
# Youngs Moduli (GPa) = 109.78476 101.18574 87.30104
#
# Poissons Ratio (x) = 0.04628 0.46597
# Poissons Ratio (y) = 0.05022 -0.06974
# Poissons Ratio (z) = 0.58598 -0.08083
#
# Static dielectric constant tensor:
#      x y z
#    x 2.009850 0.000000 0.000000 
#    y 0.000000 1.915490 0.000000 
#    z 0.000000 0.000000 1.821110 
# 
# From -- ./inp_files/62537.got.cif
#   From: 2010.05.17/outbox.cif.g08.bks.cpg/sg74_32_cif.got.tgz:62537.got - 2010.06.03 17:57:02.
