data_PCOD9537428
_publ_section_title
;
Structure prediction by ZEFSAII (Michael W. Deem and Ramdas Pophale) SiO2 
 PCOD9537428
Probable space group: I M M A
;
_chemical_formula_sum "Si O2"
_cell_formula_units_Z 104
_cell_length_a 9.010307
_cell_length_b 28.906225
_cell_length_c 20.899043
_cell_angle_alpha 90.000000
_cell_angle_beta 90.000000
_cell_angle_gamma 90.000000
_cell_volume 5443.238540
_symmetry_space_group_name_H-M "I M M A"
_symmetry_group_IT_number 74
_symmetry_cell_setting 'orthorhombic'
loop_
_space_group_symop_operation_xyz
x,y,z
-x,1/2-y,z
x,-y,-z
-x,1/2+y,-z
-x,-y,-z
x,1/2+y,-z
-x,y,z
x,1/2-y,z
1/2+x,1/2+y,1/2+z
1/2-x,-y,1/2+z
1/2+x,1/2-y,1/2-z
1/2-x,y,1/2-z
1/2-x,1/2-y,1/2-z
1/2+x,y,1/2-z
1/2-x,1/2+y,1/2+z
1/2+x,-y,1/2+z
loop_
_atom_site_type_symbol
_atom_site_label
_atom_site_fract_x
_atom_site_fract_y
_atom_site_fract_z
Si Si1 0.823321 0.162583 0.086495
Si Si2 0.828795 0.961724 0.417555
Si Si3 0.676993 0.679753 0.185082
Si Si4 0.180814 0.250000 0.177962
Si Si5 0.328704 0.080830 0.692414
Si Si6 0.331742 0.303545 0.959611
Si Si7 0.830159 0.428771 0.439659
O O1 0.776213 0.203557 0.136496
O O2 0.767455 0.109774 0.095782
O O3 0.000000 0.163436 0.086620
O O4 0.764043 0.173651 0.014997
O O5 0.698858 0.946134 0.371729
O O6 0.806762 0.934310 0.483932
O O7 0.000000 0.951285 0.396620
O O8 0.818173 0.017224 0.421130
O O9 0.500000 0.685605 0.189649
O O10 0.750000 0.699510 0.250000
O O11 0.729537 0.626744 0.185478
O O12 0.723226 0.695547 0.113969
O O13 0.250000 0.250000 0.250000
O O14 0.000000 0.250000 0.183211
O O15 0.500000 0.091450 0.704508
O O16 0.250000 0.053775 0.750000
O O17 0.500000 0.323237 0.959231
O O18 0.340703 0.250000 0.977513
O O19 0.000000 0.414309 0.429257
#
# Coordination Sequence:
#
# PCOD9537428 Si02
#       7
#    16  16  16   8  16  16  16
#     4  11  22  38  59  87 118 144 181 235 288 340
#     4   9  18  35  55  80 114 147 183 227 271 325
#     4  10  20  34  51  74 107 147 192 235 275 322
#     4  10  24  44  64  88 115 146 185 234 295 356
#     4  11  21  33  51  74 102 140 184 225 268 317
#     4  10  21  36  55  79 107 144 188 228 272 331
#     4   9  19  35  58  84 112 148 183 218 272 336
#
# _framework density 19.106273000000002
#
# number of rings (size 3 to 8) (size 9 to 14) (size 15 to 20)
#    0.000    2.000    0.769    5.077    0.000    7.692 
#    0.000    2.308    0.000    1.846    0.000    0.000 
#    0.000    0.000    0.000    0.000    0.000    0.000 
#
# Total GULP energy -289550.216518 kJ/mol
# GULP energy per Si atom -5568.273395 kJ/mol
# Density = 1.906279 g / cm^3
# Si number density = 19.106273 Si / 1000 Ang^3
#
#
#
# Elastic Constant Matrix: (Units=GPa)
#
#
# Indices 1 2 3 4 5 6 
#
# 1 50.8093 29.0848 37.8791 0.0000 0.0000 0.0000
# 2 29.0848 77.3325 35.7466 0.0000 0.0000 0.0000
# 3 37.8791 35.7466 79.2880 0.0000 0.0000 0.0001
# 4 0.0000 0.0000 0.0000 19.7610 0.0000 0.0000
# 5 0.0000 0.0000 0.0000 0.0000 33.8981 0.0000
# 6 0.0000 0.0000 0.0001 0.0000 0.0000 29.2079
#
#
#
# Elastic Compliance Matrix: (Units=1/GPa)
#
#
# Indices 1 2 3 4 5 6 
#
# 1 0.032940 -0.006461 -0.012824 0.000000 0.000000 0.000000
# 2 -0.006461 0.017603 -0.004849 0.000000 0.000000 0.000000
# 3 -0.012824 -0.004849 0.020925 0.000000 0.000000 0.000000
# 4 0.000000 0.000000 0.000000 0.050605 0.000000 0.000000
# 5 0.000000 0.000000 0.000000 0.000000 0.029500 0.000000
# 6 0.000000 0.000000 0.000000 0.000000 0.000000 0.034237
#
#
# Mechanical properties :
#
#
# Convention : Reuss Voigt Hill
#
# Bulk Modulus (GPa) = 43.10467 45.87231 44.48849
# Shear Modulus (GPa) = 20.67714 23.55469 22.11592
#
# Velocity S-wave (km/s) = 3.29328 3.51497 3.40593
# Velocity P-wave (km/s) = 6.08854 6.36667 6.22916
#
# Compressibility (1/GPa) = 0.02319934
#
# Stress axis : x y z
#
# Youngs Moduli (GPa) = 30.35778 56.80919 47.78926
#
# Poissons Ratio (x) = 0.36705 0.61285
# Poissons Ratio (y) = 0.19614 0.23175
# Poissons Ratio (z) = 0.38931 0.27549
#
# Static dielectric constant tensor:
#      x y z
#    x 1.662040 0.000000 0.000000 
#    y 0.000000 1.723120 0.000000 
#    z 0.000000 0.000000 1.749460 
# 
# From -- ./inp_files/49625.got.cif
#   From: 2010.05.17/outbox.cif.g08.bks.cpg/sg74_25_cif.got.tgz:49625.got - 2010.06.03 17:57:02.
