data_PCOD9537837
_publ_section_title
;
Structure prediction by ZEFSAII (Michael W. Deem and Ramdas Pophale) SiO2 
 PCOD9537837
Probable space group: I M M A
;
_chemical_formula_sum "Si O2"
_cell_formula_units_Z 100
_cell_length_a 7.956396
_cell_length_b 19.894574
_cell_length_c 29.565743
_cell_angle_alpha 90.000000
_cell_angle_beta 90.000000
_cell_angle_gamma 90.000000
_cell_volume 4679.935116
_symmetry_space_group_name_H-M "I M M A"
_symmetry_group_IT_number 74
_symmetry_cell_setting 'orthorhombic'
loop_
_space_group_symop_operation_xyz
x,y,z
-x,1/2-y,z
x,-y,-z
-x,1/2+y,-z
-x,-y,-z
x,1/2+y,-z
-x,y,z
x,1/2-y,z
1/2+x,1/2+y,1/2+z
1/2-x,-y,1/2+z
1/2+x,1/2-y,1/2-z
1/2-x,y,1/2-z
1/2-x,1/2-y,1/2-z
1/2+x,y,1/2-z
1/2-x,1/2+y,1/2+z
1/2+x,-y,1/2+z
loop_
_atom_site_type_symbol
_atom_site_label
_atom_site_fract_x
_atom_site_fract_y
_atom_site_fract_z
Si Si1 0.701435 0.373222 0.199953
Si Si2 0.700020 0.529149 0.199886
Si Si3 0.000000 0.750000 0.004850
Si Si4 0.303281 0.676366 0.606410
Si Si5 0.688050 0.417659 0.605345
Si Si6 0.192775 0.355421 0.520042
Si Si7 0.309024 0.454288 0.056289
O O1 0.500000 0.370809 0.194758
O O2 0.750000 0.350248 0.250000
O O3 0.759280 0.451350 0.195690
O O4 0.784607 0.331597 0.160066
O O5 0.500000 0.527238 0.197331
O O6 0.750000 0.553070 0.250000
O O7 0.763596 0.571394 0.157357
O O8 0.152349 0.692152 0.006890
O O9 0.500000 0.672399 0.593803
O O10 0.241591 0.750000 0.592433
O O11 0.206354 0.614873 0.584565
O O12 0.500000 0.391256 0.602757
O O13 0.798198 0.369877 0.573597
O O14 0.697974 0.490950 0.581548
O O15 0.224149 0.426453 0.493930
O O16 0.000000 0.334912 0.508366
O O17 0.500000 0.479609 0.059012
#
# Coordination Sequence:
#
# PCOD9537837 Si02
#       7
#    16  16   4  16  16  16  16
#     4  10  20  35  55  76 107 151 200 254 315 371
#     4  10  20  35  58  90 128 164 205 263 325 386
#     4  12  26  48  70  98 134 172 220 272 328 398
#     4  11  24  37  54  79 111 157 211 263 316 376
#     4  12  23  39  66  98 133 171 216 267 328 388
#     4  11  26  45  69  98 133 174 221 268 325 393
#     4  11  24  40  61  90 126 170 215 272 324 375
#
# _framework density 21.367816999999999
#
# number of rings (size 3 to 8) (size 9 to 14) (size 15 to 20)
#    0.000    1.120    2.400    4.080    3.360    4.800 
#    0.000    0.000    0.000    0.000    0.000    0.560 
#    0.000    0.000    0.000    0.000    0.000    0.000 
#
# Total GULP energy -279061.445822 kJ/mol
# GULP energy per Si atom -5581.228916 kJ/mol
# Density = 2.131918 g / cm^3
# Si number density = 21.367817 Si / 1000 Ang^3
#
#
#
# Elastic Constant Matrix: (Units=GPa)
#
#
# Indices 1 2 3 4 5 6 
#
# 1 105.8624 21.3943 18.4439 0.0000 0.0000 0.0000
# 2 21.3943 30.8531 7.0790 0.0000 0.0000 0.0000
# 3 18.4439 7.0790 131.9655 0.0000 0.0000 0.0000
# 4 0.0000 0.0000 0.0000 -10.0724 0.0000 0.0000
# 5 0.0000 0.0000 0.0000 0.0000 33.9997 0.0000
# 6 0.0000 0.0000 0.0000 0.0000 0.0000 23.5762
#
#
#
# Elastic Compliance Matrix: (Units=1/GPa)
#
#
# Indices 1 2 3 4 5 6 
#
# 1 0.011158 -0.007471 -0.001159 0.000000 0.000000 0.000000
# 2 -0.007471 0.037818 -0.000984 0.000000 0.000000 0.000000
# 3 -0.001159 -0.000984 0.007792 0.000000 0.000000 0.000000
# 4 0.000000 0.000000 0.000000 -0.099281 0.000000 0.000000
# 5 0.000000 0.000000 0.000000 0.000000 0.029412 0.000000
# 6 0.000000 0.000000 0.000000 0.000000 0.000000 0.042416
#
#
# Mechanical properties :
#
#
# Convention : Reuss Voigt Hill
#
# Bulk Modulus (GPa) = 26.63839 40.27948 33.45894
# Shear Modulus (GPa) = 81.88924 24.28495 53.08709
#
# Velocity S-wave (km/s) = 6.19732 3.37489 4.98982
# Velocity P-wave (km/s) = 7.98140 5.83763 6.99216
#
# Compressibility (1/GPa) = 0.03753981
#
# Stress axis : x y z
#
# Youngs Moduli (GPa) = 89.62145 26.44214 128.32871
#
# Poissons Ratio (x) = 0.19756 0.14869
# Poissons Ratio (y) = 0.66960 0.12633
# Poissons Ratio (z) = 0.10384 0.02603
#
# Static dielectric constant tensor:
#      x y z
#    x 1.746030 0.000000 0.000000 
#    y 0.000000 1.780850 0.000000 
#    z 0.000000 0.000000 1.871960 
# 
# From -- ./inp_files/64437.got.cif
#   From: 2010.05.17/outbox.cif.g08.bks.cpg/sg74_33_cif.got.tgz:64437.got - 2010.06.03 17:57:02.
