data_PCOD9537691
_publ_section_title
;
Structure prediction by ZEFSAII (Michael W. Deem and Ramdas Pophale) SiO2 
 PCOD9537691
Probable space group: I M M A
;
_chemical_formula_sum "Si O2"
_cell_formula_units_Z 72
_cell_length_a 7.529925
_cell_length_b 23.030566
_cell_length_c 18.168926
_cell_angle_alpha 90.000000
_cell_angle_beta 90.000000
_cell_angle_gamma 90.000000
_cell_volume 3150.826707
_symmetry_space_group_name_H-M "I M M A"
_symmetry_group_IT_number 74
_symmetry_cell_setting 'orthorhombic'
loop_
_space_group_symop_operation_xyz
x,y,z
-x,1/2-y,z
x,-y,-z
-x,1/2+y,-z
-x,-y,-z
x,1/2+y,-z
-x,y,z
x,1/2-y,z
1/2+x,1/2+y,1/2+z
1/2-x,-y,1/2+z
1/2+x,1/2-y,1/2-z
1/2-x,y,1/2-z
1/2-x,1/2-y,1/2-z
1/2+x,y,1/2-z
1/2-x,1/2+y,1/2+z
1/2+x,-y,1/2+z
loop_
_atom_site_type_symbol
_atom_site_label
_atom_site_fract_x
_atom_site_fract_y
_atom_site_fract_z
Si Si1 0.712873 0.250000 0.663187
Si Si2 0.711441 0.683717 0.834720
Si Si3 0.217699 0.626664 0.103069
Si Si4 0.296881 0.084311 0.445275
Si Si5 0.212488 0.508680 0.168071
O O1 0.500000 0.250000 0.653865
O O2 0.750000 0.250000 0.750000
O O3 0.780150 0.190317 0.626740
O O4 0.500000 0.681861 0.845627
O O5 0.772844 0.750000 0.846482
O O6 0.750000 0.668703 0.750000
O O7 0.796235 0.638681 0.890184
O O8 0.272272 0.575038 0.158018
O O9 0.000000 0.629072 0.102352
O O10 0.279507 0.605707 0.022540
O O11 0.500000 0.067263 0.462435
O O12 0.215876 0.031752 0.397781
O O13 0.250000 0.486576 0.250000
O O14 0.000000 0.508032 0.160674
#
# Coordination Sequence:
#
# PCOD9537691 Si02
#       5
#     8  16  16  16  16
#     4  10  20  36  58  82 107 142 185 226 269 324
#     4  10  21  36  53  76 108 145 184 226 271 323
#     4   9  19  35  56  81 109 143 184 226 272 326
#     4  10  20  34  56  81 108 142 181 226 274 324
#     4  10  20  35  55  80 110 144 183 226 274 326
#
# _framework density 22.851146
#
# number of rings (size 3 to 8) (size 9 to 14) (size 15 to 20)
#    0.000    2.222    0.000    2.667    1.556    6.667 
#    0.000    2.222    0.000    2.667    0.000    0.000 
#    0.000    0.000    0.000    0.000    0.000    0.000 
#
# Total GULP energy -201182.141063 kJ/mol
# GULP energy per Si atom -5588.392807 kJ/mol
# Density = 2.279914 g / cm^3
# Si number density = 22.851146 Si / 1000 Ang^3
#
#
#
# Elastic Constant Matrix: (Units=GPa)
#
#
# Indices 1 2 3 4 5 6 
#
# 1 63.4940 6.1597 -3.4050 0.0000 0.0000 0.0000
# 2 6.1597 156.4959 90.3822 0.0000 0.0000 0.0000
# 3 -3.4050 90.3822 131.3887 0.0000 0.0000 0.0000
# 4 0.0000 0.0000 0.0000 75.0593 0.0000 0.0000
# 5 0.0000 0.0000 0.0000 0.0000 17.7624 0.0000
# 6 0.0000 0.0000 0.0000 0.0000 0.0000 15.6367
#
#
#
# Elastic Compliance Matrix: (Units=1/GPa)
#
#
# Indices 1 2 3 4 5 6 
#
# 1 0.015964 -0.001439 0.001404 0.000000 0.000000 0.000000
# 2 -0.001439 0.010732 -0.007420 0.000000 0.000000 0.000000
# 3 0.001404 -0.007420 0.012751 0.000000 0.000000 0.000000
# 4 0.000000 0.000000 0.000000 0.013323 0.000000 0.000000
# 5 0.000000 0.000000 0.000000 0.000000 0.056299 0.000000
# 6 0.000000 0.000000 0.000000 0.000000 0.000000 0.063952
#
#
# Mechanical properties :
#
#
# Convention : Reuss Voigt Hill
#
# Bulk Modulus (GPa) = 40.75412 59.73916 50.24664
# Shear Modulus (GPa) = 25.49589 38.90779 32.20184
#
# Velocity S-wave (km/s) = 3.34389 4.13081 3.75800
# Velocity P-wave (km/s) = 5.72557 6.99650 6.39269
#
# Compressibility (1/GPa) = 0.02453740
#
# Stress axis : x y z
#
# Youngs Moduli (GPa) = 62.63940 93.18199 78.42322
#
# Poissons Ratio (x) = 0.13409 -0.11008
# Poissons Ratio (y) = 0.09014 0.58187
# Poissons Ratio (z) = -0.08792 0.69137
#
# Static dielectric constant tensor:
#      x y z
#    x 1.827520 0.000000 0.000000 
#    y 0.000000 1.846680 0.000000 
#    z 0.000000 0.000000 1.809880 
# 
# From -- ./inp_files/41117.got.cif
#   From: 2010.05.17/outbox.cif.g08.bks.cpg/sg74_21_cif.got.tgz:41117.got - 2010.06.03 17:57:02.
