data_PCOD9537693
_publ_section_title
;
Structure prediction by ZEFSAII (Michael W. Deem and Ramdas Pophale) SiO2 
 PCOD9537693
Probable space group: I M M A
;
_chemical_formula_sum "Si O2"
_cell_formula_units_Z 88
_cell_length_a 20.484930
_cell_length_b 7.691229
_cell_length_c 25.390625
_cell_angle_alpha 90.000000
_cell_angle_beta 90.000000
_cell_angle_gamma 90.000000
_cell_volume 4000.401836
_symmetry_space_group_name_H-M "I M M A"
_symmetry_group_IT_number 74
_symmetry_cell_setting 'orthorhombic'
loop_
_space_group_symop_operation_xyz
x,y,z
-x,1/2-y,z
x,-y,-z
-x,1/2+y,-z
-x,-y,-z
x,1/2+y,-z
-x,y,z
x,1/2-y,z
1/2+x,1/2+y,1/2+z
1/2-x,-y,1/2+z
1/2+x,1/2-y,1/2-z
1/2-x,y,1/2-z
1/2-x,1/2-y,1/2-z
1/2+x,y,1/2-z
1/2-x,1/2+y,1/2+z
1/2+x,-y,1/2+z
loop_
_atom_site_type_symbol
_atom_site_label
_atom_site_fract_x
_atom_site_fract_y
_atom_site_fract_z
Si Si1 0.070273 0.962509 0.170605
Si Si2 0.740953 0.458562 0.942284
Si Si3 0.628024 0.958518 0.131862
Si Si4 0.110280 0.041357 0.942542
Si Si5 0.825585 0.537022 0.254578
Si Si6 0.500000 0.045744 0.062881
O O1 0.071747 0.750000 0.170748
O O2 0.075484 0.020167 0.110107
O O3 0.131494 0.020012 0.204891
O O4 0.000000 0.014912 0.192978
O O5 0.744712 0.250000 0.936423
O O6 0.691293 0.526807 0.899239
O O7 0.814927 0.525679 0.940144
O O8 0.714143 0.500000 0.000000
O O9 0.633054 0.750000 0.134532
O O10 0.636771 0.018797 0.192102
O O11 0.563773 0.990935 0.096757
O O12 0.112145 0.250000 0.939650
O O13 0.082679 0.000000 0.000000
O O14 0.824378 0.750000 0.254350
O O15 0.750000 0.481657 0.250000
O O16 0.500000 0.250000 0.063240
O O17 0.500000 0.000000 0.000000
#
# Coordination Sequence:
#
# PCOD9537693 Si02
#       6
#    16  16  16  16  16   8
#     4   9  17  28  45  71 102 135 172 215 260 309
#     4   9  17  29  47  72 100 131 167 214 263 311
#     4  10  20  34  56  82 110 143 184 229 279 335
#     4   9  17  30  48  72 103 135 172 214 262 312
#     4   9  17  30  52  82 113 143 180 227 276 328
#     4  12  26  42  58  80 114 152 193 238 293 352
#
# _framework density 21.997789000000001
#
# number of rings (size 3 to 8) (size 9 to 14) (size 15 to 20)
#    0.000    2.545    0.000    2.455    1.273    6.909 
#    0.000    0.000    0.000    1.636    0.000    0.000 
#    0.000    0.000    0.000    0.000    0.000    0.000 
#
# Total GULP energy -245459.740551 kJ/mol
# GULP energy per Si atom -5578.630467 kJ/mol
# Density = 2.194772 g / cm^3
# Si number density = 21.997789 Si / 1000 Ang^3
#
#
#
# Elastic Constant Matrix: (Units=GPa)
#
#
# Indices 1 2 3 4 5 6 
#
# 1 141.5073 1.7030 87.3258 0.0000 0.0000 0.0000
# 2 1.7030 36.3517 3.8233 0.0000 0.0000 0.0000
# 3 87.3258 3.8233 168.9562 0.0000 0.0000 0.0000
# 4 0.0000 0.0000 0.0000 16.8151 0.0000 0.0000
# 5 0.0000 0.0000 0.0000 0.0000 48.8257 0.0000
# 6 0.0000 0.0000 0.0000 0.0000 0.0000 -0.3032
#
#
#
# Elastic Compliance Matrix: (Units=1/GPa)
#
#
# Indices 1 2 3 4 5 6 
#
# 1 0.010377 0.000078 -0.005365 0.000000 0.000000 0.000000
# 2 0.000078 0.027575 -0.000664 0.000000 0.000000 0.000000
# 3 -0.005365 -0.000664 0.008707 0.000000 0.000000 0.000000
# 4 0.000000 0.000000 0.000000 0.059470 0.000000 0.000000
# 5 0.000000 0.000000 0.000000 0.000000 0.020481 0.000000
# 6 0.000000 0.000000 0.000000 0.000000 0.000000 -3.298525
#
#
# Mechanical properties :
#
#
# Convention : Reuss Voigt Hill
#
# Bulk Modulus (GPa) = 28.77199 59.16884 43.97041
# Shear Modulus (GPa) = -1.58809 29.99840 14.20515
#
# Velocity S-wave (km/s) = -0.85059 3.69684 2.54393
# Velocity P-wave (km/s) = 3.48471 6.72147 5.35357
#
# Compressibility (1/GPa) = 0.03475603
#
# Stress axis : x y z
#
# Youngs Moduli (GPa) = 96.37052 36.26445 114.85487
#
# Poissons Ratio (x) = -0.00283 0.61619
# Poissons Ratio (y) = -0.00753 0.07631
# Poissons Ratio (z) = 0.51703 0.02409
#
# Static dielectric constant tensor:
#      x y z
#    x 1.567220 0.000000 0.000000 
#    y 0.000000 1.824050 0.000000 
#    z 0.000000 0.000000 1.824900 
# 
# From -- ./inp_files/61437.got.cif
#   From: 2010.05.17/outbox.cif.g08.bks.cpg/sg74_31_cif.got.tgz:61437.got - 2010.06.03 17:57:02.
