data_PCOD9537150
_publ_section_title
;
Structure prediction by ZEFSAII (Michael W. Deem and Ramdas Pophale) SiO2 
 PCOD9537150
Probable space group: I M M A
;
_chemical_formula_sum "Si O2"
_cell_formula_units_Z 88
_cell_length_a 7.994727
_cell_length_b 17.404368
_cell_length_c 31.413282
_cell_angle_alpha 90.000000
_cell_angle_beta 90.000000
_cell_angle_gamma 90.000000
_cell_volume 4370.943662
_symmetry_space_group_name_H-M "I M M A"
_symmetry_group_IT_number 74
_symmetry_cell_setting 'orthorhombic'
loop_
_space_group_symop_operation_xyz
x,y,z
-x,1/2-y,z
x,-y,-z
-x,1/2+y,-z
-x,-y,-z
x,1/2+y,-z
-x,y,z
x,1/2-y,z
1/2+x,1/2+y,1/2+z
1/2-x,-y,1/2+z
1/2+x,1/2-y,1/2-z
1/2-x,y,1/2-z
1/2-x,1/2-y,1/2-z
1/2+x,y,1/2-z
1/2-x,1/2+y,1/2+z
1/2+x,-y,1/2+z
loop_
_atom_site_type_symbol
_atom_site_label
_atom_site_fract_x
_atom_site_fract_y
_atom_site_fract_z
Si Si1 0.803331 0.750000 0.299598
Si Si2 0.702770 0.615600 0.363945
Si Si3 0.303856 0.943854 0.627135
Si Si4 0.809521 0.657925 0.042990
Si Si5 0.800239 0.161225 0.296762
Si Si6 0.294172 0.660509 0.550002
O O1 0.750000 0.750000 0.250000
O O2 0.749824 0.674981 0.326888
O O3 0.000000 0.750000 0.299076
O O4 0.500000 0.618676 0.364699
O O5 0.761899 0.527674 0.359862
O O6 0.765685 0.639376 0.411141
O O7 0.500000 0.955289 0.617968
O O8 0.282473 0.888022 0.666765
O O9 0.234898 0.898624 0.586007
O O10 0.819756 0.750000 0.040749
O O11 0.000000 0.626444 0.043649
O O12 0.735431 0.635761 0.997239
O O13 0.745878 0.250000 0.300191
O O14 0.750000 0.133422 0.250000
O O15 0.000000 0.158160 0.301239
O O16 0.500000 0.660609 0.549370
O O17 0.246112 0.750000 0.558438
#
# Coordination Sequence:
#
# PCOD9537150 Si02
#       6
#     8  16  16  16  16  16
#     4  12  26  44  66  86 106 138 184 238 293 348
#     4  10  20  36  58  84 114 147 182 225 281 336
#     4  10  20  32  52  84 119 149 180 226 277 328
#     4   8  13  25  49  77 110 149 185 224 267 316
#     4  10  21  37  57  78 103 141 185 226 273 327
#     4   8  14  25  45  79 118 153 187 223 264 310
#
# _framework density 20.132952
#
# number of rings (size 3 to 8) (size 9 to 14) (size 15 to 20)
#    0.000    2.545    0.909    3.000    0.000    4.000 
#    0.000    3.636    0.000    1.091    0.000    2.545 
#    0.000    0.000    0.000    0.000    0.000    0.000 
#
# Total GULP energy -245213.968968 kJ/mol
# GULP energy per Si atom -5573.044749 kJ/mol
# Density = 2.008713 g / cm^3
# Si number density = 20.132952 Si / 1000 Ang^3
#
#
#
# Elastic Constant Matrix: (Units=GPa)
#
#
# Indices 1 2 3 4 5 6 
#
# 1 24.3688 16.0176 9.4065 0.0000 0.0000 0.0000
# 2 16.0176 99.3244 97.9324 0.0000 0.0000 0.0000
# 3 9.4065 97.9324 189.2204 0.0000 0.0000 0.0000
# 4 0.0000 0.0000 0.0000 607.5016 0.0000 0.0000
# 5 0.0000 0.0000 0.0000 0.0000 12.7287 0.0000
# 6 0.0000 0.0000 0.0000 0.0000 0.0000 9.6065
#
#
#
# Elastic Compliance Matrix: (Units=1/GPa)
#
#
# Indices 1 2 3 4 5 6 
#
# 1 0.046848 -0.010739 0.003229 0.000000 0.000000 0.000000
# 2 -0.010739 0.023021 -0.011381 0.000000 0.000000 0.000000
# 3 0.003229 -0.011381 0.011015 0.000000 0.000000 0.000000
# 4 0.000000 0.000000 0.000000 0.001646 0.000000 0.000000
# 5 0.000000 0.000000 0.000000 0.000000 0.078563 0.000000
# 6 0.000000 0.000000 0.000000 0.000000 0.000000 0.104096
#
#
# Mechanical properties :
#
#
# Convention : Reuss Voigt Hill
#
# Bulk Modulus (GPa) = 23.20039 62.18071 42.69055
# Shear Modulus (GPa) = 15.75607 138.60450 77.18028
#
# Velocity S-wave (km/s) = 2.80054 8.30627 6.19827
# Velocity P-wave (km/s) = 4.69105 11.08802 8.51323
#
# Compressibility (1/GPa) = 0.04310272
#
# Stress axis : x y z
#
# Youngs Moduli (GPa) = 21.34550 43.43797 90.78816
#
# Poissons Ratio (x) = 0.46647 -0.29316
# Poissons Ratio (y) = 0.22922 1.03326
# Poissons Ratio (z) = -0.06893 0.49437
#
# Static dielectric constant tensor:
#      x y z
#    x 1.757910 0.000000 0.000000 
#    y 0.000000 1.716490 0.000000 
#    z 0.000000 0.000000 1.260230 
# 
# From -- ./inp_files/70224.got.cif
#   From: 2010.05.17/outbox.cif.g08.bks.cpg/sg74_36_cif.got.tgz:70224.got - 2010.06.03 17:57:02.
