data_PCOD9537317
_publ_section_title
;
Structure prediction by ZEFSAII (Michael W. Deem and Ramdas Pophale) SiO2 
 PCOD9537317
Probable space group: I M M A
;
_chemical_formula_sum "Si O2"
_cell_formula_units_Z 84
_cell_length_a 14.683082
_cell_length_b 27.939773
_cell_length_c 9.122747
_cell_angle_alpha 90.000000
_cell_angle_beta 90.000000
_cell_angle_gamma 90.000000
_cell_volume 3742.533774
_symmetry_space_group_name_H-M "I M M A"
_symmetry_group_IT_number 74
_symmetry_cell_setting 'orthorhombic'
loop_
_space_group_symop_operation_xyz
x,y,z
-x,1/2-y,z
x,-y,-z
-x,1/2+y,-z
-x,-y,-z
x,1/2+y,-z
-x,y,z
x,1/2-y,z
1/2+x,1/2+y,1/2+z
1/2-x,-y,1/2+z
1/2+x,1/2-y,1/2-z
1/2-x,y,1/2-z
1/2-x,1/2-y,1/2-z
1/2+x,y,1/2-z
1/2-x,1/2+y,1/2+z
1/2+x,-y,1/2+z
loop_
_atom_site_type_symbol
_atom_site_label
_atom_site_fract_x
_atom_site_fract_y
_atom_site_fract_z
Si Si1 0.105399 0.601165 0.657034
Si Si2 0.388253 0.920061 0.165987
Si Si3 0.611121 0.486193 0.339018
Si Si4 0.149378 0.697017 0.811328
Si Si5 0.000000 0.750000 0.246190
Si Si6 0.101510 0.662532 0.123984
O O1 0.145922 0.592826 0.496018
O O2 0.142761 0.565124 0.779847
O O3 0.106946 0.655184 0.713827
O O4 0.000000 0.587064 0.640421
O O5 0.500000 0.916602 0.166109
O O6 0.358237 0.880942 0.285371
O O7 0.364857 0.972829 0.221678
O O8 0.645232 0.500000 0.500000
O O9 0.500000 0.485748 0.349198
O O10 0.105985 0.750000 0.804512
O O11 0.250000 0.700881 0.750000
O O12 0.151343 0.680608 0.979905
O O13 0.922039 0.792619 0.228931
O O14 0.000000 0.647050 0.067071
#
# Coordination Sequence:
#
# PCOD9537317 Si02
#       6
#    16  16  16  16   4  16
#     4  10  20  33  52  80 109 133 168 219 265 307
#     4   9  17  30  51  82 110 137 166 214 266 308
#     4   9  16  28  50  80 108 137 171 207 253 311
#     4  11  22  37  53  73 101 138 177 218 262 312
#     4   8  16  28  54  78 102 140 182 218 252 304
#     4   9  16  32  54  77 103 137 181 211 257 306
#
# _framework density 22.444686999999998
#
# number of rings (size 3 to 8) (size 9 to 14) (size 15 to 20)
#    0.571    1.905    0.952    2.286    0.000    6.476 
#    1.714    0.952    0.000    9.143    0.000    0.000 
#    0.000    0.000    0.000    0.000    0.000    0.000 
#
# Total GULP energy -233811.180453 kJ/mol
# GULP energy per Si atom -5566.932868 kJ/mol
# Density = 2.239360 g / cm^3
# Si number density = 22.444687 Si / 1000 Ang^3
#
#
#
# Elastic Constant Matrix: (Units=GPa)
#
#
# Indices 1 2 3 4 5 6 
#
# 1 42.1813 2.0981 6.2442 0.0001 -0.0001 -0.0300
# 2 2.0981 140.4094 85.0382 0.0017 0.0003 0.0241
# 3 6.2442 85.0382 124.2275 -0.0049 0.0011 0.1888
# 4 0.0001 0.0017 -0.0049 -27.1241 0.0002 0.1804
# 5 -0.0001 0.0003 0.0011 0.0002 2.3481 0.0326
# 6 -0.0300 0.0241 0.1888 0.1804 0.0326-5998.6622
#
#
#
# Elastic Compliance Matrix: (Units=1/GPa)
#
#
# Indices 1 2 3 4 5 6 
#
# 1 0.023918 0.000633 -0.001636 0.000000 0.000001 0.000000
# 2 0.000633 0.012183 -0.008371 0.000002 0.000003 0.000000
# 3 -0.001636 -0.008371 0.013862 -0.000003 -0.000006 0.000000
# 4 0.000000 0.000002 -0.000003 -0.036868 0.000003 -0.000001
# 5 0.000001 0.000003 -0.000006 0.000003 0.425873 0.000002
# 6 0.000000 0.000000 0.000000 -0.000001 0.000002 -0.000167
#
#
# Mechanical properties :
#
#
# Convention : Reuss Voigt Hill
#
# Bulk Modulus (GPa) = 32.03546 54.84214 43.43880
# Shear Modulus (GPa) = 10.68482 -1190.45846 -589.88682
#
# Velocity S-wave (km/s) = 2.18423 -23.05532 -16.22925
# Velocity P-wave (km/s) = 4.54590 26.15804 18.21508
#
# Compressibility (1/GPa) = 0.03121541
#
# Stress axis : x y z
#
# Youngs Moduli (GPa) = 41.80981 82.08459 72.13777
#
# Poissons Ratio (x) = -0.05198 0.11799
# Poissons Ratio (y) = -0.02648 0.60388
# Poissons Ratio (z) = 0.06839 0.68715
#
# Static dielectric constant tensor:
#      x y z
#    x 1.803900 0.000000 0.000000 
#    y 0.000000 1.836370 0.000000 
#    z 0.000000 0.000000 1.816600 
# 
# From -- ./inp_files/12338.got.cif
#   From: 2010.05.17/outbox.cif.g08.bks.cpg/sg74_7_cif.got.tgz:12338.got - 2010.06.03 17:57:02.
