data_PCOD9537352
_publ_section_title
;
Structure prediction by ZEFSAII (Michael W. Deem and Ramdas Pophale) SiO2 
 PCOD9537352
Probable space group: I M M A
;
_chemical_formula_sum "Si O2"
_cell_formula_units_Z 68
_cell_length_a 19.186710
_cell_length_b 10.127213
_cell_length_c 13.686460
_cell_angle_alpha 90.000000
_cell_angle_beta 90.000000
_cell_angle_gamma 90.000000
_cell_volume 2659.387287
_symmetry_space_group_name_H-M "I M M A"
_symmetry_group_IT_number 74
_symmetry_cell_setting 'orthorhombic'
loop_
_space_group_symop_operation_xyz
x,y,z
-x,1/2-y,z
x,-y,-z
-x,1/2+y,-z
-x,-y,-z
x,1/2+y,-z
-x,y,z
x,1/2-y,z
1/2+x,1/2+y,1/2+z
1/2-x,-y,1/2+z
1/2+x,1/2-y,1/2-z
1/2-x,y,1/2-z
1/2-x,1/2-y,1/2-z
1/2+x,y,1/2-z
1/2-x,1/2+y,1/2+z
1/2+x,-y,1/2+z
loop_
_atom_site_type_symbol
_atom_site_label
_atom_site_fract_x
_atom_site_fract_y
_atom_site_fract_z
Si Si1 0.584137 0.250000 0.283175
Si Si2 0.770075 0.901211 0.408261
Si Si3 0.881319 0.974170 0.117506
Si Si4 0.080816 0.921553 0.417344
Si Si5 0.581125 0.250000 0.069892
Si Si6 0.500000 0.250000 0.651493
O O1 0.500000 0.250000 0.284898
O O2 0.606065 0.383969 0.335326
O O3 0.617970 0.250000 0.175422
O O4 0.769191 0.750000 0.445306
O O5 0.697110 0.926617 0.357585
O O6 0.845862 0.920055 0.359013
O O7 0.771511 0.000000 0.500000
O O8 0.938668 0.866285 0.146744
O O9 0.885567 0.000000 0.000000
O O10 0.080663 0.750000 0.439292
O O11 0.000000 0.929728 0.379129
O O12 0.087343 0.086689 0.455368
O O13 0.500000 0.250000 0.093438
#
# Coordination Sequence:
#
# PCOD9537352 Si02
#       6
#     8  16  16  16   8   4
#     4  11  23  38  58  94 131 174 219 265 319 384
#     4  10  20  33  53  85 120 153 202 259 316 371
#     4  11  23  35  56  85 127 169 219 271 312 372
#     4   9  17  33  62  94 122 157 199 257 331 392
#     4   9  18  34  60  94 130 160 205 269 324 390
#     4  12  20  34  56  84 112 172 214 260 314 366
#
# _framework density 25.569801999999999
#
# number of rings (size 3 to 8) (size 9 to 14) (size 15 to 20)
#    0.000    1.882    3.529    1.059    6.588    0.000 
#    0.000    0.000    0.000   26.824    3.059    6.588 
#    0.000    0.000    0.000    0.000    0.000    0.000 
#
# Total GULP energy -189272.116029 kJ/mol
# GULP energy per Si atom -5566.826942 kJ/mol
# Density = 2.551160 g / cm^3
# Si number density = 25.569802 Si / 1000 Ang^3
#
#
#
# Elastic Constant Matrix: (Units=GPa)
#
#
# Indices 1 2 3 4 5 6 
#
# 1 307.8182 82.5108 32.4855 0.0000 0.0000 0.0000
# 2 82.5108 300.5233 65.0781 0.0000 0.0000 0.0000
# 3 32.4855 65.0781 104.1871 0.0000 0.0000 0.0000
# 4 0.0000 0.0000 0.0000 1264.4720 0.0000 0.0000
# 5 0.0000 0.0000 0.0000 0.0000 -4.9949 0.0000
# 6 0.0000 0.0000 0.0000 0.0000 0.0000 53.0042
#
#
#
# Elastic Compliance Matrix: (Units=1/GPa)
#
#
# Indices 1 2 3 4 5 6 
#
# 1 0.003536 -0.000847 -0.000574 0.000000 0.000000 0.000000
# 2 -0.000847 0.004051 -0.002266 0.000000 0.000000 0.000000
# 3 -0.000574 -0.002266 0.011193 0.000000 0.000000 0.000000
# 4 0.000000 0.000000 0.000000 0.000791 0.000000 0.000000
# 5 0.000000 0.000000 0.000000 0.000000 -0.200206 0.000000
# 6 0.000000 0.000000 0.000000 0.000000 0.000000 0.018866
#
#
# Mechanical properties :
#
#
# Convention : Reuss Voigt Hill
#
# Bulk Modulus (GPa) = 87.67121 119.18638 103.42880
# Shear Modulus (GPa) = -33.20190 297.99321 132.39566
#
# Velocity S-wave (km/s) = -3.60735 10.80713 7.20351
# Velocity P-wave (km/s) = 4.12441 14.22810 10.47496
#
# Compressibility (1/GPa) = 0.01140625
#
# Stress axis : x y z
#
# Youngs Moduli (GPa) = 282.79248 246.86944 89.34518
#
# Poissons Ratio (x) = 0.20901 0.05126
# Poissons Ratio (y) = 0.23942 0.20247
# Poissons Ratio (z) = 0.16225 0.55946
#
# Static dielectric constant tensor:
#      x y z
#    x 1.896110 0.000000 0.000000 
#    y 0.000000 2.057380 0.000000 
#    z 0.000000 0.000000 2.080910 
# 
# From -- ./inp_files/52633.got.cif
#   From: 2010.05.17/outbox.cif.g08.bks.cpg/sg74_27_cif.got.tgz:52633.got - 2010.06.03 17:57:02.
