data_PCOD9537576
_publ_section_title
;
Structure prediction by ZEFSAII (Michael W. Deem and Ramdas Pophale) SiO2 
 PCOD9537576
Probable space group: I M M A
;
_chemical_formula_sum "Si O2"
_cell_formula_units_Z 104
_cell_length_a 22.274201
_cell_length_b 8.808098
_cell_length_c 29.603533
_cell_angle_alpha 90.000000
_cell_angle_beta 90.000000
_cell_angle_gamma 90.000000
_cell_volume 5808.016171
_symmetry_space_group_name_H-M "I M M A"
_symmetry_group_IT_number 74
_symmetry_cell_setting 'orthorhombic'
loop_
_space_group_symop_operation_xyz
x,y,z
-x,1/2-y,z
x,-y,-z
-x,1/2+y,-z
-x,-y,-z
x,1/2+y,-z
-x,y,z
x,1/2-y,z
1/2+x,1/2+y,1/2+z
1/2-x,-y,1/2+z
1/2+x,1/2-y,1/2-z
1/2-x,y,1/2-z
1/2-x,1/2-y,1/2-z
1/2+x,y,1/2-z
1/2-x,1/2+y,1/2+z
1/2+x,-y,1/2+z
loop_
_atom_site_type_symbol
_atom_site_label
_atom_site_fract_x
_atom_site_fract_y
_atom_site_fract_z
Si Si1 0.681036 0.933021 0.296363
Si Si2 0.000000 0.434728 0.551040
Si Si3 0.255452 0.067817 0.950316
Si Si4 0.847775 0.072078 0.112668
Si Si5 0.123028 0.065497 0.601065
Si Si6 0.822127 0.934101 0.304353
Si Si7 0.428359 0.077709 0.545592
O O1 0.677236 0.750000 0.298643
O O2 0.751241 0.972830 0.305461
O O3 0.659840 0.981073 0.246404
O O4 0.646907 0.009137 0.337108
O O5 0.000000 0.500000 0.500000
O O6 0.059874 0.482067 0.578904
O O7 0.000000 0.250000 0.548069
O O8 0.252543 0.250000 0.952267
O O9 0.321093 0.023899 0.931091
O O10 0.206008 0.008859 0.914942
O O11 0.246158 0.000000 0.000000
O O12 0.836991 0.250000 0.112422
O O13 0.907163 0.025953 0.086062
O O14 0.121294 0.250000 0.603040
O O15 0.140555 0.012248 0.651993
O O16 0.824651 0.750000 0.305313
O O17 0.500000 0.084072 0.543251
O O18 0.405510 0.250000 0.549973
O O19 0.405303 0.000000 0.500000
#
# Coordination Sequence:
#
# PCOD9537576 Si02
#       7
#    16   8  16  16  16  16  16
#     4   9  16  30  54  78 103 134 173 217 265 319
#     4  10  20  34  54  78 106 140 182 228 271 324
#     4  11  21  34  51  73 106 139 175 218 266 319
#     4  12  23  34  51  78 110 141 174 213 262 314
#     4   9  17  31  53  78 103 137 178 222 270 320
#     4   8  14  28  53  79 100 132 174 218 267 317
#     4  10  21  38  59  80 104 137 177 215 254 307
#
# _framework density 17.906286000000001
#
# number of rings (size 3 to 8) (size 9 to 14) (size 15 to 20)
#    0.000    2.154    1.538    4.154    0.000    0.923 
#    0.000    2.308    1.692    0.000    0.000    0.000 
#    0.000    0.000    0.000    0.000    0.000    0.000 
#
# Total GULP energy -289948.795025 kJ/mol
# GULP energy per Si atom -5575.938366 kJ/mol
# Density = 1.786553 g / cm^3
# Si number density = 17.906286 Si / 1000 Ang^3
#
#
#
# Elastic Constant Matrix: (Units=GPa)
#
#
# Indices 1 2 3 4 5 6 
#
# 1 57.1090 12.1297 34.7728 0.0000 0.0000 0.0000
# 2 12.1297 38.7658 27.1648 0.0000 0.0000 0.0000
# 3 34.7728 27.1648 157.9298 0.0000 0.0000 0.0000
# 4 0.0000 0.0000 0.0000 25.4962 0.0000 0.0000
# 5 0.0000 0.0000 0.0000 0.0000 -1.2167 0.0000
# 6 0.0000 0.0000 0.0000 0.0000 0.0000 -4.7936
#
#
#
# Elastic Compliance Matrix: (Units=1/GPa)
#
#
# Indices 1 2 3 4 5 6 
#
# 1 0.020685 -0.003730 -0.003913 0.000000 0.000000 0.000000
# 2 -0.003730 0.030004 -0.004339 0.000000 0.000000 0.000000
# 3 -0.003913 -0.004339 0.007940 0.000000 0.000000 0.000000
# 4 0.000000 0.000000 0.000000 0.039222 0.000000 0.000000
# 5 0.000000 0.000000 0.000000 0.000000 -0.821897 0.000000
# 6 0.000000 0.000000 0.000000 0.000000 0.000000 -0.208611
#
#
# Mechanical properties :
#
#
# Convention : Reuss Voigt Hill
#
# Bulk Modulus (GPa) = 28.84874 44.65990 36.75432
# Shear Modulus (GPa) = -5.57328 15.87966 5.15319
#
# Velocity S-wave (km/s) = -1.76613 2.98118 1.69827
# Velocity P-wave (km/s) = 3.46222 6.07001 4.94125
#
# Compressibility (1/GPa) = 0.03466356
#
# Stress axis : x y z
#
# Youngs Moduli (GPa) = 48.34393 33.32883 125.94704
#
# Poissons Ratio (x) = 0.12433 0.49280
# Poissons Ratio (y) = 0.18035 0.54654
# Poissons Ratio (z) = 0.18916 0.14463
#
# Static dielectric constant tensor:
#      x y z
#    x 1.630060 0.000000 0.000000 
#    y 0.000000 1.609570 0.000000 
#    z 0.000000 0.000000 1.607650 
# 
# From -- ./inp_files/68650.got.cif
#   From: 2010.05.17/outbox.cif.g08.bks.cpg/sg74_35_cif.got.tgz:68650.got - 2010.06.03 17:57:02.
