data_PCOD9537454
_publ_section_title
;
Structure prediction by ZEFSAII (Michael W. Deem and Ramdas Pophale) SiO2 
 PCOD9537454
Probable space group: I M M A
;
_chemical_formula_sum "Si O2"
_cell_formula_units_Z 112
_cell_length_a 13.975690
_cell_length_b 17.633779
_cell_length_c 24.653624
_cell_angle_alpha 90.000000
_cell_angle_beta 90.000000
_cell_angle_gamma 90.000000
_cell_volume 6075.743355
_symmetry_space_group_name_H-M "I M M A"
_symmetry_group_IT_number 74
_symmetry_cell_setting 'orthorhombic'
loop_
_space_group_symop_operation_xyz
x,y,z
-x,1/2-y,z
x,-y,-z
-x,1/2+y,-z
-x,-y,-z
x,1/2+y,-z
-x,y,z
x,1/2-y,z
1/2+x,1/2+y,1/2+z
1/2-x,-y,1/2+z
1/2+x,1/2-y,1/2-z
1/2-x,y,1/2-z
1/2-x,1/2-y,1/2-z
1/2+x,y,1/2-z
1/2-x,1/2+y,1/2+z
1/2+x,-y,1/2+z
loop_
_atom_site_type_symbol
_atom_site_label
_atom_site_fract_x
_atom_site_fract_y
_atom_site_fract_z
Si Si1 0.294004 0.657781 0.945615
Si Si2 0.705021 0.159433 0.830614
Si Si3 0.610779 0.657374 0.057042
Si Si4 0.890858 0.658807 0.888846
Si Si5 0.115590 0.081886 0.222882
Si Si6 0.612814 0.596083 0.277756
Si Si7 0.115477 0.838263 0.667682
O O1 0.300156 0.750000 0.946830
O O2 0.183544 0.637204 0.935622
O O3 0.348339 0.633984 0.890721
O O4 0.340554 0.630592 0.001295
O O5 0.694528 0.250000 0.827083
O O6 0.667671 0.133689 0.889177
O O7 0.641959 0.123533 0.782426
O O8 0.814837 0.138221 0.818282
O O9 0.500000 0.634137 0.059828
O O10 0.611935 0.750000 0.056360
O O11 0.890909 0.750000 0.884517
O O12 0.855463 0.626091 0.831368
O O13 0.000000 0.633814 0.898517
O O14 0.150103 0.115387 0.280015
O O15 0.000000 0.090535 0.224374
O O16 0.135167 0.993109 0.218346
O O17 0.500000 0.608569 0.287397
O O18 0.144141 0.750000 0.674177
O O19 0.000000 0.840478 0.666646
#
# Coordination Sequence:
#
# PCOD9537454 Si02
#       7
#    16  16  16  16  16  16  16
#     4   9  17  27  44  72  99 128 167 203 241 283
#     4  10  21  35  54  78  97 122 160 195 245 311
#     4   9  17  32  53  75 100 125 152 195 247 297
#     4   9  17  30  47  69 101 137 171 206 236 271
#     4   9  18  31  48  71 100 136 170 198 242 294
#     4  10  20  34  52  75 103 129 156 198 245 292
#     4   9  16  27  45  71 102 132 166 208 242 274
#
# _framework density 18.433959000000002
#
# number of rings (size 3 to 8) (size 9 to 14) (size 15 to 20)
#    0.000    2.714    0.000    2.143    0.000    8.000 
#    0.000    2.857    0.000    6.000    0.000   10.000 
#    0.000    0.000    0.000    0.000    0.000    0.000 
#
# Total GULP energy -312349.543199 kJ/mol
# GULP energy per Si atom -5577.670414 kJ/mol
# Density = 1.839200 g / cm^3
# Si number density = 18.433959 Si / 1000 Ang^3
#
#
#
# Elastic Constant Matrix: (Units=GPa)
#
#
# Indices 1 2 3 4 5 6 
#
# 1 99.3652 17.1231 64.9812 0.0000 0.0000 0.0000
# 2 17.1231 19.7707 21.6844 0.0000 0.0000 0.0000
# 3 64.9812 21.6844 144.0649 0.0000 0.0000 0.0000
# 4 0.0000 0.0000 0.0000 -8.2675 0.0000 0.0000
# 5 0.0000 0.0000 0.0000 0.0000 27.0464 0.0000
# 6 0.0000 0.0000 0.0000 0.0000 0.0000 13.1930
#
#
#
# Elastic Compliance Matrix: (Units=1/GPa)
#
#
# Indices 1 2 3 4 5 6 
#
# 1 0.014972 -0.006660 -0.005751 0.000000 0.000000 0.000000
# 2 -0.006660 0.063543 -0.006561 0.000000 0.000000 0.000000
# 3 -0.005751 -0.006561 0.010523 0.000000 0.000000 0.000000
# 4 0.000000 0.000000 0.000000 -0.120956 0.000000 0.000000
# 5 0.000000 0.000000 0.000000 0.000000 0.036974 0.000000
# 6 0.000000 0.000000 0.000000 0.000000 0.000000 0.075798
#
#
# Mechanical properties :
#
#
# Convention : Reuss Voigt Hill
#
# Bulk Modulus (GPa) = 19.57098 52.30869 35.93983
# Shear Modulus (GPa) = 36.81116 17.02185 26.91651
#
# Velocity S-wave (km/s) = 4.47354 3.04204 3.82535
# Velocity P-wave (km/s) = 6.10928 6.38565 6.24899
#
# Compressibility (1/GPa) = 0.05109607
#
# Stress axis : x y z
#
# Youngs Moduli (GPa) = 66.78926 15.73730 95.03162
#
# Poissons Ratio (x) = 0.10481 0.54653
# Poissons Ratio (y) = 0.44480 0.62346
# Poissons Ratio (z) = 0.38410 0.10325
#
# Static dielectric constant tensor:
#      x y z
#    x 1.676260 0.000000 0.000000 
#    y 0.000000 1.622950 0.000000 
#    z 0.000000 0.000000 1.615630 
# 
# From -- ./inp_files/60162.got.cif
#   From: 2010.05.17/outbox.cif.g08.bks.cpg/sg74_31_cif.got.tgz:60162.got - 2010.06.03 17:57:02.
