data_PCOD9537136
_publ_section_title
;
Structure prediction by ZEFSAII (Michael W. Deem and Ramdas Pophale) SiO2 
 PCOD9537136
Probable space group: I M M A
;
_chemical_formula_sum "Si O2"
_cell_formula_units_Z 96
_cell_length_a 18.494494
_cell_length_b 23.210706
_cell_length_c 11.185560
_cell_angle_alpha 90.000000
_cell_angle_beta 90.000000
_cell_angle_gamma 90.000000
_cell_volume 4801.628281
_symmetry_space_group_name_H-M "I M M A"
_symmetry_group_IT_number 74
_symmetry_cell_setting 'orthorhombic'
loop_
_space_group_symop_operation_xyz
x,y,z
-x,1/2-y,z
x,-y,-z
-x,1/2+y,-z
-x,-y,-z
x,1/2+y,-z
-x,y,z
x,1/2-y,z
1/2+x,1/2+y,1/2+z
1/2-x,-y,1/2+z
1/2+x,1/2-y,1/2-z
1/2-x,y,1/2-z
1/2-x,1/2-y,1/2-z
1/2+x,y,1/2-z
1/2-x,1/2+y,1/2+z
1/2+x,-y,1/2+z
loop_
_atom_site_type_symbol
_atom_site_label
_atom_site_fract_x
_atom_site_fract_y
_atom_site_fract_z
Si Si1 0.918194 0.427948 0.367729
Si Si2 0.587815 0.250000 0.011601
Si Si3 0.916492 0.540346 0.214280
Si Si4 0.587210 0.631161 0.107756
Si Si5 0.678402 0.855635 0.686490
Si Si6 0.913345 0.250000 0.201700
Si Si7 0.715260 0.475691 0.383485
O O1 0.918481 0.492955 0.321534
O O2 0.898251 0.414234 0.502321
O O3 0.866155 0.391089 0.285414
O O4 0.000000 0.405352 0.351054
O O5 0.500000 0.250000 0.007519
O O6 0.604326 0.250000 0.154072
O O7 0.613440 0.307335 0.941952
O O8 0.889871 0.600943 0.269134
O O9 0.858860 0.512347 0.125850
O O10 0.000000 0.544884 0.170737
O O11 0.500000 0.635682 0.119011
O O12 0.750000 0.831169 0.750000
O O13 0.625236 0.805703 0.645469
O O14 0.702010 0.907378 0.599299
O O15 0.000000 0.250000 0.189346
O O16 0.755673 0.500000 0.500000
O O17 0.750000 0.482159 0.250000
#
# Coordination Sequence:
#
# PCOD9537136 Si02
#       7
#    16   8  16  16  16   8  16
#     4   9  15  26  44  70 105 145 188 233 288 348
#     4   9  16  25  43  72 112 153 190 236 287 345
#     4   9  18  30  50  79 109 145 190 243 295 354
#     4   9  15  25  43  73 109 146 187 234 288 345
#     4  10  20  32  51  79 112 148 192 241 298 346
#     4  11  19  33  53  78 118 160 198 243 297 355
#     4  10  23  42  62  87 121 161 201 245 301 362
#
# _framework density 19.993219
#
# number of rings (size 3 to 8) (size 9 to 14) (size 15 to 20)
#    0.000    2.500    1.667    1.250    0.000    7.000 
#    0.000    0.000    0.000    1.000    0.000    2.333 
#    0.000    0.000    0.000    0.000    0.000    0.000 
#
# Total GULP energy -267359.967896 kJ/mol
# GULP energy per Si atom -5569.999331 kJ/mol
# Density = 1.994771 g / cm^3
# Si number density = 19.993219 Si / 1000 Ang^3
#
#
#
# Elastic Constant Matrix: (Units=GPa)
#
#
# Indices 1 2 3 4 5 6 
#
# 1 72.0663 26.7028 10.3687 0.0000 0.0000 0.0000
# 2 26.7028 76.3679 35.7298 0.0000 0.0000 0.0000
# 3 10.3687 35.7298 51.1170 0.0000 0.0000 0.0000
# 4 0.0000 0.0000 0.0000 18.8487 0.0000 0.0000
# 5 0.0000 0.0000 0.0000 0.0000 2.8546 0.0000
# 6 0.0000 0.0000 0.0000 0.0000 0.0000 -17.4893
#
#
#
# Elastic Compliance Matrix: (Units=1/GPa)
#
#
# Indices 1 2 3 4 5 6 
#
# 1 0.015975 -0.006047 0.000987 0.000000 0.000000 0.000000
# 2 -0.006047 0.021747 -0.013974 0.000000 0.000000 0.000000
# 3 0.000987 -0.013974 0.029130 0.000000 0.000000 0.000000
# 4 0.000000 0.000000 0.000000 0.053054 0.000000 0.000000
# 5 0.000000 0.000000 0.000000 0.000000 0.350317 0.000000
# 6 0.000000 0.000000 0.000000 0.000000 0.000000 -0.057178
#
#
# Mechanical properties :
#
#
# Convention : Reuss Voigt Hill
#
# Bulk Modulus (GPa) = 34.74312 38.35041 36.54677
# Shear Modulus (GPa) = 10.85282 9.29279 10.07281
#
# Velocity S-wave (km/s) = 2.33239 2.15825 2.24701
# Velocity P-wave (km/s) = 4.96675 5.04322 5.00513
#
# Compressibility (1/GPa) = 0.02878267
#
# Stress axis : x y z
#
# Youngs Moduli (GPa) = 62.59818 45.98339 34.32840
#
# Poissons Ratio (x) = 0.27808 -0.03387
# Poissons Ratio (y) = 0.37856 0.47971
# Poissons Ratio (z) = -0.06176 0.64257
#
# Static dielectric constant tensor:
#      x y z
#    x 1.760900 0.000000 0.000000 
#    y 0.000000 1.757880 0.000000 
#    z 0.000000 0.000000 1.712820 
# 
# From -- ./inp_files/22538.got.cif
#   From: 2010.05.17/outbox.cif.g08.bks.cpg/sg74_12_cif.got.tgz:22538.got - 2010.06.03 17:57:02.
