data_PCOD9537126
_publ_section_title
;
Structure prediction by ZEFSAII (Michael W. Deem and Ramdas Pophale) SiO2 
 PCOD9537126
Probable space group: I M M A
;
_chemical_formula_sum "Si O2"
_cell_formula_units_Z 88
_cell_length_a 7.668159
_cell_length_b 22.728480
_cell_length_c 24.330702
_cell_angle_alpha 90.000000
_cell_angle_beta 90.000000
_cell_angle_gamma 90.000000
_cell_volume 4240.490959
_symmetry_space_group_name_H-M "I M M A"
_symmetry_group_IT_number 74
_symmetry_cell_setting 'orthorhombic'
loop_
_space_group_symop_operation_xyz
x,y,z
-x,1/2-y,z
x,-y,-z
-x,1/2+y,-z
-x,-y,-z
x,1/2+y,-z
-x,y,z
x,1/2-y,z
1/2+x,1/2+y,1/2+z
1/2-x,-y,1/2+z
1/2+x,1/2-y,1/2-z
1/2-x,y,1/2-z
1/2-x,1/2-y,1/2-z
1/2+x,y,1/2-z
1/2-x,1/2+y,1/2+z
1/2+x,-y,1/2+z
loop_
_atom_site_type_symbol
_atom_site_label
_atom_site_fract_x
_atom_site_fract_y
_atom_site_fract_z
Si Si1 0.797541 0.408198 0.402851
Si Si2 0.207782 0.315184 0.186046
Si Si3 0.289478 0.250000 0.685251
Si Si4 0.211501 0.313441 0.489213
Si Si5 0.299444 0.026185 0.557731
Si Si6 0.202127 0.646733 0.107157
O O1 0.783229 0.367503 0.349788
O O2 0.727247 0.367526 0.452368
O O3 0.704965 0.470553 0.401869
O O4 0.000000 0.420532 0.413446
O O5 0.274364 0.250000 0.169890
O O6 0.250000 0.322706 0.250000
O O7 0.000000 0.315634 0.178890
O O8 0.500000 0.250000 0.678336
O O9 0.250000 0.250000 0.750000
O O10 0.224567 0.309391 0.653919
O O11 0.259313 0.250000 0.464920
O O12 0.285162 0.318062 0.550089
O O13 0.000000 0.316257 0.491901
O O14 0.500000 0.042407 0.544700
O O15 0.220185 0.083280 0.588154
O O16 0.224007 0.000000 0.500000
O O17 0.000000 0.635598 0.122343
#
# Coordination Sequence:
#
# PCOD9537126 Si02
#       6
#    16  16   8  16  16  16
#     4  11  22  35  54  82 119 156 193 233 278 341
#     4  10  21  38  60  84 112 149 192 238 286 335
#     4  10  22  40  62  86 112 146 189 240 293 344
#     4  10  20  32  50  80 115 148 183 229 283 337
#     4  10  20  35  56  82 115 154 191 232 289 349
#     4  10  20  36  58  83 110 142 186 238 289 345
#
# _framework density 20.752314999999999
#
# number of rings (size 3 to 8) (size 9 to 14) (size 15 to 20)
#    0.000    1.818    2.727    1.636    0.000    4.364 
#    0.000    0.909    0.000    2.182    0.000    0.000 
#    0.000    0.000    0.000    0.000    0.000    0.000 
#
# Total GULP energy -245496.913571 kJ/mol
# GULP energy per Si atom -5579.475308 kJ/mol
# Density = 2.070508 g / cm^3
# Si number density = 20.752315 Si / 1000 Ang^3
#
#
#
# Elastic Constant Matrix: (Units=GPa)
#
#
# Indices 1 2 3 4 5 6 
#
# 1 49.6175 8.5309 -6.4756 0.0000 0.0000 0.0000
# 2 8.5309 186.3235 68.9255 0.0000 0.0000 0.0000
# 3 -6.4756 68.9255 115.1464 0.0000 0.0000 0.0000
# 4 0.0000 0.0000 0.0000 11.8947 0.0000 0.0000
# 5 0.0000 0.0000 0.0000 0.0000 20.5792 0.0000
# 6 0.0000 0.0000 0.0000 0.0000 0.0000 71.8860
#
#
#
# Elastic Compliance Matrix: (Units=1/GPa)
#
#
# Indices 1 2 3 4 5 6 
#
# 1 0.020750 -0.001775 0.002229 0.000000 0.000000 0.000000
# 2 -0.001775 0.007045 -0.004317 0.000000 0.000000 0.000000
# 3 0.002229 -0.004317 0.011394 0.000000 0.000000 0.000000
# 4 0.000000 0.000000 0.000000 0.084071 0.000000 0.000000
# 5 0.000000 0.000000 0.000000 0.000000 0.048593 0.000000
# 6 0.000000 0.000000 0.000000 0.000000 0.000000 0.013911
#
#
# Mechanical properties :
#
#
# Convention : Reuss Voigt Hill
#
# Bulk Modulus (GPa) = 31.78169 54.78322 43.28246
# Shear Modulus (GPa) = 24.51254 39.54575 32.02914
#
# Velocity S-wave (km/s) = 3.44058 4.37006 3.93288
# Velocity P-wave (km/s) = 5.57956 7.20550 6.44401
#
# Compressibility (1/GPa) = 0.03146466
#
# Stress axis : x y z
#
# Youngs Moduli (GPa) = 48.19218 141.94000 87.76488
#
# Poissons Ratio (x) = 0.25190 -0.19565
# Poissons Ratio (y) = 0.08553 0.37888
# Poissons Ratio (z) = -0.10743 0.61276
#
# Static dielectric constant tensor:
#      x y z
#    x 1.823110 0.000000 0.000000 
#    y 0.000000 1.794560 0.000000 
#    z 0.000000 0.000000 1.720620 
# 
# From -- ./inp_files/48714.got.cif
#   From: 2010.05.17/outbox.cif.g08.bks.cpg/sg74_25_cif.got.tgz:48714.got - 2010.06.03 17:57:02.
