data_PCOD9537989
_publ_section_title
;
Structure prediction by ZEFSAII (Michael W. Deem and Ramdas Pophale) SiO2 
 PCOD9537989
Probable space group: I M M A
;
_chemical_formula_sum "Si O2"
_cell_formula_units_Z 40
_cell_length_a 10.690059
_cell_length_b 11.041859
_cell_length_c 14.533874
_cell_angle_alpha 90.000000
_cell_angle_beta 90.000000
_cell_angle_gamma 90.000000
_cell_volume 1715.551224
_symmetry_space_group_name_H-M "I M M A"
_symmetry_group_IT_number 74
_symmetry_cell_setting 'orthorhombic'
loop_
_space_group_symop_operation_xyz
x,y,z
-x,1/2-y,z
x,-y,-z
-x,1/2+y,-z
-x,-y,-z
x,1/2+y,-z
-x,y,z
x,1/2-y,z
1/2+x,1/2+y,1/2+z
1/2-x,-y,1/2+z
1/2+x,1/2-y,1/2-z
1/2-x,y,1/2-z
1/2-x,1/2-y,1/2-z
1/2+x,y,1/2-z
1/2-x,1/2+y,1/2+z
1/2+x,-y,1/2+z
loop_
_atom_site_type_symbol
_atom_site_label
_atom_site_fract_x
_atom_site_fract_y
_atom_site_fract_z
Si Si1 0.250000 0.997970 0.250000
Si Si2 0.778639 0.615666 0.948165
Si Si3 0.000000 0.122511 0.434050
Si Si4 0.000000 0.387421 0.693425
O O1 0.235323 0.080910 0.159230
O O2 0.372039 0.913290 0.247405
O O3 0.834502 0.750000 0.959809
O O4 0.634149 0.624947 0.983714
O O5 0.836509 0.500000 0.000000
O O6 0.000000 0.250000 0.378404
O O7 0.000000 0.001173 0.375789
O O8 0.000000 0.250000 0.658593
#
# Coordination Sequence:
#
# PCOD9537989 Si02
#       4
#     8  16   8   8
#     4  10  22  40  60  86 120 158 192 236 294 354
#     4  10  20  35  57  85 117 155 197 241 290 347
#     4   8  17  33  53  81 118 154 188 233 296 357
#     4  10  20  35  60  89 116 150 196 245 289 337
#
# _framework density 23.316120000000002
#
# number of rings (size 3 to 8) (size 9 to 14) (size 15 to 20)
#    0.000    2.400    0.000    1.800    0.000    9.600 
#    0.000    3.000    0.000    0.000    0.000    0.000 
#    0.000    0.000    0.000    0.000    0.000    0.000 
#
# Total GULP energy -111430.321326 kJ/mol
# GULP energy per Si atom -5571.516066 kJ/mol
# Density = 2.326305 g / cm^3
# Si number density = 23.316120 Si / 1000 Ang^3
#
#
#
# Elastic Constant Matrix: (Units=GPa)
#
#
# Indices 1 2 3 4 5 6 
#
# 1 101.8127 31.0339 -4.0123 0.0000 0.0000 0.0000
# 2 31.0339 280.0227 67.4674 0.0000 0.0000 0.0000
# 3 -4.0123 67.4674 91.2087 0.0000 0.0000 0.0000
# 4 0.0000 0.0000 0.0000 32.6103 0.0000 0.0000
# 5 0.0000 0.0000 0.0000 0.0000 19.6565 0.0000
# 6 0.0000 0.0000 0.0000 0.0000 0.0000 12.0874
#
#
#
# Elastic Compliance Matrix: (Units=1/GPa)
#
#
# Indices 1 2 3 4 5 6 
#
# 1 0.010351 -0.001529 0.001587 0.000000 0.000000 0.000000
# 2 -0.001529 0.004572 -0.003449 0.000000 0.000000 0.000000
# 3 0.001587 -0.003449 0.013585 0.000000 0.000000 0.000000
# 4 0.000000 0.000000 0.000000 0.030665 0.000000 0.000000
# 5 0.000000 0.000000 0.000000 0.000000 0.050874 0.000000
# 6 0.000000 0.000000 0.000000 0.000000 0.000000 0.082731
#
#
# Mechanical properties :
#
#
# Convention : Reuss Voigt Hill
#
# Bulk Modulus (GPa) = 46.03257 73.55803 59.79530
# Shear Modulus (GPa) = 24.17776 38.10784 31.14280
#
# Velocity S-wave (km/s) = 3.22367 4.04716 3.65866
# Velocity P-wave (km/s) = 5.80015 7.31136 6.59915
#
# Compressibility (1/GPa) = 0.02172375
#
# Stress axis : x y z
#
# Youngs Moduli (GPa) = 96.61213 218.74166 73.61148
#
# Poissons Ratio (x) = 0.33454 -0.11679
# Poissons Ratio (y) = 0.14776 0.25388
# Poissons Ratio (z) = -0.15329 0.75442
#
# Static dielectric constant tensor:
#      x y z
#    x 1.889830 0.000000 0.000000 
#    y 0.000000 1.903300 0.000000 
#    z 0.000000 0.000000 1.964960 
# 
# From -- ./inp_files/29696.got.cif
#   From: 2010.05.17/outbox.cif.g08.bks.cpg/sg74_15_cif.got.tgz:29696.got - 2010.06.03 17:57:02.
