data_PCOD9537974
_publ_section_title
;
Structure prediction by ZEFSAII (Michael W. Deem and Ramdas Pophale) SiO2 
 PCOD9537974
Probable space group: I M M A
;
_chemical_formula_sum "Si O2"
_cell_formula_units_Z 116
_cell_length_a 27.525923
_cell_length_b 8.128837
_cell_length_c 28.926177
_cell_angle_alpha 90.000000
_cell_angle_beta 90.000000
_cell_angle_gamma 90.000000
_cell_volume 6472.340326
_symmetry_space_group_name_H-M "I M M A"
_symmetry_group_IT_number 74
_symmetry_cell_setting 'orthorhombic'
loop_
_space_group_symop_operation_xyz
x,y,z
-x,1/2-y,z
x,-y,-z
-x,1/2+y,-z
-x,-y,-z
x,1/2+y,-z
-x,y,z
x,1/2-y,z
1/2+x,1/2+y,1/2+z
1/2-x,-y,1/2+z
1/2+x,1/2-y,1/2-z
1/2-x,y,1/2-z
1/2-x,1/2-y,1/2-z
1/2+x,y,1/2-z
1/2-x,1/2+y,1/2+z
1/2+x,-y,1/2+z
loop_
_atom_site_type_symbol
_atom_site_label
_atom_site_fract_x
_atom_site_fract_y
_atom_site_fract_z
Si Si1 0.303725 0.446831 0.050889
Si Si2 0.191055 0.053133 0.051033
Si Si3 0.928860 0.941997 0.695031
Si Si4 0.055076 0.945573 0.804361
Si Si5 0.256767 0.557255 0.697902
Si Si6 0.163930 0.560882 0.353447
Si Si7 0.500000 0.250000 0.827465
Si Si8 0.150356 0.559600 0.146868
O O1 0.303850 0.250000 0.054212
O O2 0.247373 0.503742 0.055887
O O3 0.335237 0.517690 0.092446
O O4 0.320142 0.500000 0.000000
O O5 0.191073 0.250000 0.053551
O O6 0.160144 0.986369 0.093674
O O7 0.174382 0.000000 0.000000
O O8 0.945206 0.750000 0.686833
O O9 0.931813 0.968263 0.750358
O O10 0.874544 0.955515 0.675324
O O11 0.958502 0.098229 0.674483
O O12 0.055166 0.750000 0.812945
O O13 0.000000 0.007871 0.811410
O O14 0.096096 0.023885 0.836190
O O15 0.244645 0.750000 0.697763
O O16 0.250000 0.494229 0.750000
O O17 0.218138 0.471568 0.664829
O O18 0.310858 0.536419 0.678504
O O19 0.152005 0.750000 0.346514
O O20 0.161455 0.750000 0.153397
#
# Coordination Sequence:
#
# PCOD9537974 Si02
#       8
#    16  16  16  16  16  16   4  16
#     4  10  20  35  57  83 117 156 192 240 293 350
#     4  10  20  36  58  81 113 151 193 237 288 350
#     4  11  23  40  62  89 122 158 201 253 304 353
#     4  10  22  40  61  83 114 153 199 250 301 349
#     4  11  23  38  53  75 115 161 197 234 287 355
#     4  12  23  36  57  87 122 156 197 242 294 357
#     4  12  22  40  64  90 120 156 210 252 302 350
#     4  12  24  35  56  85 115 153 196 241 292 353
#
# _framework density 17.922421
#
# number of rings (size 3 to 8) (size 9 to 14) (size 15 to 20)
#    0.000    1.103    2.759    4.759    0.966    5.793 
#    0.000    0.000    0.000    0.414    0.000    0.483 
#    0.000    0.000    0.000    0.000    0.000    0.000 
#
# Total GULP energy -323345.533495 kJ/mol
# GULP energy per Si atom -5574.922991 kJ/mol
# Density = 1.788163 g / cm^3
# Si number density = 17.922421 Si / 1000 Ang^3
#
#
#
# Elastic Constant Matrix: (Units=GPa)
#
#
# Indices 1 2 3 4 5 6 
#
# 1 79.6362 9.0559 35.5330 0.0000 0.0000 0.0000
# 2 9.0559 72.6771 9.4411 0.0000 0.0000 0.0000
# 3 35.5330 9.4411 83.6390 0.0000 0.0000 0.0000
# 4 0.0000 0.0000 0.0000 23.6205 0.0000 0.0000
# 5 0.0000 0.0000 0.0000 0.0000 -11.2602 0.0000
# 6 0.0000 0.0000 0.0000 0.0000 0.0000 21.6350
#
#
#
# Elastic Compliance Matrix: (Units=1/GPa)
#
#
# Indices 1 2 3 4 5 6 
#
# 1 0.015580 -0.001098 -0.006495 0.000000 0.000000 0.000000
# 2 -0.001098 0.014042 -0.001119 0.000000 0.000000 0.000000
# 3 -0.006495 -0.001119 0.014842 0.000000 0.000000 0.000000
# 4 0.000000 0.000000 0.000000 0.042336 0.000000 0.000000
# 5 0.000000 0.000000 0.000000 0.000000 -0.088808 0.000000
# 6 0.000000 0.000000 0.000000 0.000000 0.000000 0.046221
#
#
# Mechanical properties :
#
#
# Convention : Reuss Voigt Hill
#
# Bulk Modulus (GPa) = 36.98142 38.22358 37.60250
# Shear Modulus (GPa) = 70.77254 18.92722 44.84988
#
# Velocity S-wave (km/s) = 6.29079 3.25324 5.00787
# Velocity P-wave (km/s) = 8.56996 5.95693 7.38002
#
# Compressibility (1/GPa) = 0.02704060
#
# Stress axis : x y z
#
# Youngs Moduli (GPa) = 64.18502 71.21708 67.37744
#
# Poissons Ratio (x) = 0.07817 0.43762
# Poissons Ratio (y) = 0.07045 0.07538
# Poissons Ratio (z) = 0.41689 0.07967
#
# Static dielectric constant tensor:
#      x y z
#    x 1.632380 0.000000 0.000000 
#    y 0.000000 1.628210 0.000000 
#    z 0.000000 0.000000 1.612960 
# 
# From -- ./inp_files/68721.got.cif
#   From: 2010.05.17/outbox.cif.g08.bks.cpg/sg74_35_cif.got.tgz:68721.got - 2010.06.03 17:57:02.
