data_PCOD9537427
_publ_section_title
;
Structure prediction by ZEFSAII (Michael W. Deem and Ramdas Pophale) SiO2 
 PCOD9537427
Probable space group: I M M A
;
_chemical_formula_sum "Si O2"
_cell_formula_units_Z 88
_cell_length_a 8.850427
_cell_length_b 27.845588
_cell_length_c 18.995821
_cell_angle_alpha 90.000000
_cell_angle_beta 90.000000
_cell_angle_gamma 90.000000
_cell_volume 4681.431638
_symmetry_space_group_name_H-M "I M M A"
_symmetry_group_IT_number 74
_symmetry_cell_setting 'orthorhombic'
loop_
_space_group_symop_operation_xyz
x,y,z
-x,1/2-y,z
x,-y,-z
-x,1/2+y,-z
-x,-y,-z
x,1/2+y,-z
-x,y,z
x,1/2-y,z
1/2+x,1/2+y,1/2+z
1/2-x,-y,1/2+z
1/2+x,1/2-y,1/2-z
1/2-x,y,1/2-z
1/2-x,1/2-y,1/2-z
1/2+x,y,1/2-z
1/2-x,1/2+y,1/2+z
1/2+x,-y,1/2+z
loop_
_atom_site_type_symbol
_atom_site_label
_atom_site_fract_x
_atom_site_fract_y
_atom_site_fract_z
Si Si1 0.324083 0.821438 0.431149
Si Si2 0.318119 0.410131 0.100390
Si Si3 0.175673 0.066587 0.949396
Si Si4 0.680597 0.995404 0.175408
Si Si5 0.178697 0.750000 0.325952
Si Si6 0.317534 0.197194 0.083243
O O1 0.500000 0.807483 0.433434
O O2 0.316958 0.878484 0.423484
O O3 0.238912 0.795519 0.368729
O O4 0.244655 0.806445 0.503874
O O5 0.500000 0.409915 0.092110
O O6 0.279479 0.448821 0.159831
O O7 0.269749 0.354778 0.114919
O O8 0.248968 0.430003 0.027074
O O9 0.000000 0.052361 0.955355
O O10 0.258086 0.033988 0.891828
O O11 0.500000 0.990731 0.178130
O O12 0.750000 0.979961 0.250000
O O13 0.250000 0.750000 0.250000
O O14 0.000000 0.750000 0.322819
O O15 0.500000 0.197277 0.082584
O O16 0.269820 0.250000 0.112184
#
# Coordination Sequence:
#
# PCOD9537427 Si02
#       6
#    16  16  16  16   8  16
#     4  10  20  34  51  74 104 133 167 214 262 310
#     4   9  19  35  55  82 112 142 180 225 273 321
#     4  10  21  36  57  83 109 140 178 223 272 323
#     4  11  23  38  56  77 107 146 184 228 276 327
#     4  12  24  36  50  68  96 138 179 216 259 310
#     4   9  16  29  53  81 106 134 170 213 261 313
#
# _framework density 18.797668000000002
#
# number of rings (size 3 to 8) (size 9 to 14) (size 15 to 20)
#    0.000    2.000    0.909    3.000    0.000    6.545 
#    0.000    0.000    0.000    0.545    0.000    0.000 
#    0.000    0.000    0.000    0.000    0.000    0.182 
#
# Total GULP energy -245409.764746 kJ/mol
# GULP energy per Si atom -5577.494653 kJ/mol
# Density = 1.875488 g / cm^3
# Si number density = 18.797668 Si / 1000 Ang^3
#
#
#
# Elastic Constant Matrix: (Units=GPa)
#
#
# Indices 1 2 3 4 5 6 
#
# 1 26.4534 18.6503 8.1562 0.0000 0.0000 0.0000
# 2 18.6503 109.7948 17.2829 0.0000 0.0000 0.0000
# 3 8.1562 17.2829 26.3981 -0.0002 0.0000 0.0000
# 4 0.0000 0.0000 -0.0002 17.3427 0.0000 0.0000
# 5 0.0000 0.0000 0.0000 0.0000 18.3351 0.0000
# 6 0.0000 0.0000 0.0000 0.0000 0.0000 20.6782
#
#
#
# Elastic Compliance Matrix: (Units=1/GPa)
#
#
# Indices 1 2 3 4 5 6 
#
# 1 0.045179 -0.006106 -0.009961 0.000000 0.000000 0.000000
# 2 -0.006106 0.010980 -0.005302 0.000000 0.000000 0.000000
# 3 -0.009961 -0.005302 0.044430 0.000000 0.000000 0.000000
# 4 0.000000 0.000000 0.000000 0.057661 0.000000 0.000000
# 5 0.000000 0.000000 0.000000 0.000000 0.054540 0.000000
# 6 0.000000 0.000000 0.000000 0.000000 0.000000 0.048360
#
#
# Mechanical properties :
#
#
# Convention : Reuss Voigt Hill
#
# Bulk Modulus (GPa) = 17.28595 27.86946 22.57771
# Shear Modulus (GPa) = 15.47166 19.17499 17.32333
#
# Velocity S-wave (km/s) = 2.87202 3.19732 3.03903
# Velocity P-wave (km/s) = 4.49597 5.33748 4.93470
#
# Compressibility (1/GPa) = 0.05785044
#
# Stress axis : x y z
#
# Youngs Moduli (GPa) = 22.13437 91.07715 22.50724
#
# Poissons Ratio (x) = 0.55614 0.22419
# Poissons Ratio (y) = 0.13516 0.11933
# Poissons Ratio (z) = 0.22048 0.48287
#
# Static dielectric constant tensor:
#      x y z
#    x 1.629670 0.000000 0.000000 
#    y 0.000000 1.708460 0.000000 
#    z 0.000000 0.000000 1.589440 
# 
# From -- ./inp_files/40095.got.cif
#   From: 2010.05.17/outbox.cif.g08.bks.cpg/sg74_21_cif.got.tgz:40095.got - 2010.06.03 17:57:02.
