data_PCOD9537531
_publ_section_title
;
Structure prediction by ZEFSAII (Michael W. Deem and Ramdas Pophale) SiO2 
 PCOD9537531
Probable space group: I M M A
;
_chemical_formula_sum "Si O2"
_cell_formula_units_Z 116
_cell_length_a 9.826481
_cell_length_b 25.359308
_cell_length_c 26.439432
_cell_angle_alpha 90.000000
_cell_angle_beta 90.000000
_cell_angle_gamma 90.000000
_cell_volume 6588.514986
_symmetry_space_group_name_H-M "I M M A"
_symmetry_group_IT_number 74
_symmetry_cell_setting 'orthorhombic'
loop_
_space_group_symop_operation_xyz
x,y,z
-x,1/2-y,z
x,-y,-z
-x,1/2+y,-z
-x,-y,-z
x,1/2+y,-z
-x,y,z
x,1/2-y,z
1/2+x,1/2+y,1/2+z
1/2-x,-y,1/2+z
1/2+x,1/2-y,1/2-z
1/2-x,y,1/2-z
1/2-x,1/2-y,1/2-z
1/2+x,y,1/2-z
1/2-x,1/2+y,1/2+z
1/2+x,-y,1/2+z
loop_
_atom_site_type_symbol
_atom_site_label
_atom_site_fract_x
_atom_site_fract_y
_atom_site_fract_z
Si Si1 0.347863 0.688822 0.366493
Si Si2 0.500000 0.250000 0.977583
Si Si3 0.757475 0.830471 0.022765
Si Si4 0.337889 0.114911 0.801417
Si Si5 0.656134 0.096545 0.120080
Si Si6 0.342349 0.309642 0.408672
Si Si7 0.660373 0.006964 0.200227
Si Si8 0.342613 0.941355 0.995848
O O1 0.500000 0.671990 0.350322
O O2 0.329102 0.750000 0.351946
O O3 0.337525 0.685134 0.427061
O O4 0.230585 0.653533 0.341898
O O5 0.619257 0.203731 0.977756
O O6 0.828316 0.818781 0.969121
O O7 0.728329 0.893127 0.024213
O O8 0.500000 0.124859 0.794390
O O9 0.250000 0.121464 0.750000
O O10 0.321834 0.053616 0.817397
O O11 0.500000 0.111906 0.131148
O O12 0.752416 0.147102 0.119549
O O13 0.696259 0.050064 0.158156
O O14 0.658274 0.074232 0.063097
O O15 0.500000 0.314574 0.394853
O O16 0.295356 0.250000 0.398374
O O17 0.500000 0.012888 0.212135
O O18 0.750000 0.014425 0.250000
O O19 0.500000 0.943807 0.013433
O O20 0.283171 0.000000 0.000000
#
# Coordination Sequence:
#
# PCOD9537531 Si02
#       8
#    16   4  16  16  16  16  16  16
#     4  11  24  39  56  78 110 145 183 228 278 324
#     4  12  20  32  52  88 106 140 206 230 268 316
#     4  11  21  33  54  76 112 144 188 229 265 316
#     4  10  22  39  62  83 107 137 178 226 279 336
#     4   9  19  33  53  81 109 139 181 224 266 320
#     4  10  20  34  53  77 112 150 184 220 268 318
#     4   9  19  37  59  85 110 140 178 226 277 329
#     4   9  18  30  48  75 109 143 174 216 269 317
#
# _framework density 17.606396
#
# number of rings (size 3 to 8) (size 9 to 14) (size 15 to 20)
#    0.000    2.069    2.069    0.828    3.862    3.034 
#    0.000    0.000    0.000    2.483    0.000    0.000 
#    0.000    0.000    0.000    0.000    0.000    0.000 
#
# Total GULP energy -322938.887894 kJ/mol
# GULP energy per Si atom -5567.911860 kJ/mol
# Density = 1.756632 g / cm^3
# Si number density = 17.606396 Si / 1000 Ang^3
#
#
#
# Elastic Constant Matrix: (Units=GPa)
#
#
# Indices 1 2 3 4 5 6 
#
# 1 85.6986 59.9851 30.2398 0.0000 0.0000 0.0000
# 2 59.9851 129.1608 28.4970 0.0000 0.0000 0.0000
# 3 30.2398 28.4970 41.2349 0.0000 0.0000 0.0000
# 4 0.0000 0.0000 0.0000 22.3828 0.0000 0.0000
# 5 0.0000 0.0000 0.0000 0.0000 9.6307 0.0000
# 6 0.0000 0.0000 0.0000 0.0000 0.0000 27.8559
#
#
#
# Elastic Compliance Matrix: (Units=1/GPa)
#
#
# Indices 1 2 3 4 5 6 
#
# 1 0.020175 -0.007204 -0.009817 0.000000 0.000000 0.000000
# 2 -0.007204 0.011707 -0.002808 0.000000 0.000000 0.000000
# 3 -0.009817 -0.002808 0.033391 0.000000 0.000000 0.000000
# 4 0.000000 0.000000 0.000000 0.044677 0.000000 0.000000
# 5 0.000000 0.000000 0.000000 0.000000 0.103835 0.000000
# 6 0.000000 0.000000 0.000000 0.000000 0.000000 0.035899
#
#
# Mechanical properties :
#
#
# Convention : Reuss Voigt Hill
#
# Bulk Modulus (GPa) = 39.03783 54.83756 46.93770
# Shear Modulus (GPa) = 16.78520 21.13203 18.95861
#
# Velocity S-wave (km/s) = 3.09100 3.46822 3.28503
# Velocity P-wave (km/s) = 5.91267 6.87401 6.41139
#
# Compressibility (1/GPa) = 0.02561618
#
# Stress axis : x y z
#
# Youngs Moduli (GPa) = 49.56562 85.41583 29.94802
#
# Poissons Ratio (x) = 0.61532 0.29400
# Poissons Ratio (y) = 0.35706 0.08409
# Poissons Ratio (z) = 0.48659 0.23984
#
# Static dielectric constant tensor:
#      x y z
#    x 1.600520 0.000000 0.000000 
#    y 0.000000 1.604810 0.000000 
#    z 0.000000 0.000000 1.584970 
# 
# From -- ./inp_files/64856.got.cif
#   From: 2010.05.17/outbox.cif.g08.bks.cpg/sg74_33_cif.got.tgz:64856.got - 2010.06.03 17:57:02.
