data_PCOD9537617
_publ_section_title
;
Structure prediction by ZEFSAII (Michael W. Deem and Ramdas Pophale) SiO2 
 PCOD9537617
Probable space group: I M M A
;
_chemical_formula_sum "Si O2"
_cell_formula_units_Z 112
_cell_length_a 16.402881
_cell_length_b 28.499849
_cell_length_c 11.849543
_cell_angle_alpha 90.000000
_cell_angle_beta 90.000000
_cell_angle_gamma 90.000000
_cell_volume 5539.419997
_symmetry_space_group_name_H-M "I M M A"
_symmetry_group_IT_number 74
_symmetry_cell_setting 'orthorhombic'
loop_
_space_group_symop_operation_xyz
x,y,z
-x,1/2-y,z
x,-y,-z
-x,1/2+y,-z
-x,-y,-z
x,1/2+y,-z
-x,y,z
x,1/2-y,z
1/2+x,1/2+y,1/2+z
1/2-x,-y,1/2+z
1/2+x,1/2-y,1/2-z
1/2-x,y,1/2-z
1/2-x,1/2-y,1/2-z
1/2+x,y,1/2-z
1/2-x,1/2+y,1/2+z
1/2+x,-y,1/2+z
loop_
_atom_site_type_symbol
_atom_site_label
_atom_site_fract_x
_atom_site_fract_y
_atom_site_fract_z
Si Si1 0.694912 0.152926 0.640229
Si Si2 0.597361 0.801571 0.535324
Si Si3 0.182822 0.463670 0.155545
Si Si4 0.904372 0.624884 0.765242
Si Si5 0.093160 0.544510 0.435544
Si Si6 0.296475 0.384455 0.051664
Si Si7 0.095460 0.055558 0.831200
O O1 0.750000 0.162278 0.750000
O O2 0.627858 0.188269 0.591671
O O3 0.753810 0.151312 0.531440
O O4 0.647612 0.103061 0.654417
O O5 0.500000 0.801302 0.532694
O O6 0.626492 0.750000 0.572399
O O7 0.616660 0.842137 0.627637
O O8 0.250000 0.477110 0.250000
O O9 0.111922 0.429862 0.205358
O O10 0.232989 0.426356 0.080620
O O11 0.142201 0.511595 0.114168
O O12 0.840607 0.634073 0.663920
O O13 0.000000 0.631648 0.736669
O O14 0.131089 0.500000 0.500000
O O15 0.135544 0.590952 0.476372
O O16 0.095853 0.541975 0.301391
O O17 0.000000 0.546955 0.472838
O O18 0.000000 0.060925 0.866724
#
# Coordination Sequence:
#
# PCOD9537617 Si02
#       7
#    16  16  16  16  16  16  16
#     4  12  24  41  63  91 128 166 214 256 306 366
#     4  10  23  46  73  97 124 159 199 254 323 388
#     4  10  20  34  56  84 125 161 205 257 308 356
#     4  10  20  39  64  92 121 158 206 255 315 382
#     4  10  20  34  54  81 119 170 219 257 301 359
#     4  11  22  36  57  88 128 160 209 256 318 354
#     4  11  23  38  55  85 125 173 221 258 300 365
#
# _framework density 20.218723000000001
#
# number of rings (size 3 to 8) (size 9 to 14) (size 15 to 20)
#    0.000    1.429    2.857    3.429    2.000    1.429 
#    0.000    2.143    0.000    0.000    0.000    2.000 
#    0.000    0.000    0.000    0.000    0.000    0.000 
#
# Total GULP energy -312414.138599 kJ/mol
# GULP energy per Si atom -5578.823904 kJ/mol
# Density = 2.017270 g / cm^3
# Si number density = 20.218723 Si / 1000 Ang^3
#
#
#
# Elastic Constant Matrix: (Units=GPa)
#
#
# Indices 1 2 3 4 5 6 
#
# 1 71.0993 17.7676 39.8893 -0.0004 0.0001 0.0000
# 2 17.7676 67.0262 10.5694 -0.0014 0.0000 0.0000
# 3 39.8893 10.5694 75.9404 -0.0037 -0.0002 0.0006
# 4 -0.0004 -0.0014 -0.0037 14.6587 -0.0001 0.0001
# 5 0.0001 0.0000 -0.0002 -0.0001 30.3032 0.0001
# 6 0.0000 0.0000 0.0006 0.0001 0.0001 9.8861
#
#
#
# Elastic Compliance Matrix: (Units=1/GPa)
#
#
# Indices 1 2 3 4 5 6 
#
# 1 0.020890 -0.003893 -0.010431 -0.000002 0.000000 0.000001
# 2 -0.003893 0.015980 -0.000179 0.000001 0.000000 0.000000
# 3 -0.010431 -0.000179 0.018672 0.000004 0.000000 -0.000001
# 4 -0.000002 0.000001 0.000004 0.068219 0.000000 -0.000001
# 5 0.000000 0.000000 0.000000 0.000000 0.033000 0.000000
# 6 0.000001 0.000000 -0.000001 -0.000001 0.000000 0.101152
#
#
# Mechanical properties :
#
#
# Convention : Reuss Voigt Hill
#
# Bulk Modulus (GPa) = 37.68508 38.94650 38.31579
# Shear Modulus (GPa) = 16.90540 20.69225 18.79882
#
# Velocity S-wave (km/s) = 2.89472 3.20256 3.05253
# Velocity P-wave (km/s) = 5.46367 5.74279 5.60497
#
# Compressibility (1/GPa) = 0.02653570
#
# Stress axis : x y z
#
# Youngs Moduli (GPa) = 47.87029 62.57936 53.55529
#
# Poissons Ratio (x) = 0.24360 0.55864
# Poissons Ratio (y) = 0.18634 0.00961
# Poissons Ratio (z) = 0.49934 0.01122
#
# Static dielectric constant tensor:
#      x y z
#    x 1.799230 0.000000 0.000000 
#    y 0.000000 1.742940 0.000000 
#    z 0.000000 0.000000 1.766170 
# 
# From -- ./inp_files/21113.got.cif
#   From: 2010.05.17/outbox.cif.g08.bks.cpg/sg74_11_cif.got.tgz:21113.got - 2010.06.03 17:57:02.
