data_PCOD9537993
_publ_section_title
;
Structure prediction by ZEFSAII (Michael W. Deem and Ramdas Pophale) SiO2 
 PCOD9537993
Probable space group: I M M A
;
_chemical_formula_sum "Si O2"
_cell_formula_units_Z 92
_cell_length_a 19.748837
_cell_length_b 12.260301
_cell_length_c 22.501532
_cell_angle_alpha 90.000000
_cell_angle_beta 90.000000
_cell_angle_gamma 90.000000
_cell_volume 5448.221374
_symmetry_space_group_name_H-M "I M M A"
_symmetry_group_IT_number 74
_symmetry_cell_setting 'orthorhombic'
loop_
_space_group_symop_operation_xyz
x,y,z
-x,1/2-y,z
x,-y,-z
-x,1/2+y,-z
-x,-y,-z
x,1/2+y,-z
-x,y,z
x,1/2-y,z
1/2+x,1/2+y,1/2+z
1/2-x,-y,1/2+z
1/2+x,1/2-y,1/2-z
1/2-x,y,1/2-z
1/2-x,1/2-y,1/2-z
1/2+x,y,1/2-z
1/2-x,1/2+y,1/2+z
1/2+x,-y,1/2+z
loop_
_atom_site_type_symbol
_atom_site_label
_atom_site_fract_x
_atom_site_fract_y
_atom_site_fract_z
Si Si1 0.771080 0.129954 0.042155
Si Si2 0.000000 0.750000 0.372023
Si Si3 0.687458 0.916529 0.408777
Si Si4 0.882372 0.750000 0.274699
Si Si5 0.920907 0.250000 0.862875
Si Si6 0.707472 0.541934 0.194150
Si Si7 0.500000 0.990867 0.070594
Si Si8 0.634346 0.119685 0.108764
O O1 0.784958 0.250000 0.064992
O O2 0.692738 0.105294 0.058206
O O3 0.818461 0.044145 0.075812
O O4 0.783624 0.126271 0.971735
O O5 0.063775 0.750000 0.327851
O O6 0.000000 0.636435 0.409039
O O7 0.620624 0.853056 0.389201
O O8 0.742526 0.909421 0.356386
O O9 0.913428 0.750000 0.208644
O O10 0.838224 0.641262 0.282972
O O11 0.000000 0.250000 0.878611
O O12 0.750000 0.501177 0.250000
O O13 0.665918 0.443193 0.165102
O O14 0.566270 0.055223 0.093141
O O15 0.500000 0.000000 0.000000
O O16 0.623751 0.250000 0.116354
#
# Coordination Sequence:
#
# PCOD9537993 Si02
#       8
#    16   4  16   8   8  16   8  16
#     4   9  19  36  60  83 115 150 194 238 297 353
#     4  12  26  44  62  84 130 174 200 248 290 374
#     4  10  20  35  57  86 111 150 184 244 297 349
#     4  12  22  38  57  88 120 160 193 248 305 344
#     4  12  23  37  60  86 116 150 194 240 308 360
#     4  11  21  35  61  89 117 147 206 252 302 348
#     4  12  27  42  57  90 130 167 208 243 301 365
#     4  10  23  40  59  85 121 165 198 249 297 361
#
# _framework density 16.886244999999999
#
# number of rings (size 3 to 8) (size 9 to 14) (size 15 to 20)
#    0.000    1.391    4.783    1.043    6.087    0.348 
#    0.000    1.739    0.000    0.000    0.000    0.000 
#    0.000    0.000    0.000    0.000    0.000    0.000 
#
# Total GULP energy -256504.268155 kJ/mol
# GULP energy per Si atom -5576.179742 kJ/mol
# Density = 1.684781 g / cm^3
# Si number density = 16.886245 Si / 1000 Ang^3
#
#
#
# Elastic Constant Matrix: (Units=GPa)
#
#
# Indices 1 2 3 4 5 6 
#
# 1 123.0743 79.5693 66.6470 0.0000 0.0000 0.0000
# 2 79.5693 150.3266 52.9479 0.0000 0.0000 0.0000
# 3 66.6470 52.9479 109.0039 0.0000 0.0000 0.0000
# 4 0.0000 0.0000 0.0000 4.0690 0.0000 0.0000
# 5 0.0000 0.0000 0.0000 0.0000 23.7385 0.0000
# 6 0.0000 0.0000 0.0000 0.0000 0.0000 21.9980
#
#
#
# Elastic Compliance Matrix: (Units=1/GPa)
#
#
# Indices 1 2 3 4 5 6 
#
# 1 0.015516 -0.005877 -0.006632 0.000000 0.000000 0.000000
# 2 -0.005877 0.010251 -0.001386 0.000000 0.000000 0.000000
# 3 -0.006632 -0.001386 0.013902 0.000000 0.000000 0.000000
# 4 0.000000 0.000000 0.000000 0.245759 0.000000 0.000000
# 5 0.000000 0.000000 0.000000 0.000000 0.042126 0.000000
# 6 0.000000 0.000000 0.000000 0.000000 0.000000 0.045459
#
#
# Mechanical properties :
#
#
# Convention : Reuss Voigt Hill
#
# Bulk Modulus (GPa) = 84.18142 86.74813 85.46478
# Shear Modulus (GPa) = 12.35292 22.17715 17.26503
#
# Velocity S-wave (km/s) = 2.70763 3.62792 3.20102
# Velocity P-wave (km/s) = 7.72886 8.30859 8.02396
#
# Compressibility (1/GPa) = 0.01187911
#
# Stress axis : x y z
#
# Youngs Moduli (GPa) = 64.44928 97.55056 71.93026
#
# Poissons Ratio (x) = 0.57329 0.47705
# Poissons Ratio (y) = 0.37876 0.09971
# Poissons Ratio (z) = 0.42744 0.13522
#
# Static dielectric constant tensor:
#      x y z
#    x 1.528180 0.000000 0.000000 
#    y 0.000000 1.609860 0.000000 
#    z 0.000000 0.000000 1.561680 
# 
# From -- ./inp_files/52946.got.cif
#   From: 2010.05.17/outbox.cif.g08.bks.cpg/sg74_27_cif.got.tgz:52946.got - 2010.06.03 17:57:02.
