data_PCOD9537266
_publ_section_title
;
Structure prediction by ZEFSAII (Michael W. Deem and Ramdas Pophale) SiO2 
 PCOD9537266
Probable space group: I M M A
;
_chemical_formula_sum "Si O2"
_cell_formula_units_Z 104
_cell_length_a 8.425909
_cell_length_b 23.652273
_cell_length_c 25.277215
_cell_angle_alpha 90.000000
_cell_angle_beta 90.000000
_cell_angle_gamma 90.000000
_cell_volume 5037.544203
_symmetry_space_group_name_H-M "I M M A"
_symmetry_group_IT_number 74
_symmetry_cell_setting 'orthorhombic'
loop_
_space_group_symop_operation_xyz
x,y,z
-x,1/2-y,z
x,-y,-z
-x,1/2+y,-z
-x,-y,-z
x,1/2+y,-z
-x,y,z
x,1/2-y,z
1/2+x,1/2+y,1/2+z
1/2-x,-y,1/2+z
1/2+x,1/2-y,1/2-z
1/2-x,y,1/2-z
1/2-x,1/2-y,1/2-z
1/2+x,y,1/2-z
1/2-x,1/2+y,1/2+z
1/2+x,-y,1/2+z
loop_
_atom_site_type_symbol
_atom_site_label
_atom_site_fract_x
_atom_site_fract_y
_atom_site_fract_z
Si Si1 0.310634 0.102968 0.306452
Si Si2 0.179580 0.519294 0.334925
Si Si3 0.679652 0.534251 0.947782
Si Si4 0.318410 0.853638 0.583569
Si Si5 0.806866 0.313718 0.972697
Si Si6 0.689765 0.136299 0.634669
Si Si7 0.310357 0.750000 0.190165
O O1 0.500000 0.105771 0.308434
O O2 0.250000 0.123850 0.250000
O O3 0.247586 0.138628 0.357375
O O4 0.262546 0.036760 0.311932
O O5 0.177802 0.506213 0.397478
O O6 0.253717 0.581344 0.332987
O O7 0.000000 0.520450 0.314168
O O8 0.500000 0.559122 0.951528
O O9 0.807998 0.582147 0.937423
O O10 0.713170 0.500000 0.000000
O O11 0.500000 0.833898 0.589933
O O12 0.246746 0.821486 0.532944
O O13 0.769001 0.250000 0.955062
O O14 0.753989 0.357395 0.927045
O O15 0.000000 0.318263 0.975807
O O16 0.500000 0.134722 0.633169
O O17 0.746186 0.193481 0.662458
O O18 0.500000 0.750000 0.188297
O O19 0.250000 0.750000 0.250000
#
# Coordination Sequence:
#
# PCOD9537266 Si02
#       7
#    16  16  16  16  16  16   8
#     4  10  20  35  54  78 107 142 184 228 276 332
#     4  10  20  33  51  77 107 140 176 217 264 319
#     4   9  17  29  45  69 105 141 169 204 259 320
#     4   9  18  31  51  78 104 136 181 225 268 324
#     4   9  17  32  56  83 111 143 181 228 276 324
#     4  11  21  37  59  84 112 145 183 227 276 323
#     4  12  26  44  62  80 106 142 187 232 273 320
#
# _framework density 20.644978999999999
#
# number of rings (size 3 to 8) (size 9 to 14) (size 15 to 20)
#    0.000    2.154    0.769    3.000    0.000    2.154 
#    0.000    3.846    0.000    0.462    0.000    0.000 
#    0.000    0.000    0.000    0.000    0.000    0.462 
#
# Total GULP energy -289797.981873 kJ/mol
# GULP energy per Si atom -5573.038113 kJ/mol
# Density = 2.059799 g / cm^3
# Si number density = 20.644979 Si / 1000 Ang^3
#
#
#
# Elastic Constant Matrix: (Units=GPa)
#
#
# Indices 1 2 3 4 5 6 
#
# 1 33.6537 -1.5419 0.8868 0.0000 0.0000 0.0000
# 2 -1.5419 30.9426 -7.1527 0.0000 0.0000 0.0000
# 3 0.8868 -7.1527 113.3950 0.0000 0.0000 0.0000
# 4 0.0000 0.0000 0.0000 20.9756 0.0000 0.0000
# 5 0.0000 0.0000 0.0000 0.0000 19.1359 0.0000
# 6 0.0000 0.0000 0.0000 0.0000 0.0000 11.3070
#
#
#
# Elastic Compliance Matrix: (Units=1/GPa)
#
#
# Indices 1 2 3 4 5 6 
#
# 1 0.029785 0.001452 -0.000141 0.000000 0.000000 0.000000
# 2 0.001452 0.032867 0.002062 0.000000 0.000000 0.000000
# 3 -0.000141 0.002062 0.008950 0.000000 0.000000 0.000000
# 4 0.000000 0.000000 0.000000 0.047675 0.000000 0.000000
# 5 0.000000 0.000000 0.000000 0.000000 0.052258 0.000000
# 6 0.000000 0.000000 0.000000 0.000000 0.000000 0.088441
#
#
# Mechanical properties :
#
#
# Convention : Reuss Voigt Hill
#
# Bulk Modulus (GPa) = 12.76401 18.04175 15.40288
# Shear Modulus (GPa) = 17.89897 22.67030 20.28463
#
# Velocity S-wave (km/s) = 2.94766 3.31736 3.13796
# Velocity P-wave (km/s) = 4.21675 4.84058 4.53939
#
# Compressibility (1/GPa) = 0.07834529
#
# Stress axis : x y z
#
# Youngs Moduli (GPa) = 33.57433 30.42581 111.73322
#
# Poissons Ratio (x) = -0.04416 0.01580
# Poissons Ratio (y) = -0.04873 -0.23037
# Poissons Ratio (z) = 0.00475 -0.06273
#
# Static dielectric constant tensor:
#      x y z
#    x 1.763040 0.000000 0.000000 
#    y 0.000000 1.729340 0.000000 
#    z 0.000000 0.000000 1.787010 
# 
# From -- ./inp_files/64770.got.cif
#   From: 2010.05.17/outbox.cif.g08.bks.cpg/sg74_33_cif.got.tgz:64770.got - 2010.06.03 17:57:02.
