data_PCOD9537433
_publ_section_title
;
Structure prediction by ZEFSAII (Michael W. Deem and Ramdas Pophale) SiO2 
 PCOD9537433
Probable space group: I M M A
;
_chemical_formula_sum "Si O2"
_cell_formula_units_Z 96
_cell_length_a 20.267255
_cell_length_b 8.756889
_cell_length_c 30.248313
_cell_angle_alpha 90.000000
_cell_angle_beta 90.000000
_cell_angle_gamma 90.000000
_cell_volume 5368.413191
_symmetry_space_group_name_H-M "I M M A"
_symmetry_group_IT_number 74
_symmetry_cell_setting 'orthorhombic'
loop_
_space_group_symop_operation_xyz
x,y,z
-x,1/2-y,z
x,-y,-z
-x,1/2+y,-z
-x,-y,-z
x,1/2+y,-z
-x,y,z
x,1/2-y,z
1/2+x,1/2+y,1/2+z
1/2-x,-y,1/2+z
1/2+x,1/2-y,1/2-z
1/2-x,y,1/2-z
1/2-x,1/2-y,1/2-z
1/2+x,y,1/2-z
1/2-x,1/2+y,1/2+z
1/2+x,-y,1/2+z
loop_
_atom_site_type_symbol
_atom_site_label
_atom_site_fract_x
_atom_site_fract_y
_atom_site_fract_z
Si Si1 0.706796 0.068563 0.049209
Si Si2 0.071997 0.433175 0.549901
Si Si3 0.925966 0.933751 0.733258
Si Si4 0.703426 0.932267 0.378331
Si Si5 0.575332 0.933196 0.662741
Si Si6 0.209487 0.566213 0.293466
O O1 0.702788 0.250000 0.046542
O O2 0.638221 0.003819 0.069817
O O3 0.767127 0.013846 0.078951
O O4 0.712568 0.000000 0.000000
O O5 0.070228 0.500000 0.500000
O O6 0.078256 0.250000 0.547966
O O7 0.000000 0.469959 0.570097
O O8 0.924076 0.750000 0.730294
O O9 0.917197 0.973813 0.785280
O O10 0.000000 0.983553 0.719865
O O11 0.864430 0.002686 0.707522
O O12 0.707067 0.750000 0.383712
O O13 0.749532 0.977426 0.336745
O O14 0.629969 0.982913 0.365851
O O15 0.500000 0.969415 0.650096
O O16 0.583924 0.750000 0.659406
O O17 0.206310 0.750000 0.291776
O O18 0.250000 0.513571 0.250000
#
# Coordination Sequence:
#
# PCOD9537433 Si02
#       6
#    16  16  16  16  16  16
#     4  11  22  37  57  80 108 141 182 227 277 327
#     4   9  16  28  49  76 104 134 171 215 263 314
#     4   9  18  32  51  76 107 144 184 224 267 317
#     4  11  22  36  55  80 111 143 182 225 270 324
#     4   9  18  33  53  79 109 140 178 222 267 319
#     4  10  20  34  51  77 109 142 178 219 265 314
#
# _framework density 17.882379
#
# number of rings (size 3 to 8) (size 9 to 14) (size 15 to 20)
#    0.000    2.167    1.667    4.500    0.000    3.333 
#    0.000    2.500    0.000    1.500    0.000    0.000 
#    0.000    0.000    0.000    0.000    0.000    0.000 
#
# Total GULP energy -267821.549949 kJ/mol
# GULP energy per Si atom -5579.615624 kJ/mol
# Density = 1.784168 g / cm^3
# Si number density = 17.882379 Si / 1000 Ang^3
#
#
#
# Elastic Constant Matrix: (Units=GPa)
#
#
# Indices 1 2 3 4 5 6 
#
# 1 132.9548 43.3185 39.3955 0.0000 0.0000 0.0000
# 2 43.3185 62.9463 28.8985 0.0000 0.0000 0.0000
# 3 39.3955 28.8985 49.4456 0.0000 0.0000 0.0000
# 4 0.0000 0.0000 0.0000 17.6317 0.0000 0.0000
# 5 0.0000 0.0000 0.0000 0.0000 23.3798 0.0000
# 6 0.0000 0.0000 0.0000 0.0000 0.0000 33.5059
#
#
#
# Elastic Compliance Matrix: (Units=1/GPa)
#
#
# Indices 1 2 3 4 5 6 
#
# 1 0.010796 -0.004757 -0.005822 0.000000 0.000000 0.000000
# 2 -0.004757 0.023809 -0.010125 0.000000 0.000000 0.000000
# 3 -0.005822 -0.010125 0.030780 0.000000 0.000000 0.000000
# 4 0.000000 0.000000 0.000000 0.056716 0.000000 0.000000
# 5 0.000000 0.000000 0.000000 0.000000 0.042772 0.000000
# 6 0.000000 0.000000 0.000000 0.000000 0.000000 0.029846
#
#
# Mechanical properties :
#
#
# Convention : Reuss Voigt Hill
#
# Bulk Modulus (GPa) = 41.70496 52.06354 46.88425
# Shear Modulus (GPa) = 20.48191 23.81908 22.15049
#
# Velocity S-wave (km/s) = 3.38800 3.65360 3.52330
# Velocity P-wave (km/s) = 6.21910 6.85390 6.54420
#
# Compressibility (1/GPa) = 0.02397796
#
# Stress axis : x y z
#
# Youngs Moduli (GPa) = 92.62454 42.00173 32.48869
#
# Poissons Ratio (x) = 0.19981 0.18914
# Poissons Ratio (y) = 0.44063 0.32894
# Poissons Ratio (z) = 0.53922 0.42525
#
# Static dielectric constant tensor:
#      x y z
#    x 1.631000 0.000000 0.000000 
#    y 0.000000 1.598810 0.000000 
#    z 0.000000 0.000000 1.603210 
# 
# From -- ./inp_files/64373.got.cif
#   From: 2010.05.17/outbox.cif.g08.bks.cpg/sg74_33_cif.got.tgz:64373.got - 2010.06.03 17:57:02.
