data_PCOD9537050
_publ_section_title
;
Structure prediction by ZEFSAII (Michael W. Deem and Ramdas Pophale) SiO2 
 PCOD9537050
Probable space group: I M M A
;
_chemical_formula_sum "Si O2"
_cell_formula_units_Z 64
_cell_length_a 9.189363
_cell_length_b 17.483116
_cell_length_c 20.359516
_cell_angle_alpha 90.000000
_cell_angle_beta 90.000000
_cell_angle_gamma 90.000000
_cell_volume 3270.933359
_symmetry_space_group_name_H-M "I M M A"
_symmetry_group_IT_number 74
_symmetry_cell_setting 'orthorhombic'
loop_
_space_group_symop_operation_xyz
x,y,z
-x,1/2-y,z
x,-y,-z
-x,1/2+y,-z
-x,-y,-z
x,1/2+y,-z
-x,y,z
x,1/2-y,z
1/2+x,1/2+y,1/2+z
1/2-x,-y,1/2+z
1/2+x,1/2-y,1/2-z
1/2-x,y,1/2-z
1/2-x,1/2-y,1/2-z
1/2+x,y,1/2-z
1/2-x,1/2+y,1/2+z
1/2+x,-y,1/2+z
loop_
_atom_site_type_symbol
_atom_site_label
_atom_site_fract_x
_atom_site_fract_y
_atom_site_fract_z
Si Si1 0.167891 0.515157 0.619284
Si Si2 0.326781 0.881749 0.443056
Si Si3 0.173914 0.336768 0.092592
Si Si4 0.667742 0.138480 0.815207
O O1 0.263612 0.467309 0.566800
O O2 0.239302 0.597032 0.629760
O O3 0.170096 0.454844 0.679314
O O4 0.000000 0.522553 0.598043
O O5 0.500000 0.881443 0.433850
O O6 0.294325 0.849010 0.514794
O O7 0.248768 0.838751 0.382512
O O8 0.211822 0.250000 0.111014
O O9 0.000000 0.346838 0.100732
O O10 0.500000 0.161616 0.815426
O O11 0.750000 0.162422 0.750000
#
# Coordination Sequence:
#
# PCOD9537050 Si02
#       4
#    16  16  16  16
#     4   9  19  31  47  71  97 123 157 198 236 279
#     4   9  17  30  49  70  96 126 156 195 237 278
#     4  10  20  32  47  70  99 130 161 191 232 285
#     4   9  18  30  48  73  96 119 156 199 238 279
#
# _framework density 19.566281
#
# number of rings (size 3 to 8) (size 9 to 14) (size 15 to 20)
#    1.500    1.250    0.000    2.250    0.000    5.500 
#    0.000    0.000    0.000    1.500    0.000    0.000 
#    0.000    0.000    0.000    0.000    0.000    0.000 
#
# Total GULP energy -178143.109640 kJ/mol
# GULP energy per Si atom -5566.972176 kJ/mol
# Density = 1.952175 g / cm^3
# Si number density = 19.566281 Si / 1000 Ang^3
#
#
#
# Elastic Constant Matrix: (Units=GPa)
#
#
# Indices 1 2 3 4 5 6 
#
# 1 88.6127 37.2817 19.9362 0.0000 0.0000 0.0000
# 2 37.2817 143.1173 5.6528 0.0000 0.0000 0.0000
# 3 19.9362 5.6528 29.8979 0.0000 0.0000 0.0000
# 4 0.0000 0.0000 0.0000 -39.4860 0.0000 0.0000
# 5 0.0000 0.0000 0.0000 0.0000 17.1867 0.0000
# 6 0.0000 0.0000 0.0000 0.0000 0.0000 -507.6474
#
#
#
# Elastic Compliance Matrix: (Units=1/GPa)
#
#
# Indices 1 2 3 4 5 6 
#
# 1 0.014834 -0.003500 -0.009230 0.000000 0.000000 0.000000
# 2 -0.003500 0.007865 0.000846 0.000000 0.000000 0.000000
# 3 -0.009230 0.000846 0.039442 0.000000 0.000000 0.000000
# 4 0.000000 0.000000 0.000000 -0.025325 0.000000 0.000000
# 5 0.000000 0.000000 0.000000 0.000000 0.058185 0.000000
# 6 0.000000 0.000000 0.000000 0.000000 0.000000 -0.001970
#
#
# Mechanical properties :
#
#
# Convention : Reuss Voigt Hill
#
# Bulk Modulus (GPa) = 26.05850 43.04104 34.54977
# Shear Modulus (GPa) = 38.58380 -92.73887 -27.07754
#
# Velocity S-wave (km/s) = 4.44549 -6.89204 -3.72410
# Velocity P-wave (km/s) = 6.30054 6.42559 0.89205
#
# Compressibility (1/GPa) = 0.03837520
#
# Stress axis : x y z
#
# Youngs Moduli (GPa) = 67.41272 127.13755 25.35391
#
# Poissons Ratio (x) = 0.44494 0.23401
# Poissons Ratio (y) = 0.23592 -0.02146
# Poissons Ratio (z) = 0.62220 -0.10762
#
# Static dielectric constant tensor:
#      x y z
#    x 1.652940 0.000000 0.000000 
#    y 0.000000 1.743610 0.000000 
#    z 0.000000 0.000000 1.663350 
# 
# From -- ./inp_files/40871.got.cif
#   From: 2010.05.17/outbox.cif.g08.bks.cpg/sg74_21_cif.got.tgz:40871.got - 2010.06.03 17:57:02.
