data_PCOD9537091
_publ_section_title
;
Structure prediction by ZEFSAII (Michael W. Deem and Ramdas Pophale) SiO2 
 PCOD9537091
Probable space group: I M M A
;
_chemical_formula_sum "Si O2"
_cell_formula_units_Z 80
_cell_length_a 13.372825
_cell_length_b 13.753639
_cell_length_c 27.979078
_cell_angle_alpha 90.000000
_cell_angle_beta 90.000000
_cell_angle_gamma 90.000000
_cell_volume 5146.052130
_symmetry_space_group_name_H-M "I M M A"
_symmetry_group_IT_number 74
_symmetry_cell_setting 'orthorhombic'
loop_
_space_group_symop_operation_xyz
x,y,z
-x,1/2-y,z
x,-y,-z
-x,1/2+y,-z
-x,-y,-z
x,1/2+y,-z
-x,y,z
x,1/2-y,z
1/2+x,1/2+y,1/2+z
1/2-x,-y,1/2+z
1/2+x,1/2-y,1/2-z
1/2-x,y,1/2-z
1/2-x,1/2-y,1/2-z
1/2+x,y,1/2-z
1/2-x,1/2+y,1/2+z
1/2+x,-y,1/2+z
loop_
_atom_site_type_symbol
_atom_site_label
_atom_site_fract_x
_atom_site_fract_y
_atom_site_fract_z
Si Si1 0.381193 0.859447 0.635570
Si Si2 0.779248 0.634019 0.385692
Si Si3 0.000000 0.633075 0.252223
Si Si4 0.616709 0.012028 0.556554
Si Si5 0.500000 0.867804 0.135223
Si Si6 0.188204 0.531257 0.203777
O O1 0.500000 0.854868 0.643613
O O2 0.340686 0.750000 0.638233
O O3 0.367150 0.909931 0.584005
O O4 0.338956 0.935741 0.673608
O O5 0.774325 0.750000 0.390646
O O6 0.699054 0.584225 0.421068
O O7 0.895752 0.601966 0.389655
O O8 0.746873 0.601840 0.332418
O O9 0.093956 0.589336 0.224273
O O10 0.000000 0.750000 0.250465
O O11 0.000000 0.603709 0.308470
O O12 0.500000 0.041711 0.566657
O O13 0.627253 0.000000 0.500000
O O14 0.500000 0.750000 0.135164
O O15 0.250000 0.502573 0.250000
#
# Coordination Sequence:
#
# PCOD9537091 Si02
#       6
#    16  16   8  16   8  16
#     4   9  18  33  50  68  95 130 165 206 254 298
#     4  10  20  32  49  75 104 134 165 204 251 303
#     4  11  20  30  45  70 105 137 165 204 252 301
#     4   9  19  35  53  76 101 125 162 210 258 313
#     4   9  18  32  47  68 102 139 170 196 240 303
#     4  11  20  31  48  72 100 135 173 206 245 296
#
# _framework density 15.545897999999999
#
# number of rings (size 3 to 8) (size 9 to 14) (size 15 to 20)
#    0.000    2.200    3.000    0.600    1.400    2.400 
#    0.000    2.500    0.000    0.000    0.000    6.300 
#    0.000    0.000    0.000    0.000    0.000    0.000 
#
# Total GULP energy -222764.739177 kJ/mol
# GULP energy per Si atom -5569.118479 kJ/mol
# Density = 1.551051 g / cm^3
# Si number density = 15.545898 Si / 1000 Ang^3
#
#
#
# Elastic Constant Matrix: (Units=GPa)
#
#
# Indices 1 2 3 4 5 6 
#
# 1 108.7999 44.2039 47.5396 0.0000 0.0000 0.0000
# 2 44.2039 92.8693 35.7568 0.0000 0.0000 0.0000
# 3 47.5396 35.7568 94.6298 0.0000 0.0000 0.0000
# 4 0.0000 0.0000 0.0000 6.8956 0.0000 0.0000
# 5 0.0000 0.0000 0.0000 0.0000 12.8020 0.0000
# 6 0.0000 0.0000 0.0000 0.0000 0.0000 10.2565
#
#
#
# Elastic Compliance Matrix: (Units=1/GPa)
#
#
# Indices 1 2 3 4 5 6 
#
# 1 0.013116 -0.004337 -0.004951 0.000000 0.000000 0.000000
# 2 -0.004337 0.014035 -0.003124 0.000000 0.000000 0.000000
# 3 -0.004951 -0.003124 0.014235 0.000000 0.000000 0.000000
# 4 0.000000 0.000000 0.000000 0.145020 0.000000 0.000000
# 5 0.000000 0.000000 0.000000 0.000000 0.078113 0.000000
# 6 0.000000 0.000000 0.000000 0.000000 0.000000 0.097499
#
#
# Mechanical properties :
#
#
# Convention : Reuss Voigt Hill
#
# Bulk Modulus (GPa) = 60.37732 61.25550 60.81641
# Shear Modulus (GPa) = 12.74329 17.24407 14.99368
#
# Velocity S-wave (km/s) = 2.86618 3.33413 3.10897
# Velocity P-wave (km/s) = 7.06228 7.36956 7.21756
#
# Compressibility (1/GPa) = 0.01656251
#
# Stress axis : x y z
#
# Youngs Moduli (GPa) = 76.24053 71.24954 70.24873
#
# Poissons Ratio (x) = 0.30901 0.34777
# Poissons Ratio (y) = 0.33066 0.21949
# Poissons Ratio (z) = 0.37743 0.22262
#
# Static dielectric constant tensor:
#      x y z
#    x 1.556510 0.000000 0.000000 
#    y 0.000000 1.504840 0.000000 
#    z 0.000000 0.000000 1.500490 
# 
# From -- ./inp_files/65868.got.cif
#   From: 2010.05.17/outbox.cif.g08.bks.cpg/sg74_33_cif.got.tgz:65868.got - 2010.06.03 17:57:02.
