data_PCOD9537155
_publ_section_title
;
Structure prediction by ZEFSAII (Michael W. Deem and Ramdas Pophale) SiO2 
 PCOD9537155
Probable space group: I M M A
;
_chemical_formula_sum "Si O2"
_cell_formula_units_Z 56
_cell_length_a 26.805824
_cell_length_b 10.724907
_cell_length_c 9.433584
_cell_angle_alpha 90.000000
_cell_angle_beta 90.000000
_cell_angle_gamma 90.000000
_cell_volume 2712.060776
_symmetry_space_group_name_H-M "I M M A"
_symmetry_group_IT_number 74
_symmetry_cell_setting 'orthorhombic'
loop_
_space_group_symop_operation_xyz
x,y,z
-x,1/2-y,z
x,-y,-z
-x,1/2+y,-z
-x,-y,-z
x,1/2+y,-z
-x,y,z
x,1/2-y,z
1/2+x,1/2+y,1/2+z
1/2-x,-y,1/2+z
1/2+x,1/2-y,1/2-z
1/2-x,y,1/2-z
1/2-x,1/2-y,1/2-z
1/2+x,y,1/2-z
1/2-x,1/2+y,1/2+z
1/2+x,-y,1/2+z
loop_
_atom_site_type_symbol
_atom_site_label
_atom_site_fract_x
_atom_site_fract_y
_atom_site_fract_z
Si Si1 0.000000 0.617771 0.396095
Si Si2 0.397730 0.968928 0.165823
Si Si3 0.940903 0.613844 0.896545
Si Si4 0.789068 0.106092 0.622988
O O1 0.000000 0.500000 0.500000
O O2 0.948673 0.608714 0.309125
O O3 0.000000 0.750000 0.474952
O O4 0.344623 0.906929 0.189801
O O5 0.407453 0.091320 0.258435
O O6 0.397365 0.000000 0.000000
O O7 0.931560 0.750000 0.958857
O O8 0.000000 0.607741 0.860362
O O9 0.929545 0.500000 0.000000
O O10 0.783691 0.250000 0.570033
O O11 0.750000 0.086255 0.750000
O O12 0.783780 0.000000 0.500000
#
# Coordination Sequence:
#
# PCOD9537155 Si02
#       4
#     8  16  16  16
#     4  10  20  32  53  86 121 156 190 240 300 362
#     4  10  21  38  61  93 124 160 204 257 308 371
#     4  10  22  40  60  87 126 171 213 254 305 370
#     4  10  23  43  66  93 125 163 211 265 317 375
#
# _framework density 20.648505
#
# number of rings (size 3 to 8) (size 9 to 14) (size 15 to 20)
#    0.000    2.000    1.429    0.857    0.000   13.143 
#    0.000    2.857    0.000    0.000    0.000    0.000 
#    0.000    0.000    0.000    0.000    0.000    0.000 
#
# Total GULP energy -156079.404729 kJ/mol
# GULP energy per Si atom -5574.264455 kJ/mol
# Density = 2.060151 g / cm^3
# Si number density = 20.648505 Si / 1000 Ang^3
#
#
#
# Elastic Constant Matrix: (Units=GPa)
#
#
# Indices 1 2 3 4 5 6 
#
# 1 154.1098 45.9849 35.1846 0.0000 0.0000 0.0000
# 2 45.9849 190.9639 58.2110 0.0000 0.0000 0.0000
# 3 35.1846 58.2110 74.1959 0.0000 0.0000 0.0000
# 4 0.0000 0.0000 0.0000 33.9365 0.0000 0.0000
# 5 0.0000 0.0000 0.0000 0.0000 -148.0294 0.0000
# 6 0.0000 0.0000 0.0000 0.0000 0.0000 10.1887
#
#
#
# Elastic Compliance Matrix: (Units=1/GPa)
#
#
# Indices 1 2 3 4 5 6 
#
# 1 0.007402 -0.000936 -0.002775 0.000000 0.000000 0.000000
# 2 -0.000936 0.007001 -0.005049 0.000000 0.000000 0.000000
# 3 -0.002775 -0.005049 0.018755 0.000000 0.000000 0.000000
# 4 0.000000 0.000000 0.000000 0.029467 0.000000 0.000000
# 5 0.000000 0.000000 0.000000 0.000000 -0.006755 0.000000
# 6 0.000000 0.000000 0.000000 0.000000 0.000000 0.098147
#
#
# Mechanical properties :
#
#
# Convention : Reuss Voigt Hill
#
# Bulk Modulus (GPa) = 63.95113 77.55895 70.75504
# Shear Modulus (GPa) = 28.28851 -2.12156 13.08347
#
# Velocity S-wave (km/s) = 3.70537 -1.01474 2.51993
# Velocity P-wave (km/s) = 7.02459 6.02247 6.54275
#
# Compressibility (1/GPa) = 0.01563694
#
# Stress axis : x y z
#
# Youngs Moduli (GPa) = 135.09958 142.83563 53.31920
#
# Poissons Ratio (x) = 0.13375 0.14798
# Poissons Ratio (y) = 0.12651 0.26919
# Poissons Ratio (z) = 0.37496 0.72113
#
# Static dielectric constant tensor:
#      x y z
#    x 1.767850 0.000000 0.000000 
#    y 0.000000 1.780830 0.000000 
#    z 0.000000 0.000000 1.754020 
# 
# From -- ./inp_files/14472.got.cif
#   From: 2010.05.17/outbox.cif.g08.bks.cpg/sg74_8_cif.got.tgz:14472.got - 2010.06.03 17:57:02.
