data_PCOD9537644
_publ_section_title
;
Structure prediction by ZEFSAII (Michael W. Deem and Ramdas Pophale) SiO2 
 PCOD9537644
Probable space group: I M M A
;
_chemical_formula_sum "Si O2"
_cell_formula_units_Z 116
_cell_length_a 27.877805
_cell_length_b 7.950987
_cell_length_c 29.034995
_cell_angle_alpha 90.000000
_cell_angle_beta 90.000000
_cell_angle_gamma 90.000000
_cell_volume 6435.782743
_symmetry_space_group_name_H-M "I M M A"
_symmetry_group_IT_number 74
_symmetry_cell_setting 'orthorhombic'
loop_
_space_group_symop_operation_xyz
x,y,z
-x,1/2-y,z
x,-y,-z
-x,1/2+y,-z
-x,-y,-z
x,1/2+y,-z
-x,y,z
x,1/2-y,z
1/2+x,1/2+y,1/2+z
1/2-x,-y,1/2+z
1/2+x,1/2-y,1/2-z
1/2-x,y,1/2-z
1/2-x,1/2-y,1/2-z
1/2+x,y,1/2-z
1/2-x,1/2+y,1/2+z
1/2+x,-y,1/2+z
loop_
_atom_site_type_symbol
_atom_site_label
_atom_site_fract_x
_atom_site_fract_y
_atom_site_fract_z
Si Si1 0.357530 0.553512 0.643416
Si Si2 0.190078 0.947500 0.049792
Si Si3 0.500000 0.750000 0.164952
Si Si4 0.232615 0.056041 0.798814
Si Si5 0.822758 0.055919 0.351847
Si Si6 0.573418 0.547322 0.809107
Si Si7 0.200691 0.048661 0.550909
Si Si8 0.553868 0.546413 0.701226
O O1 0.365689 0.750000 0.636983
O O2 0.341922 0.485863 0.593850
O O3 0.312849 0.530089 0.677976
O O4 0.405151 0.480042 0.667170
O O5 0.196672 0.750000 0.047968
O O6 0.244247 0.019421 0.055012
O O7 0.170461 0.000000 0.000000
O O8 0.541265 0.596928 0.167336
O O9 0.218771 0.250000 0.791082
O O10 0.250000 0.983243 0.750000
O O11 0.277912 0.048578 0.832919
O O12 0.809568 0.250000 0.344506
O O13 0.871810 0.023539 0.324941
O O14 0.828295 0.023224 0.406122
O O15 0.561664 0.750000 0.817029
O O16 0.567209 0.515966 0.754447
O O17 0.200577 0.250000 0.554676
O O18 0.183481 0.000000 0.500000
O O19 0.500000 0.482694 0.692621
O O20 0.552730 0.750000 0.696657
#
# Coordination Sequence:
#
# PCOD9537644 Si02
#       8
#    16  16   4  16  16  16  16  16
#     4  11  21  34  56  81 107 149 189 227 287 345
#     4  10  20  35  54  78 109 146 183 231 277 333
#     4  12  22  36  64  86 112 156 202 240 298 334
#     4  11  23  36  49  74 115 154 187 226 270 336
#     4  11  22  36  57  82 116 151 186 230 283 340
#     4  10  22  39  58  86 119 150 195 246 286 341
#     4  10  20  34  55  80 115 149 185 228 277 335
#     4   9  18  37  58  78 111 147 191 242 285 332
#
# _framework density 18.024225999999999
#
# number of rings (size 3 to 8) (size 9 to 14) (size 15 to 20)
#    0.000    1.655    2.069    3.103    1.931    3.310 
#    2.483    0.000    0.000    0.414    0.000    0.483 
#    0.000    0.000    0.000    0.000    0.000    0.000 
#
# Total GULP energy -323053.875839 kJ/mol
# GULP energy per Si atom -5569.894411 kJ/mol
# Density = 1.798320 g / cm^3
# Si number density = 18.024226 Si / 1000 Ang^3
#
#
#
# Elastic Constant Matrix: (Units=GPa)
#
#
# Indices 1 2 3 4 5 6 
#
# 1 88.7033 10.9904 39.5632 0.0000 0.0000 0.0000
# 2 10.9904 45.3221 -0.3431 0.0000 0.0000 0.0000
# 3 39.5632 -0.3431 90.3842 0.0000 0.0000 0.0000
# 4 0.0000 0.0000 0.0000 23.9804 0.0000 0.0000
# 5 0.0000 0.0000 0.0000 0.0000 7.1143 0.0000
# 6 0.0000 0.0000 0.0000 0.0000 0.0000 3.1711
#
#
#
# Elastic Compliance Matrix: (Units=1/GPa)
#
#
# Indices 1 2 3 4 5 6 
#
# 1 0.014567 -0.003581 -0.006390 0.000000 0.000000 0.000000
# 2 -0.003581 0.022945 0.001655 0.000000 0.000000 0.000000
# 3 -0.006390 0.001655 0.013867 0.000000 0.000000 0.000000
# 4 0.000000 0.000000 0.000000 0.041701 0.000000 0.000000
# 5 0.000000 0.000000 0.000000 0.000000 0.140562 0.000000
# 6 0.000000 0.000000 0.000000 0.000000 0.000000 0.315352
#
#
# Mechanical properties :
#
#
# Convention : Reuss Voigt Hill
#
# Bulk Modulus (GPa) = 28.77951 36.09228 32.43590
# Shear Modulus (GPa) = 8.66237 18.46642 13.56439
#
# Velocity S-wave (km/s) = 2.19463 3.20431 2.74627
# Velocity P-wave (km/s) = 4.73536 5.81015 5.30007
#
# Compressibility (1/GPa) = 0.03474694
#
# Stress axis : x y z
#
# Youngs Moduli (GPa) = 68.64710 43.58217 72.11255
#
# Poissons Ratio (x) = 0.15606 0.46080
# Poissons Ratio (y) = 0.24582 -0.11931
# Poissons Ratio (z) = 0.43866 -0.07211
#
# Static dielectric constant tensor:
#      x y z
#    x 1.630000 0.000000 0.000000 
#    y 0.000000 1.647900 0.000000 
#    z 0.000000 0.000000 1.605460 
# 
# From -- ./inp_files/68982.got.cif
#   From: 2010.05.17/outbox.cif.g08.bks.cpg/sg74_35_cif.got.tgz:68982.got - 2010.06.03 17:57:02.
