data_PCOD9537724
_publ_section_title
;
Structure prediction by ZEFSAII (Michael W. Deem and Ramdas Pophale) SiO2 
 PCOD9537724
Probable space group: I M M A
;
_chemical_formula_sum "Si O2"
_cell_formula_units_Z 96
_cell_length_a 30.682836
_cell_length_b 14.765938
_cell_length_c 9.671144
_cell_angle_alpha 90.000000
_cell_angle_beta 90.000000
_cell_angle_gamma 90.000000
_cell_volume 4381.616760
_symmetry_space_group_name_H-M "I M M A"
_symmetry_group_IT_number 74
_symmetry_cell_setting 'orthorhombic'
loop_
_space_group_symop_operation_xyz
x,y,z
-x,1/2-y,z
x,-y,-z
-x,1/2+y,-z
-x,-y,-z
x,1/2+y,-z
-x,y,z
x,1/2-y,z
1/2+x,1/2+y,1/2+z
1/2-x,-y,1/2+z
1/2+x,1/2-y,1/2-z
1/2-x,y,1/2-z
1/2-x,1/2-y,1/2-z
1/2+x,y,1/2-z
1/2-x,1/2+y,1/2+z
1/2+x,-y,1/2+z
loop_
_atom_site_type_symbol
_atom_site_label
_atom_site_fract_x
_atom_site_fract_y
_atom_site_fract_z
Si Si1 0.219424 0.350957 0.367858
Si Si2 0.226066 0.085334 0.896903
Si Si3 0.951093 0.860458 0.026623
Si Si4 0.951250 0.860474 0.706739
Si Si5 0.631549 0.359792 0.703170
Si Si6 0.370383 0.361417 0.022972
O O1 0.208833 0.250000 0.315633
O O2 0.250000 0.391800 0.250000
O O3 0.246260 0.345628 0.509374
O O4 0.173264 0.395671 0.400769
O O5 0.250000 0.080061 0.750000
O O6 0.176007 0.109001 0.868811
O O7 0.228246 0.000000 0.000000
O O8 0.951369 0.750000 0.030788
O O9 0.911675 0.891201 0.122801
O O10 0.000000 0.890081 0.067813
O O11 0.943662 0.886070 0.866617
O O12 0.951081 0.750000 0.704019
O O13 0.913236 0.890609 0.604946
O O14 0.000000 0.889780 0.666487
O O15 0.631709 0.250000 0.700768
O O16 0.630202 0.388360 0.863153
O O17 0.369075 0.250000 0.023977
#
# Coordination Sequence:
#
# PCOD9537724 Si02
#       6
#    16  16  16  16  16  16
#     4  10  21  36  57  84 111 142 182 229 279 335
#     4  12  25  42  58  77 111 148 192 234 288 340
#     4   8  15  28  48  79 116 148 179 218 268 327
#     4   8  14  25  42  69 109 148 175 210 265 326
#     4  10  20  34  57  85 112 145 183 229 281 332
#     4   9  17  29  47  75 107 139 177 220 268 323
#
# _framework density 21.90972
#
# number of rings (size 3 to 8) (size 9 to 14) (size 15 to 20)
#    0.000    2.500    1.667    2.000    2.333    1.333 
#    0.000    3.333    0.000    0.500    0.000    0.000 
#    0.000    4.000    0.000    0.000    0.000    0.000 
#
# Total GULP energy -268017.643653 kJ/mol
# GULP energy per Si atom -5583.700909 kJ/mol
# Density = 2.185985 g / cm^3
# Si number density = 21.909720 Si / 1000 Ang^3
#
#
#
# Elastic Constant Matrix: (Units=GPa)
#
#
# Indices 1 2 3 4 5 6 
#
# 1 213.3041 12.2371 106.5194 0.0000 0.0000 0.0000
# 2 12.2371 46.3387 10.1573 0.0000 0.0000 0.0000
# 3 106.5194 10.1573 140.6969 0.0000 0.0000 0.0000
# 4 0.0000 0.0000 0.0000 -12.7580 0.0000 0.0000
# 5 0.0000 0.0000 0.0000 0.0000 49.2351 0.0000
# 6 0.0000 0.0000 0.0000 0.0000 0.0000 -6.9696
#
#
#
# Elastic Compliance Matrix: (Units=1/GPa)
#
#
# Indices 1 2 3 4 5 6 
#
# 1 0.007564 -0.000754 -0.005672 0.000000 0.000000 0.000000
# 2 -0.000754 0.022002 -0.001017 0.000000 0.000000 0.000000
# 3 -0.005672 -0.001017 0.011475 0.000000 0.000000 0.000000
# 4 0.000000 0.000000 0.000000 -0.078382 0.000000 0.000000
# 5 0.000000 0.000000 0.000000 0.000000 0.020311 0.000000
# 6 0.000000 0.000000 0.000000 0.000000 0.000000 -0.143481
#
#
# Mechanical properties :
#
#
# Convention : Reuss Voigt Hill
#
# Bulk Modulus (GPa) = 38.23493 73.12972 55.68233
# Shear Modulus (GPa) = -36.52171 23.99655 -6.26258
#
# Velocity S-wave (km/s) = -4.08722 3.31304 -1.69250
# Velocity P-wave (km/s) = 2.18742 6.93435 4.65298
#
# Compressibility (1/GPa) = 0.02615409
#
# Stress axis : x y z
#
# Youngs Moduli (GPa) = 132.20656 45.44960 87.14463
#
# Poissons Ratio (x) = 0.03428 0.49429
# Poissons Ratio (y) = 0.09971 0.08866
# Poissons Ratio (z) = 0.74989 0.04624
#
# Static dielectric constant tensor:
#      x y z
#    x 23.081320 0.000000 0.000000 
#    y 0.000000 1.861610 0.000000 
#    z 0.000000 0.000000 1.756230 
# 
# From -- ./inp_files/15111.got.cif
#   From: 2010.05.17/outbox.cif.g08.bks.cpg/sg74_8_cif.got.tgz:15111.got - 2010.06.03 17:57:02.
