data_PCOD9537060
_publ_section_title
;
Structure prediction by ZEFSAII (Michael W. Deem and Ramdas Pophale) SiO2 
 PCOD9537060
Probable space group: I M M A
;
_chemical_formula_sum "Si O2"
_cell_formula_units_Z 88
_cell_length_a 8.681158
_cell_length_b 31.624450
_cell_length_c 18.163402
_cell_angle_alpha 90.000000
_cell_angle_beta 90.000000
_cell_angle_gamma 90.000000
_cell_volume 4986.523118
_symmetry_space_group_name_H-M "I M M A"
_symmetry_group_IT_number 74
_symmetry_cell_setting 'orthorhombic'
loop_
_space_group_symop_operation_xyz
x,y,z
-x,1/2-y,z
x,-y,-z
-x,1/2+y,-z
-x,-y,-z
x,1/2+y,-z
-x,y,z
x,1/2-y,z
1/2+x,1/2+y,1/2+z
1/2-x,-y,1/2+z
1/2+x,1/2-y,1/2-z
1/2-x,y,1/2-z
1/2-x,1/2-y,1/2-z
1/2+x,y,1/2-z
1/2-x,1/2+y,1/2+z
1/2+x,-y,1/2+z
loop_
_atom_site_type_symbol
_atom_site_label
_atom_site_fract_x
_atom_site_fract_y
_atom_site_fract_z
Si Si1 0.817448 0.421131 0.172827
Si Si2 0.813702 0.451149 0.012079
Si Si3 0.815226 0.663377 0.903323
Si Si4 0.182349 0.868745 0.444320
Si Si5 0.685314 0.798508 0.332883
Si Si6 0.685299 0.250000 0.331210
O O1 0.750000 0.435945 0.250000
O O2 0.787312 0.371441 0.159562
O O3 0.000000 0.427869 0.175661
O O4 0.761417 0.440740 0.095661
O O5 0.747162 0.416763 0.954486
O O6 0.000000 0.446551 0.009689
O O7 0.774644 0.500000 0.000000
O O8 0.766842 0.708552 0.874659
O O9 0.000000 0.662631 0.918883
O O10 0.727513 0.651211 0.977013
O O11 0.252906 0.836767 0.383631
O O12 0.000000 0.870659 0.433750
O O13 0.500000 0.800613 0.331769
O O14 0.727037 0.750000 0.357907
O O15 0.750000 0.802989 0.250000
O O16 0.500000 0.250000 0.327373
O O17 0.750000 0.250000 0.250000
#
# Coordination Sequence:
#
# PCOD9537060 Si02
#       6
#    16  16  16  16  16   8
#     4   9  17  30  50  74 100 131 171 216 264 317
#     4   9  19  38  60  79 105 144 186 227 278 338
#     4   9  19  34  49  70 101 141 183 218 258 311
#     4  11  22  35  55  83 112 142 180 227 276 330
#     4  10  21  38  60  84 113 149 188 233 283 337
#     4  10  20  32  48  70 101 138 177 220 264 306
#
# _framework density 17.647566999999999
#
# number of rings (size 3 to 8) (size 9 to 14) (size 15 to 20)
#    0.000    2.364    0.000    3.818    1.273    5.091 
#    0.000    0.909    0.000    2.182    0.000    0.000 
#    0.000    0.000    0.000    0.000    0.000    0.000 
#
# Total GULP energy -245197.720100 kJ/mol
# GULP energy per Si atom -5572.675457 kJ/mol
# Density = 1.760740 g / cm^3
# Si number density = 17.647567 Si / 1000 Ang^3
#
#
#
# Elastic Constant Matrix: (Units=GPa)
#
#
# Indices 1 2 3 4 5 6 
#
# 1 49.9662 49.5598 36.0705 0.0000 0.0000 0.0000
# 2 49.5598 153.9657 60.2521 0.0000 0.0000 0.0000
# 3 36.0705 60.2521 85.0969 0.0000 0.0000 0.0000
# 4 0.0000 0.0000 0.0000 14.4067 0.0000 0.0000
# 5 0.0000 0.0000 0.0000 0.0000 33.6920 0.0000
# 6 0.0000 0.0000 0.0000 0.0000 0.0000 15.5871
#
#
#
# Elastic Compliance Matrix: (Units=1/GPa)
#
#
# Indices 1 2 3 4 5 6 
#
# 1 0.033906 -0.007317 -0.009191 0.000000 0.000000 0.000000
# 2 -0.007317 0.010563 -0.004378 0.000000 0.000000 0.000000
# 3 -0.009191 -0.004378 0.018747 0.000000 0.000000 0.000000
# 4 0.000000 0.000000 0.000000 0.069412 0.000000 0.000000
# 5 0.000000 0.000000 0.000000 0.000000 0.029681 0.000000
# 6 0.000000 0.000000 0.000000 0.000000 0.000000 0.064155
#
#
# Mechanical properties :
#
#
# Convention : Reuss Voigt Hill
#
# Bulk Modulus (GPa) = 46.63242 64.53262 55.58252
# Shear Modulus (GPa) = 18.15638 22.28027 20.21832
#
# Velocity S-wave (km/s) = 3.21102 3.55704 3.38845
# Velocity P-wave (km/s) = 6.34265 7.31552 6.84639
#
# Compressibility (1/GPa) = 0.02144431
#
# Stress axis : x y z
#
# Youngs Moduli (GPa) = 29.49302 94.66607 53.34218
#
# Poissons Ratio (x) = 0.69269 0.49028
# Poissons Ratio (y) = 0.21581 0.23352
# Poissons Ratio (z) = 0.27108 0.41443
#
# Static dielectric constant tensor:
#      x y z
#    x 1.604170 0.000000 0.000000 
#    y 0.000000 1.623800 0.000000 
#    z 0.000000 0.000000 1.575580 
# 
# From -- ./inp_files/40139.got.cif
#   From: 2010.05.17/outbox.cif.g08.bks.cpg/sg74_21_cif.got.tgz:40139.got - 2010.06.03 17:57:02.
