data_PCOD9537507
_publ_section_title
;
Structure prediction by ZEFSAII (Michael W. Deem and Ramdas Pophale) SiO2 
 PCOD9537507
Probable space group: I M M A
;
_chemical_formula_sum "Si O2"
_cell_formula_units_Z 112
_cell_length_a 14.832725
_cell_length_b 15.868875
_cell_length_c 26.834545
_cell_angle_alpha 90.000000
_cell_angle_beta 90.000000
_cell_angle_gamma 90.000000
_cell_volume 6316.279215
_symmetry_space_group_name_H-M "I M M A"
_symmetry_group_IT_number 74
_symmetry_cell_setting 'orthorhombic'
loop_
_space_group_symop_operation_xyz
x,y,z
-x,1/2-y,z
x,-y,-z
-x,1/2+y,-z
-x,-y,-z
x,1/2+y,-z
-x,y,z
x,1/2-y,z
1/2+x,1/2+y,1/2+z
1/2-x,-y,1/2+z
1/2+x,1/2-y,1/2-z
1/2-x,y,1/2-z
1/2-x,1/2-y,1/2-z
1/2+x,y,1/2-z
1/2-x,1/2+y,1/2+z
1/2+x,-y,1/2+z
loop_
_atom_site_type_symbol
_atom_site_label
_atom_site_fract_x
_atom_site_fract_y
_atom_site_fract_z
Si Si1 0.643086 0.343991 0.241044
Si Si2 0.783624 0.918931 0.149700
Si Si3 0.890704 0.654049 0.946425
Si Si4 0.101606 0.981894 0.315048
Si Si5 0.601421 0.157260 0.728741
Si Si6 0.394161 0.852608 0.442706
Si Si7 0.897565 0.923007 0.842125
O O1 0.618457 0.250000 0.222550
O O2 0.750000 0.346206 0.250000
O O3 0.617756 0.423212 0.205989
O O4 0.603344 0.358484 0.296408
O O5 0.679782 0.945861 0.149318
O O6 0.817898 0.849786 0.189208
O O7 0.829012 0.893659 0.097683
O O8 0.834160 0.000565 0.171527
O O9 0.858165 0.750000 0.944448
O O10 0.863407 0.610149 0.895379
O O11 0.000000 0.656144 0.945347
O O12 0.868551 0.619439 0.001086
O O13 0.106695 0.917376 0.268435
O O14 0.000000 0.977930 0.335360
O O15 0.500000 0.151133 0.704879
O O16 0.605361 0.250000 0.752606
O O17 0.500000 0.874404 0.434022
O O18 0.388839 0.750000 0.440769
O O19 0.000000 0.952400 0.848758
#
# Coordination Sequence:
#
# PCOD9537507 Si02
#       7
#    16  16  16  16  16  16  16
#     4  11  21  36  56  78 106 142 183 224 267 317
#     4  12  21  32  49  75 104 137 179 224 257 305
#     4   8  16  31  49  74 109 142 170 203 252 321
#     4  11  23  39  52  70 103 141 185 229 270 311
#     4  10  20  34  53  75 103 140 176 215 268 323
#     4   9  18  33  53  78 109 142 174 210 259 322
#     4  11  20  31  51  79 109 140 169 207 259 318
#
# _framework density 17.731959
#
# number of rings (size 3 to 8) (size 9 to 14) (size 15 to 20)
#    0.000    1.714    2.857    3.857    0.000    5.143 
#    0.000    2.143    0.000    0.000    0.000    2.000 
#    0.000    1.143    0.000    0.000    0.000    0.000 
#
# Total GULP energy -312147.782576 kJ/mol
# GULP energy per Si atom -5574.067546 kJ/mol
# Density = 1.769160 g / cm^3
# Si number density = 17.731959 Si / 1000 Ang^3
#
#
#
# Elastic Constant Matrix: (Units=GPa)
#
#
# Indices 1 2 3 4 5 6 
#
# 1 100.3103 22.6316 27.4399 0.0000 0.0000 0.0000
# 2 22.6316 88.6938 18.3876 0.0000 0.0000 0.0000
# 3 27.4399 18.3876 62.5940 0.0000 0.0000 0.0000
# 4 0.0000 0.0000 0.0000 17.7893 0.0000 0.0000
# 5 0.0000 0.0000 0.0000 0.0000 6.7837 0.0000
# 6 0.0000 0.0000 0.0000 0.0000 0.0000 17.5146
#
#
#
# Elastic Compliance Matrix: (Units=1/GPa)
#
#
# Indices 1 2 3 4 5 6 
#
# 1 0.011664 -0.002041 -0.004514 0.000000 0.000000 0.000000
# 2 -0.002041 0.012363 -0.002737 0.000000 0.000000 0.000000
# 3 -0.004514 -0.002737 0.018759 0.000000 0.000000 0.000000
# 4 0.000000 0.000000 0.000000 0.056214 0.000000 0.000000
# 5 0.000000 0.000000 0.000000 0.000000 0.147411 0.000000
# 6 0.000000 0.000000 0.000000 0.000000 0.000000 0.057095
#
#
# Mechanical properties :
#
#
# Convention : Reuss Voigt Hill
#
# Bulk Modulus (GPa) = 41.31773 43.16848 42.24310
# Shear Modulus (GPa) = 15.14431 20.62679 17.88555
#
# Velocity S-wave (km/s) = 2.92562 3.41435 3.17939
# Velocity P-wave (km/s) = 5.89611 6.31994 6.11170
#
# Compressibility (1/GPa) = 0.02420269
#
# Stress axis : x y z
#
# Youngs Moduli (GPa) = 85.73226 80.88730 53.30819
#
# Poissons Ratio (x) = 0.16505 0.24063
# Poissons Ratio (y) = 0.17494 0.14592
# Poissons Ratio (z) = 0.38699 0.22141
#
# Static dielectric constant tensor:
#      x y z
#    x 1.648740 0.000000 0.000000 
#    y 0.000000 1.672760 0.000000 
#    z 0.000000 0.000000 1.620830 
# 
# From -- ./inp_files/67195.got.cif
#   From: 2010.05.17/outbox.cif.g08.bks.cpg/sg74_34_cif.got.tgz:67195.got - 2010.06.03 17:57:02.
