data_PCOD9537719
_publ_section_title
;
Structure prediction by ZEFSAII (Michael W. Deem and Ramdas Pophale) SiO2 
 PCOD9537719
Probable space group: I M M A
;
_chemical_formula_sum "Si O2"
_cell_formula_units_Z 80
_cell_length_a 9.884234
_cell_length_b 17.178836
_cell_length_c 26.573657
_cell_angle_alpha 90.000000
_cell_angle_beta 90.000000
_cell_angle_gamma 90.000000
_cell_volume 4512.197256
_symmetry_space_group_name_H-M "I M M A"
_symmetry_group_IT_number 74
_symmetry_cell_setting 'orthorhombic'
loop_
_space_group_symop_operation_xyz
x,y,z
-x,1/2-y,z
x,-y,-z
-x,1/2+y,-z
-x,-y,-z
x,1/2+y,-z
-x,y,z
x,1/2-y,z
1/2+x,1/2+y,1/2+z
1/2-x,-y,1/2+z
1/2+x,1/2-y,1/2-z
1/2-x,y,1/2-z
1/2-x,1/2-y,1/2-z
1/2+x,y,1/2-z
1/2-x,1/2+y,1/2+z
1/2+x,-y,1/2+z
loop_
_atom_site_type_symbol
_atom_site_label
_atom_site_fract_x
_atom_site_fract_y
_atom_site_fract_z
Si Si1 0.271615 0.655860 0.560751
Si Si2 0.500000 0.944590 0.949626
Si Si3 0.000000 0.844358 0.017480
Si Si4 0.277638 0.584475 0.302624
Si Si5 0.000000 0.156902 0.141884
Si Si6 0.000000 0.541209 0.769313
Si Si7 0.500000 0.513626 0.161896
Si Si8 0.000000 0.658031 0.129047
O O1 0.250940 0.750000 0.561747
O O2 0.367689 0.634737 0.513878
O O3 0.365236 0.635541 0.609481
O O4 0.133201 0.609758 0.553740
O O5 0.500000 0.988809 0.895904
O O6 0.500000 0.000000 0.000000
O O7 0.000000 0.876887 0.073244
O O8 0.000000 0.750000 0.018857
O O9 0.250000 0.627783 0.250000
O O10 0.369718 0.510318 0.285715
O O11 0.369093 0.631273 0.340834
O O12 0.136531 0.560945 0.327061
O O13 0.000000 0.116822 0.196006
O O14 0.000000 0.250000 0.145650
O O15 0.000000 0.549297 0.708576
O O16 0.000000 0.750000 0.124914
#
# Coordination Sequence:
#
# PCOD9537719 Si02
#       8
#    16   8   8  16   8   8   8   8
#     4   9  19  38  57  77 112 147 176 221 284 330
#     4  12  25  34  51  83 111 146 183 227 269 317
#     4   8  17  35  58  76  96 138 183 220 265 316
#     4   9  19  35  56  76 105 148 175 208 276 330
#     4   9  17  34  63  90 108 137 185 231 270 326
#     4   9  17  35  58  79 105 150 182 212 264 330
#     4  10  21  36  52  75 116 145 180 220 265 327
#     4  10  20  34  57  81 100 130 185 235 268 318
#
# _framework density 17.729721000000001
#
# number of rings (size 3 to 8) (size 9 to 14) (size 15 to 20)
#    0.000    2.600    0.000    3.300    2.800    0.400 
#    0.000    2.500    0.000    7.800    0.000    0.000 
#    0.000    0.000    0.000    0.000    0.000    0.000 
#
# Total GULP energy -222826.765967 kJ/mol
# GULP energy per Si atom -5570.669149 kJ/mol
# Density = 1.768937 g / cm^3
# Si number density = 17.729721 Si / 1000 Ang^3
#
#
#
# Elastic Constant Matrix: (Units=GPa)
#
#
# Indices 1 2 3 4 5 6 
#
# 1 163.6941 37.7505 58.4567 0.0000 0.0000 0.0000
# 2 37.7505 32.5661 39.6378 0.0000 0.0000 0.0000
# 3 58.4567 39.6378 159.7431 0.0000 0.0000 0.0000
# 4 0.0000 0.0000 0.0000 28.1317 0.0000 0.0000
# 5 0.0000 0.0000 0.0000 0.0000 22.4298 0.0000
# 6 0.0000 0.0000 0.0000 0.0000 0.0000 7.0248
#
#
#
# Elastic Compliance Matrix: (Units=1/GPa)
#
#
# Indices 1 2 3 4 5 6 
#
# 1 0.008437 -0.008628 -0.000946 0.000000 0.000000 0.000000
# 2 -0.008628 0.052817 -0.009948 0.000000 0.000000 0.000000
# 3 -0.000946 -0.009948 0.009075 0.000000 0.000000 0.000000
# 4 0.000000 0.000000 0.000000 0.035547 0.000000 0.000000
# 5 0.000000 0.000000 0.000000 0.000000 0.044583 0.000000
# 6 0.000000 0.000000 0.000000 0.000000 0.000000 0.142353
#
#
# Mechanical properties :
#
#
# Convention : Reuss Voigt Hill
#
# Bulk Modulus (GPa) = 31.96616 69.74370 50.85493
# Shear Modulus (GPa) = 14.60771 26.19449 20.40110
#
# Velocity S-wave (km/s) = 2.87350 3.84791 3.39584
# Velocity P-wave (km/s) = 5.39242 7.69184 6.64239
#
# Compressibility (1/GPa) = 0.03128308
#
# Stress axis : x y z
#
# Youngs Moduli (GPa) = 118.53047 18.93341 110.19348
#
# Poissons Ratio (x) = 0.16335 0.10430
# Poissons Ratio (y) = 1.02265 1.09625
# Poissons Ratio (z) = 0.11219 0.18836
#
# Static dielectric constant tensor:
#      x y z
#    x 1.596980 0.000000 0.000000 
#    y 0.000000 1.596370 0.000000 
#    z 0.000000 0.000000 1.629890 
# 
# From -- ./inp_files/56940.got.cif
#   From: 2010.05.17/outbox.cif.g08.bks.cpg/sg74_29_cif.got.tgz:56940.got - 2010.06.03 17:57:02.
