data_PCOD9537818
_publ_section_title
;
Structure prediction by ZEFSAII (Michael W. Deem and Ramdas Pophale) SiO2 
 PCOD9537818
Probable space group: I M M A
;
_chemical_formula_sum "Si O2"
_cell_formula_units_Z 88
_cell_length_a 17.201116
_cell_length_b 14.825463
_cell_length_c 17.368049
_cell_angle_alpha 90.000000
_cell_angle_beta 90.000000
_cell_angle_gamma 90.000000
_cell_volume 4429.104485
_symmetry_space_group_name_H-M "I M M A"
_symmetry_group_IT_number 74
_symmetry_cell_setting 'orthorhombic'
loop_
_space_group_symop_operation_xyz
x,y,z
-x,1/2-y,z
x,-y,-z
-x,1/2+y,-z
-x,-y,-z
x,1/2+y,-z
-x,y,z
x,1/2-y,z
1/2+x,1/2+y,1/2+z
1/2-x,-y,1/2+z
1/2+x,1/2-y,1/2-z
1/2-x,y,1/2-z
1/2-x,1/2-y,1/2-z
1/2+x,y,1/2-z
1/2-x,1/2+y,1/2+z
1/2+x,-y,1/2+z
loop_
_atom_site_type_symbol
_atom_site_label
_atom_site_fract_x
_atom_site_fract_y
_atom_site_fract_z
Si Si1 0.172529 0.649269 0.706111
Si Si2 0.408633 0.979323 0.157673
Si Si3 0.405365 0.146757 0.704761
Si Si4 0.219099 0.349549 0.062739
Si Si5 0.588979 0.984573 0.592093
Si Si6 0.686748 0.000000 0.000000
O O1 0.149912 0.750000 0.733374
O O2 0.250000 0.618681 0.750000
O O3 0.108594 0.572252 0.703832
O O4 0.208352 0.658701 0.620884
O O5 0.500000 0.969180 0.144082
O O6 0.381640 0.898283 0.213694
O O7 0.364926 0.988440 0.076421
O O8 0.500000 0.149853 0.704999
O O9 0.377979 0.250000 0.694571
O O10 0.385317 0.074545 0.637938
O O11 0.194954 0.250000 0.037857
O O12 0.148460 0.402357 0.103372
O O13 0.255326 0.414797 0.999593
O O14 0.500000 0.964020 0.615978
O O15 0.587478 0.000000 0.500000
#
# Coordination Sequence:
#
# PCOD9537818 Si02
#       6
#    16  16  16  16  16   8
#     4   9  18  33  54  78 108 147 187 235 296 351
#     4  10  20  35  59  86 115 155 202 250 297 347
#     4   9  19  36  57  84 118 150 184 236 298 353
#     4  10  20  35  54  77 110 151 191 238 292 346
#     4  10  20  35  57  84 112 148 194 241 294 358
#     4  10  21  38  55  80 120 158 202 248 293 350
#
# _framework density 19.868576000000001
#
# number of rings (size 3 to 8) (size 9 to 14) (size 15 to 20)
#    0.000    2.364    0.909    1.364    0.000    2.182 
#    0.000    1.818    0.000   14.727    0.000    0.000 
#    0.000    0.000    0.000    0.000    0.000    0.000 
#
# Total GULP energy -245093.266203 kJ/mol
# GULP energy per Si atom -5570.301505 kJ/mol
# Density = 1.982335 g / cm^3
# Si number density = 19.868576 Si / 1000 Ang^3
#
#
#
# Elastic Constant Matrix: (Units=GPa)
#
#
# Indices 1 2 3 4 5 6 
#
# 1 57.5828 60.7361 25.4613 0.0000 0.0000 0.0000
# 2 60.7361 172.2739 51.9176 0.0000 0.0000 0.0000
# 3 25.4613 51.9176 89.6449 0.0000 0.0000 0.0000
# 4 0.0000 0.0000 0.0000 25.6356 0.0000 0.0000
# 5 0.0000 0.0000 0.0000 0.0000 17.5280 0.0000
# 6 0.0000 0.0000 0.0000 0.0000 0.0000 17.6480
#
#
#
# Elastic Compliance Matrix: (Units=1/GPa)
#
#
# Indices 1 2 3 4 5 6 
#
# 1 0.028187 -0.009116 -0.002726 0.000000 0.000000 0.000000
# 2 -0.009116 0.009980 -0.003191 0.000000 0.000000 0.000000
# 3 -0.002726 -0.003191 0.013777 0.000000 0.000000 0.000000
# 4 0.000000 0.000000 0.000000 0.039008 0.000000 0.000000
# 5 0.000000 0.000000 0.000000 0.000000 0.057052 0.000000
# 6 0.000000 0.000000 0.000000 0.000000 0.000000 0.056664
#
#
# Mechanical properties :
#
#
# Convention : Reuss Voigt Hill
#
# Bulk Modulus (GPa) = 45.70719 66.19241 55.94980
# Shear Modulus (GPa) = 20.65888 24.25475 22.45682
#
# Velocity S-wave (km/s) = 3.22806 3.49773 3.36559
# Velocity P-wave (km/s) = 6.07853 7.04979 6.58210
#
# Compressibility (1/GPa) = 0.02187840
#
# Stress axis : x y z
#
# Youngs Moduli (GPa) = 35.47763 100.19886 72.58228
#
# Poissons Ratio (x) = 0.91339 0.19788
# Poissons Ratio (y) = 0.32341 0.23160
# Poissons Ratio (z) = 0.09672 0.31972
#
# Static dielectric constant tensor:
#      x y z
#    x 1.684280 0.000000 0.000000 
#    y 0.000000 1.754730 0.000000 
#    z 0.000000 0.000000 1.767560 
# 
# From -- ./inp_files/43937.got.cif
#   From: 2010.05.17/outbox.cif.g08.bks.cpg/sg74_22_cif.got.tgz:43937.got - 2010.06.03 17:57:02.
