data_PCOD9537174
_publ_section_title
;
Structure prediction by ZEFSAII (Michael W. Deem and Ramdas Pophale) SiO2 
 PCOD9537174
Probable space group: I M M A
;
_chemical_formula_sum "Si O2"
_cell_formula_units_Z 96
_cell_length_a 27.315608
_cell_length_b 8.732688
_cell_length_c 29.412114
_cell_angle_alpha 90.000000
_cell_angle_beta 90.000000
_cell_angle_gamma 90.000000
_cell_volume 7015.926914
_symmetry_space_group_name_H-M "I M M A"
_symmetry_group_IT_number 74
_symmetry_cell_setting 'orthorhombic'
loop_
_space_group_symop_operation_xyz
x,y,z
-x,1/2-y,z
x,-y,-z
-x,1/2+y,-z
-x,-y,-z
x,1/2+y,-z
-x,y,z
x,1/2-y,z
1/2+x,1/2+y,1/2+z
1/2-x,-y,1/2+z
1/2+x,1/2-y,1/2-z
1/2-x,y,1/2-z
1/2-x,1/2-y,1/2-z
1/2+x,y,1/2-z
1/2-x,1/2+y,1/2+z
1/2+x,-y,1/2+z
loop_
_atom_site_type_symbol
_atom_site_label
_atom_site_fract_x
_atom_site_fract_y
_atom_site_fract_z
Si Si1 0.798319 0.427119 0.717717
Si Si2 0.601849 0.432783 0.452014
Si Si3 0.149121 0.564768 0.195321
Si Si4 0.055469 0.566016 0.137600
Si Si5 0.740803 0.930960 0.639618
Si Si6 0.711460 0.432644 0.547980
O O1 0.806021 0.250000 0.704620
O O2 0.750000 0.431103 0.750000
O O3 0.840863 0.478753 0.752223
O O4 0.784692 0.523916 0.673635
O O5 0.583548 0.500000 0.500000
O O6 0.604669 0.250000 0.454574
O O7 0.569721 0.486036 0.409585
O O8 0.656539 0.500497 0.445401
O O9 0.155640 0.750000 0.192795
O O10 0.096431 0.525360 0.174911
O O11 0.191122 0.489541 0.164312
O O12 0.058538 0.750000 0.130877
O O13 0.000000 0.527995 0.150858
O O14 0.738152 0.750000 0.633440
O O15 0.742598 0.013477 0.591092
O O16 0.729279 0.500000 0.500000
O O17 0.708498 0.250000 0.545837
#
# Coordination Sequence:
#
# PCOD9537174 Si02
#       6
#    16  16  16  16  16  16
#     4   8  15  27  42  60  80 105 131 159 200 242
#     4  11  21  33  47  61  76 100 132 172 216 255
#     4   9  17  30  45  59  80 106 132 167 206 246
#     4  10  20  33  48  63  79 104 136 171 212 255
#     4  11  19  27  42  64  84 105 131 164 201 241
#     4  11  20  31  45  61  82 107 135 167 203 246
#
# _framework density 13.683152
#
# number of rings (size 3 to 8) (size 9 to 14) (size 15 to 20)
#    0.000    2.000    1.667    6.500    0.000    3.667 
#    0.000    0.000    0.000    0.000    0.000    0.000 
#    0.000    0.000    0.000    0.000    0.000    0.833 
#
# Total GULP energy -267700.383534 kJ/mol
# GULP energy per Si atom -5577.091324 kJ/mol
# Density = 1.365201 g / cm^3
# Si number density = 13.683152 Si / 1000 Ang^3
#
#
#
# Elastic Constant Matrix: (Units=GPa)
#
#
# Indices 1 2 3 4 5 6 
#
# 1 54.6468 27.8106 51.9119 0.0000 0.0000 0.0000
# 2 27.8106 73.2564 44.9853 0.0000 0.0000 0.0000
# 3 51.9119 44.9853 98.0018 0.0000 0.0000 0.0000
# 4 0.0000 0.0000 0.0000 21.9065 0.0000 0.0000
# 5 0.0000 0.0000 0.0000 0.0000 17.6225 0.0000
# 6 0.0000 0.0000 0.0000 0.0000 0.0000 9.5571
#
#
#
# Elastic Compliance Matrix: (Units=1/GPa)
#
#
# Indices 1 2 3 4 5 6 
#
# 1 0.037247 -0.002819 -0.018436 0.000000 0.000000 0.000000
# 2 -0.002819 0.019222 -0.007330 0.000000 0.000000 0.000000
# 3 -0.018436 -0.007330 0.023334 0.000000 0.000000 0.000000
# 4 0.000000 0.000000 0.000000 0.045649 0.000000 0.000000
# 5 0.000000 0.000000 0.000000 0.000000 0.056746 0.000000
# 6 0.000000 0.000000 0.000000 0.000000 0.000000 0.104634
#
#
# Mechanical properties :
#
#
# Convention : Reuss Voigt Hill
#
# Bulk Modulus (GPa) = 44.18291 52.81341 48.49816
# Shear Modulus (GPa) = 14.22283 16.56369 15.39326
#
# Velocity S-wave (km/s) = 3.22753 3.48302 3.35771
# Velocity P-wave (km/s) = 6.80069 7.40651 7.11006
#
# Compressibility (1/GPa) = 0.02263318
#
# Stress axis : x y z
#
# Youngs Moduli (GPa) = 26.84747 52.02298 42.85542
#
# Poissons Ratio (x) = 0.14666 0.79008
# Poissons Ratio (y) = 0.07569 0.31414
# Poissons Ratio (z) = 0.49496 0.38134
#
# Static dielectric constant tensor:
#      x y z
#    x 1.438700 0.000000 0.000000 
#    y 0.000000 1.457550 0.000000 
#    z 0.000000 0.000000 1.467290 
# 
# From -- ./inp_files/68882.got.cif
#   From: 2010.05.17/outbox.cif.g08.bks.cpg/sg74_35_cif.got.tgz:68882.got - 2010.06.03 17:57:02.
