data_PCOD9537852
_publ_section_title
;
Structure prediction by ZEFSAII (Michael W. Deem and Ramdas Pophale) SiO2 
 PCOD9537852
Probable space group: I M M A
;
_chemical_formula_sum "Si O2"
_cell_formula_units_Z 80
_cell_length_a 8.498356
_cell_length_b 27.584481
_cell_length_c 18.157695
_cell_angle_alpha 90.000000
_cell_angle_beta 90.000000
_cell_angle_gamma 90.000000
_cell_volume 4256.576607
_symmetry_space_group_name_H-M "I M M A"
_symmetry_group_IT_number 74
_symmetry_cell_setting 'orthorhombic'
loop_
_space_group_symop_operation_xyz
x,y,z
-x,1/2-y,z
x,-y,-z
-x,1/2+y,-z
-x,-y,-z
x,1/2+y,-z
-x,y,z
x,1/2-y,z
1/2+x,1/2+y,1/2+z
1/2-x,-y,1/2+z
1/2+x,1/2-y,1/2-z
1/2-x,y,1/2-z
1/2-x,1/2-y,1/2-z
1/2+x,y,1/2-z
1/2-x,1/2+y,1/2+z
1/2+x,-y,1/2+z
loop_
_atom_site_type_symbol
_atom_site_label
_atom_site_fract_x
_atom_site_fract_y
_atom_site_fract_z
Si Si1 0.814051 0.068473 0.872178
Si Si2 0.311624 0.459093 0.329776
Si Si3 0.313053 0.803839 0.485453
Si Si4 0.184553 0.669911 0.328429
Si Si5 0.315184 0.094764 0.027849
O O1 0.716771 0.112157 0.836128
O O2 0.000000 0.077219 0.859776
O O3 0.770990 0.015775 0.842237
O O4 0.778570 0.071138 0.959431
O O5 0.500000 0.454892 0.333241
O O6 0.250000 0.443838 0.250000
O O7 0.236973 0.428590 0.395803
O O8 0.500000 0.810448 0.494580
O O9 0.269114 0.750000 0.511229
O O10 0.272483 0.807908 0.398737
O O11 0.224485 0.848140 0.524003
O O12 0.250000 0.686400 0.250000
O O13 0.000000 0.679746 0.334200
O O14 0.500000 0.087417 0.015261
#
# Coordination Sequence:
#
# PCOD9537852 Si02
#       5
#    16  16  16  16  16
#     4  10  20  35  55  79 110 147 185 222 260 308
#     4  11  23  37  55  80 111 145 181 222 267 315
#     4  10  21  38  59  80 103 135 177 224 272 321
#     4  11  21  33  51  76 110 147 182 222 265 314
#     4  11  22  36  57  82 110 143 179 220 264 317
#
# _framework density 18.794446000000001
#
# number of rings (size 3 to 8) (size 9 to 14) (size 15 to 20)
#    0.000    1.400    0.000    9.000    0.000    9.200 
#    0.000    0.000    0.000    0.600    0.000    0.000 
#    0.000    0.000    0.000    0.000    0.000    0.000 
#
# Total GULP energy -223702.262344 kJ/mol
# GULP energy per Si atom -5592.556559 kJ/mol
# Density = 1.875167 g / cm^3
# Si number density = 18.794446 Si / 1000 Ang^3
#
#
#
# Elastic Constant Matrix: (Units=GPa)
#
#
# Indices 1 2 3 4 5 6 
#
# 1 38.6720 2.3142 -9.7695 0.0000 0.0000 0.0000
# 2 2.3142 57.5923 10.7341 0.0000 0.0000 0.0000
# 3 -9.7695 10.7341 59.7075 0.0001 0.0000 0.0000
# 4 0.0000 0.0000 0.0001 -3.4111 0.0000 0.0000
# 5 0.0000 0.0000 0.0000 0.0000 29.9334 0.0000
# 6 0.0000 0.0000 0.0000 0.0000 0.0000 12.2290
#
#
#
# Elastic Compliance Matrix: (Units=1/GPa)
#
#
# Indices 1 2 3 4 5 6 
#
# 1 0.027192 -0.001989 0.004807 0.000000 0.000000 0.000000
# 2 -0.001989 0.018111 -0.003581 0.000000 0.000000 0.000000
# 3 0.004807 -0.003581 0.018179 0.000001 0.000000 0.000000
# 4 0.000000 0.000000 0.000001 -0.293163 0.000000 0.000000
# 5 0.000000 0.000000 0.000000 0.000000 0.033407 0.000000
# 6 0.000000 0.000000 0.000000 0.000000 0.000000 0.081773
#
#
# Mechanical properties :
#
#
# Convention : Reuss Voigt Hill
#
# Bulk Modulus (GPa) = 16.14073 18.05881 17.09977
# Shear Modulus (GPa) = -54.15731 17.92980 -18.11375
#
# Velocity S-wave (km/s) = -5.37384 3.09203 -3.10785
# Velocity P-wave (km/s) = 5.46786 4.73043 1.93914
#
# Compressibility (1/GPa) = 0.06195505
#
# Stress axis : x y z
#
# Youngs Moduli (GPa) = 36.77579 55.21557 55.00960
#
# Poissons Ratio (x) = 0.10980 -0.26441
# Poissons Ratio (y) = 0.07313 0.19701
# Poissons Ratio (z) = -0.17677 0.19774
#
# Static dielectric constant tensor:
#      x y z
#    x 1.621960 0.000000 0.000000 
#    y 0.000000 1.669970 0.000000 
#    z 0.000000 0.000000 1.627250 
# 
# From -- ./inp_files/39951.got.cif
#   From: 2010.05.17/outbox.cif.g08.bks.cpg/sg74_20_cif.got.tgz:39951.got - 2010.06.03 17:57:02.
