data_PCOD9537759
_publ_section_title
;
Structure prediction by ZEFSAII (Michael W. Deem and Ramdas Pophale) SiO2 
 PCOD9537759
Probable space group: I M M A
;
_chemical_formula_sum "Si O2"
_cell_formula_units_Z 116
_cell_length_a 19.098890
_cell_length_b 28.256792
_cell_length_c 10.477445
_cell_angle_alpha 90.000000
_cell_angle_beta 90.000000
_cell_angle_gamma 90.000000
_cell_volume 5654.397970
_symmetry_space_group_name_H-M "I M M A"
_symmetry_group_IT_number 74
_symmetry_cell_setting 'orthorhombic'
loop_
_space_group_symop_operation_xyz
x,y,z
-x,1/2-y,z
x,-y,-z
-x,1/2+y,-z
-x,-y,-z
x,1/2+y,-z
-x,y,z
x,1/2-y,z
1/2+x,1/2+y,1/2+z
1/2-x,-y,1/2+z
1/2+x,1/2-y,1/2-z
1/2-x,y,1/2-z
1/2-x,1/2-y,1/2-z
1/2+x,y,1/2-z
1/2-x,1/2+y,1/2+z
1/2+x,-y,1/2+z
loop_
_atom_site_type_symbol
_atom_site_label
_atom_site_fract_x
_atom_site_fract_y
_atom_site_fract_z
Si Si1 0.581365 0.896754 0.024305
Si Si2 0.083564 0.570355 0.757946
Si Si3 0.312412 0.196416 0.579019
Si Si4 0.838607 0.804421 0.530510
Si Si5 0.332448 0.105074 0.725110
Si Si6 0.500000 0.750000 0.734964
Si Si7 0.372054 0.677059 0.698915
Si Si8 0.309652 0.992440 0.359219
O O1 0.500000 0.902095 0.053214
O O2 0.627917 0.908227 0.145827
O O3 0.596766 0.925925 0.895491
O O4 0.600878 0.841898 0.998127
O O5 0.107096 0.622004 0.807684
O O6 0.131000 0.530256 0.821593
O O7 0.000000 0.563803 0.776591
O O8 0.321494 0.250000 0.628565
O O9 0.229244 0.187227 0.558198
O O10 0.348668 0.155977 0.663634
O O11 0.342298 0.193233 0.436209
O O12 0.859639 0.750000 0.514752
O O13 0.821731 0.814230 0.679271
O O14 0.250000 0.107145 0.750000
O O15 0.342944 0.060036 0.635203
O O16 0.439156 0.708819 0.730181
O O17 0.250000 0.994632 0.250000
O O18 0.279026 0.000000 0.500000
#
# Coordination Sequence:
#
# PCOD9537759 Si02
#       8
#    16  16  16  16  16   4  16  16
#     4  10  23  41  64  96 127 176 223 272 345 408
#     4  10  23  42  69 100 135 172 222 282 340 402
#     4  11  22  38  61  92 125 174 222 272 336 401
#     4  10  20  34  61  91 129 165 217 276 326 400
#     4  11  24  44  64  89 132 169 220 278 337 398
#     4  12  20  36  58  92 138 180 206 262 336 412
#     4  11  21  36  61  93 133 171 213 267 335 401
#     4  11  27  45  73 103 135 177 227 278 343 400
#
# _framework density 20.515004999999999
#
# number of rings (size 3 to 8) (size 9 to 14) (size 15 to 20)
#    0.000    1.379    3.448    1.241    4.828    5.241 
#    1.241    1.379    0.000    0.000    0.000    0.000 
#    0.000    0.000    0.000    0.000    0.000    0.000 
#
# Total GULP energy -323340.711950 kJ/mol
# GULP energy per Si atom -5574.839861 kJ/mol
# Density = 2.046831 g / cm^3
# Si number density = 20.515005 Si / 1000 Ang^3
#
#
#
# Elastic Constant Matrix: (Units=GPa)
#
#
# Indices 1 2 3 4 5 6 
#
# 1 55.8966 20.0721 25.6645 0.0000 0.0000 0.0000
# 2 20.0721 127.8850 27.1376 0.0000 0.0000 0.0000
# 3 25.6645 27.1376 85.3215 0.0000 0.0000 0.0001
# 4 0.0000 0.0000 0.0000 22.8144 0.0000 0.0000
# 5 0.0000 0.0000 0.0000 0.0000 23.1573 0.0000
# 6 0.0000 0.0000 0.0001 0.0000 0.0000 46.9935
#
#
#
# Elastic Compliance Matrix: (Units=1/GPa)
#
#
# Indices 1 2 3 4 5 6 
#
# 1 0.021282 -0.002125 -0.005726 0.000000 0.000000 0.000000
# 2 -0.002125 0.008598 -0.002095 0.000000 0.000000 0.000000
# 3 -0.005726 -0.002095 0.014109 0.000000 0.000000 0.000000
# 4 0.000000 0.000000 0.000000 0.043832 0.000000 0.000000
# 5 0.000000 0.000000 0.000000 0.000000 0.043183 0.000000
# 6 0.000000 0.000000 0.000000 0.000000 0.000000 0.021280
#
#
# Mechanical properties :
#
#
# Convention : Reuss Voigt Hill
#
# Bulk Modulus (GPa) = 41.49990 46.09461 43.79725
# Shear Modulus (GPa) = 27.74563 31.67495 29.71029
#
# Velocity S-wave (km/s) = 3.68156 3.93363 3.80968
# Velocity P-wave (km/s) = 6.19232 6.56877 6.38332
#
# Compressibility (1/GPa) = 0.02409644
#
# Stress axis : x y z
#
# Youngs Moduli (GPa) = 46.98745 116.30963 70.87630
#
# Poissons Ratio (x) = 0.24720 0.40581
# Poissons Ratio (y) = 0.09986 0.14851
# Poissons Ratio (z) = 0.26903 0.24371
#
# Static dielectric constant tensor:
#      x y z
#    x 1.706380 0.000000 0.000000 
#    y 0.000000 1.757920 0.000000 
#    z 0.000000 0.000000 1.779640 
# 
# From -- ./inp_files/22856.got.cif
#   From: 2010.05.17/outbox.cif.g08.bks.cpg/sg74_12_cif.got.tgz:22856.got - 2010.06.03 17:57:02.
