data_PCOD9537692
_publ_section_title
;
Structure prediction by ZEFSAII (Michael W. Deem and Ramdas Pophale) SiO2 
 PCOD9537692
Probable space group: I M M A
;
_chemical_formula_sum "Si O2"
_cell_formula_units_Z 80
_cell_length_a 26.689423
_cell_length_b 16.052032
_cell_length_c 9.911701
_cell_angle_alpha 90.000000
_cell_angle_beta 90.000000
_cell_angle_gamma 90.000000
_cell_volume 4246.365710
_symmetry_space_group_name_H-M "I M M A"
_symmetry_group_IT_number 74
_symmetry_cell_setting 'orthorhombic'
loop_
_space_group_symop_operation_xyz
x,y,z
-x,1/2-y,z
x,-y,-z
-x,1/2+y,-z
-x,-y,-z
x,1/2+y,-z
-x,y,z
x,1/2-y,z
1/2+x,1/2+y,1/2+z
1/2-x,-y,1/2+z
1/2+x,1/2-y,1/2-z
1/2-x,y,1/2-z
1/2-x,1/2-y,1/2-z
1/2+x,y,1/2-z
1/2-x,1/2+y,1/2+z
1/2+x,-y,1/2+z
loop_
_atom_site_type_symbol
_atom_site_label
_atom_site_fract_x
_atom_site_fract_y
_atom_site_fract_z
Si Si1 0.861415 0.151452 0.143918
Si Si2 0.944228 0.349500 0.623092
Si Si3 0.443358 0.351578 0.570928
Si Si4 0.756165 0.581769 0.908800
Si Si5 0.646536 0.407290 0.058676
O O1 0.868692 0.250000 0.171877
O O2 0.805723 0.137342 0.086033
O O3 0.866049 0.101720 0.283676
O O4 0.902051 0.121647 0.035673
O O5 0.947866 0.250000 0.631558
O O6 0.933958 0.380135 0.775628
O O7 0.898498 0.367817 0.525037
O O8 0.000000 0.380343 0.581112
O O9 0.500000 0.375737 0.533120
O O10 0.441820 0.250000 0.572093
O O11 0.750000 0.558247 0.750000
O O12 0.703920 0.625638 0.951902
O O13 0.763295 0.500000 0.000000
O O14 0.650005 0.500000 0.000000
#
# Coordination Sequence:
#
# PCOD9537692 Si02
#       5
#    16  16  16  16  16
#     4  10  20  34  56  82 105 136 179 223 263 308
#     4   9  18  34  55  76 102 138 176 217 265 313
#     4   8  16  32  52  75 102 130 165 211 260 307
#     4   9  20  36  53  74 105 142 174 213 267 317
#     4  10  21  35  51  75 106 140 174 212 265 320
#
# _framework density 18.839638999999998
#
# number of rings (size 3 to 8) (size 9 to 14) (size 15 to 20)
#    0.000    2.800    0.000    1.800    0.000   10.400 
#    0.000    2.000    0.000    7.200    0.000    0.000 
#    0.000    0.000    0.000    0.000    0.000    0.000 
#
# Total GULP energy -222793.546984 kJ/mol
# GULP energy per Si atom -5569.838675 kJ/mol
# Density = 1.879676 g / cm^3
# Si number density = 18.839639 Si / 1000 Ang^3
#
#
#
# Elastic Constant Matrix: (Units=GPa)
#
#
# Indices 1 2 3 4 5 6 
#
# 1 179.5061 19.1507 112.0983 0.0000 0.0000 0.0000
# 2 19.1507 16.3323 16.4126 0.0000 0.0000 0.0000
# 3 112.0983 16.4126 94.3086 0.0000 0.0000 0.0000
# 4 0.0000 0.0000 0.0000 27.7604 0.0000 0.0000
# 5 0.0000 0.0000 0.0000 0.0000 33.6147 0.0000
# 6 0.0000 0.0000 0.0000 0.0000 0.0000 63.4053
#
#
#
# Elastic Compliance Matrix: (Units=1/GPa)
#
#
# Indices 1 2 3 4 5 6 
#
# 1 0.021620 0.000574 -0.025799 0.000000 0.000000 0.000000
# 2 0.000574 0.074221 -0.013599 0.000000 0.000000 0.000000
# 3 -0.025799 -0.013599 0.043635 0.000000 0.000000 0.000000
# 4 0.000000 0.000000 0.000000 0.036023 0.000000 0.000000
# 5 0.000000 0.000000 0.000000 0.000000 0.029749 0.000000
# 6 0.000000 0.000000 0.000000 0.000000 0.000000 0.015772
#
#
# Mechanical properties :
#
#
# Convention : Reuss Voigt Hill
#
# Bulk Modulus (GPa) = 16.17350 65.05226 40.61288
# Shear Modulus (GPa) = 15.66039 34.45510 25.05774
#
# Velocity S-wave (km/s) = 2.88626 4.28116 3.65095
# Velocity P-wave (km/s) = 4.43969 7.68389 6.27507
#
# Compressibility (1/GPa) = 0.06182953
#
# Stress axis : x y z
#
# Youngs Moduli (GPa) = 46.25285 13.47321 22.91732
#
# Poissons Ratio (x) = -0.00774 0.59123
# Poissons Ratio (y) = -0.02656 0.31166
# Poissons Ratio (z) = 1.19325 0.18323
#
# Static dielectric constant tensor:
#      x y z
#    x 1.688300 0.000000 0.000000 
#    y 0.000000 1.671890 0.000000 
#    z 0.000000 0.000000 1.637850 
# 
# From -- ./inp_files/10957.got.cif
#   From: 2010.05.17/outbox.cif.g08.bks.cpg/sg74_6_cif.got.tgz:10957.got - 2010.06.03 17:57:02.
