data_PCOD9537898
_publ_section_title
;
Structure prediction by ZEFSAII (Michael W. Deem and Ramdas Pophale) SiO2 
 PCOD9537898
Probable space group: I M M A
;
_chemical_formula_sum "Si O2"
_cell_formula_units_Z 80
_cell_length_a 26.043281
_cell_length_b 8.864664
_cell_length_c 19.955999
_cell_angle_alpha 90.000000
_cell_angle_beta 90.000000
_cell_angle_gamma 90.000000
_cell_volume 4607.140422
_symmetry_space_group_name_H-M "I M M A"
_symmetry_group_IT_number 74
_symmetry_cell_setting 'orthorhombic'
loop_
_space_group_symop_operation_xyz
x,y,z
-x,1/2-y,z
x,-y,-z
-x,1/2+y,-z
-x,-y,-z
x,1/2+y,-z
-x,y,z
x,1/2-y,z
1/2+x,1/2+y,1/2+z
1/2-x,-y,1/2+z
1/2+x,1/2-y,1/2-z
1/2-x,y,1/2-z
1/2-x,1/2-y,1/2-z
1/2+x,y,1/2-z
1/2-x,1/2+y,1/2+z
1/2+x,-y,1/2+z
loop_
_atom_site_type_symbol
_atom_site_label
_atom_site_fract_x
_atom_site_fract_y
_atom_site_fract_z
Si Si1 0.559941 0.569764 0.426801
Si Si2 0.746128 0.923255 0.331247
Si Si3 0.640212 0.568265 0.175655
Si Si4 0.140442 0.070733 0.175915
Si Si5 0.560204 0.570143 0.927038
O O1 0.569975 0.500000 0.500000
O O2 0.500000 0.538970 0.410458
O O3 0.566882 0.750000 0.428951
O O4 0.597676 0.497711 0.372722
O O5 0.736935 0.750000 0.352223
O O6 0.750000 0.923072 0.250000
O O7 0.803023 0.972862 0.352683
O O8 0.697341 0.023362 0.349261
O O9 0.638878 0.750000 0.180685
O O10 0.634691 0.499194 0.249783
O O11 0.596362 0.506382 0.127600
O O12 0.136167 0.250000 0.179327
O O13 0.500000 0.542671 0.911877
O O14 0.568402 0.750000 0.928521
O O15 0.570639 0.500000 0.000000
#
# Coordination Sequence:
#
# PCOD9537898 Si02
#       5
#    16  16  16  16  16
#     4  10  21  38  58  78 104 139 176 216 264 315
#     4   8  16  32  52  75 105 139 174 213 260 311
#     4  10  20  35  56  80 107 140 177 219 263 308
#     4  11  21  33  54  82 110 140 175 216 260 310
#     4  10  21  37  56  78 106 140 176 216 264 317
#
# _framework density 17.364349000000001
#
# number of rings (size 3 to 8) (size 9 to 14) (size 15 to 20)
#    0.000    2.200    0.000    4.800    0.000    7.600 
#    0.000    1.000    0.000    4.800    0.000    0.000 
#    0.000    0.000    0.000    0.000    0.000    0.000 
#
# Total GULP energy -223204.774524 kJ/mol
# GULP energy per Si atom -5580.119363 kJ/mol
# Density = 1.732483 g / cm^3
# Si number density = 17.364349 Si / 1000 Ang^3
#
#
#
# Elastic Constant Matrix: (Units=GPa)
#
#
# Indices 1 2 3 4 5 6 
#
# 1 144.6065 92.6150 96.1071 0.0000 0.0000 0.0000
# 2 92.6150 116.1820 66.1642 0.0000 0.0000 0.0000
# 3 96.1071 66.1642 88.7355 0.0000 0.0000 0.0000
# 4 0.0000 0.0000 0.0000 31.0613 0.0000 0.0000
# 5 0.0000 0.0000 0.0000 0.0000 -62.0179 0.0000
# 6 0.0000 0.0000 0.0000 0.0000 0.0000 28.7204
#
#
#
# Elastic Compliance Matrix: (Units=1/GPa)
#
#
# Indices 1 2 3 4 5 6 
#
# 1 0.029458 -0.009234 -0.025020 0.000000 0.000000 0.000000
# 2 -0.009234 0.017854 -0.003311 0.000000 0.000000 0.000000
# 3 -0.025020 -0.003311 0.040837 0.000000 0.000000 0.000000
# 4 0.000000 0.000000 0.000000 0.032194 0.000000 0.000000
# 5 0.000000 0.000000 0.000000 0.000000 -0.016124 0.000000
# 6 0.000000 0.000000 0.000000 0.000000 0.000000 0.034818
#
#
# Mechanical properties :
#
#
# Convention : Reuss Voigt Hill
#
# Bulk Modulus (GPa) = 76.81568 95.47739 86.14654
# Shear Modulus (GPa) = 22.88262 5.86195 14.37228
#
# Velocity S-wave (km/s) = 3.63408 1.83934 2.88008
# Velocity P-wave (km/s) = 7.87035 7.72107 7.79607
#
# Compressibility (1/GPa) = 0.01301817
#
# Stress axis : x y z
#
# Youngs Moduli (GPa) = 33.94702 56.01038 24.48767
#
# Poissons Ratio (x) = 0.51719 0.61268
# Poissons Ratio (y) = 0.31346 0.08109
# Poissons Ratio (z) = 0.84935 0.18548
#
# Static dielectric constant tensor:
#      x y z
#    x 1.603380 0.000000 0.000000 
#    y 0.000000 1.575050 0.000000 
#    z 0.000000 0.000000 1.552140 
# 
# From -- ./inp_files/46484.got.cif
#   From: 2010.05.17/outbox.cif.g08.bks.cpg/sg74_24_cif.got.tgz:46484.got - 2010.06.03 17:57:02.
