data_PCOD9537373
_publ_section_title
;
Structure prediction by ZEFSAII (Michael W. Deem and Ramdas Pophale) SiO2 
 PCOD9537373
Probable space group: I M M A
;
_chemical_formula_sum "Si O2"
_cell_formula_units_Z 112
_cell_length_a 16.127608
_cell_length_b 28.274952
_cell_length_c 11.902199
_cell_angle_alpha 90.000000
_cell_angle_beta 90.000000
_cell_angle_gamma 90.000000
_cell_volume 5427.490131
_symmetry_space_group_name_H-M "I M M A"
_symmetry_group_IT_number 74
_symmetry_cell_setting 'orthorhombic'
loop_
_space_group_symop_operation_xyz
x,y,z
-x,1/2-y,z
x,-y,-z
-x,1/2+y,-z
-x,-y,-z
x,1/2+y,-z
-x,y,z
x,1/2-y,z
1/2+x,1/2+y,1/2+z
1/2-x,-y,1/2+z
1/2+x,1/2-y,1/2-z
1/2-x,y,1/2-z
1/2-x,1/2-y,1/2-z
1/2+x,y,1/2-z
1/2-x,1/2+y,1/2+z
1/2+x,-y,1/2+z
loop_
_atom_site_type_symbol
_atom_site_label
_atom_site_fract_x
_atom_site_fract_y
_atom_site_fract_z
Si Si1 0.404414 0.700159 0.603940
Si Si2 0.834008 0.306316 0.467703
Si Si3 0.338234 0.473314 0.313295
Si Si4 0.599365 0.375632 0.223088
Si Si5 0.087592 0.305763 0.697977
Si Si6 0.899854 0.559310 0.057416
Si Si7 0.832066 0.162878 0.902181
O O1 0.500000 0.702703 0.637119
O O2 0.364056 0.750000 0.638474
O O3 0.373682 0.652998 0.664387
O O4 0.398463 0.693994 0.471447
O O5 0.831212 0.250000 0.435639
O O6 0.856353 0.343808 0.371574
O O7 0.901326 0.311673 0.565863
O O8 0.750037 0.322002 0.531041
O O9 0.250000 0.481518 0.250000
O O10 0.377150 0.430462 0.239784
O O11 0.383390 0.523482 0.338033
O O12 0.349358 0.454659 0.443017
O O13 0.500000 0.373582 0.207751
O O14 0.087124 0.250000 0.717509
O O15 0.161224 0.325415 0.772224
O O16 0.000000 0.327373 0.734093
O O17 0.862021 0.609586 0.086762
O O18 0.000000 0.560201 0.033190
#
# Coordination Sequence:
#
# PCOD9537373 Si02
#       7
#    16  16  16  16  16  16  16
#     4  10  20  33  54  87 124 162 207 258 312 373
#     4  11  24  39  59  91 134 179 219 264 327 402
#     4  11  23  41  65  98 127 161 214 278 340 395
#     4  11  22  39  62  89 127 174 220 263 318 395
#     4  10  21  38  59  83 118 167 221 269 320 389
#     4  11  23  43  70  96 129 172 220 272 341 416
#     4  12  22  37  61  92 125 162 216 277 330 383
#
# _framework density 20.635688999999999
#
# number of rings (size 3 to 8) (size 9 to 14) (size 15 to 20)
#    0.000    1.143    1.429    6.429    0.000    4.857 
#    0.000    1.429    0.000    0.000    0.000   18.000 
#    0.000    0.000    0.000    0.000    0.000    0.000 
#
# Total GULP energy -311792.591260 kJ/mol
# GULP energy per Si atom -5567.724844 kJ/mol
# Density = 2.058872 g / cm^3
# Si number density = 20.635689 Si / 1000 Ang^3
#
#
#
# Elastic Constant Matrix: (Units=GPa)
#
#
# Indices 1 2 3 4 5 6 
#
# 1 100.8671 32.4371 32.0565 0.0000 0.0000 0.0000
# 2 32.4371 131.9115 41.3117 -0.0001 0.0000 0.0000
# 3 32.0565 41.3117 86.8201 0.0004 0.0001 -0.0001
# 4 0.0000 -0.0001 0.0004 42.4847 0.0000 0.0000
# 5 0.0000 0.0000 0.0001 0.0000 30.0308 0.0000
# 6 0.0000 0.0000 -0.0001 0.0000 0.0000 23.0133
#
#
#
# Elastic Compliance Matrix: (Units=1/GPa)
#
#
# Indices 1 2 3 4 5 6 
#
# 1 0.011574 -0.001772 -0.003430 0.000000 0.000000 0.000000
# 2 -0.001772 0.009180 -0.003714 0.000000 0.000000 0.000000
# 3 -0.003430 -0.003714 0.014552 0.000000 0.000000 0.000000
# 4 0.000000 0.000000 0.000000 0.023538 0.000000 0.000000
# 5 0.000000 0.000000 0.000000 0.000000 0.033299 0.000000
# 6 0.000000 0.000000 0.000000 0.000000 0.000000 0.043453
#
#
# Mechanical properties :
#
#
# Convention : Reuss Voigt Hill
#
# Bulk Modulus (GPa) = 57.22922 59.02325 58.12623
# Shear Modulus (GPa) = 31.39679 33.35865 32.37772
#
# Velocity S-wave (km/s) = 3.90485 4.02500 3.96538
# Velocity P-wave (km/s) = 6.93713 7.08981 7.01389
#
# Compressibility (1/GPa) = 0.01747359
#
# Stress axis : x y z
#
# Youngs Moduli (GPa) = 86.40053 108.93755 68.72001
#
# Poissons Ratio (x) = 0.19301 0.23574
# Poissons Ratio (y) = 0.15308 0.25521
# Poissons Ratio (z) = 0.29639 0.40457
#
# Static dielectric constant tensor:
#      x y z
#    x 1.837180 0.000000 0.000000 
#    y 0.000000 1.870550 0.000000 
#    z 0.000000 0.000000 1.745650 
# 
# From -- ./inp_files/21177.got.cif
#   From: 2010.05.17/outbox.cif.g08.bks.cpg/sg74_11_cif.got.tgz:21177.got - 2010.06.03 17:57:02.
