data_PCOD9537547
_publ_section_title
;
Structure prediction by ZEFSAII (Michael W. Deem and Ramdas Pophale) SiO2 
 PCOD9537547
Probable space group: I M M A
;
_chemical_formula_sum "Si O2"
_cell_formula_units_Z 112
_cell_length_a 14.259358
_cell_length_b 27.242792
_cell_length_c 14.216477
_cell_angle_alpha 90.000000
_cell_angle_beta 90.000000
_cell_angle_gamma 90.000000
_cell_volume 5522.599815
_symmetry_space_group_name_H-M "I M M A"
_symmetry_group_IT_number 74
_symmetry_cell_setting 'orthorhombic'
loop_
_space_group_symop_operation_xyz
x,y,z
-x,1/2-y,z
x,-y,-z
-x,1/2+y,-z
-x,-y,-z
x,1/2+y,-z
-x,y,z
x,1/2-y,z
1/2+x,1/2+y,1/2+z
1/2-x,-y,1/2+z
1/2+x,1/2-y,1/2-z
1/2-x,y,1/2-z
1/2-x,1/2-y,1/2-z
1/2+x,y,1/2-z
1/2-x,1/2+y,1/2+z
1/2+x,-y,1/2+z
loop_
_atom_site_type_symbol
_atom_site_label
_atom_site_fract_x
_atom_site_fract_y
_atom_site_fract_z
Si Si1 0.107938 0.885925 0.785005
Si Si2 0.890045 0.195692 0.766000
Si Si3 0.699939 0.867166 0.415659
Si Si4 0.395380 0.695897 0.555035
Si Si5 0.388818 0.304957 0.147825
Si Si6 0.605059 0.842517 0.061620
Si Si7 0.112906 0.448731 0.045275
O O1 0.105403 0.842640 0.861865
O O2 0.150661 0.854914 0.697230
O O3 0.147503 0.930624 0.850349
O O4 0.000000 0.899736 0.758922
O O5 0.856783 0.250000 0.794920
O O6 0.835968 0.151010 0.815196
O O7 0.884762 0.191265 0.653536
O O8 0.000000 0.191750 0.790486
O O9 0.680242 0.818878 0.478878
O O10 0.808775 0.879715 0.426131
O O11 0.639261 0.908142 0.467529
O O12 0.500000 0.693843 0.511978
O O13 0.380640 0.750000 0.592495
O O14 0.500000 0.303884 0.174122
O O15 0.351095 0.250000 0.169962
O O16 0.385436 0.313962 0.036313
O O17 0.500000 0.863980 0.063544
O O18 0.000000 0.450291 0.053904
O O19 0.145312 0.500000 0.000000
#
# Coordination Sequence:
#
# PCOD9537547 Si02
#       7
#    16  16  16  16  16  16  16
#     4   8  14  26  47  74 102 135 172 209 255 309
#     4  10  20  34  53  79 110 141 175 218 269 325
#     4  11  20  32  53  77 103 136 174 214 267 327
#     4   9  16  26  42  69 103 132 161 204 257 311
#     4   9  16  28  47  70 102 148 191 218 246 293
#     4  10  22  36  49  69 103 146 187 223 256 300
#     4   9  18  34  57  85 111 131 162 218 282 334
#
# _framework density 20.280304999999998
#
# number of rings (size 3 to 8) (size 9 to 14) (size 15 to 20)
#    0.000    2.571    0.000    3.857    0.000    7.429 
#    0.000    2.857    0.000    8.143    0.000    4.000 
#    0.000    0.000    0.000    0.000    0.000    0.143 
#
# Total GULP energy -311805.086017 kJ/mol
# GULP energy per Si atom -5567.947965 kJ/mol
# Density = 2.023415 g / cm^3
# Si number density = 20.280305 Si / 1000 Ang^3
#
#
#
# Elastic Constant Matrix: (Units=GPa)
#
#
# Indices 1 2 3 4 5 6 
#
# 1 60.5781 4.3793 15.3243 0.0000 0.0000 0.0000
# 2 4.3793 72.8354 29.1839 0.0007 0.0000 0.0000
# 3 15.3243 29.1839 109.7494 0.0003 0.0001 0.0000
# 4 0.0000 0.0007 0.0003 10.9452 0.0000 0.0000
# 5 0.0000 0.0000 0.0001 0.0000 12.9316 0.0000
# 6 0.0000 0.0000 0.0000 0.0000 0.0000 1.2104
#
#
#
# Elastic Compliance Matrix: (Units=1/GPa)
#
#
# Indices 1 2 3 4 5 6 
#
# 1 0.017112 -0.000080 -0.002368 0.000000 0.000000 0.000000
# 2 -0.000080 0.015367 -0.004075 -0.000001 0.000000 0.000000
# 3 -0.002368 -0.004075 0.010526 0.000000 0.000000 0.000000
# 4 0.000000 -0.000001 0.000000 0.091364 0.000000 0.000001
# 5 0.000000 0.000000 0.000000 0.000000 0.077330 0.000000
# 6 0.000000 0.000000 0.000000 0.000001 0.000000 0.826175
#
#
# Mechanical properties :
#
#
# Convention : Reuss Voigt Hill
#
# Bulk Modulus (GPa) = 33.37898 37.88199 35.63049
# Shear Modulus (GPa) = 4.71295 17.96914 11.34105
#
# Velocity S-wave (km/s) = 1.52609 2.97987 2.36734
# Velocity P-wave (km/s) = 4.42717 5.52804 5.00795
#
# Compressibility (1/GPa) = 0.02995897
#
# Stress axis : x y z
#
# Youngs Moduli (GPa) = 58.43699 65.07339 95.00309
#
# Poissons Ratio (x) = 0.00521 0.22498
# Poissons Ratio (y) = 0.00468 0.38716
# Poissons Ratio (z) = 0.13839 0.26519
#
# Static dielectric constant tensor:
#      x y z
#    x 1.799990 0.000000 0.000000 
#    y 0.000000 1.724880 0.000000 
#    z 0.000000 0.000000 1.788420 
# 
# From -- ./inp_files/32981.got.cif
#   From: 2010.05.17/outbox.cif.g08.bks.cpg/sg74_17_cif.got.tgz:32981.got - 2010.06.03 17:57:02.
