data_PCOD9537870
_publ_section_title
;
Structure prediction by ZEFSAII (Michael W. Deem and Ramdas Pophale) SiO2 
 PCOD9537870
Probable space group: I M M A
;
_chemical_formula_sum "Si O2"
_cell_formula_units_Z 80
_cell_length_a 17.648153
_cell_length_b 11.315071
_cell_length_c 21.473362
_cell_angle_alpha 90.000000
_cell_angle_beta 90.000000
_cell_angle_gamma 90.000000
_cell_volume 4288.017896
_symmetry_space_group_name_H-M "I M M A"
_symmetry_group_IT_number 74
_symmetry_cell_setting 'orthorhombic'
loop_
_space_group_symop_operation_xyz
x,y,z
-x,1/2-y,z
x,-y,-z
-x,1/2+y,-z
-x,-y,-z
x,1/2+y,-z
-x,y,z
x,1/2-y,z
1/2+x,1/2+y,1/2+z
1/2-x,-y,1/2+z
1/2+x,1/2-y,1/2-z
1/2-x,y,1/2-z
1/2-x,1/2-y,1/2-z
1/2+x,y,1/2-z
1/2-x,1/2+y,1/2+z
1/2+x,-y,1/2+z
loop_
_atom_site_type_symbol
_atom_site_label
_atom_site_fract_x
_atom_site_fract_y
_atom_site_fract_z
Si Si1 0.585441 0.030909 0.170613
Si Si2 0.373657 0.119007 0.040250
Si Si3 0.732577 0.389238 0.822765
Si Si4 0.411472 0.750000 0.754520
Si Si5 0.796281 0.448052 0.068174
Si Si6 0.087975 0.750000 0.893412
O O1 0.500000 0.995748 0.188764
O O2 0.583650 0.097325 0.104673
O O3 0.619659 0.128796 0.217608
O O4 0.644954 0.925082 0.166175
O O5 0.391583 0.250000 0.013740
O O6 0.284589 0.116527 0.058094
O O7 0.387404 0.000000 0.000000
O O8 0.744444 0.250000 0.832041
O O9 0.750000 0.416503 0.750000
O O10 0.780393 0.461177 0.874756
O O11 0.500000 0.750000 0.774408
O O12 0.408826 0.750000 0.681165
O O13 0.864830 0.362746 0.084614
O O14 0.812396 0.500000 0.000000
O O15 0.000000 0.750000 0.912759
#
# Coordination Sequence:
#
# PCOD9537870 Si02
#       6
#    16  16  16   8  16   8
#     4  10  20  35  57  84 117 153 193 250 302 339
#     4  10  20  35  55  82 116 160 207 240 293 360
#     4  10  22  39  60  87 118 158 205 243 288 363
#     4   9  18  33  55  81 113 144 185 239 298 350
#     4  10  22  37  61  84 117 155 195 242 298 356
#     4  11  22  37  61  91 113 146 195 249 306 354
#
# _framework density 18.656638999999998
#
# number of rings (size 3 to 8) (size 9 to 14) (size 15 to 20)
#    0.000    2.000    2.000    1.200    1.400    6.000 
#    0.000    3.000    0.000    1.200    0.000    0.000 
#    0.000    0.000    0.000    0.000    0.000    0.000 
#
# Total GULP energy -222938.707200 kJ/mol
# GULP energy per Si atom -5573.467680 kJ/mol
# Density = 1.861418 g / cm^3
# Si number density = 18.656639 Si / 1000 Ang^3
#
#
#
# Elastic Constant Matrix: (Units=GPa)
#
#
# Indices 1 2 3 4 5 6 
#
# 1 94.3923 44.3934 39.6861 0.0000 0.0000 0.0000
# 2 44.3934 130.9227 69.3660 0.0000 0.0000 0.0000
# 3 39.6861 69.3660 111.4175 0.0000 0.0000 0.0000
# 4 0.0000 0.0000 0.0000 -5.5094 0.0000 0.0000
# 5 0.0000 0.0000 0.0000 0.0000 25.1898 0.0000
# 6 0.0000 0.0000 0.0000 0.0000 0.0000 11.1536
#
#
#
# Elastic Compliance Matrix: (Units=1/GPa)
#
#
# Indices 1 2 3 4 5 6 
#
# 1 0.013186 -0.002959 -0.002855 0.000000 0.000000 0.000000
# 2 -0.002959 0.012062 -0.006455 0.000000 0.000000 0.000000
# 3 -0.002855 -0.006455 0.014011 0.000000 0.000000 0.000000
# 4 0.000000 0.000000 0.000000 -0.181507 0.000000 0.000000
# 5 0.000000 0.000000 0.000000 0.000000 0.039699 0.000000
# 6 0.000000 0.000000 0.000000 0.000000 0.000000 0.089657
#
#
# Mechanical properties :
#
#
# Convention : Reuss Voigt Hill
#
# Bulk Modulus (GPa) = 67.93038 71.51372 69.72205
# Shear Modulus (GPa) = 302.08356 18.38593 160.23474
#
# Velocity S-wave (km/s) = 12.73848 3.14266 9.27753
# Velocity P-wave (km/s) = 15.90121 7.18214 12.33758
#
# Compressibility (1/GPa) = 0.01472095
#
# Stress axis : x y z
#
# Youngs Moduli (GPa) = 75.83952 82.90837 71.37201
#
# Poissons Ratio (x) = 0.24529 0.20375
# Poissons Ratio (y) = 0.22437 0.46074
# Poissons Ratio (z) = 0.21650 0.53521
#
# Static dielectric constant tensor:
#      x y z
#    x 1.662130 0.000000 0.000000 
#    y 0.000000 1.196700 0.000000 
#    z 0.000000 0.000000 1.654450 
# 
# From -- ./inp_files/52794.got.cif
#   From: 2010.05.17/outbox.cif.g08.bks.cpg/sg74_27_cif.got.tgz:52794.got - 2010.06.03 17:57:02.
