data_PCOD9537308
_publ_section_title
;
Structure prediction by ZEFSAII (Michael W. Deem and Ramdas Pophale) SiO2 
 PCOD9537308
Probable space group: I M M A
;
_chemical_formula_sum "Si O2"
_cell_formula_units_Z 80
_cell_length_a 7.757207
_cell_length_b 26.871089
_cell_length_c 18.475040
_cell_angle_alpha 90.000000
_cell_angle_beta 90.000000
_cell_angle_gamma 90.000000
_cell_volume 3851.022317
_symmetry_space_group_name_H-M "I M M A"
_symmetry_group_IT_number 74
_symmetry_cell_setting 'orthorhombic'
loop_
_space_group_symop_operation_xyz
x,y,z
-x,1/2-y,z
x,-y,-z
-x,1/2+y,-z
-x,-y,-z
x,1/2+y,-z
-x,y,z
x,1/2-y,z
1/2+x,1/2+y,1/2+z
1/2-x,-y,1/2+z
1/2+x,1/2-y,1/2-z
1/2-x,y,1/2-z
1/2-x,1/2-y,1/2-z
1/2+x,y,1/2-z
1/2-x,1/2+y,1/2+z
1/2+x,-y,1/2+z
loop_
_atom_site_type_symbol
_atom_site_label
_atom_site_fract_x
_atom_site_fract_y
_atom_site_fract_z
Si Si1 0.789843 0.443332 0.416171
Si Si2 0.789671 0.554358 0.415688
Si Si3 0.707770 0.151658 0.833951
Si Si4 0.294105 0.845389 0.834196
Si Si5 0.804412 0.750000 0.928125
Si Si6 0.699086 0.250000 0.911120
O O1 0.732995 0.498792 0.393728
O O2 0.741485 0.436737 0.500428
O O3 0.728783 0.397484 0.367687
O O4 0.000000 0.443152 0.413872
O O5 0.727216 0.599475 0.366404
O O6 0.000000 0.553771 0.414124
O O7 0.500000 0.150061 0.841952
O O8 0.750000 0.157040 0.750000
O O9 0.774917 0.199191 0.878705
O O10 0.500000 0.844979 0.841305
O O11 0.250000 0.840900 0.750000
O O12 0.228000 0.798586 0.879770
O O13 0.000000 0.750000 0.953007
O O14 0.699407 0.750000 0.002325
O O15 0.500000 0.250000 0.886670
#
# Coordination Sequence:
#
# PCOD9537308 Si02
#       6
#    16  16  16  16   8   8
#     4   8  15  29  52  77 103 137 180 223 263 309
#     4   8  14  28  50  77 104 137 181 224 263 309
#     4  10  20  33  52  78 111 145 180 220 265 314
#     4  11  22  37  56  80 110 143 177 218 265 316
#     4  12  25  40  59  82 105 134 173 220 269 322
#     4  10  21  38  58  80 105 140 182 222 263 314
#
# _framework density 20.773705
#
# number of rings (size 3 to 8) (size 9 to 14) (size 15 to 20)
#    0.000    2.400    0.000    4.500    0.000    4.800 
#    0.000    0.000    0.000    1.200    0.000    8.400 
#    0.000    0.000    0.000    0.000    0.000    0.000 
#
# Total GULP energy -223347.827086 kJ/mol
# GULP energy per Si atom -5583.695677 kJ/mol
# Density = 2.072642 g / cm^3
# Si number density = 20.773705 Si / 1000 Ang^3
#
#
#
# Elastic Constant Matrix: (Units=GPa)
#
#
# Indices 1 2 3 4 5 6 
#
# 1 33.6940 0.4933 -18.2817 0.0000 0.0000 0.0000
# 2 0.4933 205.0569 104.2503 0.0000 0.0000 0.0000
# 3 -18.2817 104.2503 117.7258 -0.0001 0.0000 0.0000
# 4 0.0000 0.0000 -0.0001 9.0827 0.0000 0.0000
# 5 0.0000 0.0000 0.0000 0.0000 15.3419 0.0000
# 6 0.0000 0.0000 0.0000 0.0000 0.0000 -12.4685
#
#
#
# Elastic Compliance Matrix: (Units=1/GPa)
#
#
# Indices 1 2 3 4 5 6 
#
# 1 0.035228 -0.005213 0.010087 0.000000 0.000000 0.000000
# 2 -0.005213 0.009641 -0.009347 0.000000 0.000000 0.000000
# 3 0.010087 -0.009347 0.018338 0.000000 0.000000 0.000000
# 4 0.000000 0.000000 0.000000 0.110100 0.000000 0.000000
# 5 0.000000 0.000000 0.000000 0.000000 0.065181 0.000000
# 6 0.000000 0.000000 0.000000 0.000000 0.000000 -0.080202
#
#
# Mechanical properties :
#
#
# Convention : Reuss Voigt Hill
#
# Bulk Modulus (GPa) = 18.42958 58.82227 38.62592
# Shear Modulus (GPa) = 26.98047 20.39221 23.68634
#
# Velocity S-wave (km/s) = 3.60777 3.13651 3.38036
# Velocity P-wave (km/s) = 5.12304 6.44159 5.81978
#
# Compressibility (1/GPa) = 0.05426061
#
# Stress axis : x y z
#
# Youngs Moduli (GPa) = 28.38652 103.72004 54.53166
#
# Poissons Ratio (x) = 0.54067 -0.55004
# Poissons Ratio (y) = 0.14797 0.50972
# Poissons Ratio (z) = -0.28632 0.96950
#
# Static dielectric constant tensor:
#      x y z
#    x 1.764330 0.000000 0.000000 
#    y 0.000000 1.754300 0.000000 
#    z 0.000000 0.000000 1.651320 
# 
# From -- ./inp_files/39819.got.cif
#   From: 2010.05.17/outbox.cif.g08.bks.cpg/sg74_20_cif.got.tgz:39819.got - 2010.06.03 17:57:02.
