data_PCOD9537451
_publ_section_title
;
Structure prediction by ZEFSAII (Michael W. Deem and Ramdas Pophale) SiO2 
 PCOD9537451
Probable space group: I M M A
;
_chemical_formula_sum "Si O2"
_cell_formula_units_Z 104
_cell_length_a 7.845160
_cell_length_b 22.395572
_cell_length_c 27.653382
_cell_angle_alpha 90.000000
_cell_angle_beta 90.000000
_cell_angle_gamma 90.000000
_cell_volume 4858.611988
_symmetry_space_group_name_H-M "I M M A"
_symmetry_group_IT_number 74
_symmetry_cell_setting 'orthorhombic'
loop_
_space_group_symop_operation_xyz
x,y,z
-x,1/2-y,z
x,-y,-z
-x,1/2+y,-z
-x,-y,-z
x,1/2+y,-z
-x,y,z
x,1/2-y,z
1/2+x,1/2+y,1/2+z
1/2-x,-y,1/2+z
1/2+x,1/2-y,1/2-z
1/2-x,y,1/2-z
1/2-x,1/2-y,1/2-z
1/2+x,y,1/2-z
1/2-x,1/2+y,1/2+z
1/2+x,-y,1/2+z
loop_
_atom_site_type_symbol
_atom_site_label
_atom_site_fract_x
_atom_site_fract_y
_atom_site_fract_z
Si Si1 0.705973 0.181088 0.980035
Si Si2 0.708983 0.429304 0.359365
Si Si3 0.294812 0.316930 0.304323
Si Si4 0.701899 0.541205 0.304132
Si Si5 0.705308 0.556845 0.531818
Si Si6 0.294856 0.250000 0.805443
Si Si7 0.795719 0.145424 0.627023
O O1 0.500000 0.183605 0.979543
O O2 0.763242 0.250000 0.991388
O O3 0.768119 0.162266 0.926163
O O4 0.753152 0.123671 0.012649
O O5 0.500000 0.429484 0.359943
O O6 0.766447 0.363793 0.343762
O O7 0.766213 0.475555 0.318204
O O8 0.765571 0.447713 0.412783
O O9 0.500000 0.314713 0.307334
O O10 0.227445 0.250000 0.311065
O O11 0.250000 0.336515 0.250000
O O12 0.500000 0.540221 0.304507
O O13 0.750000 0.560881 0.250000
O O14 0.756866 0.582557 0.348742
O O15 0.768429 0.500000 0.500000
O O16 0.500000 0.552586 0.531816
O O17 0.500000 0.250000 0.808554
O O18 0.250000 0.250000 0.750000
O O19 0.229677 0.307212 0.834006
O O20 0.000000 0.150925 0.624137
#
# Coordination Sequence:
#
# PCOD9537451 Si02
#       7
#    16  16  16  16  16   8  16
#     4  10  21  39  61  85 115 151 191 240 294 348
#     4   9  19  35  54  77 108 144 180 222 272 328
#     4   9  17  31  52  76 102 135 173 212 259 318
#     4  11  22  36  55  81 113 148 186 229 278 332
#     4  10  21  38  59  84 114 148 190 240 288 340
#     4  10  20  34  52  74 102 138 176 218 265 314
#     4  10  20  37  57  77 107 146 185 225 276 328
#
# _framework density 21.405290999999998
#
# number of rings (size 3 to 8) (size 9 to 14) (size 15 to 20)
#    0.000    2.154    0.769    2.308    0.000    4.923 
#    0.000    4.615    0.000    1.846    0.000    0.000 
#    0.000    0.000    0.000    0.000    0.000    0.000 
#
# Total GULP energy -290092.154578 kJ/mol
# GULP energy per Si atom -5578.695280 kJ/mol
# Density = 2.135657 g / cm^3
# Si number density = 21.405291 Si / 1000 Ang^3
#
#
#
# Elastic Constant Matrix: (Units=GPa)
#
#
# Indices 1 2 3 4 5 6 
#
# 1 22.2344 0.3933 -1.0076 0.0000 0.0000 0.0000
# 2 0.3933 116.1432 35.0068 0.0000 0.0000 0.0000
# 3 -1.0076 35.0068 57.6990 0.0000 0.0000 0.0000
# 4 0.0000 0.0000 0.0000 37.8774 0.0000 0.0000
# 5 0.0000 0.0000 0.0000 0.0000 19.7206 0.0000
# 6 0.0000 0.0000 0.0000 0.0000 0.0000 22.4979
#
#
#
# Elastic Compliance Matrix: (Units=1/GPa)
#
#
# Indices 1 2 3 4 5 6 
#
# 1 0.045033 -0.000477 0.001076 0.000000 0.000000 0.000000
# 2 -0.000477 0.010542 -0.006404 0.000000 0.000000 0.000000
# 3 0.001076 -0.006404 0.021236 0.000000 0.000000 0.000000
# 4 0.000000 0.000000 0.000000 0.026401 0.000000 0.000000
# 5 0.000000 0.000000 0.000000 0.000000 0.050709 0.000000
# 6 0.000000 0.000000 0.000000 0.000000 0.000000 0.044449
#
#
# Mechanical properties :
#
#
# Convention : Reuss Voigt Hill
#
# Bulk Modulus (GPa) = 15.33756 29.42908 22.38332
# Shear Modulus (GPa) = 21.57850 26.79812 24.18831
#
# Velocity S-wave (km/s) = 3.17849 3.54211 3.36522
# Velocity P-wave (km/s) = 4.54437 5.52332 5.05759
#
# Compressibility (1/GPa) = 0.06519942
#
# Stress axis : x y z
#
# Youngs Moduli (GPa) = 22.20617 94.85867 47.09057
#
# Poissons Ratio (x) = 0.04522 -0.05065
# Poissons Ratio (y) = 0.01059 0.30158
# Poissons Ratio (z) = -0.02389 0.60750
#
# Static dielectric constant tensor:
#      x y z
#    x 1.777780 0.000000 0.000000 
#    y 0.000000 1.848440 0.000000 
#    z 0.000000 0.000000 1.775660 
# 
# From -- ./inp_files/64420.got.cif
#   From: 2010.05.17/outbox.cif.g08.bks.cpg/sg74_33_cif.got.tgz:64420.got - 2010.06.03 17:57:02.
