data_PCOD9537164
_publ_section_title
;
Structure prediction by ZEFSAII (Michael W. Deem and Ramdas Pophale) SiO2 
 PCOD9537164
Probable space group: I M M A
;
_chemical_formula_sum "Si O2"
_cell_formula_units_Z 84
_cell_length_a 12.666079
_cell_length_b 17.159806
_cell_length_c 21.052196
_cell_angle_alpha 90.000000
_cell_angle_beta 90.000000
_cell_angle_gamma 90.000000
_cell_volume 4575.641295
_symmetry_space_group_name_H-M "I M M A"
_symmetry_group_IT_number 74
_symmetry_cell_setting 'orthorhombic'
loop_
_space_group_symop_operation_xyz
x,y,z
-x,1/2-y,z
x,-y,-z
-x,1/2+y,-z
-x,-y,-z
x,1/2+y,-z
-x,y,z
x,1/2-y,z
1/2+x,1/2+y,1/2+z
1/2-x,-y,1/2+z
1/2+x,1/2-y,1/2-z
1/2-x,y,1/2-z
1/2-x,1/2-y,1/2-z
1/2+x,y,1/2-z
1/2-x,1/2+y,1/2+z
1/2+x,-y,1/2+z
loop_
_atom_site_type_symbol
_atom_site_label
_atom_site_fract_x
_atom_site_fract_y
_atom_site_fract_z
Si Si1 0.877103 0.420169 0.413324
Si Si2 0.167040 0.750000 0.565494
Si Si3 0.381440 0.750000 0.494749
Si Si4 0.500000 0.750000 0.048297
Si Si5 0.698028 0.052536 0.814789
Si Si6 0.000000 0.338520 0.675178
Si Si7 0.218506 0.500000 0.000000
Si Si8 0.118538 0.395994 0.900527
O O1 0.862936 0.329080 0.398094
O O2 0.841334 0.481603 0.359514
O O3 0.799036 0.435593 0.472711
O O4 0.000000 0.434241 0.428876
O O5 0.289508 0.750000 0.546202
O O6 0.099509 0.750000 0.499248
O O7 0.500000 0.750000 0.522359
O O8 0.372012 0.676113 0.448358
O O9 0.500000 0.822495 0.098044
O O10 0.750000 0.022770 0.750000
O O11 0.601169 0.111457 0.805764
O O12 0.789933 0.101838 0.849171
O O13 0.000000 0.250000 0.701507
O O14 0.144372 0.529512 0.055929
O O15 0.000000 0.397810 0.874342
#
# Coordination Sequence:
#
# PCOD9537164 Si02
#       8
#    16   8   8   4  16   8   8  16
#     4  11  22  36  60  92 121 162 201 258 315 382
#     4  12  20  36  61  94 131 156 201 241 331 372
#     4  10  20  36  54  81 125 160 188 243 290 378
#     4  10  22  32  62 100 128 162 176 262 308 384
#     4  11  25  43  62  84 121 165 216 266 302 358
#     4  10  24  41  64  92 127 159 207 256 312 379
#     4  10  20  32  56  86 122 157 189 250 310 384
#     4  10  21  36  56  84 118 160 202 239 305 369
#
# _framework density 18.358083000000001
#
# number of rings (size 3 to 8) (size 9 to 14) (size 15 to 20)
#    0.286    1.143    3.810    1.714    5.333    0.381 
#    0.000    0.476    0.000    0.000    0.000    0.000 
#    0.000    0.000    0.000    0.000    0.000    0.000 
#
# Total GULP energy -234272.286937 kJ/mol
# GULP energy per Si atom -5577.911594 kJ/mol
# Density = 1.831630 g / cm^3
# Si number density = 18.358083 Si / 1000 Ang^3
#
#
#
# Elastic Constant Matrix: (Units=GPa)
#
#
# Indices 1 2 3 4 5 6 
#
# 1 137.8309 29.6187 15.4389 0.0000 0.0000 0.0000
# 2 29.6187 86.7757 -4.0630 0.0000 0.0000 0.0000
# 3 15.4389 -4.0630 18.2602 0.0000 0.0000 0.0000
# 4 0.0000 0.0000 0.0000 -4.1850 0.0000 0.0000
# 5 0.0000 0.0000 0.0000 0.0000 17.0387 0.0000
# 6 0.0000 0.0000 0.0000 0.0000 0.0000 28.6615
#
#
#
# Elastic Compliance Matrix: (Units=1/GPa)
#
#
# Indices 1 2 3 4 5 6 
#
# 1 0.008924 -0.003435 -0.008310 0.000000 0.000000 0.000000
# 2 -0.003435 0.012968 0.005790 0.000000 0.000000 0.000000
# 3 -0.008310 0.005790 0.063078 0.000000 0.000000 0.000000
# 4 0.000000 0.000000 0.000000 -0.238951 0.000000 0.000000
# 5 0.000000 0.000000 0.000000 0.000000 0.058690 0.000000
# 6 0.000000 0.000000 0.000000 0.000000 0.000000 0.034890
#
#
# Mechanical properties :
#
#
# Convention : Reuss Voigt Hill
#
# Bulk Modulus (GPa) = 13.68743 36.09509 24.89126
# Shear Modulus (GPa) = -207.14877 21.76119 -92.69379
#
# Velocity S-wave (km/s) = -10.63404 3.44666 -7.11349
# Velocity P-wave (km/s) = 11.97101 5.96185 7.34035
#
# Compressibility (1/GPa) = 0.07305973
#
# Stress axis : x y z
#
# Youngs Moduli (GPa) = 112.05416 77.11553 15.85335
#
# Poissons Ratio (x) = 0.26490 0.13174
# Poissons Ratio (y) = 0.38492 -0.09179
# Poissons Ratio (z) = 0.93114 -0.44648
#
# Static dielectric constant tensor:
#      x y z
#    x 1.626190 0.000000 0.000000 
#    y 0.000000 1.688180 0.000000 
#    z 0.000000 0.000000 1.626620 
# 
# From -- ./inp_files/50494.got.cif
#   From: 2010.05.17/outbox.cif.g08.bks.cpg/sg74_26_cif.got.tgz:50494.got - 2010.06.03 17:57:02.
