data_PCOD9537919
_publ_section_title
;
Structure prediction by ZEFSAII (Michael W. Deem and Ramdas Pophale) SiO2 
 PCOD9537919
Probable space group: I M M A
;
_chemical_formula_sum "Si O2"
_cell_formula_units_Z 112
_cell_length_a 16.028093
_cell_length_b 14.261253
_cell_length_c 23.708745
_cell_angle_alpha 90.000000
_cell_angle_beta 90.000000
_cell_angle_gamma 90.000000
_cell_volume 5419.361276
_symmetry_space_group_name_H-M "I M M A"
_symmetry_group_IT_number 74
_symmetry_cell_setting 'orthorhombic'
loop_
_space_group_symop_operation_xyz
x,y,z
-x,1/2-y,z
x,-y,-z
-x,1/2+y,-z
-x,-y,-z
x,1/2+y,-z
-x,y,z
x,1/2-y,z
1/2+x,1/2+y,1/2+z
1/2-x,-y,1/2+z
1/2+x,1/2-y,1/2-z
1/2-x,y,1/2-z
1/2-x,1/2-y,1/2-z
1/2+x,y,1/2-z
1/2-x,1/2+y,1/2+z
1/2+x,-y,1/2+z
loop_
_atom_site_type_symbol
_atom_site_label
_atom_site_fract_x
_atom_site_fract_y
_atom_site_fract_z
Si Si1 0.905033 0.933603 0.114208
Si Si2 0.783051 0.145530 0.313052
Si Si3 0.633244 0.148587 0.401937
Si Si4 0.152126 0.860652 0.235263
Si Si5 0.407559 0.520855 0.161872
Si Si6 0.277438 0.390772 0.516288
Si Si7 0.093112 0.403584 0.535851
O O1 0.874457 0.911422 0.177517
O O2 0.836246 0.889156 0.071705
O O3 0.000000 0.897825 0.105661
O O4 0.908168 0.046259 0.103916
O O5 0.821696 0.250000 0.314601
O O6 0.750000 0.129213 0.250000
O O7 0.706308 0.145273 0.355788
O O8 0.843187 0.062796 0.330949
O O9 0.590182 0.250000 0.393294
O O10 0.673537 0.151192 0.463844
O O11 0.135397 0.750000 0.229511
O O12 0.250000 0.872916 0.250000
O O13 0.104468 0.905678 0.287848
O O14 0.500000 0.480331 0.164584
O O15 0.398216 0.570298 0.101647
O O16 0.269236 0.500000 0.500000
O O17 0.181906 0.355849 0.521515
O O18 0.090559 0.500000 0.500000
O O19 0.000000 0.360203 0.527647
#
# Coordination Sequence:
#
# PCOD9537919 Si02
#       7
#    16  16  16  16  16  16  16
#     4  11  23  39  61  89 124 164 204 253 311 370
#     4  10  20  35  56  81 111 150 194 240 294 356
#     4  10  21  37  59  86 118 160 208 253 299 360
#     4  11  24  42  64  87 113 150 198 251 306 366
#     4  11  21  34  57  85 115 150 186 236 299 359
#     4   9  18  34  56  81 114 156 200 247 301 360
#     4   9  17  31  55  85 114 151 198 245 298 360
#
# _framework density 20.666642
#
# number of rings (size 3 to 8) (size 9 to 14) (size 15 to 20)
#    0.000    1.857    0.000    6.000    0.000    4.857 
#    0.000    0.714    0.000    7.286    0.000    4.000 
#    0.000    0.000    0.000    0.000    0.000    0.000 
#
# Total GULP energy -312484.439519 kJ/mol
# GULP energy per Si atom -5580.079277 kJ/mol
# Density = 2.061960 g / cm^3
# Si number density = 20.666642 Si / 1000 Ang^3
#
#
#
# Elastic Constant Matrix: (Units=GPa)
#
#
# Indices 1 2 3 4 5 6 
#
# 1 128.4032 34.7681 40.4389 0.0000 0.0000 0.0000
# 2 34.7681 70.9527 16.1466 0.0000 0.0000 0.0000
# 3 40.4389 16.1466 147.7289 0.0000 0.0000 0.0000
# 4 0.0000 0.0000 0.0000 20.0625 0.0000 0.0000
# 5 0.0000 0.0000 0.0000 0.0000 28.9989 0.0000
# 6 0.0000 0.0000 0.0000 0.0000 0.0000 45.3634
#
#
#
# Elastic Compliance Matrix: (Units=1/GPa)
#
#
# Indices 1 2 3 4 5 6 
#
# 1 0.009613 -0.004217 -0.002171 0.000000 0.000000 0.000000
# 2 -0.004217 0.016303 -0.000628 0.000000 0.000000 0.000000
# 3 -0.002171 -0.000628 0.007432 0.000000 0.000000 0.000000
# 4 0.000000 0.000000 0.000000 0.049844 0.000000 0.000000
# 5 0.000000 0.000000 0.000000 0.000000 0.034484 0.000000
# 6 0.000000 0.000000 0.000000 0.000000 0.000000 0.022044
#
#
# Mechanical properties :
#
#
# Convention : Reuss Voigt Hill
#
# Bulk Modulus (GPa) = 51.76445 58.86577 55.31511
# Shear Modulus (GPa) = 31.21285 35.93369 33.57327
#
# Velocity S-wave (km/s) = 3.89048 4.17433 4.03490
# Velocity P-wave (km/s) = 6.72925 7.19574 6.96640
#
# Compressibility (1/GPa) = 0.01931828
#
# Stress axis : x y z
#
# Youngs Moduli (GPa) = 104.02187 61.33837 134.55432
#
# Poissons Ratio (x) = 0.25865 0.29207
# Poissons Ratio (y) = 0.43863 0.08445
# Poissons Ratio (z) = 0.22579 0.03850
#
# Static dielectric constant tensor:
#      x y z
#    x 1.752800 0.000000 0.000000 
#    y 0.000000 1.804900 0.000000 
#    z 0.000000 0.000000 1.691950 
# 
# From -- ./inp_files/60153.got.cif
#   From: 2010.05.17/outbox.cif.g08.bks.cpg/sg74_31_cif.got.tgz:60153.got - 2010.06.03 17:57:02.
