data_PCOD9537039
_publ_section_title
;
Structure prediction by ZEFSAII (Michael W. Deem and Ramdas Pophale) SiO2 
 PCOD9537039
Probable space group: I M M A
;
_chemical_formula_sum "Si O2"
_cell_formula_units_Z 88
_cell_length_a 27.651516
_cell_length_b 14.930611
_cell_length_c 10.834673
_cell_angle_alpha 90.000000
_cell_angle_beta 90.000000
_cell_angle_gamma 90.000000
_cell_volume 4473.138400
_symmetry_space_group_name_H-M "I M M A"
_symmetry_group_IT_number 74
_symmetry_cell_setting 'orthorhombic'
loop_
_space_group_symop_operation_xyz
x,y,z
-x,1/2-y,z
x,-y,-z
-x,1/2+y,-z
-x,-y,-z
x,1/2+y,-z
-x,y,z
x,1/2-y,z
1/2+x,1/2+y,1/2+z
1/2-x,-y,1/2+z
1/2+x,1/2-y,1/2-z
1/2-x,y,1/2-z
1/2-x,1/2-y,1/2-z
1/2+x,y,1/2-z
1/2-x,1/2+y,1/2+z
1/2+x,-y,1/2+z
loop_
_atom_site_type_symbol
_atom_site_label
_atom_site_fract_x
_atom_site_fract_y
_atom_site_fract_z
Si Si1 0.250264 0.147318 0.052717
Si Si2 0.750000 0.996455 0.750000
Si Si3 0.135031 0.851639 0.556451
Si Si4 0.587101 0.349228 0.782342
Si Si5 0.188271 0.650128 0.197945
Si Si6 0.051799 0.970133 0.643055
O O1 0.245216 0.250000 0.098374
O O2 0.232637 0.069673 0.143165
O O3 0.307996 0.128325 0.046161
O O4 0.219097 0.144366 0.927429
O O5 0.793299 0.066054 0.723128
O O6 0.130984 0.750000 0.601798
O O7 0.112990 0.853247 0.417763
O O8 0.101255 0.913235 0.642630
O O9 0.564312 0.250000 0.773408
O O10 0.630984 0.355065 0.685363
O O11 0.556092 0.438700 0.779026
O O12 0.197096 0.750000 0.254076
O O13 0.000000 0.924216 0.671098
O O14 0.048906 0.000000 0.500000
#
# Coordination Sequence:
#
# PCOD9537039 Si02
#       6
#    16   8  16  16  16  16
#     4  10  21  34  47  68  99 133 168 208 254 305
#     4  12  20  30  48  68  94 130 166 206 254 302
#     4   9  17  29  44  63  90 124 161 201 246 296
#     4   9  17  29  45  64  89 123 161 202 247 296
#     4  10  20  32  47  69  96 129 172 214 251 301
#     4   9  17  28  43  66  95 126 162 205 255 312
#
# _framework density 19.672988
#
# number of rings (size 3 to 8) (size 9 to 14) (size 15 to 20)
#    0.000    2.364    0.000    3.273    0.000    6.545 
#    0.000    3.636    0.000    0.000    0.000    0.000 
#    0.000   11.636    0.000   28.727    0.000   12.909 
#
# Total GULP energy -244976.069436 kJ/mol
# GULP energy per Si atom -5567.637942 kJ/mol
# Density = 1.962821 g / cm^3
# Si number density = 19.672988 Si / 1000 Ang^3
#
#
#
# Elastic Constant Matrix: (Units=GPa)
#
#
# Indices 1 2 3 4 5 6 
#
# 1 91.3829 44.6682 14.7014 0.0000 0.0000 0.0000
# 2 44.6682 126.8956 36.3055 0.0000 0.0000 0.0000
# 3 14.7014 36.3055 29.8543 0.0000 0.0000 0.0000
# 4 0.0000 0.0000 0.0000 18.3764 0.0000 0.0000
# 5 0.0000 0.0000 0.0000 0.0000 0.5942 0.0000
# 6 0.0000 0.0000 0.0000 0.0000 0.0000 18.4694
#
#
#
# Elastic Compliance Matrix: (Units=1/GPa)
#
#
# Indices 1 2 3 4 5 6 
#
# 1 0.013250 -0.004290 -0.001308 0.000000 0.000000 0.000000
# 2 -0.004290 0.013474 -0.014273 0.000000 0.000000 0.000000
# 3 -0.001308 -0.014273 0.051498 0.000000 0.000000 0.000000
# 4 0.000000 0.000000 0.000000 0.054418 0.000000 0.000000
# 5 0.000000 0.000000 0.000000 0.000000 1.682866 0.000000
# 6 0.000000 0.000000 0.000000 0.000000 0.000000 0.054144
#
#
# Mechanical properties :
#
#
# Convention : Reuss Voigt Hill
#
# Bulk Modulus (GPa) = 25.98769 48.83145 37.40957
# Shear Modulus (GPa) = 2.60116 17.65186 10.12651
#
# Velocity S-wave (km/s) = 1.15112 2.99869 2.27125
# Velocity P-wave (km/s) = 3.87366 6.07165 5.09265
#
# Compressibility (1/GPa) = 0.03847976
#
# Stress axis : x y z
#
# Youngs Moduli (GPa) = 75.46974 74.21538 19.41829
#
# Poissons Ratio (x) = 0.31838 0.02540
# Poissons Ratio (y) = 0.32376 0.27716
# Poissons Ratio (z) = 0.09871 1.05931
#
# Static dielectric constant tensor:
#      x y z
#    x 1.750040 0.000000 0.000000 
#    y 0.000000 1.741410 0.000000 
#    z 0.000000 0.000000 1.705740 
# 
# From -- ./inp_files/26149.got.cif
#   From: 2010.05.17/outbox.cif.g08.bks.cpg/sg74_14_cif.got.tgz:26149.got - 2010.06.03 17:57:02.
