data_PCOD9537626
_publ_section_title
;
Structure prediction by ZEFSAII (Michael W. Deem and Ramdas Pophale) SiO2 
 PCOD9537626
Probable space group: I M M A
;
_chemical_formula_sum "Si O2"
_cell_formula_units_Z 116
_cell_length_a 27.834509
_cell_length_b 7.656030
_cell_length_c 26.626960
_cell_angle_alpha 90.000000
_cell_angle_beta 90.000000
_cell_angle_gamma 90.000000
_cell_volume 5674.254061
_symmetry_space_group_name_H-M "I M M A"
_symmetry_group_IT_number 74
_symmetry_cell_setting 'orthorhombic'
loop_
_space_group_symop_operation_xyz
x,y,z
-x,1/2-y,z
x,-y,-z
-x,1/2+y,-z
-x,-y,-z
x,1/2+y,-z
-x,y,z
x,1/2-y,z
1/2+x,1/2+y,1/2+z
1/2-x,-y,1/2+z
1/2+x,1/2-y,1/2-z
1/2-x,y,1/2-z
1/2-x,1/2-y,1/2-z
1/2+x,y,1/2-z
1/2-x,1/2+y,1/2+z
1/2+x,-y,1/2+z
loop_
_atom_site_type_symbol
_atom_site_label
_atom_site_fract_x
_atom_site_fract_y
_atom_site_fract_z
Si Si1 0.721821 0.957940 0.941458
Si Si2 0.653061 0.547032 0.145997
Si Si3 0.071715 0.453669 0.896668
Si Si4 0.803083 0.551912 0.749017
Si Si5 0.500000 0.750000 0.568484
Si Si6 0.406142 0.544111 0.286602
Si Si7 0.053067 0.463241 0.680334
Si Si8 0.328374 0.958737 0.559000
O O1 0.721681 0.750000 0.936065
O O2 0.775100 0.021075 0.925782
O O3 0.680913 0.030258 0.905665
O O4 0.714970 0.000000 0.000000
O O5 0.652865 0.750000 0.161793
O O6 0.680157 0.450718 0.191109
O O7 0.597711 0.487371 0.145117
O O8 0.055539 0.250000 0.900274
O O9 0.071813 0.519824 0.838786
O O10 0.127224 0.457578 0.912822
O O11 0.041543 0.593294 0.928316
O O12 0.797421 0.750000 0.767609
O O13 0.750000 0.468124 0.750000
O O14 0.848728 0.479558 0.779810
O O15 0.415027 0.750000 0.287607
O O16 0.431660 0.476150 0.236266
O O17 0.051321 0.250000 0.681032
O O18 0.000000 0.525327 0.666974
O O19 0.330585 0.750000 0.566121
O O20 0.332904 0.000000 0.500000
#
# Coordination Sequence:
#
# PCOD9537626 Si02
#       8
#    16  16  16  16   4  16  16  16
#     4  10  21  37  61  89 119 152 189 236 295 352
#     4  10  20  34  54  82 117 149 192 241 290 353
#     4  11  24  42  65  89 119 155 197 252 306 359
#     4  10  21  34  50  75 113 155 194 235 289 349
#     4  12  26  44  62  90 120 152 204 248 308 358
#     4   9  20  35  54  82 111 149 196 242 294 348
#     4   8  15  31  54  79 109 150 194 241 287 339
#     4  10  21  40  64  89 117 148 189 240 295 363
#
# _framework density 20.443216
#
# number of rings (size 3 to 8) (size 9 to 14) (size 15 to 20)
#    0.000    2.207    0.690    2.690    3.862    2.759 
#    0.000    0.345    0.000    7.862    0.000    0.000 
#    0.000    0.000    0.000    0.000    0.000    0.000 
#
# Total GULP energy -323132.863335 kJ/mol
# GULP energy per Si atom -5571.256264 kJ/mol
# Density = 2.039669 g / cm^3
# Si number density = 20.443216 Si / 1000 Ang^3
#
#
#
# Elastic Constant Matrix: (Units=GPa)
#
#
# Indices 1 2 3 4 5 6 
#
# 1 159.6945 12.0000 33.7729 0.0000 0.0000 0.0000
# 2 12.0000 72.5772 -2.1799 0.0000 0.0000 0.0000
# 3 33.7729 -2.1799 17.6450 0.0000 0.0000 0.0000
# 4 0.0000 0.0000 0.0000 10.8554 0.0000 0.0000
# 5 0.0000 0.0000 0.0000 0.0000 4.5167 0.0000
# 6 0.0000 0.0000 0.0000 0.0000 0.0000 -12.3930
#
#
#
# Elastic Compliance Matrix: (Units=1/GPa)
#
#
# Indices 1 2 3 4 5 6 
#
# 1 0.010937 -0.002446 -0.021235 0.000000 0.000000 0.000000
# 2 -0.002446 0.014377 0.006458 0.000000 0.000000 0.000000
# 3 -0.021235 0.006458 0.098116 0.000000 0.000000 0.000000
# 4 0.000000 0.000000 0.000000 0.092120 0.000000 0.000000
# 5 0.000000 0.000000 0.000000 0.000000 0.221402 0.000000
# 6 0.000000 0.000000 0.000000 0.000000 0.000000 -0.080691
#
#
# Mechanical properties :
#
#
# Convention : Reuss Voigt Hill
#
# Bulk Modulus (GPa) = 11.23814 37.45584 24.34699
# Shear Modulus (GPa) = 11.89432 14.35073 13.12252
#
# Velocity S-wave (km/s) = 2.41472 2.65236 2.53633
# Velocity P-wave (km/s) = 3.64467 5.26704 4.52909
#
# Compressibility (1/GPa) = 0.08898272
#
# Stress axis : x y z
#
# Youngs Moduli (GPa) = 91.43550 69.55629 10.19204
#
# Poissons Ratio (x) = 0.17014 0.21643
# Poissons Ratio (y) = 0.22366 -0.06582
# Poissons Ratio (z) = 1.94165 -0.44919
#
# Static dielectric constant tensor:
#      x y z
#    x 1.754900 0.000000 0.000000 
#    y 0.000000 1.784700 0.000000 
#    z 0.000000 0.000000 1.697100 
# 
# From -- ./inp_files/73785.got.cif
#   From: 2010.05.17/outbox.cif.g08.bks.cpg/sg74_37_cif.got.tgz:73785.got - 2010.06.03 17:57:02.
