data_PCOD9537936
_publ_section_title
;
Structure prediction by ZEFSAII (Michael W. Deem and Ramdas Pophale) SiO2 
 PCOD9537936
Probable space group: I M M A
;
_chemical_formula_sum "Si O2"
_cell_formula_units_Z 104
_cell_length_a 19.648880
_cell_length_b 8.836949
_cell_length_c 29.126653
_cell_angle_alpha 90.000000
_cell_angle_beta 90.000000
_cell_angle_gamma 90.000000
_cell_volume 5057.439903
_symmetry_space_group_name_H-M "I M M A"
_symmetry_group_IT_number 74
_symmetry_cell_setting 'orthorhombic'
loop_
_space_group_symop_operation_xyz
x,y,z
-x,1/2-y,z
x,-y,-z
-x,1/2+y,-z
-x,-y,-z
x,1/2+y,-z
-x,y,z
x,1/2-y,z
1/2+x,1/2+y,1/2+z
1/2-x,-y,1/2+z
1/2+x,1/2-y,1/2-z
1/2-x,y,1/2-z
1/2-x,1/2-y,1/2-z
1/2+x,y,1/2-z
1/2-x,1/2+y,1/2+z
1/2+x,-y,1/2+z
loop_
_atom_site_type_symbol
_atom_site_label
_atom_site_fract_x
_atom_site_fract_y
_atom_site_fract_z
Si Si1 0.500000 0.071257 0.449855
Si Si2 0.815137 0.075576 0.279388
Si Si3 0.602256 0.932199 0.048598
Si Si4 0.421433 0.421381 0.302070
Si Si5 0.075904 0.066605 0.352407
Si Si6 0.239238 0.569644 0.046541
Si Si7 0.379325 0.928321 0.391902
O O1 0.500000 0.250000 0.453573
O O2 0.500000 0.000000 0.500000
O O3 0.434980 0.015163 0.421582
O O4 0.794836 0.250000 0.290912
O O5 0.750000 0.011385 0.250000
O O6 0.876392 0.078044 0.242981
O O7 0.856323 0.012249 0.324154
O O8 0.593799 0.750000 0.048313
O O9 0.682444 0.973495 0.050320
O O10 0.575336 0.001784 0.095936
O O11 0.576951 0.000000 0.000000
O O12 0.500000 0.457193 0.292961
O O13 0.418964 0.250000 0.321375
O O14 0.390878 0.532727 0.339363
O O15 0.080120 0.250000 0.353297
O O16 0.000000 0.029694 0.332271
O O17 0.237096 0.750000 0.042077
O O18 0.194684 0.525130 0.090051
O O19 0.209554 0.500000 0.000000
O O20 0.388224 0.750000 0.399606
#
# Coordination Sequence:
#
# PCOD9537936 Si02
#       7
#     8  16  16  16  16  16  16
#     4  12  24  38  54  78 112 152 200 250 297 352
#     4   9  19  36  60  90 119 154 202 250 297 353
#     4  10  21  39  62  90 123 158 199 247 300 363
#     4  10  20  35  56  83 115 151 194 244 295 352
#     4  10  21  38  61  90 125 163 201 247 302 359
#     4   9  20  36  54  78 109 147 190 240 297 352
#     4  11  22  36  54  79 112 151 194 243 299 357
#
# _framework density 20.563763999999999
#
# number of rings (size 3 to 8) (size 9 to 14) (size 15 to 20)
#    0.000    2.000    0.769    2.538    2.154    5.538 
#    0.000    0.769    0.000    2.769    0.000    0.000 
#    0.000    0.000    0.000    0.000    0.000    0.000 
#
# Total GULP energy -289986.770901 kJ/mol
# GULP energy per Si atom -5576.668671 kJ/mol
# Density = 2.051696 g / cm^3
# Si number density = 20.563764 Si / 1000 Ang^3
#
#
#
# Elastic Constant Matrix: (Units=GPa)
#
#
# Indices 1 2 3 4 5 6 
#
# 1 115.1164 17.7554 39.5792 0.0000 0.0000 0.0000
# 2 17.7554 27.8684 19.3312 0.0000 0.0000 0.0000
# 3 39.5792 19.3312 94.3925 0.0000 0.0000 0.0000
# 4 0.0000 0.0000 0.0000 25.5135 0.0000 0.0000
# 5 0.0000 0.0000 0.0000 0.0000 25.9990 0.0000
# 6 0.0000 0.0000 0.0000 0.0000 0.0000 6.1922
#
#
#
# Elastic Compliance Matrix: (Units=1/GPa)
#
#
# Indices 1 2 3 4 5 6 
#
# 1 0.010568 -0.004265 -0.003558 0.000000 0.000000 0.000000
# 2 -0.004265 0.043546 -0.007130 0.000000 0.000000 0.000000
# 3 -0.003558 -0.007130 0.013546 0.000000 0.000000 0.000000
# 4 0.000000 0.000000 0.000000 0.039195 0.000000 0.000000
# 5 0.000000 0.000000 0.000000 0.000000 0.038463 0.000000
# 6 0.000000 0.000000 0.000000 0.000000 0.000000 0.161493
#
#
# Mechanical properties :
#
#
# Convention : Reuss Voigt Hill
#
# Bulk Modulus (GPa) = 26.48672 43.41212 34.94942
# Shear Modulus (GPa) = 14.31433 22.25506 18.28470
#
# Velocity S-wave (km/s) = 2.64122 3.29332 2.98513
# Velocity P-wave (km/s) = 4.71271 5.96809 5.37716
#
# Compressibility (1/GPa) = 0.03775477
#
# Stress axis : x y z
#
# Youngs Moduli (GPa) = 94.62606 22.96430 73.82289
#
# Poissons Ratio (x) = 0.09795 0.26264
# Poissons Ratio (y) = 0.40360 0.52633
# Poissons Ratio (z) = 0.33665 0.16373
#
# Static dielectric constant tensor:
#      x y z
#    x 1.756800 0.000000 0.000000 
#    y 0.000000 1.693910 0.000000 
#    z 0.000000 0.000000 1.837310 
# 
# From -- ./inp_files/64501.got.cif
#   From: 2010.05.17/outbox.cif.g08.bks.cpg/sg74_33_cif.got.tgz:64501.got - 2010.06.03 17:57:02.
