data_PCOD9537541
_publ_section_title
;
Structure prediction by ZEFSAII (Michael W. Deem and Ramdas Pophale) SiO2 
 PCOD9537541
Probable space group: I M M A
;
_chemical_formula_sum "Si O2"
_cell_formula_units_Z 96
_cell_length_a 11.926634
_cell_length_b 17.549976
_cell_length_c 25.142986
_cell_angle_alpha 90.000000
_cell_angle_beta 90.000000
_cell_angle_gamma 90.000000
_cell_volume 5262.732217
_symmetry_space_group_name_H-M "I M M A"
_symmetry_group_IT_number 74
_symmetry_cell_setting 'orthorhombic'
loop_
_space_group_symop_operation_xyz
x,y,z
-x,1/2-y,z
x,-y,-z
-x,1/2+y,-z
-x,-y,-z
x,1/2+y,-z
-x,y,z
x,1/2-y,z
1/2+x,1/2+y,1/2+z
1/2-x,-y,1/2+z
1/2+x,1/2-y,1/2-z
1/2-x,y,1/2-z
1/2-x,1/2-y,1/2-z
1/2+x,y,1/2-z
1/2-x,1/2+y,1/2+z
1/2+x,-y,1/2+z
loop_
_atom_site_type_symbol
_atom_site_label
_atom_site_fract_x
_atom_site_fract_y
_atom_site_fract_z
Si Si1 0.630464 0.662167 0.399875
Si Si2 0.500000 0.157312 0.136821
Si Si3 0.000000 0.658959 0.513439
Si Si4 0.768140 0.588904 0.490216
Si Si5 0.768193 0.657080 0.689794
Si Si6 0.371106 0.657875 0.587936
Si Si7 0.871154 0.841790 0.226202
O O1 0.500000 0.658133 0.415414
O O2 0.667611 0.750000 0.408395
O O3 0.700212 0.607154 0.437035
O O4 0.637080 0.645644 0.337258
O O5 0.500000 0.250000 0.136714
O O6 0.500000 0.133601 0.075446
O O7 0.388304 0.132713 0.167014
O O8 0.111123 0.627468 0.486903
O O9 0.000000 0.750000 0.512795
O O10 0.779625 0.500000 0.500000
O O11 0.703376 0.625172 0.540545
O O12 0.767438 0.750000 0.691345
O O13 0.750000 0.630346 0.750000
O O14 0.676537 0.634807 0.645743
O O15 0.500000 0.634867 0.581822
O O16 0.364754 0.750000 0.585195
O O17 0.873016 0.750000 0.235110
O O18 0.750000 0.869299 0.250000
O O19 0.000000 0.868132 0.242449
#
# Coordination Sequence:
#
# PCOD9537541 Si02
#       7
#    16   8   8  16  16  16  16
#     4   9  18  34  56  81 109 144 183 225 273 325
#     4   9  16  29  51  75 103 139 170 209 273 325
#     4  11  21  39  61  79 107 145 181 219 271 331
#     4  12  24  37  54  79 110 144 181 227 274 326
#     4   9  17  28  47  77 107 136 177 229 276 316
#     4  10  20  34  53  78 108 143 184 232 277 321
#     4   8  14  27  49  78 111 140 173 226 284 332
#
# _framework density 18.241475999999999
#
# number of rings (size 3 to 8) (size 9 to 14) (size 15 to 20)
#    0.000    2.333    1.667    3.250    1.167    2.667 
#    1.500    0.000    0.000    1.000    0.000    0.000 
#    0.000    0.000    0.000    0.000    0.000    0.000 
#
# Total GULP energy -267580.545947 kJ/mol
# GULP energy per Si atom -5574.594707 kJ/mol
# Density = 1.819996 g / cm^3
# Si number density = 18.241476 Si / 1000 Ang^3
#
#
#
# Elastic Constant Matrix: (Units=GPa)
#
#
# Indices 1 2 3 4 5 6 
#
# 1 133.2950 31.8113 35.4339 0.0000 0.0000 0.0000
# 2 31.8113 33.3935 12.6639 0.0000 0.0000 0.0000
# 3 35.4339 12.6639 34.5813 0.0000 0.0000 0.0000
# 4 0.0000 0.0000 0.0000 -4.7280 0.0000 0.0000
# 5 0.0000 0.0000 0.0000 0.0000 30.8429 0.0000
# 6 0.0000 0.0000 0.0000 0.0000 0.0000 1.3417
#
#
#
# Elastic Compliance Matrix: (Units=1/GPa)
#
#
# Indices 1 2 3 4 5 6 
#
# 1 0.011813 -0.007738 -0.009271 0.000000 0.000000 0.000000
# 2 -0.007738 0.039844 -0.006663 0.000000 0.000000 0.000000
# 3 -0.009271 -0.006663 0.040857 0.000000 0.000000 0.000000
# 4 0.000000 0.000000 0.000000 -0.211505 0.000000 0.000000
# 5 0.000000 0.000000 0.000000 0.000000 0.032422 0.000000
# 6 0.000000 0.000000 0.000000 0.000000 0.000000 0.745349
#
#
# Mechanical properties :
#
#
# Convention : Reuss Voigt Hill
#
# Bulk Modulus (GPa) = 22.13792 40.12088 31.12940
# Shear Modulus (GPa) = 6.93308 13.58201 10.25755
#
# Velocity S-wave (km/s) = 1.95166 2.73164 2.37390
# Velocity P-wave (km/s) = 4.15223 5.65607 4.96146
#
# Compressibility (1/GPa) = 0.04517137
#
# Stress axis : x y z
#
# Youngs Moduli (GPa) = 84.65041 25.09804 24.47572
#
# Poissons Ratio (x) = 0.19420 0.22691
# Poissons Ratio (y) = 0.65500 0.16307
# Poissons Ratio (z) = 0.78479 0.16722
#
# Static dielectric constant tensor:
#      x y z
#    x 1.639260 0.000000 0.000000 
#    y 0.000000 1.609930 0.000000 
#    z 0.000000 0.000000 1.610660 
# 
# From -- ./inp_files/58894.got.cif
#   From: 2010.05.17/outbox.cif.g08.bks.cpg/sg74_30_cif.got.tgz:58894.got - 2010.06.03 17:57:02.
