data_PCOD9537267
_publ_section_title
;
Structure prediction by ZEFSAII (Michael W. Deem and Ramdas Pophale) SiO2 
 PCOD9537267
Probable space group: I M M A
;
_chemical_formula_sum "Si O2"
_cell_formula_units_Z 80
_cell_length_a 18.323740
_cell_length_b 8.844038
_cell_length_c 28.230193
_cell_angle_alpha 90.000000
_cell_angle_beta 90.000000
_cell_angle_gamma 90.000000
_cell_volume 4574.868003
_symmetry_space_group_name_H-M "I M M A"
_symmetry_group_IT_number 74
_symmetry_cell_setting 'orthorhombic'
loop_
_space_group_symop_operation_xyz
x,y,z
-x,1/2-y,z
x,-y,-z
-x,1/2+y,-z
-x,-y,-z
x,1/2+y,-z
-x,y,z
x,1/2-y,z
1/2+x,1/2+y,1/2+z
1/2-x,-y,1/2+z
1/2+x,1/2-y,1/2-z
1/2-x,y,1/2-z
1/2-x,1/2-y,1/2-z
1/2+x,y,1/2-z
1/2-x,1/2+y,1/2+z
1/2+x,-y,1/2+z
loop_
_atom_site_type_symbol
_atom_site_label
_atom_site_fract_x
_atom_site_fract_y
_atom_site_fract_z
Si Si1 0.140317 0.569692 0.309927
Si Si2 0.296241 0.930437 0.355387
Si Si3 0.233326 0.931133 0.550183
Si Si4 0.085342 0.430925 0.211830
Si Si5 0.080699 0.068095 0.405381
O O1 0.131501 0.750000 0.306088
O O2 0.224871 0.537590 0.322789
O O3 0.115403 0.492302 0.261732
O O4 0.094657 0.507080 0.354404
O O5 0.301616 0.750000 0.360352
O O6 0.279857 0.004702 0.406113
O O7 0.366475 0.996909 0.329602
O O8 0.238043 0.750000 0.549118
O O9 0.148946 0.975023 0.561756
O O10 0.254939 0.000000 0.500000
O O11 0.092444 0.250000 0.210715
O O12 0.000000 0.470044 0.207609
O O13 0.083418 0.250000 0.399586
O O14 0.000000 0.027015 0.423184
#
# Coordination Sequence:
#
# PCOD9537267 Si02
#       5
#    16  16  16  16  16
#     4  10  20  33  51  77 107 140 178 215 251 297
#     4  10  21  37  56  78 104 135 174 217 258 304
#     4  10  20  35  55  77 102 134 173 217 263 310
#     4  11  23  36  52  77 108 140 173 210 255 308
#     4   9  18  32  49  72 105 143 179 214 254 301
#
# _framework density 17.486843
#
# number of rings (size 3 to 8) (size 9 to 14) (size 15 to 20)
#    0.000    2.000    0.000    3.600    0.000   10.400 
#    0.000    0.000    0.000    0.600    0.000    0.000 
#    0.000    0.000    0.000    0.000    0.000    0.000 
#
# Total GULP energy -223413.895673 kJ/mol
# GULP energy per Si atom -5585.347392 kJ/mol
# Density = 1.744704 g / cm^3
# Si number density = 17.486843 Si / 1000 Ang^3
#
#
#
# Elastic Constant Matrix: (Units=GPa)
#
#
# Indices 1 2 3 4 5 6 
#
# 1 77.0191 40.6858 56.8218 0.0000 0.0000 0.0000
# 2 40.6858 43.6706 37.3898 0.0000 0.0000 0.0000
# 3 56.8218 37.3898 103.2043 0.0000 0.0000 0.0000
# 4 0.0000 0.0000 0.0000 30.5485 0.0000 0.0000
# 5 0.0000 0.0000 0.0000 0.0000 4.4831 0.0000
# 6 0.0000 0.0000 0.0000 0.0000 0.0000 13.8788
#
#
#
# Elastic Compliance Matrix: (Units=1/GPa)
#
#
# Indices 1 2 3 4 5 6 
#
# 1 0.030938 -0.020642 -0.009555 0.000000 0.000000 0.000000
# 2 -0.020642 0.046968 -0.005651 0.000000 0.000000 0.000000
# 3 -0.009555 -0.005651 0.016998 0.000000 0.000000 0.000000
# 4 0.000000 0.000000 0.000000 0.032735 0.000000 0.000000
# 5 0.000000 0.000000 0.000000 0.000000 0.223059 0.000000
# 6 0.000000 0.000000 0.000000 0.000000 0.000000 0.072052
#
#
# Mechanical properties :
#
#
# Convention : Reuss Voigt Hill
#
# Bulk Modulus (GPa) = 43.09047 54.85431 48.97239
# Shear Modulus (GPa) = 9.95656 15.71519 12.83587
#
# Velocity S-wave (km/s) = 2.38875 3.00106 2.71224
# Velocity P-wave (km/s) = 5.68360 6.59132 6.15422
#
# Compressibility (1/GPa) = 0.02320698
#
# Stress axis : x y z
#
# Youngs Moduli (GPa) = 32.32319 21.29090 58.83191
#
# Poissons Ratio (x) = 0.43949 0.56214
# Poissons Ratio (y) = 0.66722 0.33246
# Poissons Ratio (z) = 0.30885 0.12031
#
# Static dielectric constant tensor:
#      x y z
#    x 1.599910 0.000000 0.000000 
#    y 0.000000 1.578180 0.000000 
#    z 0.000000 0.000000 1.557680 
# 
# From -- ./inp_files/63890.got.cif
#   From: 2010.05.17/outbox.cif.g08.bks.cpg/sg74_32_cif.got.tgz:63890.got - 2010.06.03 17:57:02.
