data_PCOD9537421
_publ_section_title
;
Structure prediction by ZEFSAII (Michael W. Deem and Ramdas Pophale) SiO2 
 PCOD9537421
Probable space group: I M M A
;
_chemical_formula_sum "Si O2"
_cell_formula_units_Z 96
_cell_length_a 17.031152
_cell_length_b 7.701872
_cell_length_c 30.365203
_cell_angle_alpha 90.000000
_cell_angle_beta 90.000000
_cell_angle_gamma 90.000000
_cell_volume 3983.056899
_symmetry_space_group_name_H-M "I M M A"
_symmetry_group_IT_number 74
_symmetry_cell_setting 'orthorhombic'
loop_
_space_group_symop_operation_xyz
x,y,z
-x,1/2-y,z
x,-y,-z
-x,1/2+y,-z
-x,-y,-z
x,1/2+y,-z
-x,y,z
x,1/2-y,z
1/2+x,1/2+y,1/2+z
1/2-x,-y,1/2+z
1/2+x,1/2-y,1/2-z
1/2-x,y,1/2-z
1/2-x,1/2-y,1/2-z
1/2+x,y,1/2-z
1/2-x,1/2+y,1/2+z
1/2+x,-y,1/2+z
loop_
_atom_site_type_symbol
_atom_site_label
_atom_site_fract_x
_atom_site_fract_y
_atom_site_fract_z
Si Si1 0.784105 0.550007 0.697548
Si Si2 0.365002 0.959161 0.451122
Si Si3 0.915227 0.547696 0.757878
Si Si4 0.313875 0.042836 0.953215
Si Si5 0.871621 0.952565 0.147818
Si Si6 0.410339 0.961073 0.129774
O O1 0.758162 0.750000 0.703174
O O2 0.828130 0.479052 0.742545
O O3 0.720115 0.466842 0.663993
O O4 0.864129 0.541752 0.669675
O O5 0.366385 0.750000 0.448822
O O6 0.274995 0.026096 0.452691
O O7 0.390566 0.018504 0.401773
O O8 0.399833 0.000000 0.500000
O O9 0.915199 0.750000 0.746179
O O10 0.914162 0.536383 0.810767
O O11 0.000000 0.470247 0.742818
O O12 0.307102 0.250000 0.948889
O O13 0.366392 0.979155 0.913902
O O14 0.350162 0.000000 0.000000
O O15 0.891848 0.750000 0.147869
O O16 0.500000 0.010580 0.129101
O O17 0.405356 0.750000 0.133030
#
# Coordination Sequence:
#
# PCOD9537421 Si02
#       6
#    16  16  16  16  16  16
#     4  11  22  37  58  83 113 151 194 235 278 330
#     4   9  18  33  54  81 114 145 181 231 283 334
#     4  10  23  42  60  83 118 154 189 234 286 339
#     4   9  17  31  47  68 100 138 181 229 283 334
#     4  11  22  38  61  90 119 148 189 238 283 335
#     4  10  20  34  51  72 105 147 188 235 288 335
#
# _framework density 24.102091999999999
#
# number of rings (size 3 to 8) (size 9 to 14) (size 15 to 20)
#    0.000    2.000    1.667    2.000    0.000    7.000 
#    0.000    0.000    0.000    0.500    0.000    0.000 
#    0.000    0.000    0.000    0.000    0.000    0.000 
#
# Total GULP energy -267567.139128 kJ/mol
# GULP energy per Si atom -5574.315398 kJ/mol
# Density = 2.404723 g / cm^3
# Si number density = 24.102092 Si / 1000 Ang^3
#
#
#
# Elastic Constant Matrix: (Units=GPa)
#
#
# Indices 1 2 3 4 5 6 
#
# 1 86.9362 -2.2639 -11.5745 0.0000 0.0000 0.0000
# 2 -2.2639 38.9122 -2.7856 0.0000 0.0000 0.0000
# 3 -11.5745 -2.7856 139.3663 0.0000 0.0000 0.0000
# 4 0.0000 0.0000 0.0000 35.0943 0.0000 0.0000
# 5 0.0000 0.0000 0.0000 0.0000 14.7727 0.0000
# 6 0.0000 0.0000 0.0000 0.0000 0.0000 19.4707
#
#
#
# Elastic Compliance Matrix: (Units=1/GPa)
#
#
# Indices 1 2 3 4 5 6 
#
# 1 0.011653 0.000748 0.000983 0.000000 0.000000 0.000000
# 2 0.000748 0.025784 0.000578 0.000000 0.000000 0.000000
# 3 0.000983 0.000578 0.007268 0.000000 0.000000 0.000000
# 4 0.000000 0.000000 0.000000 0.028495 0.000000 0.000000
# 5 0.000000 0.000000 0.000000 0.000000 0.067693 0.000000
# 6 0.000000 0.000000 0.000000 0.000000 0.000000 0.051359
#
#
# Mechanical properties :
#
#
# Convention : Reuss Voigt Hill
#
# Bulk Modulus (GPa) = 20.27474 25.77407 23.02441
# Shear Modulus (GPa) = 24.50074 32.65677 28.57876
#
# Velocity S-wave (km/s) = 3.19178 3.68494 3.44719
# Velocity P-wave (km/s) = 4.69186 5.36861 5.04160
#
# Compressibility (1/GPa) = 0.04932246
#
# Stress axis : x y z
#
# Youngs Moduli (GPa) = 85.81468 38.78409 137.58002
#
# Poissons Ratio (x) = -0.02902 -0.13521
# Poissons Ratio (y) = -0.06422 -0.07945
# Poissons Ratio (z) = -0.08433 -0.02240
#
# Static dielectric constant tensor:
#      x y z
#    x 1.992520 0.000000 0.000000 
#    y 0.000000 1.841590 0.000000 
#    z 0.000000 0.000000 2.082000 
# 
# From -- ./inp_files/68118.got.cif
#   From: 2010.05.17/outbox.cif.g08.bks.cpg/sg74_35_cif.got.tgz:68118.got - 2010.06.03 17:57:02.
