data_PCOD9537402
_publ_section_title
;
Structure prediction by ZEFSAII (Michael W. Deem and Ramdas Pophale) SiO2 
 PCOD9537402
Probable space group: I M M A
;
_chemical_formula_sum "Si O2"
_cell_formula_units_Z 72
_cell_length_a 17.611051
_cell_length_b 7.310981
_cell_length_c 25.296306
_cell_angle_alpha 90.000000
_cell_angle_beta 90.000000
_cell_angle_gamma 90.000000
_cell_volume 3257.002082
_symmetry_space_group_name_H-M "I M M A"
_symmetry_group_IT_number 74
_symmetry_cell_setting 'orthorhombic'
loop_
_space_group_symop_operation_xyz
x,y,z
-x,1/2-y,z
x,-y,-z
-x,1/2+y,-z
-x,-y,-z
x,1/2+y,-z
-x,y,z
x,1/2-y,z
1/2+x,1/2+y,1/2+z
1/2-x,-y,1/2+z
1/2+x,1/2-y,1/2-z
1/2-x,y,1/2-z
1/2-x,1/2-y,1/2-z
1/2+x,y,1/2-z
1/2-x,1/2+y,1/2+z
1/2+x,-y,1/2+z
loop_
_atom_site_type_symbol
_atom_site_label
_atom_site_fract_x
_atom_site_fract_y
_atom_site_fract_z
Si Si1 0.872812 0.473050 0.643225
Si Si2 0.198995 0.026439 0.849346
Si Si3 0.500000 0.031848 0.937336
Si Si4 0.585402 0.467822 0.560694
Si Si5 0.916583 0.527660 0.239334
O O1 0.872386 0.250000 0.642188
O O2 0.785425 0.533141 0.643514
O O3 0.907570 0.526662 0.699785
O O4 0.925488 0.534367 0.594597
O O5 0.201041 0.250000 0.848340
O O6 0.146973 0.965183 0.898066
O O7 0.154089 0.969002 0.796546
O O8 0.500000 0.250000 0.931068
O O9 0.500000 0.000000 0.000000
O O10 0.606874 0.500000 0.500000
O O11 0.500000 0.540256 0.568700
O O12 0.581297 0.250000 0.568564
O O13 0.915804 0.750000 0.238215
O O14 0.000000 0.471546 0.219007
#
# Coordination Sequence:
#
# PCOD9537402 Si02
#       5
#    16  16   8  16  16
#     4   9  16  27  41  61  90 119 147 184 228 271
#     4   9  16  24  39  63  89 117 149 183 224 273
#     4  10  20  34  50  68  92 124 159 192 228 268
#     4   9  17  29  43  61  87 117 147 181 219 261
#     4   9  14  22  38  61  91 121 145 177 228 280
#
# _framework density 22.10622
#
# number of rings (size 3 to 8) (size 9 to 14) (size 15 to 20)
#    0.000    2.889    1.111    1.333    0.000    6.222 
#    0.000    0.000    0.000    0.000    0.000    1.556 
#    0.000    3.556    0.000    0.000    0.000    0.000 
#
# Total GULP energy -201040.239023 kJ/mol
# GULP energy per Si atom -5584.451084 kJ/mol
# Density = 2.205590 g / cm^3
# Si number density = 22.106220 Si / 1000 Ang^3
#
#
#
# Elastic Constant Matrix: (Units=GPa)
#
#
# Indices 1 2 3 4 5 6 
#
# 1 194.9355 6.3788 127.7346 0.0000 0.0000 0.0000
# 2 6.3788 88.9741 -2.4390 0.0000 0.0000 0.0000
# 3 127.7346 -2.4390 166.2251 0.0000 0.0000 0.0000
# 4 0.0000 0.0000 0.0000 11.2689 0.0000 0.0000
# 5 0.0000 0.0000 0.0000 0.0000 15.5933 0.0000
# 6 0.0000 0.0000 0.0000 0.0000 0.0000 889.2190
#
#
#
# Elastic Compliance Matrix: (Units=1/GPa)
#
#
# Indices 1 2 3 4 5 6 
#
# 1 0.010415 -0.000966 -0.008018 0.000000 0.000000 0.000000
# 2 -0.000966 0.011333 0.000909 0.000000 0.000000 0.000000
# 3 -0.008018 0.000909 0.012190 0.000000 0.000000 0.000000
# 4 0.000000 0.000000 0.000000 0.088740 0.000000 0.000000
# 5 0.000000 0.000000 0.000000 0.000000 0.064130 0.000000
# 6 0.000000 0.000000 0.000000 0.000000 0.000000 0.001125
#
#
# Mechanical properties :
#
#
# Convention : Reuss Voigt Hill
#
# Bulk Modulus (GPa) = 56.21549 79.27594 67.74572
# Shear Modulus (GPa) = 23.80796 204.44692 114.12744
#
# Velocity S-wave (km/s) = 3.28530 9.62729 7.19298
# Velocity P-wave (km/s) = 6.31473 12.63007 9.98485
#
# Compressibility (1/GPa) = 0.01778869
#
# Stress axis : x y z
#
# Youngs Moduli (GPa) = 96.01282 88.23454 82.03140
#
# Poissons Ratio (x) = 0.08528 0.65771
# Poissons Ratio (y) = 0.09280 -0.07457
# Poissons Ratio (z) = 0.76981 -0.08020
#
# Static dielectric constant tensor:
#      x y z
#    x 1.790610 0.000000 0.000000 
#    y 0.000000 1.884040 0.000000 
#    z 0.000000 0.000000 1.767350 
# 
# From -- ./inp_files/43736.got.cif
#   From: 2010.05.17/outbox.cif.g08.bks.cpg/sg74_22_cif.got.tgz:43736.got - 2010.06.03 17:57:02.
