data_PCOD9537094
_publ_section_title
;
Structure prediction by ZEFSAII (Michael W. Deem and Ramdas Pophale) SiO2 
 PCOD9537094
Probable space group: I M M A
;
_chemical_formula_sum "Si O2"
_cell_formula_units_Z 104
_cell_length_a 30.070940
_cell_length_b 7.645110
_cell_length_c 20.362573
_cell_angle_alpha 90.000000
_cell_angle_beta 90.000000
_cell_angle_gamma 90.000000
_cell_volume 4681.266835
_symmetry_space_group_name_H-M "I M M A"
_symmetry_group_IT_number 74
_symmetry_cell_setting 'orthorhombic'
loop_
_space_group_symop_operation_xyz
x,y,z
-x,1/2-y,z
x,-y,-z
-x,1/2+y,-z
-x,-y,-z
x,1/2+y,-z
-x,y,z
x,1/2-y,z
1/2+x,1/2+y,1/2+z
1/2-x,-y,1/2+z
1/2+x,1/2-y,1/2-z
1/2-x,y,1/2-z
1/2-x,1/2-y,1/2-z
1/2+x,y,1/2-z
1/2-x,1/2+y,1/2+z
1/2+x,-y,1/2+z
loop_
_atom_site_type_symbol
_atom_site_label
_atom_site_fract_x
_atom_site_fract_y
_atom_site_fract_z
Si Si1 0.675648 0.548713 0.186474
Si Si2 0.000000 0.456501 0.575721
Si Si3 0.500000 0.963392 0.730431
Si Si4 0.923499 0.953087 0.672183
Si Si5 0.402608 0.459999 0.570461
Si Si6 0.756682 0.039979 0.577431
Si Si7 0.500000 0.051353 0.583437
Si Si8 0.672926 0.964411 0.335202
O O1 0.690679 0.750000 0.193039
O O2 0.623542 0.545652 0.169215
O O3 0.703784 0.473827 0.125549
O O4 0.680450 0.473585 0.260415
O O5 0.000000 0.500000 0.500000
O O6 0.955596 0.530519 0.609495
O O7 0.000000 0.250000 0.586844
O O8 0.500000 0.750000 0.725818
O O9 0.544123 0.016076 0.769861
O O10 0.500000 0.052788 0.661374
O O11 0.913497 0.750000 0.683405
O O12 0.380721 0.500000 0.500000
O O13 0.406176 0.250000 0.576913
O O14 0.452637 0.534429 0.567635
O O15 0.373415 0.522438 0.631717
O O16 0.757056 0.250000 0.579624
O O17 0.711583 0.982496 0.614236
O O18 0.759779 0.000000 0.500000
O O19 0.500000 0.250000 0.557007
O O20 0.672080 0.750000 0.333279
#
# Coordination Sequence:
#
# PCOD9537094 Si02
#       8
#    16   8   8  16  16  16   8  16
#     4  10  20  36  59  84 109 144 190 235 282 337
#     4  11  22  38  60  84 112 151 195 235 279 332
#     4   9  19  34  52  75 104 139 176 218 267 317
#     4  10  21  37  55  81 116 147 181 228 281 337
#     4  10  20  33  50  74 105 141 180 224 275 328
#     4  10  21  37  58  83 111 144 183 231 286 342
#     4  10  20  32  49  75 106 140 179 223 267 317
#     4   9  18  35  58  81 106 141 189 238 280 333
#
# _framework density 22.216208999999999
#
# number of rings (size 3 to 8) (size 9 to 14) (size 15 to 20)
#    0.000    2.154    0.000    3.692    0.000    6.769 
#    0.000    3.077    0.000    1.846    0.000    0.000 
#    0.000    0.000    0.000    0.000    0.000    0.000 
#
# Total GULP energy -290303.819614 kJ/mol
# GULP energy per Si atom -5582.765762 kJ/mol
# Density = 2.216564 g / cm^3
# Si number density = 22.216209 Si / 1000 Ang^3
#
#
#
# Elastic Constant Matrix: (Units=GPa)
#
#
# Indices 1 2 3 4 5 6 
#
# 1 140.0194 6.8460 86.1363 0.0000 0.0000 0.0000
# 2 6.8460 46.9708 -0.3830 0.0000 0.0000 0.0000
# 3 86.1363 -0.3830 206.9272 0.0000 0.0000 0.0000
# 4 0.0000 0.0000 0.0000 24.8123 0.0000 0.0000
# 5 0.0000 0.0000 0.0000 0.0000 21.1586 0.0000
# 6 0.0000 0.0000 0.0000 0.0000 0.0000 15.1535
#
#
#
# Elastic Compliance Matrix: (Units=1/GPa)
#
#
# Indices 1 2 3 4 5 6 
#
# 1 0.009698 -0.001446 -0.004039 0.000000 0.000000 0.000000
# 2 -0.001446 0.021506 0.000642 0.000000 0.000000 0.000000
# 3 -0.004039 0.000642 0.006515 0.000000 0.000000 0.000000
# 4 0.000000 0.000000 0.000000 0.040303 0.000000 0.000000
# 5 0.000000 0.000000 0.000000 0.000000 0.047262 0.000000
# 6 0.000000 0.000000 0.000000 0.000000 0.000000 0.065992
#
#
# Mechanical properties :
#
#
# Convention : Reuss Voigt Hill
#
# Bulk Modulus (GPa) = 35.67496 64.34622 50.01059
# Shear Modulus (GPa) = 23.77485 32.31275 28.04380
#
# Velocity S-wave (km/s) = 3.27488 3.81789 3.55676
# Velocity P-wave (km/s) = 5.51296 6.96143 6.27910
#
# Compressibility (1/GPa) = 0.02803086
#
# Stress axis : x y z
#
# Youngs Moduli (GPa) = 103.11916 46.49900 153.48581
#
# Poissons Ratio (x) = 0.06725 0.61999
# Poissons Ratio (y) = 0.14915 -0.09852
# Poissons Ratio (z) = 0.41654 -0.02985
#
# Static dielectric constant tensor:
#      x y z
#    x 1.794420 0.000000 0.000000 
#    y 0.000000 1.868100 0.000000 
#    z 0.000000 0.000000 1.803540 
# 
# From -- ./inp_files/55306.got.cif
#   From: 2010.05.17/outbox.cif.g08.bks.cpg/sg74_28_cif.got.tgz:55306.got - 2010.06.03 17:57:02.
