data_PCOD9537926
_publ_section_title
;
Structure prediction by ZEFSAII (Michael W. Deem and Ramdas Pophale) SiO2 
 PCOD9537926
Probable space group: I M M A
;
_chemical_formula_sum "Si O2"
_cell_formula_units_Z 80
_cell_length_a 27.447449
_cell_length_b 17.224006
_cell_length_c 8.503600
_cell_angle_alpha 90.000000
_cell_angle_beta 90.000000
_cell_angle_gamma 90.000000
_cell_volume 4020.119641
_symmetry_space_group_name_H-M "I M M A"
_symmetry_group_IT_number 74
_symmetry_cell_setting 'orthorhombic'
loop_
_space_group_symop_operation_xyz
x,y,z
-x,1/2-y,z
x,-y,-z
-x,1/2+y,-z
-x,-y,-z
x,1/2+y,-z
-x,y,z
x,1/2-y,z
1/2+x,1/2+y,1/2+z
1/2-x,-y,1/2+z
1/2+x,1/2-y,1/2-z
1/2-x,y,1/2-z
1/2-x,1/2-y,1/2-z
1/2+x,y,1/2-z
1/2-x,1/2+y,1/2+z
1/2+x,-y,1/2+z
loop_
_atom_site_type_symbol
_atom_site_label
_atom_site_fract_x
_atom_site_fract_y
_atom_site_fract_z
Si Si1 0.054359 0.659069 0.601257
Si Si2 0.052877 0.409950 0.058437
Si Si3 0.746217 0.160766 0.941388
Si Si4 0.652989 0.087710 0.562579
Si Si5 0.145445 0.913982 0.437824
O O1 0.057636 0.750000 0.648709
O O2 0.099983 0.637911 0.492746
O O3 0.000000 0.648334 0.529333
O O4 0.055994 0.603480 0.754417
O O5 0.102496 0.374256 0.993043
O O6 0.000000 0.377430 0.008963
O O7 0.052990 0.500000 0.000000
O O8 0.740347 0.250000 0.984844
O O9 0.750000 0.156385 0.750000
O O10 0.798076 0.128660 0.996605
O O11 0.698306 0.115311 0.996628
O O12 0.650023 0.086058 0.750284
O O13 0.654978 0.000000 0.500000
O O14 0.136550 0.000000 0.500000
#
# Coordination Sequence:
#
# PCOD9537926 Si02
#       5
#    16  16  16  16  16
#     4  10  22  40  60  85 119 154 190 239 295 346
#     4   9  18  35  58  83 114 151 192 238 288 344
#     4   9  19  35  54  78 110 147 186 232 287 342
#     4  10  20  35  56  82 113 147 188 236 283 337
#     4  11  21  35  59  85 113 150 191 237 285 339
#
# _framework density 19.899906999999999
#
# number of rings (size 3 to 8) (size 9 to 14) (size 15 to 20)
#    0.000    2.200    0.000    3.600    0.000    2.800 
#    0.000    3.000    0.000    8.400    0.000    0.000 
#    0.000    0.000    0.000    0.000    0.000    0.000 
#
# Total GULP energy -222979.452696 kJ/mol
# GULP energy per Si atom -5574.486317 kJ/mol
# Density = 1.985461 g / cm^3
# Si number density = 19.899907 Si / 1000 Ang^3
#
#
#
# Elastic Constant Matrix: (Units=GPa)
#
#
# Indices 1 2 3 4 5 6 
#
# 1 194.0746 33.5049 33.6681 0.0000 0.0000 0.0000
# 2 33.5049 60.1384 13.1103 0.0000 0.0000 0.0000
# 3 33.6681 13.1103 42.2513 0.0000 0.0000 0.0000
# 4 0.0000 0.0000 0.0000 12.1591 0.0000 0.0000
# 5 0.0000 0.0000 0.0000 0.0000 10.6183 0.0000
# 6 0.0000 0.0000 0.0000 0.0000 0.0000 29.9990
#
#
#
# Elastic Compliance Matrix: (Units=1/GPa)
#
#
# Indices 1 2 3 4 5 6 
#
# 1 0.006339 -0.002607 -0.004242 0.000000 0.000000 0.000000
# 2 -0.002607 0.018907 -0.003790 0.000000 0.000000 0.000000
# 3 -0.004242 -0.003790 0.028224 0.000000 0.000000 0.000000
# 4 0.000000 0.000000 0.000000 0.082243 0.000000 0.000000
# 5 0.000000 0.000000 0.000000 0.000000 0.094177 0.000000
# 6 0.000000 0.000000 0.000000 0.000000 0.000000 0.033334
#
#
# Mechanical properties :
#
#
# Convention : Reuss Voigt Hill
#
# Bulk Modulus (GPa) = 31.06280 50.78122 40.92201
# Shear Modulus (GPa) = 16.93588 24.96734 20.95161
#
# Velocity S-wave (km/s) = 2.92045 3.54594 3.24828
# Velocity P-wave (km/s) = 5.19764 6.50682 5.88872
#
# Compressibility (1/GPa) = 0.03219285
#
# Stress axis : x y z
#
# Youngs Moduli (GPa) = 157.76396 52.89143 35.43069
#
# Poissons Ratio (x) = 0.13787 0.15030
# Poissons Ratio (y) = 0.41123 0.13427
# Poissons Ratio (z) = 0.66925 0.20043
#
# Static dielectric constant tensor:
#      x y z
#    x 1.752180 0.000000 0.000000 
#    y 0.000000 1.687640 0.000000 
#    z 0.000000 0.000000 1.673450 
# 
# From -- ./inp_files/14943.got.cif
#   From: 2010.05.17/outbox.cif.g08.bks.cpg/sg74_8_cif.got.tgz:14943.got - 2010.06.03 17:57:02.
