data_PCOD9537048
_publ_section_title
;
Structure prediction by ZEFSAII (Michael W. Deem and Ramdas Pophale) SiO2 
 PCOD9537048
Probable space group: I M M A
;
_chemical_formula_sum "Si O2"
_cell_formula_units_Z 96
_cell_length_a 17.106776
_cell_length_b 24.943454
_cell_length_c 13.633992
_cell_angle_alpha 90.000000
_cell_angle_beta 90.000000
_cell_angle_gamma 90.000000
_cell_volume 5817.652748
_symmetry_space_group_name_H-M "I M M A"
_symmetry_group_IT_number 74
_symmetry_cell_setting 'orthorhombic'
loop_
_space_group_symop_operation_xyz
x,y,z
-x,1/2-y,z
x,-y,-z
-x,1/2+y,-z
-x,-y,-z
x,1/2+y,-z
-x,y,z
x,1/2-y,z
1/2+x,1/2+y,1/2+z
1/2-x,-y,1/2+z
1/2+x,1/2-y,1/2-z
1/2-x,y,1/2-z
1/2-x,1/2-y,1/2-z
1/2+x,y,1/2-z
1/2-x,1/2+y,1/2+z
1/2+x,-y,1/2+z
loop_
_atom_site_type_symbol
_atom_site_label
_atom_site_fract_x
_atom_site_fract_y
_atom_site_fract_z
Si Si1 0.198511 0.610433 0.657699
Si Si2 0.595266 0.311096 0.808712
Si Si3 0.332624 0.440037 0.468230
Si Si4 0.591112 0.027673 0.269673
Si Si5 0.091351 0.186118 0.466468
Si Si6 0.905744 0.907899 0.170237
O O1 0.250000 0.630072 0.750000
O O2 0.259041 0.590320 0.576278
O O3 0.146947 0.560776 0.697895
O O4 0.142520 0.654425 0.611116
O O5 0.500000 0.310516 0.807204
O O6 0.620735 0.250000 0.786096
O O7 0.621012 0.356759 0.733147
O O8 0.616802 0.324670 0.920969
O O9 0.309496 0.500000 0.500000
O O10 0.393797 0.448649 0.378930
O O11 0.369031 0.411222 0.562386
O O12 0.500000 0.032958 0.243715
O O13 0.611824 0.964584 0.276195
O O14 0.096827 0.250000 0.452549
O O15 0.000000 0.171016 0.457589
O O16 0.000000 0.905755 0.160783
#
# Coordination Sequence:
#
# PCOD9537048 Si02
#       6
#    16  16  16  16  16  16
#     4  10  20  32  47  70  98 125 155 196 243 284
#     4   8  15  29  49  72  95 119 153 196 236 276
#     4   9  18  31  46  68 100 132 155 184 238 296
#     4   9  17  30  49  72  95 123 164 204 233 275
#     4   9  18  34  54  71  90 123 163 198 236 283
#     4   9  16  29  51  74  95 125 163 198 235 281
#
# _framework density 16.501501000000001
#
# number of rings (size 3 to 8) (size 9 to 14) (size 15 to 20)
#    0.000    3.000    0.000    2.000    0.000    3.667 
#    0.000    3.333    0.000    8.000    0.000    9.333 
#    0.000    0.000    0.000    0.000    0.000    0.000 
#
# Total GULP energy -267454.019883 kJ/mol
# GULP energy per Si atom -5571.958748 kJ/mol
# Density = 1.646394 g / cm^3
# Si number density = 16.501501 Si / 1000 Ang^3
#
#
#
# Elastic Constant Matrix: (Units=GPa)
#
#
# Indices 1 2 3 4 5 6 
#
# 1 51.0066 45.7005 47.6622 0.0000 0.0000 0.0000
# 2 45.7005 91.1458 80.3920 0.0000 0.0000 0.0000
# 3 47.6622 80.3920 106.0107 0.0000 0.0000 0.0000
# 4 0.0000 0.0000 0.0000 28.9510 0.0000 0.0000
# 5 0.0000 0.0000 0.0000 0.0000 24.3593 0.0000
# 6 0.0000 0.0000 0.0000 0.0000 0.0000 9.2656
#
#
#
# Elastic Compliance Matrix: (Units=1/GPa)
#
#
# Indices 1 2 3 4 5 6 
#
# 1 0.037662 -0.011925 -0.007890 0.000000 0.000000 0.000000
# 2 -0.011925 0.036909 -0.022628 0.000000 0.000000 0.000000
# 3 -0.007890 -0.022628 0.030140 0.000000 0.000000 0.000000
# 4 0.000000 0.000000 0.000000 0.034541 0.000000 0.000000
# 5 0.000000 0.000000 0.000000 0.000000 0.041052 0.000000
# 6 0.000000 0.000000 0.000000 0.000000 0.000000 0.107926
#
#
# Mechanical properties :
#
#
# Convention : Reuss Voigt Hill
#
# Bulk Modulus (GPa) = 50.43982 66.18584 58.31283
# Shear Modulus (GPa) = 13.16748 17.47573 15.32161
#
# Velocity S-wave (km/s) = 2.82788 3.25782 3.05043
# Velocity P-wave (km/s) = 6.42617 7.37206 6.91531
#
# Compressibility (1/GPa) = 0.01982561
#
# Stress axis : x y z
#
# Youngs Moduli (GPa) = 26.55187 27.09384 33.17885
#
# Poissons Ratio (x) = 0.32310 0.26177
# Poissons Ratio (y) = 0.31663 0.75076
# Poissons Ratio (z) = 0.20948 0.61307
#
# Static dielectric constant tensor:
#      x y z
#    x 1.550810 0.000000 0.000000 
#    y 0.000000 1.539950 0.000000 
#    z 0.000000 0.000000 1.546630 
# 
# From -- ./inp_files/22419.got.cif
#   From: 2010.05.17/outbox.cif.g08.bks.cpg/sg74_12_cif.got.tgz:22419.got - 2010.06.03 17:57:02.
