data_PCOD9537125
_publ_section_title
;
Structure prediction by ZEFSAII (Michael W. Deem and Ramdas Pophale) SiO2 
 PCOD9537125
Probable space group: I M M A
;
_chemical_formula_sum "Si O2"
_cell_formula_units_Z 96
_cell_length_a 23.089194
_cell_length_b 25.369459
_cell_length_c 8.222850
_cell_angle_alpha 90.000000
_cell_angle_beta 90.000000
_cell_angle_gamma 90.000000
_cell_volume 4816.619581
_symmetry_space_group_name_H-M "I M M A"
_symmetry_group_IT_number 74
_symmetry_cell_setting 'orthorhombic'
loop_
_space_group_symop_operation_xyz
x,y,z
-x,1/2-y,z
x,-y,-z
-x,1/2+y,-z
-x,-y,-z
x,1/2+y,-z
-x,y,z
x,1/2-y,z
1/2+x,1/2+y,1/2+z
1/2-x,-y,1/2+z
1/2+x,1/2-y,1/2-z
1/2-x,y,1/2-z
1/2-x,1/2-y,1/2-z
1/2+x,y,1/2-z
1/2-x,1/2+y,1/2+z
1/2+x,-y,1/2+z
loop_
_atom_site_type_symbol
_atom_site_label
_atom_site_fract_x
_atom_site_fract_y
_atom_site_fract_z
Si Si1 0.841624 0.626372 0.856751
Si Si2 0.736045 0.840254 0.067285
Si Si3 0.614390 0.309039 0.061829
Si Si4 0.064486 0.586564 0.433503
Si Si5 0.315691 0.056463 0.059708
Si Si6 0.433878 0.939764 0.446208
O O1 0.877978 0.664653 0.738892
O O2 0.812064 0.581468 0.740712
O O3 0.792138 0.658700 0.951639
O O4 0.885463 0.597163 0.975843
O O5 0.750000 0.824759 0.250000
O O6 0.680781 0.808957 0.001723
O O7 0.713270 0.900575 0.058333
O O8 0.591168 0.250000 0.063127
O O9 0.578604 0.351113 0.954753
O O10 0.115167 0.558332 0.531526
O O11 0.068565 0.568057 0.247649
O O12 0.000000 0.575563 0.495065
O O13 0.293995 0.000000 0.000000
O O14 0.500000 0.926426 0.497989
O O15 0.423269 0.000000 0.500000
#
# Coordination Sequence:
#
# PCOD9537125 Si02
#       6
#    16  16  16  16  16  16
#     4  10  20  35  55  80 111 143 183 231 274 329
#     4  10  21  36  54  78 108 141 180 225 276 333
#     4  10  22  39  58  79 105 141 185 233 282 326
#     4   9  19  36  55  78 110 143 182 228 269 323
#     4  10  20  32  50  79 111 146 183 220 268 323
#     4  10  20  35  57  84 114 148 181 218 268 324
#
# _framework density 19.930990000000001
#
# number of rings (size 3 to 8) (size 9 to 14) (size 15 to 20)
#    0.000    2.500    0.000    5.000    0.000    7.000 
#    0.000    2.500    0.000    1.000    0.000    0.000 
#    0.000    0.000    0.000    0.000    0.000    0.000 
#
# Total GULP energy -267733.198969 kJ/mol
# GULP energy per Si atom -5577.774979 kJ/mol
# Density = 1.988563 g / cm^3
# Si number density = 19.930990 Si / 1000 Ang^3
#
#
#
# Elastic Constant Matrix: (Units=GPa)
#
#
# Indices 1 2 3 4 5 6 
#
# 1 66.6005 -24.7275 14.0241 0.0000 0.0000 0.0000
# 2 -24.7275 77.9640 -11.0126 0.0000 0.0000 0.0000
# 3 14.0241 -11.0126 67.8630 0.0000 0.0000 0.0000
# 4 0.0000 0.0000 0.0000 5.4759 0.0000 0.0000
# 5 0.0000 0.0000 0.0000 0.0000 11.5011 0.0000
# 6 0.0000 0.0000 0.0000 0.0000 0.0000 -1.8785
#
#
#
# Elastic Compliance Matrix: (Units=1/GPa)
#
#
# Indices 1 2 3 4 5 6 
#
# 1 0.017518 0.005163 -0.002782 0.000000 0.000000 0.000000
# 2 0.005163 0.014649 0.001310 0.000000 0.000000 0.000000
# 3 -0.002782 0.001310 0.015523 0.000000 0.000000 0.000000
# 4 0.000000 0.000000 0.000000 0.182619 0.000000 0.000000
# 5 0.000000 0.000000 0.000000 0.000000 0.086948 0.000000
# 6 0.000000 0.000000 0.000000 0.000000 0.000000 -0.532333
#
#
# Mechanical properties :
#
#
# Convention : Reuss Voigt Hill
#
# Bulk Modulus (GPa) = 18.15806 18.77726 18.46766
# Shear Modulus (GPa) = -24.49780 18.62925 -2.93427
#
# Velocity S-wave (km/s) = -3.50970 3.06058 -1.21467
# Velocity P-wave (km/s) = 2.70069 4.68307 2.70531
#
# Compressibility (1/GPa) = 0.05507195
#
# Stress axis : x y z
#
# Youngs Moduli (GPa) = 57.08515 68.26381 64.41988
#
# Poissons Ratio (x) = -0.35245 0.17923
# Poissons Ratio (y) = -0.29473 -0.08441
# Poissons Ratio (z) = 0.15882 -0.08944
#
# Static dielectric constant tensor:
#      x y z
#    x 1.723710 0.000000 0.000000 
#    y 0.000000 1.717140 0.000000 
#    z 0.000000 0.000000 1.710960 
# 
# From -- ./inp_files/12634.got.cif
#   From: 2010.05.17/outbox.cif.g08.bks.cpg/sg74_7_cif.got.tgz:12634.got - 2010.06.03 17:57:02.
