data_PCOD9537761
_publ_section_title
;
Structure prediction by ZEFSAII (Michael W. Deem and Ramdas Pophale) SiO2 
 PCOD9537761
Probable space group: I M M A
;
_chemical_formula_sum "Si O2"
_cell_formula_units_Z 116
_cell_length_a 19.420541
_cell_length_b 13.676482
_cell_length_c 21.347224
_cell_angle_alpha 90.000000
_cell_angle_beta 90.000000
_cell_angle_gamma 90.000000
_cell_volume 5669.922587
_symmetry_space_group_name_H-M "I M M A"
_symmetry_group_IT_number 74
_symmetry_cell_setting 'orthorhombic'
loop_
_space_group_symop_operation_xyz
x,y,z
-x,1/2-y,z
x,-y,-z
-x,1/2+y,-z
-x,-y,-z
x,1/2+y,-z
-x,y,z
x,1/2-y,z
1/2+x,1/2+y,1/2+z
1/2-x,-y,1/2+z
1/2+x,1/2-y,1/2-z
1/2-x,y,1/2-z
1/2-x,1/2-y,1/2-z
1/2+x,y,1/2-z
1/2-x,1/2+y,1/2+z
1/2+x,-y,1/2+z
loop_
_atom_site_type_symbol
_atom_site_label
_atom_site_fract_x
_atom_site_fract_y
_atom_site_fract_z
Si Si1 0.168653 0.360563 0.951036
Si Si2 0.156754 0.425971 0.088223
Si Si3 0.576033 0.072510 0.290857
Si Si4 0.317926 0.466593 0.783823
Si Si5 0.304601 0.134548 0.131840
Si Si6 0.329158 0.864263 0.082347
Si Si7 0.500000 0.250000 0.237530
Si Si8 0.578641 0.130875 0.032927
O O1 0.152115 0.250000 0.929539
O O2 0.143788 0.457142 0.914749
O O3 0.252274 0.369933 0.947182
O O4 0.141321 0.376389 0.021718
O O5 0.117124 0.388194 0.148921
O O6 0.237603 0.406136 0.096660
O O7 0.500000 0.040758 0.312436
O O8 0.616959 0.982151 0.260619
O O9 0.558981 0.162412 0.243807
O O10 0.250000 0.425626 0.750000
O O11 0.303037 0.578440 0.803229
O O12 0.330506 0.413597 0.849674
O O13 0.299596 0.250000 0.136618
O O14 0.372351 0.108813 0.091657
O O15 0.343519 0.750000 0.091978
O O16 0.384265 0.901255 0.031376
O O17 0.500000 0.097697 0.039922
O O18 0.577083 0.250000 0.030604
#
# Coordination Sequence:
#
# PCOD9537761 Si02
#       8
#    16  16  16  16  16  16   4  16
#     4  10  20  34  62  94 125 154 197 254 311 358
#     4  11  20  38  62  89 122 157 201 249 303 369
#     4  10  24  42  62  86 122 161 205 250 302 360
#     4  12  24  39  59  89 120 160 210 255 296 352
#     4  11  22  33  59  89 117 154 202 249 300 360
#     4  10  20  37  60  86 121 161 202 251 304 359
#     4   8  24  44  66  82 126 166 206 250 318 348
#     4   9  19  37  56  85 123 159 194 240 299 365
#
# _framework density 20.458834
#
# number of rings (size 3 to 8) (size 9 to 14) (size 15 to 20)
#    0.414    1.241    4.138    0.414    2.897    2.207 
#    0.000    2.759    0.000    2.069    0.000    0.000 
#    0.000    0.000    0.000    0.000    0.000    0.000 
#
# Total GULP energy -322918.361946 kJ/mol
# GULP energy per Si atom -5567.557965 kJ/mol
# Density = 2.041227 g / cm^3
# Si number density = 20.458834 Si / 1000 Ang^3
#
#
#
# Elastic Constant Matrix: (Units=GPa)
#
#
# Indices 1 2 3 4 5 6 
#
# 1 64.1701 9.8307 35.7159 0.0000 0.0000 0.0000
# 2 9.8307 81.1960 4.9479 0.0000 0.0000 0.0000
# 3 35.7159 4.9479 79.5317 0.0000 0.0000 0.0000
# 4 0.0000 0.0000 0.0000 17.1155 0.0000 0.0000
# 5 0.0000 0.0000 0.0000 0.0000 1.4226 0.0000
# 6 0.0000 0.0000 0.0000 0.0000 0.0000 16.8739
#
#
#
# Elastic Compliance Matrix: (Units=1/GPa)
#
#
# Indices 1 2 3 4 5 6 
#
# 1 0.021090 -0.001984 -0.009348 0.000000 0.000000 0.000000
# 2 -0.001984 0.012549 0.000110 0.000000 0.000000 0.000000
# 3 -0.009348 0.000110 0.016765 0.000000 0.000000 0.000000
# 4 0.000000 0.000000 0.000000 0.058427 0.000000 0.000000
# 5 0.000000 0.000000 0.000000 0.000000 0.702929 0.000000
# 6 0.000000 0.000000 0.000000 0.000000 0.000000 0.059263
#
#
# Mechanical properties :
#
#
# Convention : Reuss Voigt Hill
#
# Bulk Modulus (GPa) = 35.76360 36.20965 35.98662
# Shear Modulus (GPa) = 5.53841 18.70927 12.12384
#
# Velocity S-wave (km/s) = 1.64711 3.02732 2.43697
# Velocity P-wave (km/s) = 4.59739 5.47328 5.05434
#
# Compressibility (1/GPa) = 0.02796139
#
# Stress axis : x y z
#
# Youngs Moduli (GPa) = 47.41513 79.68532 59.64943
#
# Poissons Ratio (x) = 0.15808 0.55759
# Poissons Ratio (y) = 0.09406 -0.00657
# Poissons Ratio (z) = 0.44323 -0.00878
#
# Static dielectric constant tensor:
#      x y z
#    x 1.753830 0.000000 0.000000 
#    y 0.000000 1.752750 0.000000 
#    z 0.000000 0.000000 1.747650 
# 
# From -- ./inp_files/61020.got.cif
#   From: 2010.05.17/outbox.cif.g08.bks.cpg/sg74_31_cif.got.tgz:61020.got - 2010.06.03 17:57:02.
