data_PCOD9537074
_publ_section_title
;
Structure prediction by ZEFSAII (Michael W. Deem and Ramdas Pophale) SiO2 
 PCOD9537074
Probable space group: I M M A
;
_chemical_formula_sum "Si O2"
_cell_formula_units_Z 104
_cell_length_a 26.264312
_cell_length_b 9.427245
_cell_length_c 23.780275
_cell_angle_alpha 90.000000
_cell_angle_beta 90.000000
_cell_angle_gamma 90.000000
_cell_volume 5887.998563
_symmetry_space_group_name_H-M "I M M A"
_symmetry_group_IT_number 74
_symmetry_cell_setting 'orthorhombic'
loop_
_space_group_symop_operation_xyz
x,y,z
-x,1/2-y,z
x,-y,-z
-x,1/2+y,-z
-x,-y,-z
x,1/2+y,-z
-x,y,z
x,1/2-y,z
1/2+x,1/2+y,1/2+z
1/2-x,-y,1/2+z
1/2+x,1/2-y,1/2-z
1/2-x,y,1/2-z
1/2-x,1/2-y,1/2-z
1/2+x,y,1/2-z
1/2-x,1/2+y,1/2+z
1/2+x,-y,1/2+z
loop_
_atom_site_type_symbol
_atom_site_label
_atom_site_fract_x
_atom_site_fract_y
_atom_site_fract_z
Si Si1 0.500000 0.581538 0.058211
Si Si2 0.338589 0.415638 0.780231
Si Si3 0.357705 0.581302 0.343805
Si Si4 0.247556 0.087319 0.167095
Si Si5 0.304325 0.589981 0.951899
Si Si6 0.940030 0.579033 0.059385
Si Si7 0.608497 0.916524 0.102191
O O1 0.500000 0.750000 0.047169
O O2 0.449674 0.547146 0.092650
O O3 0.500000 0.500000 0.000000
O O4 0.321941 0.250000 0.779636
O O5 0.369628 0.440225 0.722648
O O6 0.288776 0.512013 0.791688
O O7 0.374032 0.438291 0.833997
O O8 0.349239 0.750000 0.352134
O O9 0.304043 0.499005 0.344885
O O10 0.400558 0.539305 0.390020
O O11 0.237144 0.250000 0.184138
O O12 0.274614 0.090849 0.106419
O O13 0.312285 0.750000 0.970940
O O14 0.356634 0.510979 0.937644
O O15 0.276920 0.500000 0.000000
O O16 0.935954 0.750000 0.051599
O O17 0.000000 0.549060 0.073249
O O18 0.928726 0.500000 0.000000
O O19 0.616455 0.750000 0.089401
#
# Coordination Sequence:
#
# PCOD9537074 Si02
#       7
#     8  16  16  16  16  16  16
#     4  10  20  32  48  72  98 128 167 208 248 292
#     4   9  18  34  53  74 103 138 171 208 255 305
#     4  10  20  34  54  80 105 134 171 209 254 307
#     4  10  21  34  50  75 106 138 172 212 256 304
#     4  10  20  33  49  70  97 131 170 209 254 302
#     4   9  19  37  58  80 107 138 173 215 264 316
#     4   9  18  33  50  70  98 131 168 208 252 298
#
# _framework density 17.663048
#
# number of rings (size 3 to 8) (size 9 to 14) (size 15 to 20)
#    0.000    2.462    0.000    1.846    0.000    7.385 
#    1.385    3.077    0.000    0.000    0.000    0.000 
#    0.000    0.000    0.000    0.000    0.000    0.000 
#
# Total GULP energy -289674.046776 kJ/mol
# GULP energy per Si atom -5570.654746 kJ/mol
# Density = 1.762285 g / cm^3
# Si number density = 17.663048 Si / 1000 Ang^3
#
#
#
# Elastic Constant Matrix: (Units=GPa)
#
#
# Indices 1 2 3 4 5 6 
#
# 1 101.6946 41.8808 59.4633 0.0000 0.0000 0.0000
# 2 41.8808 57.8286 49.0570 0.0000 0.0000 0.0000
# 3 59.4633 49.0570 124.2637 0.0000 0.0000 0.0000
# 4 0.0000 0.0000 0.0000 27.4888 0.0000 0.0000
# 5 0.0000 0.0000 0.0000 0.0000 30.0795 0.0000
# 6 0.0000 0.0000 0.0000 0.0000 0.0000 12.0071
#
#
#
# Elastic Compliance Matrix: (Units=1/GPa)
#
#
# Indices 1 2 3 4 5 6 
#
# 1 0.015520 -0.007427 -0.004495 0.000000 0.000000 0.000000
# 2 -0.007427 0.029554 -0.008113 0.000000 0.000000 0.000000
# 3 -0.004495 -0.008113 0.013401 0.000000 0.000000 0.000000
# 4 0.000000 0.000000 0.000000 0.036378 0.000000 0.000000
# 5 0.000000 0.000000 0.000000 0.000000 0.033245 0.000000
# 6 0.000000 0.000000 0.000000 0.000000 0.000000 0.083284
#
#
# Mechanical properties :
#
#
# Convention : Reuss Voigt Hill
#
# Bulk Modulus (GPa) = 54.33266 64.95436 59.64351
# Shear Modulus (GPa) = 19.41080 22.80748 21.10914
#
# Velocity S-wave (km/s) = 3.31864 3.59730 3.46077
# Velocity P-wave (km/s) = 6.74625 7.35582 7.05762
#
# Compressibility (1/GPa) = 0.01840513
#
# Stress axis : x y z
#
# Youngs Moduli (GPa) = 64.43196 33.83633 74.61997
#
# Poissons Ratio (x) = 0.25131 0.33540
# Poissons Ratio (y) = 0.47855 0.60542
# Poissons Ratio (z) = 0.28960 0.27452
#
# Static dielectric constant tensor:
#      x y z
#    x 1.585760 0.000000 0.000000 
#    y 0.000000 1.617540 0.000000 
#    z 0.000000 0.000000 1.641100 
# 
# From -- ./inp_files/62347.got.cif
#   From: 2010.05.17/outbox.cif.g08.bks.cpg/sg74_32_cif.got.tgz:62347.got - 2010.06.03 17:57:02.
