data_PCOD9537265
_publ_section_title
;
Structure prediction by ZEFSAII (Michael W. Deem and Ramdas Pophale) SiO2 
 PCOD9537265
Probable space group: I M M A
;
_chemical_formula_sum "Si O2"
_cell_formula_units_Z 96
_cell_length_a 9.498591
_cell_length_b 21.816824
_cell_length_c 24.055185
_cell_angle_alpha 90.000000
_cell_angle_beta 90.000000
_cell_angle_gamma 90.000000
_cell_volume 4984.934052
_symmetry_space_group_name_H-M "I M M A"
_symmetry_group_IT_number 74
_symmetry_cell_setting 'orthorhombic'
loop_
_space_group_symop_operation_xyz
x,y,z
-x,1/2-y,z
x,-y,-z
-x,1/2+y,-z
-x,-y,-z
x,1/2+y,-z
-x,y,z
x,1/2-y,z
1/2+x,1/2+y,1/2+z
1/2-x,-y,1/2+z
1/2+x,1/2-y,1/2-z
1/2-x,y,1/2-z
1/2-x,1/2-y,1/2-z
1/2+x,y,1/2-z
1/2-x,1/2+y,1/2+z
1/2+x,-y,1/2+z
loop_
_atom_site_type_symbol
_atom_site_label
_atom_site_fract_x
_atom_site_fract_y
_atom_site_fract_z
Si Si1 0.662553 0.931728 0.799840
Si Si2 0.834660 0.320284 0.153085
Si Si3 0.840030 0.483137 0.421898
Si Si4 0.165655 0.628649 0.425577
Si Si5 0.165894 0.872099 0.968515
Si Si6 0.164436 0.324005 0.695351
O O1 0.500000 0.923690 0.784768
O O2 0.750000 0.960840 0.750000
O O3 0.736179 0.867245 0.814518
O O4 0.670440 0.970172 0.856297
O O5 0.805625 0.250000 0.166960
O O6 0.813183 0.331835 0.087112
O O7 0.000000 0.333298 0.164157
O O8 0.820966 0.555053 0.429716
O O9 0.731694 0.438274 0.452172
O O10 0.000000 0.466071 0.439419
O O11 0.254390 0.653320 0.477492
O O12 0.212935 0.649917 0.364272
O O13 0.000000 0.644659 0.430865
O O14 0.000000 0.877305 0.979190
O O15 0.173193 0.250000 0.692364
O O16 0.250000 0.343994 0.750000
O O17 0.000000 0.341022 0.701835
#
# Coordination Sequence:
#
# PCOD9537265 Si02
#       6
#    16  16  16  16  16  16
#     4  10  20  34  52  74 100 131 168 209 252 297
#     4   9  19  36  54  72  99 134 169 207 250 294
#     4   9  19  35  52  71 100 137 170 202 246 298
#     4  10  20  34  53  76 102 134 169 202 243 300
#     4  10  20  33  51  77 105 131 164 208 252 292
#     4   9  19  36  55  75 101 132 166 206 250 294
#
# _framework density 19.258027999999999
#
# number of rings (size 3 to 8) (size 9 to 14) (size 15 to 20)
#    0.000    2.500    0.000    1.500    0.000    6.667 
#    0.000    0.000    0.000    0.000    0.000    0.000 
#    0.000    0.000    0.000    0.000    0.000    0.000 
#
# Total GULP energy -267928.190037 kJ/mol
# GULP energy per Si atom -5581.837292 kJ/mol
# Density = 1.921420 g / cm^3
# Si number density = 19.258028 Si / 1000 Ang^3
#
#
#
# Elastic Constant Matrix: (Units=GPa)
#
#
# Indices 1 2 3 4 5 6 
#
# 1 65.7095 0.0319 43.6845 0.0000 0.0000 0.0000
# 2 0.0319 3.3279 -9.6115 0.0000 0.0000 0.0000
# 3 43.6845 -9.6115 118.4580 0.0000 0.0000 0.0000
# 4 0.0000 0.0000 0.0000 2.0136 0.0000 0.0000
# 5 0.0000 0.0000 0.0000 0.0000 39.1012 0.0000
# 6 0.0000 0.0000 0.0000 0.0000 0.0000 12.9457
#
#
#
# Elastic Compliance Matrix: (Units=1/GPa)
#
#
# Indices 1 2 3 4 5 6 
#
# 1 0.022432 -0.031484 -0.010827 0.000000 0.000000 0.000000
# 2 -0.031484 0.436646 0.047039 0.000000 0.000000 0.000000
# 3 -0.010827 0.047039 0.016251 0.000000 0.000000 0.000000
# 4 0.000000 0.000000 0.000000 0.496617 0.000000 0.000000
# 5 0.000000 0.000000 0.000000 0.000000 0.025575 0.000000
# 6 0.000000 0.000000 0.000000 0.000000 0.000000 0.077246
#
#
# Mechanical properties :
#
#
# Convention : Reuss Voigt Hill
#
# Bulk Modulus (GPa) = 2.06277 28.41168 15.23723
# Shear Modulus (GPa) = 4.07530 21.03814 12.55672
#
# Velocity S-wave (km/s) = 1.45628 3.30879 2.55625
# Velocity P-wave (km/s) = 1.97512 5.42057 4.07944
#
# Compressibility (1/GPa) = 0.48478514
#
# Stress axis : x y z
#
# Youngs Moduli (GPa) = 44.58009 2.29019 61.53412
#
# Poissons Ratio (x) = 0.07210 0.66622
# Poissons Ratio (y) = 1.40356 -2.89452
# Poissons Ratio (z) = 0.48266 -0.10773
#
# Static dielectric constant tensor:
#      x y z
#    x 1.654730 0.000000 0.000000 
#    y 0.000000 1.650810 0.000000 
#    z 0.000000 0.000000 1.698540 
# 
# From -- ./inp_files/49082.got.cif
#   From: 2010.05.17/outbox.cif.g08.bks.cpg/sg74_25_cif.got.tgz:49082.got - 2010.06.03 17:57:02.
