data_PCOD9537303
_publ_section_title
;
Structure prediction by ZEFSAII (Michael W. Deem and Ramdas Pophale) SiO2 
 PCOD9537303
Probable space group: I M M A
;
_chemical_formula_sum "Si O2"
_cell_formula_units_Z 96
_cell_length_a 27.930203
_cell_length_b 9.243188
_cell_length_c 19.535524
_cell_angle_alpha 90.000000
_cell_angle_beta 90.000000
_cell_angle_gamma 90.000000
_cell_volume 5043.371308
_symmetry_space_group_name_H-M "I M M A"
_symmetry_group_IT_number 74
_symmetry_cell_setting 'orthorhombic'
loop_
_space_group_symop_operation_xyz
x,y,z
-x,1/2-y,z
x,-y,-z
-x,1/2+y,-z
-x,-y,-z
x,1/2+y,-z
-x,y,z
x,1/2-y,z
1/2+x,1/2+y,1/2+z
1/2-x,-y,1/2+z
1/2+x,1/2-y,1/2-z
1/2-x,y,1/2-z
1/2-x,1/2-y,1/2-z
1/2+x,y,1/2-z
1/2-x,1/2+y,1/2+z
1/2+x,-y,1/2+z
loop_
_atom_site_type_symbol
_atom_site_label
_atom_site_fract_x
_atom_site_fract_y
_atom_site_fract_z
Si Si1 0.414696 0.576093 0.569351
Si Si2 0.444039 0.922241 0.842613
Si Si3 0.648454 0.924298 0.927316
Si Si4 0.196416 0.586280 0.938529
Si Si5 0.228220 0.418246 0.319440
Si Si6 0.556870 0.912979 0.294324
O O1 0.433387 0.500000 0.500000
O O2 0.421155 0.750000 0.566705
O O3 0.358037 0.539549 0.573073
O O4 0.435237 0.507828 0.638159
O O5 0.500000 0.958230 0.857805
O O6 0.442312 0.750000 0.828495
O O7 0.406081 0.951547 0.902622
O O8 0.427021 0.006386 0.774629
O O9 0.655490 0.750000 0.934468
O O10 0.683734 0.973963 0.865180
O O11 0.657786 0.000000 0.000000
O O12 0.193432 0.750000 0.962508
O O13 0.227422 0.580004 0.871244
O O14 0.219711 0.500000 0.000000
O O15 0.215284 0.250000 0.302771
O O16 0.250000 0.485432 0.250000
O O17 0.500000 0.900686 0.286335
O O18 0.576862 0.750000 0.301362
#
# Coordination Sequence:
#
# PCOD9537303 Si02
#       6
#    16  16  16  16  16  16
#     4  10  20  33  52  77 105 140 182 225 272 325
#     4   9  19  36  57  82 110 143 185 228 273 329
#     4  10  21  36  58  84 113 148 184 227 276 328
#     4   9  18  32  52  75 101 137 175 217 262 311
#     4   9  18  32  53  80 107 140 183 224 263 316
#     4  10  21  36  54  77 106 140 178 225 279 330
#
# _framework density 19.034884999999999
#
# number of rings (size 3 to 8) (size 9 to 14) (size 15 to 20)
#    0.000    2.500    0.000    1.500    2.333    3.000 
#    0.000    0.000    0.000    1.000    0.000    0.000 
#    0.000    0.000    0.000    0.000    0.000    0.000 
#
# Total GULP energy -267368.846621 kJ/mol
# GULP energy per Si atom -5570.184305 kJ/mol
# Density = 1.899156 g / cm^3
# Si number density = 19.034885 Si / 1000 Ang^3
#
#
#
# Elastic Constant Matrix: (Units=GPa)
#
#
# Indices 1 2 3 4 5 6 
#
# 1 53.9864 24.3032 46.9651 0.0000 0.0000 0.0000
# 2 24.3032 34.0578 39.2273 0.0000 0.0000 0.0000
# 3 46.9651 39.2273 111.1641 0.0000 0.0000 0.0000
# 4 0.0000 0.0000 0.0000 31.5902 0.0000 0.0000
# 5 0.0000 0.0000 0.0000 0.0000 11.1224 0.0000
# 6 0.0000 0.0000 0.0000 0.0000 0.0000 16.9031
#
#
#
# Elastic Compliance Matrix: (Units=1/GPa)
#
#
# Indices 1 2 3 4 5 6 
#
# 1 0.032063 -0.012261 -0.009220 0.000000 0.000000 0.000000
# 2 -0.012261 0.054156 -0.013930 0.000000 0.000000 0.000000
# 3 -0.009220 -0.013930 0.017807 0.000000 0.000000 0.000000
# 4 0.000000 0.000000 0.000000 0.031655 0.000000 0.000000
# 5 0.000000 0.000000 0.000000 0.000000 0.089909 0.000000
# 6 0.000000 0.000000 0.000000 0.000000 0.000000 0.059161
#
#
# Mechanical properties :
#
#
# Convention : Reuss Voigt Hill
#
# Bulk Modulus (GPa) = 30.11692 46.68886 38.40289
# Shear Modulus (GPa) = 13.63735 17.83732 15.73733
#
# Velocity S-wave (km/s) = 2.67954 3.06451 2.87847
# Velocity P-wave (km/s) = 5.04277 6.09121 5.59162
#
# Compressibility (1/GPa) = 0.03320392
#
# Stress axis : x y z
#
# Youngs Moduli (GPa) = 31.18828 18.46523 56.15904
#
# Poissons Ratio (x) = 0.22640 0.51777
# Poissons Ratio (y) = 0.38240 0.78231
# Poissons Ratio (z) = 0.28755 0.25723
#
# Static dielectric constant tensor:
#      x y z
#    x 1.696890 0.000000 0.000000 
#    y 0.000000 1.683160 0.000000 
#    z 0.000000 0.000000 1.682470 
# 
# From -- ./inp_files/49174.got.cif
#   From: 2010.05.17/outbox.cif.g08.bks.cpg/sg74_25_cif.got.tgz:49174.got - 2010.06.03 17:57:02.
