data_PCOD9537873
_publ_section_title
;
Structure prediction by ZEFSAII (Michael W. Deem and Ramdas Pophale) SiO2 
 PCOD9537873
Probable space group: I M M A
;
_chemical_formula_sum "Si O2"
_cell_formula_units_Z 112
_cell_length_a 30.670979
_cell_length_b 14.319570
_cell_length_c 12.195597
_cell_angle_alpha 90.000000
_cell_angle_beta 90.000000
_cell_angle_gamma 90.000000
_cell_volume 5356.248039
_symmetry_space_group_name_H-M "I M M A"
_symmetry_group_IT_number 74
_symmetry_cell_setting 'orthorhombic'
loop_
_space_group_symop_operation_xyz
x,y,z
-x,1/2-y,z
x,-y,-z
-x,1/2+y,-z
-x,-y,-z
x,1/2+y,-z
-x,y,z
x,1/2-y,z
1/2+x,1/2+y,1/2+z
1/2-x,-y,1/2+z
1/2+x,1/2-y,1/2-z
1/2-x,y,1/2-z
1/2-x,1/2-y,1/2-z
1/2+x,y,1/2-z
1/2-x,1/2+y,1/2+z
1/2+x,-y,1/2+z
loop_
_atom_site_type_symbol
_atom_site_label
_atom_site_fract_x
_atom_site_fract_y
_atom_site_fract_z
Si Si1 0.452191 0.439013 0.609778
Si Si2 0.298019 0.502478 0.744330
Si Si3 0.859677 0.913304 0.087495
Si Si4 0.217555 0.649235 0.949239
Si Si5 0.448701 0.477354 0.158479
Si Si6 0.812607 0.358898 0.446270
Si Si7 0.906475 0.859296 0.480581
O O1 0.455044 0.500000 0.500000
O O2 0.500000 0.394515 0.627771
O O3 0.408735 0.376986 0.600930
O O4 0.443866 0.508850 0.711888
O O5 0.250000 0.455273 0.750000
O O6 0.339061 0.442851 0.703917
O O7 0.290311 0.572761 0.642378
O O8 0.309917 0.566566 0.848118
O O9 0.821906 0.852813 0.033158
O O10 0.863282 0.000000 0.000000
O O11 0.219469 0.750000 0.893692
O O12 0.265112 0.633424 0.002221
O O13 0.500000 0.465802 0.134577
O O14 0.431281 0.572341 0.102143
O O15 0.422662 0.393466 0.100921
O O16 0.817333 0.250000 0.408695
O O17 0.854513 0.376596 0.520803
O O18 0.915100 0.750000 0.462942
#
# Coordination Sequence:
#
# PCOD9537873 Si02
#       7
#    16  16  16  16  16  16  16
#     4   9  18  35  59  80 104 139 181 235 288 335
#     4   9  16  28  46  73  99 129 172 218 261 310
#     4   9  17  30  47  72  99 124 168 212 261 323
#     4   9  17  30  47  68 100 137 169 213 266 316
#     4  10  21  37  57  85 111 146 192 230 286 345
#     4   9  17  30  49  73 102 136 178 218 265 318
#     4  10  20  35  55  83 116 151 187 229 276 333
#
# _framework density 20.910160000000001
#
# number of rings (size 3 to 8) (size 9 to 14) (size 15 to 20)
#    0.000    2.714    0.000    2.143    0.000    2.857 
#   15.429    0.714    0.000    2.571    0.000    8.000 
#    0.000    0.000    0.000    0.000    0.000    0.000 
#
# Total GULP energy -312092.604182 kJ/mol
# GULP energy per Si atom -5573.082218 kJ/mol
# Density = 2.086257 g / cm^3
# Si number density = 20.910160 Si / 1000 Ang^3
#
#
#
# Elastic Constant Matrix: (Units=GPa)
#
#
# Indices 1 2 3 4 5 6 
#
# 1 166.8489 14.9136 9.2719 0.0000 0.0000 0.0000
# 2 14.9136 47.8541 4.3070 0.0000 0.0000 0.0000
# 3 9.2719 4.3070 71.2036 0.0000 0.0000 0.0000
# 4 0.0000 0.0000 0.0000 -6.6865 0.0000 0.0000
# 5 0.0000 0.0000 0.0000 0.0000 73.8839 0.0000
# 6 0.0000 0.0000 0.0000 0.0000 0.0000 7.9371
#
#
#
# Elastic Compliance Matrix: (Units=1/GPa)
#
#
# Indices 1 2 3 4 5 6 
#
# 1 0.006199 -0.001869 -0.000694 0.000000 0.000000 0.000000
# 2 -0.001869 0.021575 -0.001062 0.000000 0.000000 0.000000
# 3 -0.000694 -0.001062 0.014199 0.000000 0.000000 0.000000
# 4 0.000000 0.000000 0.000000 -0.149554 0.000000 0.000000
# 5 0.000000 0.000000 0.000000 0.000000 0.013535 0.000000
# 6 0.000000 0.000000 0.000000 0.000000 0.000000 0.125990
#
#
# Mechanical properties :
#
#
# Convention : Reuss Voigt Hill
#
# Bulk Modulus (GPa) = 28.79975 38.09908 33.44941
# Shear Modulus (GPa) = 98.48674 32.18783 65.33728
#
# Velocity S-wave (km/s) = 6.87039 3.92770 5.59594
# Velocity P-wave (km/s) = 8.76009 6.23129 7.60159
#
# Compressibility (1/GPa) = 0.03472252
#
# Stress axis : x y z
#
# Youngs Moduli (GPa) = 161.31325 46.34994 70.42826
#
# Poissons Ratio (x) = 0.08665 0.04889
# Poissons Ratio (y) = 0.30157 0.07477
# Poissons Ratio (z) = 0.11198 0.04921
#
# Static dielectric constant tensor:
#      x y z
#    x 1.821130 0.000000 0.000000 
#    y 0.000000 1.764000 0.000000 
#    z 0.000000 0.000000 1.760090 
# 
# From -- ./inp_files/27200.got.cif
#   From: 2010.05.17/outbox.cif.g08.bks.cpg/sg74_14_cif.got.tgz:27200.got - 2010.06.03 17:57:02.
