data_PCOD9537263
_publ_section_title
;
Structure prediction by ZEFSAII (Michael W. Deem and Ramdas Pophale) SiO2 
 PCOD9537263
Probable space group: I M M A
;
_chemical_formula_sum "Si O2"
_cell_formula_units_Z 96
_cell_length_a 25.780465
_cell_length_b 16.997774
_cell_length_c 11.767484
_cell_angle_alpha 90.000000
_cell_angle_beta 90.000000
_cell_angle_gamma 90.000000
_cell_volume 5156.635255
_symmetry_space_group_name_H-M "I M M A"
_symmetry_group_IT_number 74
_symmetry_cell_setting 'orthorhombic'
loop_
_space_group_symop_operation_xyz
x,y,z
-x,1/2-y,z
x,-y,-z
-x,1/2+y,-z
-x,-y,-z
x,1/2+y,-z
-x,y,z
x,1/2-y,z
1/2+x,1/2+y,1/2+z
1/2-x,-y,1/2+z
1/2+x,1/2-y,1/2-z
1/2-x,y,1/2-z
1/2-x,1/2-y,1/2-z
1/2+x,y,1/2-z
1/2-x,1/2+y,1/2+z
1/2+x,-y,1/2+z
loop_
_atom_site_type_symbol
_atom_site_label
_atom_site_fract_x
_atom_site_fract_y
_atom_site_fract_z
Si Si1 0.363016 0.433899 0.236480
Si Si2 0.778734 0.923362 0.556336
Si Si3 0.440261 0.844028 0.928800
Si Si4 0.127713 0.099017 0.625332
Si Si5 0.302664 0.661428 0.303550
Si Si6 0.175469 0.157374 0.050051
O O1 0.306426 0.433510 0.176629
O O2 0.402286 0.378006 0.167418
O O3 0.380946 0.522103 0.203402
O O4 0.354545 0.398895 0.361765
O O5 0.826523 0.912177 0.468558
O O6 0.737316 0.854630 0.567283
O O7 0.751836 0.000000 0.500000
O O8 0.500000 0.864970 0.907195
O O9 0.435351 0.750000 0.932180
O O10 0.421171 0.877718 0.050075
O O11 0.153256 0.161328 0.709105
O O12 0.286571 0.750000 0.335382
O O13 0.250000 0.623466 0.250000
O O14 0.328116 0.629875 0.418757
O O15 0.161270 0.250000 0.063991
#
# Coordination Sequence:
#
# PCOD9537263 Si02
#       6
#    16  16  16  16  16  16
#     4  10  22  34  51  82 112 144 183 230 282 335
#     4   9  19  32  48  73 109 148 186 226 266 320
#     4  10  21  39  63  85 108 139 178 233 293 343
#     4  10  20  35  55  80 110 147 190 232 279 326
#     4  10  20  33  51  76 110 155 197 233 270 319
#     4  11  22  33  50  76 111 156 192 225 275 329
#
# _framework density 18.616790000000002
#
# number of rings (size 3 to 8) (size 9 to 14) (size 15 to 20)
#    0.000    2.000    1.667    3.000    2.333    5.333 
#    0.000    0.000    0.000    1.000    0.000    7.000 
#    0.000    0.000    0.000    0.000    0.000    0.000 
#
# Total GULP energy -267210.093967 kJ/mol
# GULP energy per Si atom -5566.876958 kJ/mol
# Density = 1.857442 g / cm^3
# Si number density = 18.616790 Si / 1000 Ang^3
#
#
#
# Elastic Constant Matrix: (Units=GPa)
#
#
# Indices 1 2 3 4 5 6 
#
# 1 61.9837 28.9184 32.5552 0.0000 0.0000 0.0000
# 2 28.9184 68.9696 34.2102 0.0000 0.0000 0.0000
# 3 32.5552 34.2102 131.0556 0.0000 0.0000 0.0000
# 4 0.0000 0.0000 0.0000 26.2539 0.0000 0.0000
# 5 0.0000 0.0000 0.0000 0.0000 11.6838 0.0000
# 6 0.0000 0.0000 0.0000 0.0000 0.0000 19.5206
#
#
#
# Elastic Compliance Matrix: (Units=1/GPa)
#
#
# Indices 1 2 3 4 5 6 
#
# 1 0.021299 -0.007244 -0.003400 0.000000 0.000000 0.000000
# 2 -0.007244 0.019119 -0.003191 0.000000 0.000000 0.000000
# 3 -0.003400 -0.003191 0.009308 0.000000 0.000000 0.000000
# 4 0.000000 0.000000 0.000000 0.038090 0.000000 0.000000
# 5 0.000000 0.000000 0.000000 0.000000 0.085589 0.000000
# 6 0.000000 0.000000 0.000000 0.000000 0.000000 0.051228
#
#
# Mechanical properties :
#
#
# Convention : Reuss Voigt Hill
#
# Bulk Modulus (GPa) = 45.33981 50.37518 47.85750
# Shear Modulus (GPa) = 19.25636 22.57998 20.91817
#
# Velocity S-wave (km/s) = 3.21963 3.48642 3.35568
# Velocity P-wave (km/s) = 6.18292 6.58214 6.38565
#
# Compressibility (1/GPa) = 0.02205567
#
# Stress axis : x y z
#
# Youngs Moduli (GPa) = 46.95143 52.30266 107.43492
#
# Poissons Ratio (x) = 0.37888 0.36526
# Poissons Ratio (y) = 0.34012 0.34287
# Poissons Ratio (z) = 0.15963 0.16692
#
# Static dielectric constant tensor:
#      x y z
#    x 1.616370 0.000000 0.000000 
#    y 0.000000 1.720570 0.000000 
#    z 0.000000 0.000000 1.698550 
# 
# From -- ./inp_files/26275.got.cif
#   From: 2010.05.17/outbox.cif.g08.bks.cpg/sg74_14_cif.got.tgz:26275.got - 2010.06.03 17:57:02.
