data_PCOD9537400
_publ_section_title
;
Structure prediction by ZEFSAII (Michael W. Deem and Ramdas Pophale) SiO2 
 PCOD9537400
Probable space group: I M M A
;
_chemical_formula_sum "Si O2"
_cell_formula_units_Z 128
_cell_length_a 15.497435
_cell_length_b 25.397559
_cell_length_c 17.345520
_cell_angle_alpha 90.000000
_cell_angle_beta 90.000000
_cell_angle_gamma 90.000000
_cell_volume 6827.144978
_symmetry_space_group_name_H-M "I M M A"
_symmetry_group_IT_number 74
_symmetry_cell_setting 'orthorhombic'
loop_
_space_group_symop_operation_xyz
x,y,z
-x,1/2-y,z
x,-y,-z
-x,1/2+y,-z
-x,-y,-z
x,1/2+y,-z
-x,y,z
x,1/2-y,z
1/2+x,1/2+y,1/2+z
1/2-x,-y,1/2+z
1/2+x,1/2-y,1/2-z
1/2-x,y,1/2-z
1/2-x,1/2-y,1/2-z
1/2+x,y,1/2-z
1/2-x,1/2+y,1/2+z
1/2+x,-y,1/2+z
loop_
_atom_site_type_symbol
_atom_site_label
_atom_site_fract_x
_atom_site_fract_y
_atom_site_fract_z
Si Si1 0.101607 0.456828 0.558765
Si Si2 0.098950 0.344294 0.476311
Si Si3 0.400582 0.005755 0.386494
Si Si4 0.596079 0.391699 0.191501
Si Si5 0.840101 0.000484 0.717257
Si Si6 0.336800 0.308252 0.300762
Si Si7 0.105193 0.910624 0.006542
Si Si8 0.210424 0.191584 0.018989
O O1 0.140333 0.500000 0.500000
O O2 0.109165 0.399491 0.521609
O O3 0.135099 0.464461 0.644873
O O4 0.000000 0.468619 0.564866
O O5 0.103249 0.356795 0.384993
O O6 0.186303 0.312693 0.493796
O O7 0.000000 0.324536 0.491663
O O8 0.500000 0.006445 0.409389
O O9 0.367429 0.953051 0.428161
O O10 0.395714 0.002357 0.295057
O O11 0.367342 0.059199 0.426940
O O12 0.500000 0.415645 0.189613
O O13 0.662189 0.439845 0.188814
O O14 0.607168 0.355423 0.266266
O O15 0.750000 0.018603 0.750000
O O16 0.376803 0.250000 0.289679
O O17 0.250000 0.309916 0.250000
O O18 0.310435 0.313055 0.389524
O O19 0.157034 0.856671 0.016576
O O20 0.000000 0.901625 0.007664
O O21 0.181924 0.250000 0.994172
#
# Coordination Sequence:
#
# PCOD9537400 Si02
#       8
#    16  16  16  16  16  16  16  16
#     4  10  20  37  56  78 114 153 188 235 285 341
#     4  10  22  37  56  79 108 153 195 233 283 333
#     4   9  19  37  58  82 115 153 185 232 282 339
#     4  11  21  34  52  74 107 149 191 231 270 330
#     4  12  24  32  51  88 114 145 187 227 283 346
#     4  10  20  34  49  72 104 140 185 234 279 317
#     4   9  20  38  60  85 116 152 192 232 286 343
#     4  11  23  37  58  80 111 152 192 243 288 337
#
# _framework density 18.748684999999998
#
# number of rings (size 3 to 8) (size 9 to 14) (size 15 to 20)
#    0.000    1.750    2.500    3.000    3.500    2.250 
#    0.000    2.500    0.000    0.000    0.000    1.750 
#    0.000    4.000    0.000    0.000    0.000    0.000 
#
# Total GULP energy -356834.860838 kJ/mol
# GULP energy per Si atom -5575.544701 kJ/mol
# Density = 1.870601 g / cm^3
# Si number density = 18.748685 Si / 1000 Ang^3
#
#
#
# Elastic Constant Matrix: (Units=GPa)
#
#
# Indices 1 2 3 4 5 6 
#
# 1 51.5170 33.1373 14.1909 0.0000 0.0000 0.0000
# 2 33.1373 86.8887 11.4563 -0.0001 0.0000 0.0000
# 3 14.1909 11.4563 47.9927 -0.0001 0.0000 0.0000
# 4 0.0000 -0.0001 -0.0001 17.9820 0.0000 0.0000
# 5 0.0000 0.0000 0.0000 0.0000 23.1111 0.0000
# 6 0.0000 0.0000 0.0000 0.0000 0.0000 8.3104
#
#
#
# Elastic Compliance Matrix: (Units=1/GPa)
#
#
# Indices 1 2 3 4 5 6 
#
# 1 0.027171 -0.009605 -0.005741 0.000000 0.000000 0.000000
# 2 -0.009605 0.015279 -0.000807 0.000000 0.000000 0.000000
# 3 -0.005741 -0.000807 0.022727 0.000000 0.000000 0.000000
# 4 0.000000 0.000000 0.000000 0.055611 0.000000 0.000000
# 5 0.000000 0.000000 0.000000 0.000000 0.043269 0.000000
# 6 0.000000 0.000000 0.000000 0.000000 0.000000 0.120331
#
#
# Mechanical properties :
#
#
# Convention : Reuss Voigt Hill
#
# Bulk Modulus (GPa) = 30.42362 33.77417 32.09890
# Shear Modulus (GPa) = 15.26010 18.38830 16.82420
#
# Velocity S-wave (km/s) = 2.85604 3.13513 2.99884
# Velocity P-wave (km/s) = 5.20944 5.58200 5.39893
#
# Compressibility (1/GPa) = 0.03286920
#
# Stress axis : x y z
#
# Youngs Moduli (GPa) = 36.80387 65.45083 44.00096
#
# Poissons Ratio (x) = 0.62868 0.25262
# Poissons Ratio (y) = 0.35352 0.03551
# Poissons Ratio (z) = 0.21130 0.05282
#
# Static dielectric constant tensor:
#      x y z
#    x 2.012080 0.000000 0.000000 
#    y 0.000000 1.661150 0.000000 
#    z 0.000000 0.000000 1.689770 
# 
# From -- ./inp_files/44592.got.cif
#   From: 2010.05.17/outbox.cif.g08.bks.cpg/sg74_23_cif.got.tgz:44592.got - 2010.06.03 17:57:02.
