data_PCOD9537337
_publ_section_title
;
Structure prediction by ZEFSAII (Michael W. Deem and Ramdas Pophale) SiO2 
 PCOD9537337
Probable space group: I M M A
;
_chemical_formula_sum "Si O2"
_cell_formula_units_Z 96
_cell_length_a 28.884032
_cell_length_b 9.345213
_cell_length_c 19.848846
_cell_angle_alpha 90.000000
_cell_angle_beta 90.000000
_cell_angle_gamma 90.000000
_cell_volume 5357.748016
_symmetry_space_group_name_H-M "I M M A"
_symmetry_group_IT_number 74
_symmetry_cell_setting 'orthorhombic'
loop_
_space_group_symop_operation_xyz
x,y,z
-x,1/2-y,z
x,-y,-z
-x,1/2+y,-z
-x,-y,-z
x,1/2+y,-z
-x,y,z
x,1/2-y,z
1/2+x,1/2+y,1/2+z
1/2-x,-y,1/2+z
1/2+x,1/2-y,1/2-z
1/2-x,y,1/2-z
1/2-x,1/2-y,1/2-z
1/2+x,y,1/2-z
1/2-x,1/2+y,1/2+z
1/2+x,-y,1/2+z
loop_
_atom_site_type_symbol
_atom_site_label
_atom_site_fract_x
_atom_site_fract_y
_atom_site_fract_z
Si Si1 0.943535 0.415676 0.565157
Si Si2 0.222209 0.417030 0.568204
Si Si3 0.707593 0.416078 0.202175
Si Si4 0.444494 0.581636 0.214976
Si Si5 0.623168 0.415852 0.305997
Si Si6 0.665845 0.082232 0.568313
O O1 0.926440 0.500000 0.500000
O O2 0.930297 0.250000 0.559571
O O3 0.929727 0.467833 0.639587
O O4 0.000000 0.420885 0.564209
O O5 0.208864 0.500000 0.500000
O O6 0.209806 0.250000 0.563994
O O7 0.202917 0.490633 0.635323
O O8 0.278267 0.427718 0.574705
O O9 0.717353 0.250000 0.183228
O O10 0.750000 0.465201 0.250000
O O11 0.662455 0.420868 0.248317
O O12 0.500000 0.572521 0.218039
O O13 0.432049 0.750000 0.221184
O O14 0.421136 0.489291 0.272591
O O15 0.615597 0.250000 0.324001
O O16 0.641948 0.504553 0.369153
O O17 0.653958 0.250000 0.565311
O O18 0.653044 0.000000 0.500000
#
# Coordination Sequence:
#
# PCOD9537337 Si02
#       6
#    16  16  16  16  16  16
#     4   8  14  26  46  71  97 127 165 209 257 307
#     4  10  20  33  53  78 107 144 184 223 266 318
#     4  10  20  35  53  75 109 145 177 219 266 315
#     4   9  19  36  55  76 106 143 181 224 274 324
#     4  11  22  35  55  82 109 141 180 223 270 319
#     4  10  20  34  54  80 109 140 177 220 264 317
#
# _framework density 17.917977
#
# number of rings (size 3 to 8) (size 9 to 14) (size 15 to 20)
#    0.000    2.333    1.667    2.500    0.000    4.000 
#    0.000    2.500    0.000    2.500    0.000    0.000 
#    0.000    0.000    0.000    0.000    0.000    0.000 
#
# Total GULP energy -267875.785187 kJ/mol
# GULP energy per Si atom -5580.745525 kJ/mol
# Density = 1.787719 g / cm^3
# Si number density = 17.917977 Si / 1000 Ang^3
#
#
#
# Elastic Constant Matrix: (Units=GPa)
#
#
# Indices 1 2 3 4 5 6 
#
# 1 15.5970 18.5267 12.5014 0.0000 0.0000 0.0000
# 2 18.5267 119.3561 85.8576 0.0000 0.0000 0.0000
# 3 12.5014 85.8576 135.6110 0.0000 0.0000 0.0000
# 4 0.0000 0.0000 0.0000 39.2761 0.0000 0.0000
# 5 0.0000 0.0000 0.0000 0.0000 20.0404 0.0000
# 6 0.0000 0.0000 0.0000 0.0000 0.0000 11.2249
#
#
#
# Elastic Compliance Matrix: (Units=1/GPa)
#
#
# Indices 1 2 3 4 5 6 
#
# 1 0.078665 -0.012843 0.000879 0.000000 0.000000 0.000000
# 2 -0.012843 0.017482 -0.009884 0.000000 0.000000 0.000000
# 3 0.000879 -0.009884 0.013551 0.000000 0.000000 0.000000
# 4 0.000000 0.000000 0.000000 0.025461 0.000000 0.000000
# 5 0.000000 0.000000 0.000000 0.000000 0.049899 0.000000
# 6 0.000000 0.000000 0.000000 0.000000 0.000000 0.089087
#
#
# Mechanical properties :
#
#
# Convention : Reuss Voigt Hill
#
# Bulk Modulus (GPa) = 15.15099 56.03726 35.59412
# Shear Modulus (GPa) = 14.71273 24.35352 19.53313
#
# Velocity S-wave (km/s) = 2.86862 3.69069 3.30531
# Velocity P-wave (km/s) = 4.40977 7.03589 5.87154
#
# Compressibility (1/GPa) = 0.06600227
#
# Stress axis : x y z
#
# Youngs Moduli (GPa) = 12.71207 57.20213 73.79662
#
# Poissons Ratio (x) = 0.73466 -0.06490
# Poissons Ratio (y) = 0.16326 0.72941
# Poissons Ratio (z) = -0.01118 0.56539
#
# Static dielectric constant tensor:
#      x y z
#    x 1.625080 0.000000 0.000000 
#    y 0.000000 1.605470 0.000000 
#    z 0.000000 0.000000 1.591460 
# 
# From -- ./inp_files/49177.got.cif
#   From: 2010.05.17/outbox.cif.g08.bks.cpg/sg74_25_cif.got.tgz:49177.got - 2010.06.03 17:57:02.
