data_PCOD9537698
_publ_section_title
;
Structure prediction by ZEFSAII (Michael W. Deem and Ramdas Pophale) SiO2 
 PCOD9537698
Probable space group: I M M A
;
_chemical_formula_sum "Si O2"
_cell_formula_units_Z 96
_cell_length_a 24.667366
_cell_length_b 10.639226
_cell_length_c 19.813526
_cell_angle_alpha 90.000000
_cell_angle_beta 90.000000
_cell_angle_gamma 90.000000
_cell_volume 5199.895084
_symmetry_space_group_name_H-M "I M M A"
_symmetry_group_IT_number 74
_symmetry_cell_setting 'orthorhombic'
loop_
_space_group_symop_operation_xyz
x,y,z
-x,1/2-y,z
x,-y,-z
-x,1/2+y,-z
-x,-y,-z
x,1/2+y,-z
-x,y,z
x,1/2-y,z
1/2+x,1/2+y,1/2+z
1/2-x,-y,1/2+z
1/2+x,1/2-y,1/2-z
1/2-x,y,1/2-z
1/2-x,1/2-y,1/2-z
1/2+x,y,1/2-z
1/2-x,1/2+y,1/2+z
1/2+x,-y,1/2+z
loop_
_atom_site_type_symbol
_atom_site_label
_atom_site_fract_x
_atom_site_fract_y
_atom_site_fract_z
Si Si1 0.559454 0.450578 0.923753
Si Si2 0.559423 0.900029 0.789832
Si Si3 0.563885 0.390267 0.448817
Si Si4 0.357397 0.396539 0.321377
Si Si5 0.320050 0.388765 0.944954
Si Si6 0.231819 0.606842 0.171961
O O1 0.500000 0.389579 0.911523
O O2 0.563512 0.558320 0.867151
O O3 0.617417 0.384287 0.920628
O O4 0.557293 0.500000 0.000000
O O5 0.500000 0.944668 0.764719
O O6 0.559395 0.750000 0.785109
O O7 0.609899 0.941986 0.744934
O O8 0.579460 0.500000 0.500000
O O9 0.500000 0.404099 0.432983
O O10 0.571356 0.250000 0.478435
O O11 0.599056 0.396778 0.381578
O O12 0.339366 0.250000 0.312478
O O13 0.310546 0.494600 0.338165
O O14 0.307037 0.250000 0.974067
O O15 0.281089 0.409446 0.880834
O O16 0.314254 0.500000 0.000000
O O17 0.210306 0.750000 0.161158
O O18 0.250000 0.600045 0.250000
#
# Coordination Sequence:
#
# PCOD9537698 Si02
#       6
#    16  16  16  16  16  16
#     4   9  18  32  52  79 108 137 170 209 257 316
#     4   9  17  31  53  81 112 144 178 220 270 318
#     4   9  18  33  53  79 112 146 178 217 267 320
#     4  10  20  34  56  84 109 137 180 230 271 312
#     4  10  22  39  58  80 108 142 178 220 269 319
#     4  10  22  40  58  76 105 145 183 220 267 322
#
# _framework density 18.461911000000001
#
# number of rings (size 3 to 8) (size 9 to 14) (size 15 to 20)
#    0.000    2.500    0.000    1.500    0.000    7.333 
#    0.000    6.667    0.000    2.500    0.000    0.000 
#    0.000    0.000    0.000    0.000    0.000    0.000 
#
# Total GULP energy -267252.630661 kJ/mol
# GULP energy per Si atom -5567.763139 kJ/mol
# Density = 1.841989 g / cm^3
# Si number density = 18.461911 Si / 1000 Ang^3
#
#
#
# Elastic Constant Matrix: (Units=GPa)
#
#
# Indices 1 2 3 4 5 6 
#
# 1 102.1694 62.5579 47.8520 0.0000 0.0000 0.0000
# 2 62.5579 89.8217 39.3496 0.0000 0.0000 0.0000
# 3 47.8520 39.3496 72.2303 0.0000 0.0000 0.0000
# 4 0.0000 0.0000 0.0000 25.2248 0.0000 0.0000
# 5 0.0000 0.0000 0.0000 0.0000 48.6645 0.0000
# 6 0.0000 0.0000 0.0000 0.0000 0.0000 9.4545
#
#
#
# Elastic Compliance Matrix: (Units=1/GPa)
#
#
# Indices 1 2 3 4 5 6 
#
# 1 0.019609 -0.010463 -0.007291 0.000000 0.000000 0.000000
# 2 -0.010463 0.020206 -0.004076 0.000000 0.000000 0.000000
# 3 -0.007291 -0.004076 0.020895 0.000000 0.000000 0.000000
# 4 0.000000 0.000000 0.000000 0.039644 0.000000 0.000000
# 5 0.000000 0.000000 0.000000 0.000000 0.020549 0.000000
# 6 0.000000 0.000000 0.000000 0.000000 0.000000 0.105769
#
#
# Mechanical properties :
#
#
# Convention : Reuss Voigt Hill
#
# Bulk Modulus (GPa) = 58.64963 62.63781 60.64372
# Shear Modulus (GPa) = 18.11499 24.29956 21.20727
#
# Velocity S-wave (km/s) = 3.13582 3.63188 3.39293
# Velocity P-wave (km/s) = 6.70433 7.18256 6.94756
#
# Compressibility (1/GPa) = 0.01705041
#
# Stress axis : x y z
#
# Youngs Moduli (GPa) = 50.99782 49.49031 47.85784
#
# Poissons Ratio (x) = 0.51781 0.34891
# Poissons Ratio (y) = 0.53358 0.19508
# Poissons Ratio (z) = 0.37181 0.20173
#
# Static dielectric constant tensor:
#      x y z
#    x 1.657060 0.000000 0.000000 
#    y 0.000000 1.596760 0.000000 
#    z 0.000000 0.000000 1.613390 
# 
# From -- ./inp_files/45963.got.cif
#   From: 2010.05.17/outbox.cif.g08.bks.cpg/sg74_23_cif.got.tgz:45963.got - 2010.06.03 17:57:02.
