data_PCOD9537757
_publ_section_title
;
Structure prediction by ZEFSAII (Michael W. Deem and Ramdas Pophale) SiO2 
 PCOD9537757
Probable space group: I M M A
;
_chemical_formula_sum "Si O2"
_cell_formula_units_Z 116
_cell_length_a 14.758948
_cell_length_b 30.224976
_cell_length_c 11.258833
_cell_angle_alpha 90.000000
_cell_angle_beta 90.000000
_cell_angle_gamma 90.000000
_cell_volume 5022.439855
_symmetry_space_group_name_H-M "I M M A"
_symmetry_group_IT_number 74
_symmetry_cell_setting 'orthorhombic'
loop_
_space_group_symop_operation_xyz
x,y,z
-x,1/2-y,z
x,-y,-z
-x,1/2+y,-z
-x,-y,-z
x,1/2+y,-z
-x,y,z
x,1/2-y,z
1/2+x,1/2+y,1/2+z
1/2-x,-y,1/2+z
1/2+x,1/2-y,1/2-z
1/2-x,y,1/2-z
1/2-x,1/2-y,1/2-z
1/2+x,y,1/2-z
1/2-x,1/2+y,1/2+z
1/2+x,-y,1/2+z
loop_
_atom_site_type_symbol
_atom_site_label
_atom_site_fract_x
_atom_site_fract_y
_atom_site_fract_z
Si Si1 0.389319 0.981525 0.369422
Si Si2 0.109654 0.202301 0.760689
Si Si3 0.897771 0.625877 0.654157
Si Si4 0.155258 0.326028 0.115557
Si Si5 0.889205 0.473566 0.380624
Si Si6 0.891000 0.616844 0.094089
Si Si7 0.500000 0.250000 0.399803
Si Si8 0.656294 0.297828 0.007391
O O1 0.500000 0.982667 0.369118
O O2 0.357890 0.930646 0.364617
O O3 0.362494 0.000000 0.500000
O O4 0.361864 0.005949 0.247328
O O5 0.126089 0.250000 0.822096
O O6 0.138693 0.159062 0.829915
O O7 0.156946 0.203309 0.634091
O O8 0.000000 0.200100 0.744008
O O9 0.847207 0.654651 0.752588
O O10 0.860099 0.577915 0.620369
O O11 0.899182 0.658915 0.543236
O O12 0.000000 0.618894 0.699432
O O13 0.077985 0.289292 0.101801
O O14 0.136486 0.369836 0.037617
O O15 0.246255 0.304440 0.065764
O O16 0.859866 0.500000 0.500000
O O17 0.000000 0.474242 0.384267
O O18 0.000000 0.615552 0.099420
O O19 0.618014 0.250000 0.048187
#
# Coordination Sequence:
#
# PCOD9537757 Si02
#       8
#    16  16  16  16  16  16   4  16
#     4   9  17  31  55  89 126 159 206 268 327 377
#     4   9  20  37  57  86 124 167 213 259 316 380
#     4  11  23  39  64  91 127 165 214 262 316 382
#     4  12  24  40  61  92 127 163 216 264 319 379
#     4   9  19  35  60  93 126 163 211 269 321 381
#     4  10  20  34  61  90 122 160 210 265 317 380
#     4  12  24  40  66  90 128 176 218 262 318 384
#     4  11  25  40  59  88 128 170 208 262 317 381
#
# _framework density 23.096346
#
# number of rings (size 3 to 8) (size 9 to 14) (size 15 to 20)
#    0.000    1.793    2.069    1.655    3.862    4.138 
#    0.000    1.379    0.000    4.138    0.000    0.000 
#    0.000    0.000    0.000    0.000    0.000    0.000 
#
# Total GULP energy -323555.937589 kJ/mol
# GULP energy per Si atom -5578.550648 kJ/mol
# Density = 2.304378 g / cm^3
# Si number density = 23.096346 Si / 1000 Ang^3
#
#
#
# Elastic Constant Matrix: (Units=GPa)
#
#
# Indices 1 2 3 4 5 6 
#
# 1 72.3638 18.4421 6.8347 0.0000 0.0000 0.0000
# 2 18.4421 164.9135 50.2434 -0.0002 0.0000 -0.0001
# 3 6.8347 50.2434 107.7241 0.0005 0.0004 -0.0001
# 4 0.0000 -0.0002 0.0005 35.8622 0.0001 0.0000
# 5 0.0000 0.0000 0.0004 0.0001 11.9084 0.0000
# 6 0.0000 -0.0001 -0.0001 0.0000 0.0000 3.2903
#
#
#
# Elastic Compliance Matrix: (Units=1/GPa)
#
#
# Indices 1 2 3 4 5 6 
#
# 1 0.014228 -0.001534 -0.000187 0.000000 0.000000 0.000000
# 2 -0.001534 0.007234 -0.003276 0.000000 0.000000 0.000000
# 3 -0.000187 -0.003276 0.010823 0.000000 0.000000 0.000000
# 4 0.000000 0.000000 0.000000 0.027885 0.000000 0.000000
# 5 0.000000 0.000000 0.000000 0.000000 0.083974 0.000001
# 6 0.000000 0.000000 0.000000 0.000000 0.000001 0.303919
#
#
# Mechanical properties :
#
#
# Convention : Reuss Voigt Hill
#
# Bulk Modulus (GPa) = 44.86547 55.11576 49.99061
# Shear Modulus (GPa) = 10.74143 28.17761 19.45952
#
# Velocity S-wave (km/s) = 2.15889 3.49664 2.90580
# Velocity P-wave (km/s) = 5.06773 6.34171 5.74017
#
# Compressibility (1/GPa) = 0.02228886
#
# Stress axis : x y z
#
# Youngs Moduli (GPa) = 70.28549 138.24455 92.39562
#
# Poissons Ratio (x) = 0.21207 0.01730
# Poissons Ratio (y) = 0.10782 0.30273
# Poissons Ratio (z) = 0.01316 0.45295
#
# Static dielectric constant tensor:
#      x y z
#    x 2.070430 0.000000 0.000000 
#    y 0.000000 1.849130 0.000000 
#    z 0.000000 0.000000 1.815170 
# 
# From -- ./inp_files/22844.got.cif
#   From: 2010.05.17/outbox.cif.g08.bks.cpg/sg74_12_cif.got.tgz:22844.got - 2010.06.03 17:57:02.
