data_PCOD9537445
_publ_section_title
;
Structure prediction by ZEFSAII (Michael W. Deem and Ramdas Pophale) SiO2 
 PCOD9537445
Probable space group: I M M A
;
_chemical_formula_sum "Si O2"
_cell_formula_units_Z 96
_cell_length_a 19.717235
_cell_length_b 7.635513
_cell_length_c 31.153382
_cell_angle_alpha 90.000000
_cell_angle_beta 90.000000
_cell_angle_gamma 90.000000
_cell_volume 4690.179174
_symmetry_space_group_name_H-M "I M M A"
_symmetry_group_IT_number 74
_symmetry_cell_setting 'orthorhombic'
loop_
_space_group_symop_operation_xyz
x,y,z
-x,1/2-y,z
x,-y,-z
-x,1/2+y,-z
-x,-y,-z
x,1/2+y,-z
-x,y,z
x,1/2-y,z
1/2+x,1/2+y,1/2+z
1/2-x,-y,1/2+z
1/2+x,1/2-y,1/2-z
1/2-x,y,1/2-z
1/2-x,1/2-y,1/2-z
1/2+x,y,1/2-z
1/2-x,1/2+y,1/2+z
1/2+x,-y,1/2+z
loop_
_atom_site_type_symbol
_atom_site_label
_atom_site_fract_x
_atom_site_fract_y
_atom_site_fract_z
Si Si1 0.423560 0.039314 0.049366
Si Si2 0.076974 0.961356 0.794239
Si Si3 0.077246 0.039948 0.048672
Si Si4 0.330106 0.465268 0.372490
Si Si5 0.923166 0.043083 0.695600
Si Si6 0.677093 0.545339 0.879026
O O1 0.500000 0.972900 0.058150
O O2 0.426040 0.250000 0.054084
O O3 0.368422 0.968776 0.082590
O O4 0.407073 0.000000 0.000000
O O5 0.076132 0.750000 0.795666
O O6 0.129646 0.022538 0.829980
O O7 0.000000 0.021963 0.803601
O O8 0.093433 0.013001 0.745536
O O9 0.074156 0.250000 0.052706
O O10 0.128175 0.978031 0.085413
O O11 0.000000 0.972788 0.054333
O O12 0.098889 0.000000 0.000000
O O13 0.330135 0.250000 0.371792
O O14 0.252551 0.527309 0.373576
O O15 0.924650 0.250000 0.687749
O O16 0.000000 0.973587 0.688123
O O17 0.867737 0.965851 0.663844
O O18 0.686858 0.750000 0.889441
#
# Coordination Sequence:
#
# PCOD9537445 Si02
#       6
#    16  16  16  16  16  16
#     4   9  18  32  50  71  94 123 160 200 241 285
#     4   9  17  32  55  77  96 126 169 209 243 285
#     4   9  17  31  51  74 101 133 170 210 249 291
#     4   9  18  32  51  75 101 131 167 206 247 291
#     4  10  21  36  53  74 100 129 162 203 250 296
#     4  10  20  34  52  74 101 132 166 203 244 295
#
# _framework density 20.468302000000001
#
# number of rings (size 3 to 8) (size 9 to 14) (size 15 to 20)
#    0.000    2.667    0.000    1.500    0.000    5.667 
#    0.000    7.500    0.000    4.000    0.000    0.000 
#    0.000    0.000    0.000    0.000    0.000    0.000 
#
# Total GULP energy -267929.075455 kJ/mol
# GULP energy per Si atom -5581.855739 kJ/mol
# Density = 2.042172 g / cm^3
# Si number density = 20.468302 Si / 1000 Ang^3
#
#
#
# Elastic Constant Matrix: (Units=GPa)
#
#
# Indices 1 2 3 4 5 6 
#
# 1 162.8192 0.0431 120.3193 0.0000 0.0000 0.0000
# 2 0.0431 37.3333 -11.7957 0.0000 0.0000 0.0000
# 3 120.3193 -11.7957 123.9912 0.0000 0.0000 0.0000
# 4 0.0000 0.0000 0.0000 22.6579 0.0000 0.0000
# 5 0.0000 0.0000 0.0000 0.0000 -48.7984 0.0000
# 6 0.0000 0.0000 0.0000 0.0000 0.0000 22.7236
#
#
#
# Elastic Compliance Matrix: (Units=1/GPa)
#
#
# Indices 1 2 3 4 5 6 
#
# 1 0.023575 -0.007480 -0.023588 0.000000 0.000000 0.000000
# 2 -0.007480 0.029989 0.010112 0.000000 0.000000 0.000000
# 3 -0.023588 0.010112 0.031917 0.000000 0.000000 0.000000
# 4 0.000000 0.000000 0.000000 0.044135 0.000000 0.000000
# 5 0.000000 0.000000 0.000000 0.000000 -0.020492 0.000000
# 6 0.000000 0.000000 0.000000 0.000000 0.000000 0.044007
#
#
# Mechanical properties :
#
#
# Convention : Reuss Voigt Hill
#
# Bulk Modulus (GPa) = 22.95313 60.14190 41.54751
# Shear Modulus (GPa) = 23.85874 13.68843 18.77358
#
# Velocity S-wave (km/s) = 3.41786 2.58885 3.03182
# Velocity P-wave (km/s) = 5.17822 6.19540 5.70951
#
# Compressibility (1/GPa) = 0.04356705
#
# Stress axis : x y z
#
# Youngs Moduli (GPa) = 42.41771 33.34539 31.33132
#
# Poissons Ratio (x) = 0.24943 0.73906
# Poissons Ratio (y) = 0.31729 -0.31681
# Poissons Ratio (z) = 1.00057 -0.33717
#
# Static dielectric constant tensor:
#      x y z
#    x 1.724280 0.000000 0.000000 
#    y 0.000000 1.872640 0.000000 
#    z 0.000000 0.000000 1.689570 
# 
# From -- ./inp_files/68140.got.cif
#   From: 2010.05.17/outbox.cif.g08.bks.cpg/sg74_35_cif.got.tgz:68140.got - 2010.06.03 17:57:02.
