data_PCOD9537622
_publ_section_title
;
Structure prediction by ZEFSAII (Michael W. Deem and Ramdas Pophale) SiO2 
 PCOD9537622
Probable space group: I M M A
;
_chemical_formula_sum "Si O2"
_cell_formula_units_Z 56
_cell_length_a 8.713841
_cell_length_b 23.333445
_cell_length_c 14.519219
_cell_angle_alpha 90.000000
_cell_angle_beta 90.000000
_cell_angle_gamma 90.000000
_cell_volume 2952.104663
_symmetry_space_group_name_H-M "I M M A"
_symmetry_group_IT_number 74
_symmetry_cell_setting 'orthorhombic'
loop_
_space_group_symop_operation_xyz
x,y,z
-x,1/2-y,z
x,-y,-z
-x,1/2+y,-z
-x,-y,-z
x,1/2+y,-z
-x,y,z
x,1/2-y,z
1/2+x,1/2+y,1/2+z
1/2-x,-y,1/2+z
1/2+x,1/2-y,1/2-z
1/2-x,y,1/2-z
1/2-x,1/2-y,1/2-z
1/2+x,y,1/2-z
1/2-x,1/2+y,1/2+z
1/2+x,-y,1/2+z
loop_
_atom_site_type_symbol
_atom_site_label
_atom_site_fract_x
_atom_site_fract_y
_atom_site_fract_z
Si Si1 0.184952 0.601638 0.344279
Si Si2 0.673295 0.521658 0.894536
Si Si3 0.816828 0.135301 0.040528
Si Si4 0.814760 0.750000 0.852617
O O1 0.250000 0.627798 0.250000
O O2 0.239774 0.534997 0.347411
O O3 0.242498 0.629714 0.439129
O O4 0.000000 0.601307 0.343989
O O5 0.500000 0.533148 0.860782
O O6 0.767620 0.579957 0.899314
O O7 0.661358 0.500000 0.000000
O O8 0.767684 0.193080 0.091960
O O9 0.000000 0.135206 0.029823
O O10 0.750000 0.750000 0.750000
O O11 0.000000 0.750000 0.847822
#
# Coordination Sequence:
#
# PCOD9537622 Si02
#       4
#    16  16  16   8
#     4  10  20  34  54  82 114 146 179 218 267 323
#     4   8  16  31  50  75 107 140 174 213 260 312
#     4  10  20  36  56  79 109 143 182 226 270 317
#     4  10  24  42  59  80 105 138 181 228 272 318
#
# _framework density 18.969518000000001
#
# number of rings (size 3 to 8) (size 9 to 14) (size 15 to 20)
#    0.000    2.571    0.000    3.429    0.000    9.714 
#    0.000    6.429    0.000    0.000    0.000    0.000 
#    0.000    0.000    0.000    0.000    0.000    0.000 
#
# Total GULP energy -156090.343078 kJ/mol
# GULP energy per Si atom -5574.655110 kJ/mol
# Density = 1.892634 g / cm^3
# Si number density = 18.969518 Si / 1000 Ang^3
#
#
#
# Elastic Constant Matrix: (Units=GPa)
#
#
# Indices 1 2 3 4 5 6 
#
# 1 44.3318 43.2544 29.8332 0.0000 0.0000 0.0000
# 2 43.2544 134.2555 66.8289 0.0000 0.0000 0.0000
# 3 29.8332 66.8289 132.7305 0.0000 0.0000 0.0000
# 4 0.0000 0.0000 0.0000 19.7728 0.0000 0.0000
# 5 0.0000 0.0000 0.0000 0.0000 25.4734 0.0000
# 6 0.0000 0.0000 0.0000 0.0000 0.0000 20.6547
#
#
#
# Elastic Compliance Matrix: (Units=1/GPa)
#
#
# Indices 1 2 3 4 5 6 
#
# 1 0.033666 -0.009448 -0.002810 0.000000 0.000000 0.000000
# 2 -0.009448 0.012591 -0.004216 0.000000 0.000000 0.000000
# 3 -0.002810 -0.004216 0.010288 0.000000 0.000000 0.000000
# 4 0.000000 0.000000 0.000000 0.050575 0.000000 0.000000
# 5 0.000000 0.000000 0.000000 0.000000 0.039257 0.000000
# 6 0.000000 0.000000 0.000000 0.000000 0.000000 0.048415
#
#
# Mechanical properties :
#
#
# Convention : Reuss Voigt Hill
#
# Bulk Modulus (GPa) = 42.37643 65.68342 54.02992
# Shear Modulus (GPa) = 21.22188 24.60693 22.91441
#
# Velocity S-wave (km/s) = 3.34838 3.60555 3.47934
# Velocity P-wave (km/s) = 6.11037 7.21348 6.68472
#
# Compressibility (1/GPa) = 0.02359803
#
# Stress axis : x y z
#
# Youngs Moduli (GPa) = 29.70316 79.42210 97.19708
#
# Poissons Ratio (x) = 0.75037 0.27314
# Poissons Ratio (y) = 0.28063 0.40978
# Poissons Ratio (z) = 0.08347 0.33484
#
# Static dielectric constant tensor:
#      x y z
#    x 1.655240 0.000000 0.000000 
#    y 0.000000 1.662660 0.000000 
#    z 0.000000 0.000000 1.675930 
# 
# From -- ./inp_files/28482.got.cif
#   From: 2010.05.17/outbox.cif.g08.bks.cpg/sg74_15_cif.got.tgz:28482.got - 2010.06.03 17:57:02.
