data_PCOD9537553
_publ_section_title
;
Structure prediction by ZEFSAII (Michael W. Deem and Ramdas Pophale) SiO2 
 PCOD9537553
Probable space group: I M M A
;
_chemical_formula_sum "Si O2"
_cell_formula_units_Z 112
_cell_length_a 11.011433
_cell_length_b 15.374314
_cell_length_c 33.908913
_cell_angle_alpha 90.000000
_cell_angle_beta 90.000000
_cell_angle_gamma 90.000000
_cell_volume 5740.549358
_symmetry_space_group_name_H-M "I M M A"
_symmetry_group_IT_number 74
_symmetry_cell_setting 'orthorhombic'
loop_
_space_group_symop_operation_xyz
x,y,z
-x,1/2-y,z
x,-y,-z
-x,1/2+y,-z
-x,-y,-z
x,1/2+y,-z
-x,y,z
x,1/2-y,z
1/2+x,1/2+y,1/2+z
1/2-x,-y,1/2+z
1/2+x,1/2-y,1/2-z
1/2-x,y,1/2-z
1/2-x,1/2-y,1/2-z
1/2+x,y,1/2-z
1/2-x,1/2+y,1/2+z
1/2+x,-y,1/2+z
loop_
_atom_site_type_symbol
_atom_site_label
_atom_site_fract_x
_atom_site_fract_y
_atom_site_fract_z
Si Si1 0.640931 0.852987 0.219041
Si Si2 0.363052 0.898780 0.990184
Si Si3 0.213497 0.847579 0.853142
Si Si4 0.631095 0.648204 0.559051
Si Si5 0.626950 0.352292 0.266317
Si Si6 0.147278 0.345044 0.577928
Si Si7 0.643165 0.524221 0.143287
O O1 0.500000 0.867592 0.233013
O O2 0.647209 0.750000 0.208274
O O3 0.750000 0.868947 0.250000
O O4 0.660926 0.914184 0.181215
O O5 0.500000 0.868879 0.978103
O O6 0.255517 0.887495 0.959117
O O7 0.327111 0.854821 0.031636
O O8 0.372939 0.000000 0.000000
O O9 0.269964 0.750000 0.853077
O O10 0.140571 0.855981 0.893670
O O11 0.135330 0.852785 0.813405
O O12 0.302465 0.929078 0.851727
O O13 0.500000 0.610100 0.546433
O O14 0.630383 0.750000 0.548262
O O15 0.500000 0.392091 0.252538
O O16 0.626281 0.250000 0.254075
O O17 0.750000 0.392862 0.250000
O O18 0.188480 0.250000 0.592035
O O19 0.193190 0.423318 0.605189
O O20 0.000000 0.346646 0.580801
O O21 0.500000 0.513946 0.137451
#
# Coordination Sequence:
#
# PCOD9537553 Si02
#       7
#    16  16  16  16  16  16  16
#     4   9  18  35  60  87 114 144 179 223 275 328
#     4  10  20  34  54  82 114 144 177 222 276 335
#     4  10  21  36  53  74 105 147 188 225 271 327
#     4  10  21  37  56  77 104 142 187 230 272 324
#     4   9  18  34  55  76 100 134 177 222 266 315
#     4   9  17  31  53  79 107 141 180 224 276 328
#     4  10  20  34  53  80 111 142 183 231 274 323
#
# _framework density 19.510327
#
# number of rings (size 3 to 8) (size 9 to 14) (size 15 to 20)
#    0.000    2.429    0.000    2.143    0.000    7.714 
#    0.000    5.714    0.000    0.857    0.000    2.000 
#    0.000    0.000    0.000    0.000    0.000    0.000 
#
# Total GULP energy -312098.602520 kJ/mol
# GULP energy per Si atom -5573.189331 kJ/mol
# Density = 1.946592 g / cm^3
# Si number density = 19.510327 Si / 1000 Ang^3
#
#
#
# Elastic Constant Matrix: (Units=GPa)
#
#
# Indices 1 2 3 4 5 6 
#
# 1 134.4151 33.8095 63.2594 0.0000 0.0000 0.0000
# 2 33.8095 87.9708 22.8126 0.0000 0.0000 0.0000
# 3 63.2594 22.8126 57.8038 0.0000 0.0000 0.0000
# 4 0.0000 0.0000 0.0000 10.6146 0.0000 0.0000
# 5 0.0000 0.0000 0.0000 0.0000 5.7793 0.0000
# 6 0.0000 0.0000 0.0000 0.0000 0.0000 14.2716
#
#
#
# Elastic Compliance Matrix: (Units=1/GPa)
#
#
# Indices 1 2 3 4 5 6 
#
# 1 0.015578 -0.001745 -0.016359 0.000000 0.000000 0.000000
# 2 -0.001745 0.012859 -0.003166 0.000000 0.000000 0.000000
# 3 -0.016359 -0.003166 0.036452 0.000000 0.000000 0.000000
# 4 0.000000 0.000000 0.000000 0.094210 0.000000 0.000000
# 5 0.000000 0.000000 0.000000 0.000000 0.173031 0.000000
# 6 0.000000 0.000000 0.000000 0.000000 0.000000 0.070069
#
#
# Mechanical properties :
#
#
# Convention : Reuss Voigt Hill
#
# Bulk Modulus (GPa) = 44.74272 57.77252 51.25762
# Shear Modulus (GPa) = 11.05735 16.82032 13.93884
#
# Velocity S-wave (km/s) = 2.38322 2.93938 2.67579
# Velocity P-wave (km/s) = 5.52771 6.41837 5.98962
#
# Compressibility (1/GPa) = 0.02235000
#
# Stress axis : x y z
#
# Youngs Moduli (GPa) = 64.19479 77.76787 27.43297
#
# Poissons Ratio (x) = 0.13567 0.44878
# Poissons Ratio (y) = 0.11199 0.08684
# Poissons Ratio (z) = 1.05018 0.24618
#
# Static dielectric constant tensor:
#      x y z
#    x 1.716710 0.000000 0.000000 
#    y 0.000000 1.776170 0.000000 
#    z 0.000000 0.000000 1.698910 
# 
# From -- ./inp_files/71889.got.cif
#   From: 2010.05.17/outbox.cif.g08.bks.cpg/sg74_36_cif.got.tgz:71889.got - 2010.06.03 17:57:02.
