data_PCOD9537795
_publ_section_title
;
Structure prediction by ZEFSAII (Michael W. Deem and Ramdas Pophale) SiO2 
 PCOD9537795
Probable space group: I M M A
;
_chemical_formula_sum "Si O2"
_cell_formula_units_Z 120
_cell_length_a 27.809563
_cell_length_b 8.555504
_cell_length_c 28.465931
_cell_angle_alpha 90.000000
_cell_angle_beta 90.000000
_cell_angle_gamma 90.000000
_cell_volume 6772.751722
_symmetry_space_group_name_H-M "I M M A"
_symmetry_group_IT_number 74
_symmetry_cell_setting 'orthorhombic'
loop_
_space_group_symop_operation_xyz
x,y,z
-x,1/2-y,z
x,-y,-z
-x,1/2+y,-z
-x,-y,-z
x,1/2+y,-z
-x,y,z
x,1/2-y,z
1/2+x,1/2+y,1/2+z
1/2-x,-y,1/2+z
1/2+x,1/2-y,1/2-z
1/2-x,y,1/2-z
1/2-x,1/2-y,1/2-z
1/2+x,y,1/2-z
1/2-x,1/2+y,1/2+z
1/2+x,-y,1/2+z
loop_
_atom_site_type_symbol
_atom_site_label
_atom_site_fract_x
_atom_site_fract_y
_atom_site_fract_z
Si Si1 0.848760 0.939504 0.358621
Si Si2 0.500000 0.438863 0.447183
Si Si3 0.696115 0.937552 0.763450
Si Si4 0.446270 0.940269 0.187256
Si Si5 0.092449 0.437099 0.112749
Si Si6 0.178926 0.437393 0.948049
Si Si7 0.397226 0.062860 0.715488
Si Si8 0.289602 0.438481 0.948502
O O1 0.847521 0.750000 0.357249
O O2 0.903680 0.989017 0.347966
O O3 0.825417 0.991354 0.407491
O O4 0.817759 0.001732 0.315022
O O5 0.500000 0.250000 0.448302
O O6 0.500000 0.500000 0.500000
O O7 0.452423 0.490112 0.419147
O O8 0.692839 0.750000 0.762285
O O9 0.750000 0.984497 0.750000
O O10 0.656502 0.007315 0.728246
O O11 0.500000 0.995738 0.176575
O O12 0.446983 0.750000 0.186662
O O13 0.429855 0.986108 0.239915
O O14 0.093698 0.250000 0.112315
O O15 0.141482 0.499905 0.089837
O O16 0.086913 0.494366 0.165954
O O17 0.177083 0.250000 0.948662
O O18 0.234220 0.486362 0.938417
O O19 0.166171 0.500000 0.000000
O O20 0.398148 0.250000 0.713145
O O21 0.290302 0.250000 0.949644
O O22 0.302428 0.500000 0.000000
#
# Coordination Sequence:
#
# PCOD9537795 Si02
#       8
#    16   8  16  16  16  16  16  16
#     4   9  18  33  53  78 106 139 178 218 262 314
#     4  10  24  42  58  76 102 138 178 228 283 330
#     4  10  21  35  51  76 108 142 176 213 261 318
#     4   8  15  30  53  78 103 131 171 219 261 306
#     4  11  23  38  55  77 105 136 175 223 274 326
#     4  10  20  35  53  76 102 134 175 218 267 318
#     4  10  21  35  53  78 105 138 177 219 265 313
#     4   9  19  34  53  79 108 140 176 215 259 312
#
# _framework density 17.718056000000001
#
# number of rings (size 3 to 8) (size 9 to 14) (size 15 to 20)
#    0.000    2.400    0.000    2.800    2.800    4.267 
#    0.000    0.000    0.000    4.000    0.000    0.000 
#    0.000    0.000    0.000    0.000    0.000    0.000 
#
# Total GULP energy -334831.209217 kJ/mol
# GULP energy per Si atom -5580.520154 kJ/mol
# Density = 1.767773 g / cm^3
# Si number density = 17.718056 Si / 1000 Ang^3
#
#
#
# Elastic Constant Matrix: (Units=GPa)
#
#
# Indices 1 2 3 4 5 6 
#
# 1 132.0062 21.8163 80.9023 0.0000 0.0000 0.0000
# 2 21.8163 23.8912 21.2973 0.0000 0.0000 0.0000
# 3 80.9023 21.2973 132.1144 0.0000 0.0000 0.0000
# 4 0.0000 0.0000 0.0000 29.6665 0.0000 0.0000
# 5 0.0000 0.0000 0.0000 0.0000 15.3110 0.0000
# 6 0.0000 0.0000 0.0000 0.0000 0.0000 14.2044
#
#
#
# Elastic Compliance Matrix: (Units=1/GPa)
#
#
# Indices 1 2 3 4 5 6 
#
# 1 0.012706 -0.005450 -0.006902 0.000000 0.000000 0.000000
# 2 -0.005450 0.051218 -0.004919 0.000000 0.000000 0.000000
# 3 -0.006902 -0.004919 0.012589 0.000000 0.000000 0.000000
# 4 0.000000 0.000000 0.000000 0.033708 0.000000 0.000000
# 5 0.000000 0.000000 0.000000 0.000000 0.065313 0.000000
# 6 0.000000 0.000000 0.000000 0.000000 0.000000 0.070401
#
#
# Mechanical properties :
#
#
# Convention : Reuss Voigt Hill
#
# Bulk Modulus (GPa) = 23.82631 59.56040 41.69335
# Shear Modulus (GPa) = 16.97980 22.76944 19.87462
#
# Velocity S-wave (km/s) = 3.09905 3.58872 3.35284
# Velocity P-wave (km/s) = 5.12661 7.13165 6.21058
#
# Compressibility (1/GPa) = 0.04197041
#
# Stress axis : x y z
#
# Youngs Moduli (GPa) = 78.70094 19.52441 79.43458
#
# Poissons Ratio (x) = 0.10640 0.54829
# Poissons Ratio (y) = 0.42891 0.39076
# Poissons Ratio (z) = 0.54322 0.09604
#
# Static dielectric constant tensor:
#      x y z
#    x 1.610680 0.000000 0.000000 
#    y 0.000000 1.603280 0.000000 
#    z 0.000000 0.000000 1.575650 
# 
# From -- ./inp_files/65128.got.cif
#   From: 2010.05.17/outbox.cif.g08.bks.cpg/sg74_33_cif.got.tgz:65128.got - 2010.06.03 17:57:02.
