data_PCOD9537120
_publ_section_title
;
Structure prediction by ZEFSAII (Michael W. Deem and Ramdas Pophale) SiO2 
 PCOD9537120
Probable space group: I M M A
;
_chemical_formula_sum "Si O2"
_cell_formula_units_Z 88
_cell_length_a 19.697418
_cell_length_b 7.412347
_cell_length_c 24.693563
_cell_angle_alpha 90.000000
_cell_angle_beta 90.000000
_cell_angle_gamma 90.000000
_cell_volume 3605.361373
_symmetry_space_group_name_H-M "I M M A"
_symmetry_group_IT_number 74
_symmetry_cell_setting 'orthorhombic'
loop_
_space_group_symop_operation_xyz
x,y,z
-x,1/2-y,z
x,-y,-z
-x,1/2+y,-z
-x,-y,-z
x,1/2+y,-z
-x,y,z
x,1/2-y,z
1/2+x,1/2+y,1/2+z
1/2-x,-y,1/2+z
1/2+x,1/2-y,1/2-z
1/2-x,y,1/2-z
1/2-x,1/2-y,1/2-z
1/2+x,y,1/2-z
1/2-x,1/2+y,1/2+z
1/2+x,-y,1/2+z
loop_
_atom_site_type_symbol
_atom_site_label
_atom_site_fract_x
_atom_site_fract_y
_atom_site_fract_z
Si Si1 0.212233 0.043569 0.669067
Si Si2 0.926132 0.530604 0.280591
Si Si3 0.077569 0.965415 0.059308
Si Si4 0.139376 0.970124 0.170693
Si Si5 0.351103 0.464579 0.063744
Si Si6 0.000000 0.964796 0.564531
O O1 0.212197 0.250000 0.688808
O O2 0.141780 0.962363 0.690156
O O3 0.284781 0.965318 0.684797
O O4 0.204782 0.042064 0.603971
O O5 0.927268 0.750000 0.285309
O O6 0.913834 0.485604 0.217544
O O7 0.000000 0.465963 0.299772
O O8 0.073847 0.750000 0.065190
O O9 0.117135 0.033850 0.111575
O O10 0.000000 0.035381 0.059351
O O11 0.107864 0.000000 0.000000
O O12 0.142959 0.750000 0.169260
O O13 0.351022 0.250000 0.070367
O O14 0.426196 0.535836 0.081734
O O15 0.341663 0.500000 0.000000
O O16 0.000000 0.750000 0.573264
O O17 0.000000 0.000000 0.500000
#
# Coordination Sequence:
#
# PCOD9537120 Si02
#       6
#    16  16  16  16  16   8
#     4  10  20  32  50  78 108 136 169 214 263 312
#     4   9  17  30  51  78 103 131 173 222 263 303
#     4   9  17  30  50  75 101 131 168 210 253 301
#     4   9  17  31  50  73 104 139 172 208 256 309
#     4  10  20  35  53  74 102 137 174 213 256 305
#     4   8  16  30  48  68  90 124 166 206 247 288
#
# _framework density 24.408093999999998
#
# number of rings (size 3 to 8) (size 9 to 14) (size 15 to 20)
#    0.000    2.727    0.000    1.636    1.273    5.818 
#    0.000    2.727    0.000    3.273    0.000    0.000 
#    0.000    0.000    0.000    0.000    0.000    0.000 
#
# Total GULP energy -245802.858372 kJ/mol
# GULP energy per Si atom -5586.428599 kJ/mol
# Density = 2.435254 g / cm^3
# Si number density = 24.408094 Si / 1000 Ang^3
#
#
#
# Elastic Constant Matrix: (Units=GPa)
#
#
# Indices 1 2 3 4 5 6 
#
# 1 116.4802 4.0759 33.4550 0.0000 0.0000 0.0000
# 2 4.0759 93.4649 -2.9291 0.0000 0.0000 0.0000
# 3 33.4550 -2.9291 104.2061 0.0000 0.0000 0.0000
# 4 0.0000 0.0000 0.0000 11.8058 0.0000 0.0000
# 5 0.0000 0.0000 0.0000 0.0000 40.3729 0.0000
# 6 0.0000 0.0000 0.0000 0.0000 0.0000 -4.7658
#
#
#
# Elastic Compliance Matrix: (Units=1/GPa)
#
#
# Indices 1 2 3 4 5 6 
#
# 1 0.009481 -0.000509 -0.003058 0.000000 0.000000 0.000000
# 2 -0.000509 0.010736 0.000465 0.000000 0.000000 0.000000
# 3 -0.003058 0.000465 0.010591 0.000000 0.000000 0.000000
# 4 0.000000 0.000000 0.000000 0.084704 0.000000 0.000000
# 5 0.000000 0.000000 0.000000 0.000000 0.024769 0.000000
# 6 0.000000 0.000000 0.000000 0.000000 0.000000 -0.209827
#
#
# Mechanical properties :
#
#
# Convention : Reuss Voigt Hill
#
# Bulk Modulus (GPa) = 40.64374 42.59500 41.61937
# Shear Modulus (GPa) = -90.67954 28.11920 -31.28017
#
# Velocity S-wave (km/s) = -6.10181 3.39786 -3.58376
# Velocity P-wave (km/s) = 5.74063 5.73437 0.18957
#
# Compressibility (1/GPa) = 0.02460404
#
# Stress axis : x y z
#
# Youngs Moduli (GPa) = 105.47009 93.14464 94.41714
#
# Poissons Ratio (x) = 0.04744 0.28875
# Poissons Ratio (y) = 0.05372 -0.04393
# Poissons Ratio (z) = 0.32256 -0.04334
#
# Static dielectric constant tensor:
#      x y z
#    x 1.938700 0.000000 0.000000 
#    y 0.000000 2.302270 0.000000 
#    z 0.000000 0.000000 1.929210 
# 
# From -- ./inp_files/56964.got.cif
#   From: 2010.05.17/outbox.cif.g08.bks.cpg/sg74_29_cif.got.tgz:56964.got - 2010.06.03 17:57:02.
