data_PCOD9537567
_publ_section_title
;
Structure prediction by ZEFSAII (Michael W. Deem and Ramdas Pophale) SiO2 
 PCOD9537567
Probable space group: I M M A
;
_chemical_formula_sum "Si O2"
_cell_formula_units_Z 88
_cell_length_a 14.683089
_cell_length_b 20.301786
_cell_length_c 15.086918
_cell_angle_alpha 90.000000
_cell_angle_beta 90.000000
_cell_angle_gamma 90.000000
_cell_volume 4497.303602
_symmetry_space_group_name_H-M "I M M A"
_symmetry_group_IT_number 74
_symmetry_cell_setting 'orthorhombic'
loop_
_space_group_symop_operation_xyz
x,y,z
-x,1/2-y,z
x,-y,-z
-x,1/2+y,-z
-x,-y,-z
x,1/2+y,-z
-x,y,z
x,1/2-y,z
1/2+x,1/2+y,1/2+z
1/2-x,-y,1/2+z
1/2+x,1/2-y,1/2-z
1/2-x,y,1/2-z
1/2-x,1/2-y,1/2-z
1/2+x,y,1/2-z
1/2-x,1/2+y,1/2+z
1/2+x,-y,1/2+z
loop_
_atom_site_type_symbol
_atom_site_label
_atom_site_fract_x
_atom_site_fract_y
_atom_site_fract_z
Si Si1 0.206073 0.108437 0.385423
Si Si2 0.358333 0.325854 0.759110
Si Si3 0.106209 0.590609 0.796960
Si Si4 0.600245 0.671378 0.040452
Si Si5 0.760001 0.000000 0.000000
Si Si6 0.100927 0.443982 0.871640
O O1 0.140108 0.110675 0.300888
O O2 0.311692 0.119401 0.357715
O O3 0.172196 0.152142 0.466321
O O4 0.202175 0.035002 0.425251
O O5 0.391820 0.250000 0.746962
O O6 0.250000 0.323464 0.750000
O O7 0.380449 0.349659 0.858700
O O8 0.391485 0.379390 0.688516
O O9 0.112252 0.511339 0.813978
O O10 0.000000 0.609017 0.812758
O O11 0.500000 0.646656 0.013973
O O12 0.598273 0.750000 0.044724
O O13 0.825111 0.051496 0.949330
O O14 0.000000 0.446452 0.911411
#
# Coordination Sequence:
#
# PCOD9537567 Si02
#       6
#    16  16  16  16   8  16
#     4  10  20  35  57  80 109 151 185 236 291 345
#     4  10  21  35  54  80 114 156 196 234 279 337
#     4   9  20  36  54  81 113 147 189 239 294 346
#     4  10  21  37  57  84 118 152 191 239 288 339
#     4  10  21  34  53  82 110 140 188 234 284 340
#     4  10  20  34  54  76 109 149 187 235 287 341
#
# _framework density 19.567281000000001
#
# number of rings (size 3 to 8) (size 9 to 14) (size 15 to 20)
#    0.000    2.182    0.000    2.455    7.636    1.818 
#    0.000    2.727    0.000    1.636    0.000    0.000 
#    0.000    0.000    0.000    0.000    0.000    0.000 
#
# Total GULP energy -245262.753390 kJ/mol
# GULP energy per Si atom -5574.153486 kJ/mol
# Density = 1.952275 g / cm^3
# Si number density = 19.567281 Si / 1000 Ang^3
#
#
#
# Elastic Constant Matrix: (Units=GPa)
#
#
# Indices 1 2 3 4 5 6 
#
# 1 112.3667 23.8886 38.8542 0.0000 0.0000 0.0000
# 2 23.8886 35.7769 28.4095 0.0000 0.0000 0.0000
# 3 38.8542 28.4095 107.4323 -0.0002 0.0000 -0.0002
# 4 0.0000 0.0000 -0.0002 37.5447 0.0000 -0.0001
# 5 0.0000 0.0000 0.0000 0.0000 18.8206 0.0000
# 6 0.0000 0.0000 -0.0002 -0.0001 0.0000 27.7277
#
#
#
# Elastic Compliance Matrix: (Units=1/GPa)
#
#
# Indices 1 2 3 4 5 6 
#
# 1 0.010898 -0.005249 -0.002553 0.000000 0.000000 0.000000
# 2 -0.005249 0.037909 -0.008126 0.000000 0.000000 0.000000
# 3 -0.002553 -0.008126 0.012381 0.000000 0.000000 0.000000
# 4 0.000000 0.000000 0.000000 0.026635 0.000000 0.000000
# 5 0.000000 0.000000 0.000000 0.000000 0.053133 0.000000
# 6 0.000000 0.000000 0.000000 0.000000 0.000000 0.036065
#
#
# Mechanical properties :
#
#
# Convention : Reuss Voigt Hill
#
# Bulk Modulus (GPa) = 34.09490 48.65338 41.37414
# Shear Modulus (GPa) = 22.86704 27.78016 25.32360
#
# Velocity S-wave (km/s) = 3.42224 3.77201 3.60138
# Velocity P-wave (km/s) = 5.75134 6.62491 6.20352
#
# Compressibility (1/GPa) = 0.02932990
#
# Stress axis : x y z
#
# Youngs Moduli (GPa) = 91.75723 26.37910 80.77192
#
# Poissons Ratio (x) = 0.13847 0.20624
# Poissons Ratio (y) = 0.48167 0.65637
# Poissons Ratio (z) = 0.23429 0.21436
#
# Static dielectric constant tensor:
#      x y z
#    x 1.723300 0.000000 0.000000 
#    y 0.000000 1.757540 0.000000 
#    z 0.000000 0.000000 1.667260 
# 
# From -- ./inp_files/32226.got.cif
#   From: 2010.05.17/outbox.cif.g08.bks.cpg/sg74_17_cif.got.tgz:32226.got - 2010.06.03 17:57:02.
