data_PCOD9537415
_publ_section_title
;
Structure prediction by ZEFSAII (Michael W. Deem and Ramdas Pophale) SiO2 
 PCOD9537415
Probable space group: I M M A
;
_chemical_formula_sum "Si O2"
_cell_formula_units_Z 112
_cell_length_a 23.613852
_cell_length_b 7.463123
_cell_length_c 29.420999
_cell_angle_alpha 90.000000
_cell_angle_beta 90.000000
_cell_angle_gamma 90.000000
_cell_volume 5184.953329
_symmetry_space_group_name_H-M "I M M A"
_symmetry_group_IT_number 74
_symmetry_cell_setting 'orthorhombic'
loop_
_space_group_symop_operation_xyz
x,y,z
-x,1/2-y,z
x,-y,-z
-x,1/2+y,-z
-x,-y,-z
x,1/2+y,-z
-x,y,z
x,1/2-y,z
1/2+x,1/2+y,1/2+z
1/2-x,-y,1/2+z
1/2+x,1/2-y,1/2-z
1/2-x,y,1/2-z
1/2-x,1/2-y,1/2-z
1/2+x,y,1/2-z
1/2-x,1/2+y,1/2+z
1/2+x,-y,1/2+z
loop_
_atom_site_type_symbol
_atom_site_label
_atom_site_fract_x
_atom_site_fract_y
_atom_site_fract_z
Si Si1 0.261819 0.454867 0.142756
Si Si2 0.435056 0.031415 0.273465
Si Si3 0.437579 0.039156 0.915635
Si Si4 0.181375 0.536961 0.449302
Si Si5 0.635296 0.530086 0.638192
Si Si6 0.619897 0.532615 0.820802
Si Si7 0.564749 0.035658 0.448296
O O1 0.257067 0.250000 0.159189
O O2 0.280236 0.455598 0.090013
O O3 0.199426 0.534389 0.145592
O O4 0.316451 0.533509 0.168483
O O5 0.500000 0.972933 0.273451
O O6 0.435071 0.250000 0.272947
O O7 0.403029 0.977423 0.319120
O O8 0.403736 0.973371 0.227532
O O9 0.500000 0.962269 0.924338
O O10 0.440467 0.250000 0.926157
O O11 0.383059 0.966662 0.942551
O O12 0.420508 0.020553 0.862646
O O13 0.201039 0.500000 0.500000
O O14 0.180854 0.750000 0.441433
O O15 0.637151 0.750000 0.636805
O O16 0.606505 0.470093 0.591094
O O17 0.621368 0.750000 0.821355
O O18 0.500000 0.967068 0.443148
O O19 0.561844 0.250000 0.443167
O O20 0.583331 0.000000 0.500000
#
# Coordination Sequence:
#
# PCOD9537415 Si02
#       7
#    16  16  16  16  16  16  16
#     4   9  18  32  48  68  95 126 161 197 233 278
#     4   9  16  26  44  72 101 125 153 194 241 283
#     4   9  18  32  49  69  95 127 160 194 235 283
#     4  10  20  34  51  70  94 124 158 197 240 283
#     4   9  17  29  46  69  96 124 155 193 236 281
#     4   9  17  29  47  71  97 126 160 196 233 275
#     4   9  17  30  48  68  90 118 152 190 234 283
#
# _framework density 21.600966
#
# number of rings (size 3 to 8) (size 9 to 14) (size 15 to 20)
#    0.000    2.857    0.000    1.286    0.000    4.571 
#    0.000    5.000    0.000    1.714    0.000    6.000 
#    0.000    0.000    0.000    0.000    0.000    0.000 
#
# Total GULP energy -312590.084049 kJ/mol
# GULP energy per Si atom -5581.965787 kJ/mol
# Density = 2.155180 g / cm^3
# Si number density = 21.600966 Si / 1000 Ang^3
#
#
#
# Elastic Constant Matrix: (Units=GPa)
#
#
# Indices 1 2 3 4 5 6 
#
# 1 140.8574 -2.2446 58.6145 0.0000 0.0000 0.0000
# 2 -2.2446 66.9885 -16.2998 0.0000 0.0000 0.0000
# 3 58.6145 -16.2998 87.9285 0.0000 0.0000 0.0000
# 4 0.0000 0.0000 0.0000 13.6705 0.0000 0.0000
# 5 0.0000 0.0000 0.0000 0.0000 15.3227 0.0000
# 6 0.0000 0.0000 0.0000 0.0000 0.0000 14.0960
#
#
#
# Elastic Compliance Matrix: (Units=1/GPa)
#
#
# Indices 1 2 3 4 5 6 
#
# 1 0.009938 -0.001339 -0.006873 0.000000 0.000000 0.000000
# 2 -0.001339 0.015814 0.003824 0.000000 0.000000 0.000000
# 3 -0.006873 0.003824 0.016664 0.000000 0.000000 0.000000
# 4 0.000000 0.000000 0.000000 0.073150 0.000000 0.000000
# 5 0.000000 0.000000 0.000000 0.000000 0.065263 0.000000
# 6 0.000000 0.000000 0.000000 0.000000 0.000000 0.070942
#
#
# Mechanical properties :
#
#
# Convention : Reuss Voigt Hill
#
# Bulk Modulus (GPa) = 29.72762 41.76830 35.74796
# Shear Modulus (GPa) = 18.39858 25.66478 22.03168
#
# Velocity S-wave (km/s) = 2.92164 3.45067 3.19711
# Velocity P-wave (km/s) = 5.01730 5.93754 5.49672
#
# Compressibility (1/GPa) = 0.03363875
#
# Stress axis : x y z
#
# Youngs Moduli (GPa) = 100.62213 63.23671 60.01099
#
# Poissons Ratio (x) = 0.08470 0.41247
# Poissons Ratio (y) = 0.13477 -0.22950
# Poissons Ratio (z) = 0.69160 -0.24184
#
# Static dielectric constant tensor:
#      x y z
#    x 1.778260 0.000000 0.000000 
#    y 0.000000 1.852370 0.000000 
#    z 0.000000 0.000000 1.730380 
# 
# From -- ./inp_files/68402.got.cif
#   From: 2010.05.17/outbox.cif.g08.bks.cpg/sg74_35_cif.got.tgz:68402.got - 2010.06.03 17:57:02.
