data_PCOD9537159
_publ_section_title
;
Structure prediction by ZEFSAII (Michael W. Deem and Ramdas Pophale) SiO2 
 PCOD9537159
Probable space group: I M M A
;
_chemical_formula_sum "Si O2"
_cell_formula_units_Z 112
_cell_length_a 14.837028
_cell_length_b 27.020677
_cell_length_c 16.018976
_cell_angle_alpha 90.000000
_cell_angle_beta 90.000000
_cell_angle_gamma 90.000000
_cell_volume 6422.112262
_symmetry_space_group_name_H-M "I M M A"
_symmetry_group_IT_number 74
_symmetry_cell_setting 'orthorhombic'
loop_
_space_group_symop_operation_xyz
x,y,z
-x,1/2-y,z
x,-y,-z
-x,1/2+y,-z
-x,-y,-z
x,1/2+y,-z
-x,y,z
x,1/2-y,z
1/2+x,1/2+y,1/2+z
1/2-x,-y,1/2+z
1/2+x,1/2-y,1/2-z
1/2-x,y,1/2-z
1/2-x,1/2-y,1/2-z
1/2+x,y,1/2-z
1/2-x,1/2+y,1/2+z
1/2+x,-y,1/2+z
loop_
_atom_site_type_symbol
_atom_site_label
_atom_site_fract_x
_atom_site_fract_y
_atom_site_fract_z
Si Si1 0.891298 0.899390 0.986591
Si Si2 0.599850 0.469322 0.639229
Si Si3 0.272059 0.938508 0.659250
Si Si4 0.897910 0.004740 0.400809
Si Si5 0.652297 0.588753 0.209443
Si Si6 0.391112 0.195716 0.786438
Si Si7 0.609404 0.195463 0.593101
O O1 0.832461 0.907021 0.904208
O O2 0.000000 0.897809 0.971958
O O3 0.874262 0.944615 0.051270
O O4 0.862936 0.849831 0.035574
O O5 0.500000 0.491431 0.629957
O O6 0.669421 0.510779 0.668996
O O7 0.594565 0.426229 0.708761
O O8 0.250000 0.916961 0.750000
O O9 0.176225 0.954647 0.621888
O O10 0.000000 0.015826 0.371165
O O11 0.899455 0.000000 0.500000
O O12 0.867515 0.953222 0.358309
O O13 0.750000 0.586024 0.250000
O O14 0.637251 0.643708 0.174349
O O15 0.500000 0.196520 0.787524
O O16 0.360488 0.250000 0.817755
O O17 0.360972 0.191331 0.689460
O O18 0.500000 0.194158 0.595583
O O19 0.636199 0.250000 0.562330
#
# Coordination Sequence:
#
# PCOD9537159 Si02
#       7
#    16  16  16  16  16  16  16
#     4  10  20  32  54  82 107 133 165 210 266 319
#     4  11  19  33  53  76 103 135 166 211 266 315
#     4  12  23  35  49  72 102 137 170 218 254 308
#     4  11  23  37  51  67  94 140 186 218 246 292
#     4  12  21  33  51  75 105 141 175 217 261 308
#     4   9  17  30  50  75 104 137 171 209 256 314
#     4   8  14  27  49  78 107 133 160 197 258 328
#
# _framework density 17.439744999999998
#
# number of rings (size 3 to 8) (size 9 to 14) (size 15 to 20)
#    0.000    1.571    4.286    3.857    0.000    2.000 
#    0.000    0.000    0.000    0.429    0.000    0.000 
#    0.000    0.571    0.000    0.286    0.000    0.143 
#
# Total GULP energy -312462.864290 kJ/mol
# GULP energy per Si atom -5579.694005 kJ/mol
# Density = 1.740005 g / cm^3
# Si number density = 17.439745 Si / 1000 Ang^3
#
#
#
# Elastic Constant Matrix: (Units=GPa)
#
#
# Indices 1 2 3 4 5 6 
#
# 1 70.7622 8.5935 12.0282 0.0000 0.0000 0.0000
# 2 8.5935 58.7360 13.7911 -0.0001 0.0000 0.0000
# 3 12.0282 13.7911 71.3785 -0.0003 -0.0001 0.0000
# 4 0.0000 -0.0001 -0.0003 22.1005 -0.0001 0.0000
# 5 0.0000 0.0000 -0.0001 -0.0001 33.1116 0.0000
# 6 0.0000 0.0000 0.0000 0.0000 0.0000 9.6682
#
#
#
# Elastic Compliance Matrix: (Units=1/GPa)
#
#
# Indices 1 2 3 4 5 6 
#
# 1 0.014698 -0.001643 -0.002159 0.000000 0.000000 0.000000
# 2 -0.001643 0.018018 -0.003204 0.000000 0.000000 0.000000
# 3 -0.002159 -0.003204 0.014993 0.000000 0.000000 0.000000
# 4 0.000000 0.000000 0.000000 0.045248 0.000000 0.000000
# 5 0.000000 0.000000 0.000000 0.000000 0.030201 0.000000
# 6 0.000000 0.000000 0.000000 0.000000 0.000000 0.103432
#
#
# Mechanical properties :
#
#
# Convention : Reuss Voigt Hill
#
# Bulk Modulus (GPa) = 29.67790 29.96691 29.82240
# Shear Modulus (GPa) = 19.85419 24.07366 21.96393
#
# Velocity S-wave (km/s) = 3.37775 3.71939 3.55268
# Velocity P-wave (km/s) = 5.68037 5.97207 5.82804
#
# Compressibility (1/GPa) = 0.03369510
#
# Stress axis : x y z
#
# Youngs Moduli (GPa) = 68.03424 55.49958 66.69861
#
# Poissons Ratio (x) = 0.09121 0.14403
# Poissons Ratio (y) = 0.11181 0.21373
# Poissons Ratio (z) = 0.14691 0.17784
#
# Static dielectric constant tensor:
#      x y z
#    x 1.726330 0.000000 0.000000 
#    y 0.000000 1.622630 0.000000 
#    z 0.000000 0.000000 1.590940 
# 
# From -- ./inp_files/32969.got.cif
#   From: 2010.05.17/outbox.cif.g08.bks.cpg/sg74_17_cif.got.tgz:32969.got - 2010.06.03 17:57:02.
