data_PCOD9537620
_publ_section_title
;
Structure prediction by ZEFSAII (Michael W. Deem and Ramdas Pophale) SiO2 
 PCOD9537620
Probable space group: I M M A
;
_chemical_formula_sum "Si O2"
_cell_formula_units_Z 112
_cell_length_a 19.306317
_cell_length_b 26.677200
_cell_length_c 11.843413
_cell_angle_alpha 90.000000
_cell_angle_beta 90.000000
_cell_angle_gamma 90.000000
_cell_volume 6099.813428
_symmetry_space_group_name_H-M "I M M A"
_symmetry_group_IT_number 74
_symmetry_cell_setting 'orthorhombic'
loop_
_space_group_symop_operation_xyz
x,y,z
-x,1/2-y,z
x,-y,-z
-x,1/2+y,-z
-x,-y,-z
x,1/2+y,-z
-x,y,z
x,1/2-y,z
1/2+x,1/2+y,1/2+z
1/2-x,-y,1/2+z
1/2+x,1/2-y,1/2-z
1/2-x,y,1/2-z
1/2-x,1/2-y,1/2-z
1/2+x,y,1/2-z
1/2-x,1/2+y,1/2+z
1/2+x,-y,1/2+z
loop_
_atom_site_type_symbol
_atom_site_label
_atom_site_fract_x
_atom_site_fract_y
_atom_site_fract_z
Si Si1 0.084258 1.000000 0.130589
Si Si2 0.421870 0.123896 0.000000
Si Si3 0.341886 0.308193 0.369562
Si Si4 0.341886 0.308193 0.630438
Si Si5 0.081482 0.898535 0.751471
Si Si6 0.581482 0.101465 0.748529
Si Si7 0.289011 0.309070 0.000000
O O1 0.108032 0.948561 0.187918
O O2 0.000000 1.000000 0.139015
O O3 0.108032 0.051439 0.187918
O O4 0.103300 0.000000 0.000000
O O5 0.500000 0.145667 0.000000
O O6 0.414333 0.094435 0.116873
O O7 0.414333 0.094435 0.883127
O O8 0.361143 0.164018 0.000000
O O9 0.348308 0.250000 0.332199
O O10 0.370311 0.310682 0.500000
O O11 0.378750 0.348926 0.292594
O O12 0.260745 0.320358 0.392693
O O13 0.348307 0.250000 0.667801
O O14 0.378750 0.348926 0.707406
O O15 0.239255 0.320358 0.892693
O O16 0.000000 0.891850 0.779963
O O17 0.500000 0.108150 0.720038
O O18 0.298871 0.250000 1.000000
#
# Coordination Sequence:
#
# PCOD9537620 Si02
#       7
#    16  16  16  16  16  16  16
#     4   9  18  33  57  84 108 140 180 227 276 317
#     4  10  22  36  52  77 110 148 181 218 268 322
#     4   8  17  34  55  81 106 139 180 226 281 317
#     4   8  17  34  55  81 106 139 180 226 281 317
#     4  10  20  34  54  82 113 145 182 221 267 324
#     4  10  20  34  54  82 113 145 182 221 267 324
#     4   8  18  37  56  79 107 142 188 225 269 327
#
# _framework density 18.361217
#
# number of rings (size 3 to 8) (size 9 to 14) (size 15 to 20)
#    0.857    2.143    0.000    0.857    0.000    5.429 
#    0.000   10.000    0.000    5.143    0.000    0.000 
#    0.000    0.000    0.000    0.000    0.000    0.000 
#
# Total GULP energy -311775.949184 kJ/mol
# GULP energy per Si atom -5567.427664 kJ/mol
# Density = 1.831943 g / cm^3
# Si number density = 18.361217 Si / 1000 Ang^3
#
#
#
# Elastic Constant Matrix: (Units=GPa)
#
#
# Indices 1 2 3 4 5 6 
#
# 1 55.5739 57.8070 42.1216 0.0000 0.0000 0.0000
# 2 57.8070 117.0478 67.2945 0.0000 0.0000 0.0000
# 3 42.1216 67.2945 98.1303 0.0000 0.0000 0.0000
# 4 0.0000 0.0000 0.0000 -29.4519 0.0000 0.0000
# 5 0.0000 0.0000 0.0000 0.0000 15.5663 0.0000
# 6 0.0000 0.0000 0.0000 0.0000 0.0000 109.0098
#
#
#
# Elastic Compliance Matrix: (Units=1/GPa)
#
#
# Indices 1 2 3 4 5 6 
#
# 1 0.038917 -0.015875 -0.005818 0.000000 0.000000 0.000000
# 2 -0.015875 0.020580 -0.007299 0.000000 0.000000 0.000000
# 3 -0.005818 -0.007299 0.017693 0.000000 0.000000 0.000000
# 4 0.000000 0.000000 0.000000 -0.033954 0.000000 0.000000
# 5 0.000000 0.000000 0.000000 0.000000 0.064241 0.000000
# 6 0.000000 0.000000 0.000000 0.000000 0.000000 0.009173
#
#
# Mechanical properties :
#
#
# Convention : Reuss Voigt Hill
#
# Bulk Modulus (GPa) = 52.06701 67.24424 59.65563
# Shear Modulus (GPa) = 27.61853 25.92678 26.77265
#
# Velocity S-wave (km/s) = 3.88258 3.76179 3.82266
# Velocity P-wave (km/s) = 6.96548 7.45457 7.21417
#
# Compressibility (1/GPa) = 0.01920602
#
# Stress axis : x y z
#
# Youngs Moduli (GPa) = 25.69584 48.59030 56.51840
#
# Poissons Ratio (x) = 0.77137 0.32883
# Poissons Ratio (y) = 0.40792 0.41253
# Poissons Ratio (z) = 0.14950 0.35466
#
# Static dielectric constant tensor:
#      x y z
#    x 1.641630 0.000000 0.000000 
#    y 0.000000 1.586080 0.000000 
#    z 0.000000 0.000000 1.691420 
# 
# From -- ./inp_files/24159.got.cif
#   From: 2010.05.17/outbox.cif.g08.bks.cpg/sg74_13_cif.got.tgz:24159.got - 2010.06.03 17:57:02.
