data_PCOD9537611
_publ_section_title
;
Structure prediction by ZEFSAII (Michael W. Deem and Ramdas Pophale) SiO2 
 PCOD9537611
Probable space group: I M M A
;
_chemical_formula_sum "Si O2"
_cell_formula_units_Z 96
_cell_length_a 9.137009
_cell_length_b 22.891422
_cell_length_c 24.185083
_cell_angle_alpha 90.000000
_cell_angle_beta 90.000000
_cell_angle_gamma 90.000000
_cell_volume 5058.530891
_symmetry_space_group_name_H-M "I M M A"
_symmetry_group_IT_number 74
_symmetry_cell_setting 'orthorhombic'
loop_
_space_group_symop_operation_xyz
x,y,z
-x,1/2-y,z
x,-y,-z
-x,1/2+y,-z
-x,-y,-z
x,1/2+y,-z
-x,y,z
x,1/2-y,z
1/2+x,1/2+y,1/2+z
1/2-x,-y,1/2+z
1/2+x,1/2-y,1/2-z
1/2-x,y,1/2-z
1/2-x,1/2-y,1/2-z
1/2+x,y,1/2-z
1/2-x,1/2+y,1/2+z
1/2+x,-y,1/2+z
loop_
_atom_site_type_symbol
_atom_site_label
_atom_site_fract_x
_atom_site_fract_y
_atom_site_fract_z
Si Si1 0.174432 0.816931 0.357468
Si Si2 0.174751 0.122284 0.085533
Si Si3 0.670121 0.422850 0.697335
Si Si4 0.326817 0.179712 0.191866
Si Si5 0.670516 0.515701 0.419893
Si Si6 0.826368 0.877424 0.474490
O O1 0.217624 0.750000 0.349874
O O2 0.257764 0.860924 0.317511
O O3 0.202590 0.837786 0.420465
O O4 0.000000 0.822342 0.348562
O O5 0.250438 0.148929 0.139689
O O6 0.000000 0.131362 0.087755
O O7 0.203268 0.052652 0.081291
O O8 0.243792 0.145796 0.028552
O O9 0.500000 0.415636 0.709215
O O10 0.750000 0.449318 0.750000
O O11 0.687141 0.461467 0.642633
O O12 0.500000 0.166181 0.193679
O O13 0.311369 0.250000 0.185777
O O14 0.250000 0.163361 0.250000
O O15 0.500000 0.523892 0.436220
O O16 0.767367 0.558167 0.457677
O O17 0.000000 0.879329 0.484312
#
# Coordination Sequence:
#
# PCOD9537611 Si02
#       6
#    16  16  16  16  16  16
#     4   9  19  36  55  75 103 139 178 221 267 313
#     4  11  22  36  57  84 112 144 182 220 263 321
#     4  10  20  35  54  76 104 138 177 220 266 315
#     4  10  22  41  62  83 110 142 177 221 271 321
#     4   9  20  37  54  76 109 146 181 223 272 318
#     4  10  20  34  54  81 111 144 182 225 273 321
#
# _framework density 18.977841999999999
#
# number of rings (size 3 to 8) (size 9 to 14) (size 15 to 20)
#    0.000    2.167    0.000    2.500    0.000    7.667 
#    0.000    3.333    0.000    0.000    0.000    0.000 
#    0.000    0.000    0.000    0.000    0.000    0.000 
#
# Total GULP energy -268081.260713 kJ/mol
# GULP energy per Si atom -5585.026265 kJ/mol
# Density = 1.893465 g / cm^3
# Si number density = 18.977842 Si / 1000 Ang^3
#
#
#
# Elastic Constant Matrix: (Units=GPa)
#
#
# Indices 1 2 3 4 5 6 
#
# 1 74.1328 13.0027 59.0424 0.0000 0.0000 0.0000
# 2 13.0027 14.5319 -0.0150 0.0000 0.0000 0.0000
# 3 59.0424 -0.0150 116.8929 0.0000 0.0000 0.0000
# 4 0.0000 0.0000 0.0000 12.8642 0.0000 0.0000
# 5 0.0000 0.0000 0.0000 0.0000 37.5036 0.0000
# 6 0.0000 0.0000 0.0000 0.0000 0.0000 25.9577
#
#
#
# Elastic Compliance Matrix: (Units=1/GPa)
#
#
# Indices 1 2 3 4 5 6 
#
# 1 0.030616 -0.027410 -0.015468 0.000000 0.000000 0.000000
# 2 -0.027410 0.093354 0.013857 0.000000 0.000000 0.000000
# 3 -0.015468 0.013857 0.016369 0.000000 0.000000 0.000000
# 4 0.000000 0.000000 0.000000 0.077735 0.000000 0.000000
# 5 0.000000 0.000000 0.000000 0.000000 0.026664 0.000000
# 6 0.000000 0.000000 0.000000 0.000000 0.000000 0.038524
#
#
# Mechanical properties :
#
#
# Convention : Reuss Voigt Hill
#
# Bulk Modulus (GPa) = 12.15102 38.84640 25.49871
# Shear Modulus (GPa) = 13.55976 24.16692 18.86334
#
# Velocity S-wave (km/s) = 2.67592 3.57238 3.15614
# Velocity P-wave (km/s) = 3.99550 6.12615 5.17174
#
# Compressibility (1/GPa) = 0.08229761
#
# Stress axis : x y z
#
# Youngs Moduli (GPa) = 32.66255 10.71188 61.08988
#
# Poissons Ratio (x) = 0.29362 0.94492
# Poissons Ratio (y) = 0.89529 -0.84652
# Poissons Ratio (z) = 0.50521 -0.14843
#
# Static dielectric constant tensor:
#      x y z
#    x 1.638010 0.000000 0.000000 
#    y 0.000000 1.642810 0.000000 
#    z 0.000000 0.000000 1.661580 
# 
# From -- ./inp_files/49048.got.cif
#   From: 2010.05.17/outbox.cif.g08.bks.cpg/sg74_25_cif.got.tgz:49048.got - 2010.06.03 17:57:02.
