data_PCOD9537287
_publ_section_title
;
Structure prediction by ZEFSAII (Michael W. Deem and Ramdas Pophale) SiO2 
 PCOD9537287
Probable space group: I M M A
;
_chemical_formula_sum "Si O2"
_cell_formula_units_Z 88
_cell_length_a 8.446696
_cell_length_b 22.712538
_cell_length_c 24.593079
_cell_angle_alpha 90.000000
_cell_angle_beta 90.000000
_cell_angle_gamma 90.000000
_cell_volume 4718.081470
_symmetry_space_group_name_H-M "I M M A"
_symmetry_group_IT_number 74
_symmetry_cell_setting 'orthorhombic'
loop_
_space_group_symop_operation_xyz
x,y,z
-x,1/2-y,z
x,-y,-z
-x,1/2+y,-z
-x,-y,-z
x,1/2+y,-z
-x,y,z
x,1/2-y,z
1/2+x,1/2+y,1/2+z
1/2-x,-y,1/2+z
1/2+x,1/2-y,1/2-z
1/2-x,y,1/2-z
1/2-x,1/2-y,1/2-z
1/2+x,y,1/2-z
1/2-x,1/2+y,1/2+z
1/2+x,-y,1/2+z
loop_
_atom_site_type_symbol
_atom_site_label
_atom_site_fract_x
_atom_site_fract_y
_atom_site_fract_z
Si Si1 0.689604 0.403979 0.400358
Si Si2 0.191369 0.316020 0.189652
Si Si3 0.688579 0.250000 0.687297
Si Si4 0.189116 0.313110 0.483237
Si Si5 0.691364 0.025461 0.560415
Si Si6 0.312053 0.651640 0.104060
O O1 0.500000 0.405691 0.396608
O O2 0.753499 0.364387 0.351737
O O3 0.731612 0.368386 0.454734
O O4 0.743287 0.470883 0.401879
O O5 0.243201 0.250000 0.174416
O O6 0.250000 0.327670 0.250000
O O7 0.000000 0.316727 0.188921
O O8 0.500000 0.250000 0.689044
O O9 0.750000 0.250000 0.750000
O O10 0.742378 0.191469 0.653040
O O11 0.246211 0.250000 0.461115
O O12 0.218568 0.314769 0.547337
O O13 0.000000 0.317090 0.475129
O O14 0.500000 0.030652 0.558197
O O15 0.753517 0.085819 0.587284
O O16 0.738783 0.000000 0.500000
O O17 0.500000 0.648616 0.113003
#
# Coordination Sequence:
#
# PCOD9537287 Si02
#       6
#    16  16   8  16  16  16
#     4  10  20  34  53  79 113 149 192 240 284 342
#     4   9  18  33  52  74 102 139 182 230 280 330
#     4  12  26  46  72  96 122 158 203 256 313 368
#     4  10  20  33  51  80 117 151 187 236 290 349
#     4  10  20  35  55  84 120 159 200 240 293 356
#     4  11  22  39  61  88 122 156 196 243 298 362
#
# _framework density 18.65165
#
# number of rings (size 3 to 8) (size 9 to 14) (size 15 to 20)
#    0.000    1.818    2.727    1.909    0.000    3.636 
#    0.000    2.727    0.000    2.182    0.000    0.000 
#    0.000    0.000    0.000    0.000    0.000    0.000 
#
# Total GULP energy -245170.118729 kJ/mol
# GULP energy per Si atom -5572.048153 kJ/mol
# Density = 1.860920 g / cm^3
# Si number density = 18.651650 Si / 1000 Ang^3
#
#
#
# Elastic Constant Matrix: (Units=GPa)
#
#
# Indices 1 2 3 4 5 6 
#
# 1 23.7406 42.1726 38.4162 0.0000 0.0000 0.0000
# 2 42.1726 185.1849 80.7184 0.0000 0.0000 0.0000
# 3 38.4162 80.7184 114.7042 0.0000 0.0000 0.0000
# 4 0.0000 0.0000 0.0000 -15.1618 0.0000 0.0000
# 5 0.0000 0.0000 0.0000 0.0000 27.2824 0.0000
# 6 0.0000 0.0000 0.0000 0.0000 0.0000 -31.2881
#
#
#
# Elastic Compliance Matrix: (Units=1/GPa)
#
#
# Indices 1 2 3 4 5 6 
#
# 1 0.110020 -0.012973 -0.027718 0.000000 0.000000 0.000000
# 2 -0.012973 0.009319 -0.002213 0.000000 0.000000 0.000000
# 3 -0.027718 -0.002213 0.019558 0.000000 0.000000 0.000000
# 4 0.000000 0.000000 0.000000 -0.065955 0.000000 0.000000
# 5 0.000000 0.000000 0.000000 0.000000 0.036654 0.000000
# 6 0.000000 0.000000 0.000000 0.000000 0.000000 -0.031961
#
#
# Mechanical properties :
#
#
# Convention : Reuss Voigt Hill
#
# Bulk Modulus (GPa) = 18.83632 71.80490 45.32061
# Shear Modulus (GPa) = 27.60318 6.98800 17.29559
#
# Velocity S-wave (km/s) = 3.85116 1.93771 3.04846
# Velocity P-wave (km/s) = 5.46774 6.60210 6.06152
#
# Compressibility (1/GPa) = 0.05308891
#
# Stress axis : x y z
#
# Youngs Moduli (GPa) = 9.08930 107.30722 51.12897
#
# Poissons Ratio (x) = 1.39214 1.41718
# Poissons Ratio (y) = 0.11792 0.11314
# Poissons Ratio (z) = 0.25193 0.23746
#
# Static dielectric constant tensor:
#      x y z
#    x 1.737610 0.000000 0.000000 
#    y 0.000000 1.688080 0.000000 
#    z 0.000000 0.000000 1.656280 
# 
# From -- ./inp_files/56962.got.cif
#   From: 2010.05.17/outbox.cif.g08.bks.cpg/sg74_29_cif.got.tgz:56962.got - 2010.06.03 17:57:02.
