data_PCOD9537566
_publ_section_title
;
Structure prediction by ZEFSAII (Michael W. Deem and Ramdas Pophale) SiO2 
 PCOD9537566
Probable space group: I M M A
;
_chemical_formula_sum "Si O2"
_cell_formula_units_Z 64
_cell_length_a 29.949775
_cell_length_b 24.530032
_cell_length_c 5.038802
_cell_angle_alpha 90.000000
_cell_angle_beta 90.000000
_cell_angle_gamma 90.000000
_cell_volume 3701.851320
_symmetry_space_group_name_H-M "I M M A"
_symmetry_group_IT_number 74
_symmetry_cell_setting 'orthorhombic'
loop_
_space_group_symop_operation_xyz
x,y,z
-x,1/2-y,z
x,-y,-z
-x,1/2+y,-z
-x,-y,-z
x,1/2+y,-z
-x,y,z
x,1/2-y,z
1/2+x,1/2+y,1/2+z
1/2-x,-y,1/2+z
1/2+x,1/2-y,1/2-z
1/2-x,y,1/2-z
1/2-x,1/2-y,1/2-z
1/2+x,y,1/2-z
1/2-x,1/2+y,1/2+z
1/2+x,-y,1/2+z
loop_
_atom_site_type_symbol
_atom_site_label
_atom_site_fract_x
_atom_site_fract_y
_atom_site_fract_z
Si Si1 0.096213 0.062505 0.898618
Si Si2 0.281154 0.312881 0.991906
Si Si3 0.221905 0.500000 0.500000
Si Si4 0.153032 0.591945 0.610581
Si Si5 0.500000 0.959226 0.255559
O O1 0.126002 0.070397 0.641345
O O2 0.045703 0.074115 0.798706
O O3 0.119696 0.094728 0.139189
O O4 0.096921 0.000000 0.000000
O O5 0.294164 0.250000 0.938110
O O6 0.250000 0.332159 0.750000
O O7 0.250000 0.314004 0.250000
O O8 0.323044 0.351459 0.043023
O O9 0.250000 0.476984 0.750000
O O10 0.192102 0.546923 0.638420
O O11 0.500000 0.000000 0.500000
O O12 0.500000 0.000000 0.000000
#
# Coordination Sequence:
#
# PCOD9537566 Si02
#       5
#    16  16   8  16   8
#     4  11  20  35  51  79 109 139 172 219 260 329
#     4  10  21  38  56  75 102 140 187 230 263 304
#     4  12  22  32  46  69 108 141 168 204 262 322
#     4  12  21  34  53  77 107 139 178 219 265 314
#     4  10  20  34  54  76 107 146 177 208 268 317
#
# _framework density 17.288647999999998
#
# number of rings (size 3 to 8) (size 9 to 14) (size 15 to 20)
#    0.000    1.000    2.500    7.500    0.000    0.000 
#    0.000    0.000    0.000    0.000    0.000    5.250 
#    0.000    0.000    0.000    0.000    0.000    0.000 
#
# Total GULP energy -178521.425016 kJ/mol
# GULP energy per Si atom -5578.794532 kJ/mol
# Density = 1.724930 g / cm^3
# Si number density = 17.288648 Si / 1000 Ang^3
#
#
#
# Elastic Constant Matrix: (Units=GPa)
#
#
# Indices 1 2 3 4 5 6 
#
# 1 120.1907 42.0111 42.4233 0.0000 0.0000 0.0000
# 2 42.0111 48.6179 -2.5977 0.0000 0.0000 0.0000
# 3 42.4233 -2.5977 118.0909 0.0000 0.0000 0.0000
# 4 0.0000 0.0000 0.0000 23.1333 0.0000 0.0000
# 5 0.0000 0.0000 0.0000 0.0000 24.5990 0.0000
# 6 0.0000 0.0000 0.0000 0.0000 0.0000 50.3553
#
#
#
# Elastic Compliance Matrix: (Units=1/GPa)
#
#
# Indices 1 2 3 4 5 6 
#
# 1 0.014931 -0.013204 -0.005654 0.000000 0.000000 0.000000
# 2 -0.013204 0.032270 0.005453 0.000000 0.000000 0.000000
# 3 -0.005654 0.005453 0.010619 0.000000 0.000000 0.000000
# 4 0.000000 0.000000 0.000000 0.043228 0.000000 0.000000
# 5 0.000000 0.000000 0.000000 0.000000 0.040652 0.000000
# 6 0.000000 0.000000 0.000000 0.000000 0.000000 0.019859
#
#
# Mechanical properties :
#
#
# Convention : Reuss Voigt Hill
#
# Bulk Modulus (GPa) = 32.24784 50.06367 41.15576
# Shear Modulus (GPa) = 25.16268 33.28836 29.22552
#
# Velocity S-wave (km/s) = 3.81917 4.39275 4.11596
# Velocity P-wave (km/s) = 6.17585 7.39924 6.81505
#
# Compressibility (1/GPa) = 0.03100982
#
# Stress axis : x y z
#
# Youngs Moduli (GPa) = 66.97296 30.98851 94.16782
#
# Poissons Ratio (x) = 0.40919 0.53247
# Poissons Ratio (y) = 0.88434 -0.51354
# Poissons Ratio (z) = 0.37870 -0.16899
#
# Static dielectric constant tensor:
#      x y z
#    x 1.685100 0.000000 0.000000 
#    y 0.000000 1.544890 0.000000 
#    z 0.000000 0.000000 1.643370 
# 
# From -- ./inp_files/3702.got.cif
#   From: 2010.05.17/outbox.cif.g08.bks.cpg/sg74_2_cif.got.tgz:3702.got - 2010.06.03 17:57:02.
