data_PCOD9537325
_publ_section_title
;
Structure prediction by ZEFSAII (Michael W. Deem and Ramdas Pophale) SiO2 
 PCOD9537325
Probable space group: I M M A
;
_chemical_formula_sum "Si O2"
_cell_formula_units_Z 112
_cell_length_a 17.832148
_cell_length_b 14.649559
_cell_length_c 22.960433
_cell_angle_alpha 90.000000
_cell_angle_beta 90.000000
_cell_angle_gamma 90.000000
_cell_volume 5998.025187
_symmetry_space_group_name_H-M "I M M A"
_symmetry_group_IT_number 74
_symmetry_cell_setting 'orthorhombic'
loop_
_space_group_symop_operation_xyz
x,y,z
-x,1/2-y,z
x,-y,-z
-x,1/2+y,-z
-x,-y,-z
x,1/2+y,-z
-x,y,z
x,1/2-y,z
1/2+x,1/2+y,1/2+z
1/2-x,-y,1/2+z
1/2+x,1/2-y,1/2-z
1/2-x,y,1/2-z
1/2-x,1/2-y,1/2-z
1/2+x,y,1/2-z
1/2-x,1/2+y,1/2+z
1/2+x,-y,1/2+z
loop_
_atom_site_type_symbol
_atom_site_label
_atom_site_fract_x
_atom_site_fract_y
_atom_site_fract_z
Si Si1 0.589867 0.643360 0.749057
Si Si2 0.845105 0.647122 0.096662
Si Si3 0.412581 0.858017 0.531307
Si Si4 0.334698 0.848357 0.094515
Si Si5 0.914889 0.395582 0.477917
Si Si6 0.838762 0.955525 0.861051
Si Si7 0.159375 0.953152 0.639182
O O1 0.500000 0.638135 0.748475
O O2 0.611407 0.750000 0.753259
O O3 0.622215 0.599997 0.690214
O O4 0.621902 0.587960 0.803746
O O5 0.865336 0.750000 0.116283
O O6 0.755180 0.645216 0.087404
O O7 0.861355 0.562510 0.138869
O O8 0.884361 0.630129 0.034621
O O9 0.500000 0.883318 0.535826
O O10 0.405719 0.750000 0.544884
O O11 0.364646 0.914766 0.577142
O O12 0.351837 0.750000 0.122787
O O13 0.359631 0.939610 0.128255
O O14 0.371559 0.848836 0.030746
O O15 0.919168 0.500000 0.500000
O O16 0.870440 0.398434 0.417351
O O17 0.000000 0.362058 0.470128
O O18 0.749127 0.947317 0.856199
#
# Coordination Sequence:
#
# PCOD9537325 Si02
#       7
#    16  16  16  16  16  16  16
#     4  11  25  43  60  78 103 137 177 222 271 321
#     4   9  19  35  54  80 113 145 178 217 262 315
#     4  10  20  33  52  81 114 145 178 219 269 321
#     4   9  18  34  56  82 112 144 178 217 262 315
#     4   9  17  30  50  78 112 145 176 214 259 307
#     4  11  21  35  58  82 106 141 182 223 267 314
#     4  10  21  37  57  81 108 141 181 223 267 315
#
# _framework density 18.672812
#
# number of rings (size 3 to 8) (size 9 to 14) (size 15 to 20)
#    0.000    2.143    0.000    3.000    0.000    8.286 
#    0.000    0.714    0.000    4.286    0.000    0.000 
#    0.000    0.000    0.000    0.000    0.000    0.000 
#
# Total GULP energy -312558.508032 kJ/mol
# GULP energy per Si atom -5581.401929 kJ/mol
# Density = 1.863031 g / cm^3
# Si number density = 18.672812 Si / 1000 Ang^3
#
#
#
# Elastic Constant Matrix: (Units=GPa)
#
#
# Indices 1 2 3 4 5 6 
#
# 1 45.6694 45.5523 20.3237 0.0000 0.0000 0.0000
# 2 45.5523 128.7850 48.0899 0.0000 0.0000 0.0000
# 3 20.3237 48.0899 45.1667 0.0000 0.0000 0.0000
# 4 0.0000 0.0000 0.0000 25.8847 0.0000 0.0000
# 5 0.0000 0.0000 0.0000 0.0000 40.4840 0.0000
# 6 0.0000 0.0000 0.0000 0.0000 0.0000 13.2430
#
#
#
# Elastic Compliance Matrix: (Units=1/GPa)
#
#
# Indices 1 2 3 4 5 6 
#
# 1 0.034301 -0.010573 -0.004178 0.000000 0.000000 0.000000
# 2 -0.010573 0.016148 -0.012436 0.000000 0.000000 0.000000
# 3 -0.004178 -0.012436 0.037261 0.000000 0.000000 0.000000
# 4 0.000000 0.000000 0.000000 0.038633 0.000000 0.000000
# 5 0.000000 0.000000 0.000000 0.000000 0.024701 0.000000
# 6 0.000000 0.000000 0.000000 0.000000 0.000000 0.075511
#
#
# Mechanical properties :
#
#
# Convention : Reuss Voigt Hill
#
# Bulk Modulus (GPa) = 29.99603 49.72813 39.86208
# Shear Modulus (GPa) = 17.12089 22.96602 20.04346
#
# Velocity S-wave (km/s) = 3.03130 3.51082 3.27984
# Velocity P-wave (km/s) = 5.32453 6.56686 5.97805
#
# Compressibility (1/GPa) = 0.03333774
#
# Stress axis : x y z
#
# Youngs Moduli (GPa) = 29.15356 61.92619 26.83779
#
# Poissons Ratio (x) = 0.65472 0.11212
# Poissons Ratio (y) = 0.30823 0.33376
# Poissons Ratio (z) = 0.12179 0.77011
#
# Static dielectric constant tensor:
#      x y z
#    x 1.626770 0.000000 0.000000 
#    y 0.000000 1.703770 0.000000 
#    z 0.000000 0.000000 1.595810 
# 
# From -- ./inp_files/60199.got.cif
#   From: 2010.05.17/outbox.cif.g08.bks.cpg/sg74_31_cif.got.tgz:60199.got - 2010.06.03 17:57:02.
