data_PCOD9537746
_publ_section_title
;
Structure prediction by ZEFSAII (Michael W. Deem and Ramdas Pophale) SiO2 
 PCOD9537746
Probable space group: I M M A
;
_chemical_formula_sum "Si O2"
_cell_formula_units_Z 64
_cell_length_a 31.084659
_cell_length_b 20.862600
_cell_length_c 5.284689
_cell_angle_alpha 90.000000
_cell_angle_beta 90.000000
_cell_angle_gamma 90.000000
_cell_volume 3427.156789
_symmetry_space_group_name_H-M "I M M A"
_symmetry_group_IT_number 74
_symmetry_cell_setting 'orthorhombic'
loop_
_space_group_symop_operation_xyz
x,y,z
-x,1/2-y,z
x,-y,-z
-x,1/2+y,-z
-x,-y,-z
x,1/2+y,-z
-x,y,z
x,1/2-y,z
1/2+x,1/2+y,1/2+z
1/2-x,-y,1/2+z
1/2+x,1/2-y,1/2-z
1/2-x,y,1/2-z
1/2-x,1/2-y,1/2-z
1/2+x,y,1/2-z
1/2-x,1/2+y,1/2+z
1/2+x,-y,1/2+z
loop_
_atom_site_type_symbol
_atom_site_label
_atom_site_fract_x
_atom_site_fract_y
_atom_site_fract_z
Si Si1 0.369565 0.369482 0.268345
Si Si2 0.170033 0.179143 0.720733
Si Si3 0.450169 0.542857 0.751855
Si Si4 0.788101 0.427385 0.427123
O O1 0.356300 0.335180 0.526291
O O2 0.416335 0.399939 0.266911
O O3 0.333373 0.424965 0.224802
O O4 0.361064 0.325361 0.024174
O O5 0.189630 0.250000 0.733695
O O6 0.202838 0.121143 0.658690
O O7 0.445746 0.500000 0.500000
O O8 0.500000 0.563741 0.770126
O O9 0.440628 0.500000 0.000000
O O10 0.778421 0.500000 0.500000
O O11 0.750000 0.402154 0.250000
#
# Coordination Sequence:
#
# PCOD9537746 Si02
#       4
#    16  16  16  16
#     4  10  22  37  62  83 121 159 197 249 307 353
#     4  10  23  41  61  86 118 164 208 246 298 364
#     4  10  20  34  58  92 126 157 199 252 308 370
#     4  10  25  37  62  92 122 156 199 256 308 365
#
# _framework density 18.67437
#
# number of rings (size 3 to 8) (size 9 to 14) (size 15 to 20)
#    1.500    0.500    0.000    3.000    7.000    0.500 
#    0.000    1.250    0.000    4.500    0.000    0.000 
#    0.000    0.000    0.000    0.000    0.000    0.000 
#
# Total GULP energy -178309.425141 kJ/mol
# GULP energy per Si atom -5572.169536 kJ/mol
# Density = 1.863187 g / cm^3
# Si number density = 18.674370 Si / 1000 Ang^3
#
#
#
# Elastic Constant Matrix: (Units=GPa)
#
#
# Indices 1 2 3 4 5 6 
#
# 1 67.0865 22.9195 22.6263 0.0000 0.0000 0.0000
# 2 22.9195 72.8148 30.5598 0.0000 0.0000 0.0000
# 3 22.6263 30.5598 145.6015 0.0000 0.0000 0.0000
# 4 0.0000 0.0000 0.0000 -14.4935 0.0000 0.0000
# 5 0.0000 0.0000 0.0000 0.0000 -2.6208 0.0000
# 6 0.0000 0.0000 0.0000 0.0000 0.0000 -71.2734
#
#
#
# Elastic Compliance Matrix: (Units=1/GPa)
#
#
# Indices 1 2 3 4 5 6 
#
# 1 0.017065 -0.004670 -0.001672 0.000000 0.000000 0.000000
# 2 -0.004670 0.016338 -0.002703 0.000000 0.000000 0.000000
# 3 -0.001672 -0.002703 0.007695 0.000000 0.000000 0.000000
# 4 0.000000 0.000000 0.000000 -0.068997 0.000000 0.000000
# 5 0.000000 0.000000 0.000000 0.000000 -0.381567 0.000000
# 6 0.000000 0.000000 0.000000 0.000000 0.000000 -0.014030
#
#
# Mechanical properties :
#
#
# Convention : Reuss Voigt Hill
#
# Bulk Modulus (GPa) = 43.46242 48.63489 46.04866
# Shear Modulus (GPa) = -12.57115 -3.71771 -8.14443
#
# Velocity S-wave (km/s) = -2.59738 -1.41249 -2.09064
# Velocity P-wave (km/s) = 3.78539 4.84149 4.34564
#
# Compressibility (1/GPa) = 0.02300838
#
# Stress axis : x y z
#
# Youngs Moduli (GPa) = 58.59801 61.20702 129.94993
#
# Poissons Ratio (x) = 0.28583 0.21725
# Poissons Ratio (y) = 0.27365 0.35131
# Poissons Ratio (z) = 0.09796 0.16547
#
# Static dielectric constant tensor:
#      x y z
#    x 1.624890 0.000000 0.000000 
#    y 0.000000 1.644910 0.000000 
#    z 0.000000 0.000000 1.670730 
# 
# From -- ./inp_files/4342.got.cif
#   From: 2010.05.17/outbox.cif.g08.bks.cpg/sg74_3_cif.got.tgz:4342.got - 2010.06.03 17:57:02.
