data_PCOD9537582
_publ_section_title
;
Structure prediction by ZEFSAII (Michael W. Deem and Ramdas Pophale) SiO2 
 PCOD9537582
Probable space group: I M M A
;
_chemical_formula_sum "Si O2"
_cell_formula_units_Z 80
_cell_length_a 18.636255
_cell_length_b 8.577095
_cell_length_c 28.258770
_cell_angle_alpha 90.000000
_cell_angle_beta 90.000000
_cell_angle_gamma 90.000000
_cell_volume 4517.021101
_symmetry_space_group_name_H-M "I M M A"
_symmetry_group_IT_number 74
_symmetry_cell_setting 'orthorhombic'
loop_
_space_group_symop_operation_xyz
x,y,z
-x,1/2-y,z
x,-y,-z
-x,1/2+y,-z
-x,-y,-z
x,1/2+y,-z
-x,y,z
x,1/2-y,z
1/2+x,1/2+y,1/2+z
1/2-x,-y,1/2+z
1/2+x,1/2-y,1/2-z
1/2-x,y,1/2-z
1/2-x,1/2-y,1/2-z
1/2+x,y,1/2-z
1/2-x,1/2+y,1/2+z
1/2+x,-y,1/2+z
loop_
_atom_site_type_symbol
_atom_site_label
_atom_site_fract_x
_atom_site_fract_y
_atom_site_fract_z
Si Si1 0.791977 0.435190 0.853422
Si Si2 0.351388 0.938186 0.809441
Si Si3 0.270738 0.436914 0.050420
Si Si4 0.079158 0.939268 0.591256
Si Si5 0.582698 0.438637 0.291187
O O1 0.791345 0.250000 0.855870
O O2 0.726647 0.492121 0.819858
O O3 0.775060 0.504323 0.905113
O O4 0.865804 0.495429 0.831438
O O5 0.344344 0.750000 0.809249
O O6 0.401373 0.979074 0.854369
O O7 0.385718 0.986954 0.759947
O O8 0.270260 0.250000 0.050486
O O9 0.353013 0.491704 0.060333
O O10 0.246306 0.500000 0.000000
O O11 0.077785 0.750000 0.588810
O O12 0.000000 0.997105 0.578078
O O13 0.500000 0.486900 0.295724
O O14 0.585117 0.250000 0.292601
#
# Coordination Sequence:
#
# PCOD9537582 Si02
#       5
#    16  16  16  16  16
#     4  11  22  35  52  75 105 139 174 212 254 303
#     4   9  17  31  52  76 104 140 179 213 247 293
#     4  10  20  35  55  76  99 130 171 217 263 311
#     4   8  14  26  46  73 104 136 169 206 247 292
#     4  10  20  34  54  79 106 137 173 213 258 307
#
# _framework density 17.710787
#
# number of rings (size 3 to 8) (size 9 to 14) (size 15 to 20)
#    0.000    2.400    0.000    4.800    0.000    6.400 
#    0.000    0.000    0.000   19.800    0.000    0.000 
#    0.000    0.000    0.000    0.000    0.000    0.000 
#
# Total GULP energy -223237.116485 kJ/mol
# GULP energy per Si atom -5580.927912 kJ/mol
# Density = 1.767048 g / cm^3
# Si number density = 17.710787 Si / 1000 Ang^3
#
#
#
# Elastic Constant Matrix: (Units=GPa)
#
#
# Indices 1 2 3 4 5 6 
#
# 1 115.9003 32.8889 71.3601 0.0000 0.0000 0.0000
# 2 32.8889 36.8341 30.7820 0.0000 0.0000 0.0000
# 3 71.3601 30.7820 113.8979 0.0000 0.0000 0.0000
# 4 0.0000 0.0000 0.0000 21.5011 0.0000 0.0000
# 5 0.0000 0.0000 0.0000 0.0000 4.9021 0.0000
# 6 0.0000 0.0000 0.0000 0.0000 0.0000 -6.2503
#
#
#
# Elastic Compliance Matrix: (Units=1/GPa)
#
#
# Indices 1 2 3 4 5 6 
#
# 1 0.015456 -0.007373 -0.007691 0.000000 0.000000 0.000000
# 2 -0.007373 0.038587 -0.005809 0.000000 0.000000 0.000000
# 3 -0.007691 -0.005809 0.015168 0.000000 0.000000 0.000000
# 4 0.000000 0.000000 0.000000 0.046509 0.000000 0.000000
# 5 0.000000 0.000000 0.000000 0.000000 0.203993 0.000000
# 6 0.000000 0.000000 0.000000 0.000000 0.000000 -0.159991
#
#
# Mechanical properties :
#
#
# Convention : Reuss Voigt Hill
#
# Bulk Modulus (GPa) = 36.41017 59.63270 48.02144
# Shear Modulus (GPa) = 23.73927 12.80399 18.27163
#
# Velocity S-wave (km/s) = 3.66510 2.69169 3.21544
# Velocity P-wave (km/s) = 6.20592 6.58814 6.39988
#
# Compressibility (1/GPa) = 0.02746485
#
# Stress axis : x y z
#
# Youngs Moduli (GPa) = 64.70181 25.91573 65.92776
#
# Poissons Ratio (x) = 0.19108 0.50703
# Poissons Ratio (y) = 0.47705 0.38297
# Poissons Ratio (z) = 0.49760 0.15054
#
# Static dielectric constant tensor:
#      x y z
#    x 1.599330 0.000000 0.000000 
#    y 0.000000 1.599960 0.000000 
#    z 0.000000 0.000000 1.590460 
# 
# From -- ./inp_files/63938.got.cif
#   From: 2010.05.17/outbox.cif.g08.bks.cpg/sg74_32_cif.got.tgz:63938.got - 2010.06.03 17:57:02.
