data_PCOD9537151
_publ_section_title
;
Structure prediction by ZEFSAII (Michael W. Deem and Ramdas Pophale) SiO2 
 PCOD9537151
Probable space group: I M M A
;
_chemical_formula_sum "Si O2"
_cell_formula_units_Z 56
_cell_length_a 17.128717
_cell_length_b 7.548871
_cell_length_c 21.330082
_cell_angle_alpha 90.000000
_cell_angle_beta 90.000000
_cell_angle_gamma 90.000000
_cell_volume 2758.032395
_symmetry_space_group_name_H-M "I M M A"
_symmetry_group_IT_number 74
_symmetry_cell_setting 'orthorhombic'
loop_
_space_group_symop_operation_xyz
x,y,z
-x,1/2-y,z
x,-y,-z
-x,1/2+y,-z
-x,-y,-z
x,1/2+y,-z
-x,y,z
x,1/2-y,z
1/2+x,1/2+y,1/2+z
1/2-x,-y,1/2+z
1/2+x,1/2-y,1/2-z
1/2-x,y,1/2-z
1/2-x,1/2-y,1/2-z
1/2+x,y,1/2-z
1/2-x,1/2+y,1/2+z
1/2+x,-y,1/2+z
loop_
_atom_site_type_symbol
_atom_site_label
_atom_site_fract_x
_atom_site_fract_y
_atom_site_fract_z
Si Si1 0.592710 0.750000 0.748960
Si Si2 0.787992 0.457643 0.932048
Si Si3 0.500000 0.460802 0.926657
Si Si4 0.354068 0.962686 0.158080
Si Si5 0.090795 0.250000 0.099190
O O1 0.500000 0.750000 0.764243
O O2 0.632247 0.577764 0.780108
O O3 0.598739 0.750000 0.674430
O O4 0.805978 0.250000 0.929264
O O5 0.727157 0.499474 0.876825
O O6 0.863610 0.579159 0.926033
O O7 0.750865 0.500000 0.000000
O O8 0.500000 0.250000 0.921108
O O9 0.577300 0.520051 0.890011
O O10 0.500000 0.500000 0.000000
O O11 0.359346 0.750000 0.169260
O O12 0.000000 0.250000 0.082550
#
# Coordination Sequence:
#
# PCOD9537151 Si02
#       5
#     8  16   8  16   8
#     4  11  23  41  67  91 132 180 225 262 306 387
#     4  11  23  43  67  97 133 165 208 276 335 389
#     4  10  20  32  52  90 130 172 214 246 297 379
#     4  10  22  38  61  94 133 173 212 262 318 376
#     4  11  27  47  67  96 123 172 226 273 335 385
#
# _framework density 20.30433
#
# number of rings (size 3 to 8) (size 9 to 14) (size 15 to 20)
#    0.000    1.429    2.857    1.714    2.000    4.571 
#    0.000    5.714    0.000    0.000    0.000    0.000 
#    0.000    0.000    0.000    0.000    0.000    0.000 
#
# Total GULP energy -156539.192368 kJ/mol
# GULP energy per Si atom -5590.685442 kJ/mol
# Density = 2.025812 g / cm^3
# Si number density = 20.304330 Si / 1000 Ang^3
#
#
#
# Elastic Constant Matrix: (Units=GPa)
#
#
# Indices 1 2 3 4 5 6 
#
# 1 90.0296 43.4347 -2.3911 0.0000 0.0000 0.0000
# 2 43.4347 90.7442 8.8455 0.0000 0.0000 0.0000
# 3 -2.3911 8.8455 43.6988 0.0000 0.0000 0.0000
# 4 0.0000 0.0000 0.0000 23.8402 0.0000 0.0000
# 5 0.0000 0.0000 0.0000 0.0000 29.5995 0.0000
# 6 0.0000 0.0000 0.0000 0.0000 0.0000 -106.4320
#
#
#
# Elastic Compliance Matrix: (Units=1/GPa)
#
#
# Indices 1 2 3 4 5 6 
#
# 1 0.014660 -0.007238 0.002267 0.000000 0.000000 0.000000
# 2 -0.007238 0.014815 -0.003395 0.000000 0.000000 0.000000
# 3 0.002267 -0.003395 0.023695 0.000000 0.000000 0.000000
# 4 0.000000 0.000000 0.000000 0.041946 0.000000 0.000000
# 5 0.000000 0.000000 0.000000 0.000000 0.033784 0.000000
# 6 0.000000 0.000000 0.000000 0.000000 0.000000 -0.009396
#
#
# Mechanical properties :
#
#
# Convention : Reuss Voigt Hill
#
# Bulk Modulus (GPa) = 27.44315 36.02787 31.73551
# Shear Modulus (GPa) = 33.69681 1.04045 17.36863
#
# Velocity S-wave (km/s) = 4.07822 0.71662 2.92792
# Velocity P-wave (km/s) = 5.97672 4.29735 5.20520
#
# Compressibility (1/GPa) = 0.03643897
#
# Stress axis : x y z
#
# Youngs Moduli (GPa) = 68.21491 67.49781 42.20267
#
# Poissons Ratio (x) = 0.48854 -0.09568
# Poissons Ratio (y) = 0.49373 0.14328
# Poissons Ratio (z) = -0.15466 0.22915
#
# Static dielectric constant tensor:
#      x y z
#    x 1.715280 0.000000 0.000000 
#    y 0.000000 1.693400 0.000000 
#    z 0.000000 0.000000 1.714060 
# 
# From -- ./inp_files/51395.got.cif
#   From: 2010.05.17/outbox.cif.g08.bks.cpg/sg74_26_cif.got.tgz:51395.got - 2010.06.03 17:57:02.
