data_PCOD9537246
_publ_section_title
;
Structure prediction by ZEFSAII (Michael W. Deem and Ramdas Pophale) SiO2 
 PCOD9537246
Probable space group: I M M A
;
_chemical_formula_sum "Si O2"
_cell_formula_units_Z 64
_cell_length_a 9.424810
_cell_length_b 9.162885
_cell_length_c 42.971863
_cell_angle_alpha 90.000000
_cell_angle_beta 90.000000
_cell_angle_gamma 90.000000
_cell_volume 3710.983490
_symmetry_space_group_name_H-M "I M M A"
_symmetry_group_IT_number 74
_symmetry_cell_setting 'orthorhombic'
loop_
_space_group_symop_operation_xyz
x,y,z
-x,1/2-y,z
x,-y,-z
-x,1/2+y,-z
-x,-y,-z
x,1/2+y,-z
-x,y,z
x,1/2-y,z
1/2+x,1/2+y,1/2+z
1/2-x,-y,1/2+z
1/2+x,1/2-y,1/2-z
1/2-x,y,1/2-z
1/2-x,1/2-y,1/2-z
1/2+x,y,1/2-z
1/2-x,1/2+y,1/2+z
1/2+x,-y,1/2+z
loop_
_atom_site_type_symbol
_atom_site_label
_atom_site_fract_x
_atom_site_fract_y
_atom_site_fract_z
Si Si1 0.327238 0.918716 0.651537
Si Si2 0.830606 0.577575 0.532406
Si Si3 0.336366 0.571901 0.719928
Si Si4 0.170429 0.921672 0.088540
O O1 0.500000 0.918858 0.652868
O O2 0.283379 0.750000 0.646980
O O3 0.280093 0.971389 0.685759
O O4 0.284996 0.014466 0.622087
O O5 0.791162 0.500000 0.500000
O O6 0.801970 0.750000 0.530488
O O7 0.747625 0.506628 0.560970
O O8 0.000000 0.557516 0.536759
O O9 0.500000 0.526535 0.722817
O O10 0.334641 0.750000 0.719558
O O11 0.250000 0.522874 0.750000
O O12 0.200952 0.750000 0.086646
O O13 0.000000 0.941463 0.085927
#
# Coordination Sequence:
#
# PCOD9537246 Si02
#       4
#    16  16  16  16
#     4   8  14  26  44  65  91 123 156 193 240 288
#     4  10  21  37  56  76  99 129 162 195 237 288
#     4   8  13  22  38  60  85 114 149 190 236 282
#     4  10  20  33  51  75 100 128 164 203 242 284
#
# _framework density 17.246102
#
# number of rings (size 3 to 8) (size 9 to 14) (size 15 to 20)
#    0.000    3.000    0.000    3.000    0.000    3.500 
#    0.000    1.250    0.000    5.250    0.000    0.000 
#    0.000    0.000    0.000    0.000    0.000    0.000 
#
# Total GULP energy -178297.932931 kJ/mol
# GULP energy per Si atom -5571.810404 kJ/mol
# Density = 1.720685 g / cm^3
# Si number density = 17.246102 Si / 1000 Ang^3
#
#
#
# Elastic Constant Matrix: (Units=GPa)
#
#
# Indices 1 2 3 4 5 6 
#
# 1 25.4779 37.5582 59.2326 0.0000 0.0000 0.0000
# 2 37.5582 81.7296 86.6613 0.0000 0.0000 0.0000
# 3 59.2326 86.6613 210.6713 0.0000 0.0000 0.0000
# 4 0.0000 0.0000 0.0000 23.5263 0.0000 0.0000
# 5 0.0000 0.0000 0.0000 0.0000 30.5614 0.0000
# 6 0.0000 0.0000 0.0000 0.0000 0.0000 17.5030
#
#
#
# Elastic Compliance Matrix: (Units=1/GPa)
#
#
# Indices 1 2 3 4 5 6 
#
# 1 0.198130 -0.056722 -0.032373 0.000000 0.000000 0.000000
# 2 -0.056722 0.037940 0.000341 0.000000 0.000000 0.000000
# 3 -0.032373 0.000341 0.013708 0.000000 0.000000 0.000000
# 4 0.000000 0.000000 0.000000 0.042506 0.000000 0.000000
# 5 0.000000 0.000000 0.000000 0.000000 0.032721 0.000000
# 6 0.000000 0.000000 0.000000 0.000000 0.000000 0.057133
#
#
# Mechanical properties :
#
#
# Convention : Reuss Voigt Hill
#
# Bulk Modulus (GPa) = 13.83706 76.08699 44.96202
# Shear Modulus (GPa) = 8.56551 23.27994 15.92272
#
# Velocity S-wave (km/s) = 2.23101 3.67804 3.04182
# Velocity P-wave (km/s) = 3.83109 7.88996 6.20196
#
# Compressibility (1/GPa) = 0.07226969
#
# Stress axis : x y z
#
# Youngs Moduli (GPa) = 5.04719 26.35747 72.94754
#
# Poissons Ratio (x) = 1.49505 2.36155
# Poissons Ratio (y) = 0.28629 -0.02489
# Poissons Ratio (z) = 0.16339 -0.00899
#
# Static dielectric constant tensor:
#      x y z
#    x 1.576740 0.000000 0.000000 
#    y 0.000000 1.574930 0.000000 
#    z 0.000000 0.000000 1.589890 
# 
# From -- ./inp_files/69726.got.cif
#   From: 2010.05.17/outbox.cif.g08.bks.cpg/sg74_35_cif.got.tgz:69726.got - 2010.06.03 17:57:02.
