data_PCOD9537380
_publ_section_title
;
Structure prediction by ZEFSAII (Michael W. Deem and Ramdas Pophale) SiO2 
 PCOD9537380
Probable space group: I M M A
;
_chemical_formula_sum "Si O2"
_cell_formula_units_Z 80
_cell_length_a 8.635731
_cell_length_b 20.893337
_cell_length_c 23.632635
_cell_angle_alpha 90.000000
_cell_angle_beta 90.000000
_cell_angle_gamma 90.000000
_cell_volume 4264.018326
_symmetry_space_group_name_H-M "I M M A"
_symmetry_group_IT_number 74
_symmetry_cell_setting 'orthorhombic'
loop_
_space_group_symop_operation_xyz
x,y,z
-x,1/2-y,z
x,-y,-z
-x,1/2+y,-z
-x,-y,-z
x,1/2+y,-z
-x,y,z
x,1/2-y,z
1/2+x,1/2+y,1/2+z
1/2-x,-y,1/2+z
1/2+x,1/2-y,1/2-z
1/2-x,y,1/2-z
1/2-x,1/2-y,1/2-z
1/2+x,y,1/2-z
1/2-x,1/2+y,1/2+z
1/2+x,-y,1/2+z
loop_
_atom_site_type_symbol
_atom_site_label
_atom_site_fract_x
_atom_site_fract_y
_atom_site_fract_z
Si Si1 0.684863 0.750000 0.687120
Si Si2 0.313969 0.250000 0.812614
Si Si3 0.812942 0.499889 0.685926
Si Si4 0.685748 0.825545 0.501615
Si Si5 0.687489 0.873908 0.116173
Si Si6 0.813876 0.871120 0.619932
O O1 0.500000 0.750000 0.687103
O O2 0.750000 0.750000 0.750000
O O3 0.747060 0.812179 0.655267
O O4 0.500000 0.250000 0.810502
O O5 0.250000 0.250000 0.750000
O O6 0.264960 0.313138 0.846110
O O7 0.750000 0.499096 0.750000
O O8 0.764925 0.438011 0.649250
O O9 0.766614 0.563423 0.651324
O O10 0.000000 0.499169 0.689521
O O11 0.500000 0.825903 0.504179
O O12 0.735378 0.750000 0.500793
O O13 0.742874 0.861522 0.445476
O O14 0.752769 0.860993 0.556536
O O15 0.500000 0.874526 0.111272
O O16 0.000000 0.868575 0.619359
#
# Coordination Sequence:
#
# PCOD9537380 Si02
#       6
#     8   8  16  16  16  16
#     4  12  24  39  60  89 120 155 203 255 301 360
#     4  10  20  33  56  85 114 153 197 243 295 348
#     4  10  23  41  62  90 124 161 203 249 301 363
#     4  11  23  39  61  91 123 156 201 256 306 358
#     4  10  21  39  61  87 120 161 203 246 300 360
#     4  11  23  40  63  89 120 162 202 247 307 364
#
# _framework density 18.761645999999999
#
# number of rings (size 3 to 8) (size 9 to 14) (size 15 to 20)
#    0.000    1.400    2.000    3.300    0.000    6.400 
#    0.000    4.000    0.000    0.000    0.000    0.000 
#    0.000    0.000    0.000    0.000    0.000    0.000 
#
# Total GULP energy -223567.319243 kJ/mol
# GULP energy per Si atom -5589.182981 kJ/mol
# Density = 1.871894 g / cm^3
# Si number density = 18.761646 Si / 1000 Ang^3
#
#
#
# Elastic Constant Matrix: (Units=GPa)
#
#
# Indices 1 2 3 4 5 6 
#
# 1 43.1436 50.4863 53.0408 0.0000 0.0000 0.0000
# 2 50.4863 204.0961 124.6568 0.0000 0.0000 0.0000
# 3 53.0408 124.6568 233.4244 0.0000 0.0000 0.0000
# 4 0.0000 0.0000 0.0000 46.3058 0.0000 0.0000
# 5 0.0000 0.0000 0.0000 0.0000 42.2436 0.0000
# 6 0.0000 0.0000 0.0000 0.0000 0.0000 2.4445
#
#
#
# Elastic Compliance Matrix: (Units=1/GPa)
#
#
# Indices 1 2 3 4 5 6 
#
# 1 0.036337 -0.005855 -0.005130 0.000000 0.000000 0.000000
# 2 -0.005855 0.008215 -0.003057 0.000000 0.000000 0.000000
# 3 -0.005130 -0.003057 0.007082 0.000000 0.000000 0.000000
# 4 0.000000 0.000000 0.000000 0.021596 0.000000 0.000000
# 5 0.000000 0.000000 0.000000 0.000000 0.023672 0.000000
# 6 0.000000 0.000000 0.000000 0.000000 0.000000 0.409076
#
#
# Mechanical properties :
#
#
# Convention : Reuss Voigt Hill
#
# Bulk Modulus (GPa) = 42.46216 104.11465 73.28840
# Shear Modulus (GPa) = 9.22660 35.03081 22.12870
#
# Velocity S-wave (km/s) = 2.22002 4.32574 3.43806
# Velocity P-wave (km/s) = 5.40859 8.97570 7.41000
#
# Compressibility (1/GPa) = 0.02355038
#
# Stress axis : x y z
#
# Youngs Moduli (GPa) = 27.52023 121.72966 141.20292
#
# Poissons Ratio (x) = 0.71276 0.72435
# Poissons Ratio (y) = 0.16114 0.43160
# Poissons Ratio (z) = 0.14117 0.37207
#
# Static dielectric constant tensor:
#      x y z
#    x 1.635820 0.000000 0.000000 
#    y 0.000000 1.636320 0.000000 
#    z 0.000000 0.000000 1.621360 
# 
# From -- ./inp_files/56905.got.cif
#   From: 2010.05.17/outbox.cif.g08.bks.cpg/sg74_29_cif.got.tgz:56905.got - 2010.06.03 17:57:02.
