data_PCOD9537056
_publ_section_title
;
Structure prediction by ZEFSAII (Michael W. Deem and Ramdas Pophale) SiO2 
 PCOD9537056
Probable space group: I M M A
;
_chemical_formula_sum "Si O2"
_cell_formula_units_Z 116
_cell_length_a 7.661069
_cell_length_b 28.076058
_cell_length_c 28.638300
_cell_angle_alpha 90.000000
_cell_angle_beta 90.000000
_cell_angle_gamma 90.000000
_cell_volume 6159.886910
_symmetry_space_group_name_H-M "I M M A"
_symmetry_group_IT_number 74
_symmetry_cell_setting 'orthorhombic'
loop_
_space_group_symop_operation_xyz
x,y,z
-x,1/2-y,z
x,-y,-z
-x,1/2+y,-z
-x,-y,-z
x,1/2+y,-z
-x,y,z
x,1/2-y,z
1/2+x,1/2+y,1/2+z
1/2-x,-y,1/2+z
1/2+x,1/2-y,1/2-z
1/2-x,y,1/2-z
1/2-x,1/2-y,1/2-z
1/2+x,y,1/2-z
1/2-x,1/2+y,1/2+z
1/2+x,-y,1/2+z
loop_
_atom_site_type_symbol
_atom_site_label
_atom_site_fract_x
_atom_site_fract_y
_atom_site_fract_z
Si Si1 0.000000 0.750000 0.336745
Si Si2 0.796105 0.418975 0.659276
Si Si3 0.291765 0.108950 0.364432
Si Si4 0.699333 0.680990 0.304037
Si Si5 0.790317 0.562485 0.542817
Si Si6 0.707996 0.478646 0.302969
Si Si7 0.790010 0.696040 0.803393
Si Si8 0.786586 0.045659 0.560285
O O1 0.844747 0.708794 0.333390
O O2 0.708036 0.375188 0.685143
O O3 0.780146 0.469302 0.685480
O O4 0.726369 0.428230 0.606878
O O5 0.000000 0.407140 0.656054
O O6 0.500000 0.109154 0.357246
O O7 0.260721 0.101413 0.419189
O O8 0.222584 0.062053 0.337727
O O9 0.223729 0.156791 0.339910
O O10 0.500000 0.696506 0.311509
O O11 0.750000 0.689540 0.250000
O O12 0.732007 0.568130 0.489207
O O13 0.730498 0.509809 0.559423
O O14 0.000000 0.560789 0.541746
O O15 0.500000 0.481725 0.308495
O O16 0.750000 0.465128 0.250000
O O17 0.722860 0.750000 0.810400
O O18 0.750000 0.681741 0.750000
O O19 0.000000 0.698084 0.807586
O O20 0.000000 0.045355 0.561541
#
# Coordination Sequence:
#
# PCOD9537056 Si02
#       8
#     4  16  16  16  16  16  16  16
#     4  12  24  44  62  90 112 148 190 234 296 322
#     4  11  20  36  54  79 109 145 181 219 277 331
#     4  10  20  32  47  74 105 136 175 219 271 328
#     4  12  24  39  61  87 115 147 189 237 282 339
#     4   9  16  31  52  78 100 136 179 219 261 320
#     4  11  22  33  46  68 105 144 177 213 260 327
#     4   9  18  33  51  71  99 134 177 225 272 315
#     4   8  16  30  53  76 106 137 176 220 267 318
#
# _framework density 18.831513999999999
#
# number of rings (size 3 to 8) (size 9 to 14) (size 15 to 20)
#    0.000    1.931    2.759    2.897    0.000    1.103 
#    0.000    2.759    0.000    0.000    1.793    0.000 
#    0.000    0.000    0.000    0.000    0.000    0.000 
#
# Total GULP energy -323230.183681 kJ/mol
# GULP energy per Si atom -5572.934201 kJ/mol
# Density = 1.878865 g / cm^3
# Si number density = 18.831514 Si / 1000 Ang^3
#
#
#
# Elastic Constant Matrix: (Units=GPa)
#
#
# Indices 1 2 3 4 5 6 
#
# 1 78.9773 13.4428 -3.2255 0.0000 0.0000 0.0000
# 2 13.4428 67.4915 17.5109 0.0000 0.0000 0.0000
# 3 -3.2255 17.5109 74.0995 0.0000 0.0000 0.0000
# 4 0.0000 0.0000 0.0000 13.1588 0.0000 0.0000
# 5 0.0000 0.0000 0.0000 0.0000 14.2546 0.0000
# 6 0.0000 0.0000 0.0000 0.0000 0.0000 -106.4111
#
#
#
# Elastic Compliance Matrix: (Units=1/GPa)
#
#
# Indices 1 2 3 4 5 6 
#
# 1 0.013218 -0.002964 0.001276 0.000000 0.000000 0.000000
# 2 -0.002964 0.016449 -0.004016 0.000000 0.000000 0.000000
# 3 0.001276 -0.004016 0.014500 0.000000 0.000000 0.000000
# 4 0.000000 0.000000 0.000000 0.075995 0.000000 0.000000
# 5 0.000000 0.000000 0.000000 0.000000 0.070153 0.000000
# 6 0.000000 0.000000 0.000000 0.000000 0.000000 -0.009398
#
#
# Mechanical properties :
#
#
# Convention : Reuss Voigt Hill
#
# Bulk Modulus (GPa) = 30.52594 30.66941 30.59768
# Shear Modulus (GPa) = 24.60079 -2.94353 10.82863
#
# Velocity S-wave (km/s) = 3.61829 -1.25159 2.40057
# Velocity P-wave (km/s) = 5.80527 3.77266 4.89562
#
# Compressibility (1/GPa) = 0.03275902
#
# Stress axis : x y z
#
# Youngs Moduli (GPa) = 75.65185 60.79389 68.96558
#
# Poissons Ratio (x) = 0.18018 -0.08799
# Poissons Ratio (y) = 0.22422 0.27698
# Poissons Ratio (z) = -0.09652 0.24416
#
# Static dielectric constant tensor:
#      x y z
#    x 1.695090 0.000000 0.000000 
#    y 0.000000 1.656680 0.000000 
#    z 0.000000 0.000000 1.657320 
# 
# From -- ./inp_files/65057.got.cif
#   From: 2010.05.17/outbox.cif.g08.bks.cpg/sg74_33_cif.got.tgz:65057.got - 2010.06.03 17:57:02.
