data_PCOD9537190
_publ_section_title
;
Structure prediction by ZEFSAII (Michael W. Deem and Ramdas Pophale) SiO2 
 PCOD9537190
Probable space group: I M M A
;
_chemical_formula_sum "Si O2"
_cell_formula_units_Z 80
_cell_length_a 9.458297
_cell_length_b 25.488249
_cell_length_c 20.882242
_cell_angle_alpha 90.000000
_cell_angle_beta 90.000000
_cell_angle_gamma 90.000000
_cell_volume 5034.195450
_symmetry_space_group_name_H-M "I M M A"
_symmetry_group_IT_number 74
_symmetry_cell_setting 'orthorhombic'
loop_
_space_group_symop_operation_xyz
x,y,z
-x,1/2-y,z
x,-y,-z
-x,1/2+y,-z
-x,-y,-z
x,1/2+y,-z
-x,y,z
x,1/2-y,z
1/2+x,1/2+y,1/2+z
1/2-x,-y,1/2+z
1/2+x,1/2-y,1/2-z
1/2-x,y,1/2-z
1/2-x,1/2-y,1/2-z
1/2+x,y,1/2-z
1/2-x,1/2+y,1/2+z
1/2+x,-y,1/2+z
loop_
_atom_site_type_symbol
_atom_site_label
_atom_site_fract_x
_atom_site_fract_y
_atom_site_fract_z
Si Si1 0.670297 0.530455 0.185978
Si Si2 0.328007 0.534123 0.939356
Si Si3 0.162420 0.750000 0.143518
Si Si4 0.667187 0.852730 0.985445
Si Si5 0.837729 0.750000 0.987357
Si Si6 0.666181 0.146958 0.860541
O O1 0.500000 0.527167 0.192789
O O2 0.750000 0.514604 0.250000
O O3 0.713333 0.494119 0.126155
O O4 0.704479 0.591302 0.170339
O O5 0.500000 0.533695 0.941053
O O6 0.285943 0.594257 0.950133
O O7 0.279361 0.500000 0.000000
O O8 0.242885 0.696631 0.162153
O O9 0.000000 0.750000 0.164901
O O10 0.164362 0.750000 0.065421
O O11 0.500000 0.844285 0.974001
O O12 0.755935 0.802046 0.966424
O O13 0.682986 0.859733 0.062429
O O14 0.000000 0.750000 0.966984
O O15 0.500000 0.157415 0.848987
#
# Coordination Sequence:
#
# PCOD9537190 Si02
#       6
#    16  16   8  16   8  16
#     4  10  20  33  49  70  97 127 157 194 240 285
#     4   9  15  28  51  75  94 118 160 205 236 269
#     4   9  17  27  42  64  91 122 155 195 238 276
#     4   9  15  26  48  72  91 117 158 200 231 267
#     4   9  17  27  39  64 103 130 145 179 239 294
#     4   9  16  28  46  66  89 120 159 197 231 272
#
# _framework density 15.891318
#
# number of rings (size 3 to 8) (size 9 to 14) (size 15 to 20)
#    0.000    2.800    2.000    0.600    0.000    3.200 
#    0.000    1.500    0.000    1.200    0.000    0.700 
#    0.000    0.000    0.000    0.000    0.000    0.000 
#
# Total GULP energy -222945.608693 kJ/mol
# GULP energy per Si atom -5573.640217 kJ/mol
# Density = 1.585515 g / cm^3
# Si number density = 15.891318 Si / 1000 Ang^3
#
#
#
# Elastic Constant Matrix: (Units=GPa)
#
#
# Indices 1 2 3 4 5 6 
#
# 1 43.0865 54.1815 33.9685 0.0000 0.0000 0.0000
# 2 54.1815 137.7888 58.1979 0.0000 0.0000 0.0000
# 3 33.9685 58.1979 76.8180 0.0000 0.0000 0.0000
# 4 0.0000 0.0000 0.0000 11.4613 0.0000 0.0000
# 5 0.0000 0.0000 0.0000 0.0000 17.8535 0.0000
# 6 0.0000 0.0000 0.0000 0.0000 0.0000 6.4767
#
#
#
# Elastic Compliance Matrix: (Units=1/GPa)
#
#
# Indices 1 2 3 4 5 6 
#
# 1 0.051468 -0.015626 -0.010921 0.000000 0.000000 0.000000
# 2 -0.015626 0.015417 -0.004770 0.000000 0.000000 0.000000
# 3 -0.010921 -0.004770 0.021461 0.000000 0.000000 0.000000
# 4 0.000000 0.000000 0.000000 0.087250 0.000000 0.000000
# 5 0.000000 0.000000 0.000000 0.000000 0.056011 0.000000
# 6 0.000000 0.000000 0.000000 0.000000 0.000000 0.154400
#
#
# Mechanical properties :
#
#
# Convention : Reuss Voigt Hill
#
# Bulk Modulus (GPa) = 38.89186 61.15437 50.02312
# Shear Modulus (GPa) = 10.93585 14.58133 12.75859
#
# Velocity S-wave (km/s) = 2.62614 3.03242 2.83656
# Velocity P-wave (km/s) = 5.80709 7.12932 6.50190
#
# Compressibility (1/GPa) = 0.02571232
#
# Stress axis : x y z
#
# Youngs Moduli (GPa) = 19.42940 64.86495 46.59667
#
# Poissons Ratio (x) = 1.01357 0.50887
# Poissons Ratio (y) = 0.30360 0.22227
# Poissons Ratio (z) = 0.21218 0.30941
#
# Static dielectric constant tensor:
#      x y z
#    x 1.525870 0.000000 0.000000 
#    y 0.000000 1.528560 0.000000 
#    z 0.000000 0.000000 1.518240 
# 
# From -- ./inp_files/39785.got.cif
#   From: 2010.05.17/outbox.cif.g08.bks.cpg/sg74_20_cif.got.tgz:39785.got - 2010.06.03 17:57:02.
