data_PCOD9537508
_publ_section_title
;
Structure prediction by ZEFSAII (Michael W. Deem and Ramdas Pophale) SiO2 
 PCOD9537508
Probable space group: I M M A
;
_chemical_formula_sum "Si O2"
_cell_formula_units_Z 72
_cell_length_a 7.527706
_cell_length_b 13.286524
_cell_length_c 32.559312
_cell_angle_alpha 90.000000
_cell_angle_beta 90.000000
_cell_angle_gamma 90.000000
_cell_volume 3256.486220
_symmetry_space_group_name_H-M "I M M A"
_symmetry_group_IT_number 74
_symmetry_cell_setting 'orthorhombic'
loop_
_space_group_symop_operation_xyz
x,y,z
-x,1/2-y,z
x,-y,-z
-x,1/2+y,-z
-x,-y,-z
x,1/2+y,-z
-x,y,z
x,1/2-y,z
1/2+x,1/2+y,1/2+z
1/2-x,-y,1/2+z
1/2+x,1/2-y,1/2-z
1/2-x,y,1/2-z
1/2-x,1/2-y,1/2-z
1/2+x,y,1/2-z
1/2-x,1/2+y,1/2+z
1/2+x,-y,1/2+z
loop_
_atom_site_type_symbol
_atom_site_label
_atom_site_fract_x
_atom_site_fract_y
_atom_site_fract_z
Si Si1 0.214099 0.366652 0.023116
Si Si2 0.201531 0.558108 0.345955
Si Si3 0.293074 0.628658 0.434070
Si Si4 0.286243 0.750000 0.201903
Si Si5 0.787353 0.864397 0.615482
O O1 0.274474 0.250000 0.024703
O O2 0.257116 0.403259 0.068807
O O3 0.000000 0.368391 0.019869
O O4 0.275797 0.406911 0.978726
O O5 0.196514 0.599283 0.392566
O O6 0.284147 0.647503 0.319119
O O7 0.283004 0.447152 0.352434
O O8 0.000000 0.543694 0.330617
O O9 0.500000 0.597779 0.429782
O O10 0.291059 0.750000 0.436430
O O11 0.500000 0.750000 0.194637
O O12 0.250000 0.750000 0.250000
O O13 0.717723 0.750000 0.619008
O O14 0.000000 0.860130 0.620645
#
# Coordination Sequence:
#
# PCOD9537508 Si02
#       5
#    16  16  16   8  16
#     4   8  15  28  44  65  98 139 178 216 252 286
#     4  10  20  34  53  76 101 129 163 207 256 302
#     4   9  17  29  46  70 101 136 175 214 254 299
#     4  10  22  40  60  82 104 126 156 202 262 322
#     4   9  18  32  49  71 100 136 176 209 242 290
#
# _framework density 22.109718000000001
#
# number of rings (size 3 to 8) (size 9 to 14) (size 15 to 20)
#    0.000    2.889    1.111    1.333    0.000    3.556 
#    0.000    6.667    0.000    0.667    0.000    0.000 
#    0.000    0.000    0.000    0.000    0.000    0.000 
#
# Total GULP energy -200771.692142 kJ/mol
# GULP energy per Si atom -5576.991448 kJ/mol
# Density = 2.205940 g / cm^3
# Si number density = 22.109718 Si / 1000 Ang^3
#
#
#
# Elastic Constant Matrix: (Units=GPa)
#
#
# Indices 1 2 3 4 5 6 
#
# 1 59.5852 0.7504 -3.0739 0.0000 0.0000 0.0000
# 2 0.7504 149.9968 77.1767 0.0000 0.0000 0.0000
# 3 -3.0739 77.1767 110.0432 0.0000 0.0000 0.0000
# 4 0.0000 0.0000 0.0000 27.4429 0.0000 0.0000
# 5 0.0000 0.0000 0.0000 0.0000 18.6705 0.0000
# 6 0.0000 0.0000 0.0000 0.0000 0.0000 0.2576
#
#
#
# Elastic Compliance Matrix: (Units=1/GPa)
#
#
# Indices 1 2 3 4 5 6 
#
# 1 0.016832 -0.000510 0.000828 0.000000 0.000000 0.000000
# 2 -0.000510 0.010446 -0.007341 0.000000 0.000000 0.000000
# 3 0.000828 -0.007341 0.014259 0.000000 0.000000 0.000000
# 4 0.000000 0.000000 0.000000 0.036439 0.000000 0.000000
# 5 0.000000 0.000000 0.000000 0.000000 0.053560 0.000000
# 6 0.000000 0.000000 0.000000 0.000000 0.000000 3.881675
#
#
# Mechanical properties :
#
#
# Convention : Reuss Voigt Hill
#
# Bulk Modulus (GPa) = 36.37530 52.14796 44.26163
# Shear Modulus (GPa) = 1.23872 25.59234 13.41553
#
# Velocity S-wave (km/s) = 0.74932 3.40592 2.46594
# Velocity P-wave (km/s) = 4.15169 6.25334 5.30758
#
# Compressibility (1/GPa) = 0.02749118
#
# Stress axis : x y z
#
# Youngs Moduli (GPa) = 59.41124 95.72840 70.13313
#
# Poissons Ratio (x) = 0.04884 -0.05807
# Poissons Ratio (y) = 0.03031 0.51481
# Poissons Ratio (z) = -0.04919 0.70270
#
# Static dielectric constant tensor:
#      x y z
#    x 1.820420 0.000000 0.000000 
#    y 0.000000 1.948250 0.000000 
#    z 0.000000 0.000000 1.750280 
# 
# From -- ./inp_files/66735.got.cif
#   From: 2010.05.17/outbox.cif.g08.bks.cpg/sg74_34_cif.got.tgz:66735.got - 2010.06.03 17:57:02.
