data_PCOD9537392
_publ_section_title
;
Structure prediction by ZEFSAII (Michael W. Deem and Ramdas Pophale) SiO2 
 PCOD9537392
Probable space group: I M M A
;
_chemical_formula_sum "Si O2"
_cell_formula_units_Z 104
_cell_length_a 7.789113
_cell_length_b 25.874420
_cell_length_c 33.920556
_cell_angle_alpha 90.000000
_cell_angle_beta 90.000000
_cell_angle_gamma 90.000000
_cell_volume 6836.307514
_symmetry_space_group_name_H-M "I M M A"
_symmetry_group_IT_number 74
_symmetry_cell_setting 'orthorhombic'
loop_
_space_group_symop_operation_xyz
x,y,z
-x,1/2-y,z
x,-y,-z
-x,1/2+y,-z
-x,-y,-z
x,1/2+y,-z
-x,y,z
x,1/2-y,z
1/2+x,1/2+y,1/2+z
1/2-x,-y,1/2+z
1/2+x,1/2-y,1/2-z
1/2-x,y,1/2-z
1/2-x,1/2-y,1/2-z
1/2+x,y,1/2-z
1/2-x,1/2+y,1/2+z
1/2+x,-y,1/2+z
loop_
_atom_site_type_symbol
_atom_site_label
_atom_site_fract_x
_atom_site_fract_y
_atom_site_fract_z
Si Si1 0.793512 0.750000 0.796627
Si Si2 0.206964 0.193902 0.997605
Si Si3 0.201782 0.411038 0.371691
Si Si4 0.204157 0.637275 0.795702
Si Si5 0.203922 0.981646 0.940134
Si Si6 0.210359 0.581644 0.016396
Si Si7 0.206759 0.806180 0.590313
O O1 0.750000 0.750000 0.750000
O O2 0.725331 0.806138 0.809822
O O3 0.000000 0.750000 0.801504
O O4 0.270812 0.250000 0.983130
O O5 0.270318 0.140438 0.978662
O O6 0.000000 0.194370 0.994232
O O7 0.250914 0.190994 0.043991
O O8 0.235324 0.406891 0.325327
O O9 0.263573 0.459419 0.397009
O O10 0.278473 0.357744 0.389620
O O11 0.000000 0.409305 0.378163
O O12 0.250000 0.629764 0.750000
O O13 0.000000 0.639874 0.798034
O O14 0.000000 0.983617 0.945415
O O15 0.267435 0.038713 0.951908
O O16 0.265784 0.941218 0.973708
O O17 0.000000 0.583135 0.016509
O O18 0.271571 0.750000 0.605070
O O19 0.000000 0.805810 0.594569
#
# Coordination Sequence:
#
# PCOD9537392 Si02
#       7
#     8  16  16  16  16  16  16
#     4   8  16  30  46  62  76  94 124 158 196 244
#     4   9  15  24  40  59  76  97 130 168 200 235
#     4  11  21  30  42  60  79  99 130 167 202 241
#     4  10  20  34  48  61  77  99 126 160 201 244
#     4   9  16  28  43  56  75 104 133 162 197 239
#     4   8  14  25  41  58  77 102 131 162 200 238
#     4   9  18  29  37  50  75 103 127 157 201 243
#
# _framework density 15.212891000000001
#
# number of rings (size 3 to 8) (size 9 to 14) (size 15 to 20)
#    0.000    2.769    1.538    1.846    1.077    1.231 
#    0.000    2.308    0.000    0.000    0.000    0.000 
#    0.000    0.000    0.000    0.000    0.000    0.769 
#
# Total GULP energy -289660.128344 kJ/mol
# GULP energy per Si atom -5570.387084 kJ/mol
# Density = 1.517827 g / cm^3
# Si number density = 15.212891 Si / 1000 Ang^3
#
#
#
# Elastic Constant Matrix: (Units=GPa)
#
#
# Indices 1 2 3 4 5 6 
#
# 1 20.7771 5.6062 -7.0383 0.0000 0.0000 0.0000
# 2 5.6062 123.4224 47.6012 0.0000 0.0000 0.0000
# 3 -7.0383 47.6012 57.4068 0.0000 0.0000 0.0000
# 4 0.0000 0.0000 0.0000 29.7858 0.0000 0.0000
# 5 0.0000 0.0000 0.0000 0.0000 13.6554 0.0000
# 6 0.0000 0.0000 0.0000 0.0000 0.0000 7.3633
#
#
#
# Elastic Compliance Matrix: (Units=1/GPa)
#
#
# Indices 1 2 3 4 5 6 
#
# 1 0.054482 -0.007426 0.012837 0.000000 0.000000 0.000000
# 2 -0.007426 0.012924 -0.011627 0.000000 0.000000 0.000000
# 3 0.012837 -0.011627 0.028634 0.000000 0.000000 0.000000
# 4 0.000000 0.000000 0.000000 0.033573 0.000000 0.000000
# 5 0.000000 0.000000 0.000000 0.000000 0.073231 0.000000
# 6 0.000000 0.000000 0.000000 0.000000 0.000000 0.135809
#
#
# Mechanical properties :
#
#
# Convention : Reuss Voigt Hill
#
# Bulk Modulus (GPa) = 11.96041 32.66048 22.31045
# Shear Modulus (GPa) = 13.19426 20.52338 16.85882
#
# Velocity S-wave (km/s) = 2.94820 3.67696 3.33256
# Velocity P-wave (km/s) = 4.41229 6.28827 5.43188
#
# Compressibility (1/GPa) = 0.08360916
#
# Stress axis : x y z
#
# Youngs Moduli (GPa) = 18.35469 77.37752 34.92345
#
# Poissons Ratio (x) = 0.57458 -0.44831
# Poissons Ratio (y) = 0.13629 0.40604
# Poissons Ratio (z) = -0.23562 0.89964
#
# Static dielectric constant tensor:
#      x y z
#    x 1.543730 0.000000 0.000000 
#    y 0.000000 1.567760 0.000000 
#    z 0.000000 0.000000 1.489950 
# 
# From -- ./inp_files/70981.got.cif
#   From: 2010.05.17/outbox.cif.g08.bks.cpg/sg74_36_cif.got.tgz:70981.got - 2010.06.03 17:57:02.
