data_PCOD9537718
_publ_section_title
;
Structure prediction by ZEFSAII (Michael W. Deem and Ramdas Pophale) SiO2 
 PCOD9537718
Probable space group: I M M A
;
_chemical_formula_sum "Si O2"
_cell_formula_units_Z 104
_cell_length_a 9.885899
_cell_length_b 21.000107
_cell_length_c 28.165835
_cell_angle_alpha 90.000000
_cell_angle_beta 90.000000
_cell_angle_gamma 90.000000
_cell_volume 5847.366395
_symmetry_space_group_name_H-M "I M M A"
_symmetry_group_IT_number 74
_symmetry_cell_setting 'orthorhombic'
loop_
_space_group_symop_operation_xyz
x,y,z
-x,1/2-y,z
x,-y,-z
-x,1/2+y,-z
-x,-y,-z
x,1/2+y,-z
-x,y,z
x,1/2-y,z
1/2+x,1/2+y,1/2+z
1/2-x,-y,1/2+z
1/2+x,1/2-y,1/2-z
1/2-x,y,1/2-z
1/2-x,1/2-y,1/2-z
1/2+x,y,1/2-z
1/2-x,1/2+y,1/2+z
1/2+x,-y,1/2+z
loop_
_atom_site_type_symbol
_atom_site_label
_atom_site_fract_x
_atom_site_fract_y
_atom_site_fract_z
Si Si1 0.500000 0.327915 0.302195
Si Si2 0.743402 0.115414 0.144481
Si Si3 0.163164 0.175091 0.051613
Si Si4 0.659575 0.883493 0.347294
Si Si5 0.335901 0.822572 0.442913
Si Si6 0.000000 0.676978 0.695260
Si Si7 0.665320 0.491451 0.798461
Si Si8 0.150360 0.250000 0.793421
O O1 0.500000 0.250000 0.306021
O O2 0.373569 0.358093 0.328496
O O3 0.500000 0.352611 0.247787
O O4 0.768460 0.128144 0.089144
O O5 0.626316 0.159606 0.164158
O O6 0.701212 0.045968 0.162983
O O7 0.193555 0.250000 0.062095
O O8 0.000000 0.168832 0.055330
O O9 0.202694 0.162222 0.997017
O O10 0.500000 0.905064 0.344403
O O11 0.701101 0.872492 0.402155
O O12 0.763506 0.928037 0.319225
O O13 0.663968 0.813210 0.324661
O O14 0.500000 0.820318 0.441887
O O15 0.289484 0.750000 0.432503
O O16 0.000000 0.750000 0.706394
O O17 0.500000 0.487300 0.791916
O O18 0.750000 0.506114 0.750000
O O19 0.250000 0.250000 0.750000
O O20 0.000000 0.250000 0.773045
#
# Coordination Sequence:
#
# PCOD9537718 Si02
#       8
#     8  16  16  16  16   8  16   8
#     4  11  22  36  58  84 113 147 197 251 304 358
#     4  12  23  37  57  82 120 155 198 246 299 352
#     4   9  17  31  57  91 120 151 195 248 298 347
#     4  10  20  37  64  92 121 153 194 243 298 357
#     4   8  14  30  59  93 123 150 188 243 300 351
#     4  11  22  36  54  80 111 153 195 247 306 358
#     4  12  27  44  61  83 116 163 209 244 292 358
#     4  10  20  34  56  92 124 150 184 234 297 355
#
# _framework density 17.785785000000001
#
# number of rings (size 3 to 8) (size 9 to 14) (size 15 to 20)
#    0.000    1.692    2.308    4.615    2.154    3.077 
#    0.000    0.769    1.692    3.692    0.000    0.000 
#    0.000    0.000    0.000    0.000    0.000    0.000 
#
# Total GULP energy -289834.673950 kJ/mol
# GULP energy per Si atom -5573.743730 kJ/mol
# Density = 1.774530 g / cm^3
# Si number density = 17.785785 Si / 1000 Ang^3
#
#
#
# Elastic Constant Matrix: (Units=GPa)
#
#
# Indices 1 2 3 4 5 6 
#
# 1 109.7532 32.5604 37.0460 0.0000 0.0000 0.0000
# 2 32.5604 59.6736 22.6101 -0.0001 0.0000 0.0000
# 3 37.0460 22.6101 104.4919 0.0000 0.0000 0.0000
# 4 0.0000 -0.0001 0.0000-3411.0112 -0.0013 0.0000
# 5 0.0000 0.0000 0.0000 -0.0013 476.1873 0.0000
# 6 0.0000 0.0000 0.0000 0.0000 0.0000 32.8069
#
#
#
# Elastic Compliance Matrix: (Units=1/GPa)
#
#
# Indices 1 2 3 4 5 6 
#
# 1 0.011679 -0.005233 -0.003008 0.000000 0.000000 0.000000
# 2 -0.005233 0.020599 -0.002602 0.000000 0.000000 0.000000
# 3 -0.003008 -0.002602 0.011200 0.000000 0.000000 0.000000
# 4 0.000000 0.000000 0.000000 -0.000293 0.000000 0.000000
# 5 0.000000 0.000000 0.000000 0.000000 0.002100 0.000000
# 6 0.000000 0.000000 0.000000 0.000000 0.000000 0.030481
#
#
# Mechanical properties :
#
#
# Convention : Reuss Voigt Hill
#
# Bulk Modulus (GPa) = 45.88952 50.92794 48.40873
# Shear Modulus (GPa) = 47.74801 -568.28990 -260.27095
#
# Velocity S-wave (km/s) = 5.18695 -17.89449 -12.11009
# Velocity P-wave (km/s) = 7.85683 19.95631 12.97159
#
# Compressibility (1/GPa) = 0.02179147
#
# Stress axis : x y z
#
# Youngs Moduli (GPa) = 85.62216 48.54613 89.28784
#
# Poissons Ratio (x) = 0.25403 0.26861
# Poissons Ratio (y) = 0.44804 0.23233
# Poissons Ratio (z) = 0.25759 0.12632
#
# Static dielectric constant tensor:
#      x y z
#    x 1.564940 0.000000 0.000000 
#    y 0.000000 1.634790 0.000000 
#    z 0.000000 0.000000 1.640870 
# 
# From -- ./inp_files/64555.got.cif
#   From: 2010.05.17/outbox.cif.g08.bks.cpg/sg74_33_cif.got.tgz:64555.got - 2010.06.03 17:57:02.
