data_PCOD9537214
_publ_section_title
;
Structure prediction by ZEFSAII (Michael W. Deem and Ramdas Pophale) SiO2 
 PCOD9537214
Probable space group: I M M A
;
_chemical_formula_sum "Si O2"
_cell_formula_units_Z 96
_cell_length_a 7.760099
_cell_length_b 19.772060
_cell_length_c 31.117264
_cell_angle_alpha 90.000000
_cell_angle_beta 90.000000
_cell_angle_gamma 90.000000
_cell_volume 4774.419618
_symmetry_space_group_name_H-M "I M M A"
_symmetry_group_IT_number 74
_symmetry_cell_setting 'orthorhombic'
loop_
_space_group_symop_operation_xyz
x,y,z
-x,1/2-y,z
x,-y,-z
-x,1/2+y,-z
-x,-y,-z
x,1/2+y,-z
-x,y,z
x,1/2-y,z
1/2+x,1/2+y,1/2+z
1/2-x,-y,1/2+z
1/2+x,1/2-y,1/2-z
1/2-x,y,1/2-z
1/2-x,1/2-y,1/2-z
1/2+x,y,1/2-z
1/2-x,1/2+y,1/2+z
1/2+x,-y,1/2+z
loop_
_atom_site_type_symbol
_atom_site_label
_atom_site_fract_x
_atom_site_fract_y
_atom_site_fract_z
Si Si1 0.295270 0.325993 0.122970
Si Si2 0.707598 0.573342 0.299255
Si Si3 0.294795 0.420317 0.299073
Si Si4 0.210843 0.574149 0.549666
Si Si5 0.207798 0.079120 0.548491
Si Si6 0.205680 0.826482 0.127168
O O1 0.500000 0.320736 0.115591
O O2 0.224119 0.250000 0.124328
O O3 0.271564 0.366231 0.167137
O O4 0.225364 0.372334 0.084376
O O5 0.500000 0.571227 0.302733
O O6 0.750000 0.590963 0.250000
O O7 0.772325 0.496740 0.307601
O O8 0.774286 0.626906 0.333963
O O9 0.500000 0.422172 0.303082
O O10 0.250000 0.403339 0.250000
O O11 0.263142 0.590831 0.500811
O O12 0.264860 0.497239 0.560307
O O13 0.000000 0.573941 0.550170
O O14 0.265536 0.134199 0.582670
O O15 0.000000 0.079055 0.548572
O O16 0.275033 0.750000 0.126727
O O17 0.000000 0.821829 0.133360
#
# Coordination Sequence:
#
# PCOD9537214 Si02
#       6
#    16  16  16  16  16  16
#     4  10  20  33  50  73 102 135 166 199 246 299
#     4   9  19  35  54  75  98 128 166 206 249 295
#     4  10  20  35  55  76  98 126 164 208 249 293
#     4   8  16  32  53  77 103 130 164 210 256 290
#     4   9  17  32  55  78  99 129 172 213 245 289
#     4  10  21  35  49  71 107 141 164 198 252 302
#
# _framework density 20.107156
#
# number of rings (size 3 to 8) (size 9 to 14) (size 15 to 20)
#    0.000    2.667    0.000    2.500    0.000    3.333 
#    0.000    4.167    0.000    0.000    0.000    0.000 
#    0.000    0.000    0.000    0.000    0.000    0.000 
#
# Total GULP energy -267901.327604 kJ/mol
# GULP energy per Si atom -5581.277658 kJ/mol
# Density = 2.006139 g / cm^3
# Si number density = 20.107156 Si / 1000 Ang^3
#
#
#
# Elastic Constant Matrix: (Units=GPa)
#
#
# Indices 1 2 3 4 5 6 
#
# 1 27.0833 5.3401 -5.7461 0.0000 0.0000 0.0000
# 2 5.3401 188.0565 133.9195 0.0000 0.0000 0.0000
# 3 -5.7461 133.9195 133.7592 0.0000 0.0000 0.0000
# 4 0.0000 0.0000 0.0000 -6.7010 0.0000 0.0000
# 5 0.0000 0.0000 0.0000 0.0000 11.0780 0.0000
# 6 0.0000 0.0000 0.0000 0.0000 0.0000 14.2723
#
#
#
# Elastic Compliance Matrix: (Units=1/GPa)
#
#
# Indices 1 2 3 4 5 6 
#
# 1 0.040722 -0.008369 0.010129 0.000000 0.000000 0.000000
# 2 -0.008369 0.020247 -0.020630 0.000000 0.000000 0.000000
# 3 0.010129 -0.020630 0.028566 0.000000 0.000000 0.000000
# 4 0.000000 0.000000 0.000000 -0.149232 0.000000 0.000000
# 5 0.000000 0.000000 0.000000 0.000000 0.090269 0.000000
# 6 0.000000 0.000000 0.000000 0.000000 0.000000 0.070066
#
#
# Mechanical properties :
#
#
# Convention : Reuss Voigt Hill
#
# Bulk Modulus (GPa) = 19.30758 68.43623 43.87191
# Shear Modulus (GPa) = 32.12454 18.08890 25.10672
#
# Velocity S-wave (km/s) = 4.00142 3.00263 3.53745
# Velocity P-wave (km/s) = 5.56522 6.79196 6.20896
#
# Compressibility (1/GPa) = 0.05179312
#
# Stress axis : x y z
#
# Youngs Moduli (GPa) = 24.55666 49.39102 35.00623
#
# Poissons Ratio (x) = 0.41336 -0.35456
# Poissons Ratio (y) = 0.20552 0.72219
# Poissons Ratio (z) = -0.24872 1.01896
#
# Static dielectric constant tensor:
#      x y z
#    x 1.750530 0.000000 0.000000 
#    y 0.000000 1.713220 0.000000 
#    z 0.000000 0.000000 1.670760 
# 
# From -- ./inp_files/64283.got.cif
#   From: 2010.05.17/outbox.cif.g08.bks.cpg/sg74_33_cif.got.tgz:64283.got - 2010.06.03 17:57:02.
