data_PCOD9537502
_publ_section_title
;
Structure prediction by ZEFSAII (Michael W. Deem and Ramdas Pophale) SiO2 
 PCOD9537502
Probable space group: I M M A
;
_chemical_formula_sum "Si O2"
_cell_formula_units_Z 96
_cell_length_a 18.261158
_cell_length_b 24.102798
_cell_length_c 12.466918
_cell_angle_alpha 90.000000
_cell_angle_beta 90.000000
_cell_angle_gamma 90.000000
_cell_volume 5487.251655
_symmetry_space_group_name_H-M "I M M A"
_symmetry_group_IT_number 74
_symmetry_cell_setting 'orthorhombic'
loop_
_space_group_symop_operation_xyz
x,y,z
-x,1/2-y,z
x,-y,-z
-x,1/2+y,-z
-x,-y,-z
x,1/2+y,-z
-x,y,z
x,1/2-y,z
1/2+x,1/2+y,1/2+z
1/2-x,-y,1/2+z
1/2+x,1/2-y,1/2-z
1/2-x,y,1/2-z
1/2-x,1/2-y,1/2-z
1/2+x,y,1/2-z
1/2-x,1/2+y,1/2+z
1/2+x,-y,1/2+z
loop_
_atom_site_type_symbol
_atom_site_label
_atom_site_fract_x
_atom_site_fract_y
_atom_site_fract_z
Si Si1 0.345504 0.127868 0.440644
Si Si2 0.086371 0.685800 0.363024
Si Si3 0.083537 0.981025 0.875397
Si Si4 0.587839 0.101872 0.670808
Si Si5 0.810901 0.816072 0.570411
Si Si6 0.919245 0.684107 0.755430
O O1 0.361502 0.070387 0.377198
O O2 0.372176 0.120467 0.562355
O O3 0.263123 0.149395 0.438416
O O4 0.395852 0.170887 0.375958
O O5 0.095329 0.750000 0.326561
O O6 0.104856 0.642337 0.269422
O O7 0.137399 0.677970 0.466343
O O8 0.000000 0.678902 0.390772
O O9 0.000000 0.964197 0.846520
O O10 0.104644 0.036572 0.811142
O O11 0.080544 0.000000 0.000000
O O12 0.500000 0.104402 0.652031
O O13 0.793588 0.750000 0.581763
O O14 0.857327 0.835419 0.673258
O O15 0.922223 0.750000 0.740086
O O16 0.000000 0.661444 0.731660
#
# Coordination Sequence:
#
# PCOD9537502 Si02
#       6
#    16  16  16  16  16  16
#     4  11  19  30  52  78 106 133 169 218 273 317
#     4   9  18  34  56  79 105 143 183 214 254 316
#     4   8  15  30  52  74  98 134 173 208 256 315
#     4   9  18  33  55  80 105 135 175 221 261 307
#     4  10  21  35  51  73 108 146 176 209 259 323
#     4  10  20  34  53  75 100 134 177 219 258 310
#
# _framework density 17.495097000000001
#
# number of rings (size 3 to 8) (size 9 to 14) (size 15 to 20)
#    0.000    2.500    0.000    4.000    0.000    5.333 
#    0.000    3.333   22.000    0.000    0.000    4.667 
#    0.000    0.000    0.000    0.000    0.000    0.000 
#
# Total GULP energy -267503.555889 kJ/mol
# GULP energy per Si atom -5572.990748 kJ/mol
# Density = 1.745528 g / cm^3
# Si number density = 17.495097 Si / 1000 Ang^3
#
#
#
# Elastic Constant Matrix: (Units=GPa)
#
#
# Indices 1 2 3 4 5 6 
#
# 1 92.6726 48.6135 29.6187 0.0000 0.0000 0.0000
# 2 48.6135 76.7498 30.7659 0.0000 0.0000 0.0000
# 3 29.6187 30.7659 41.5386 0.0000 0.0000 0.0000
# 4 0.0000 0.0000 0.0000 4.8360 0.0000 0.0000
# 5 0.0000 0.0000 0.0000 0.0000 -2.7310 0.0000
# 6 0.0000 0.0000 0.0000 0.0000 0.0000 19.6341
#
#
#
# Elastic Compliance Matrix: (Units=1/GPa)
#
#
# Indices 1 2 3 4 5 6 
#
# 1 0.017133 -0.008470 -0.005944 0.000000 0.000000 0.000000
# 2 -0.008470 0.022718 -0.010787 0.000000 0.000000 0.000000
# 3 -0.005944 -0.010787 0.036302 0.000000 0.000000 0.000000
# 4 0.000000 0.000000 0.000000 0.206784 0.000000 0.000000
# 5 0.000000 0.000000 0.000000 0.000000 -0.366160 0.000000
# 6 0.000000 0.000000 0.000000 0.000000 0.000000 0.050932
#
#
# Mechanical properties :
#
#
# Convention : Reuss Voigt Hill
#
# Bulk Modulus (GPa) = 38.83166 47.66192 43.24679
# Shear Modulus (GPa) = 187.30707 11.14533 99.22620
#
# Velocity S-wave (km/s) = 10.35833 2.52673 7.53921
# Velocity P-wave (km/s) = 12.85706 5.98453 10.02793
#
# Compressibility (1/GPa) = 0.02575218
#
# Stress axis : x y z
#
# Youngs Moduli (GPa) = 58.36607 44.01753 27.54697
#
# Poissons Ratio (x) = 0.37281 0.16373
# Poissons Ratio (y) = 0.49434 0.29715
# Poissons Ratio (z) = 0.34690 0.47483
#
# Static dielectric constant tensor:
#      x y z
#    x 1.591430 0.000000 0.000000 
#    y 0.000000 1.633300 0.000000 
#    z 0.000000 0.000000 1.567810 
# 
# From -- ./inp_files/22480.got.cif
#   From: 2010.05.17/outbox.cif.g08.bks.cpg/sg74_12_cif.got.tgz:22480.got - 2010.06.03 17:57:02.
