data_PCOD9537947
_publ_section_title
;
Structure prediction by ZEFSAII (Michael W. Deem and Ramdas Pophale) SiO2 
 PCOD9537947
Probable space group: I M M A
;
_chemical_formula_sum "Si O2"
_cell_formula_units_Z 88
_cell_length_a 18.728236
_cell_length_b 28.161021
_cell_length_c 7.740420
_cell_angle_alpha 90.000000
_cell_angle_beta 90.000000
_cell_angle_gamma 90.000000
_cell_volume 4082.345865
_symmetry_space_group_name_H-M "I M M A"
_symmetry_group_IT_number 74
_symmetry_cell_setting 'orthorhombic'
loop_
_space_group_symop_operation_xyz
x,y,z
-x,1/2-y,z
x,-y,-z
-x,1/2+y,-z
-x,-y,-z
x,1/2+y,-z
-x,y,z
x,1/2-y,z
1/2+x,1/2+y,1/2+z
1/2-x,-y,1/2+z
1/2+x,1/2-y,1/2-z
1/2-x,y,1/2-z
1/2-x,1/2-y,1/2-z
1/2+x,y,1/2-z
1/2-x,1/2+y,1/2+z
1/2+x,-y,1/2+z
loop_
_atom_site_type_symbol
_atom_site_label
_atom_site_fract_x
_atom_site_fract_y
_atom_site_fract_z
Si Si1 0.804520 0.302297 0.998463
Si Si2 0.918543 0.952332 0.193744
Si Si3 0.582079 0.603034 0.952485
Si Si4 0.336604 0.093909 0.394204
Si Si5 0.195657 0.000000 0.000000
Si Si6 0.139417 0.301829 0.616868
O O1 0.820151 0.250000 0.078622
O O2 0.852117 0.306539 0.824213
O O3 0.721589 0.301649 0.945337
O O4 0.813793 0.351393 0.097650
O O5 0.909782 0.930467 0.381283
O O6 0.858193 0.991460 0.160750
O O7 0.000000 0.968676 0.173837
O O8 0.897491 0.915411 0.041113
O O9 0.500000 0.600881 0.894937
O O10 0.631622 0.588651 0.794895
O O11 0.599860 0.655354 0.024816
O O12 0.278110 0.053370 0.455425
O O13 0.107913 0.250000 0.578729
#
# Coordination Sequence:
#
# PCOD9537947 Si02
#       6
#    16  16  16  16   8  16
#     4   9  18  36  63  85 110 150 192 238 283 337
#     4   9  18  34  52  78 113 149 187 228 277 330
#     4  11  22  34  55  84 117 152 186 234 287 340
#     4  10  20  35  56  85 114 144 193 230 282 337
#     4   8  19  34  58  80 112 152 189 238 282 328
#     4   9  18  36  60  85 110 147 196 237 283 337
#
# _framework density 21.556232999999999
#
# number of rings (size 3 to 8) (size 9 to 14) (size 15 to 20)
#    1.091    1.455    1.818    1.909    0.000    2.545 
#    0.000    3.636    0.000   10.364    0.000    0.000 
#    0.000    0.000    0.000    0.000    0.000    0.000 
#
# Total GULP energy -244982.710518 kJ/mol
# GULP energy per Si atom -5567.788875 kJ/mol
# Density = 2.150717 g / cm^3
# Si number density = 21.556233 Si / 1000 Ang^3
#
#
#
# Elastic Constant Matrix: (Units=GPa)
#
#
# Indices 1 2 3 4 5 6 
#
# 1 24.5001 15.6732 20.3606 0.0000 0.0000 0.0000
# 2 15.6732 151.0064 40.6092 0.0000 0.0000 0.0000
# 3 20.3606 40.6092 89.9526 0.0000 0.0000 0.0000
# 4 0.0000 0.0000 0.0000 17.6899 0.0000 0.0000
# 5 0.0000 0.0000 0.0000 0.0000 7.9071 0.0000
# 6 0.0000 0.0000 0.0000 0.0000 0.0000 -6.2261
#
#
#
# Elastic Compliance Matrix: (Units=1/GPa)
#
#
# Indices 1 2 3 4 5 6 
#
# 1 0.051086 -0.002496 -0.010437 0.000000 0.000000 0.000000
# 2 -0.002496 0.007659 -0.002893 0.000000 0.000000 0.000000
# 3 -0.010437 -0.002893 0.014785 0.000000 0.000000 0.000000
# 4 0.000000 0.000000 0.000000 0.056529 0.000000 0.000000
# 5 0.000000 0.000000 0.000000 0.000000 0.126468 0.000000
# 6 0.000000 0.000000 0.000000 0.000000 0.000000 -0.160614
#
#
# Mechanical properties :
#
#
# Convention : Reuss Voigt Hill
#
# Bulk Modulus (GPa) = 23.87764 46.52725 35.20244
# Shear Modulus (GPa) = 35.32952 16.46191 25.89572
#
# Velocity S-wave (km/s) = 4.05278 2.76646 3.46975
# Velocity P-wave (km/s) = 5.74465 5.64229 5.69370
#
# Compressibility (1/GPa) = 0.04188019
#
# Stress axis : x y z
#
# Youngs Moduli (GPa) = 19.57488 130.56141 67.63497
#
# Poissons Ratio (x) = 0.32584 0.70587
# Poissons Ratio (y) = 0.04885 0.19566
# Poissons Ratio (z) = 0.20429 0.37770
#
# Static dielectric constant tensor:
#      x y z
#    x 1.776280 0.000000 0.000000 
#    y 0.000000 1.986600 0.000000 
#    z 0.000000 0.000000 1.787190 
# 
# From -- ./inp_files/12865.got.cif
#   From: 2010.05.17/outbox.cif.g08.bks.cpg/sg74_7_cif.got.tgz:12865.got - 2010.06.03 17:57:02.
