data_PCOD9537019
_publ_section_title
;
Structure prediction by ZEFSAII (Michael W. Deem and Ramdas Pophale) SiO2 
 PCOD9537019
Probable space group: I M M A
;
_chemical_formula_sum "Si O2"
_cell_formula_units_Z 80
_cell_length_a 7.889454
_cell_length_b 28.015415
_cell_length_c 19.279527
_cell_angle_alpha 90.000000
_cell_angle_beta 90.000000
_cell_angle_gamma 90.000000
_cell_volume 4261.283057
_symmetry_space_group_name_H-M "I M M A"
_symmetry_group_IT_number 74
_symmetry_cell_setting 'orthorhombic'
loop_
_space_group_symop_operation_xyz
x,y,z
-x,1/2-y,z
x,-y,-z
-x,1/2+y,-z
-x,-y,-z
x,1/2+y,-z
-x,y,z
x,1/2-y,z
1/2+x,1/2+y,1/2+z
1/2-x,-y,1/2+z
1/2+x,1/2-y,1/2-z
1/2-x,y,1/2-z
1/2-x,1/2-y,1/2-z
1/2+x,y,1/2-z
1/2-x,1/2+y,1/2+z
1/2+x,-y,1/2+z
loop_
_atom_site_type_symbol
_atom_site_label
_atom_site_fract_x
_atom_site_fract_y
_atom_site_fract_z
Si Si1 0.701034 0.195976 0.825324
Si Si2 0.792800 0.803026 0.891509
Si Si3 0.203411 0.902142 0.827547
Si Si4 0.792434 0.450205 0.032149
Si Si5 0.702770 0.351447 0.532153
O O1 0.500000 0.199403 0.826807
O O2 0.773779 0.250000 0.830267
O O3 0.750000 0.176139 0.750000
O O4 0.753946 0.166064 0.891750
O O5 0.734539 0.750000 0.871597
O O6 0.736301 0.848124 0.845349
O O7 0.000000 0.802437 0.889681
O O8 0.739998 0.816027 0.970433
O O9 0.250000 0.916121 0.750000
O O10 0.261193 0.937338 0.889216
O O11 0.000000 0.900774 0.832122
O O12 0.000000 0.451402 0.032010
O O13 0.733576 0.500000 0.000000
O O14 0.737655 0.404650 0.986533
O O15 0.500000 0.352456 0.526620
#
# Coordination Sequence:
#
# PCOD9537019 Si02
#       5
#    16  16  16  16  16
#     4  10  20  32  46  66  94 126 156 189 233 284
#     4   8  14  25  42  64  89 118 151 181 212 261
#     4   9  17  29  46  67  90 118 149 181 220 263
#     4   8  15  30  51  71  91 120 157 191 227 276
#     4   9  16  28  49  71  89 116 155 196 233 270
#
# _framework density 18.773688
#
# number of rings (size 3 to 8) (size 9 to 14) (size 15 to 20)
#    0.000    3.200    0.000    3.600    0.000    2.400 
#    0.000    5.000    0.000    6.000    0.000    0.000 
#    0.000    0.000    0.000    0.000    0.000    0.000 
#
# Total GULP energy -222874.667683 kJ/mol
# GULP energy per Si atom -5571.866692 kJ/mol
# Density = 1.873096 g / cm^3
# Si number density = 18.773688 Si / 1000 Ang^3
#
#
#
# Elastic Constant Matrix: (Units=GPa)
#
#
# Indices 1 2 3 4 5 6 
#
# 1 12.8250 8.2703 0.3852 0.0000 0.0000 0.0000
# 2 8.2703 113.7812 68.3769 0.0000 0.0000 0.0000
# 3 0.3852 68.3769 154.8986 -0.0001 0.0000 0.0000
# 4 0.0000 0.0000 -0.0001 15.9483 0.0000 0.0000
# 5 0.0000 0.0000 0.0000 0.0000 24.2445 0.0000
# 6 0.0000 0.0000 0.0000 0.0000 0.0000 6.4961
#
#
#
# Elastic Compliance Matrix: (Units=1/GPa)
#
#
# Indices 1 2 3 4 5 6 
#
# 1 0.083062 -0.008048 0.003346 0.000000 0.000000 0.000000
# 2 -0.008048 0.012742 -0.005605 0.000000 0.000000 0.000000
# 3 0.003346 -0.005605 0.008922 0.000000 0.000000 0.000000
# 4 0.000000 0.000000 0.000000 0.062703 0.000000 0.000000
# 5 0.000000 0.000000 0.000000 0.000000 0.041247 0.000000
# 6 0.000000 0.000000 0.000000 0.000000 0.000000 0.153938
#
#
# Mechanical properties :
#
#
# Convention : Reuss Voigt Hill
#
# Bulk Modulus (GPa) = 11.88887 48.39663 30.14275
# Shear Modulus (GPa) = 12.15762 22.96926 17.56344
#
# Velocity S-wave (km/s) = 2.54754 3.50163 3.06197
# Velocity P-wave (km/s) = 3.87295 6.49488 5.34711
#
# Compressibility (1/GPa) = 0.08411231
#
# Stress axis : x y z
#
# Youngs Moduli (GPa) = 12.03914 78.48113 112.08784
#
# Poissons Ratio (x) = 0.63165 -0.37507
# Poissons Ratio (y) = 0.09690 0.62821
# Poissons Ratio (z) = -0.04029 0.43986
#
# Static dielectric constant tensor:
#      x y z
#    x 1.670310 0.000000 0.000000 
#    y 0.000000 1.659810 0.000000 
#    z 0.000000 0.000000 1.670640 
# 
# From -- ./inp_files/39743.got.cif
#   From: 2010.05.17/outbox.cif.g08.bks.cpg/sg74_20_cif.got.tgz:39743.got - 2010.06.03 17:57:02.
