data_PCOD9537897
_publ_section_title
;
Structure prediction by ZEFSAII (Michael W. Deem and Ramdas Pophale) SiO2 
 PCOD9537897
Probable space group: I M M A
;
_chemical_formula_sum "Si O2"
_cell_formula_units_Z 80
_cell_length_a 9.000484
_cell_length_b 26.639429
_cell_length_c 17.151236
_cell_angle_alpha 90.000000
_cell_angle_beta 90.000000
_cell_angle_gamma 90.000000
_cell_volume 4112.313342
_symmetry_space_group_name_H-M "I M M A"
_symmetry_group_IT_number 74
_symmetry_cell_setting 'orthorhombic'
loop_
_space_group_symop_operation_xyz
x,y,z
-x,1/2-y,z
x,-y,-z
-x,1/2+y,-z
-x,-y,-z
x,1/2+y,-z
-x,y,z
x,1/2-y,z
1/2+x,1/2+y,1/2+z
1/2-x,-y,1/2+z
1/2+x,1/2-y,1/2-z
1/2-x,y,1/2-z
1/2-x,1/2-y,1/2-z
1/2+x,y,1/2-z
1/2-x,1/2+y,1/2+z
1/2+x,-y,1/2+z
loop_
_atom_site_type_symbol
_atom_site_label
_atom_site_fract_x
_atom_site_fract_y
_atom_site_fract_z
Si Si1 0.677283 0.805382 0.949232
Si Si2 0.827290 0.913654 0.130550
Si Si3 0.675453 0.515466 0.829478
Si Si4 0.677311 0.695628 0.380636
Si Si5 0.326680 0.592161 0.557941
O O1 0.500000 0.811884 0.945430
O O2 0.714815 0.750000 0.916050
O O3 0.759197 0.854232 0.916355
O O4 0.730291 0.803680 0.039328
O O5 0.788467 0.857451 0.159023
O O6 0.000000 0.924735 0.150058
O O7 0.723972 0.957690 0.160463
O O8 0.815535 0.911916 0.036056
O O9 0.500000 0.519972 0.825629
O O10 0.750000 0.534556 0.750000
O O11 0.739805 0.547334 0.901044
O O12 0.500000 0.692784 0.399798
O O13 0.701867 0.750000 0.341707
O O14 0.500000 0.589246 0.578012
#
# Coordination Sequence:
#
# PCOD9537897 Si02
#       5
#    16  16  16  16  16
#     4   9  16  26  44  74 109 139 169 208 251 296
#     4   9  18  33  54  80 109 138 171 212 255 303
#     4  12  25  39  55  74 101 136 175 218 264 314
#     4   8  14  26  46  73 105 139 170 204 252 305
#     4  10  20  35  56  80 107 138 173 213 257 307
#
# _framework density 19.453771
#
# number of rings (size 3 to 8) (size 9 to 14) (size 15 to 20)
#    0.000    2.400    0.000    4.800    0.000    7.600 
#    0.000    0.000    0.000    1.200    0.000    0.000 
#    0.000    0.000    0.000    0.000    0.000    0.000 
#
# Total GULP energy -223079.458747 kJ/mol
# GULP energy per Si atom -5576.986469 kJ/mol
# Density = 1.940949 g / cm^3
# Si number density = 19.453771 Si / 1000 Ang^3
#
#
#
# Elastic Constant Matrix: (Units=GPa)
#
#
# Indices 1 2 3 4 5 6 
#
# 1 105.0753 63.8222 29.5607 0.0000 0.0000 0.0000
# 2 63.8222 119.7008 24.3855 0.0000 0.0000 0.0000
# 3 29.5607 24.3855 36.8844 0.0002 0.0000 0.0000
# 4 0.0000 0.0000 0.0002 -17.5823 0.0000 0.0000
# 5 0.0000 0.0000 0.0000 0.0000 17.7164 0.0000
# 6 0.0000 0.0000 0.0000 0.0000 0.0000 28.9446
#
#
#
# Elastic Compliance Matrix: (Units=1/GPa)
#
#
# Indices 1 2 3 4 5 6 
#
# 1 0.016011 -0.006845 -0.008307 0.000000 0.000000 0.000000
# 2 -0.006845 0.012580 -0.002832 0.000000 0.000000 0.000000
# 3 -0.008307 -0.002832 0.035641 0.000000 0.000000 0.000000
# 4 0.000000 0.000000 0.000000 -0.056875 0.000000 0.000000
# 5 0.000000 0.000000 0.000000 0.000000 0.056445 0.000000
# 6 0.000000 0.000000 0.000000 0.000000 0.000000 0.034549
#
#
# Mechanical properties :
#
#
# Convention : Reuss Voigt Hill
#
# Bulk Modulus (GPa) = 35.37750 55.24413 45.31081
# Shear Modulus (GPa) = 34.78491 15.40856 25.09674
#
# Velocity S-wave (km/s) = 4.23316 2.81741 3.59565
# Velocity P-wave (km/s) = 6.48982 6.24844 6.37027
#
# Compressibility (1/GPa) = 0.02826656
#
# Stress axis : x y z
#
# Youngs Moduli (GPa) = 62.45562 79.48812 28.05721
#
# Poissons Ratio (x) = 0.54407 0.23307
# Poissons Ratio (y) = 0.42749 0.07945
# Poissons Ratio (z) = 0.51881 0.22509
#
# Static dielectric constant tensor:
#      x y z
#    x 1.643900 0.000000 0.000000 
#    y 0.000000 1.737910 0.000000 
#    z 0.000000 0.000000 1.669530 
# 
# From -- ./inp_files/39687.got.cif
#   From: 2010.05.17/outbox.cif.g08.bks.cpg/sg74_20_cif.got.tgz:39687.got - 2010.06.03 17:57:02.
