data_PCOD9537065
_publ_section_title
;
Structure prediction by ZEFSAII (Michael W. Deem and Ramdas Pophale) SiO2 
 PCOD9537065
Probable space group: I M M A
;
_chemical_formula_sum "Si O2"
_cell_formula_units_Z 80
_cell_length_a 8.413443
_cell_length_b 27.712649
_cell_length_c 19.281930
_cell_angle_alpha 90.000000
_cell_angle_beta 90.000000
_cell_angle_gamma 90.000000
_cell_volume 4495.751521
_symmetry_space_group_name_H-M "I M M A"
_symmetry_group_IT_number 74
_symmetry_cell_setting 'orthorhombic'
loop_
_space_group_symop_operation_xyz
x,y,z
-x,1/2-y,z
x,-y,-z
-x,1/2+y,-z
-x,-y,-z
x,1/2+y,-z
-x,y,z
x,1/2-y,z
1/2+x,1/2+y,1/2+z
1/2-x,-y,1/2+z
1/2+x,1/2-y,1/2-z
1/2-x,y,1/2-z
1/2-x,1/2-y,1/2-z
1/2+x,y,1/2-z
1/2-x,1/2+y,1/2+z
1/2+x,-y,1/2+z
loop_
_atom_site_type_symbol
_atom_site_label
_atom_site_fract_x
_atom_site_fract_y
_atom_site_fract_z
Si Si1 0.809965 0.803926 0.108930
Si Si2 0.189703 0.097809 0.674104
Si Si3 0.693597 0.950288 0.033587
Si Si4 0.308547 0.805866 0.823716
Si Si5 0.692473 0.848868 0.968890
O O1 0.754685 0.750000 0.128290
O O2 0.741134 0.847786 0.154012
O O3 0.000000 0.805341 0.114532
O O4 0.760937 0.815306 0.029621
O O5 0.250000 0.084781 0.750000
O O6 0.246665 0.062817 0.611748
O O7 0.000000 0.096559 0.673963
O O8 0.500000 0.952473 0.035207
O O9 0.736396 0.903683 0.987723
O O10 0.751174 0.000000 0.000000
O O11 0.500000 0.806278 0.823212
O O12 0.255616 0.750000 0.828803
O O13 0.250000 0.825441 0.750000
O O14 0.254943 0.833448 0.892504
O O15 0.500000 0.845166 0.972318
#
# Coordination Sequence:
#
# PCOD9537065 Si02
#       5
#    16  16  16  16  16
#     4  10  20  32  48  72 100 129 161 198 240 288
#     4  10  20  34  53  74  99 131 163 199 240 284
#     4   8  15  30  52  74  93 119 157 196 236 282
#     4   9  17  28  42  62  90 123 157 192 231 277
#     4   9  17  30  49  70  93 125 163 201 240 286
#
# _framework density 17.794577
#
# number of rings (size 3 to 8) (size 9 to 14) (size 15 to 20)
#    0.000    2.800    0.000    3.000    0.000    3.600 
#    0.000    3.000    0.000   15.000    0.000    0.000 
#    0.000    0.000    0.000    0.000    0.000    0.000 
#
# Total GULP energy -222982.794284 kJ/mol
# GULP energy per Si atom -5574.569857 kJ/mol
# Density = 1.775408 g / cm^3
# Si number density = 17.794577 Si / 1000 Ang^3
#
#
#
# Elastic Constant Matrix: (Units=GPa)
#
#
# Indices 1 2 3 4 5 6 
#
# 1 18.3508 15.2984 17.1695 0.0000 0.0000 0.0000
# 2 15.2984 104.2473 61.7895 0.0000 0.0000 0.0000
# 3 17.1695 61.7895 155.1411 0.0000 0.0000 0.0000
# 4 0.0000 0.0000 0.0000 9.8813 0.0000 0.0000
# 5 0.0000 0.0000 0.0000 0.0000 30.1141 0.0000
# 6 0.0000 0.0000 0.0000 0.0000 0.0000 8.0309
#
#
#
# Elastic Compliance Matrix: (Units=1/GPa)
#
#
# Indices 1 2 3 4 5 6 
#
# 1 0.064301 -0.006831 -0.004396 0.000000 0.000000 0.000000
# 2 -0.006831 0.013283 -0.004534 0.000000 0.000000 0.000000
# 3 -0.004396 -0.004534 0.008738 0.000000 0.000000 0.000000
# 4 0.000000 0.000000 0.000000 0.101201 0.000000 0.000000
# 5 0.000000 0.000000 0.000000 0.000000 0.033207 0.000000
# 6 0.000000 0.000000 0.000000 0.000000 0.000000 0.124519
#
#
# Mechanical properties :
#
#
# Convention : Reuss Voigt Hill
#
# Bulk Modulus (GPa) = 18.24809 51.80601 35.02705
# Shear Modulus (GPa) = 12.65705 21.83738 17.24721
#
# Velocity S-wave (km/s) = 2.66989 3.50693 3.11664
# Velocity P-wave (km/s) = 4.44764 6.75090 5.71648
#
# Compressibility (1/GPa) = 0.05480027
#
# Stress axis : x y z
#
# Youngs Moduli (GPa) = 15.55186 75.28695 114.44160
#
# Poissons Ratio (x) = 0.51427 0.50304
# Poissons Ratio (y) = 0.10623 0.51890
# Poissons Ratio (z) = 0.06836 0.34136
#
# Static dielectric constant tensor:
#      x y z
#    x 1.612000 0.000000 0.000000 
#    y 0.000000 1.602130 0.000000 
#    z 0.000000 0.000000 1.609230 
# 
# From -- ./inp_files/39718.got.cif
#   From: 2010.05.17/outbox.cif.g08.bks.cpg/sg74_20_cif.got.tgz:39718.got - 2010.06.03 17:57:02.
