data_PCOD9537948
_publ_section_title
;
Structure prediction by ZEFSAII (Michael W. Deem and Ramdas Pophale) SiO2 
 PCOD9537948
Probable space group: I M M A
;
_chemical_formula_sum "Si O2"
_cell_formula_units_Z 96
_cell_length_a 18.758301
_cell_length_b 25.376335
_cell_length_c 11.681458
_cell_angle_alpha 90.000000
_cell_angle_beta 90.000000
_cell_angle_gamma 90.000000
_cell_volume 5560.571778
_symmetry_space_group_name_H-M "I M M A"
_symmetry_group_IT_number 74
_symmetry_cell_setting 'orthorhombic'
loop_
_space_group_symop_operation_xyz
x,y,z
-x,1/2-y,z
x,-y,-z
-x,1/2+y,-z
-x,-y,-z
x,1/2+y,-z
-x,y,z
x,1/2-y,z
1/2+x,1/2+y,1/2+z
1/2-x,-y,1/2+z
1/2+x,1/2-y,1/2-z
1/2-x,y,1/2-z
1/2-x,1/2-y,1/2-z
1/2+x,y,1/2-z
1/2-x,1/2+y,1/2+z
1/2+x,-y,1/2+z
loop_
_atom_site_type_symbol
_atom_site_label
_atom_site_fract_x
_atom_site_fract_y
_atom_site_fract_z
Si Si1 0.179325 0.895071 0.976912
Si Si2 0.422129 0.038389 0.632093
Si Si3 0.581359 0.118477 0.837933
Si Si4 0.163003 0.938333 0.540557
Si Si5 0.823053 0.688531 0.178717
Si Si6 0.582514 0.079862 0.279650
O O1 0.256014 0.918487 0.944075
O O2 0.131022 0.885443 0.864777
O O3 0.139916 0.938927 0.054695
O O4 0.182843 0.845035 0.061948
O O5 0.500000 0.050546 0.579500
O O6 0.419634 0.069003 0.751660
O O7 0.417358 0.977479 0.660503
O O8 0.500000 0.130743 0.871044
O O9 0.616507 0.164387 0.761870
O O10 0.627785 0.099052 0.944288
O O11 0.118990 0.929261 0.656932
O O12 0.160929 0.000000 0.500000
O O13 0.835219 0.750000 0.155762
O O14 0.750000 0.682438 0.250000
O O15 0.500000 0.097070 0.269242
#
# Coordination Sequence:
#
# PCOD9537948 Si02
#       6
#    16  16  16  16  16  16
#     4  11  22  35  55  85 113 147 192 247 294 340
#     4   9  18  33  52  76 112 154 191 230 282 343
#     4  10  20  35  56  85 117 150 192 238 285 341
#     4  12  22  34  54  82 122 163 199 232 277 345
#     4  10  21  41  66  87 110 143 189 246 306 352
#     4  11  22  35  52  77 117 163 198 229 278 347
#
# _framework density 17.264410999999999
#
# number of rings (size 3 to 8) (size 9 to 14) (size 15 to 20)
#    0.000    1.500    3.333    3.000    0.000    3.000 
#    0.000    0.000    0.000    3.000    0.000    0.000 
#    0.000    0.000    0.000    0.000    0.000    0.000 
#
# Total GULP energy -267835.163199 kJ/mol
# GULP energy per Si atom -5579.899233 kJ/mol
# Density = 1.722512 g / cm^3
# Si number density = 17.264411 Si / 1000 Ang^3
#
#
#
# Elastic Constant Matrix: (Units=GPa)
#
#
# Indices 1 2 3 4 5 6 
#
# 1 134.4544 31.3309 55.4847 0.0000 0.0000 0.0000
# 2 31.3309 82.9431 42.9818 0.0000 0.0000 0.0000
# 3 55.4847 42.9818 113.1387 0.0000 0.0000 0.0000
# 4 0.0000 0.0000 0.0000 12.7262 0.0000 0.0000
# 5 0.0000 0.0000 0.0000 0.0000 35.2854 0.0000
# 6 0.0000 0.0000 0.0000 0.0000 0.0000 13.1596
#
#
#
# Elastic Compliance Matrix: (Units=1/GPa)
#
#
# Indices 1 2 3 4 5 6 
#
# 1 0.009464 -0.001456 -0.004088 0.000000 0.000000 0.000000
# 2 -0.001456 0.015236 -0.005074 0.000000 0.000000 0.000000
# 3 -0.004088 -0.005074 0.012771 0.000000 0.000000 0.000000
# 4 0.000000 0.000000 0.000000 0.078578 0.000000 0.000000
# 5 0.000000 0.000000 0.000000 0.000000 0.028340 0.000000
# 6 0.000000 0.000000 0.000000 0.000000 0.000000 0.075990
#
#
# Mechanical properties :
#
#
# Convention : Reuss Voigt Hill
#
# Bulk Modulus (GPa) = 61.59800 65.57012 63.58406
# Shear Modulus (GPa) = 20.24070 25.61683 22.92877
#
# Velocity S-wave (km/s) = 3.42774 3.85618 3.64826
# Velocity P-wave (km/s) = 7.17095 7.60850 7.39296
#
# Compressibility (1/GPa) = 0.01623429
#
# Stress axis : x y z
#
# Youngs Moduli (GPa) = 105.66615 65.63405 78.30213
#
# Poissons Ratio (x) = 0.09560 0.32009
# Poissons Ratio (y) = 0.15390 0.39730
# Poissons Ratio (z) = 0.43195 0.33302
#
# Static dielectric constant tensor:
#      x y z
#    x 1.615650 0.000000 0.000000 
#    y 0.000000 1.557040 0.000000 
#    z 0.000000 0.000000 1.597120 
# 
# From -- ./inp_files/22442.got.cif
#   From: 2010.05.17/outbox.cif.g08.bks.cpg/sg74_12_cif.got.tgz:22442.got - 2010.06.03 17:57:02.
