data_PCOD9537581
_publ_section_title
;
Structure prediction by ZEFSAII (Michael W. Deem and Ramdas Pophale) SiO2 
 PCOD9537581
Probable space group: I M M A
;
_chemical_formula_sum "Si O2"
_cell_formula_units_Z 96
_cell_length_a 7.735782
_cell_length_b 21.414562
_cell_length_c 24.814266
_cell_angle_alpha 90.000000
_cell_angle_beta 90.000000
_cell_angle_gamma 90.000000
_cell_volume 4110.691187
_symmetry_space_group_name_H-M "I M M A"
_symmetry_group_IT_number 74
_symmetry_cell_setting 'orthorhombic'
loop_
_space_group_symop_operation_xyz
x,y,z
-x,1/2-y,z
x,-y,-z
-x,1/2+y,-z
-x,-y,-z
x,1/2+y,-z
-x,y,z
x,1/2-y,z
1/2+x,1/2+y,1/2+z
1/2-x,-y,1/2+z
1/2+x,1/2-y,1/2-z
1/2-x,y,1/2-z
1/2-x,1/2-y,1/2-z
1/2+x,y,1/2-z
1/2-x,1/2+y,1/2+z
1/2+x,-y,1/2+z
loop_
_atom_site_type_symbol
_atom_site_label
_atom_site_fract_x
_atom_site_fract_y
_atom_site_fract_z
Si Si1 0.789360 0.317381 0.654968
Si Si2 0.791466 0.135597 0.539043
Si Si3 0.304145 0.363422 0.075760
Si Si4 0.792377 0.677785 0.691372
Si Si5 0.304993 0.498657 0.421011
Si Si6 0.293864 0.548596 0.191452
O O1 0.728709 0.250000 0.674817
O O2 0.735540 0.327855 0.592658
O O3 0.734364 0.379073 0.686769
O O4 0.000000 0.317201 0.655886
O O5 0.723904 0.158365 0.481031
O O6 0.747135 0.063016 0.550345
O O7 0.000000 0.140074 0.537233
O O8 0.500000 0.338058 0.077369
O O9 0.225939 0.350082 0.134677
O O10 0.308709 0.438162 0.068873
O O11 0.733693 0.750000 0.692481
O O12 0.750000 0.649226 0.750000
O O13 0.000000 0.676047 0.688913
O O14 0.500000 0.482470 0.436102
O O15 0.292272 0.512778 0.357518
O O16 0.500000 0.546366 0.182548
O O17 0.250000 0.523786 0.250000
#
# Coordination Sequence:
#
# PCOD9537581 Si02
#       6
#    16  16  16  16  16  16
#     4   8  15  29  50  76 104 134 169 209 254 305
#     4   9  18  33  53  76 105 139 171 211 262 309
#     4  10  20  34  54  79 105 135 173 214 257 310
#     4   9  19  36  56  78 105 136 169 208 255 306
#     4  11  22  35  52  75 105 139 174 215 260 307
#     4  10  20  35  54  76 104 138 175 216 261 307
#
# _framework density 23.353736000000001
#
# number of rings (size 3 to 8) (size 9 to 14) (size 15 to 20)
#    0.000    2.500    0.000    3.500    0.000    5.000 
#    0.000    5.000    0.000   12.000    0.000    4.667 
#    0.000    0.000    0.000    0.000    0.000    0.000 
#
# Total GULP energy -267923.131112 kJ/mol
# GULP energy per Si atom -5581.731898 kJ/mol
# Density = 2.330058 g / cm^3
# Si number density = 23.353736 Si / 1000 Ang^3
#
#
#
# Elastic Constant Matrix: (Units=GPa)
#
#
# Indices 1 2 3 4 5 6 
#
# 1 53.2221 -5.6200 0.3226 0.0000 0.0000 0.0000
# 2 -5.6200 28.0486 -10.2476 0.0000 0.0000 0.0000
# 3 0.3226 -10.2476 172.1169 0.0000 0.0000 0.0000
# 4 0.0000 0.0000 0.0000 0.5894 0.0000 0.0000
# 5 0.0000 0.0000 0.0000 0.0000 14.9163 0.0000
# 6 0.0000 0.0000 0.0000 0.0000 0.0000 -17.5827
#
#
#
# Elastic Compliance Matrix: (Units=1/GPa)
#
#
# Indices 1 2 3 4 5 6 
#
# 1 0.019202 0.003920 0.000197 0.000000 0.000000 0.000000
# 2 0.003920 0.037245 0.002210 0.000000 0.000000 0.000000
# 3 0.000197 0.002210 0.005941 0.000000 0.000000 0.000000
# 4 0.000000 0.000000 0.000000 1.696634 0.000000 0.000000
# 5 0.000000 0.000000 0.000000 0.000000 0.067041 0.000000
# 6 0.000000 0.000000 0.000000 0.000000 0.000000 -0.056874
#
#
# Mechanical properties :
#
#
# Convention : Reuss Voigt Hill
#
# Bulk Modulus (GPa) = 13.32578 24.69974 19.01276
# Shear Modulus (GPa) = 2.80655 17.51343 10.15999
#
# Velocity S-wave (km/s) = 1.09743 2.74144 2.08804
# Velocity P-wave (km/s) = 2.70634 4.54092 3.73793
#
# Compressibility (1/GPa) = 0.07504249
#
# Stress axis : x y z
#
# Youngs Moduli (GPa) = 52.07823 26.84905 168.31543
#
# Poissons Ratio (x) = -0.10523 -0.03322
# Poissons Ratio (y) = -0.20412 -0.37201
# Poissons Ratio (z) = -0.01028 -0.05934
#
# Static dielectric constant tensor:
#      x y z
#    x 1.905380 0.000000 0.000000 
#    y 0.000000 1.859560 0.000000 
#    z 0.000000 0.000000 1.917910 
# 
# From -- ./inp_files/57246.got.cif
#   From: 2010.05.17/outbox.cif.g08.bks.cpg/sg74_29_cif.got.tgz:57246.got - 2010.06.03 17:57:02.
