data_PCOD9537824
_publ_section_title
;
Structure prediction by ZEFSAII (Michael W. Deem and Ramdas Pophale) SiO2 
 PCOD9537824
Probable space group: I M M A
;
_chemical_formula_sum "Si O2"
_cell_formula_units_Z 96
_cell_length_a 24.554498
_cell_length_b 23.490889
_cell_length_c 9.398916
_cell_angle_alpha 90.000000
_cell_angle_beta 90.000000
_cell_angle_gamma 90.000000
_cell_volume 5421.360419
_symmetry_space_group_name_H-M "I M M A"
_symmetry_group_IT_number 74
_symmetry_cell_setting 'orthorhombic'
loop_
_space_group_symop_operation_xyz
x,y,z
-x,1/2-y,z
x,-y,-z
-x,1/2+y,-z
-x,-y,-z
x,1/2+y,-z
-x,y,z
x,1/2-y,z
1/2+x,1/2+y,1/2+z
1/2-x,-y,1/2+z
1/2+x,1/2-y,1/2-z
1/2-x,y,1/2-z
1/2-x,1/2-y,1/2-z
1/2+x,y,1/2-z
1/2-x,1/2+y,1/2+z
1/2+x,-y,1/2+z
loop_
_atom_site_type_symbol
_atom_site_label
_atom_site_fract_x
_atom_site_fract_y
_atom_site_fract_z
Si Si1 0.500000 0.185366 0.332311
Si Si2 0.000000 0.973742 0.160363
Si Si3 0.500000 0.580200 0.875179
Si Si4 0.621286 0.933220 0.982621
Si Si5 0.821650 0.000000 0.000000
Si Si6 0.883758 0.183334 0.017034
Si Si7 0.308473 0.102589 0.292720
Si Si8 0.385997 0.588206 0.297623
O O1 0.500000 0.250000 0.276448
O O2 0.500000 0.138831 0.210363
O O3 0.554663 0.177765 0.423816
O O4 0.947384 0.935667 0.192327
O O5 0.000000 0.027782 0.264737
O O6 0.000000 0.000000 0.000000
O O7 0.443289 0.576352 0.958512
O O8 0.635169 0.908219 0.136876
O O9 0.655651 0.913052 0.846347
O O10 0.630431 0.000000 0.000000
O O11 0.854879 0.958897 0.106805
O O12 0.795973 0.046699 0.108054
O O13 0.870541 0.250000 0.008609
O O14 0.843835 0.148099 0.119960
O O15 0.881603 0.149424 0.869923
O O16 0.250000 0.126382 0.250000
#
# Coordination Sequence:
#
# PCOD9537824 Si02
#       8
#     8   8   8  16   8  16  16  16
#     4  10  20  37  62  86 118 160 201 245 291 352
#     4  12  19  27  54  89 123 156 191 239 294 377
#     4  12  20  35  56  91 129 159 194 237 306 366
#     4  12  22  37  57  92 130 154 190 242 307 369
#     4  10  20  35  54  78 118 153 194 238 296 364
#     4  10  22  43  64  85 117 159 210 250 288 356
#     4  11  24  39  61  89 118 162 203 250 303 355
#     4  11  21  34  55  88 118 155 194 239 302 356
#
# _framework density 17.707733000000001
#
# number of rings (size 3 to 8) (size 9 to 14) (size 15 to 20)
#    0.000    1.000    5.833    2.250    1.167    0.333 
#    0.000    4.167    0.000    1.000    0.000    0.000 
#    0.000    0.000    0.000    0.000    0.000    0.000 
#
# Total GULP energy -267829.018697 kJ/mol
# GULP energy per Si atom -5579.771223 kJ/mol
# Density = 1.766743 g / cm^3
# Si number density = 17.707733 Si / 1000 Ang^3
#
#
#
# Elastic Constant Matrix: (Units=GPa)
#
#
# Indices 1 2 3 4 5 6 
#
# 1 72.8557 27.7532 29.2571 0.0000 0.0000 0.0000
# 2 27.7532 126.3057 58.7124 0.0000 0.0000 0.0000
# 3 29.2571 58.7124 131.1215 0.0000 0.0000 0.0000
# 4 0.0000 0.0000 0.0000 -2.3085 0.0000 0.0000
# 5 0.0000 0.0000 0.0000 0.0000 18.5699 0.0000
# 6 0.0000 0.0000 0.0000 0.0000 0.0000 2.5292
#
#
#
# Elastic Compliance Matrix: (Units=1/GPa)
#
#
# Indices 1 2 3 4 5 6 
#
# 1 0.015581 -0.002283 -0.002454 0.000000 0.000000 0.000000
# 2 -0.002283 0.010333 -0.004117 0.000000 0.000000 0.000000
# 3 -0.002454 -0.004117 0.010018 0.000000 0.000000 0.000000
# 4 0.000000 0.000000 0.000000 -0.433187 0.000000 0.000000
# 5 0.000000 0.000000 0.000000 0.000000 0.053850 0.000000
# 6 0.000000 0.000000 0.000000 0.000000 0.000000 0.395380
#
#
# Mechanical properties :
#
#
# Convention : Reuss Voigt Hill
#
# Bulk Modulus (GPa) = 54.87710 62.41426 58.64568
# Shear Modulus (GPa) = 65.99907 18.06214 42.03060
#
# Velocity S-wave (km/s) = 6.11165 3.19723 4.87722
# Velocity P-wave (km/s) = 8.99226 6.99665 8.05648
#
# Compressibility (1/GPa) = 0.01822254
#
# Stress axis : x y z
#
# Youngs Moduli (GPa) = 64.18085 96.77900 99.82199
#
# Poissons Ratio (x) = 0.22092 0.24501
# Poissons Ratio (y) = 0.14650 0.41101
# Poissons Ratio (z) = 0.15753 0.39848
#
# Static dielectric constant tensor:
#      x y z
#    x 1.615420 0.000000 0.000000 
#    y 0.000000 1.582170 0.000000 
#    z 0.000000 0.000000 1.668040 
# 
# From -- ./inp_files/14004.got.cif
#   From: 2010.05.17/outbox.cif.g08.bks.cpg/sg74_8_cif.got.tgz:14004.got - 2010.06.03 17:57:02.
