data_PCOD9537489
_publ_section_title
;
Structure prediction by ZEFSAII (Michael W. Deem and Ramdas Pophale) SiO2 
 PCOD9537489
Probable space group: I M M A
;
_chemical_formula_sum "Si O2"
_cell_formula_units_Z 72
_cell_length_a 8.555209
_cell_length_b 22.572228
_cell_length_c 20.047133
_cell_angle_alpha 90.000000
_cell_angle_beta 90.000000
_cell_angle_gamma 90.000000
_cell_volume 3871.304422
_symmetry_space_group_name_H-M "I M M A"
_symmetry_group_IT_number 74
_symmetry_cell_setting 'orthorhombic'
loop_
_space_group_symop_operation_xyz
x,y,z
-x,1/2-y,z
x,-y,-z
-x,1/2+y,-z
-x,-y,-z
x,1/2+y,-z
-x,y,z
x,1/2-y,z
1/2+x,1/2+y,1/2+z
1/2-x,-y,1/2+z
1/2+x,1/2-y,1/2-z
1/2-x,y,1/2-z
1/2-x,1/2-y,1/2-z
1/2+x,y,1/2-z
1/2-x,1/2+y,1/2+z
1/2+x,-y,1/2+z
loop_
_atom_site_type_symbol
_atom_site_label
_atom_site_fract_x
_atom_site_fract_y
_atom_site_fract_z
Si Si1 0.811254 0.636563 0.587836
Si Si2 0.311381 0.750000 0.825010
Si Si3 0.812062 0.973479 0.676754
Si Si4 0.312381 0.894693 0.323027
Si Si5 0.811270 0.681852 0.050589
O O1 0.760872 0.691617 0.634445
O O2 0.763162 0.575280 0.622647
O O3 0.747074 0.647081 0.514201
O O4 0.000000 0.637332 0.585037
O O5 0.500000 0.750000 0.822973
O O6 0.250000 0.750000 0.750000
O O7 0.750000 0.956031 0.750000
O O8 0.000000 0.975651 0.679129
O O9 0.748069 0.038977 0.662494
O O10 0.500000 0.895950 0.320613
O O11 0.250000 0.877676 0.250000
O O12 0.261355 0.850407 0.381415
O O13 0.756515 0.750000 0.047385
O O14 0.000000 0.682302 0.049835
#
# Coordination Sequence:
#
# PCOD9537489 Si02
#       5
#    16   8  16  16  16
#     4  10  21  36  55  80 112 147 184 226 271 324
#     4  10  20  34  52  78 109 144 185 224 265 314
#     4  10  20  35  56  83 113 146 185 227 272 324
#     4  10  21  38  59  83 110 141 181 228 278 332
#     4  10  22  39  58  81 110 144 184 229 276 328
#
# _framework density 18.598381
#
# number of rings (size 3 to 8) (size 9 to 14) (size 15 to 20)
#    0.000    2.000    1.111    3.333    0.000    5.778 
#    0.000    4.444    0.000    0.000    0.000    0.000 
#    0.000    0.000    0.000    0.000    0.000    0.000 
#
# Total GULP energy -201058.288628 kJ/mol
# GULP energy per Si atom -5584.952462 kJ/mol
# Density = 1.855605 g / cm^3
# Si number density = 18.598381 Si / 1000 Ang^3
#
#
#
# Elastic Constant Matrix: (Units=GPa)
#
#
# Indices 1 2 3 4 5 6 
#
# 1 26.6059 21.1793 26.4663 0.0000 0.0000 0.0000
# 2 21.1793 86.0091 89.2596 0.0000 0.0000 0.0000
# 3 26.4663 89.2596 162.6295 0.0000 0.0000 0.0000
# 4 0.0000 0.0000 0.0000 62.0802 0.0000 0.0000
# 5 0.0000 0.0000 0.0000 0.0000 34.9736 0.0000
# 6 0.0000 0.0000 0.0000 0.0000 0.0000 18.7782
#
#
#
# Elastic Compliance Matrix: (Units=1/GPa)
#
#
# Indices 1 2 3 4 5 6 
#
# 1 0.047387 -0.008517 -0.003037 0.000000 0.000000 0.000000
# 2 -0.008517 0.028544 -0.014280 0.000000 0.000000 0.000000
# 3 -0.003037 -0.014280 0.014481 0.000000 0.000000 0.000000
# 4 0.000000 0.000000 0.000000 0.016108 0.000000 0.000000
# 5 0.000000 0.000000 0.000000 0.000000 0.028593 0.000000
# 6 0.000000 0.000000 0.000000 0.000000 0.000000 0.053253
#
#
# Mechanical properties :
#
#
# Convention : Reuss Voigt Hill
#
# Bulk Modulus (GPa) = 25.81117 61.00611 43.40864
# Shear Modulus (GPa) = 19.76682 32.38903 26.07793
#
# Velocity S-wave (km/s) = 3.26364 4.17765 3.74861
# Velocity P-wave (km/s) = 5.30189 7.49289 6.49051
#
# Compressibility (1/GPa) = 0.03874291
#
# Stress axis : x y z
#
# Youngs Moduli (GPa) = 21.10301 35.03364 69.05559
#
# Poissons Ratio (x) = 0.29837 0.20974
# Poissons Ratio (y) = 0.17973 0.98614
# Poissons Ratio (z) = 0.06410 0.50030
#
# Static dielectric constant tensor:
#      x y z
#    x 1.638440 0.000000 0.000000 
#    y 0.000000 1.635360 0.000000 
#    z 0.000000 0.000000 1.611590 
# 
# From -- ./inp_files/39471.got.cif
#   From: 2010.05.17/outbox.cif.g08.bks.cpg/sg74_20_cif.got.tgz:39471.got - 2010.06.03 17:57:02.
