data_PCOD9537987
_publ_section_title
;
Structure prediction by ZEFSAII (Michael W. Deem and Ramdas Pophale) SiO2 
 PCOD9537987
Probable space group: I M M A
;
_chemical_formula_sum "Si O2"
_cell_formula_units_Z 96
_cell_length_a 17.871980
_cell_length_b 20.754643
_cell_length_c 14.896767
_cell_angle_alpha 90.000000
_cell_angle_beta 90.000000
_cell_angle_gamma 90.000000
_cell_volume 5525.606607
_symmetry_space_group_name_H-M "I M M A"
_symmetry_group_IT_number 74
_symmetry_cell_setting 'orthorhombic'
loop_
_space_group_symop_operation_xyz
x,y,z
-x,1/2-y,z
x,-y,-z
-x,1/2+y,-z
-x,-y,-z
x,1/2+y,-z
-x,y,z
x,1/2-y,z
1/2+x,1/2+y,1/2+z
1/2-x,-y,1/2+z
1/2+x,1/2-y,1/2-z
1/2-x,y,1/2-z
1/2-x,1/2-y,1/2-z
1/2+x,y,1/2-z
1/2-x,1/2+y,1/2+z
1/2+x,-y,1/2+z
loop_
_atom_site_type_symbol
_atom_site_label
_atom_site_fract_x
_atom_site_fract_y
_atom_site_fract_z
Si Si1 0.166731 0.929359 0.790045
Si Si2 0.410806 0.825284 0.837170
Si Si3 0.410457 0.560606 0.336973
Si Si4 0.696709 0.072292 0.497024
Si Si5 0.589620 0.677875 0.208344
Si Si6 0.323116 0.175450 0.976663
O O1 0.250000 0.937538 0.750000
O O2 0.125067 0.874201 0.733866
O O3 0.122242 0.996798 0.789677
O O4 0.173263 0.912466 0.895338
O O5 0.500000 0.834806 0.843582
O O6 0.397591 0.750000 0.812749
O O7 0.371991 0.836119 0.933752
O O8 0.500000 0.556310 0.344140
O O9 0.372305 0.567881 0.434182
O O10 0.389298 0.622681 0.277985
O O11 0.755529 0.125625 0.526747
O O12 0.731103 0.000000 0.500000
O O13 0.500000 0.675606 0.197698
O O14 0.609849 0.750000 0.240173
O O15 0.627045 0.667838 0.112020
O O16 0.297361 0.250000 0.980112
#
# Coordination Sequence:
#
# PCOD9537987 Si02
#       6
#    16  16  16  16  16  16
#     4  11  22  38  59  85 114 152 191 240 287 336
#     4  10  21  37  59  86 116 151 191 235 286 346
#     4  10  23  40  60  84 114 154 194 237 283 341
#     4  10  23  38  57  81 114 152 187 239 284 337
#     4   9  19  36  58  84 115 150 187 233 284 336
#     4  10  20  35  57  85 117 150 188 231 286 343
#
# _framework density 17.373657000000001
#
# number of rings (size 3 to 8) (size 9 to 14) (size 15 to 20)
#    0.000    2.000    1.667    1.000    4.667    7.333 
#    0.000    1.667    0.000    6.000    0.000    0.000 
#    0.000    0.000    0.000    0.000    0.000    0.000 
#
# Total GULP energy -267874.186010 kJ/mol
# GULP energy per Si atom -5580.712209 kJ/mol
# Density = 1.733411 g / cm^3
# Si number density = 17.373657 Si / 1000 Ang^3
#
#
#
# Elastic Constant Matrix: (Units=GPa)
#
#
# Indices 1 2 3 4 5 6 
#
# 1 81.6955 66.7131 45.6900 0.0000 0.0000 0.0000
# 2 66.7131 112.4961 73.0410 0.0000 0.0000 0.0000
# 3 45.6900 73.0410 105.2001 0.0000 0.0000 0.0000
# 4 0.0000 0.0000 0.0000 33.0404 0.0000 0.0000
# 5 0.0000 0.0000 0.0000 0.0000 16.7954 0.0000
# 6 0.0000 0.0000 0.0000 0.0000 0.0000 32.4219
#
#
#
# Elastic Compliance Matrix: (Units=1/GPa)
#
#
# Indices 1 2 3 4 5 6 
#
# 1 0.023790 -0.013473 -0.000978 0.000000 0.000000 0.000000
# 2 -0.013473 0.023816 -0.010684 0.000000 0.000000 0.000000
# 3 -0.000978 -0.010684 0.017348 0.000000 0.000000 0.000000
# 4 0.000000 0.000000 0.000000 0.030266 0.000000 0.000000
# 5 0.000000 0.000000 0.000000 0.000000 0.059540 0.000000
# 6 0.000000 0.000000 0.000000 0.000000 0.000000 0.030843
#
#
# Mechanical properties :
#
#
# Convention : Reuss Voigt Hill
#
# Bulk Modulus (GPa) = 68.10025 74.47555 71.28790
# Shear Modulus (GPa) = 20.76694 24.04806 22.40750
#
# Velocity S-wave (km/s) = 3.46108 3.72448 3.59519
# Velocity P-wave (km/s) = 7.43334 7.83936 7.63905
#
# Compressibility (1/GPa) = 0.01468423
#
# Stress axis : x y z
#
# Youngs Moduli (GPa) = 42.03527 41.98882 57.64243
#
# Poissons Ratio (x) = 0.56571 0.05636
# Poissons Ratio (y) = 0.56634 0.61585
# Poissons Ratio (z) = 0.04110 0.44861
#
# Static dielectric constant tensor:
#      x y z
#    x 1.565430 0.000000 0.000000 
#    y 0.000000 1.590370 0.000000 
#    z 0.000000 0.000000 1.566190 
# 
# From -- ./inp_files/32385.got.cif
#   From: 2010.05.17/outbox.cif.g08.bks.cpg/sg74_17_cif.got.tgz:32385.got - 2010.06.03 17:57:02.
