data_PCOD9537404
_publ_section_title
;
Structure prediction by ZEFSAII (Michael W. Deem and Ramdas Pophale) SiO2 
 PCOD9537404
Probable space group: I M M A
;
_chemical_formula_sum "Si O2"
_cell_formula_units_Z 104
_cell_length_a 21.123057
_cell_length_b 8.758790
_cell_length_c 32.642297
_cell_angle_alpha 90.000000
_cell_angle_beta 90.000000
_cell_angle_gamma 90.000000
_cell_volume 6039.230376
_symmetry_space_group_name_H-M "I M M A"
_symmetry_group_IT_number 74
_symmetry_cell_setting 'orthorhombic'
loop_
_space_group_symop_operation_xyz
x,y,z
-x,1/2-y,z
x,-y,-z
-x,1/2+y,-z
-x,-y,-z
x,1/2+y,-z
-x,y,z
x,1/2-y,z
1/2+x,1/2+y,1/2+z
1/2-x,-y,1/2+z
1/2+x,1/2-y,1/2-z
1/2-x,y,1/2-z
1/2-x,1/2-y,1/2-z
1/2+x,y,1/2-z
1/2-x,1/2+y,1/2+z
1/2+x,-y,1/2+z
loop_
_atom_site_type_symbol
_atom_site_label
_atom_site_fract_x
_atom_site_fract_y
_atom_site_fract_z
Si Si1 0.174632 0.933279 0.666911
Si Si2 0.072082 0.065893 0.728257
Si Si3 0.307677 0.933496 0.632650
Si Si4 0.633908 0.066181 0.919658
Si Si5 0.757027 0.933506 0.957103
Si Si6 0.070803 0.066259 0.824274
Si Si7 0.000000 0.566883 0.455211
O O1 0.172759 0.750000 0.667834
O O2 0.248857 0.979615 0.662418
O O3 0.129931 0.996717 0.702673
O O4 0.146514 0.996557 0.624680
O O5 0.074580 0.250000 0.724644
O O6 0.078549 0.025816 0.776247
O O7 0.000000 0.019798 0.715166
O O8 0.309884 0.750000 0.633224
O O9 0.292573 0.978067 0.585385
O O10 0.372976 0.998954 0.649075
O O11 0.639229 0.250000 0.918670
O O12 0.563966 0.020482 0.932910
O O13 0.686534 0.998764 0.950033
O O14 0.755557 0.750000 0.959175
O O15 0.782314 0.000000 0.000000
O O16 0.072901 0.250000 0.826556
O O17 0.000000 0.016904 0.836975
O O18 0.000000 0.500000 0.500000
O O19 0.000000 0.750000 0.457300
#
# Coordination Sequence:
#
# PCOD9537404 Si02
#       7
#    16  16  16  16  16  16   8
#     4  10  21  35  50  75 106 137 177 221 263 308
#     4   9  19  35  53  74 104 141 179 220 262 310
#     4   9  20  36  53  77 109 138 169 212 261 312
#     4  10  20  34  50  70  98 135 174 217 267 311
#     4  10  20  35  54  78 105 134 171 213 257 309
#     4   9  19  36  57  81 106 134 172 214 258 312
#     4  10  22  34  46  66  92 126 170 216 262 310
#
# _framework density 17.220738000000001
#
# number of rings (size 3 to 8) (size 9 to 14) (size 15 to 20)
#    0.000    2.462    0.000    3.692    1.077    8.000 
#    0.000    4.615    0.000    0.462    0.000    0.000 
#    0.000    0.000    0.000    0.000    0.000    0.000 
#
# Total GULP energy -289902.722587 kJ/mol
# GULP energy per Si atom -5575.052357 kJ/mol
# Density = 1.718154 g / cm^3
# Si number density = 17.220738 Si / 1000 Ang^3
#
#
#
# Elastic Constant Matrix: (Units=GPa)
#
#
# Indices 1 2 3 4 5 6 
#
# 1 163.5424 37.5244 85.2138 0.0000 0.0000 0.0000
# 2 37.5244 24.0067 27.5106 0.0000 0.0000 0.0000
# 3 85.2138 27.5106 84.5085 0.0000 0.0000 0.0000
# 4 0.0000 0.0000 0.0000 30.7972 0.0000 0.0000
# 5 0.0000 0.0000 0.0000 0.0000 11.3020 0.0000
# 6 0.0000 0.0000 0.0000 0.0000 0.0000 21.9311
#
#
#
# Elastic Compliance Matrix: (Units=1/GPa)
#
#
# Indices 1 2 3 4 5 6 
#
# 1 0.014034 -0.009123 -0.011181 0.000000 0.000000 0.000000
# 2 -0.009123 0.072371 -0.014360 0.000000 0.000000 0.000000
# 3 -0.011181 -0.014360 0.027782 0.000000 0.000000 0.000000
# 4 0.000000 0.000000 0.000000 0.032470 0.000000 0.000000
# 5 0.000000 0.000000 0.000000 0.000000 0.088480 0.000000
# 6 0.000000 0.000000 0.000000 0.000000 0.000000 0.045597
#
#
# Mechanical properties :
#
#
# Convention : Reuss Voigt Hill
#
# Bulk Modulus (GPa) = 22.29230 63.61723 42.95476
# Shear Modulus (GPa) = 13.69801 20.92665 17.31233
#
# Velocity S-wave (km/s) = 2.82341 3.48975 3.17412
# Velocity P-wave (km/s) = 4.85819 7.29796 6.19928
#
# Compressibility (1/GPa) = 0.04485855
#
# Stress axis : x y z
#
# Youngs Moduli (GPa) = 71.25717 13.81766 35.99423
#
# Poissons Ratio (x) = 0.12606 0.40245
# Poissons Ratio (y) = 0.65007 0.51689
# Poissons Ratio (z) = 0.79672 0.19843
#
# Static dielectric constant tensor:
#      x y z
#    x 1.581120 0.000000 0.000000 
#    y 0.000000 1.577240 0.000000 
#    z 0.000000 0.000000 1.582770 
# 
# From -- ./inp_files/73335.got.cif
#   From: 2010.05.17/outbox.cif.g08.bks.cpg/sg74_37_cif.got.tgz:73335.got - 2010.06.03 17:57:02.
