data_PCOD9537118
_publ_section_title
;
Structure prediction by ZEFSAII (Michael W. Deem and Ramdas Pophale) SiO2 
 PCOD9537118
Probable space group: I M M A
;
_chemical_formula_sum "Si O2"
_cell_formula_units_Z 68
_cell_length_a 21.126054
_cell_length_b 8.719372
_cell_length_c 21.152665
_cell_angle_alpha 90.000000
_cell_angle_beta 90.000000
_cell_angle_gamma 90.000000
_cell_volume 3896.446195
_symmetry_space_group_name_H-M "I M M A"
_symmetry_group_IT_number 74
_symmetry_cell_setting 'orthorhombic'
loop_
_space_group_symop_operation_xyz
x,y,z
-x,1/2-y,z
x,-y,-z
-x,1/2+y,-z
-x,-y,-z
x,1/2+y,-z
-x,y,z
x,1/2-y,z
1/2+x,1/2+y,1/2+z
1/2-x,-y,1/2+z
1/2+x,1/2-y,1/2-z
1/2-x,y,1/2-z
1/2-x,1/2-y,1/2-z
1/2+x,y,1/2-z
1/2-x,1/2+y,1/2+z
1/2+x,-y,1/2+z
loop_
_atom_site_type_symbol
_atom_site_label
_atom_site_fract_x
_atom_site_fract_y
_atom_site_fract_z
Si Si1 0.752074 0.568188 0.431454
Si Si2 0.899528 0.931531 0.401625
Si Si3 0.301629 0.433446 0.302988
Si Si4 0.000000 0.000000 0.500000
Si Si5 0.927952 0.433839 0.745586
O O1 0.735855 0.500000 0.500000
O O2 0.741509 0.750000 0.432266
O O3 0.826658 0.541635 0.417901
O O4 0.716236 0.496186 0.371866
O O5 0.914935 0.750000 0.413594
O O6 0.914002 0.961670 0.328542
O O7 0.944940 0.025534 0.446518
O O8 0.298995 0.250000 0.303815
O O9 0.250000 0.487638 0.250000
O O10 0.371438 0.487939 0.283539
O O11 0.924470 0.250000 0.755005
O O12 0.000000 0.482965 0.760354
#
# Coordination Sequence:
#
# PCOD9537118 Si02
#       5
#    16  16  16   4  16
#     4  11  22  38  59  84 116 154 198 244 296 348
#     4  10  20  32  50  77 112 155 197 234 275 337
#     4  11  23  38  58  87 120 154 200 251 297 349
#     4  12  18  32  48  78 120 160 198 228 274 332
#     4  10  20  37  60  84 113 153 201 244 292 351
#
# _framework density 17.451801
#
# number of rings (size 3 to 8) (size 9 to 14) (size 15 to 20)
#    0.000    1.412    4.706    1.765    0.000    1.412 
#    0.000    2.353    0.000    0.706    0.000    0.000 
#    0.000    0.000    0.000    0.000    0.000    0.000 
#
# Total GULP energy -189365.950846 kJ/mol
# GULP energy per Si atom -5569.586790 kJ/mol
# Density = 1.741208 g / cm^3
# Si number density = 17.451801 Si / 1000 Ang^3
#
#
#
# Elastic Constant Matrix: (Units=GPa)
#
#
# Indices 1 2 3 4 5 6 
#
# 1 118.1961 52.5558 85.1673 0.0000 0.0000 0.0000
# 2 52.5558 43.1715 56.7277 0.0000 0.0000 0.0000
# 3 85.1673 56.7277 139.9530 0.0000 0.0000 0.0000
# 4 0.0000 0.0000 0.0000 12.9438 0.0000 0.0000
# 5 0.0000 0.0000 0.0000 0.0000 36.7817 0.0000
# 6 0.0000 0.0000 0.0000 0.0000 0.0000 4.1624
#
#
#
# Elastic Compliance Matrix: (Units=1/GPa)
#
#
# Indices 1 2 3 4 5 6 
#
# 1 0.019901 -0.017787 -0.004901 0.000000 0.000000 0.000000
# 2 -0.017787 0.065457 -0.015708 0.000000 0.000000 0.000000
# 3 -0.004901 -0.015708 0.016495 0.000000 0.000000 0.000000
# 4 0.000000 0.000000 0.000000 0.077257 0.000000 0.000000
# 5 0.000000 0.000000 0.000000 0.000000 0.027187 0.000000
# 6 0.000000 0.000000 0.000000 0.000000 0.000000 0.240248
#
#
# Mechanical properties :
#
#
# Convention : Reuss Voigt Hill
#
# Bulk Modulus (GPa) = 39.90241 76.69134 58.29687
# Shear Modulus (GPa) = 9.40397 17.90222 13.65310
#
# Velocity S-wave (km/s) = 2.32384 3.20630 2.80005
# Velocity P-wave (km/s) = 5.48765 7.59916 6.62803
#
# Compressibility (1/GPa) = 0.02506115
#
# Stress axis : x y z
#
# Youngs Moduli (GPa) = 50.24926 15.27718 60.62620
#
# Poissons Ratio (x) = 0.27173 0.29712
# Poissons Ratio (y) = 0.89378 0.95231
# Poissons Ratio (z) = 0.24626 0.23997
#
# Static dielectric constant tensor:
#      x y z
#    x 1.582180 0.000000 0.000000 
#    y 0.000000 1.624700 0.000000 
#    z 0.000000 0.000000 1.575130 
# 
# From -- ./inp_files/44838.got.cif
#   From: 2010.05.17/outbox.cif.g08.bks.cpg/sg74_23_cif.got.tgz:44838.got - 2010.06.03 17:57:02.
