data_PCOD9537983
_publ_section_title
;
Structure prediction by ZEFSAII (Michael W. Deem and Ramdas Pophale) SiO2 
 PCOD9537983
Probable space group: I M M A
;
_chemical_formula_sum "Si O2"
_cell_formula_units_Z 96
_cell_length_a 26.895311
_cell_length_b 22.509641
_cell_length_c 8.785465
_cell_angle_alpha 90.000000
_cell_angle_beta 90.000000
_cell_angle_gamma 90.000000
_cell_volume 5318.753854
_symmetry_space_group_name_H-M "I M M A"
_symmetry_group_IT_number 74
_symmetry_cell_setting 'orthorhombic'
loop_
_space_group_symop_operation_xyz
x,y,z
-x,1/2-y,z
x,-y,-z
-x,1/2+y,-z
-x,-y,-z
x,1/2+y,-z
-x,y,z
x,1/2-y,z
1/2+x,1/2+y,1/2+z
1/2-x,-y,1/2+z
1/2+x,1/2-y,1/2-z
1/2-x,y,1/2-z
1/2-x,1/2-y,1/2-z
1/2+x,y,1/2-z
1/2-x,1/2+y,1/2+z
1/2+x,-y,1/2+z
loop_
_atom_site_type_symbol
_atom_site_label
_atom_site_fract_x
_atom_site_fract_y
_atom_site_fract_z
Si Si1 0.250132 0.379608 0.580237
Si Si2 0.054639 0.566973 0.066751
Si Si3 0.232142 0.750000 0.997848
Si Si4 0.831286 0.250000 0.289552
Si Si5 0.352966 0.880091 0.896569
Si Si6 0.443838 0.565920 0.069342
Si Si7 0.654370 0.065553 0.425937
O O1 0.250000 0.405876 0.750000
O O2 0.264460 0.310282 0.590119
O O3 0.197102 0.385615 0.497435
O O4 0.293915 0.406438 0.478508
O O5 0.060814 0.563444 0.248266
O O6 0.000000 0.594061 0.033600
O O7 0.052561 0.500000 0.000000
O O8 0.104009 0.595112 0.994089
O O9 0.184901 0.750000 0.886236
O O10 0.280396 0.750000 0.888078
O O11 0.856049 0.312788 0.331858
O O12 0.349493 0.926034 0.755203
O O13 0.400854 0.894893 0.996499
O O14 0.500000 0.586831 0.033399
O O15 0.439029 0.500000 0.000000
O O16 0.654808 0.000000 0.500000
#
# Coordination Sequence:
#
# PCOD9537983 Si02
#       7
#    16  16   8   8  16  16  16
#     4  11  22  35  55  83 113 147 189 238 292 350
#     4   9  18  34  54  77 108 146 187 229 273 332
#     4   9  17  36  58  78 105 145 194 236 278 345
#     4   9  18  36  61  82 107 149 197 240 290 338
#     4  11  22  38  60  83 116 151 195 242 291 348
#     4  10  20  35  57  85 114 149 190 233 285 348
#     4  11  22  34  52  81 114 151 188 234 295 351
#
# _framework density 18.049340000000001
#
# number of rings (size 3 to 8) (size 9 to 14) (size 15 to 20)
#    0.000    1.833    1.667    3.750    0.000    4.000 
#    0.000    0.417    0.000    0.000    0.000    2.917 
#    0.000    0.000    0.000    0.000    0.000    0.000 
#
# Total GULP energy -267593.879831 kJ/mol
# GULP energy per Si atom -5574.872496 kJ/mol
# Density = 1.800826 g / cm^3
# Si number density = 18.049340 Si / 1000 Ang^3
#
#
#
# Elastic Constant Matrix: (Units=GPa)
#
#
# Indices 1 2 3 4 5 6 
#
# 1 158.8745 37.4828 59.0121 0.0000 0.0000 0.0000
# 2 37.4828 57.5601 23.9239 0.0000 0.0000 0.0000
# 3 59.0121 23.9239 112.6016 0.0000 0.0000 0.0000
# 4 0.0000 0.0000 0.0000 21.0545 0.0000 0.0000
# 5 0.0000 0.0000 0.0000 0.0000 24.8900 0.0000
# 6 0.0000 0.0000 0.0000 0.0000 0.0000 -0.8282
#
#
#
# Elastic Compliance Matrix: (Units=1/GPa)
#
#
# Indices 1 2 3 4 5 6 
#
# 1 0.008614 -0.004095 -0.003644 0.000000 0.000000 0.000000
# 2 -0.004095 0.021002 -0.002316 0.000000 0.000000 0.000000
# 3 -0.003644 -0.002316 0.011283 0.000000 0.000000 0.000000
# 4 0.000000 0.000000 0.000000 0.047496 0.000000 0.000000
# 5 0.000000 0.000000 0.000000 0.000000 0.040177 0.000000
# 6 0.000000 0.000000 0.000000 0.000000 0.000000 -1.207492
#
#
# Mechanical properties :
#
#
# Convention : Reuss Voigt Hill
#
# Bulk Modulus (GPa) = 48.10366 63.31930 55.71148
# Shear Modulus (GPa) = -4.75340 22.93107 9.08884
#
# Velocity S-wave (km/s) = -1.62458 3.56823 2.24644
# Velocity P-wave (km/s) = 4.81560 7.22037 6.13693
#
# Compressibility (1/GPa) = 0.02078844
#
# Stress axis : x y z
#
# Youngs Moduli (GPa) = 116.09010 47.61382 88.62894
#
# Poissons Ratio (x) = 0.19496 0.32300
# Poissons Ratio (y) = 0.47535 0.20530
# Poissons Ratio (z) = 0.42308 0.11029
#
# Static dielectric constant tensor:
#      x y z
#    x 1.637620 0.000000 0.000000 
#    y 0.000000 1.633610 0.000000 
#    z 0.000000 0.000000 1.624190 
# 
# From -- ./inp_files/14090.got.cif
#   From: 2010.05.17/outbox.cif.g08.bks.cpg/sg74_8_cif.got.tgz:14090.got - 2010.06.03 17:57:02.
