data_PCOD9537014
_publ_section_title
;
Structure prediction by ZEFSAII (Michael W. Deem and Ramdas Pophale) SiO2 
 PCOD9537014
Probable space group: I M M A
;
_chemical_formula_sum "Si O2"
_cell_formula_units_Z 96
_cell_length_a 9.277602
_cell_length_b 22.259130
_cell_length_c 22.002457
_cell_angle_alpha 90.000000
_cell_angle_beta 90.000000
_cell_angle_gamma 90.000000
_cell_volume 4543.757077
_symmetry_space_group_name_H-M "I M M A"
_symmetry_group_IT_number 74
_symmetry_cell_setting 'orthorhombic'
loop_
_space_group_symop_operation_xyz
x,y,z
-x,1/2-y,z
x,-y,-z
-x,1/2+y,-z
-x,-y,-z
x,1/2+y,-z
-x,y,z
x,1/2-y,z
1/2+x,1/2+y,1/2+z
1/2-x,-y,1/2+z
1/2+x,1/2-y,1/2-z
1/2-x,y,1/2-z
1/2-x,1/2-y,1/2-z
1/2+x,y,1/2-z
1/2-x,1/2+y,1/2+z
1/2+x,-y,1/2+z
loop_
_atom_site_type_symbol
_atom_site_label
_atom_site_fract_x
_atom_site_fract_y
_atom_site_fract_z
Si Si1 0.164759 0.657701 0.056025
Si Si2 0.831222 0.486897 0.808193
Si Si3 0.165706 0.985794 0.062952
Si Si4 0.833830 0.823422 0.811559
Si Si5 0.831205 0.840864 0.190000
Si Si6 0.836672 0.678210 0.568312
O O1 0.155803 0.585916 0.063491
O O2 0.219527 0.678912 0.122558
O O3 0.000000 0.679392 0.046953
O O4 0.258659 0.669458 0.996512
O O5 0.750000 0.510727 0.750000
O O6 0.770532 0.506686 0.873410
O O7 0.821056 0.413893 0.807873
O O8 0.000000 0.501109 0.805341
O O9 0.000000 0.009893 0.060752
O O10 0.241850 0.000000 0.000000
O O11 0.835333 0.750000 0.812255
O O12 0.750000 0.840811 0.750000
O O13 0.755302 0.843723 0.873645
O O14 0.000000 0.843478 0.810413
O O15 0.750000 0.818834 0.250000
O O16 0.000000 0.825781 0.193649
O O17 0.846455 0.750000 0.576464
O O18 0.000000 0.653958 0.567800
#
# Coordination Sequence:
#
# PCOD9537014 Si02
#       6
#    16  16  16  16  16  16
#     4   9  17  29  46  68  91 116 149 187 225 267
#     4   8  13  22  38  60  84 109 139 176 214 252
#     4   8  14  26  45  67  89 115 148 182 217 263
#     4   9  16  27  45  68  92 117 147 185 226 266
#     4   8  14  24  39  61  86 110 140 179 220 261
#     4  10  20  32  46  66  92 121 152 186 225 269
#
# _framework density 21.127889
#
# number of rings (size 3 to 8) (size 9 to 14) (size 15 to 20)
#    0.000    3.333    0.000    3.000    0.000    3.667 
#    0.000    2.500    0.000    3.500    0.000    2.333 
#    0.000    0.000    0.000    0.000    0.000    0.000 
#
# Total GULP energy -267441.822685 kJ/mol
# GULP energy per Si atom -5571.704639 kJ/mol
# Density = 2.107980 g / cm^3
# Si number density = 21.127889 Si / 1000 Ang^3
#
#
#
# Elastic Constant Matrix: (Units=GPa)
#
#
# Indices 1 2 3 4 5 6 
#
# 1 110.1786 -2.6546 114.8380 0.0000 0.0000 0.0000
# 2 -2.6546 44.9873 7.5298 0.0000 0.0000 0.0000
# 3 114.8380 7.5298 282.8148 0.0000 0.0000 0.0000
# 4 0.0000 0.0000 0.0000 12.4195 0.0000 0.0000
# 5 0.0000 0.0000 0.0000 0.0000 36.0354 0.0000
# 6 0.0000 0.0000 0.0000 0.0000 0.0000 3.1574
#
#
#
# Elastic Compliance Matrix: (Units=1/GPa)
#
#
# Indices 1 2 3 4 5 6 
#
# 1 0.015919 0.002030 -0.006518 0.000000 0.000000 0.000000
# 2 0.002030 0.022587 -0.001426 0.000000 0.000000 0.000000
# 3 -0.006518 -0.001426 0.006220 0.000000 0.000000 0.000000
# 4 0.000000 0.000000 0.000000 0.080519 0.000000 0.000000
# 5 0.000000 0.000000 0.000000 0.000000 0.027750 0.000000
# 6 0.000000 0.000000 0.000000 0.000000 0.000000 0.316721
#
#
# Mechanical properties :
#
#
# Convention : Reuss Voigt Hill
#
# Bulk Modulus (GPa) = 30.39582 75.26746 52.83164
# Shear Modulus (GPa) = 10.15210 31.54028 20.84619
#
# Velocity S-wave (km/s) = 2.19443 3.86790 3.14453
# Velocity P-wave (km/s) = 4.56492 7.45987 6.18418
#
# Compressibility (1/GPa) = 0.03289926
#
# Stress axis : x y z
#
# Youngs Moduli (GPa) = 62.81962 44.27335 160.76017
#
# Poissons Ratio (x) = -0.08989 1.04781
# Poissons Ratio (y) = -0.12754 0.22921
# Poissons Ratio (z) = 0.40945 0.06312
#
# Static dielectric constant tensor:
#      x y z
#    x 1.736130 0.000000 0.000000 
#    y 0.000000 1.837180 0.000000 
#    z 0.000000 0.000000 1.801350 
# 
# From -- ./inp_files/49141.got.cif
#   From: 2010.05.17/outbox.cif.g08.bks.cpg/sg74_25_cif.got.tgz:49141.got - 2010.06.03 17:57:02.
