data_PCOD9537737
_publ_section_title
;
Structure prediction by ZEFSAII (Michael W. Deem and Ramdas Pophale) SiO2 
 PCOD9537737
Probable space group: I M M A
;
_chemical_formula_sum "Si O2"
_cell_formula_units_Z 88
_cell_length_a 14.935722
_cell_length_b 13.615142
_cell_length_c 18.195299
_cell_angle_alpha 90.000000
_cell_angle_beta 90.000000
_cell_angle_gamma 90.000000
_cell_volume 3700.050004
_symmetry_space_group_name_H-M "I M M A"
_symmetry_group_IT_number 74
_symmetry_cell_setting 'orthorhombic'
loop_
_space_group_symop_operation_xyz
x,y,z
-x,1/2-y,z
x,-y,-z
-x,1/2+y,-z
-x,-y,-z
x,1/2+y,-z
-x,y,z
x,1/2-y,z
1/2+x,1/2+y,1/2+z
1/2-x,-y,1/2+z
1/2+x,1/2-y,1/2-z
1/2-x,y,1/2-z
1/2-x,1/2-y,1/2-z
1/2+x,y,1/2-z
1/2-x,1/2+y,1/2+z
1/2+x,-y,1/2+z
loop_
_atom_site_type_symbol
_atom_site_label
_atom_site_fract_x
_atom_site_fract_y
_atom_site_fract_z
Si Si1 0.000000 0.591483 0.730255
Si Si2 0.399075 0.139894 0.492673
Si Si3 0.397077 0.869603 0.047220
Si Si4 0.652862 0.133181 0.117996
Si Si5 0.227130 0.138542 0.865829
Si Si6 0.845331 0.941896 0.844096
O O1 0.922489 0.585474 0.667098
O O2 0.920956 0.601501 0.793025
O O3 0.500000 0.129057 0.522101
O O4 0.393400 0.250000 0.458484
O O5 0.326863 0.140689 0.557066
O O6 0.380727 0.063816 0.428032
O O7 0.500000 0.901266 0.056050
O O8 0.397422 0.750000 0.047382
O O9 0.358667 0.898058 0.967090
O O10 0.326908 0.894658 0.111473
O O11 0.635530 0.250000 0.120403
O O12 0.750666 0.112572 0.150303
O O13 0.226282 0.250000 0.836548
O O14 0.176795 0.054220 0.820921
#
# Coordination Sequence:
#
# PCOD9537737 Si02
#       6
#     8  16  16  16  16  16
#     4  12  27  42  60  85 130 179 219 266 314 388
#     4  10  20  34  57  91 130 169 208 257 328 400
#     4   9  17  35  63  94 130 168 209 258 325 398
#     4  11  23  41  64  94 131 174 218 266 324 393
#     4  10  22  40  64  95 131 168 212 274 338 387
#     4  12  24  40  62  94 130 169 220 273 324 393
#
# _framework density 23.783463000000001
#
# number of rings (size 3 to 8) (size 9 to 14) (size 15 to 20)
#    0.000    1.455    3.636    1.909    1.273    4.364 
#    1.636    0.909    0.000    3.273    0.000    0.000 
#    0.000    0.000    0.000    0.000    0.000    0.000 
#
# Total GULP energy -245206.460577 kJ/mol
# GULP energy per Si atom -5572.874104 kJ/mol
# Density = 2.372933 g / cm^3
# Si number density = 23.783463 Si / 1000 Ang^3
#
#
#
# Elastic Constant Matrix: (Units=GPa)
#
#
# Indices 1 2 3 4 5 6 
#
# 1 197.4251 9.1579 28.0057 0.0000 0.0000 0.0000
# 2 9.1579 70.8947 3.5903 0.0000 0.0000 0.0000
# 3 28.0057 3.5903 52.4680 0.0000 0.0000 0.0000
# 4 0.0000 0.0000 0.0000 -22.3082 0.0000 0.0000
# 5 0.0000 0.0000 0.0000 0.0000 41.0028 0.0000
# 6 0.0000 0.0000 0.0000 0.0000 0.0000 9.2204
#
#
#
# Elastic Compliance Matrix: (Units=1/GPa)
#
#
# Indices 1 2 3 4 5 6 
#
# 1 0.005503 -0.000564 -0.002898 0.000000 0.000000 0.000000
# 2 -0.000564 0.014212 -0.000671 0.000000 0.000000 0.000000
# 3 -0.002898 -0.000671 0.020652 0.000000 0.000000 0.000000
# 4 0.000000 0.000000 0.000000 -0.044827 0.000000 0.000000
# 5 0.000000 0.000000 0.000000 0.000000 0.024389 0.000000
# 6 0.000000 0.000000 0.000000 0.000000 0.000000 0.108456
#
#
# Mechanical properties :
#
#
# Convention : Reuss Voigt Hill
#
# Bulk Modulus (GPa) = 31.15345 44.69952 37.92649
# Shear Modulus (GPa) = 33.93224 24.25193 29.09209
#
# Velocity S-wave (km/s) = 3.78129 3.19673 3.50123
# Velocity P-wave (km/s) = 5.67375 5.69742 5.68560
#
# Compressibility (1/GPa) = 0.03209917
#
# Stress axis : x y z
#
# Youngs Moduli (GPa) = 181.73441 70.36162 48.42081
#
# Poissons Ratio (x) = 0.03968 0.14035
# Poissons Ratio (y) = 0.10250 0.03251
# Poissons Ratio (z) = 0.52675 0.04725
#
# Static dielectric constant tensor:
#      x y z
#    x 1.833000 0.000000 0.000000 
#    y 0.000000 2.019760 0.000000 
#    z 0.000000 0.000000 1.871750 
# 
# From -- ./inp_files/51747.got.cif
#   From: 2010.05.17/outbox.cif.g08.bks.cpg/sg74_26_cif.got.tgz:51747.got - 2010.06.03 17:57:02.
