data_PCOD9537410
_publ_section_title
;
Structure prediction by ZEFSAII (Michael W. Deem and Ramdas Pophale) SiO2 
 PCOD9537410
Probable space group: I M M A
;
_chemical_formula_sum "Si O2"
_cell_formula_units_Z 80
_cell_length_a 7.505204
_cell_length_b 18.792850
_cell_length_c 27.386959
_cell_angle_alpha 90.000000
_cell_angle_beta 90.000000
_cell_angle_gamma 90.000000
_cell_volume 3862.770983
_symmetry_space_group_name_H-M "I M M A"
_symmetry_group_IT_number 74
_symmetry_cell_setting 'orthorhombic'
loop_
_space_group_symop_operation_xyz
x,y,z
-x,1/2-y,z
x,-y,-z
-x,1/2+y,-z
-x,-y,-z
x,1/2+y,-z
-x,y,z
x,1/2-y,z
1/2+x,1/2+y,1/2+z
1/2-x,-y,1/2+z
1/2+x,1/2-y,1/2-z
1/2-x,y,1/2-z
1/2-x,1/2-y,1/2-z
1/2+x,y,1/2-z
1/2-x,1/2+y,1/2+z
1/2+x,-y,1/2+z
loop_
_atom_site_type_symbol
_atom_site_label
_atom_site_fract_x
_atom_site_fract_y
_atom_site_fract_z
Si Si1 0.717818 0.328185 0.539394
Si Si2 0.716395 0.125663 0.431631
Si Si3 0.293145 0.968631 0.408063
Si Si4 0.288430 0.017768 0.196630
Si Si5 0.707591 0.173528 0.175272
O O1 0.500000 0.327845 0.541156
O O2 0.777165 0.250000 0.555763
O O3 0.767751 0.340643 0.482946
O O4 0.782030 0.395699 0.570560
O O5 0.500000 0.126131 0.428973
O O6 0.781751 0.165585 0.383411
O O7 0.780280 0.043622 0.428003
O O8 0.500000 0.969353 0.423027
O O9 0.283113 0.974783 0.349580
O O10 0.500000 0.021875 0.189549
O O11 0.250000 0.987894 0.250000
O O12 0.214288 0.099010 0.194351
O O13 0.500000 0.174557 0.189554
O O14 0.786685 0.250000 0.189634
#
# Coordination Sequence:
#
# PCOD9537410 Si02
#       5
#    16  16  16  16  16
#     4   9  16  26  44  71  99 125 155 191 227 264
#     4   9  16  27  45  69  96 127 161 190 217 258
#     4   9  17  30  48  69  94 124 156 190 228 270
#     4  10  20  34  51  69  89 116 152 193 235 278
#     4   9  18  31  45  65  96 128 154 184 224 268
#
# _framework density 20.710522000000001
#
# number of rings (size 3 to 8) (size 9 to 14) (size 15 to 20)
#    0.000    2.800    0.000    1.800    0.000    4.800 
#    0.000    1.000    0.000    7.200    0.000    0.000 
#    0.000    0.000    0.000    0.000    0.000    0.000 
#
# Total GULP energy -223227.799001 kJ/mol
# GULP energy per Si atom -5580.694975 kJ/mol
# Density = 2.066338 g / cm^3
# Si number density = 20.710522 Si / 1000 Ang^3
#
#
#
# Elastic Constant Matrix: (Units=GPa)
#
#
# Indices 1 2 3 4 5 6 
#
# 1 58.5474 0.5156 -15.7735 0.0000 0.0000 0.0000
# 2 0.5156 107.3291 37.0027 0.0000 0.0000 0.0000
# 3 -15.7735 37.0027 67.4126 0.0000 0.0000 0.0000
# 4 0.0000 0.0000 0.0000 -5.4967 0.0000 0.0000
# 5 0.0000 0.0000 0.0000 0.0000 15.4353 0.0000
# 6 0.0000 0.0000 0.0000 0.0000 0.0000 4.8188
#
#
#
# Elastic Compliance Matrix: (Units=1/GPa)
#
#
# Indices 1 2 3 4 5 6 
#
# 1 0.018556 -0.001956 0.005416 0.000000 0.000000 0.000000
# 2 -0.001956 0.011698 -0.006879 0.000000 0.000000 0.000000
# 3 0.005416 -0.006879 0.019877 0.000000 0.000000 0.000000
# 4 0.000000 0.000000 0.000000 -0.181929 0.000000 0.000000
# 5 0.000000 0.000000 0.000000 0.000000 0.064787 0.000000
# 6 0.000000 0.000000 0.000000 0.000000 0.000000 0.207519
#
#
# Mechanical properties :
#
#
# Convention : Reuss Voigt Hill
#
# Bulk Modulus (GPa) = 23.09848 30.75319 26.92584
# Shear Modulus (GPa) = 30.90660 17.05445 23.98053
#
# Velocity S-wave (km/s) = 3.86724 2.87273 3.40647
# Velocity P-wave (km/s) = 5.57835 5.08770 5.33866
#
# Compressibility (1/GPa) = 0.04329288
#
# Stress axis : x y z
#
# Youngs Moduli (GPa) = 53.88947 85.48432 50.30950
#
# Poissons Ratio (x) = 0.16723 -0.27246
# Poissons Ratio (y) = 0.10542 0.34607
# Poissons Ratio (z) = -0.29185 0.58803
#
# Static dielectric constant tensor:
#      x y z
#    x 1.794140 0.000000 0.000000 
#    y 0.000000 1.764320 0.000000 
#    z 0.000000 0.000000 1.713970 
# 
# From -- ./inp_files/63891.got.cif
#   From: 2010.05.17/outbox.cif.g08.bks.cpg/sg74_32_cif.got.tgz:63891.got - 2010.06.03 17:57:02.
