data_PCOD9537744
_publ_section_title
;
Structure prediction by ZEFSAII (Michael W. Deem and Ramdas Pophale) SiO2 
 PCOD9537744
Probable space group: I M M A
;
_chemical_formula_sum "Si O2"
_cell_formula_units_Z 96
_cell_length_a 14.210202
_cell_length_b 22.457278
_cell_length_c 15.410114
_cell_angle_alpha 90.000000
_cell_angle_beta 90.000000
_cell_angle_gamma 90.000000
_cell_volume 4917.713438
_symmetry_space_group_name_H-M "I M M A"
_symmetry_group_IT_number 74
_symmetry_cell_setting 'orthorhombic'
loop_
_space_group_symop_operation_xyz
x,y,z
-x,1/2-y,z
x,-y,-z
-x,1/2+y,-z
-x,-y,-z
x,1/2+y,-z
-x,y,z
x,1/2-y,z
1/2+x,1/2+y,1/2+z
1/2-x,-y,1/2+z
1/2+x,1/2-y,1/2-z
1/2-x,y,1/2-z
1/2-x,1/2-y,1/2-z
1/2+x,y,1/2-z
1/2-x,1/2+y,1/2+z
1/2+x,-y,1/2+z
loop_
_atom_site_type_symbol
_atom_site_label
_atom_site_fract_x
_atom_site_fract_y
_atom_site_fract_z
Si Si1 0.886306 0.250000 0.819323
Si Si2 0.612431 0.882348 0.262006
Si Si3 0.885411 0.750000 0.984352
Si Si4 0.389251 0.352551 0.353054
Si Si5 0.612362 0.183995 0.157122
Si Si6 0.769523 0.425884 0.412232
Si Si7 0.770262 0.061270 0.617894
O O1 0.862301 0.187392 0.775191
O O2 0.000000 0.250000 0.824326
O O3 0.849235 0.250000 0.918053
O O4 0.500000 0.889654 0.273539
O O5 0.674631 0.920277 0.331013
O O6 0.648092 0.903066 0.167840
O O7 0.859388 0.807801 0.929386
O O8 0.000000 0.750000 0.986922
O O9 0.500000 0.363356 0.359396
O O10 0.370889 0.322602 0.260367
O O11 0.329106 0.411057 0.366273
O O12 0.500000 0.181139 0.143691
O O13 0.644753 0.250000 0.128912
O O14 0.661475 0.127568 0.114152
O O15 0.796059 0.491339 0.379185
O O16 0.759987 0.425479 0.516135
#
# Coordination Sequence:
#
# PCOD9537744 Si02
#       7
#     8  16   8  16  16  16  16
#     4   9  18  35  63  91 118 155 197 247 315 362
#     4  10  22  43  67  91 121 158 204 260 308 366
#     4   9  16  30  54  89 126 152 187 239 298 368
#     4  10  20  34  58  91 124 162 202 245 304 364
#     4  10  22  40  61  91 125 163 209 253 300 362
#     4  11  24  41  60  88 129 164 204 255 307 366
#     4  10  25  43  60  92 124 161 210 251 307 373
#
# _framework density 19.521267999999999
#
# number of rings (size 3 to 8) (size 9 to 14) (size 15 to 20)
#    0.000    2.000    0.833    1.500    5.833    6.000 
#    3.000    3.333    0.000    0.000    0.000    0.000 
#    0.000    0.000    0.000    0.000    0.000    0.000 
#
# Total GULP energy -267932.749052 kJ/mol
# GULP energy per Si atom -5581.932272 kJ/mol
# Density = 1.947684 g / cm^3
# Si number density = 19.521268 Si / 1000 Ang^3
#
#
#
# Elastic Constant Matrix: (Units=GPa)
#
#
# Indices 1 2 3 4 5 6 
#
# 1 85.4498 46.7933 32.1109 0.0000 0.0000 0.0000
# 2 46.7933 126.3247 27.7758 -0.0002 0.0000 0.0001
# 3 32.1109 27.7758 24.4823 -0.0002 0.0000 0.0001
# 4 0.0000 -0.0002 -0.0002 31.3376 0.0000 0.0001
# 5 0.0000 0.0000 0.0000 0.0000 22.6105 0.0000
# 6 0.0000 0.0001 0.0001 0.0001 0.0000 18.6413
#
#
#
# Elastic Compliance Matrix: (Units=1/GPa)
#
#
# Indices 1 2 3 4 5 6 
#
# 1 0.023696 -0.002590 -0.028142 0.000000 0.000000 0.000000
# 2 -0.002590 0.010830 -0.008890 0.000000 0.000000 0.000000
# 3 -0.028142 -0.008890 0.087842 0.000000 0.000000 -0.000001
# 4 0.000000 0.000000 0.000000 0.031911 0.000000 0.000000
# 5 0.000000 0.000000 0.000000 0.000000 0.044227 0.000000
# 6 0.000000 0.000000 -0.000001 0.000000 0.000000 0.053644
#
#
# Mechanical properties :
#
#
# Convention : Reuss Voigt Hill
#
# Bulk Modulus (GPa) = 23.18820 49.95742 36.57281
# Shear Modulus (GPa) = 14.46049 23.15633 18.80841
#
# Velocity S-wave (km/s) = 2.72463 3.44788 3.10737
# Velocity P-wave (km/s) = 4.66930 6.44184 5.62582
#
# Compressibility (1/GPa) = 0.04312539
#
# Stress axis : x y z
#
# Youngs Moduli (GPa) = 42.20062 92.33425 11.38402
#
# Poissons Ratio (x) = 0.23914 0.32037
# Poissons Ratio (y) = 0.10930 0.10121
# Poissons Ratio (z) = 1.18760 0.82087
#
# Static dielectric constant tensor:
#      x y z
#    x 1.696220 0.000000 0.000000 
#    y 0.000000 1.705410 0.000000 
#    z 0.000000 0.000000 1.666160 
# 
# From -- ./inp_files/32471.got.cif
#   From: 2010.05.17/outbox.cif.g08.bks.cpg/sg74_17_cif.got.tgz:32471.got - 2010.06.03 17:57:02.
