data_PCOD9537967
_publ_section_title
;
Structure prediction by ZEFSAII (Michael W. Deem and Ramdas Pophale) SiO2 
 PCOD9537967
Probable space group: I M M A
;
_chemical_formula_sum "Si O2"
_cell_formula_units_Z 88
_cell_length_a 14.157172
_cell_length_b 17.663457
_cell_length_c 17.826017
_cell_angle_alpha 90.000000
_cell_angle_beta 90.000000
_cell_angle_gamma 90.000000
_cell_volume 4457.655790
_symmetry_space_group_name_H-M "I M M A"
_symmetry_group_IT_number 74
_symmetry_cell_setting 'orthorhombic'
loop_
_space_group_symop_operation_xyz
x,y,z
-x,1/2-y,z
x,-y,-z
-x,1/2+y,-z
-x,-y,-z
x,1/2+y,-z
-x,y,z
x,1/2-y,z
1/2+x,1/2+y,1/2+z
1/2-x,-y,1/2+z
1/2+x,1/2-y,1/2-z
1/2-x,y,1/2-z
1/2-x,1/2-y,1/2-z
1/2+x,y,1/2-z
1/2-x,1/2+y,1/2+z
1/2+x,-y,1/2+z
loop_
_atom_site_type_symbol
_atom_site_label
_atom_site_fract_x
_atom_site_fract_y
_atom_site_fract_z
Si Si1 0.392903 0.341338 0.143626
Si Si2 0.750000 0.928925 0.750000
Si Si3 0.109125 0.448237 0.804330
Si Si4 0.200240 0.840815 0.490492
Si Si5 0.612922 0.838159 0.165804
Si Si6 0.104815 0.912275 0.024000
O O1 0.500000 0.363939 0.162128
O O2 0.386784 0.250000 0.148304
O O3 0.317162 0.379043 0.197808
O O4 0.367962 0.363887 0.058223
O O5 0.818418 0.982980 0.798470
O O6 0.132100 0.389137 0.738197
O O7 0.112627 0.409993 0.885749
O O8 0.000000 0.473491 0.793744
O O9 0.198537 0.750000 0.487022
O O10 0.164937 0.867356 0.408859
O O11 0.305775 0.868318 0.507462
O O12 0.500000 0.840151 0.152009
O O13 0.638576 0.750000 0.179146
O O14 0.000000 0.884335 0.002058
O O15 0.110403 0.000000 0.000000
#
# Coordination Sequence:
#
# PCOD9537967 Si02
#       6
#    16   8  16  16  16  16
#     4  10  22  40  61  85 111 141 180 227 281 339
#     4  12  21  36  59  82 112 144 182 228 277 332
#     4  10  21  35  54  82 114 150 192 235 277 325
#     4  10  20  35  57  83 111 144 183 229 281 336
#     4   9  18  34  56  83 116 152 188 229 280 335
#     4  10  21  37  54  74 107 150 191 231 277 329
#
# _framework density 19.741318
#
# number of rings (size 3 to 8) (size 9 to 14) (size 15 to 20)
#    0.000    2.000    0.000    3.545    0.000    3.273 
#    0.000    5.000    0.000    7.636    0.000    0.000 
#    0.000    0.000    0.000    0.000    0.000    0.000 
#
# Total GULP energy -245778.273755 kJ/mol
# GULP energy per Si atom -5585.869858 kJ/mol
# Density = 1.969639 g / cm^3
# Si number density = 19.741318 Si / 1000 Ang^3
#
#
#
# Elastic Constant Matrix: (Units=GPa)
#
#
# Indices 1 2 3 4 5 6 
#
# 1 127.9209 35.2235 39.1418 0.0000 0.0000 0.0000
# 2 35.2235 22.4729 25.2616 0.0000 0.0000 0.0000
# 3 39.1418 25.2616 65.4534 0.0000 0.0000 0.0000
# 4 0.0000 0.0000 0.0000 17.0374 0.0000 0.0000
# 5 0.0000 0.0000 0.0000 0.0000 36.0129 0.0000
# 6 0.0000 0.0000 0.0000 0.0000 0.0000 40.8862
#
#
#
# Elastic Compliance Matrix: (Units=1/GPa)
#
#
# Indices 1 2 3 4 5 6 
#
# 1 0.013754 -0.021746 0.000168 0.000000 0.000000 0.000000
# 2 -0.021746 0.112979 -0.030600 0.000000 0.000000 0.000000
# 3 0.000168 -0.030600 0.026987 0.000000 0.000000 0.000000
# 4 0.000000 0.000000 0.000000 0.058694 0.000000 0.000000
# 5 0.000000 0.000000 0.000000 0.000000 0.027768 0.000000
# 6 0.000000 0.000000 0.000000 0.000000 0.000000 0.024458
#
#
# Mechanical properties :
#
#
# Convention : Reuss Voigt Hill
#
# Bulk Modulus (GPa) = 20.25732 46.12233 33.18982
# Shear Modulus (GPa) = 12.97178 26.53530 19.75354
#
# Velocity S-wave (km/s) = 2.56615 3.67024 3.16669
# Velocity P-wave (km/s) = 4.36622 6.43234 5.49722
#
# Compressibility (1/GPa) = 0.04936488
#
# Stress axis : x y z
#
# Youngs Moduli (GPa) = 72.70672 8.85116 37.05432
#
# Poissons Ratio (x) = 0.19248 -0.00622
# Poissons Ratio (y) = 1.58111 1.13385
# Poissons Ratio (z) = -0.01221 0.27084
#
# Static dielectric constant tensor:
#      x y z
#    x 1.704490 0.000000 0.000000 
#    y 0.000000 1.666770 0.000000 
#    z 0.000000 0.000000 1.707690 
# 
# From -- ./inp_files/42815.got.cif
#   From: 2010.05.17/outbox.cif.g08.bks.cpg/sg74_22_cif.got.tgz:42815.got - 2010.06.03 17:57:02.
