data_PCOD9537804
_publ_section_title
;
Structure prediction by ZEFSAII (Michael W. Deem and Ramdas Pophale) SiO2 
 PCOD9537804
Probable space group: I M M A
;
_chemical_formula_sum "Si O2"
_cell_formula_units_Z 96
_cell_length_a 18.655381
_cell_length_b 9.008584
_cell_length_c 32.348024
_cell_angle_alpha 90.000000
_cell_angle_beta 90.000000
_cell_angle_gamma 90.000000
_cell_volume 5436.362552
_symmetry_space_group_name_H-M "I M M A"
_symmetry_group_IT_number 74
_symmetry_cell_setting 'orthorhombic'
loop_
_space_group_symop_operation_xyz
x,y,z
-x,1/2-y,z
x,-y,-z
-x,1/2+y,-z
-x,-y,-z
x,1/2+y,-z
-x,y,z
x,1/2-y,z
1/2+x,1/2+y,1/2+z
1/2-x,-y,1/2+z
1/2+x,1/2-y,1/2-z
1/2-x,y,1/2-z
1/2-x,1/2-y,1/2-z
1/2+x,y,1/2-z
1/2-x,1/2+y,1/2+z
1/2+x,-y,1/2+z
loop_
_atom_site_type_symbol
_atom_site_label
_atom_site_fract_x
_atom_site_fract_y
_atom_site_fract_z
Si Si1 0.412722 0.921524 0.293016
Si Si2 0.175788 0.429263 0.042266
Si Si3 0.087093 0.577046 0.709615
Si Si4 0.166821 0.072314 0.542354
Si Si5 0.913805 0.425505 0.382599
Si Si6 0.917037 0.072126 0.122559
O O1 0.500000 0.933662 0.292476
O O2 0.393759 0.750000 0.295390
O O3 0.386894 0.989886 0.249752
O O4 0.389029 0.004005 0.334611
O O5 0.181080 0.250000 0.038514
O O6 0.254180 0.501285 0.047291
O O7 0.128567 0.466351 0.082249
O O8 0.145517 0.500000 0.000000
O O9 0.105633 0.750000 0.714083
O O10 0.109858 0.527723 0.663737
O O11 0.000000 0.568481 0.709447
O O12 0.170702 0.250000 0.538580
O O13 0.137054 0.000000 0.500000
O O14 0.121116 0.021570 0.581604
O O15 0.895925 0.250000 0.387700
O O16 0.000000 0.436928 0.384466
O O17 0.916172 0.250000 0.126704
O O18 0.000000 0.025358 0.117006
#
# Coordination Sequence:
#
# PCOD9537804 Si02
#       6
#    16  16  16  16  16  16
#     4   9  16  25  41  68 100 131 162 198 238 281
#     4  10  20  35  54  73  96 128 165 203 244 294
#     4   8  14  26  45  68  96 130 162 193 234 286
#     4  11  22  36  54  73  97 130 166 203 244 293
#     4   9  18  33  53  77 103 130 163 203 245 289
#     4   9  18  32  50  73 100 130 164 201 243 291
#
# _framework density 17.658866
#
# number of rings (size 3 to 8) (size 9 to 14) (size 15 to 20)
#    0.000    2.667    0.000    4.500    0.000    5.000 
#    0.000    1.667    0.000    1.000    0.000    7.000 
#    0.000    0.000    0.000    0.000    0.000    0.000 
#
# Total GULP energy -267528.335350 kJ/mol
# GULP energy per Si atom -5573.506986 kJ/mol
# Density = 1.761867 g / cm^3
# Si number density = 17.658866 Si / 1000 Ang^3
#
#
#
# Elastic Constant Matrix: (Units=GPa)
#
#
# Indices 1 2 3 4 5 6 
#
# 1 14.8820 23.5084 40.9811 0.0000 0.0000 0.0000
# 2 23.5084 78.3978 81.7094 0.0000 0.0000 0.0000
# 3 40.9811 81.7094 196.3886 0.0000 0.0000 0.0000
# 4 0.0000 0.0000 0.0000 36.6702 0.0000 0.0000
# 5 0.0000 0.0000 0.0000 0.0000 -28.8775 0.0000
# 6 0.0000 0.0000 0.0000 0.0000 0.0000 18.0458
#
#
#
# Elastic Compliance Matrix: (Units=1/GPa)
#
#
# Indices 1 2 3 4 5 6 
#
# 1 0.185491 -0.026978 -0.027483 0.000000 0.000000 0.000000
# 2 -0.026978 0.026445 -0.005373 0.000000 0.000000 0.000000
# 3 -0.027483 -0.005373 0.013062 0.000000 0.000000 0.000000
# 4 0.000000 0.000000 0.000000 0.027270 0.000000 0.000000
# 5 0.000000 0.000000 0.000000 0.000000 -0.034629 0.000000
# 6 0.000000 0.000000 0.000000 0.000000 0.000000 0.055415
#
#
# Mechanical properties :
#
#
# Convention : Reuss Voigt Hill
#
# Bulk Modulus (GPa) = 9.49384 64.67403 37.08393
# Shear Modulus (GPa) = 11.68681 14.73233 13.20957
#
# Velocity S-wave (km/s) = 2.57536 2.89151 2.73800
# Velocity P-wave (km/s) = 3.77243 6.91747 5.57147
#
# Compressibility (1/GPa) = 0.10533148
#
# Stress axis : x y z
#
# Youngs Moduli (GPa) = 5.39109 37.81397 76.55509
#
# Poissons Ratio (x) = 1.02014 2.10395
# Poissons Ratio (y) = 0.14544 0.41135
# Poissons Ratio (z) = 0.14816 0.20318
#
# Static dielectric constant tensor:
#      x y z
#    x 1.594470 0.000000 0.000000 
#    y 0.000000 1.590180 0.000000 
#    z 0.000000 0.000000 1.616920 
# 
# From -- ./inp_files/68581.got.cif
#   From: 2010.05.17/outbox.cif.g08.bks.cpg/sg74_35_cif.got.tgz:68581.got - 2010.06.03 17:57:02.
