data_PCOD9537064
_publ_section_title
;
Structure prediction by ZEFSAII (Michael W. Deem and Ramdas Pophale) SiO2 
 PCOD9537064
Probable space group: I M M A
;
_chemical_formula_sum "Si O2"
_cell_formula_units_Z 116
_cell_length_a 16.280350
_cell_length_b 24.079562
_cell_length_c 17.531139
_cell_angle_alpha 90.000000
_cell_angle_beta 90.000000
_cell_angle_gamma 90.000000
_cell_volume 6872.621927
_symmetry_space_group_name_H-M "I M M A"
_symmetry_group_IT_number 74
_symmetry_cell_setting 'orthorhombic'
loop_
_space_group_symop_operation_xyz
x,y,z
-x,1/2-y,z
x,-y,-z
-x,1/2+y,-z
-x,-y,-z
x,1/2+y,-z
-x,y,z
x,1/2-y,z
1/2+x,1/2+y,1/2+z
1/2-x,-y,1/2+z
1/2+x,1/2-y,1/2-z
1/2-x,y,1/2-z
1/2-x,1/2-y,1/2-z
1/2+x,y,1/2-z
1/2-x,1/2+y,1/2+z
1/2+x,-y,1/2+z
loop_
_atom_site_type_symbol
_atom_site_label
_atom_site_fract_x
_atom_site_fract_y
_atom_site_fract_z
Si Si1 0.404568 0.346703 0.740011
Si Si2 0.826734 0.495426 0.108854
Si Si3 0.000000 0.750000 0.465734
Si Si4 0.865491 0.336810 0.585861
Si Si5 0.359747 0.531184 0.076821
Si Si6 0.407751 0.520280 0.245101
Si Si7 0.904861 0.084000 0.996287
Si Si8 0.325935 0.687049 0.415885
O O1 0.500000 0.333904 0.722806
O O2 0.383910 0.325342 0.824368
O O3 0.395589 0.413400 0.744662
O O4 0.347955 0.324154 0.672833
O O5 0.737393 0.519138 0.088852
O O6 0.843569 0.491840 0.198340
O O7 0.889766 0.540408 0.072782
O O8 0.847666 0.439184 0.064064
O O9 0.927990 0.701300 0.460165
O O10 0.876401 0.402887 0.572129
O O11 0.770556 0.322937 0.571783
O O12 0.398663 0.509338 0.155446
O O13 0.386118 0.500000 0.000000
O O14 0.500000 0.505877 0.269461
O O15 0.876565 0.143064 0.965265
O O16 0.000000 0.083384 0.018112
O O17 0.347520 0.750000 0.434526
#
# Coordination Sequence:
#
# PCOD9537064 Si02
#       8
#    16  16   4  16  16  16  16  16
#     4  10  20  32  48  71 105 143 182 226 267 319
#     4  11  18  35  58  78 106 145 186 226 270 340
#     4  12  24  40  56  68  98 148 208 220 266 322
#     4  11  22  38  52  72 101 144 188 231 268 329
#     4  11  21  37  58  83 115 143 180 233 298 335
#     4  10  20  33  52  80 110 147 186 227 275 335
#     4  11  21  34  53  80 109 145 181 227 277 328
#     4  12  23  33  50  74 108 143 186 232 277 321
#
# _framework density 16.878564999999998
#
# number of rings (size 3 to 8) (size 9 to 14) (size 15 to 20)
#    0.000    1.103    5.517    2.897    1.931    4.138 
#    0.000    0.000    0.000    0.000    0.000    0.000 
#    2.069    2.207    0.000    0.000    0.000    0.000 
#
# Total GULP energy -323386.382264 kJ/mol
# GULP energy per Si atom -5575.627280 kJ/mol
# Density = 1.684015 g / cm^3
# Si number density = 16.878565 Si / 1000 Ang^3
#
#
#
# Elastic Constant Matrix: (Units=GPa)
#
#
# Indices 1 2 3 4 5 6 
#
# 1 64.3404 11.1215 0.9932 0.0000 0.0000 0.0000
# 2 11.1215 84.1381 31.9781 0.0000 0.0000 0.0000
# 3 0.9932 31.9781 66.2802 -0.0001 0.0000 0.0000
# 4 0.0000 0.0000 -0.0001 3.8218 0.0000 0.0000
# 5 0.0000 0.0000 0.0000 0.0000 18.0883 0.0000
# 6 0.0000 0.0000 0.0000 0.0000 0.0000 17.1877
#
#
#
# Elastic Compliance Matrix: (Units=1/GPa)
#
#
# Indices 1 2 3 4 5 6 
#
# 1 0.015955 -0.002471 0.000953 0.000000 0.000000 0.000000
# 2 -0.002471 0.014937 -0.007169 0.000000 0.000000 0.000000
# 3 0.000953 -0.007169 0.018532 0.000001 0.000000 0.000000
# 4 0.000000 0.000000 0.000001 0.261656 0.000000 0.000000
# 5 0.000000 0.000000 0.000000 0.000000 0.055284 0.000000
# 6 0.000000 0.000000 0.000000 0.000000 0.000000 0.058181
#
#
# Mechanical properties :
#
#
# Convention : Reuss Voigt Hill
#
# Bulk Modulus (GPa) = 31.20245 33.66049 32.43147
# Shear Modulus (GPa) = 11.04721 19.19731 15.12226
#
# Velocity S-wave (km/s) = 2.56112 3.37616 2.99648
# Velocity P-wave (km/s) = 5.22229 5.93161 5.58822
#
# Compressibility (1/GPa) = 0.03204877
#
# Stress axis : x y z
#
# Youngs Moduli (GPa) = 62.67720 66.94901 53.96009
#
# Poissons Ratio (x) = 0.16544 -0.05143
# Poissons Ratio (y) = 0.15489 0.38687
# Poissons Ratio (z) = -0.05974 0.47999
#
# Static dielectric constant tensor:
#      x y z
#    x 1.594450 0.000000 0.000000 
#    y 0.000000 1.566000 0.000000 
#    z 0.000000 0.000000 1.587410 
# 
# From -- ./inp_files/43222.got.cif
#   From: 2010.05.17/outbox.cif.g08.bks.cpg/sg74_22_cif.got.tgz:43222.got - 2010.06.03 17:57:02.
