data_PCOD9537774
_publ_section_title
;
Structure prediction by ZEFSAII (Michael W. Deem and Ramdas Pophale) SiO2 
 PCOD9537774
Probable space group: I M M A
;
_chemical_formula_sum "Si O2"
_cell_formula_units_Z 64
_cell_length_a 27.407009
_cell_length_b 8.593238
_cell_length_c 11.637142
_cell_angle_alpha 90.000000
_cell_angle_beta 90.000000
_cell_angle_gamma 90.000000
_cell_volume 2740.720930
_symmetry_space_group_name_H-M "I M M A"
_symmetry_group_IT_number 74
_symmetry_cell_setting 'orthorhombic'
loop_
_space_group_symop_operation_xyz
x,y,z
-x,1/2-y,z
x,-y,-z
-x,1/2+y,-z
-x,-y,-z
x,1/2+y,-z
-x,y,z
x,1/2-y,z
1/2+x,1/2+y,1/2+z
1/2-x,-y,1/2+z
1/2+x,1/2-y,1/2-z
1/2-x,y,1/2-z
1/2-x,1/2-y,1/2-z
1/2+x,y,1/2-z
1/2-x,1/2+y,1/2+z
1/2+x,-y,1/2+z
loop_
_atom_site_type_symbol
_atom_site_label
_atom_site_fract_x
_atom_site_fract_y
_atom_site_fract_z
Si Si1 0.305817 0.576056 0.851105
Si Si2 0.207315 0.071173 0.884453
Si Si3 0.558854 0.572135 0.623577
Si Si4 0.580545 0.929478 0.879898
O O1 0.286399 0.750000 0.873511
O O2 0.266482 0.447459 0.888818
O O3 0.308897 0.541942 0.716223
O O4 0.360774 0.567848 0.892586
O O5 0.194504 0.250000 0.864960
O O6 0.187364 0.000000 0.000000
O O7 0.574127 0.500000 0.500000
O O8 0.500000 0.574041 0.620149
O O9 0.577366 0.750000 0.625562
O O10 0.570714 0.501766 0.751202
O O11 0.563967 0.750000 0.874695
O O12 0.560936 0.000000 0.000000
#
# Coordination Sequence:
#
# PCOD9537774 Si02
#       4
#    16  16  16  16
#     4  10  20  35  52  74 105 139 180 228 277 327
#     4  11  21  34  52  74 101 138 184 229 278 330
#     4   9  19  38  61  85 114 147 184 227 275 328
#     4  10  22  37  56  84 116 149 185 228 277 332
#
# _framework density 23.351519
#
# number of rings (size 3 to 8) (size 9 to 14) (size 15 to 20)
#    0.000    2.000    0.000    5.250    0.000    6.500 
#    0.000    2.500    0.000    0.000    0.000    0.000 
#    0.000    0.000    0.000    0.000    0.000    0.000 
#
# Total GULP energy -178452.698338 kJ/mol
# GULP energy per Si atom -5576.646823 kJ/mol
# Density = 2.329837 g / cm^3
# Si number density = 23.351519 Si / 1000 Ang^3
#
#
#
# Elastic Constant Matrix: (Units=GPa)
#
#
# Indices 1 2 3 4 5 6 
#
# 1 59.3201 10.4872 -3.9591 0.0000 0.0000 0.0000
# 2 10.4872 80.4131 53.9874 0.0000 0.0000 0.0000
# 3 -3.9591 53.9874 219.5894 0.0000 0.0000 0.0000
# 4 0.0000 0.0000 0.0000 40.3623 0.0000 0.0000
# 5 0.0000 0.0000 0.0000 0.0000 -142.3850 0.0000
# 6 0.0000 0.0000 0.0000 0.0000 0.0000 7.1782
#
#
#
# Elastic Compliance Matrix: (Units=1/GPa)
#
#
# Indices 1 2 3 4 5 6 
#
# 1 0.017454 -0.002979 0.001047 0.000000 0.000000 0.000000
# 2 -0.002979 0.015403 -0.003841 0.000000 0.000000 0.000000
# 3 0.001047 -0.003841 0.005517 0.000000 0.000000 0.000000
# 4 0.000000 0.000000 0.000000 0.024776 0.000000 0.000000
# 5 0.000000 0.000000 0.000000 0.000000 -0.007023 0.000000
# 6 0.000000 0.000000 0.000000 0.000000 0.000000 0.139311
#
#
# Mechanical properties :
#
#
# Convention : Reuss Voigt Hill
#
# Bulk Modulus (GPa) = 37.27363 53.37263 45.32313
# Shear Modulus (GPa) = 23.15611 0.95158 12.05384
#
# Velocity S-wave (km/s) = 3.15244 0.63905 2.27445
# Velocity P-wave (km/s) = 5.40806 4.84255 5.13310
#
# Compressibility (1/GPa) = 0.02682862
#
# Stress axis : x y z
#
# Youngs Moduli (GPa) = 57.29240 64.92309 181.25562
#
# Poissons Ratio (x) = 0.19343 -0.18981
# Poissons Ratio (y) = 0.17070 0.69613
# Poissons Ratio (z) = -0.06000 0.24934
#
# Static dielectric constant tensor:
#      x y z
#    x 1.922710 0.000000 0.000000 
#    y 0.000000 1.487540 0.000000 
#    z 0.000000 0.000000 4.691400 
# 
# From -- ./inp_files/26754.got.cif
#   From: 2010.05.17/outbox.cif.g08.bks.cpg/sg74_14_cif.got.tgz:26754.got - 2010.06.03 17:57:02.
