data_PCOD9537726
_publ_section_title
;
Structure prediction by ZEFSAII (Michael W. Deem and Ramdas Pophale) SiO2 
 PCOD9537726
Probable space group: I M M A
;
_chemical_formula_sum "Si O2"
_cell_formula_units_Z 64
_cell_length_a 13.413550
_cell_length_b 15.501092
_cell_length_c 14.447303
_cell_angle_alpha 90.000000
_cell_angle_beta 90.000000
_cell_angle_gamma 90.000000
_cell_volume 3003.950746
_symmetry_space_group_name_H-M "I M M A"
_symmetry_group_IT_number 74
_symmetry_cell_setting 'orthorhombic'
loop_
_space_group_symop_operation_xyz
x,y,z
-x,1/2-y,z
x,-y,-z
-x,1/2+y,-z
-x,-y,-z
x,1/2+y,-z
-x,y,z
x,1/2-y,z
1/2+x,1/2+y,1/2+z
1/2-x,-y,1/2+z
1/2+x,1/2-y,1/2-z
1/2-x,y,1/2-z
1/2-x,1/2-y,1/2-z
1/2+x,y,1/2-z
1/2-x,1/2+y,1/2+z
1/2+x,-y,1/2+z
loop_
_atom_site_type_symbol
_atom_site_label
_atom_site_fract_x
_atom_site_fract_y
_atom_site_fract_z
Si Si1 0.000000 0.655954 0.270378
Si Si2 0.000000 0.513106 0.610229
Si Si3 0.815016 0.154399 0.868594
Si Si4 0.215561 0.519356 0.610108
Si Si5 0.115160 0.850404 0.917347
O O1 0.094729 0.650268 0.202848
O O2 0.000000 0.750000 0.315958
O O3 0.000000 0.580315 0.343292
O O4 0.000000 0.500000 0.500000
O O5 0.893639 0.553703 0.637298
O O6 0.767891 0.250000 0.862894
O O7 0.741511 0.075151 0.851985
O O8 0.861274 0.145989 0.972137
O O9 0.212859 0.500000 0.500000
O O10 0.305015 0.585644 0.628516
O O11 0.126929 0.750000 0.889939
O O12 0.000000 0.876328 0.902074
#
# Coordination Sequence:
#
# PCOD9537726 Si02
#       5
#     8   8  16  16  16
#     4  10  20  34  57  85 114 145 174 221 283 336
#     4  10  22  40  48  67 104 149 200 227 243 316
#     4   9  17  30  51  86 121 141 167 217 284 341
#     4   9  19  32  52  74 109 154 189 219 261 312
#     4   9  16  29  53  86 115 138 173 225 279 329
#
# _framework density 21.305275000000002
#
# number of rings (size 3 to 8) (size 9 to 14) (size 15 to 20)
#    0.000    2.750    1.250    0.000    1.750    3.500 
#    0.000    6.875    0.000    0.000    0.000    7.000 
#    0.000    0.000    0.000    0.000    0.000    0.000 
#
# Total GULP energy -178660.112678 kJ/mol
# GULP energy per Si atom -5583.128521 kJ/mol
# Density = 2.125678 g / cm^3
# Si number density = 21.305275 Si / 1000 Ang^3
#
#
#
# Elastic Constant Matrix: (Units=GPa)
#
#
# Indices 1 2 3 4 5 6 
#
# 1 198.3798 87.1042 4.7959 0.0000 0.0000 0.0000
# 2 87.1042 102.4141 24.2074 0.0000 0.0000 0.0000
# 3 4.7959 24.2074 42.4479 0.0000 0.0000 0.0000
# 4 0.0000 0.0000 0.0000 17.8506 0.0000 0.0000
# 5 0.0000 0.0000 0.0000 0.0000 17.3254 0.0000
# 6 0.0000 0.0000 0.0000 0.0000 0.0000 -204.8746
#
#
#
# Elastic Compliance Matrix: (Units=1/GPa)
#
#
# Indices 1 2 3 4 5 6 
#
# 1 0.008510 -0.008103 0.003660 0.000000 0.000000 0.000000
# 2 -0.008103 0.019001 -0.009920 0.000000 0.000000 0.000000
# 3 0.003660 -0.009920 0.028802 0.000000 0.000000 0.000000
# 4 0.000000 0.000000 0.000000 0.056020 0.000000 0.000000
# 5 0.000000 0.000000 0.000000 0.000000 0.057719 0.000000
# 6 0.000000 0.000000 0.000000 0.000000 0.000000 -0.004881
#
#
# Mechanical properties :
#
#
# Convention : Reuss Voigt Hill
#
# Bulk Modulus (GPa) = 36.25082 63.93963 50.09522
# Shear Modulus (GPa) = 24.61906 -18.79745 2.91081
#
# Velocity S-wave (km/s) = 3.40301 -2.97356 1.17013
# Velocity P-wave (km/s) = 5.70022 4.27632 5.03882
#
# Compressibility (1/GPa) = 0.02758558
#
# Stress axis : x y z
#
# Youngs Moduli (GPa) = 117.50573 52.62927 34.71942
#
# Poissons Ratio (x) = 0.42646 -0.12706
# Poissons Ratio (y) = 0.95215 0.34443
# Poissons Ratio (z) = -0.43002 0.52210
#
# Static dielectric constant tensor:
#      x y z
#    x 1.805640 0.000000 0.000000 
#    y 0.000000 1.753850 0.000000 
#    z 0.000000 0.000000 1.763090 
# 
# From -- ./inp_files/30254.got.cif
#   From: 2010.05.17/outbox.cif.g08.bks.cpg/sg74_16_cif.got.tgz:30254.got - 2010.06.03 17:57:02.
