data_PCOD9537054
_publ_section_title
;
Structure prediction by ZEFSAII (Michael W. Deem and Ramdas Pophale) SiO2 
 PCOD9537054
Probable space group: I M M A
;
_chemical_formula_sum "Si O2"
_cell_formula_units_Z 80
_cell_length_a 7.524661
_cell_length_b 29.553455
_cell_length_c 20.885990
_cell_angle_alpha 90.000000
_cell_angle_beta 90.000000
_cell_angle_gamma 90.000000
_cell_volume 4644.620822
_symmetry_space_group_name_H-M "I M M A"
_symmetry_group_IT_number 74
_symmetry_cell_setting 'orthorhombic'
loop_
_space_group_symop_operation_xyz
x,y,z
-x,1/2-y,z
x,-y,-z
-x,1/2+y,-z
-x,-y,-z
x,1/2+y,-z
-x,y,z
x,1/2-y,z
1/2+x,1/2+y,1/2+z
1/2-x,-y,1/2+z
1/2+x,1/2-y,1/2-z
1/2-x,y,1/2-z
1/2-x,1/2-y,1/2-z
1/2+x,y,1/2-z
1/2-x,1/2+y,1/2+z
1/2+x,-y,1/2+z
loop_
_atom_site_type_symbol
_atom_site_label
_atom_site_fract_x
_atom_site_fract_y
_atom_site_fract_z
Si Si1 0.217009 0.968388 0.558922
Si Si2 0.000000 0.699030 0.994996
Si Si3 0.291797 0.125492 0.854118
Si Si4 0.707075 0.128169 0.008671
Si Si5 0.000000 0.302005 0.849215
Si Si6 0.287912 0.974362 0.179027
O O1 0.270760 0.917182 0.544127
O O2 0.000000 0.967700 0.559122
O O3 0.271509 0.000000 0.500000
O O4 0.278537 0.992062 0.624057
O O5 0.000000 0.750000 0.971344
O O6 0.172002 0.670687 0.975088
O O7 0.000000 0.700364 0.072881
O O8 0.500000 0.131952 0.837787
O O9 0.280197 0.121103 0.931630
O O10 0.171678 0.167553 0.832363
O O11 0.223129 0.077388 0.827861
O O12 0.500000 0.135705 0.023140
O O13 0.000000 0.250000 0.825756
O O14 0.500000 0.970945 0.169756
O O15 0.250000 0.991114 0.250000
#
# Coordination Sequence:
#
# PCOD9537054 Si02
#       6
#    16   8  16  16   8  16
#     4   9  15  29  51  71  96 129 168 203 237 291
#     4   9  18  30  42  70 106 126 156 204 251 297
#     4   9  17  30  48  68  91 125 167 200 241 295
#     4   9  16  29  49  70  94 129 166 200 242 287
#     4   9  18  30  47  69  93 121 159 214 260 287
#     4  10  20  32  47  71  99 131 162 199 247 295
#
# _framework density 17.224226999999999
#
# number of rings (size 3 to 8) (size 9 to 14) (size 15 to 20)
#    0.000    2.800    2.000    0.000    1.400    0.800 
#    1.800    4.500    0.000    0.600    0.000    0.000 
#    0.000    0.800    0.400    0.000    0.000    0.000 
#
# Total GULP energy -223104.362464 kJ/mol
# GULP energy per Si atom -5577.609062 kJ/mol
# Density = 1.718502 g / cm^3
# Si number density = 17.224227 Si / 1000 Ang^3
#
#
#
# Elastic Constant Matrix: (Units=GPa)
#
#
# Indices 1 2 3 4 5 6 
#
# 1 68.3476 46.6085 18.0448 0.0000 0.0000 0.0000
# 2 46.6085 142.5940 49.0133 0.0000 0.0000 0.0000
# 3 18.0448 49.0133 71.3010 0.0000 0.0000 0.0000
# 4 0.0000 0.0000 0.0000 8.7783 0.0000 0.0000
# 5 0.0000 0.0000 0.0000 0.0000 11.1591 0.0000
# 6 0.0000 0.0000 0.0000 0.0000 0.0000 21.7664
#
#
#
# Elastic Compliance Matrix: (Units=1/GPa)
#
#
# Indices 1 2 3 4 5 6 
#
# 1 0.018854 -0.005922 -0.000701 0.000000 0.000000 0.000000
# 2 -0.005922 0.011043 -0.006092 0.000000 0.000000 0.000000
# 3 -0.000701 -0.006092 0.018390 0.000000 0.000000 0.000000
# 4 0.000000 0.000000 0.000000 0.113917 0.000000 0.000000
# 5 0.000000 0.000000 0.000000 0.000000 0.089613 0.000000
# 6 0.000000 0.000000 0.000000 0.000000 0.000000 0.045942
#
#
# Mechanical properties :
#
#
# Convention : Reuss Voigt Hill
#
# Bulk Modulus (GPa) = 43.74934 56.61953 50.18444
# Shear Modulus (GPa) = 15.11449 19.57917 17.34683
#
# Velocity S-wave (km/s) = 2.96550 3.37519 3.17695
# Velocity P-wave (km/s) = 6.09759 6.93777 6.53120
#
# Compressibility (1/GPa) = 0.02285749
#
# Stress axis : x y z
#
# Youngs Moduli (GPa) = 53.03781 90.55870 54.37676
#
# Poissons Ratio (x) = 0.53628 0.03811
# Poissons Ratio (y) = 0.31408 0.33127
# Poissons Ratio (z) = 0.03717 0.55169
#
# Static dielectric constant tensor:
#      x y z
#    x 1.634090 0.000000 0.000000 
#    y 0.000000 1.574510 0.000000 
#    z 0.000000 0.000000 1.572650 
# 
# From -- ./inp_files/46534.got.cif
#   From: 2010.05.17/outbox.cif.g08.bks.cpg/sg74_24_cif.got.tgz:46534.got - 2010.06.03 17:57:02.
