data_PCOD9537849
_publ_section_title
;
Structure prediction by ZEFSAII (Michael W. Deem and Ramdas Pophale) SiO2 
 PCOD9537849
Probable space group: I M M A
;
_chemical_formula_sum "Si O2"
_cell_formula_units_Z 64
_cell_length_a 17.497064
_cell_length_b 23.645818
_cell_length_c 8.007826
_cell_angle_alpha 90.000000
_cell_angle_beta 90.000000
_cell_angle_gamma 90.000000
_cell_volume 3313.096997
_symmetry_space_group_name_H-M "I M M A"
_symmetry_group_IT_number 74
_symmetry_cell_setting 'orthorhombic'
loop_
_space_group_symop_operation_xyz
x,y,z
-x,1/2-y,z
x,-y,-z
-x,1/2+y,-z
-x,-y,-z
x,1/2+y,-z
-x,y,z
x,1/2-y,z
1/2+x,1/2+y,1/2+z
1/2-x,-y,1/2+z
1/2+x,1/2-y,1/2-z
1/2-x,y,1/2-z
1/2-x,1/2-y,1/2-z
1/2+x,y,1/2-z
1/2-x,1/2+y,1/2+z
1/2+x,-y,1/2+z
loop_
_atom_site_type_symbol
_atom_site_label
_atom_site_fract_x
_atom_site_fract_y
_atom_site_fract_z
Si Si1 0.339379 0.186364 0.303489
Si Si2 0.086325 0.468650 0.758861
Si Si3 0.291367 0.894625 0.423895
Si Si4 0.133423 0.917129 0.586148
O O1 0.370270 0.250000 0.304755
O O2 0.250000 0.189773 0.250000
O O3 0.334100 0.156388 0.483436
O O4 0.379666 0.142882 0.175629
O O5 0.147601 0.442346 0.882228
O O6 0.092272 0.430731 0.588934
O O7 0.110081 0.531622 0.705514
O O8 0.000000 0.467261 0.820498
O O9 0.250000 0.877611 0.250000
O O10 0.223681 0.917947 0.541481
#
# Coordination Sequence:
#
# PCOD9537849 Si02
#       4
#    16  16  16  16
#     4   9  18  33  53  77 103 134 177 222 259 305
#     4  10  20  35  55  79 109 139 172 217 268 320
#     4   9  19  32  52  80 108 137 172 217 266 315
#     4   9  18  32  54  79 103 137 177 216 259 312
#
# _framework density 19.317273
#
# number of rings (size 3 to 8) (size 9 to 14) (size 15 to 20)
#    0.000    2.750    0.000    1.500    0.000   18.500 
#    0.000    7.500    0.000    8.250    0.000    0.000 
#    0.000    0.000    0.000    0.000    0.000    0.000 
#
# Total GULP energy -178560.620344 kJ/mol
# GULP energy per Si atom -5580.019386 kJ/mol
# Density = 1.927331 g / cm^3
# Si number density = 19.317273 Si / 1000 Ang^3
#
#
#
# Elastic Constant Matrix: (Units=GPa)
#
#
# Indices 1 2 3 4 5 6 
#
# 1 68.5397 35.7729 18.6567 0.0000 0.0000 0.0000
# 2 35.7729 115.8664 29.2776 0.0000 0.0000 0.0000
# 3 18.6567 29.2776 62.5782 0.0000 0.0000 0.0000
# 4 0.0000 0.0000 0.0000 25.0599 0.0000 0.0000
# 5 0.0000 0.0000 0.0000 0.0000 2.3745 0.0000
# 6 0.0000 0.0000 0.0000 0.0000 0.0000 -5.5544
#
#
#
# Elastic Compliance Matrix: (Units=1/GPa)
#
#
# Indices 1 2 3 4 5 6 
#
# 1 0.017915 -0.004742 -0.003122 0.000000 0.000000 0.000000
# 2 -0.004742 0.011043 -0.003753 0.000000 0.000000 0.000000
# 3 -0.003122 -0.003753 0.018667 0.000000 0.000000 0.000000
# 4 0.000000 0.000000 0.000000 0.039904 0.000000 0.000000
# 5 0.000000 0.000000 0.000000 0.000000 0.421147 0.000000
# 6 0.000000 0.000000 0.000000 0.000000 0.000000 -0.180037
#
#
# Mechanical properties :
#
#
# Convention : Reuss Voigt Hill
#
# Bulk Modulus (GPa) = 41.00031 46.04429 43.52230
# Shear Modulus (GPa) = 13.88877 15.26113 14.57495
#
# Velocity S-wave (km/s) = 2.68429 2.81379 2.74980
# Velocity P-wave (km/s) = 5.55680 5.86891 5.71498
#
# Compressibility (1/GPa) = 0.02439006
#
# Stress axis : x y z
#
# Youngs Moduli (GPa) = 55.81888 90.55515 53.57144
#
# Poissons Ratio (x) = 0.42943 0.16727
# Poissons Ratio (y) = 0.26470 0.20104
# Poissons Ratio (z) = 0.17429 0.33983
#
# Static dielectric constant tensor:
#      x y z
#    x 1.657200 0.000000 0.000000 
#    y 0.000000 1.659700 0.000000 
#    z 0.000000 0.000000 1.749000 
# 
# From -- ./inp_files/8797.got.cif
#   From: 2010.05.17/outbox.cif.g08.bks.cpg/sg74_5_cif.got.tgz:8797.got - 2010.06.03 17:57:02.
