data_PCOD9537191
_publ_section_title
;
Structure prediction by ZEFSAII (Michael W. Deem and Ramdas Pophale) SiO2 
 PCOD9537191
Probable space group: I M M A
;
_chemical_formula_sum "Si O2"
_cell_formula_units_Z 64
_cell_length_a 22.138228
_cell_length_b 10.393180
_cell_length_c 9.914979
_cell_angle_alpha 90.000000
_cell_angle_beta 90.000000
_cell_angle_gamma 90.000000
_cell_volume 2281.303693
_symmetry_space_group_name_H-M "I M M A"
_symmetry_group_IT_number 74
_symmetry_cell_setting 'orthorhombic'
loop_
_space_group_symop_operation_xyz
x,y,z
-x,1/2-y,z
x,-y,-z
-x,1/2+y,-z
-x,-y,-z
x,1/2+y,-z
-x,y,z
x,1/2-y,z
1/2+x,1/2+y,1/2+z
1/2-x,-y,1/2+z
1/2+x,1/2-y,1/2-z
1/2-x,y,1/2-z
1/2-x,1/2-y,1/2-z
1/2+x,y,1/2-z
1/2-x,1/2+y,1/2+z
1/2+x,-y,1/2+z
loop_
_atom_site_type_symbol
_atom_site_label
_atom_site_fract_x
_atom_site_fract_y
_atom_site_fract_z
Si Si1 0.573531 0.896821 0.083688
Si Si2 0.597375 0.396752 0.582727
Si Si3 0.427078 0.395840 0.250205
Si Si4 0.742043 0.393535 0.596784
O O1 0.500000 0.886608 0.084045
O O2 0.598308 0.750000 0.086158
O O3 0.586714 0.932551 0.250421
O O4 0.586178 0.069261 0.083287
O O5 0.571279 0.250000 0.585273
O O6 0.582917 0.568142 0.582766
O O7 0.670490 0.387099 0.575753
O O8 0.500000 0.385048 0.247548
O O9 0.399550 0.250000 0.253156
O O10 0.769946 0.500000 0.500000
O O11 0.766261 0.250000 0.578198
O O12 0.750000 0.435122 0.750000
#
# Coordination Sequence:
#
# PCOD9537191 Si02
#       4
#    16  16  16  16
#     4   9  16  27  44  65  90 123 165 213 264 315
#     4  10  20  35  55  77 105 140 177 221 273 329
#     4  10  20  33  49  71 101 138 181 225 266 315
#     4   9  19  37  61  89 119 150 187 233 286 346
#
# _framework density 28.054134999999999
#
# number of rings (size 3 to 8) (size 9 to 14) (size 15 to 20)
#    0.000    2.500    0.000    2.250    0.000    6.500 
#    0.000    1.250    0.000    3.000    0.000    0.000 
#    0.000    0.000    0.000    0.000    0.000    0.000 
#
# Total GULP energy -178803.122678 kJ/mol
# GULP energy per Si atom -5587.597584 kJ/mol
# Density = 2.799028 g / cm^3
# Si number density = 28.054135 Si / 1000 Ang^3
#
#
#
# Elastic Constant Matrix: (Units=GPa)
#
#
# Indices 1 2 3 4 5 6 
#
# 1 84.4894 -16.5840 16.6385 0.0000 0.0000 0.0000
# 2 -16.5840 321.1388 219.5919 0.0000 0.0000 0.0000
# 3 16.6385 219.5919 377.2218 0.0000 0.0000 0.0000
# 4 0.0000 0.0000 0.0000 99.7209 0.0000 0.0000
# 5 0.0000 0.0000 0.0000 0.0000 -510.3096 0.0000
# 6 0.0000 0.0000 0.0000 0.0000 0.0000 126.3376
#
#
#
# Elastic Compliance Matrix: (Units=1/GPa)
#
#
# Indices 1 2 3 4 5 6 
#
# 1 0.012471 0.001695 -0.001537 0.000000 0.000000 0.000000
# 2 0.001695 0.005403 -0.003220 0.000000 0.000000 0.000000
# 3 -0.001537 -0.003220 0.004593 0.000000 0.000000 0.000000
# 4 0.000000 0.000000 0.000000 0.010028 0.000000 0.000000
# 5 0.000000 0.000000 0.000000 0.000000 -0.001960 0.000000
# 6 0.000000 0.000000 0.000000 0.000000 0.000000 0.007915
#
#
# Mechanical properties :
#
#
# Convention : Reuss Voigt Hill
#
# Bulk Modulus (GPa) = 61.18607 135.79362 98.48985
# Shear Modulus (GPa) = 99.95282 -19.30331 40.32475
#
# Velocity S-wave (km/s) = 5.97544 -2.62596 3.79541
# Velocity P-wave (km/s) = 8.33458 6.27017 7.37496
#
# Compressibility (1/GPa) = 0.01634359
#
# Stress axis : x y z
#
# Youngs Moduli (GPa) = 80.18553 185.06843 217.70692
#
# Poissons Ratio (x) = -0.31365 0.33454
# Poissons Ratio (y) = -0.13590 0.70107
# Poissons Ratio (z) = 0.12322 0.59596
#
# Static dielectric constant tensor:
#      x y z
#    x 1.905630 0.000000 0.000000 
#    y 0.000000 2.338950 0.000000 
#    z 0.000000 0.000000 2.241870 
# 
# From -- ./inp_files/24684.got.cif
#   From: 2010.05.17/outbox.cif.g08.bks.cpg/sg74_13_cif.got.tgz:24684.got - 2010.06.03 17:57:02.
