data_PCOD9537328
_publ_section_title
;
Structure prediction by ZEFSAII (Michael W. Deem and Ramdas Pophale) SiO2 
 PCOD9537328
Probable space group: I M M A
;
_chemical_formula_sum "Si O2"
_cell_formula_units_Z 120
_cell_length_a 19.216076
_cell_length_b 25.858644
_cell_length_c 12.779526
_cell_angle_alpha 90.000000
_cell_angle_beta 90.000000
_cell_angle_gamma 90.000000
_cell_volume 6350.167790
_symmetry_space_group_name_H-M "I M M A"
_symmetry_group_IT_number 74
_symmetry_cell_setting 'orthorhombic'
loop_
_space_group_symop_operation_xyz
x,y,z
-x,1/2-y,z
x,-y,-z
-x,1/2+y,-z
-x,-y,-z
x,1/2+y,-z
-x,y,z
x,1/2-y,z
1/2+x,1/2+y,1/2+z
1/2-x,-y,1/2+z
1/2+x,1/2-y,1/2-z
1/2-x,y,1/2-z
1/2-x,1/2-y,1/2-z
1/2+x,y,1/2-z
1/2-x,1/2+y,1/2+z
1/2+x,-y,1/2+z
loop_
_atom_site_type_symbol
_atom_site_label
_atom_site_fract_x
_atom_site_fract_y
_atom_site_fract_z
Si Si1 0.250000 0.456282 0.750000
Si Si2 0.339131 0.122956 0.153309
Si Si3 0.580317 0.187915 0.990934
Si Si4 0.129122 0.010180 0.377228
Si Si5 0.416338 0.690814 0.243146
Si Si6 0.136966 0.398834 0.890474
Si Si7 0.323521 0.100396 0.377083
Si Si8 0.576035 0.503371 0.663016
O O1 0.203366 0.490424 0.669815
O O2 0.201652 0.421109 0.823440
O O3 0.382114 0.071194 0.132574
O O4 0.346363 0.134073 0.276642
O O5 0.260153 0.104531 0.129572
O O6 0.368033 0.166183 0.077483
O O7 0.500000 0.170516 0.007449
O O8 0.579491 0.250000 0.992451
O O9 0.604271 0.172883 0.873910
O O10 0.079614 0.987824 0.286456
O O11 0.122257 0.000000 0.500000
O O12 0.500000 0.692970 0.241427
O O13 0.391364 0.750000 0.261017
O O14 0.393208 0.649342 0.327652
O O15 0.088076 0.449714 0.896942
O O16 0.155782 0.382816 0.007618
O O17 0.361250 0.044239 0.359096
O O18 0.500000 0.525674 0.639899
#
# Coordination Sequence:
#
# PCOD9537328 Si02
#       8
#     8  16  16  16  16  16  16  16
#     4  10  22  34  53  82 119 152 196 230 290 362
#     4  10  20  37  60  83 114 160 191 238 293 351
#     4   9  20  40  65  89 116 153 196 242 297 361
#     4  10  20  33  52  81 116 150 189 245 295 341
#     4   9  20  39  60  85 116 149 188 241 304 355
#     4  11  21  35  58  84 111 154 198 241 288 356
#     4  10  22  37  55  83 121 153 197 237 292 348
#     4  10  22  37  53  80 116 159 202 238 286 359
#
# _framework density 18.897138000000002
#
# number of rings (size 3 to 8) (size 9 to 14) (size 15 to 20)
#    0.000    2.133    0.000    4.800    5.600    4.000 
#    0.000    3.000    0.000    1.600    0.000    0.000 
#    0.000    0.000    0.000    0.000    0.000    0.000 
#
# Total GULP energy -334236.698466 kJ/mol
# GULP energy per Si atom -5570.611641 kJ/mol
# Density = 1.885413 g / cm^3
# Si number density = 18.897138 Si / 1000 Ang^3
#
#
#
# Elastic Constant Matrix: (Units=GPa)
#
#
# Indices 1 2 3 4 5 6 
#
# 1 67.0110 17.3419 33.2038 0.0000 0.0000 0.0000
# 2 17.3419 43.2804 42.2966 0.0000 0.0000 0.0000
# 3 33.2038 42.2966 172.9400 0.0000 0.0000 0.0000
# 4 0.0000 0.0000 0.0000 25.9952 0.0000 0.0000
# 5 0.0000 0.0000 0.0000 0.0000 9.8968 0.0000
# 6 0.0000 0.0000 0.0000 0.0000 0.0000 28.3135
#
#
#
# Elastic Compliance Matrix: (Units=1/GPa)
#
#
# Indices 1 2 3 4 5 6 
#
# 1 0.017225 -0.004823 -0.002128 0.000000 0.000000 0.000000
# 2 -0.004823 0.031712 -0.006830 0.000000 0.000000 0.000000
# 3 -0.002128 -0.006830 0.007861 0.000000 0.000000 0.000000
# 4 0.000000 0.000000 0.000000 0.038469 0.000000 0.000000
# 5 0.000000 0.000000 0.000000 0.000000 0.101043 0.000000
# 6 0.000000 0.000000 0.000000 0.000000 0.000000 0.035319
#
#
# Mechanical properties :
#
#
# Convention : Reuss Voigt Hill
#
# Bulk Modulus (GPa) = 34.20187 52.10178 43.15182
# Shear Modulus (GPa) = 18.59177 25.53369 22.06273
#
# Velocity S-wave (km/s) = 3.14003 3.67985 3.42060
# Velocity P-wave (km/s) = 5.59326 6.75915 6.20366
#
# Compressibility (1/GPa) = 0.02923817
#
# Stress axis : x y z
#
# Youngs Moduli (GPa) = 58.05437 31.53343 127.20494
#
# Poissons Ratio (x) = 0.15207 0.27065
# Poissons Ratio (y) = 0.27997 0.86882
# Poissons Ratio (z) = 0.12352 0.21538
#
# Static dielectric constant tensor:
#      x y z
#    x 1.710940 0.000000 0.000000 
#    y 0.000000 1.648340 0.000000 
#    z 0.000000 0.000000 1.697810 
# 
# From -- ./inp_files/24231.got.cif
#   From: 2010.05.17/outbox.cif.g08.bks.cpg/sg74_13_cif.got.tgz:24231.got - 2010.06.03 17:57:02.
