data_PCOD9537868
_publ_section_title
;
Structure prediction by ZEFSAII (Michael W. Deem and Ramdas Pophale) SiO2 
 PCOD9537868
Probable space group: I M M A
;
_chemical_formula_sum "Si O2"
_cell_formula_units_Z 112
_cell_length_a 14.962958
_cell_length_b 24.175104
_cell_length_c 14.702417
_cell_angle_alpha 90.000000
_cell_angle_beta 90.000000
_cell_angle_gamma 90.000000
_cell_volume 5318.320971
_symmetry_space_group_name_H-M "I M M A"
_symmetry_group_IT_number 74
_symmetry_cell_setting 'orthorhombic'
loop_
_space_group_symop_operation_xyz
x,y,z
-x,1/2-y,z
x,-y,-z
-x,1/2+y,-z
-x,-y,-z
x,1/2+y,-z
-x,y,z
x,1/2-y,z
1/2+x,1/2+y,1/2+z
1/2-x,-y,1/2+z
1/2+x,1/2-y,1/2-z
1/2-x,y,1/2-z
1/2-x,1/2-y,1/2-z
1/2+x,y,1/2-z
1/2-x,1/2+y,1/2+z
1/2+x,-y,1/2+z
loop_
_atom_site_type_symbol
_atom_site_label
_atom_site_fract_x
_atom_site_fract_y
_atom_site_fract_z
Si Si1 0.392790 0.142366 0.654553
Si Si2 0.392643 0.124160 0.860286
Si Si3 0.671050 0.188034 0.323969
Si Si4 0.749255 0.186181 0.979185
Si Si5 0.394475 0.997592 0.100465
Si Si6 0.893408 0.518604 0.097690
Si Si7 0.644162 0.923374 0.743439
O O1 0.500000 0.148419 0.639218
O O2 0.376131 0.151198 0.761700
O O3 0.332145 0.179591 0.590183
O O4 0.364512 0.079255 0.629785
O O5 0.500000 0.128136 0.877845
O O6 0.332570 0.150926 0.938704
O O7 0.365499 0.059395 0.852131
O O8 0.631073 0.250000 0.334317
O O9 0.750000 0.193506 0.250000
O O10 0.714663 0.170760 0.420603
O O11 0.611429 0.136884 0.288528
O O12 0.721129 0.250000 0.984440
O O13 0.500000 0.990333 0.091125
O O14 0.383460 0.052267 0.159632
O O15 0.354464 0.000000 0.000000
O O16 0.877310 0.470661 0.170437
O O17 0.000000 0.523894 0.088954
O O18 0.856830 0.500000 0.000000
O O19 0.750000 0.919174 0.750000
#
# Coordination Sequence:
#
# PCOD9537868 Si02
#       7
#    16  16  16  16  16  16  16
#     4  10  21  38  59  89 129 166 203 258 323 386
#     4  10  22  39  62  92 129 168 208 264 323 379
#     4   9  21  42  62  88 125 162 211 269 313 364
#     4  11  24  41  66  91 121 170 218 266 320 378
#     4  10  22  39  60  88 126 164 200 254 317 378
#     4  10  20  35  55  81 116 156 194 242 300 361
#     4  11  22  33  59  93 115 157 198 246 307 374
#
# _framework density 21.059279
#
# number of rings (size 3 to 8) (size 9 to 14) (size 15 to 20)
#    0.000    1.857    1.429    1.714    6.000    2.286 
#    0.000    2.143    0.000    4.286    0.000    4.000 
#    0.000    0.000    0.000    0.000    0.000    0.000 
#
# Total GULP energy -312504.426211 kJ/mol
# GULP energy per Si atom -5580.436182 kJ/mol
# Density = 2.101135 g / cm^3
# Si number density = 21.059279 Si / 1000 Ang^3
#
#
#
# Elastic Constant Matrix: (Units=GPa)
#
#
# Indices 1 2 3 4 5 6 
#
# 1 51.8673 4.0051 21.5812 0.0000 0.0000 0.0000
# 2 4.0051 92.4224 36.7181 -0.0003 0.0000 0.0004
# 3 21.5812 36.7181 142.5910 -0.0004 0.0000 0.0009
# 4 0.0000 -0.0003 -0.0004 28.9895 0.0000 0.0009
# 5 0.0000 0.0000 0.0000 0.0000 22.2420 0.0001
# 6 0.0000 0.0004 0.0009 0.0009 0.0001 420.1962
#
#
#
# Elastic Compliance Matrix: (Units=1/GPa)
#
#
# Indices 1 2 3 4 5 6 
#
# 1 0.020588 0.000385 -0.003215 0.000000 0.000000 0.000000
# 2 0.000385 0.012060 -0.003164 0.000000 0.000000 0.000000
# 3 -0.003215 -0.003164 0.008314 0.000000 0.000000 0.000000
# 4 0.000000 0.000000 0.000000 0.034495 0.000000 0.000000
# 5 0.000000 0.000000 0.000000 0.000000 0.044960 0.000000
# 6 0.000000 0.000000 0.000000 0.000000 0.000000 0.002380
#
#
# Mechanical properties :
#
#
# Convention : Reuss Voigt Hill
#
# Bulk Modulus (GPa) = 34.51273 45.72105 40.11689
# Shear Modulus (GPa) = 34.61556 109.25730 71.93643
#
# Velocity S-wave (km/s) = 4.05868 7.21065 5.85091
# Velocity P-wave (km/s) = 6.19579 9.54371 8.04581
#
# Compressibility (1/GPa) = 0.02897482
#
# Stress axis : x y z
#
# Youngs Moduli (GPa) = 48.57195 82.91768 120.27322
#
# Poissons Ratio (x) = -0.03194 0.38670
# Poissons Ratio (y) = -0.01871 0.38053
# Poissons Ratio (z) = 0.15617 0.26234
#
# Static dielectric constant tensor:
#      x y z
#    x 1.759280 0.000000 0.000000 
#    y 0.000000 1.818320 0.000000 
#    z 0.000000 0.000000 1.711360 
# 
# From -- ./inp_files/32751.got.cif
#   From: 2010.05.17/outbox.cif.g08.bks.cpg/sg74_17_cif.got.tgz:32751.got - 2010.06.03 17:57:02.
