data_PCOD9537012
_publ_section_title
;
Structure prediction by ZEFSAII (Michael W. Deem and Ramdas Pophale) SiO2 
 PCOD9537012
Probable space group: I M M A
;
_chemical_formula_sum "Si O2"
_cell_formula_units_Z 72
_cell_length_a 34.260629
_cell_length_b 8.539044
_cell_length_c 15.140858
_cell_angle_alpha 90.000000
_cell_angle_beta 90.000000
_cell_angle_gamma 90.000000
_cell_volume 4429.503711
_symmetry_space_group_name_H-M "I M M A"
_symmetry_group_IT_number 74
_symmetry_cell_setting 'orthorhombic'
loop_
_space_group_symop_operation_xyz
x,y,z
-x,1/2-y,z
x,-y,-z
-x,1/2+y,-z
-x,-y,-z
x,1/2+y,-z
-x,y,z
x,1/2-y,z
1/2+x,1/2+y,1/2+z
1/2-x,-y,1/2+z
1/2+x,1/2-y,1/2-z
1/2-x,y,1/2-z
1/2-x,1/2-y,1/2-z
1/2+x,y,1/2-z
1/2-x,1/2+y,1/2+z
1/2+x,-y,1/2+z
loop_
_atom_site_type_symbol
_atom_site_label
_atom_site_fract_x
_atom_site_fract_y
_atom_site_fract_z
Si Si1 0.226634 0.063246 0.404235
Si Si2 0.000000 0.938706 0.399863
Si Si3 0.185611 0.437517 0.905126
Si Si4 0.158569 0.439375 0.717596
Si Si5 0.085586 0.060341 0.600365
O O1 0.227582 0.250000 0.405971
O O2 0.213360 0.000000 0.500000
O O3 0.270368 0.999800 0.390467
O O4 0.196921 0.003606 0.330733
O O5 0.042493 0.988446 0.364655
O O6 0.000000 0.750000 0.399575
O O7 0.000000 0.000000 0.500000
O O8 0.187427 0.250000 0.909304
O O9 0.160154 0.484773 0.820436
O O10 0.172091 0.500000 0.000000
O O11 0.159827 0.250000 0.713691
O O12 0.120552 0.492749 0.663549
O O13 0.086503 0.250000 0.597004
O O14 0.090548 0.000000 0.500000
#
# Coordination Sequence:
#
# PCOD9537012 Si02
#       5
#    16   8  16  16  16
#     4  11  21  32  47  66  90 119 150 183 220 264
#     4   8  14  26  44  64  89 118 144 170 203 252
#     4  10  20  34  49  63  84 115 151 190 228 264
#     4  10  20  32  46  66  91 117 147 185 225 262
#     4   9  17  29  45  67  93 119 145 173 210 256
#
# _framework density 16.254643000000002
#
# number of rings (size 3 to 8) (size 9 to 14) (size 15 to 20)
#    0.000    2.222    0.000    5.333    0.000    7.111 
#    0.000    0.000    0.000    0.000    0.000    0.778 
#    0.000    0.000    0.000    0.000    0.000    0.000 
#
# Total GULP energy -200741.130909 kJ/mol
# GULP energy per Si atom -5576.142525 kJ/mol
# Density = 1.621765 g / cm^3
# Si number density = 16.254643 Si / 1000 Ang^3
#
#
#
# Elastic Constant Matrix: (Units=GPa)
#
#
# Indices 1 2 3 4 5 6 
#
# 1 74.7435 20.2859 70.3783 0.0000 0.0000 0.0000
# 2 20.2859 26.6690 27.1359 0.0000 0.0000 0.0000
# 3 70.3783 27.1359 125.4973 0.0000 0.0000 0.0000
# 4 0.0000 0.0000 0.0000 22.3395 0.0000 0.0000
# 5 0.0000 0.0000 0.0000 0.0000 20.1030 0.0000
# 6 0.0000 0.0000 0.0000 0.0000 0.0000 12.9839
#
#
#
# Elastic Compliance Matrix: (Units=1/GPa)
#
#
# Indices 1 2 3 4 5 6 
#
# 1 0.029377 -0.007157 -0.014927 0.000000 0.000000 0.000000
# 2 -0.007157 0.049817 -0.006758 0.000000 0.000000 0.000000
# 3 -0.014927 -0.006758 0.017800 0.000000 0.000000 0.000000
# 4 0.000000 0.000000 0.000000 0.044764 0.000000 0.000000
# 5 0.000000 0.000000 0.000000 0.000000 0.049744 0.000000
# 6 0.000000 0.000000 0.000000 0.000000 0.000000 0.077019
#
#
# Mechanical properties :
#
#
# Convention : Reuss Voigt Hill
#
# Bulk Modulus (GPa) = 25.43868 51.38999 38.41434
# Shear Modulus (GPa) = 14.73587 18.35926 16.54756
#
# Velocity S-wave (km/s) = 3.01419 3.36442 3.19411
# Velocity P-wave (km/s) = 5.27237 6.83934 6.10633
#
# Compressibility (1/GPa) = 0.03931021
#
# Stress axis : x y z
#
# Youngs Moduli (GPa) = 34.04079 20.07329 56.17878
#
# Poissons Ratio (x) = 0.14367 0.83856
# Poissons Ratio (y) = 0.24365 0.37966
# Poissons Ratio (z) = 0.50811 0.13566
#
# Static dielectric constant tensor:
#      x y z
#    x 1.561670 0.000000 0.000000 
#    y 0.000000 1.552650 0.000000 
#    z 0.000000 0.000000 1.541920 
# 
# From -- ./inp_files/29431.got.cif
#   From: 2010.05.17/outbox.cif.g08.bks.cpg/sg74_15_cif.got.tgz:29431.got - 2010.06.03 17:57:02.
