data_PCOD9537213
_publ_section_title
;
Structure prediction by ZEFSAII (Michael W. Deem and Ramdas Pophale) SiO2 
 PCOD9537213
Probable space group: I M M A
;
_chemical_formula_sum "Si O2"
_cell_formula_units_Z 96
_cell_length_a 19.055124
_cell_length_b 9.260351
_cell_length_c 30.241717
_cell_angle_alpha 90.000000
_cell_angle_beta 90.000000
_cell_angle_gamma 90.000000
_cell_volume 5336.366787
_symmetry_space_group_name_H-M "I M M A"
_symmetry_group_IT_number 74
_symmetry_cell_setting 'orthorhombic'
loop_
_space_group_symop_operation_xyz
x,y,z
-x,1/2-y,z
x,-y,-z
-x,1/2+y,-z
-x,-y,-z
x,1/2+y,-z
-x,y,z
x,1/2-y,z
1/2+x,1/2+y,1/2+z
1/2-x,-y,1/2+z
1/2+x,1/2-y,1/2-z
1/2-x,y,1/2-z
1/2-x,1/2-y,1/2-z
1/2+x,y,1/2-z
1/2-x,1/2+y,1/2+z
1/2+x,-y,1/2+z
loop_
_atom_site_type_symbol
_atom_site_label
_atom_site_fract_x
_atom_site_fract_y
_atom_site_fract_z
Si Si1 0.681572 0.417222 0.383841
Si Si2 0.921762 0.580587 0.427880
Si Si3 0.208888 0.586822 0.538215
Si Si4 0.583814 0.419219 0.547044
Si Si5 0.730845 0.425453 0.200851
Si Si6 0.922297 0.577939 0.665838
O O1 0.657367 0.250000 0.378400
O O2 0.748218 0.413855 0.416646
O O3 0.624749 0.508138 0.411705
O O4 0.713824 0.472563 0.337269
O O5 0.905459 0.750000 0.426211
O O6 0.863351 0.493721 0.453478
O O7 0.922235 0.513469 0.378901
O O8 0.000000 0.562866 0.446397
O O9 0.248194 0.500000 0.500000
O O10 0.197699 0.750000 0.523979
O O11 0.595716 0.500000 0.500000
O O12 0.500000 0.427340 0.555193
O O13 0.603576 0.250000 0.542818
O O14 0.734611 0.250000 0.199909
O O15 0.750000 0.474949 0.250000
O O16 0.649438 0.461575 0.190857
O O17 0.917620 0.750000 0.655534
O O18 0.000000 0.556149 0.687184
#
# Coordination Sequence:
#
# PCOD9537213 Si02
#       6
#    16  16  16  16  16  16
#     4  10  20  35  55  81 110 142 179 222 274 326
#     4  10  20  33  50  73 101 136 177 219 262 307
#     4  11  22  35  51  75 106 140 179 218 263 315
#     4  10  21  37  58  84 113 147 185 225 273 333
#     4   9  17  32  54  82 113 141 177 231 283 328
#     4   9  16  30  53  77 102 138 182 223 266 316
#
# _framework density 17.989768000000002
#
# number of rings (size 3 to 8) (size 9 to 14) (size 15 to 20)
#    0.000    2.167    1.667    2.000    0.000    5.000 
#    0.000    0.833    0.000    5.000    0.000    2.333 
#    0.000    0.000    0.000    0.000    0.000    0.000 
#
# Total GULP energy -267507.893259 kJ/mol
# GULP energy per Si atom -5573.081110 kJ/mol
# Density = 1.794882 g / cm^3
# Si number density = 17.989768 Si / 1000 Ang^3
#
#
#
# Elastic Constant Matrix: (Units=GPa)
#
#
# Indices 1 2 3 4 5 6 
#
# 1 109.4670 55.8082 53.8664 0.0000 0.0000 0.0000
# 2 55.8082 82.0492 39.6336 0.0000 0.0000 0.0000
# 3 53.8664 39.6336 121.1343 0.0000 0.0000 0.0000
# 4 0.0000 0.0000 0.0000 16.7019 0.0000 0.0000
# 5 0.0000 0.0000 0.0000 0.0000 135.9799 0.0000
# 6 0.0000 0.0000 0.0000 0.0000 0.0000 -44.3044
#
#
#
# Elastic Compliance Matrix: (Units=1/GPa)
#
#
# Indices 1 2 3 4 5 6 
#
# 1 0.015526 -0.008582 -0.004096 0.000000 0.000000 0.000000
# 2 -0.008582 0.019219 -0.002472 0.000000 0.000000 0.000000
# 3 -0.004096 -0.002472 0.010886 0.000000 0.000000 0.000000
# 4 0.000000 0.000000 0.000000 0.059874 0.000000 0.000000
# 5 0.000000 0.000000 0.000000 0.000000 0.007354 0.000000
# 6 0.000000 0.000000 0.000000 0.000000 0.000000 -0.022571
#
#
# Mechanical properties :
#
#
# Convention : Reuss Voigt Hill
#
# Bulk Modulus (GPa) = 65.22954 67.91857 66.57405
# Shear Modulus (GPa) = 39.77796 32.56496 36.17146
#
# Velocity S-wave (km/s) = 4.70738 4.25925 4.48891
# Velocity P-wave (km/s) = 8.11689 7.87555 7.99713
#
# Compressibility (1/GPa) = 0.01533048
#
# Stress axis : x y z
#
# Youngs Moduli (GPa) = 64.40796 52.03159 91.86365
#
# Poissons Ratio (x) = 0.44652 0.37630
# Poissons Ratio (y) = 0.55274 0.22709
# Poissons Ratio (z) = 0.26384 0.12863
#
# Static dielectric constant tensor:
#      x y z
#    x 1.653290 0.000000 0.000000 
#    y 0.000000 1.609790 0.000000 
#    z 0.000000 0.000000 1.926040 
# 
# From -- ./inp_files/68133.got.cif
#   From: 2010.05.17/outbox.cif.g08.bks.cpg/sg74_35_cif.got.tgz:68133.got - 2010.06.03 17:57:02.
