data_PCOD9537530
_publ_section_title
;
Structure prediction by ZEFSAII (Michael W. Deem and Ramdas Pophale) SiO2 
 PCOD9537530
Probable space group: I M M A
;
_chemical_formula_sum "Si O2"
_cell_formula_units_Z 88
_cell_length_a 23.280428
_cell_length_b 17.398215
_cell_length_c 12.396228
_cell_angle_alpha 90.000000
_cell_angle_beta 90.000000
_cell_angle_gamma 90.000000
_cell_volume 5020.942053
_symmetry_space_group_name_H-M "I M M A"
_symmetry_group_IT_number 74
_symmetry_cell_setting 'orthorhombic'
loop_
_space_group_symop_operation_xyz
x,y,z
-x,1/2-y,z
x,-y,-z
-x,1/2+y,-z
-x,-y,-z
x,1/2+y,-z
-x,y,z
x,1/2-y,z
1/2+x,1/2+y,1/2+z
1/2-x,-y,1/2+z
1/2+x,1/2-y,1/2-z
1/2-x,y,1/2-z
1/2-x,1/2-y,1/2-z
1/2+x,y,1/2-z
1/2-x,1/2+y,1/2+z
1/2+x,-y,1/2+z
loop_
_atom_site_type_symbol
_atom_site_label
_atom_site_fract_x
_atom_site_fract_y
_atom_site_fract_z
Si Si1 0.068197 0.590832 0.508210
Si Si2 0.666175 0.951758 0.601508
Si Si3 0.762083 0.166195 0.408288
Si Si4 0.127348 0.157144 0.276660
Si Si5 0.336730 0.335369 0.876467
Si Si6 0.750000 0.555399 0.250000
O O1 0.082624 0.500000 0.500000
O O2 0.089966 0.626987 0.621835
O O3 0.101524 0.631483 0.409826
O O4 0.000000 0.599862 0.500523
O O5 0.711434 0.889217 0.559222
O O6 0.622502 0.901731 0.675785
O O7 0.642340 0.000000 0.500000
O O8 0.709052 0.005108 0.672381
O O9 0.737327 0.250000 0.385941
O O10 0.805692 0.145743 0.311934
O O11 0.804635 0.170591 0.509088
O O12 0.118236 0.250000 0.260898
O O13 0.340564 0.250000 0.828349
O O14 0.296470 0.391599 0.809814
#
# Coordination Sequence:
#
# PCOD9537530 Si02
#       6
#    16  16  16  16  16   8
#     4  10  21  37  61  88 112 139 179 235 289 335
#     4  12  21  30  48  74 104 145 185 234 275 335
#     4   9  17  30  47  71 103 138 176 220 273 330
#     4  10  20  34  53  77 110 146 187 234 283 340
#     4  10  21  34  50  75 112 148 182 219 266 339
#     4  12  21  32  51  74 110 156 186 222 279 340
#
# _framework density 17.526591
#
# number of rings (size 3 to 8) (size 9 to 14) (size 15 to 20)
#    0.000    1.636    3.636    3.545    2.545    2.909 
#    0.000    0.000    0.000    0.545    0.000    0.000 
#    0.000    2.909    0.000    0.000    0.000    0.000 
#
# Total GULP energy -245065.918957 kJ/mol
# GULP energy per Si atom -5569.679976 kJ/mol
# Density = 1.748670 g / cm^3
# Si number density = 17.526591 Si / 1000 Ang^3
#
#
#
# Elastic Constant Matrix: (Units=GPa)
#
#
# Indices 1 2 3 4 5 6 
#
# 1 53.7323 34.9985 16.8184 0.0000 0.0000 0.0000
# 2 34.9985 110.8698 41.9864 0.0000 0.0000 0.0000
# 3 16.8184 41.9864 62.9107 0.0000 0.0000 0.0000
# 4 0.0000 0.0000 0.0000 27.5584 0.0000 0.0000
# 5 0.0000 0.0000 0.0000 0.0000 21.7360 0.0000
# 6 0.0000 0.0000 0.0000 0.0000 0.0000 10.1272
#
#
#
# Elastic Compliance Matrix: (Units=1/GPa)
#
#
# Indices 1 2 3 4 5 6 
#
# 1 0.023577 -0.006766 -0.001788 0.000000 0.000000 0.000000
# 2 -0.006766 0.014012 -0.007543 0.000000 0.000000 0.000000
# 3 -0.001788 -0.007543 0.021407 0.000000 0.000000 0.000000
# 4 0.000000 0.000000 0.000000 0.036287 0.000000 0.000000
# 5 0.000000 0.000000 0.000000 0.000000 0.046007 0.000000
# 6 0.000000 0.000000 0.000000 0.000000 0.000000 0.098744
#
#
# Mechanical properties :
#
#
# Convention : Reuss Voigt Hill
#
# Bulk Modulus (GPa) = 37.30747 46.12438 41.71592
# Shear Modulus (GPa) = 17.78348 20.79830 19.29089
#
# Velocity S-wave (km/s) = 3.18882 3.44855 3.32122
# Velocity P-wave (km/s) = 5.90682 6.49850 6.20971
#
# Compressibility (1/GPa) = 0.02680428
#
# Stress axis : x y z
#
# Youngs Moduli (GPa) = 42.41393 71.36883 46.71279
#
# Poissons Ratio (x) = 0.48286 0.08351
# Poissons Ratio (y) = 0.28696 0.35234
# Poissons Ratio (z) = 0.07582 0.53831
#
# Static dielectric constant tensor:
#      x y z
#    x 1.567650 0.000000 0.000000 
#    y 0.000000 1.700830 0.000000 
#    z 0.000000 0.000000 1.656920 
# 
# From -- ./inp_files/26154.got.cif
#   From: 2010.05.17/outbox.cif.g08.bks.cpg/sg74_14_cif.got.tgz:26154.got - 2010.06.03 17:57:02.
