data_PCOD9537128
_publ_section_title
;
Structure prediction by ZEFSAII (Michael W. Deem and Ramdas Pophale) SiO2 
 PCOD9537128
Probable space group: I M M A
;
_chemical_formula_sum "Si O2"
_cell_formula_units_Z 128
_cell_length_a 22.479784
_cell_length_b 23.282226
_cell_length_c 11.999191
_cell_angle_alpha 90.000000
_cell_angle_beta 90.000000
_cell_angle_gamma 90.000000
_cell_volume 6280.129524
_symmetry_space_group_name_H-M "I M M A"
_symmetry_group_IT_number 74
_symmetry_cell_setting 'orthorhombic'
loop_
_space_group_symop_operation_xyz
x,y,z
-x,1/2-y,z
x,-y,-z
-x,1/2+y,-z
-x,-y,-z
x,1/2+y,-z
-x,y,z
x,1/2-y,z
1/2+x,1/2+y,1/2+z
1/2-x,-y,1/2+z
1/2+x,1/2-y,1/2-z
1/2-x,y,1/2-z
1/2-x,1/2-y,1/2-z
1/2+x,y,1/2-z
1/2-x,1/2+y,1/2+z
1/2+x,-y,1/2+z
loop_
_atom_site_type_symbol
_atom_site_label
_atom_site_fract_x
_atom_site_fract_y
_atom_site_fract_z
Si Si1 0.117976 0.103023 0.371452
Si Si2 0.431839 0.509409 0.128144
Si Si3 0.310552 0.149934 0.312782
Si Si4 0.105752 0.815404 0.418385
Si Si5 0.244588 0.059351 0.440192
Si Si6 0.931455 0.887740 0.216142
Si Si7 0.641981 0.688223 0.448444
Si Si8 0.261480 0.847947 0.132891
O O1 0.138443 0.147945 0.278919
O O2 0.098925 0.138375 0.481183
O O3 0.178436 0.065486 0.390738
O O4 0.072201 0.055613 0.328393
O O5 0.500000 0.528617 0.114530
O O6 0.405884 0.556468 0.214627
O O7 0.409257 0.500000 0.000000
O O8 0.250000 0.172465 0.250000
O O9 0.291639 0.085602 0.353509
O O10 0.336203 0.179186 0.423931
O O11 0.090454 0.750000 0.448874
O O12 0.071282 0.838306 0.310565
O O13 0.175326 0.818185 0.382754
O O14 0.242831 0.106075 0.536864
O O15 0.257599 0.000000 0.500000
O O16 0.894656 0.863359 0.110448
O O17 0.000000 0.899310 0.184263
O O18 0.610632 0.750000 0.438337
O O19 0.703967 0.690993 0.381633
O O20 0.250000 0.877874 0.250000
#
# Coordination Sequence:
#
# PCOD9537128 Si02
#       8
#    16  16  16  16  16  16  16  16
#     4  10  20  35  58  84 114 152 200 244 294 363
#     4  10  20  37  61  86 116 154 199 254 310 366
#     4   9  21  39  55  85 122 158 204 248 302 369
#     4  11  22  35  55  86 121 155 195 252 313 373
#     4   9  19  31  50  80 115 153 190 235 293 358
#     4  11  24  40  60  90 122 156 205 261 321 380
#     4  11  23  39  61  85 120 168 210 254 314 381
#     4  10  20  32  50  81 115 148 190 239 303 369
#
# _framework density 20.381744000000001
#
# number of rings (size 3 to 8) (size 9 to 14) (size 15 to 20)
#    0.000    1.875    2.500    1.875    1.750    5.750 
#    0.000    0.625    0.000    1.500    0.000    1.750 
#    0.000    0.000    0.000    0.000    0.000    0.000 
#
# Total GULP energy -356274.557815 kJ/mol
# GULP energy per Si atom -5566.789966 kJ/mol
# Density = 2.033535 g / cm^3
# Si number density = 20.381744 Si / 1000 Ang^3
#
#
#
# Elastic Constant Matrix: (Units=GPa)
#
#
# Indices 1 2 3 4 5 6 
#
# 1 40.4988 14.4575 21.3912 0.0000 0.0000 0.0000
# 2 14.4575 87.7120 15.1479 0.0000 0.0000 0.0000
# 3 21.3912 15.1479 111.2168 0.0000 0.0000 0.0000
# 4 0.0000 0.0000 0.0000 3.5929 0.0000 0.0000
# 5 0.0000 0.0000 0.0000 0.0000 16.1605 0.0000
# 6 0.0000 0.0000 0.0000 0.0000 0.0000 -11.8063
#
#
#
# Elastic Compliance Matrix: (Units=1/GPa)
#
#
# Indices 1 2 3 4 5 6 
#
# 1 0.028712 -0.003870 -0.004995 0.000000 0.000000 0.000000
# 2 -0.003870 0.012197 -0.000917 0.000000 0.000000 0.000000
# 3 -0.004995 -0.000917 0.010077 0.000000 0.000000 0.000000
# 4 0.000000 0.000000 0.000000 0.278330 0.000000 0.000000
# 5 0.000000 0.000000 0.000000 0.000000 0.061879 0.000000
# 6 0.000000 0.000000 0.000000 0.000000 0.000000 -0.084700
#
#
# Mechanical properties :
#
#
# Convention : Reuss Voigt Hill
#
# Bulk Modulus (GPa) = 31.82480 37.93566 34.88023
# Shear Modulus (GPa) = 14.85734 14.15146 14.50440
#
# Velocity S-wave (km/s) = 2.70284 2.63785 2.67055
# Velocity P-wave (km/s) = 5.03872 5.28495 5.16330
#
# Compressibility (1/GPa) = 0.03142204
#
# Stress axis : x y z
#
# Youngs Moduli (GPa) = 34.82848 81.98620 99.23462
#
# Poissons Ratio (x) = 0.31728 0.49571
# Poissons Ratio (y) = 0.13478 0.09099
# Poissons Ratio (z) = 0.17398 0.07518
#
# Static dielectric constant tensor:
#      x y z
#    x 1.785900 0.000000 0.000000 
#    y 0.000000 1.799630 0.000000 
#    z 0.000000 0.000000 1.524110 
# 
# From -- ./inp_files/25581.got.cif
#   From: 2010.05.17/outbox.cif.g08.bks.cpg/sg74_13_cif.got.tgz:25581.got - 2010.06.03 17:57:02.
