data_PCOD9537686
_publ_section_title
;
Structure prediction by ZEFSAII (Michael W. Deem and Ramdas Pophale) SiO2 
 PCOD9537686
Probable space group: I M M A
;
_chemical_formula_sum "Si O2"
_cell_formula_units_Z 112
_cell_length_a 13.217207
_cell_length_b 24.162350
_cell_length_c 14.535874
_cell_angle_alpha 90.000000
_cell_angle_beta 90.000000
_cell_angle_gamma 90.000000
_cell_volume 4642.159009
_symmetry_space_group_name_H-M "I M M A"
_symmetry_group_IT_number 74
_symmetry_cell_setting 'orthorhombic'
loop_
_space_group_symop_operation_xyz
x,y,z
-x,1/2-y,z
x,-y,-z
-x,1/2+y,-z
-x,-y,-z
x,1/2+y,-z
-x,y,z
x,1/2-y,z
1/2+x,1/2+y,1/2+z
1/2-x,-y,1/2+z
1/2+x,1/2-y,1/2-z
1/2-x,y,1/2-z
1/2-x,1/2-y,1/2-z
1/2+x,y,1/2-z
1/2-x,1/2+y,1/2+z
1/2+x,-y,1/2+z
loop_
_atom_site_type_symbol
_atom_site_label
_atom_site_fract_x
_atom_site_fract_y
_atom_site_fract_z
Si Si1 0.614969 0.403719 0.606998
Si Si2 0.816194 0.362870 0.561250
Si Si3 0.885406 0.688883 0.264955
Si Si4 0.383754 0.856836 0.674940
Si Si5 0.168676 0.814210 0.628815
Si Si6 0.381377 0.516832 0.098708
Si Si7 0.622722 0.481500 0.297687
O O1 0.500000 0.404391 0.571920
O O2 0.701102 0.381149 0.541012
O O3 0.619474 0.361740 0.693787
O O4 0.645417 0.464665 0.641181
O O5 0.817346 0.320336 0.645761
O O6 0.862789 0.339865 0.468432
O O7 0.871022 0.417079 0.601207
O O8 0.869577 0.750000 0.223512
O O9 0.000000 0.688151 0.301150
O O10 0.500000 0.846192 0.644221
O O11 0.291258 0.820081 0.637531
O O12 0.378652 0.846207 0.785110
O O13 0.355329 0.921328 0.662370
O O14 0.141449 0.750000 0.634364
O O15 0.500000 0.501602 0.096065
O O16 0.339903 0.490072 0.192483
O O17 0.336153 0.500000 0.000000
O O18 0.500000 0.483265 0.291267
#
# Coordination Sequence:
#
# PCOD9537686 Si02
#       7
#    16  16  16  16  16  16  16
#     4  10  22  39  58  87 125 168 210 248 293 355
#     4  12  23  36  59  88 121 163 203 249 306 366
#     4  10  21  38  59  85 120 162 208 252 295 352
#     4  10  22  44  70  89 114 159 201 250 320 381
#     4  11  26  43  60  92 125 150 202 265 304 371
#     4  10  20  34  55  88 127 159 195 250 310 367
#     4   9  18  36  61  89 122 157 204 252 297 363
#
# _framework density 24.126705000000001
#
# number of rings (size 3 to 8) (size 9 to 14) (size 15 to 20)
#    0.000    1.714    1.429    3.000    0.000    9.143 
#    0.000    0.000    0.000    3.000    0.000    0.000 
#    0.000    0.000    0.000    0.000    0.000    0.000 
#
# Total GULP energy -313251.989850 kJ/mol
# GULP energy per Si atom -5593.785533 kJ/mol
# Density = 2.407179 g / cm^3
# Si number density = 24.126705 Si / 1000 Ang^3
#
#
#
# Elastic Constant Matrix: (Units=GPa)
#
#
# Indices 1 2 3 4 5 6 
#
# 1 91.1448 -6.9149 -4.9251 0.0001 0.0000 0.0000
# 2 -6.9149 113.2988 17.4156 0.0001 -0.0001 -0.0001
# 3 -4.9251 17.4156 54.8481 0.0001 -0.0001 -0.0001
# 4 0.0001 0.0001 0.0001 25.0116 -0.0001 -0.0001
# 5 0.0000 -0.0001 -0.0001 -0.0001 14.6738 0.0000
# 6 0.0000 -0.0001 -0.0001 -0.0001 0.0000 27.4134
#
#
#
# Elastic Compliance Matrix: (Units=1/GPa)
#
#
# Indices 1 2 3 4 5 6 
#
# 1 0.011057 0.000549 0.000819 0.000000 0.000000 0.000000
# 2 0.000549 0.009306 -0.002906 0.000000 0.000000 0.000000
# 3 0.000819 -0.002906 0.019228 0.000000 0.000000 0.000000
# 4 0.000000 0.000000 0.000000 0.039981 0.000000 0.000000
# 5 0.000000 0.000000 0.000000 0.000000 0.068149 0.000000
# 6 0.000000 0.000000 0.000000 0.000000 0.000000 0.036479
#
#
# Mechanical properties :
#
#
# Convention : Reuss Voigt Hill
#
# Bulk Modulus (GPa) = 27.38530 30.04922 28.71726
# Shear Modulus (GPa) = 25.06908 30.33417 27.70162
#
# Velocity S-wave (km/s) = 3.22694 3.54967 3.39215
# Velocity P-wave (km/s) = 5.02588 5.41128 5.22214
#
# Compressibility (1/GPa) = 0.03651594
#
# Stress axis : x y z
#
# Youngs Moduli (GPa) = 90.43686 107.45323 52.00666
#
# Poissons Ratio (x) = -0.05900 -0.04257
# Poissons Ratio (y) = -0.04965 0.15112
# Poissons Ratio (z) = -0.07403 0.31223
#
# Static dielectric constant tensor:
#      x y z
#    x 2.007190 0.000000 0.000000 
#    y 0.000000 1.879920 0.000000 
#    z 0.000000 0.000000 1.884710 
# 
# From -- ./inp_files/32757.got.cif
#   From: 2010.05.17/outbox.cif.g08.bks.cpg/sg74_17_cif.got.tgz:32757.got - 2010.06.03 17:57:02.
