data_PCOD9537503
_publ_section_title
;
Structure prediction by ZEFSAII (Michael W. Deem and Ramdas Pophale) SiO2 
 PCOD9537503
Probable space group: I M M A
;
_chemical_formula_sum "Si O2"
_cell_formula_units_Z 88
_cell_length_a 8.870149
_cell_length_b 18.723997
_cell_length_c 30.021324
_cell_angle_alpha 90.000000
_cell_angle_beta 90.000000
_cell_angle_gamma 90.000000
_cell_volume 4986.080887
_symmetry_space_group_name_H-M "I M M A"
_symmetry_group_IT_number 74
_symmetry_cell_setting 'orthorhombic'
loop_
_space_group_symop_operation_xyz
x,y,z
-x,1/2-y,z
x,-y,-z
-x,1/2+y,-z
-x,-y,-z
x,1/2+y,-z
-x,y,z
x,1/2-y,z
1/2+x,1/2+y,1/2+z
1/2-x,-y,1/2+z
1/2+x,1/2-y,1/2-z
1/2-x,y,1/2-z
1/2-x,1/2-y,1/2-z
1/2+x,y,1/2-z
1/2-x,1/2+y,1/2+z
1/2+x,-y,1/2+z
loop_
_atom_site_type_symbol
_atom_site_label
_atom_site_fract_x
_atom_site_fract_y
_atom_site_fract_z
Si Si1 0.817801 0.593271 0.799396
Si Si2 0.176121 0.955945 0.545900
Si Si3 0.680210 0.168064 0.898540
Si Si4 0.825590 0.166021 0.996160
Si Si5 0.681648 0.750000 0.700367
Si Si6 0.319843 0.028034 0.631403
O O1 0.750000 0.587451 0.750000
O O2 0.774847 0.672119 0.818788
O O3 0.770688 0.527338 0.830274
O O4 0.000000 0.591653 0.796447
O O5 0.239905 0.878704 0.533387
O O6 0.000000 0.954370 0.557829
O O7 0.191752 0.000000 0.500000
O O8 0.268587 0.992873 0.584957
O O9 0.500000 0.161169 0.901119
O O10 0.716891 0.250000 0.885573
O O11 0.748032 0.156362 0.947977
O O12 0.746709 0.106493 0.867344
O O13 0.821594 0.250000 0.006017
O O14 0.000000 0.142839 0.993326
O O15 0.500000 0.750000 0.702860
O O16 0.750000 0.750000 0.750000
O O17 0.500000 0.034741 0.632644
#
# Coordination Sequence:
#
# PCOD9537503 Si02
#       6
#    16  16  16  16   8  16
#     4   9  19  35  57  83 108 138 174 216 262 314
#     4  11  22  35  52  75 106 144 181 219 265 311
#     4  10  20  34  53  77 104 137 178 221 266 319
#     4  10  20  34  53  75 100 136 179 222 267 313
#     4   8  14  30  54  78 106 136 170 208 252 302
#     4  11  22  35  54  81 109 139 180 221 267 319
#
# _framework density 17.649132999999999
#
# number of rings (size 3 to 8) (size 9 to 14) (size 15 to 20)
#    0.000    2.000    1.818    2.182    0.000    4.364 
#    1.636    0.000    0.000    0.545    0.000    0.000 
#    0.000    0.000    0.000    0.000    0.000    0.000 
#
# Total GULP energy -245425.197538 kJ/mol
# GULP energy per Si atom -5577.845399 kJ/mol
# Density = 1.760896 g / cm^3
# Si number density = 17.649133 Si / 1000 Ang^3
#
#
#
# Elastic Constant Matrix: (Units=GPa)
#
#
# Indices 1 2 3 4 5 6 
#
# 1 33.1700 31.9092 15.2196 0.0000 0.0000 0.0000
# 2 31.9092 141.3992 46.9334 0.0000 0.0000 0.0000
# 3 15.2196 46.9334 40.2219 0.0000 0.0000 0.0000
# 4 0.0000 0.0000 0.0000 30.0765 0.0000 0.0000
# 5 0.0000 0.0000 0.0000 0.0000 19.4305 0.0000
# 6 0.0000 0.0000 0.0000 0.0000 0.0000 12.1796
#
#
#
# Elastic Compliance Matrix: (Units=1/GPa)
#
#
# Indices 1 2 3 4 5 6 
#
# 1 0.039841 -0.006507 -0.007482 0.000000 0.000000 0.000000
# 2 -0.006507 0.012606 -0.012247 0.000000 0.000000 0.000000
# 3 -0.007482 -0.012247 0.041984 0.000000 0.000000 0.000000
# 4 0.000000 0.000000 0.000000 0.033249 0.000000 0.000000
# 5 0.000000 0.000000 0.000000 0.000000 0.051465 0.000000
# 6 0.000000 0.000000 0.000000 0.000000 0.000000 0.082105
#
#
# Mechanical properties :
#
#
# Convention : Reuss Voigt Hill
#
# Bulk Modulus (GPa) = 23.83370 44.76836 34.30103
# Shear Modulus (GPa) = 15.25754 20.38592 17.82173
#
# Velocity S-wave (km/s) = 2.94341 3.40231 3.18115
# Velocity P-wave (km/s) = 5.00850 6.39180 5.74196
#
# Compressibility (1/GPa) = 0.04195739
#
# Stress axis : x y z
#
# Youngs Moduli (GPa) = 25.09989 79.32995 23.81887
#
# Poissons Ratio (x) = 0.51622 0.17822
# Poissons Ratio (y) = 0.16333 0.29170
# Poissons Ratio (z) = 0.18781 0.97153
#
# Static dielectric constant tensor:
#      x y z
#    x 1.592390 0.000000 0.000000 
#    y 0.000000 1.655200 0.000000 
#    z 0.000000 0.000000 1.570330 
# 
# From -- ./inp_files/57021.got.cif
#   From: 2010.05.17/outbox.cif.g08.bks.cpg/sg74_29_cif.got.tgz:57021.got - 2010.06.03 17:57:02.
