data_PCOD9537103
_publ_section_title
;
Structure prediction by ZEFSAII (Michael W. Deem and Ramdas Pophale) SiO2 
 PCOD9537103
Probable space group: I M M A
;
_chemical_formula_sum "Si O2"
_cell_formula_units_Z 112
_cell_length_a 16.141555
_cell_length_b 23.869436
_cell_length_c 15.441257
_cell_angle_alpha 90.000000
_cell_angle_beta 90.000000
_cell_angle_gamma 90.000000
_cell_volume 5949.359038
_symmetry_space_group_name_H-M "I M M A"
_symmetry_group_IT_number 74
_symmetry_cell_setting 'orthorhombic'
loop_
_space_group_symop_operation_xyz
x,y,z
-x,1/2-y,z
x,-y,-z
-x,1/2+y,-z
-x,-y,-z
x,1/2+y,-z
-x,y,z
x,1/2-y,z
1/2+x,1/2+y,1/2+z
1/2-x,-y,1/2+z
1/2+x,1/2-y,1/2-z
1/2-x,y,1/2-z
1/2-x,1/2-y,1/2-z
1/2+x,y,1/2-z
1/2-x,1/2+y,1/2+z
1/2+x,-y,1/2+z
loop_
_atom_site_type_symbol
_atom_site_label
_atom_site_fract_x
_atom_site_fract_y
_atom_site_fract_z
Si Si1 0.900037 0.684038 0.963563
Si Si2 0.599345 0.491642 0.396676
Si Si3 0.156276 0.814732 0.283319
Si Si4 0.902700 0.813263 0.652568
Si Si5 0.096468 0.113059 0.869816
Si Si6 0.403972 0.682059 0.033092
Si Si7 0.165241 0.380526 0.195347
O O1 0.890374 0.750000 0.980182
O O2 0.845957 0.664216 0.882244
O O3 0.000000 0.674393 0.946986
O O4 0.873126 0.648507 0.047675
O O5 0.612801 0.500000 0.500000
O O6 0.500000 0.483663 0.384859
O O7 0.630767 0.550722 0.358536
O O8 0.641976 0.439051 0.350275
O O9 0.127947 0.750000 0.279700
O O10 0.250000 0.816825 0.250000
O O11 0.105327 0.851493 0.216566
O O12 0.146547 0.834463 0.381969
O O13 0.870411 0.750000 0.673190
O O14 0.868543 0.835217 0.560435
O O15 0.894276 0.856265 0.730235
O O16 0.000000 0.806915 0.635151
O O17 0.000000 0.104056 0.889539
O O18 0.500000 0.664247 0.045068
O O19 0.403596 0.750000 0.029008
O O20 0.250000 0.383012 0.250000
#
# Coordination Sequence:
#
# PCOD9537103 Si02
#       7
#    16  16  16  16  16  16  16
#     4  10  20  35  57  87 121 153 189 236 288 343
#     4  10  20  40  65  81 103 146 201 245 280 332
#     4  10  20  32  49  79 117 150 179 221 287 351
#     4   9  18  34  56  80 110 152 196 231 268 326
#     4  10  20  35  60  86 106 141 192 250 295 329
#     4   8  15  30  51  71  97 141 189 223 254 310
#     4  12  24  35  54  85 119 151 184 228 289 344
#
# _framework density 18.825557
#
# number of rings (size 3 to 8) (size 9 to 14) (size 15 to 20)
#    0.000    2.143    1.429    3.429    0.000    5.429 
#    0.000    1.429    0.000    0.000    0.000    4.000 
#    0.000    0.000    0.000    0.000    0.000    0.000 
#
# Total GULP energy -312022.256537 kJ/mol
# GULP energy per Si atom -5571.826010 kJ/mol
# Density = 1.878271 g / cm^3
# Si number density = 18.825557 Si / 1000 Ang^3
#
#
#
# Elastic Constant Matrix: (Units=GPa)
#
#
# Indices 1 2 3 4 5 6 
#
# 1 25.7046 14.2587 8.8798 0.0000 0.0000 0.0000
# 2 14.2587 81.2862 33.5342 0.0000 0.0000 0.0000
# 3 8.8798 33.5342 119.8959 -0.0001 0.0000 0.0000
# 4 0.0000 0.0000 -0.0001 7.0622 0.0000 0.0000
# 5 0.0000 0.0000 0.0000 0.0000 15.9951 0.0000
# 6 0.0000 0.0000 0.0000 0.0000 0.0000 14.2132
#
#
#
# Elastic Compliance Matrix: (Units=1/GPa)
#
#
# Indices 1 2 3 4 5 6 
#
# 1 0.043255 -0.007083 -0.001222 0.000000 0.000000 0.000000
# 2 -0.007083 0.015067 -0.003689 0.000000 0.000000 0.000000
# 3 -0.001222 -0.003689 0.009463 0.000000 0.000000 0.000000
# 4 0.000000 0.000000 0.000000 0.141598 0.000000 0.000000
# 5 0.000000 0.000000 0.000000 0.000000 0.062519 0.000000
# 6 0.000000 0.000000 0.000000 0.000000 0.000000 0.070357
#
#
# Mechanical properties :
#
#
# Convention : Reuss Voigt Hill
#
# Bulk Modulus (GPa) = 22.83392 37.80357 30.31875
# Shear Modulus (GPa) = 13.12861 18.80172 15.96516
#
# Velocity S-wave (km/s) = 2.64366 3.16370 2.91530
# Velocity P-wave (km/s) = 4.63402 5.78532 5.24138
#
# Compressibility (1/GPa) = 0.04379449
#
# Stress axis : x y z
#
# Youngs Moduli (GPa) = 23.11875 66.37115 105.67434
#
# Poissons Ratio (x) = 0.47012 0.12918
# Poissons Ratio (y) = 0.16376 0.38989
# Poissons Ratio (z) = 0.02826 0.24488
#
# Static dielectric constant tensor:
#      x y z
#    x 1.708140 0.000000 0.000000 
#    y 0.000000 1.660710 0.000000 
#    z 0.000000 0.000000 1.672150 
# 
# From -- ./inp_files/32748.got.cif
#   From: 2010.05.17/outbox.cif.g08.bks.cpg/sg74_17_cif.got.tgz:32748.got - 2010.06.03 17:57:02.
