data_PCOD9537968
_publ_section_title
;
Structure prediction by ZEFSAII (Michael W. Deem and Ramdas Pophale) SiO2 
 PCOD9537968
Probable space group: I M M A
;
_chemical_formula_sum "Si O2"
_cell_formula_units_Z 96
_cell_length_a 24.273051
_cell_length_b 19.648428
_cell_length_c 11.559069
_cell_angle_alpha 90.000000
_cell_angle_beta 90.000000
_cell_angle_gamma 90.000000
_cell_volume 5512.835510
_symmetry_space_group_name_H-M "I M M A"
_symmetry_group_IT_number 74
_symmetry_cell_setting 'orthorhombic'
loop_
_space_group_symop_operation_xyz
x,y,z
-x,1/2-y,z
x,-y,-z
-x,1/2+y,-z
-x,-y,-z
x,1/2+y,-z
-x,y,z
x,1/2-y,z
1/2+x,1/2+y,1/2+z
1/2-x,-y,1/2+z
1/2+x,1/2-y,1/2-z
1/2-x,y,1/2-z
1/2-x,1/2-y,1/2-z
1/2+x,y,1/2-z
1/2-x,1/2+y,1/2+z
1/2+x,-y,1/2+z
loop_
_atom_site_type_symbol
_atom_site_label
_atom_site_fract_x
_atom_site_fract_y
_atom_site_fract_z
Si Si1 0.878131 0.056712 0.102119
Si Si2 0.304473 0.034549 0.184512
Si Si3 0.000000 0.167459 0.830448
Si Si4 0.695314 0.894772 0.051674
Si Si5 0.500000 0.924867 0.555900
Si Si6 0.686285 0.669996 0.463867
Si Si7 0.616913 0.331003 0.768383
O O1 0.851570 0.028344 0.219340
O O2 0.941478 0.078869 0.119869
O O3 0.842186 0.120572 0.057062
O O4 0.875549 0.000000 0.000000
O O5 0.250000 0.059488 0.250000
O O6 0.290264 0.962857 0.124071
O O7 0.319104 0.083798 0.078676
O O8 0.944612 0.146132 0.763862
O O9 0.000000 0.250000 0.843401
O O10 0.000000 0.131169 0.954468
O O11 0.749474 0.848008 0.049198
O O12 0.644519 0.862405 0.119231
O O13 0.500000 0.000000 0.500000
O O14 0.678919 0.750000 0.489880
O O15 0.655802 0.655210 0.342271
O O16 0.614938 0.250000 0.782800
#
# Coordination Sequence:
#
# PCOD9537968 Si02
#       7
#    16  16   8  16   8  16  16
#     4  11  21  38  59  86 117 150 192 238 290 346
#     4  11  22  36  56  82 113 157 194 227 288 347
#     4  10  20  36  59  85 113 149 192 240 291 338
#     4  11  22  36  55  83 118 152 188 237 285 351
#     4  10  22  34  59  89 112 147 187 242 287 335
#     4  11  21  35  59  89 116 145 186 242 298 344
#     4  10  20  35  57  83 111 145 188 237 290 339
#
# _framework density 17.413906000000001
#
# number of rings (size 3 to 8) (size 9 to 14) (size 15 to 20)
#    0.000    1.333    3.333    4.000    2.333    1.333 
#    0.000    3.333    0.000    2.000    0.000    0.000 
#    0.000    0.000    0.000    0.000    0.000    0.000 
#
# Total GULP energy -267992.645734 kJ/mol
# GULP energy per Si atom -5583.180119 kJ/mol
# Density = 1.737427 g / cm^3
# Si number density = 17.413906 Si / 1000 Ang^3
#
#
#
# Elastic Constant Matrix: (Units=GPa)
#
#
# Indices 1 2 3 4 5 6 
#
# 1 106.9616 14.7245 33.1446 0.0000 0.0000 0.0000
# 2 14.7245 49.8577 20.8748 0.0000 0.0000 0.0000
# 3 33.1446 20.8748 88.0872 0.0000 0.0000 0.0000
# 4 0.0000 0.0000 0.0000 23.0608 0.0000 0.0000
# 5 0.0000 0.0000 0.0000 0.0000 15.2837 0.0000
# 6 0.0000 0.0000 0.0000 0.0000 0.0000 20.4024
#
#
#
# Elastic Compliance Matrix: (Units=1/GPa)
#
#
# Indices 1 2 3 4 5 6 
#
# 1 0.010702 -0.001637 -0.003639 0.000000 0.000000 0.000000
# 2 -0.001637 0.022517 -0.004720 0.000000 0.000000 0.000000
# 3 -0.003639 -0.004720 0.013840 0.000000 0.000000 0.000000
# 4 0.000000 0.000000 0.000000 0.043364 0.000000 0.000000
# 5 0.000000 0.000000 0.000000 0.000000 0.065429 0.000000
# 6 0.000000 0.000000 0.000000 0.000000 0.000000 0.049014
#
#
# Mechanical properties :
#
#
# Convention : Reuss Voigt Hill
#
# Bulk Modulus (GPa) = 36.94538 42.48827 39.71682
# Shear Modulus (GPa) = 21.37844 23.49352 22.43598
#
# Velocity S-wave (km/s) = 3.50761 3.67703 3.59332
# Velocity P-wave (km/s) = 6.13730 6.51762 6.33032
#
# Compressibility (1/GPa) = 0.02706698
#
# Stress axis : x y z
#
# Youngs Moduli (GPa) = 93.43935 44.41128 72.25348
#
# Poissons Ratio (x) = 0.07271 0.26293
# Poissons Ratio (y) = 0.15297 0.34104
# Poissons Ratio (z) = 0.34002 0.20962
#
# Static dielectric constant tensor:
#      x y z
#    x 1.598950 0.000000 0.000000 
#    y 0.000000 1.749930 0.000000 
#    z 0.000000 0.000000 1.569320 
# 
# From -- ./inp_files/23966.got.cif
#   From: 2010.05.17/outbox.cif.g08.bks.cpg/sg74_12_cif.got.tgz:23966.got - 2010.06.03 17:57:02.
