data_PCOD9537299
_publ_section_title
;
Structure prediction by ZEFSAII (Michael W. Deem and Ramdas Pophale) SiO2 
 PCOD9537299
Probable space group: I M M A
;
_chemical_formula_sum "Si O2"
_cell_formula_units_Z 72
_cell_length_a 8.735497
_cell_length_b 26.062487
_cell_length_c 17.662243
_cell_angle_alpha 90.000000
_cell_angle_beta 90.000000
_cell_angle_gamma 90.000000
_cell_volume 4021.141263
_symmetry_space_group_name_H-M "I M M A"
_symmetry_group_IT_number 74
_symmetry_cell_setting 'orthorhombic'
loop_
_space_group_symop_operation_xyz
x,y,z
-x,1/2-y,z
x,-y,-z
-x,1/2+y,-z
-x,-y,-z
x,1/2+y,-z
-x,y,z
x,1/2-y,z
1/2+x,1/2+y,1/2+z
1/2-x,-y,1/2+z
1/2+x,1/2-y,1/2-z
1/2-x,y,1/2-z
1/2-x,1/2-y,1/2-z
1/2+x,y,1/2-z
1/2-x,1/2+y,1/2+z
1/2+x,-y,1/2+z
loop_
_atom_site_type_symbol
_atom_site_label
_atom_site_fract_x
_atom_site_fract_y
_atom_site_fract_z
Si Si1 0.678281 0.939901 0.517605
Si Si2 0.685716 0.694718 0.881090
Si Si3 0.684229 0.658327 0.051116
Si Si4 0.818491 0.588729 0.675281
Si Si5 0.685741 0.750000 0.164581
O O1 0.500000 0.926876 0.529703
O O2 0.743262 0.898606 0.456688
O O3 0.770790 0.934158 0.595346
O O4 0.688221 0.000000 0.500000
O O5 0.500000 0.695016 0.876128
O O6 0.745230 0.750000 0.857743
O O7 0.742526 0.647048 0.832919
O O8 0.719713 0.684245 0.969580
O O9 0.500000 0.652668 0.055701
O O10 0.731280 0.698560 0.116845
O O11 0.750000 0.563710 0.750000
O O12 0.000000 0.588984 0.681633
O O13 0.500000 0.750000 0.167110
O O14 0.750000 0.750000 0.250000
#
# Coordination Sequence:
#
# PCOD9537299 Si02
#       5
#    16  16  16  16   8
#     4  10  21  37  57  80 106 138 181 231 276 325
#     4   8  13  25  47  72  98 132 169 203 243 295
#     4   9  17  32  55  78 105 141 180 222 267 325
#     4  10  20  33  52  76 106 140 173 214 260 311
#     4  10  20  34  54  82 115 148 183 228 284 338
#
# _framework density 17.905363999999999
#
# number of rings (size 3 to 8) (size 9 to 14) (size 15 to 20)
#    0.000    2.667    1.111    2.667    0.000    3.111 
#    0.000    1.111    0.000    4.000    0.000    0.000 
#    0.000    0.000    0.000    0.000    0.000    0.000 
#
# Total GULP energy -200413.165592 kJ/mol
# GULP energy per Si atom -5567.032378 kJ/mol
# Density = 1.786461 g / cm^3
# Si number density = 17.905364 Si / 1000 Ang^3
#
#
#
# Elastic Constant Matrix: (Units=GPa)
#
#
# Indices 1 2 3 4 5 6 
#
# 1 41.9400 26.7835 24.3226 0.0000 0.0000 0.0000
# 2 26.7835 65.1287 16.3730 0.0000 0.0000 0.0000
# 3 24.3226 16.3730 95.5011 0.0001 0.0000 0.0000
# 4 0.0000 0.0000 0.0001 6.6105 0.0000 0.0000
# 5 0.0000 0.0000 0.0000 0.0000 25.5339 0.0000
# 6 0.0000 0.0000 0.0000 0.0000 0.0000 17.4229
#
#
#
# Elastic Compliance Matrix: (Units=1/GPa)
#
#
# Indices 1 2 3 4 5 6 
#
# 1 0.036311 -0.013175 -0.006989 0.000000 0.000000 0.000000
# 2 -0.013175 0.020827 -0.000215 0.000000 0.000000 0.000000
# 3 -0.006989 -0.000215 0.012288 0.000000 0.000000 0.000000
# 4 0.000000 0.000000 0.000000 0.151274 0.000000 0.000000
# 5 0.000000 0.000000 0.000000 0.000000 0.039164 0.000000
# 6 0.000000 0.000000 0.000000 0.000000 0.000000 0.057396
#
#
# Mechanical properties :
#
#
# Convention : Reuss Voigt Hill
#
# Bulk Modulus (GPa) = 34.88394 37.50311 36.19353
# Shear Modulus (GPa) = 13.60274 18.91951 16.26112
#
# Velocity S-wave (km/s) = 2.75926 3.25412 3.01686
# Velocity P-wave (km/s) = 5.44757 5.92535 5.69148
#
# Compressibility (1/GPa) = 0.02866648
#
# Stress axis : x y z
#
# Youngs Moduli (GPa) = 27.54000 48.01565 81.38081
#
# Poissons Ratio (x) = 0.63263 0.56877
# Poissons Ratio (y) = 0.36285 0.01750
# Poissons Ratio (z) = 0.19248 0.01032
#
# Static dielectric constant tensor:
#      x y z
#    x 1.602080 0.000000 0.000000 
#    y 0.000000 1.650640 0.000000 
#    z 0.000000 0.000000 1.598870 
# 
# From -- ./inp_files/29216.got.cif
#   From: 2010.05.17/outbox.cif.g08.bks.cpg/sg74_15_cif.got.tgz:29216.got - 2010.06.03 17:57:02.
