data_PCOD9537152
_publ_section_title
;
Structure prediction by ZEFSAII (Michael W. Deem and Ramdas Pophale) SiO2 
 PCOD9537152
Probable space group: I M M A
;
_chemical_formula_sum "Si O2"
_cell_formula_units_Z 72
_cell_length_a 10.101297
_cell_length_b 33.721989
_cell_length_c 13.890036
_cell_angle_alpha 90.000000
_cell_angle_beta 90.000000
_cell_angle_gamma 90.000000
_cell_volume 4731.443890
_symmetry_space_group_name_H-M "I M M A"
_symmetry_group_IT_number 74
_symmetry_cell_setting 'orthorhombic'
loop_
_space_group_symop_operation_xyz
x,y,z
-x,1/2-y,z
x,-y,-z
-x,1/2+y,-z
-x,-y,-z
x,1/2+y,-z
-x,y,z
x,1/2-y,z
1/2+x,1/2+y,1/2+z
1/2-x,-y,1/2+z
1/2+x,1/2-y,1/2-z
1/2-x,y,1/2-z
1/2-x,1/2-y,1/2-z
1/2+x,y,1/2-z
1/2-x,1/2+y,1/2+z
1/2+x,-y,1/2+z
loop_
_atom_site_type_symbol
_atom_site_label
_atom_site_fract_x
_atom_site_fract_y
_atom_site_fract_z
Si Si1 0.000000 0.020458 0.277555
Si Si2 0.500000 0.452178 0.018785
Si Si3 0.652487 0.750000 0.339877
Si Si4 0.341980 0.162283 0.653890
Si Si5 0.271523 0.417727 0.560154
Si Si6 0.750000 0.466176 0.750000
Si Si7 0.000000 0.457673 0.055165
O O1 0.000000 0.051058 0.365370
O O2 0.000000 0.036896 0.169309
O O3 0.130453 0.993407 0.286256
O O4 0.500000 0.500000 0.000000
O O5 0.372725 0.431478 0.972797
O O6 0.500000 0.750000 0.305774
O O7 0.750000 0.750000 0.250000
O O8 0.672046 0.707041 0.387791
O O9 0.500000 0.156065 0.675158
O O10 0.250000 0.159619 0.750000
O O11 0.293047 0.128422 0.581627
O O12 0.300052 0.439465 0.662005
O O13 0.372782 0.434128 0.481719
O O14 0.000000 0.500000 0.000000
#
# Coordination Sequence:
#
# PCOD9537152 Si02
#       7
#     8   8   8  16  16   8   8
#     4  12  24  36  52  66  96 132 180 214 268 290
#     4  12  24  38  50  73  99 137 175 221 261 303
#     4   8  16  32  48  74 106 137 167 200 252 307
#     4  10  20  32  53  77 107 140 171 209 252 307
#     4  12  22  34  52  76 103 133 180 209 252 306
#     4  12  20  32  52  71  96 136 166 217 248 302
#     4  12  22  36  52  71  95 133 175 225 253 303
#
# _framework density 15.217342
#
# number of rings (size 3 to 8) (size 9 to 14) (size 15 to 20)
#    0.000    0.889    6.667    2.000    1.556    0.000 
#    0.000    0.000    0.000    0.000    0.000    0.000 
#    0.000    5.333    0.000    0.000    0.000    0.000 
#
# Total GULP energy -200813.864710 kJ/mol
# GULP energy per Si atom -5578.162909 kJ/mol
# Density = 1.518271 g / cm^3
# Si number density = 15.217342 Si / 1000 Ang^3
#
#
#
# Elastic Constant Matrix: (Units=GPa)
#
#
# Indices 1 2 3 4 5 6 
#
# 1 94.9974 49.1284 3.9073 0.0000 0.0000 0.0000
# 2 49.1284 131.5504 32.9132 0.0000 0.0000 0.0000
# 3 3.9073 32.9132 74.5290 -0.0002 0.0000 0.0003
# 4 0.0000 0.0000 -0.0002 17.4895 0.0000 0.0001
# 5 0.0000 0.0000 0.0000 0.0000 32.3401 -0.0001
# 6 0.0000 0.0000 0.0003 0.0001 -0.0001 -5.7652
#
#
#
# Elastic Compliance Matrix: (Units=1/GPa)
#
#
# Indices 1 2 3 4 5 6 
#
# 1 0.013229 -0.005359 0.001673 0.000000 0.000000 0.000000
# 2 -0.005359 0.010717 -0.004452 0.000000 0.000000 0.000000
# 3 0.001673 -0.004452 0.015296 0.000000 0.000000 0.000001
# 4 0.000000 0.000000 0.000000 0.057177 0.000000 0.000001
# 5 0.000000 0.000000 0.000000 0.000000 0.030921 0.000000
# 6 0.000000 0.000000 0.000001 0.000001 0.000000 -0.173454
#
#
# Mechanical properties :
#
#
# Convention : Reuss Voigt Hill
#
# Bulk Modulus (GPa) = 43.54188 52.55272 48.04730
# Shear Modulus (GPa) = -225.40010 23.15474 -101.12268
#
# Velocity S-wave (km/s) = -12.18368 3.90500 -8.16067
# Velocity P-wave (km/s) = 13.00951 7.41227 7.55995
#
# Compressibility (1/GPa) = 0.02296640
#
# Stress axis : x y z
#
# Youngs Moduli (GPa) = 75.58966 93.31062 65.37712
#
# Poissons Ratio (x) = 0.50007 -0.10939
# Poissons Ratio (y) = 0.40510 0.29105
# Poissons Ratio (z) = -0.12647 0.41540
#
# Static dielectric constant tensor:
#      x y z
#    x 1.531380 0.000000 0.000000 
#    y 0.000000 1.527130 0.000000 
#    z 0.000000 0.000000 1.493570 
# 
# From -- ./inp_files/29460.got.cif
#   From: 2010.05.17/outbox.cif.g08.bks.cpg/sg74_15_cif.got.tgz:29460.got - 2010.06.03 17:57:02.
