data_PCOD9537107
_publ_section_title
;
Structure prediction by ZEFSAII (Michael W. Deem and Ramdas Pophale) SiO2 
 PCOD9537107
Probable space group: I M M A
;
_chemical_formula_sum "Si O2"
_cell_formula_units_Z 120
_cell_length_a 7.770022
_cell_length_b 28.064744
_cell_length_c 28.607811
_cell_angle_alpha 90.000000
_cell_angle_beta 90.000000
_cell_angle_gamma 90.000000
_cell_volume 6238.324495
_symmetry_space_group_name_H-M "I M M A"
_symmetry_group_IT_number 74
_symmetry_cell_setting 'orthorhombic'
loop_
_space_group_symop_operation_xyz
x,y,z
-x,1/2-y,z
x,-y,-z
-x,1/2+y,-z
-x,-y,-z
x,1/2+y,-z
-x,y,z
x,1/2-y,z
1/2+x,1/2+y,1/2+z
1/2-x,-y,1/2+z
1/2+x,1/2-y,1/2-z
1/2-x,y,1/2-z
1/2-x,1/2-y,1/2-z
1/2+x,y,1/2-z
1/2-x,1/2+y,1/2+z
1/2+x,-y,1/2+z
loop_
_atom_site_type_symbol
_atom_site_label
_atom_site_fract_x
_atom_site_fract_y
_atom_site_fract_z
Si Si1 0.295288 0.339516 0.136562
Si Si2 0.205448 0.569163 0.803938
Si Si3 0.710488 0.696785 0.063840
Si Si4 0.710280 0.551411 0.016079
Si Si5 0.709980 0.148135 0.032276
Si Si6 0.792339 0.750000 0.695610
Si Si7 0.205727 0.399157 0.609949
Si Si8 0.703890 0.537936 0.303248
O O1 0.500000 0.331945 0.132691
O O2 0.270021 0.390363 0.161236
O O3 0.226476 0.338564 0.083652
O O4 0.226789 0.297245 0.169286
O O5 0.250000 0.580735 0.750000
O O6 0.274359 0.515539 0.813444
O O7 0.000000 0.568462 0.807796
O O8 0.500000 0.697293 0.064525
O O9 0.769452 0.750000 0.075191
O O10 0.768363 0.654267 0.098246
O O11 0.761359 0.681526 0.011127
O O12 0.500000 0.550078 0.016397
O O13 0.767948 0.566697 0.067877
O O14 0.772100 0.500000 0.000000
O O15 0.760068 0.594352 0.981675
O O16 0.500000 0.149176 0.033021
O O17 0.750000 0.750000 0.750000
O O18 0.000000 0.750000 0.692730
O O19 0.242898 0.422750 0.659386
O O20 0.000000 0.397003 0.605319
O O21 0.500000 0.534112 0.305817
O O22 0.750000 0.550057 0.250000
#
# Coordination Sequence:
#
# PCOD9537107 Si02
#       8
#    16  16  16  16  16   8  16  16
#     4  10  20  32  50  74  98 128 167 211 256 300
#     4  10  21  36  52  71  95 125 164 206 252 304
#     4   8  14  26  47  75 106 135 166 209 251 290
#     4   8  14  24  40  68 102 130 160 200 241 284
#     4   8  15  25  40  68 100 131 164 200 244 287
#     4  10  22  36  48  68  94 124 166 212 261 306
#     4   9  17  29  49  77 104 134 171 206 248 299
#     4  10  21  36  54  76 103 133 165 205 252 301
#
# _framework density 19.235932999999999
#
# number of rings (size 3 to 8) (size 9 to 14) (size 15 to 20)
#    0.000    2.933    0.000    2.800    2.800    3.200 
#    0.000    0.000    0.000    4.400    0.000    0.000 
#    0.000    0.000    0.000    0.000    0.000    0.000 
#
# Total GULP energy -334602.536023 kJ/mol
# GULP energy per Si atom -5576.708934 kJ/mol
# Density = 1.919215 g / cm^3
# Si number density = 19.235933 Si / 1000 Ang^3
#
#
#
# Elastic Constant Matrix: (Units=GPa)
#
#
# Indices 1 2 3 4 5 6 
#
# 1 23.7158 6.1232 0.5328 0.0000 0.0000 0.0000
# 2 6.1232 165.1117 102.2835 0.0000 0.0000 0.0000
# 3 0.5328 102.2835 143.3114 0.0000 0.0000 0.0000
# 4 0.0000 0.0000 0.0000 15.5261 0.0000 0.0000
# 5 0.0000 0.0000 0.0000 0.0000 13.0573 0.0000
# 6 0.0000 0.0000 0.0000 0.0000 0.0000 7.6287
#
#
#
# Elastic Compliance Matrix: (Units=1/GPa)
#
#
# Indices 1 2 3 4 5 6 
#
# 1 0.042816 -0.002670 0.001746 0.000000 0.000000 0.000000
# 2 -0.002670 0.011023 -0.007857 0.000000 0.000000 0.000000
# 3 0.001746 -0.007857 0.012579 0.000000 0.000000 0.000000
# 4 0.000000 0.000000 0.000000 0.064408 0.000000 0.000000
# 5 0.000000 0.000000 0.000000 0.000000 0.076585 0.000000
# 6 0.000000 0.000000 0.000000 0.000000 0.000000 0.131084
#
#
# Mechanical properties :
#
#
# Convention : Reuss Voigt Hill
#
# Bulk Modulus (GPa) = 20.46799 61.11309 40.79054
# Shear Modulus (GPa) = 13.42851 22.12238 17.77544
#
# Velocity S-wave (km/s) = 2.64501 3.39493 3.04316
# Velocity P-wave (km/s) = 4.47121 6.87071 5.79648
#
# Compressibility (1/GPa) = 0.04885677
#
# Stress axis : x y z
#
# Youngs Moduli (GPa) = 23.35571 90.71962 79.49620
#
# Poissons Ratio (x) = 0.24218 -0.13881
# Poissons Ratio (y) = 0.06235 0.62463
# Poissons Ratio (z) = -0.04078 0.71281
#
# Static dielectric constant tensor:
#      x y z
#    x 1.718570 0.000000 0.000000 
#    y 0.000000 1.684310 0.000000 
#    z 0.000000 0.000000 1.651620 
# 
# From -- ./inp_files/65142.got.cif
#   From: 2010.05.17/outbox.cif.g08.bks.cpg/sg74_33_cif.got.tgz:65142.got - 2010.06.03 17:57:02.
