data_PCOD9537896
_publ_section_title
;
Structure prediction by ZEFSAII (Michael W. Deem and Ramdas Pophale) SiO2 
 PCOD9537896
Probable space group: I M M A
;
_chemical_formula_sum "Si O2"
_cell_formula_units_Z 96
_cell_length_a 15.839505
_cell_length_b 29.166382
_cell_length_c 10.386039
_cell_angle_alpha 90.000000
_cell_angle_beta 90.000000
_cell_angle_gamma 90.000000
_cell_volume 4798.153239
_symmetry_space_group_name_H-M "I M M A"
_symmetry_group_IT_number 74
_symmetry_cell_setting 'orthorhombic'
loop_
_space_group_symop_operation_xyz
x,y,z
-x,1/2-y,z
x,-y,-z
-x,1/2+y,-z
-x,-y,-z
x,1/2+y,-z
-x,y,z
x,1/2-y,z
1/2+x,1/2+y,1/2+z
1/2-x,-y,1/2+z
1/2+x,1/2-y,1/2-z
1/2-x,y,1/2-z
1/2-x,1/2-y,1/2-z
1/2+x,y,1/2-z
1/2-x,1/2+y,1/2+z
1/2+x,-y,1/2+z
loop_
_atom_site_type_symbol
_atom_site_label
_atom_site_fract_x
_atom_site_fract_y
_atom_site_fract_z
Si Si1 0.167602 0.302425 0.509947
Si Si2 0.596894 0.849513 0.256101
Si Si3 0.149426 0.860321 0.731550
Si Si4 0.101529 0.546644 0.839366
Si Si5 0.103105 0.555704 0.135655
Si Si6 0.629768 0.197487 0.474770
O O1 0.137588 0.250000 0.497051
O O2 0.148384 0.321836 0.650520
O O3 0.128089 0.335318 0.401436
O O4 0.268342 0.302159 0.488178
O O5 0.500000 0.852839 0.210863
O O6 0.631469 0.900544 0.283518
O O7 0.597093 0.823919 0.393075
O O8 0.250000 0.855839 0.750000
O O9 0.129066 0.913910 0.742450
O O10 0.108017 0.833765 0.852117
O O11 0.129391 0.494388 0.814213
O O12 0.000000 0.545979 0.841327
O O13 0.129290 0.559282 0.985500
O O14 0.000000 0.557066 0.135545
O O15 0.602565 0.250000 0.457343
#
# Coordination Sequence:
#
# PCOD9537896 Si02
#       6
#    16  16  16  16  16  16
#     4  10  22  38  53  74 110 149 175 209 271 326
#     4  11  21  35  55  81 108 137 176 222 265 310
#     4  10  20  35  56  80 107 137 180 224 264 307
#     4   9  16  32  57  80 103 136 176 220 265 313
#     4   8  16  31  55  81 103 133 173 214 264 317
#     4  10  20  36  57  77 101 140 187 222 254 313
#
# _framework density 20.007698999999999
#
# number of rings (size 3 to 8) (size 9 to 14) (size 15 to 20)
#    0.000    2.333    1.667    2.500    0.000    5.333 
#    0.000    2.500    0.000    6.000    0.000    0.000 
#    0.000    0.000    0.000    0.000    0.000    0.000 
#
# Total GULP energy -267932.012404 kJ/mol
# GULP energy per Si atom -5581.916925 kJ/mol
# Density = 1.996216 g / cm^3
# Si number density = 20.007699 Si / 1000 Ang^3
#
#
#
# Elastic Constant Matrix: (Units=GPa)
#
#
# Indices 1 2 3 4 5 6 
#
# 1 19.9075 8.5454 4.3653 0.0000 0.0000 -0.0002
# 2 8.5454 147.2453 36.1513 0.0003 0.0000 0.0004
# 3 4.3653 36.1513 70.0906 0.0024 -0.0004 0.0020
# 4 0.0000 0.0003 0.0024 35.4027 -0.0002 0.0012
# 5 0.0000 0.0000 -0.0004 -0.0002 5.2800 -0.0003
# 6 -0.0002 0.0004 0.0020 0.0012 -0.0003 8.5836
#
#
#
# Elastic Compliance Matrix: (Units=1/GPa)
#
#
# Indices 1 2 3 4 5 6 
#
# 1 0.051739 -0.002532 -0.001916 0.000000 0.000000 0.000002
# 2 -0.002532 0.007900 -0.003917 0.000000 0.000000 0.000000
# 3 -0.001916 -0.003917 0.016407 -0.000001 0.000001 -0.000004
# 4 0.000000 0.000000 -0.000001 0.028246 0.000001 -0.000004
# 5 0.000000 0.000000 0.000001 0.000001 0.189392 0.000006
# 6 0.000002 0.000000 -0.000004 -0.000004 0.000006 0.116501
#
#
# Mechanical properties :
#
#
# Convention : Reuss Voigt Hill
#
# Bulk Modulus (GPa) = 16.85901 37.26304 27.06103
# Shear Modulus (GPa) = 11.19348 22.39871 16.79610
#
# Velocity S-wave (km/s) = 2.36785 3.34953 2.90052
# Velocity P-wave (km/s) = 3.99001 5.79861 4.97715
#
# Compressibility (1/GPa) = 0.05931546
#
# Stress axis : x y z
#
# Youngs Moduli (GPa) = 19.32761 126.58181 60.95001
#
# Poissons Ratio (x) = 0.32053 0.11680
# Poissons Ratio (y) = 0.04894 0.23874
# Poissons Ratio (z) = 0.03704 0.49582
#
# Static dielectric constant tensor:
#      x y z
#    x 1.730180 0.000000 0.000000 
#    y 0.000000 1.717740 0.000000 
#    z 0.000000 0.000000 1.673990 
# 
# From -- ./inp_files/12612.got.cif
#   From: 2010.05.17/outbox.cif.g08.bks.cpg/sg74_7_cif.got.tgz:12612.got - 2010.06.03 17:57:02.
