data_PCOD9537982
_publ_section_title
;
Structure prediction by ZEFSAII (Michael W. Deem and Ramdas Pophale) SiO2 
 PCOD9537982
Probable space group: I M M A
;
_chemical_formula_sum "Si O2"
_cell_formula_units_Z 104
_cell_length_a 27.541658
_cell_length_b 21.907684
_cell_length_c 8.376366
_cell_angle_alpha 90.000000
_cell_angle_beta 90.000000
_cell_angle_gamma 90.000000
_cell_volume 5054.080959
_symmetry_space_group_name_H-M "I M M A"
_symmetry_group_IT_number 74
_symmetry_cell_setting 'orthorhombic'
loop_
_space_group_symop_operation_xyz
x,y,z
-x,1/2-y,z
x,-y,-z
-x,1/2+y,-z
-x,-y,-z
x,1/2+y,-z
-x,y,z
x,1/2-y,z
1/2+x,1/2+y,1/2+z
1/2-x,-y,1/2+z
1/2+x,1/2-y,1/2-z
1/2-x,y,1/2-z
1/2-x,1/2-y,1/2-z
1/2+x,y,1/2-z
1/2-x,1/2+y,1/2+z
1/2+x,-y,1/2+z
loop_
_atom_site_type_symbol
_atom_site_label
_atom_site_fract_x
_atom_site_fract_y
_atom_site_fract_z
Si Si1 0.750000 0.349066 0.250000
Si Si2 0.942362 0.250000 0.158977
Si Si3 0.158675 0.072779 0.786760
Si Si4 0.555349 0.615922 0.179818
Si Si5 0.689415 0.180602 0.945933
Si Si6 0.441821 0.250000 0.695245
Si Si7 0.094645 0.863257 0.642232
Si Si8 0.164062 0.561167 0.831049
O O1 0.767168 0.319369 0.420106
O O2 0.795309 0.391292 0.215461
O O3 0.926796 0.309595 0.252985
O O4 0.000000 0.250000 0.146617
O O5 0.920240 0.250000 0.981787
O O6 0.101267 0.078722 0.745919
O O7 0.187272 0.126826 0.690762
O O8 0.176408 0.004057 0.751221
O O9 0.161710 0.069293 0.978486
O O10 0.500000 0.603638 0.236667
O O11 0.568878 0.686538 0.219760
O O12 0.557936 0.611989 0.989360
O O13 0.686869 0.250000 0.879437
O O14 0.640718 0.165139 0.046718
O O15 0.500000 0.250000 0.683507
O O16 0.113998 0.916578 0.754388
#
# Coordination Sequence:
#
# PCOD9537982 Si02
#       8
#     8   8  16  16  16   8  16  16
#     4  10  23  40  70  90 127 166 208 258 316 403
#     4  11  19  31  53  86 117 158 203 247 313 378
#     4  10  23  40  65  88 129 165 213 266 317 380
#     4  10  20  36  57  86 119 164 211 255 313 382
#     4  10  21  40  63  97 131 162 201 258 327 381
#     4   9  19  31  51  79 115 150 199 250 297 369
#     4  10  20  35  57  84 124 162 198 262 306 374
#     4  10  23  44  60  91 118 169 216 264 322 379
#
# _framework density 20.577428999999999
#
# number of rings (size 3 to 8) (size 9 to 14) (size 15 to 20)
#    0.000    2.000    0.769    2.077    3.231    9.231 
#    1.385    5.385    0.000    0.000    0.000    0.000 
#    0.000    0.000    0.000    0.000    0.000    0.000 
#
# Total GULP energy -289556.064549 kJ/mol
# GULP energy per Si atom -5568.385857 kJ/mol
# Density = 2.053059 g / cm^3
# Si number density = 20.577429 Si / 1000 Ang^3
#
#
#
# Elastic Constant Matrix: (Units=GPa)
#
#
# Indices 1 2 3 4 5 6 
#
# 1 50.8958 17.1004 13.4886 0.0000 0.0000 0.0000
# 2 17.1004 113.8633 43.3068 0.0000 0.0000 0.0000
# 3 13.4886 43.3068 83.6685 0.0000 0.0000 0.0000
# 4 0.0000 0.0000 0.0000 13.9667 0.0000 0.0000
# 5 0.0000 0.0000 0.0000 0.0000 31.1601 0.0000
# 6 0.0000 0.0000 0.0000 0.0000 0.0000 38.4272
#
#
#
# Elastic Compliance Matrix: (Units=1/GPa)
#
#
# Indices 1 2 3 4 5 6 
#
# 1 0.021008 -0.002324 -0.002184 0.000000 0.000000 0.000000
# 2 -0.002324 0.011192 -0.005418 0.000000 0.000000 0.000000
# 3 -0.002184 -0.005418 0.015109 0.000000 0.000000 0.000000
# 4 0.000000 0.000000 0.000000 0.071599 0.000000 0.000000
# 5 0.000000 0.000000 0.000000 0.000000 0.032092 0.000000
# 6 0.000000 0.000000 0.000000 0.000000 0.000000 0.026023
#
#
# Mechanical properties :
#
#
# Convention : Reuss Voigt Hill
#
# Bulk Modulus (GPa) = 36.42247 44.02433 40.22340
# Shear Modulus (GPa) = 24.26856 28.34627 26.30741
#
# Velocity S-wave (km/s) = 3.43793 3.71555 3.57943
# Velocity P-wave (km/s) = 5.78773 6.31253 6.05582
#
# Compressibility (1/GPa) = 0.02745558
#
# Stress axis : x y z
#
# Youngs Moduli (GPa) = 47.60164 89.34623 66.18772
#
# Poissons Ratio (x) = 0.20768 0.14453
# Poissons Ratio (y) = 0.11065 0.35863
# Poissons Ratio (z) = 0.10394 0.48412
#
# Static dielectric constant tensor:
#      x y z
#    x 1.961220 0.000000 0.000000 
#    y 0.000000 1.770350 0.000000 
#    z 0.000000 0.000000 1.799040 
# 
# From -- ./inp_files/15274.got.cif
#   From: 2010.05.17/outbox.cif.g08.bks.cpg/sg74_8_cif.got.tgz:15274.got - 2010.06.03 17:57:02.
