data_PCOD9537590
_publ_section_title
;
Structure prediction by ZEFSAII (Michael W. Deem and Ramdas Pophale) SiO2 
 PCOD9537590
Probable space group: I M M A
;
_chemical_formula_sum "Si O2"
_cell_formula_units_Z 72
_cell_length_a 8.711502
_cell_length_b 14.829197
_cell_length_c 29.520636
_cell_angle_alpha 90.000000
_cell_angle_beta 90.000000
_cell_angle_gamma 90.000000
_cell_volume 3813.610943
_symmetry_space_group_name_H-M "I M M A"
_symmetry_group_IT_number 74
_symmetry_cell_setting 'orthorhombic'
loop_
_space_group_symop_operation_xyz
x,y,z
-x,1/2-y,z
x,-y,-z
-x,1/2+y,-z
-x,-y,-z
x,1/2+y,-z
-x,y,z
x,1/2-y,z
1/2+x,1/2+y,1/2+z
1/2-x,-y,1/2+z
1/2+x,1/2-y,1/2-z
1/2-x,y,1/2-z
1/2-x,1/2-y,1/2-z
1/2+x,y,1/2-z
1/2-x,1/2+y,1/2+z
1/2+x,-y,1/2+z
loop_
_atom_site_type_symbol
_atom_site_label
_atom_site_fract_x
_atom_site_fract_y
_atom_site_fract_z
Si Si1 0.181263 0.586009 0.614458
Si Si2 0.183336 0.250000 0.951702
Si Si3 0.816700 0.388575 0.873819
Si Si4 0.815131 0.250000 0.448444
Si Si5 0.172577 0.642857 0.794772
Si Si6 0.815969 0.750000 0.301356
O O1 0.263716 0.490026 0.617442
O O2 0.237987 0.659103 0.577504
O O3 0.217196 0.628970 0.663037
O O4 0.000000 0.572359 0.607862
O O5 0.222918 0.165869 0.919590
O O6 0.000000 0.250000 0.959123
O O7 0.264363 0.250000 0.999792
O O8 0.740663 0.336556 0.831135
O O9 0.000000 0.383406 0.867470
O O10 0.000000 0.250000 0.445349
O O11 0.157693 0.750000 0.788196
O O12 0.250000 0.602809 0.750000
O O13 0.000000 0.606892 0.802776
O O14 0.750000 0.750000 0.250000
O O15 0.000000 0.750000 0.299301
#
# Coordination Sequence:
#
# PCOD9537590 Si02
#       6
#    16   8  16   8  16   8
#     4  11  22  38  58  86 120 157 198 246 295 349
#     4   9  21  41  63  84 113 150 192 243 302 356
#     4  10  22  41  62  89 121 155 196 246 295 351
#     4  10  23  39  59  85 119 155 196 246 296 352
#     4  10  20  34  54  79 110 151 192 234 283 340
#     4  11  22  40  66  95 124 159 196 241 293 348
#
# _framework density 18.879745
#
# number of rings (size 3 to 8) (size 9 to 14) (size 15 to 20)
#    0.000    1.778    1.111    3.667    0.000    7.111 
#    0.000    8.889    0.000    0.000    0.000    0.000 
#    0.000    0.000    0.000    0.000    0.000    0.000 
#
# Total GULP energy -200854.673831 kJ/mol
# GULP energy per Si atom -5579.296495 kJ/mol
# Density = 1.883677 g / cm^3
# Si number density = 18.879745 Si / 1000 Ang^3
#
#
#
# Elastic Constant Matrix: (Units=GPa)
#
#
# Indices 1 2 3 4 5 6 
#
# 1 65.9587 45.1594 40.2992 0.0000 0.0000 0.0000
# 2 45.1594 118.4046 65.2801 0.0000 0.0000 0.0000
# 3 40.2992 65.2801 157.6706 0.0000 0.0000 0.0000
# 4 0.0000 0.0000 0.0000 -18.9642 0.0000 0.0000
# 5 0.0000 0.0000 0.0000 0.0000 33.1730 0.0000
# 6 0.0000 0.0000 0.0000 0.0000 0.0000 24.4212
#
#
#
# Elastic Compliance Matrix: (Units=1/GPa)
#
#
# Indices 1 2 3 4 5 6 
#
# 1 0.021374 -0.006661 -0.002705 0.000000 0.000000 0.000000
# 2 -0.006661 0.013019 -0.003688 0.000000 0.000000 0.000000
# 3 -0.002705 -0.003688 0.008561 0.000000 0.000000 0.000000
# 4 0.000000 0.000000 0.000000 -0.052731 0.000000 0.000000
# 5 0.000000 0.000000 0.000000 0.000000 0.030145 0.000000
# 6 0.000000 0.000000 0.000000 0.000000 0.000000 0.040948
#
#
# Mechanical properties :
#
#
# Convention : Reuss Voigt Hill
#
# Bulk Modulus (GPa) = 59.36002 71.50126 65.43064
# Shear Modulus (GPa) = 53.74076 20.47901 37.10988
#
# Velocity S-wave (km/s) = 5.34103 3.29706 4.43831
# Velocity P-wave (km/s) = 8.33935 7.24212 7.81003
#
# Compressibility (1/GPa) = 0.01684635
#
# Stress axis : x y z
#
# Youngs Moduli (GPa) = 46.78547 76.80951 116.81241
#
# Poissons Ratio (x) = 0.51159 0.31602
# Poissons Ratio (y) = 0.31162 0.43080
# Poissons Ratio (z) = 0.12657 0.28327
#
# Static dielectric constant tensor:
#      x y z
#    x 1.664640 0.000000 0.000000 
#    y 0.000000 1.779000 0.000000 
#    z 0.000000 0.000000 1.628780 
# 
# From -- ./inp_files/63710.got.cif
#   From: 2010.05.17/outbox.cif.g08.bks.cpg/sg74_32_cif.got.tgz:63710.got - 2010.06.03 17:57:02.
