data_PCOD9537656
_publ_section_title
;
Structure prediction by ZEFSAII (Michael W. Deem and Ramdas Pophale) SiO2 
 PCOD9537656
Probable space group: I M M A
;
_chemical_formula_sum "Si O2"
_cell_formula_units_Z 96
_cell_length_a 15.133935
_cell_length_b 14.327107
_cell_length_c 20.808816
_cell_angle_alpha 90.000000
_cell_angle_beta 90.000000
_cell_angle_gamma 90.000000
_cell_volume 4511.882060
_symmetry_space_group_name_H-M "I M M A"
_symmetry_group_IT_number 74
_symmetry_cell_setting 'orthorhombic'
loop_
_space_group_symop_operation_xyz
x,y,z
-x,1/2-y,z
x,-y,-z
-x,1/2+y,-z
-x,-y,-z
x,1/2+y,-z
-x,y,z
x,1/2-y,z
1/2+x,1/2+y,1/2+z
1/2-x,-y,1/2+z
1/2+x,1/2-y,1/2-z
1/2-x,y,1/2-z
1/2-x,1/2-y,1/2-z
1/2+x,y,1/2-z
1/2-x,1/2+y,1/2+z
1/2+x,-y,1/2+z
loop_
_atom_site_type_symbol
_atom_site_label
_atom_site_fract_x
_atom_site_fract_y
_atom_site_fract_z
Si Si1 0.394976 0.961811 0.168053
Si Si2 0.102535 0.862501 0.462774
Si Si3 0.601644 0.635774 0.436248
Si Si4 0.766030 0.862441 0.954050
Si Si5 0.891797 0.857940 0.204948
Si Si6 0.790782 0.358936 0.320395
O O1 0.500000 0.949552 0.168397
O O2 0.365472 0.910379 0.103066
O O3 0.360214 0.914219 0.233268
O O4 0.370235 0.069667 0.170889
O O5 0.106198 0.750000 0.454393
O O6 0.169095 0.888975 0.519660
O O7 0.000000 0.887041 0.475698
O O8 0.500000 0.606532 0.444442
O O9 0.601668 0.750000 0.434437
O O10 0.661815 0.604482 0.495126
O O11 0.635528 0.606791 0.365598
O O12 0.770244 0.750000 0.957569
O O13 0.775031 0.884825 0.879074
O O14 0.865799 0.750000 0.212053
O O15 0.000000 0.859979 0.203703
O O16 0.815654 0.250000 0.328282
O O17 0.750000 0.369582 0.250000
#
# Coordination Sequence:
#
# PCOD9537656 Si02
#       6
#    16  16  16  16  16  16
#     4  10  20  34  55  82 110 143 182 220 261 314
#     4   9  18  33  55  86 121 149 171 203 258 332
#     4   8  14  27  51  83 114 141 170 209 264 330
#     4   9  18  34  55  78 106 140 179 224 274 325
#     4   8  14  27  50  82 119 149 167 195 252 328
#     4  10  23  42  57  70  96 138 188 239 284 319
#
# _framework density 21.277152999999998
#
# number of rings (size 3 to 8) (size 9 to 14) (size 15 to 20)
#    0.000    3.000    0.000    1.500    0.000    5.000 
#    0.000    4.167    0.000    8.000    0.000    5.833 
#    0.000    0.000    0.000    0.000    0.000    0.000 
#
# Total GULP energy -267941.943121 kJ/mol
# GULP energy per Si atom -5582.123815 kJ/mol
# Density = 2.122873 g / cm^3
# Si number density = 21.277153 Si / 1000 Ang^3
#
#
#
# Elastic Constant Matrix: (Units=GPa)
#
#
# Indices 1 2 3 4 5 6 
#
# 1 44.1569 11.2097 43.3187 0.0000 0.0000 0.0000
# 2 11.2097 75.5431 41.6100 0.0000 0.0000 0.0000
# 3 43.3187 41.6100 193.1735 0.0000 0.0000 0.0000
# 4 0.0000 0.0000 0.0000 -0.3204 0.0000 0.0000
# 5 0.0000 0.0000 0.0000 0.0000 20.4622 0.0000
# 6 0.0000 0.0000 0.0000 0.0000 0.0000 16.2326
#
#
#
# Elastic Compliance Matrix: (Units=1/GPa)
#
#
# Indices 1 2 3 4 5 6 
#
# 1 0.029078 -0.000821 -0.006344 0.000000 0.000000 0.000000
# 2 -0.000821 0.015043 -0.003056 0.000000 0.000000 0.000000
# 3 -0.006344 -0.003056 0.007258 0.000000 0.000000 0.000000
# 4 0.000000 0.000000 0.000000 -3.121015 0.000000 0.000000
# 5 0.000000 0.000000 0.000000 0.000000 0.048871 0.000000
# 6 0.000000 0.000000 0.000000 0.000000 0.000000 0.061605
#
#
# Mechanical properties :
#
#
# Convention : Reuss Voigt Hill
#
# Bulk Modulus (GPa) = 32.32358 56.12780 44.22569
# Shear Modulus (GPa) = -1.70741 21.72387 10.00823
#
# Velocity S-wave (km/s) = -0.89677 3.19877 2.17116
# Velocity P-wave (km/s) = 3.76197 6.33083 5.20730
#
# Compressibility (1/GPa) = 0.03093716
#
# Stress axis : x y z
#
# Youngs Moduli (GPa) = 34.38979 66.47770 137.78581
#
# Poissons Ratio (x) = 0.05455 0.87412
# Poissons Ratio (y) = 0.02822 0.42110
# Poissons Ratio (z) = 0.21817 0.20317
#
# Static dielectric constant tensor:
#      x y z
#    x 1.758680 0.000000 0.000000 
#    y 0.000000 1.767570 0.000000 
#    z 0.000000 0.000000 1.786980 
# 
# From -- ./inp_files/51852.got.cif
#   From: 2010.05.17/outbox.cif.g08.bks.cpg/sg74_26_cif.got.tgz:51852.got - 2010.06.03 17:57:02.
