data_PCOD9537098
_publ_section_title
;
Structure prediction by ZEFSAII (Michael W. Deem and Ramdas Pophale) SiO2 
 PCOD9537098
Probable space group: I M M A
;
_chemical_formula_sum "Si O2"
_cell_formula_units_Z 96
_cell_length_a 14.561843
_cell_length_b 15.278507
_cell_length_c 23.087394
_cell_angle_alpha 90.000000
_cell_angle_beta 90.000000
_cell_angle_gamma 90.000000
_cell_volume 5136.557763
_symmetry_space_group_name_H-M "I M M A"
_symmetry_group_IT_number 74
_symmetry_cell_setting 'orthorhombic'
loop_
_space_group_symop_operation_xyz
x,y,z
-x,1/2-y,z
x,-y,-z
-x,1/2+y,-z
-x,-y,-z
x,1/2+y,-z
-x,y,z
x,1/2-y,z
1/2+x,1/2+y,1/2+z
1/2-x,-y,1/2+z
1/2+x,1/2-y,1/2-z
1/2-x,y,1/2-z
1/2-x,1/2-y,1/2-z
1/2+x,y,1/2-z
1/2-x,1/2+y,1/2+z
1/2+x,-y,1/2+z
loop_
_atom_site_type_symbol
_atom_site_label
_atom_site_fract_x
_atom_site_fract_y
_atom_site_fract_z
Si Si1 0.398925 0.424089 0.351777
Si Si2 0.798747 0.025577 0.361971
Si Si3 0.697395 0.403429 0.015381
Si Si4 0.890628 0.346032 0.595714
Si Si5 0.108245 0.652057 0.726545
Si Si6 0.400437 0.353118 0.480188
O O1 0.500000 0.466367 0.346587
O O2 0.310755 0.485994 0.355969
O O3 0.385641 0.364299 0.295330
O O4 0.400031 0.368991 0.411066
O O5 0.812427 0.095176 0.415381
O O6 0.839581 0.075172 0.306751
O O7 0.844276 0.931892 0.375764
O O8 0.805198 0.394328 0.998845
O O9 0.665485 0.500000 0.000000
O O10 0.639941 0.344994 0.971837
O O11 0.865182 0.250000 0.620434
O O12 0.000000 0.355807 0.599643
O O13 0.142138 0.750000 0.712506
O O14 0.000000 0.647636 0.711345
O O15 0.500000 0.386755 0.502058
O O16 0.396026 0.250000 0.491879
#
# Coordination Sequence:
#
# PCOD9537098 Si02
#       6
#    16  16  16  16  16  16
#     4   9  18  32  49  71 102 136 164 194 243 301
#     4  10  20  33  52  76 101 132 171 211 246 293
#     4   9  19  32  47  69  95 125 161 204 251 296
#     4  10  21  37  55  72  95 130 168 208 254 299
#     4  10  20  32  49  77 110 139 167 202 246 298
#     4   9  16  27  45  68  95 127 161 195 232 284
#
# _framework density 18.689558999999999
#
# number of rings (size 3 to 8) (size 9 to 14) (size 15 to 20)
#    0.000    2.500    0.000    2.000    0.000   10.667 
#    0.000    4.167    0.000    3.500    0.000    2.333 
#    0.000    0.000    0.000    0.000    0.000    0.000 
#
# Total GULP energy -267219.583522 kJ/mol
# GULP energy per Si atom -5567.074657 kJ/mol
# Density = 1.864702 g / cm^3
# Si number density = 18.689559 Si / 1000 Ang^3
#
#
#
# Elastic Constant Matrix: (Units=GPa)
#
#
# Indices 1 2 3 4 5 6 
#
# 1 84.5288 51.7025 13.6626 0.0000 0.0000 0.0000
# 2 51.7025 105.3051 9.5488 0.0000 0.0000 0.0000
# 3 13.6626 9.5488 32.8384 0.0000 0.0000 0.0000
# 4 0.0000 0.0000 0.0000 5.3114 0.0000 0.0000
# 5 0.0000 0.0000 0.0000 0.0000 26.6762 0.0000
# 6 0.0000 0.0000 0.0000 0.0000 0.0000 -27.9161
#
#
#
# Elastic Compliance Matrix: (Units=1/GPa)
#
#
# Indices 1 2 3 4 5 6 
#
# 1 0.017660 -0.008221 -0.004957 0.000000 0.000000 0.000000
# 2 -0.008221 0.013581 -0.000528 0.000000 0.000000 0.000000
# 3 -0.004957 -0.000528 0.032668 0.000000 0.000000 0.000000
# 4 0.000000 0.000000 0.000000 0.188274 0.000000 0.000000
# 5 0.000000 0.000000 0.000000 0.000000 0.037487 0.000000
# 6 0.000000 0.000000 0.000000 0.000000 0.000000 -0.035822
#
#
# Mechanical properties :
#
#
# Convention : Reuss Voigt Hill
#
# Bulk Modulus (GPa) = 27.40069 41.38891 34.39480
# Shear Modulus (GPa) = 17.04006 10.66486 13.85246
#
# Velocity S-wave (km/s) = 3.02278 2.39138 2.72543
# Velocity P-wave (km/s) = 5.18418 5.46063 5.32420
#
# Compressibility (1/GPa) = 0.03649544
#
# Stress axis : x y z
#
# Youngs Moduli (GPa) = 56.62499 73.63461 30.61079
#
# Poissons Ratio (x) = 0.60537 0.15174
# Poissons Ratio (y) = 0.46553 0.01618
# Poissons Ratio (z) = 0.28069 0.03891
#
# Static dielectric constant tensor:
#      x y z
#    x 1.695860 0.000000 0.000000 
#    y 0.000000 1.642710 0.000000 
#    z 0.000000 0.000000 1.677590 
# 
# From -- ./inp_files/51886.got.cif
#   From: 2010.05.17/outbox.cif.g08.bks.cpg/sg74_26_cif.got.tgz:51886.got - 2010.06.03 17:57:02.
