data_PCOD9537016
_publ_section_title
;
Structure prediction by ZEFSAII (Michael W. Deem and Ramdas Pophale) SiO2 
 PCOD9537016
Probable space group: I M M A
;
_chemical_formula_sum "Si O2"
_cell_formula_units_Z 104
_cell_length_a 8.860415
_cell_length_b 21.119211
_cell_length_c 32.198271
_cell_angle_alpha 90.000000
_cell_angle_beta 90.000000
_cell_angle_gamma 90.000000
_cell_volume 6025.100622
_symmetry_space_group_name_H-M "I M M A"
_symmetry_group_IT_number 74
_symmetry_cell_setting 'orthorhombic'
loop_
_space_group_symop_operation_xyz
x,y,z
-x,1/2-y,z
x,-y,-z
-x,1/2+y,-z
-x,-y,-z
x,1/2+y,-z
-x,y,z
x,1/2-y,z
1/2+x,1/2+y,1/2+z
1/2-x,-y,1/2+z
1/2+x,1/2-y,1/2-z
1/2-x,y,1/2-z
1/2-x,1/2-y,1/2-z
1/2+x,y,1/2-z
1/2-x,1/2+y,1/2+z
1/2+x,-y,1/2+z
loop_
_atom_site_type_symbol
_atom_site_label
_atom_site_fract_x
_atom_site_fract_y
_atom_site_fract_z
Si Si1 0.180430 0.321766 0.023014
Si Si2 0.820940 0.011541 0.793700
Si Si3 0.674075 0.427690 0.080612
Si Si4 0.675273 0.113666 0.176170
Si Si5 0.681909 0.750000 0.795376
Si Si6 0.681153 0.178641 0.931813
Si Si7 0.682929 0.556338 0.119829
O O1 0.228804 0.250000 0.036599
O O2 0.239349 0.378823 0.051475
O O3 0.000000 0.322667 0.022737
O O4 0.242193 0.330515 0.976435
O O5 0.750000 0.033265 0.750000
O O6 0.774426 0.938049 0.800317
O O7 0.000000 0.018453 0.792710
O O8 0.753066 0.044963 0.834814
O O9 0.500000 0.430465 0.066295
O O10 0.677544 0.400876 0.127412
O O11 0.729752 0.499743 0.088071
O O12 0.500000 0.106882 0.190110
O O13 0.728259 0.184922 0.183091
O O14 0.500000 0.750000 0.794097
O O15 0.750000 0.750000 0.750000
O O16 0.500000 0.174872 0.937537
O O17 0.717506 0.250000 0.917300
O O18 0.723606 0.123594 0.899888
O O19 0.500000 0.551355 0.123767
#
# Coordination Sequence:
#
# PCOD9537016 Si02
#       7
#    16  16  16  16   8  16  16
#     4  10  21  34  48  71 105 141 177 219 259 300
#     4  11  21  34  54  77 103 135 170 208 253 305
#     4   9  18  32  51  72  98 134 174 216 258 303
#     4   9  19  34  50  70  97 131 173 219 264 308
#     4  10  20  32  46  66  92 126 170 216 264 312
#     4   9  18  35  59  82 103 133 170 206 252 313
#     4   9  19  36  56  80 107 132 167 213 258 307
#
# _framework density 17.261122
#
# number of rings (size 3 to 8) (size 9 to 14) (size 15 to 20)
#    0.000    2.462    0.000    3.231    1.077    6.462 
#    0.000    3.077    0.000    0.462    0.000    0.000 
#    0.000    0.000    0.000    0.000    0.000    0.000 
#
# Total GULP energy -289930.800669 kJ/mol
# GULP energy per Si atom -5575.592321 kJ/mol
# Density = 1.722183 g / cm^3
# Si number density = 17.261122 Si / 1000 Ang^3
#
#
#
# Elastic Constant Matrix: (Units=GPa)
#
#
# Indices 1 2 3 4 5 6 
#
# 1 49.4396 44.2153 40.1297 0.0000 0.0000 0.0000
# 2 44.2153 142.8264 76.7271 0.0000 0.0000 0.0000
# 3 40.1297 76.7271 80.7528 0.0000 0.0000 0.0000
# 4 0.0000 0.0000 0.0000 14.6449 0.0000 0.0000
# 5 0.0000 0.0000 0.0000 0.0000 26.8078 0.0000
# 6 0.0000 0.0000 0.0000 0.0000 0.0000 17.3239
#
#
#
# Elastic Compliance Matrix: (Units=1/GPa)
#
#
# Indices 1 2 3 4 5 6 
#
# 1 0.034521 -0.003005 -0.014300 0.000000 0.000000 0.000000
# 2 -0.003005 0.014563 -0.012344 0.000000 0.000000 0.000000
# 3 -0.014300 -0.012344 0.031218 0.000000 0.000000 0.000000
# 4 0.000000 0.000000 0.000000 0.068283 0.000000 0.000000
# 5 0.000000 0.000000 0.000000 0.000000 0.037303 0.000000
# 6 0.000000 0.000000 0.000000 0.000000 0.000000 0.057724
#
#
# Mechanical properties :
#
#
# Convention : Reuss Voigt Hill
#
# Bulk Modulus (GPa) = 47.60754 66.12922 56.86838
# Shear Modulus (GPa) = 16.13368 19.21842 17.67605
#
# Velocity S-wave (km/s) = 3.06058 3.34038 3.20353
# Velocity P-wave (km/s) = 6.33484 7.29875 6.83381
#
# Compressibility (1/GPa) = 0.02100508
#
# Stress axis : x y z
#
# Youngs Moduli (GPa) = 28.96756 68.66853 32.03264
#
# Poissons Ratio (x) = 0.20633 0.45808
# Poissons Ratio (y) = 0.08704 0.39540
# Poissons Ratio (z) = 0.41425 0.84761
#
# Static dielectric constant tensor:
#      x y z
#    x 1.589470 0.000000 0.000000 
#    y 0.000000 1.486440 0.000000 
#    z 0.000000 0.000000 1.555690 
# 
# From -- ./inp_files/70792.got.cif
#   From: 2010.05.17/outbox.cif.g08.bks.cpg/sg74_36_cif.got.tgz:70792.got - 2010.06.03 17:57:02.
