data_PCOD9537261
_publ_section_title
;
Structure prediction by ZEFSAII (Michael W. Deem and Ramdas Pophale) SiO2 
 PCOD9537261
Probable space group: I M M A
;
_chemical_formula_sum "Si O2"
_cell_formula_units_Z 72
_cell_length_a 7.610472
_cell_length_b 13.678765
_cell_length_c 33.008476
_cell_angle_alpha 90.000000
_cell_angle_beta 90.000000
_cell_angle_gamma 90.000000
_cell_volume 3436.243682
_symmetry_space_group_name_H-M "I M M A"
_symmetry_group_IT_number 74
_symmetry_cell_setting 'orthorhombic'
loop_
_space_group_symop_operation_xyz
x,y,z
-x,1/2-y,z
x,-y,-z
-x,1/2+y,-z
-x,-y,-z
x,1/2+y,-z
-x,y,z
x,1/2-y,z
1/2+x,1/2+y,1/2+z
1/2-x,-y,1/2+z
1/2+x,1/2-y,1/2-z
1/2-x,y,1/2-z
1/2-x,1/2-y,1/2-z
1/2+x,y,1/2-z
1/2-x,1/2+y,1/2+z
1/2+x,-y,1/2+z
loop_
_atom_site_type_symbol
_atom_site_label
_atom_site_fract_x
_atom_site_fract_y
_atom_site_fract_z
Si Si1 0.791363 0.859296 0.297520
Si Si2 0.785734 0.855944 0.017287
Si Si3 0.790591 0.058693 0.155810
Si Si4 0.788707 0.250000 0.202703
Si Si5 0.214709 0.452807 0.064474
O O1 0.720812 0.750000 0.308368
O O2 0.750000 0.875555 0.250000
O O3 0.000000 0.854892 0.301531
O O4 0.734254 0.952762 0.323605
O O5 0.725643 0.750000 0.030478
O O6 0.000000 0.857494 0.017541
O O7 0.733117 0.877965 0.970940
O O8 0.729665 0.942364 0.046754
O O9 0.721615 0.150015 0.181997
O O10 0.000000 0.072120 0.153057
O O11 0.721416 0.062871 0.109856
O O12 0.750000 0.250000 0.250000
O O13 0.000000 0.250000 0.198463
O O14 0.000000 0.451599 0.065514
#
# Coordination Sequence:
#
# PCOD9537261 Si02
#       5
#    16  16  16   8  16
#     4  10  21  37  56  77 101 130 166 209 259 313
#     4   8  13  22  38  60  92 131 165 202 246 294
#     4  10  20  33  51  76 106 138 173 214 257 306
#     4  10  22  36  50  72 102 138 176 214 260 306
#     4   8  15  25  38  64  96 128 167 204 246 296
#
# _framework density 20.953112000000001
#
# number of rings (size 3 to 8) (size 9 to 14) (size 15 to 20)
#    0.000    2.889    0.000    2.667    1.556    4.889 
#    0.000    2.222    0.000    0.000    0.000    3.111 
#    0.000    1.778    0.000    0.000    0.000    0.000 
#
# Total GULP energy -200785.264598 kJ/mol
# GULP energy per Si atom -5577.368461 kJ/mol
# Density = 2.090542 g / cm^3
# Si number density = 20.953112 Si / 1000 Ang^3
#
#
#
# Elastic Constant Matrix: (Units=GPa)
#
#
# Indices 1 2 3 4 5 6 
#
# 1 43.6995 6.2295 5.7453 0.0000 0.0000 0.0000
# 2 6.2295 123.5909 63.7714 0.0000 0.0000 0.0000
# 3 5.7453 63.7714 144.6841 0.0000 0.0000 0.0000
# 4 0.0000 0.0000 0.0000 5.3905 0.0000 0.0000
# 5 0.0000 0.0000 0.0000 0.0000 8.4033 0.0000
# 6 0.0000 0.0000 0.0000 0.0000 0.0000 18.8954
#
#
#
# Elastic Compliance Matrix: (Units=1/GPa)
#
#
# Indices 1 2 3 4 5 6 
#
# 1 0.023080 -0.000894 -0.000523 0.000000 0.000000 0.000000
# 2 -0.000894 0.010508 -0.004596 0.000000 0.000000 0.000000
# 3 -0.000523 -0.004596 0.008958 0.000000 0.000000 0.000000
# 4 0.000000 0.000000 0.000000 0.185512 0.000000 0.000000
# 5 0.000000 0.000000 0.000000 0.000000 0.119001 0.000000
# 6 0.000000 0.000000 0.000000 0.000000 0.000000 0.052923
#
#
# Mechanical properties :
#
#
# Convention : Reuss Voigt Hill
#
# Bulk Modulus (GPa) = 32.76421 51.49632 42.13027
# Shear Modulus (GPa) = 11.84330 22.28638 17.06484
#
# Velocity S-wave (km/s) = 2.38003 3.26487 2.85692
# Velocity P-wave (km/s) = 4.81909 6.23240 5.57075
#
# Compressibility (1/GPa) = 0.03052111
#
# Stress axis : x y z
#
# Youngs Moduli (GPa) = 43.32815 95.16842 111.63124
#
# Poissons Ratio (x) = 0.08505 0.05834
# Poissons Ratio (y) = 0.03872 0.51305
# Poissons Ratio (z) = 0.02264 0.43739
#
# Static dielectric constant tensor:
#      x y z
#    x 1.831280 0.000000 0.000000 
#    y 0.000000 1.757770 0.000000 
#    z 0.000000 0.000000 1.560740 
# 
# From -- ./inp_files/63603.got.cif
#   From: 2010.05.17/outbox.cif.g08.bks.cpg/sg74_32_cif.got.tgz:63603.got - 2010.06.03 17:57:02.
