data_PCOD9537838
_publ_section_title
;
Structure prediction by ZEFSAII (Michael W. Deem and Ramdas Pophale) SiO2 
 PCOD9537838
Probable space group: I M M A
;
_chemical_formula_sum "Si O2"
_cell_formula_units_Z 120
_cell_length_a 7.653323
_cell_length_b 27.934768
_cell_length_c 28.509524
_cell_angle_alpha 90.000000
_cell_angle_beta 90.000000
_cell_angle_gamma 90.000000
_cell_volume 6095.159542
_symmetry_space_group_name_H-M "I M M A"
_symmetry_group_IT_number 74
_symmetry_cell_setting 'orthorhombic'
loop_
_space_group_symop_operation_xyz
x,y,z
-x,1/2-y,z
x,-y,-z
-x,1/2+y,-z
-x,-y,-z
x,1/2+y,-z
-x,y,z
x,1/2-y,z
1/2+x,1/2+y,1/2+z
1/2-x,-y,1/2+z
1/2+x,1/2-y,1/2-z
1/2-x,y,1/2-z
1/2-x,1/2-y,1/2-z
1/2+x,y,1/2-z
1/2-x,1/2+y,1/2+z
1/2+x,-y,1/2+z
loop_
_atom_site_type_symbol
_atom_site_label
_atom_site_fract_x
_atom_site_fract_y
_atom_site_fract_z
Si Si1 0.207803 0.456338 0.195926
Si Si2 0.793566 0.600892 0.607514
Si Si3 0.214315 0.155961 0.860756
Si Si4 0.789633 0.305439 0.959443
Si Si5 0.708066 0.949724 0.355892
Si Si6 0.204935 0.696253 0.564970
Si Si7 0.709741 0.750000 0.304910
Si Si8 0.288559 0.507026 0.946696
O O1 0.250000 0.449467 0.250000
O O2 0.273276 0.415303 0.161036
O O3 0.279078 0.507114 0.176168
O O4 0.000000 0.457437 0.190611
O O5 0.718434 0.652754 0.594981
O O6 0.723507 0.557059 0.575820
O O7 0.000000 0.603191 0.597035
O O8 0.267305 0.164362 0.914742
O O9 0.275518 0.103427 0.845516
O O10 0.273314 0.201301 0.829997
O O11 0.000000 0.156206 0.859817
O O12 0.742166 0.250000 0.950438
O O13 0.000000 0.307891 0.962166
O O14 0.718654 0.318412 0.010343
O O15 0.500000 0.947882 0.348438
O O16 0.737653 0.965795 0.409750
O O17 0.281262 0.750000 0.569521
O O18 0.000000 0.700385 0.576642
O O19 0.500000 0.750000 0.310716
O O20 0.750000 0.750000 0.250000
O O21 0.500000 0.508170 0.947390
O O22 0.227795 0.500000 0.000000
#
# Coordination Sequence:
#
# PCOD9537838 Si02
#       8
#    16  16  16  16  16  16   8  16
#     4  10  20  35  55  76  98 125 163 208 253 298
#     4   9  18  33  51  72 102 136 166 197 241 295
#     4   9  17  32  51  69  95 130 166 208 254 299
#     4   9  16  28  47  69  93 130 173 203 236 286
#     4   9  19  33  49  72  97 126 166 208 248 293
#     4   9  18  31  48  74 106 136 163 198 243 286
#     4  10  20  36  54  70  94 128 168 214 263 308
#     4   9  18  31  46  68 100 136 167 197 242 295
#
# _framework density 19.687753000000001
#
# number of rings (size 3 to 8) (size 9 to 14) (size 15 to 20)
#    0.000    2.800    0.667    0.400    1.867    1.867 
#    0.000    1.333    0.000    0.400    0.000    0.000 
#    0.000    0.000    0.000    0.000    0.000    0.000 
#
# Total GULP energy -334620.169368 kJ/mol
# GULP energy per Si atom -5577.002823 kJ/mol
# Density = 1.964294 g / cm^3
# Si number density = 19.687753 Si / 1000 Ang^3
#
#
#
# Elastic Constant Matrix: (Units=GPa)
#
#
# Indices 1 2 3 4 5 6 
#
# 1 33.0156 5.7783 -12.8326 0.0000 0.0000 0.0000
# 2 5.7783 155.5168 82.8425 0.0000 0.0000 0.0000
# 3 -12.8326 82.8425 112.5785 0.0000 0.0000 0.0000
# 4 0.0000 0.0000 0.0000 13.8595 0.0000 0.0000
# 5 0.0000 0.0000 0.0000 0.0000 18.9646 0.0000
# 6 0.0000 0.0000 0.0000 0.0000 0.0000 7.4221
#
#
#
# Elastic Compliance Matrix: (Units=1/GPa)
#
#
# Indices 1 2 3 4 5 6 
#
# 1 0.034361 -0.005531 0.007987 0.000000 0.000000 0.000000
# 2 -0.005531 0.011466 -0.009068 0.000000 0.000000 0.000000
# 3 0.007987 -0.009068 0.016466 0.000000 0.000000 0.000000
# 4 0.000000 0.000000 0.000000 0.072153 0.000000 0.000000
# 5 0.000000 0.000000 0.000000 0.000000 0.052730 0.000000
# 6 0.000000 0.000000 0.000000 0.000000 0.000000 0.134733
#
#
# Mechanical properties :
#
#
# Convention : Reuss Voigt Hill
#
# Bulk Modulus (GPa) = 20.37957 50.29857 35.33907
# Shear Modulus (GPa) = 14.22519 23.07078 18.64798
#
# Velocity S-wave (km/s) = 2.69093 3.42692 3.08098
# Velocity P-wave (km/s) = 4.47534 6.42355 5.53582
#
# Compressibility (1/GPa) = 0.04906876
#
# Stress axis : x y z
#
# Youngs Moduli (GPa) = 29.10257 87.21312 60.73131
#
# Poissons Ratio (x) = 0.48241 -0.48507
# Poissons Ratio (y) = 0.16098 0.55071
# Poissons Ratio (z) = -0.23245 0.79085
#
# Static dielectric constant tensor:
#      x y z
#    x 1.724090 0.000000 0.000000 
#    y 0.000000 1.725070 0.000000 
#    z 0.000000 0.000000 1.628810 
# 
# From -- ./inp_files/65047.got.cif
#   From: 2010.05.17/outbox.cif.g08.bks.cpg/sg74_33_cif.got.tgz:65047.got - 2010.06.03 17:57:02.
