data_PCOD9537455
_publ_section_title
;
Structure prediction by ZEFSAII (Michael W. Deem and Ramdas Pophale) SiO2 
 PCOD9537455
Probable space group: I M M A
;
_chemical_formula_sum "Si O2"
_cell_formula_units_Z 96
_cell_length_a 7.567774
_cell_length_b 20.616999
_cell_length_c 27.903065
_cell_angle_alpha 90.000000
_cell_angle_beta 90.000000
_cell_angle_gamma 90.000000
_cell_volume 4353.569829
_symmetry_space_group_name_H-M "I M M A"
_symmetry_group_IT_number 74
_symmetry_cell_setting 'orthorhombic'
loop_
_space_group_symop_operation_xyz
x,y,z
-x,1/2-y,z
x,-y,-z
-x,1/2+y,-z
-x,-y,-z
x,1/2+y,-z
-x,y,z
x,1/2-y,z
1/2+x,1/2+y,1/2+z
1/2-x,-y,1/2+z
1/2+x,1/2-y,1/2-z
1/2-x,y,1/2-z
1/2-x,1/2-y,1/2-z
1/2+x,y,1/2-z
1/2-x,1/2+y,1/2+z
1/2+x,-y,1/2+z
loop_
_atom_site_type_symbol
_atom_site_label
_atom_site_fract_x
_atom_site_fract_y
_atom_site_fract_z
Si Si1 0.792702 0.824087 0.000712
Si Si2 0.217271 0.453798 0.350182
Si Si3 0.788069 0.820597 0.693585
Si Si4 0.213878 0.675834 0.389207
Si Si5 0.211424 0.083882 0.696022
Si Si6 0.704697 0.541840 0.956779
O O1 0.723547 0.750000 0.994175
O O2 0.770440 0.841453 0.056930
O O3 0.000000 0.822965 0.989663
O O4 0.710615 0.882104 0.970114
O O5 0.279665 0.383278 0.333874
O O6 0.273594 0.510737 0.314424
O O7 0.278817 0.468896 0.403952
O O8 0.000000 0.452306 0.350404
O O9 0.719824 0.750000 0.677787
O O10 0.750000 0.827332 0.750000
O O11 0.000000 0.819680 0.687867
O O12 0.269698 0.750000 0.380633
O O13 0.278228 0.629933 0.346598
O O14 0.000000 0.674055 0.389437
O O15 0.250000 0.105060 0.750000
O O16 0.000000 0.083316 0.691423
O O17 0.500000 0.520976 0.953284
O O18 0.785485 0.500000 0.000000
#
# Coordination Sequence:
#
# PCOD9537455 Si02
#       6
#    16  16  16  16  16  16
#     4  10  21  36  54  79 110 140 172 215 267 320
#     4   9  18  32  50  72  98 129 166 206 246 295
#     4   9  17  30  48  69  93 122 157 196 238 286
#     4   9  18  34  55  76 100 135 176 213 252 304
#     4  10  20  34  52  75 103 133 168 211 256 304
#     4  10  20  35  56  79 103 136 178 219 259 308
#
# _framework density 22.050868999999999
#
# number of rings (size 3 to 8) (size 9 to 14) (size 15 to 20)
#    0.000    2.500    0.000    2.000    0.000    5.667 
#    0.000    3.333    0.000    2.000    0.000    0.000 
#    0.000    0.000    0.000    0.000    0.000    0.000 
#
# Total GULP energy -268056.346766 kJ/mol
# GULP energy per Si atom -5584.507224 kJ/mol
# Density = 2.200068 g / cm^3
# Si number density = 22.050869 Si / 1000 Ang^3
#
#
#
# Elastic Constant Matrix: (Units=GPa)
#
#
# Indices 1 2 3 4 5 6 
#
# 1 50.5335 -2.5008 -9.1717 0.0000 0.0000 0.0000
# 2 -2.5008 37.1064 -3.7200 0.0000 0.0000 0.0000
# 3 -9.1717 -3.7200 34.9058 0.0000 0.0000 0.0000
# 4 0.0000 0.0000 0.0000 41.4678 0.0000 0.0000
# 5 0.0000 0.0000 0.0000 0.0000 13.8675 0.0000
# 6 0.0000 0.0000 0.0000 0.0000 0.0000 25.0252
#
#
#
# Elastic Compliance Matrix: (Units=1/GPa)
#
#
# Indices 1 2 3 4 5 6 
#
# 1 0.020923 0.001982 0.005709 0.000000 0.000000 0.000000
# 2 0.001982 0.027428 0.003444 0.000000 0.000000 0.000000
# 3 0.005709 0.003444 0.030516 0.000000 0.000000 0.000000
# 4 0.000000 0.000000 0.000000 0.024115 0.000000 0.000000
# 5 0.000000 0.000000 0.000000 0.000000 0.072111 0.000000
# 6 0.000000 0.000000 0.000000 0.000000 0.000000 0.039960
#
#
# Mechanical properties :
#
#
# Convention : Reuss Voigt Hill
#
# Bulk Modulus (GPa) = 9.88746 10.19562 10.04154
# Shear Modulus (GPa) = 22.07559 25.26800 23.67179
#
# Velocity S-wave (km/s) = 3.16748 3.38878 3.28000
# Velocity P-wave (km/s) = 4.22740 4.46604 4.34836
#
# Compressibility (1/GPa) = 0.10113818
#
# Stress axis : x y z
#
# Youngs Moduli (GPa) = 47.79399 36.45853 32.77007
#
# Poissons Ratio (x) = -0.07228 -0.18708
# Poissons Ratio (y) = -0.09475 -0.11286
# Poissons Ratio (z) = -0.27285 -0.12557
#
# Static dielectric constant tensor:
#      x y z
#    x 1.859060 0.000000 0.000000 
#    y 0.000000 1.813940 0.000000 
#    z 0.000000 0.000000 1.563610 
# 
# From -- ./inp_files/64269.got.cif
#   From: 2010.05.17/outbox.cif.g08.bks.cpg/sg74_33_cif.got.tgz:64269.got - 2010.06.03 17:57:02.
