data_PCOD9537823
_publ_section_title
;
Structure prediction by ZEFSAII (Michael W. Deem and Ramdas Pophale) SiO2 
 PCOD9537823
Probable space group: I M M A
;
_chemical_formula_sum "Si O2"
_cell_formula_units_Z 96
_cell_length_a 22.460527
_cell_length_b 8.819782
_cell_length_c 25.372769
_cell_angle_alpha 90.000000
_cell_angle_beta 90.000000
_cell_angle_gamma 90.000000
_cell_volume 5026.268196
_symmetry_space_group_name_H-M "I M M A"
_symmetry_group_IT_number 74
_symmetry_cell_setting 'orthorhombic'
loop_
_space_group_symop_operation_xyz
x,y,z
-x,1/2-y,z
x,-y,-z
-x,1/2+y,-z
-x,-y,-z
x,1/2+y,-z
-x,y,z
x,1/2-y,z
1/2+x,1/2+y,1/2+z
1/2-x,-y,1/2+z
1/2+x,1/2-y,1/2-z
1/2-x,y,1/2-z
1/2-x,1/2-y,1/2-z
1/2+x,y,1/2-z
1/2-x,1/2+y,1/2+z
1/2+x,-y,1/2+z
loop_
_atom_site_type_symbol
_atom_site_label
_atom_site_fract_x
_atom_site_fract_y
_atom_site_fract_z
Si Si1 0.599821 0.572687 0.332445
Si Si2 0.218779 0.577337 0.805617
Si Si3 0.000000 0.930842 0.759788
Si Si4 0.399939 0.433571 0.055403
Si Si5 0.639835 0.068707 0.554489
Si Si6 0.266845 0.927830 0.917858
Si Si7 0.500000 0.065466 0.138304
O O1 0.584992 0.750000 0.331928
O O2 0.666569 0.542123 0.312684
O O3 0.556154 0.486777 0.293448
O O4 0.602833 0.520170 0.393585
O O5 0.306212 0.750000 0.690635
O O6 0.250000 0.561730 0.750000
O O7 0.263791 0.562316 0.854395
O O8 0.000000 0.987260 0.698996
O O9 0.000000 0.750000 0.757656
O O10 0.400680 0.250000 0.053206
O O11 0.331183 0.482524 0.063264
O O12 0.442143 0.479812 0.104035
O O13 0.421775 0.500000 0.000000
O O14 0.639258 0.250000 0.552524
O O15 0.617166 0.000000 0.500000
O O16 0.708324 0.013928 0.561969
O O17 0.260477 0.750000 0.932450
O O18 0.500000 0.250000 0.139821
#
# Coordination Sequence:
#
# PCOD9537823 Si02
#       7
#    16  16   8  16  16  16   8
#     4  10  22  39  57  82 117 150 181 228 288 337
#     4   9  18  32  55  83 112 147 191 234 272 328
#     4  11  23  40  65  85 106 144 194 239 278 335
#     4  10  20  35  54  78 109 144 183 229 278 326
#     4  10  20  35  57  83 114 148 182 223 273 332
#     4   9  18  31  51  80 113 146 182 227 277 327
#     4   9  21  38  58  79 103 140 187 237 280 321
#
# _framework density 19.099657000000001
#
# number of rings (size 3 to 8) (size 9 to 14) (size 15 to 20)
#    0.000    2.333    0.000    2.000    2.333    4.333 
#    0.000    2.083    0.000    0.000    0.000    0.000 
#    0.000    0.000    0.000    0.000    0.000    0.000 
#
# Total GULP energy -267789.164785 kJ/mol
# GULP energy per Si atom -5578.940933 kJ/mol
# Density = 1.905619 g / cm^3
# Si number density = 19.099657 Si / 1000 Ang^3
#
#
#
# Elastic Constant Matrix: (Units=GPa)
#
#
# Indices 1 2 3 4 5 6 
#
# 1 64.5323 14.5176 51.6765 0.0000 0.0000 0.0000
# 2 14.5176 25.6527 37.5982 0.0000 0.0000 0.0000
# 3 51.6765 37.5982 175.0544 0.0000 0.0000 0.0000
# 4 0.0000 0.0000 0.0000 27.5609 0.0000 0.0000
# 5 0.0000 0.0000 0.0000 0.0000 13.5404 0.0000
# 6 0.0000 0.0000 0.0000 0.0000 0.0000 26.6580
#
#
#
# Elastic Compliance Matrix: (Units=1/GPa)
#
#
# Indices 1 2 3 4 5 6 
#
# 1 0.020571 -0.004001 -0.005213 0.000000 0.000000 0.000000
# 2 -0.004001 0.057670 -0.011205 0.000000 0.000000 0.000000
# 3 -0.005213 -0.011205 0.009658 0.000000 0.000000 0.000000
# 4 0.000000 0.000000 0.000000 0.036283 0.000000 0.000000
# 5 0.000000 0.000000 0.000000 0.000000 0.073853 0.000000
# 6 0.000000 0.000000 0.000000 0.000000 0.000000 0.037512
#
#
# Mechanical properties :
#
#
# Convention : Reuss Voigt Hill
#
# Bulk Modulus (GPa) = 21.24943 52.53598 36.89270
# Shear Modulus (GPa) = 17.11904 24.31500 20.71702
#
# Velocity S-wave (km/s) = 2.99708 3.57187 3.29702
# Velocity P-wave (km/s) = 4.80898 6.67660 5.81822
#
# Compressibility (1/GPa) = 0.04706009
#
# Stress axis : x y z
#
# Youngs Moduli (GPa) = 48.61238 17.34016 103.53941
#
# Poissons Ratio (x) = 0.06937 0.53978
# Poissons Ratio (y) = 0.19448 1.16019
# Poissons Ratio (z) = 0.25343 0.19430
#
# Static dielectric constant tensor:
#      x y z
#    x 1.663970 0.000000 0.000000 
#    y 0.000000 1.658720 0.000000 
#    z 0.000000 0.000000 1.672120 
# 
# From -- ./inp_files/61934.got.cif
#   From: 2010.05.17/outbox.cif.g08.bks.cpg/sg74_31_cif.got.tgz:61934.got - 2010.06.03 17:57:02.
