data_PCOD9537043
_publ_section_title
;
Structure prediction by ZEFSAII (Michael W. Deem and Ramdas Pophale) SiO2 
 PCOD9537043
Probable space group: I M M A
;
_chemical_formula_sum "Si O2"
_cell_formula_units_Z 96
_cell_length_a 14.658342
_cell_length_b 14.626726
_cell_length_c 27.689331
_cell_angle_alpha 90.000000
_cell_angle_beta 90.000000
_cell_angle_gamma 90.000000
_cell_volume 5936.690920
_symmetry_space_group_name_H-M "I M M A"
_symmetry_group_IT_number 74
_symmetry_cell_setting 'orthorhombic'
loop_
_space_group_symop_operation_xyz
x,y,z
-x,1/2-y,z
x,-y,-z
-x,1/2+y,-z
-x,-y,-z
x,1/2+y,-z
-x,y,z
x,1/2-y,z
1/2+x,1/2+y,1/2+z
1/2-x,-y,1/2+z
1/2+x,1/2-y,1/2-z
1/2-x,y,1/2-z
1/2-x,1/2-y,1/2-z
1/2+x,y,1/2-z
1/2-x,1/2+y,1/2+z
1/2+x,-y,1/2+z
loop_
_atom_site_type_symbol
_atom_site_label
_atom_site_fract_x
_atom_site_fract_y
_atom_site_fract_z
Si Si1 0.610443 0.250000 0.424079
Si Si2 0.858541 0.750000 0.259591
Si Si3 0.147881 0.055255 0.231271
Si Si4 0.893288 0.250000 0.185280
Si Si5 0.801572 0.557257 0.138995
Si Si6 0.100098 0.565605 0.318349
Si Si7 0.108761 0.548224 0.948676
Si Si8 0.604248 0.250000 0.648238
O O1 0.500000 0.250000 0.422990
O O2 0.647808 0.250000 0.368874
O O3 0.635236 0.155124 0.449443
O O4 0.750000 0.750000 0.250000
O O5 0.885399 0.839511 0.289461
O O6 0.900401 0.750000 0.206467
O O7 0.250000 0.056182 0.250000
O O8 0.126353 0.157206 0.214000
O O9 0.146932 0.988148 0.185138
O O10 0.097008 0.012349 0.276926
O O11 0.000000 0.250000 0.176897
O O12 0.692683 0.554083 0.150124
O O13 0.832445 0.500556 0.092525
O O14 0.839439 0.659862 0.133968
O O15 0.000000 0.567271 0.342766
O O16 0.000000 0.541844 0.936266
O O17 0.121309 0.500000 0.000000
O O18 0.500000 0.250000 0.629215
#
# Coordination Sequence:
#
# PCOD9537043 Si02
#       8
#     8   8  16   8  16  16  16   8
#     4   9  18  32  52  77 100 129 167 203 252 314
#     4  12  18  33  47  73 108 146 182 213 253 306
#     4  10  20  32  47  70 100 134 171 211 248 296
#     4  11  19  29  48  70  97 133 170 202 244 301
#     4  11  21  35  50  74 104 135 175 213 260 310
#     4  11  21  33  50  72 105 142 179 216 253 301
#     4  10  21  37  57  78 103 133 168 214 267 321
#     4  12  22  30  48  75 107 141 174 212 255 306
#
# _framework density 16.170625000000001
#
# number of rings (size 3 to 8) (size 9 to 14) (size 15 to 20)
#    0.000    1.333    5.000    2.500    0.000    2.000 
#    0.000    1.667    0.000    0.500    0.000    0.000 
#    0.000    0.000    0.000    0.000    0.000    0.000 
#
# Total GULP energy -267616.920446 kJ/mol
# GULP energy per Si atom -5575.352509 kJ/mol
# Density = 1.613382 g / cm^3
# Si number density = 16.170625 Si / 1000 Ang^3
#
#
#
# Elastic Constant Matrix: (Units=GPa)
#
#
# Indices 1 2 3 4 5 6 
#
# 1 106.1074 31.7191 34.0989 0.0000 0.0000 0.0000
# 2 31.7191 151.0381 49.0409 0.0000 0.0000 0.0000
# 3 34.0989 49.0409 68.2605 0.0000 0.0000 0.0000
# 4 0.0000 0.0000 0.0000 14.6760 0.0000 0.0000
# 5 0.0000 0.0000 0.0000 0.0000 21.0398 0.0000
# 6 0.0000 0.0000 0.0000 0.0000 0.0000 32.4277
#
#
#
# Elastic Compliance Matrix: (Units=1/GPa)
#
#
# Indices 1 2 3 4 5 6 
#
# 1 0.011284 -0.000704 -0.005131 0.000000 0.000000 0.000000
# 2 -0.000704 0.008679 -0.005884 0.000000 0.000000 0.000000
# 3 -0.005131 -0.005884 0.021440 0.000000 0.000000 0.000000
# 4 0.000000 0.000000 0.000000 0.068138 0.000000 0.000000
# 5 0.000000 0.000000 0.000000 0.000000 0.047529 0.000000
# 6 0.000000 0.000000 0.000000 0.000000 0.000000 0.030838
#
#
# Mechanical properties :
#
#
# Convention : Reuss Voigt Hill
#
# Bulk Modulus (GPa) = 55.66181 61.68042 58.67112
# Shear Modulus (GPa) = 23.00605 27.66517 25.33561
#
# Velocity S-wave (km/s) = 3.77597 4.14070 3.96254
# Velocity P-wave (km/s) = 7.31484 7.81581 7.56947
#
# Compressibility (1/GPa) = 0.01796564
#
# Stress axis : x y z
#
# Youngs Moduli (GPa) = 88.62332 115.21993 46.64135
#
# Poissons Ratio (x) = 0.08107 0.23933
# Poissons Ratio (y) = 0.06236 0.27443
# Poissons Ratio (z) = 0.45474 0.67794
#
# Static dielectric constant tensor:
#      x y z
#    x 1.585780 0.000000 0.000000 
#    y 0.000000 1.535820 0.000000 
#    z 0.000000 0.000000 1.531150 
# 
# From -- ./inp_files/67144.got.cif
#   From: 2010.05.17/outbox.cif.g08.bks.cpg/sg74_34_cif.got.tgz:67144.got - 2010.06.03 17:57:02.
