data_PCOD9537034
_publ_section_title
;
Structure prediction by ZEFSAII (Michael W. Deem and Ramdas Pophale) SiO2 
 PCOD9537034
Probable space group: I M M A
;
_chemical_formula_sum "Si O2"
_cell_formula_units_Z 96
_cell_length_a 17.498826
_cell_length_b 9.867507
_cell_length_c 29.176558
_cell_angle_alpha 90.000000
_cell_angle_beta 90.000000
_cell_angle_gamma 90.000000
_cell_volume 5037.910086
_symmetry_space_group_name_H-M "I M M A"
_symmetry_group_IT_number 74
_symmetry_cell_setting 'orthorhombic'
loop_
_space_group_symop_operation_xyz
x,y,z
-x,1/2-y,z
x,-y,-z
-x,1/2+y,-z
-x,-y,-z
x,1/2+y,-z
-x,y,z
x,1/2-y,z
1/2+x,1/2+y,1/2+z
1/2-x,-y,1/2+z
1/2+x,1/2-y,1/2-z
1/2-x,y,1/2-z
1/2-x,1/2-y,1/2-z
1/2+x,y,1/2-z
1/2-x,1/2+y,1/2+z
1/2+x,-y,1/2+z
loop_
_atom_site_type_symbol
_atom_site_label
_atom_site_fract_x
_atom_site_fract_y
_atom_site_fract_z
Si Si1 0.795198 0.907821 0.544683
Si Si2 0.908957 0.094546 0.208804
Si Si3 0.589192 0.600196 0.461706
Si Si4 0.591671 0.093698 0.122709
Si Si5 0.093096 0.594326 0.293360
Si Si6 0.353225 0.904520 0.608207
O O1 0.795620 0.750000 0.530858
O O2 0.871095 0.938860 0.573933
O O3 0.727645 0.922129 0.582631
O O4 0.788817 0.000000 0.500000
O O5 0.901766 0.250000 0.225815
O O6 0.859453 0.081961 0.162681
O O7 0.000000 0.075869 0.197823
O O8 0.886152 0.988302 0.247657
O O9 0.622358 0.500000 0.500000
O O10 0.500000 0.615370 0.472457
O O11 0.624207 0.750000 0.461690
O O12 0.596184 0.521131 0.414382
O O13 0.500000 0.087877 0.120413
O O14 0.613225 0.250000 0.134041
O O15 0.617944 0.990883 0.162202
O O16 0.119248 0.750000 0.293517
O O17 0.000000 0.595790 0.294203
O O18 0.380021 0.750000 0.597276
#
# Coordination Sequence:
#
# PCOD9537034 Si02
#       6
#    16  16  16  16  16  16
#     4  10  22  38  55  77 104 135 172 215 264 316
#     4   9  17  30  50  75 103 138 176 210 247 295
#     4  10  20  32  47  68  94 127 170 218 263 305
#     4   9  18  35  58  80 103 133 169 209 257 317
#     4   9  17  30  51  80 109 134 165 209 257 303
#     4  10  20  34  51  72 101 137 176 215 256 303
#
# _framework density 19.055520999999999
#
# number of rings (size 3 to 8) (size 9 to 14) (size 15 to 20)
#    0.000    2.500    0.000    2.000    0.000    7.333 
#    0.000    2.500    0.000    5.000    0.000    0.000 
#    0.000    0.000    0.000    0.000    0.000    0.000 
#
# Total GULP energy -267597.909995 kJ/mol
# GULP energy per Si atom -5574.956458 kJ/mol
# Density = 1.901215 g / cm^3
# Si number density = 19.055521 Si / 1000 Ang^3
#
#
#
# Elastic Constant Matrix: (Units=GPa)
#
#
# Indices 1 2 3 4 5 6 
#
# 1 17.6991 35.8908 33.6996 0.0000 0.0000 0.0000
# 2 35.8908 156.5848 101.8851 0.0000 0.0000 0.0000
# 3 33.6996 101.8851 131.1611 0.0000 0.0000 0.0000
# 4 0.0000 0.0000 0.0000 34.1407 0.0000 0.0000
# 5 0.0000 0.0000 0.0000 0.0000 15.6451 0.0000
# 6 0.0000 0.0000 0.0000 0.0000 0.0000 4.1340
#
#
#
# Elastic Compliance Matrix: (Units=1/GPa)
#
#
# Indices 1 2 3 4 5 6 
#
# 1 0.127840 -0.016035 -0.020391 0.000000 0.000000 0.000000
# 2 -0.016035 0.014924 -0.007473 0.000000 0.000000 0.000000
# 3 -0.020391 -0.007473 0.018668 0.000000 0.000000 0.000000
# 4 0.000000 0.000000 0.000000 0.029291 0.000000 0.000000
# 5 0.000000 0.000000 0.000000 0.000000 0.063918 0.000000
# 6 0.000000 0.000000 0.000000 0.000000 0.000000 0.241895
#
#
# Mechanical properties :
#
#
# Convention : Reuss Voigt Hill
#
# Bulk Modulus (GPa) = 13.58040 72.04401 42.81220
# Shear Modulus (GPa) = 8.21182 19.71527 13.96355
#
# Velocity S-wave (km/s) = 2.07817 3.22004 2.70993
# Velocity P-wave (km/s) = 3.59174 7.19127 5.68397
#
# Compressibility (1/GPa) = 0.07363555
#
# Stress axis : x y z
#
# Youngs Moduli (GPa) = 7.82228 67.00522 53.56654
#
# Poissons Ratio (x) = 1.07440 1.09226
# Poissons Ratio (y) = 0.12543 0.40031
# Poissons Ratio (z) = 0.15950 0.50074
#
# Static dielectric constant tensor:
#      x y z
#    x 1.700160 0.000000 0.000000 
#    y 0.000000 1.687820 0.000000 
#    z 0.000000 0.000000 1.652130 
# 
# From -- ./inp_files/68154.got.cif
#   From: 2010.05.17/outbox.cif.g08.bks.cpg/sg74_35_cif.got.tgz:68154.got - 2010.06.03 17:57:02.
