data_PCOD9537399
_publ_section_title
;
Structure prediction by ZEFSAII (Michael W. Deem and Ramdas Pophale) SiO2 
 PCOD9537399
Probable space group: I M M A
;
_chemical_formula_sum "Si O2"
_cell_formula_units_Z 88
_cell_length_a 8.460715
_cell_length_b 18.761581
_cell_length_c 30.659234
_cell_angle_alpha 90.000000
_cell_angle_beta 90.000000
_cell_angle_gamma 90.000000
_cell_volume 4866.736119
_symmetry_space_group_name_H-M "I M M A"
_symmetry_group_IT_number 74
_symmetry_cell_setting 'orthorhombic'
loop_
_space_group_symop_operation_xyz
x,y,z
-x,1/2-y,z
x,-y,-z
-x,1/2+y,-z
-x,-y,-z
x,1/2+y,-z
-x,y,z
x,1/2-y,z
1/2+x,1/2+y,1/2+z
1/2-x,-y,1/2+z
1/2+x,1/2-y,1/2-z
1/2-x,y,1/2-z
1/2-x,1/2-y,1/2-z
1/2+x,y,1/2-z
1/2-x,1/2+y,1/2+z
1/2+x,-y,1/2+z
loop_
_atom_site_type_symbol
_atom_site_label
_atom_site_fract_x
_atom_site_fract_y
_atom_site_fract_z
Si Si1 0.811803 0.960644 0.956986
Si Si2 0.310466 0.524168 0.365776
Si Si3 0.186627 0.333737 0.503338
Si Si4 0.809314 0.250000 0.299917
Si Si5 0.309011 0.831633 0.103013
Si Si6 0.189769 0.093452 0.299670
O O1 0.774161 0.879095 0.967052
O O2 0.000000 0.971597 0.956237
O O3 0.749675 0.990413 0.911529
O O4 0.745946 0.000000 0.000000
O O5 0.500000 0.524300 0.365593
O O6 0.252422 0.605869 0.366037
O O7 0.252175 0.472297 0.327801
O O8 0.204907 0.250000 0.496348
O O9 0.244074 0.348063 0.553028
O O10 0.000000 0.350475 0.501798
O O11 0.750000 0.250000 0.250000
O O12 0.759006 0.327796 0.317746
O O13 0.000000 0.250000 0.300314
O O14 0.500000 0.832428 0.102675
O O15 0.260348 0.750000 0.113312
O O16 0.250000 0.088403 0.250000
O O17 0.000000 0.091679 0.299601
#
# Coordination Sequence:
#
# PCOD9537399 Si02
#       6
#    16  16  16   8  16  16
#     4  10  20  34  49  71 105 142 178 218 261 308
#     4  11  22  35  53  79 109 142 181 220 265 318
#     4   9  18  32  50  72  98 133 178 223 265 311
#     4   8  16  32  56  82 106 136 172 212 258 310
#     4   9  18  33  53  77 104 136 178 224 268 317
#     4  10  20  37  60  84 110 139 175 219 266 315
#
# _framework density 18.081932999999999
#
# number of rings (size 3 to 8) (size 9 to 14) (size 15 to 20)
#    0.000    2.364    1.818    2.182    0.000    3.273 
#    1.636    1.818    0.000    0.545    0.000    0.000 
#    0.000    0.000    0.000    0.000    0.000    0.000 
#
# Total GULP energy -245213.330276 kJ/mol
# GULP energy per Si atom -5573.030234 kJ/mol
# Density = 1.804078 g / cm^3
# Si number density = 18.081933 Si / 1000 Ang^3
#
#
#
# Elastic Constant Matrix: (Units=GPa)
#
#
# Indices 1 2 3 4 5 6 
#
# 1 19.5597 28.5858 17.6397 0.0000 0.0000 0.0000
# 2 28.5858 140.9254 61.5518 0.0000 0.0000 0.0000
# 3 17.6397 61.5518 65.3278 0.0000 0.0000 0.0000
# 4 0.0000 0.0000 0.0000 31.4514 0.0000 0.0000
# 5 0.0000 0.0000 0.0000 0.0000 19.4840 0.0000
# 6 0.0000 0.0000 0.0000 0.0000 0.0000 24.8236
#
#
#
# Elastic Compliance Matrix: (Units=1/GPa)
#
#
# Indices 1 2 3 4 5 6 
#
# 1 0.076510 -0.011039 -0.010258 0.000000 0.000000 0.000000
# 2 -0.011039 0.013651 -0.009881 0.000000 0.000000 0.000000
# 3 -0.010258 -0.009881 0.027387 0.000000 0.000000 0.000000
# 4 0.000000 0.000000 0.000000 0.031795 0.000000 0.000000
# 5 0.000000 0.000000 0.000000 0.000000 0.051324 0.000000
# 6 0.000000 0.000000 0.000000 0.000000 0.000000 0.040284
#
#
# Mechanical properties :
#
#
# Convention : Reuss Voigt Hill
#
# Bulk Modulus (GPa) = 18.11869 49.04083 33.57976
# Shear Modulus (GPa) = 15.54215 23.02083 19.28149
#
# Velocity S-wave (km/s) = 2.93497 3.57198 3.26903
# Velocity P-wave (km/s) = 4.63977 6.64773 5.73236
#
# Compressibility (1/GPa) = 0.05519164
#
# Stress axis : x y z
#
# Youngs Moduli (GPa) = 13.07018 73.25484 36.51329
#
# Poissons Ratio (x) = 0.80868 0.37455
# Poissons Ratio (y) = 0.14428 0.36079
# Poissons Ratio (z) = 0.13407 0.72384
#
# Static dielectric constant tensor:
#      x y z
#    x 1.621550 0.000000 0.000000 
#    y 0.000000 1.671550 0.000000 
#    z 0.000000 0.000000 1.599510 
# 
# From -- ./inp_files/70281.got.cif
#   From: 2010.05.17/outbox.cif.g08.bks.cpg/sg74_36_cif.got.tgz:70281.got - 2010.06.03 17:57:02.
