data_PCOD9537438
_publ_section_title
;
Structure prediction by ZEFSAII (Michael W. Deem and Ramdas Pophale) SiO2 
 PCOD9537438
Probable space group: I M M A
;
_chemical_formula_sum "Si O2"
_cell_formula_units_Z 88
_cell_length_a 18.068317
_cell_length_b 8.802799
_cell_length_c 29.896474
_cell_angle_alpha 90.000000
_cell_angle_beta 90.000000
_cell_angle_gamma 90.000000
_cell_volume 4755.086892
_symmetry_space_group_name_H-M "I M M A"
_symmetry_group_IT_number 74
_symmetry_cell_setting 'orthorhombic'
loop_
_space_group_symop_operation_xyz
x,y,z
-x,1/2-y,z
x,-y,-z
-x,1/2+y,-z
-x,-y,-z
x,1/2+y,-z
-x,y,z
x,1/2-y,z
1/2+x,1/2+y,1/2+z
1/2-x,-y,1/2+z
1/2+x,1/2-y,1/2-z
1/2-x,y,1/2-z
1/2-x,1/2-y,1/2-z
1/2+x,y,1/2-z
1/2-x,1/2+y,1/2+z
1/2+x,-y,1/2+z
loop_
_atom_site_type_symbol
_atom_site_label
_atom_site_fract_x
_atom_site_fract_y
_atom_site_fract_z
Si Si1 0.000000 0.567600 0.049422
Si Si2 0.090099 0.425364 0.292176
Si Si3 0.584680 0.564655 0.890501
Si Si4 0.780559 0.567803 0.549142
Si Si5 0.413929 0.567528 0.300553
Si Si6 0.146644 0.933939 0.105155
O O1 0.073186 0.524666 0.077015
O O2 0.000000 0.750000 0.046022
O O3 0.000000 0.500000 0.000000
O O4 0.113037 0.250000 0.288568
O O5 0.111731 0.486295 0.341129
O O6 0.113655 0.511334 0.247548
O O7 0.000000 0.428718 0.293025
O O8 0.500000 0.514737 0.897810
O O9 0.583498 0.750000 0.888504
O O10 0.641218 0.520078 0.929002
O O11 0.770659 0.500000 0.500000
O O12 0.778247 0.750000 0.546696
O O13 0.716446 0.509105 0.581766
O O14 0.500000 0.517498 0.306145
O O15 0.414809 0.750000 0.300554
O O16 0.367155 0.518143 0.343545
O O17 0.153719 0.750000 0.103977
#
# Coordination Sequence:
#
# PCOD9537438 Si02
#       6
#     8  16  16  16  16  16
#     4  10  20  34  52  72  96 134 180 220 257 302
#     4   8  14  27  50  78 104 132 169 212 254 301
#     4   8  16  34  58  80 104 136 173 212 258 314
#     4  11  23  38  56  78 104 136 173 217 269 317
#     4   9  16  29  50  76 106 140 174 211 256 303
#     4  10  20  36  54  74 105 142 178 215 259 308
#
# _framework density 18.506497
#
# number of rings (size 3 to 8) (size 9 to 14) (size 15 to 20)
#    0.000    2.727    0.909    2.182    0.000    3.273 
#    0.000    2.727    0.000    9.273    0.000    0.000 
#    0.000    0.000    0.000    0.000    0.000    0.000 
#
# Total GULP energy -245315.511844 kJ/mol
# GULP energy per Si atom -5575.352542 kJ/mol
# Density = 1.846438 g / cm^3
# Si number density = 18.506497 Si / 1000 Ang^3
#
#
#
# Elastic Constant Matrix: (Units=GPa)
#
#
# Indices 1 2 3 4 5 6 
#
# 1 69.8624 15.9455 22.7840 0.0000 0.0000 0.0000
# 2 15.9455 15.2989 17.2064 0.0000 0.0000 0.0000
# 3 22.7840 17.2064 58.0827 0.0000 0.0000 0.0000
# 4 0.0000 0.0000 0.0000 25.3907 0.0000 0.0000
# 5 0.0000 0.0000 0.0000 0.0000 157.9207 0.0000
# 6 0.0000 0.0000 0.0000 0.0000 0.0000 15.8898
#
#
#
# Elastic Compliance Matrix: (Units=1/GPa)
#
#
# Indices 1 2 3 4 5 6 
#
# 1 0.018999 -0.017126 -0.002379 0.000000 0.000000 0.000000
# 2 -0.017126 0.113460 -0.026894 0.000000 0.000000 0.000000
# 3 -0.002379 -0.026894 0.026117 0.000000 0.000000 0.000000
# 4 0.000000 0.000000 0.000000 0.039385 0.000000 0.000000
# 5 0.000000 0.000000 0.000000 0.000000 0.006332 0.000000
# 6 0.000000 0.000000 0.000000 0.000000 0.000000 0.062933
#
#
# Mechanical properties :
#
#
# Convention : Reuss Voigt Hill
#
# Bulk Modulus (GPa) = 15.20244 28.34621 21.77432
# Shear Modulus (GPa) = 13.09073 45.66078 29.37575
#
# Velocity S-wave (km/s) = 2.66251 4.97256 3.98844
# Velocity P-wave (km/s) = 4.20528 6.95116 5.74470
#
# Compressibility (1/GPa) = 0.06577894
#
# Stress axis : x y z
#
# Youngs Moduli (GPa) = 52.63549 8.81365 38.28908
#
# Poissons Ratio (x) = 0.15094 0.09110
# Poissons Ratio (y) = 0.90142 1.02973
# Poissons Ratio (z) = 0.12523 0.23703
#
# Static dielectric constant tensor:
#      x y z
#    x 1.636530 0.000000 0.000000 
#    y 0.000000 1.631420 0.000000 
#    z 0.000000 0.000000 1.639480 
# 
# From -- ./inp_files/70203.got.cif
#   From: 2010.05.17/outbox.cif.g08.bks.cpg/sg74_36_cif.got.tgz:70203.got - 2010.06.03 17:57:02.
