data_PCOD9537480
_publ_section_title
;
Structure prediction by ZEFSAII (Michael W. Deem and Ramdas Pophale) SiO2 
 PCOD9537480
Probable space group: I M M A
;
_chemical_formula_sum "Si O2"
_cell_formula_units_Z 72
_cell_length_a 18.068689
_cell_length_b 9.030520
_cell_length_c 23.846939
_cell_angle_alpha 90.000000
_cell_angle_beta 90.000000
_cell_angle_gamma 90.000000
_cell_volume 3891.096866
_symmetry_space_group_name_H-M "I M M A"
_symmetry_group_IT_number 74
_symmetry_cell_setting 'orthorhombic'
loop_
_space_group_symop_operation_xyz
x,y,z
-x,1/2-y,z
x,-y,-z
-x,1/2+y,-z
-x,-y,-z
x,1/2+y,-z
-x,y,z
x,1/2-y,z
1/2+x,1/2+y,1/2+z
1/2-x,-y,1/2+z
1/2+x,1/2-y,1/2-z
1/2-x,y,1/2-z
1/2-x,1/2-y,1/2-z
1/2+x,y,1/2-z
1/2-x,1/2+y,1/2+z
1/2+x,-y,1/2+z
loop_
_atom_site_type_symbol
_atom_site_label
_atom_site_fract_x
_atom_site_fract_y
_atom_site_fract_z
Si Si1 0.587186 0.927300 0.872284
Si Si2 0.086286 0.072142 0.243801
Si Si3 0.000000 0.928620 0.061298
Si Si4 0.215873 0.072774 0.560066
Si Si5 0.856661 0.427757 0.865223
O O1 0.500000 0.957003 0.880762
O O2 0.597790 0.750000 0.878141
O O3 0.605723 0.968285 0.807742
O O4 0.639421 0.013300 0.914542
O O5 0.090364 0.250000 0.239876
O O6 0.000000 0.029629 0.234754
O O7 0.134740 0.999446 0.195624
O O8 0.927155 0.971690 0.096568
O O9 0.000000 0.750000 0.055634
O O10 0.000000 0.000000 0.000000
O O11 0.214677 0.250000 0.554734
O O12 0.281850 0.031065 0.602623
O O13 0.229789 0.000000 0.500000
O O14 0.858711 0.250000 0.859465
#
# Coordination Sequence:
#
# PCOD9537480 Si02
#       5
#    16  16   8  16  16
#     4   9  20  40  63  86 113 146 186 233 284 340
#     4   9  18  34  58  87 115 146 188 232 277 333
#     4  10  20  34  52  76 108 150 193 230 271 320
#     4  11  24  40  58  83 114 149 191 236 284 337
#     4  10  21  36  55  81 115 152 188 231 281 332
#
# _framework density 18.503779999999999
#
# number of rings (size 3 to 8) (size 9 to 14) (size 15 to 20)
#    0.000    2.222    1.111    2.667    0.000    5.333 
#    0.000    6.667    0.000    0.000    0.000    0.000 
#    0.000    0.000    0.000    0.000    0.000    0.000 
#
# Total GULP energy -201034.595214 kJ/mol
# GULP energy per Si atom -5584.294312 kJ/mol
# Density = 1.846166 g / cm^3
# Si number density = 18.503780 Si / 1000 Ang^3
#
#
#
# Elastic Constant Matrix: (Units=GPa)
#
#
# Indices 1 2 3 4 5 6 
#
# 1 59.8248 24.5370 14.1489 0.0000 0.0000 0.0000
# 2 24.5370 20.0003 16.8105 0.0000 0.0000 0.0000
# 3 14.1489 16.8105 30.1918 0.0000 0.0000 0.0000
# 4 0.0000 0.0000 0.0000 36.7523 0.0000 0.0000
# 5 0.0000 0.0000 0.0000 0.0000 29.9487 0.0000
# 6 0.0000 0.0000 0.0000 0.0000 0.0000 22.3282
#
#
#
# Elastic Compliance Matrix: (Units=1/GPa)
#
#
# Indices 1 2 3 4 5 6 
#
# 1 0.036884 -0.057746 0.014868 0.000000 0.000000 0.000000
# 2 -0.057746 0.184391 -0.075605 0.000000 0.000000 0.000000
# 3 0.014868 -0.075605 0.068250 0.000000 0.000000 0.000000
# 4 0.000000 0.000000 0.000000 0.027209 0.000000 0.000000
# 5 0.000000 0.000000 0.000000 0.000000 0.033390 0.000000
# 6 0.000000 0.000000 0.000000 0.000000 0.000000 0.044786
#
#
# Mechanical properties :
#
#
# Convention : Reuss Voigt Hill
#
# Bulk Modulus (GPa) = 19.02689 24.55663 21.79176
# Shear Modulus (GPa) = 7.69944 21.44056 14.57000
#
# Velocity S-wave (km/s) = 2.04207 3.40768 2.80912
# Velocity P-wave (km/s) = 3.98310 5.36498 4.72483
#
# Compressibility (1/GPa) = 0.05255720
#
# Stress axis : x y z
#
# Youngs Moduli (GPa) = 27.11228 5.42326 14.65194
#
# Poissons Ratio (x) = 0.31317 -0.21784
# Poissons Ratio (y) = 1.56564 1.10776
# Poissons Ratio (z) = -0.40310 0.41003
#
# Static dielectric constant tensor:
#      x y z
#    x 1.632580 0.000000 0.000000 
#    y 0.000000 1.615290 0.000000 
#    z 0.000000 0.000000 1.612930 
# 
# From -- ./inp_files/56668.got.cif
#   From: 2010.05.17/outbox.cif.g08.bks.cpg/sg74_29_cif.got.tgz:56668.got - 2010.06.03 17:57:02.
