data_PCOD9537668
_publ_section_title
;
Structure prediction by ZEFSAII (Michael W. Deem and Ramdas Pophale) SiO2 
 PCOD9537668
Probable space group: I M M A
;
_chemical_formula_sum "Si O2"
_cell_formula_units_Z 104
_cell_length_a 7.808401
_cell_length_b 23.613891
_cell_length_c 30.885460
_cell_angle_alpha 90.000000
_cell_angle_beta 90.000000
_cell_angle_gamma 90.000000
_cell_volume 5694.868977
_symmetry_space_group_name_H-M "I M M A"
_symmetry_group_IT_number 74
_symmetry_cell_setting 'orthorhombic'
loop_
_space_group_symop_operation_xyz
x,y,z
-x,1/2-y,z
x,-y,-z
-x,1/2+y,-z
-x,-y,-z
x,1/2+y,-z
-x,y,z
x,1/2-y,z
1/2+x,1/2+y,1/2+z
1/2-x,-y,1/2+z
1/2+x,1/2-y,1/2-z
1/2-x,y,1/2-z
1/2-x,1/2-y,1/2-z
1/2+x,y,1/2-z
1/2-x,1/2+y,1/2+z
1/2+x,-y,1/2+z
loop_
_atom_site_type_symbol
_atom_site_label
_atom_site_fract_x
_atom_site_fract_y
_atom_site_fract_z
Si Si1 0.500000 0.314784 0.981127
Si Si2 0.701005 0.514496 0.550545
Si Si3 0.202460 0.185245 0.910988
Si Si4 0.695912 0.985244 0.798277
Si Si5 0.500000 0.184890 0.143638
Si Si6 0.203348 0.430254 0.871894
Si Si7 0.000000 0.397172 0.437765
Si Si8 0.306506 0.361823 0.300091
O O1 0.500000 0.250000 0.997855
O O2 0.668880 0.321104 0.951243
O O3 0.500000 0.360274 0.018769
O O4 0.727168 0.500000 0.500000
O O5 0.500000 0.529586 0.556181
O O6 0.737815 0.461702 0.582394
O O7 0.832072 0.563523 0.563029
O O8 0.221701 0.250000 0.895046
O O9 0.248852 0.135568 0.877493
O O10 0.000000 0.177442 0.922548
O O11 0.500000 0.965941 0.795983
O O12 0.750000 0.003373 0.750000
O O13 0.799198 0.928985 0.811236
O O14 0.713168 0.034625 0.833238
O O15 0.500000 0.250000 0.130537
O O16 0.500000 0.143933 0.102811
O O17 0.667955 0.170870 0.171749
O O18 0.000000 0.433497 0.864353
O O19 0.500000 0.341198 0.305459
O O20 0.250000 0.358180 0.250000
#
# Coordination Sequence:
#
# PCOD9537668 Si02
#       8
#     8  16  16  16   8  16   8  16
#     4  10  21  37  57  80 107 148 201 244 279 334
#     4  10  22  38  58  88 120 153 194 243 294 357
#     4   9  19  36  58  83 112 149 194 240 282 327
#     4  11  21  35  58  87 119 151 189 234 292 357
#     4  12  27  43  59  88 121 156 205 250 300 365
#     4  10  20  34  55  84 116 150 189 237 286 342
#     4  12  24  38  58  82 119 162 189 236 302 361
#     4  11  21  42  66  87 112 147 192 250 309 356
#
# _framework density 18.262053999999999
#
# number of rings (size 3 to 8) (size 9 to 14) (size 15 to 20)
#    0.000    1.538    1.538    4.615    2.154    4.308 
#    0.000    0.000    0.000    3.231    0.000    0.000 
#    0.000    0.000    0.000    0.000    0.000    0.000 
#
# Total GULP energy -290451.596918 kJ/mol
# GULP energy per Si atom -5585.607633 kJ/mol
# Density = 1.822049 g / cm^3
# Si number density = 18.262054 Si / 1000 Ang^3
#
#
#
# Elastic Constant Matrix: (Units=GPa)
#
#
# Indices 1 2 3 4 5 6 
#
# 1 104.2244 48.2478 33.2858 0.0000 0.0000 0.0000
# 2 48.2478 93.9873 36.0031 0.0000 0.0000 0.0000
# 3 33.2858 36.0031 58.5671 0.0000 0.0000 0.0000
# 4 0.0000 0.0000 0.0000 9.0575 0.0000 0.0000
# 5 0.0000 0.0000 0.0000 0.0000 9.7139 0.0000
# 6 0.0000 0.0000 0.0000 0.0000 0.0000 21.9957
#
#
#
# Elastic Compliance Matrix: (Units=1/GPa)
#
#
# Indices 1 2 3 4 5 6 
#
# 1 0.013412 -0.005186 -0.004434 0.000000 0.000000 0.000000
# 2 -0.005186 0.015922 -0.006841 0.000000 0.000000 0.000000
# 3 -0.004434 -0.006841 0.023800 0.000000 0.000000 0.000000
# 4 0.000000 0.000000 0.000000 0.110405 0.000000 0.000000
# 5 0.000000 0.000000 0.000000 0.000000 0.102945 0.000000
# 6 0.000000 0.000000 0.000000 0.000000 0.000000 0.045463
#
#
# Mechanical properties :
#
#
# Convention : Reuss Voigt Hill
#
# Bulk Modulus (GPa) = 49.47593 54.65026 52.06310
# Shear Modulus (GPa) = 14.22044 17.43624 15.82834
#
# Velocity S-wave (km/s) = 2.79353 3.09330 2.94723
# Velocity P-wave (km/s) = 6.12830 6.53824 6.33659
#
# Compressibility (1/GPa) = 0.02021185
#
# Stress axis : x y z
#
# Youngs Moduli (GPa) = 74.56223 62.80464 42.01746
#
# Poissons Ratio (x) = 0.32572 0.18631
# Poissons Ratio (y) = 0.38669 0.28742
# Poissons Ratio (z) = 0.33062 0.42962
#
# Static dielectric constant tensor:
#      x y z
#    x 1.655240 0.000000 0.000000 
#    y 0.000000 1.627280 0.000000 
#    z 0.000000 0.000000 1.612360 
# 
# From -- ./inp_files/64814.got.cif
#   From: 2010.05.17/outbox.cif.g08.bks.cpg/sg74_33_cif.got.tgz:64814.got - 2010.06.03 17:57:02.
