data_PCOD9537297
_publ_section_title
;
Structure prediction by ZEFSAII (Michael W. Deem and Ramdas Pophale) SiO2 
 PCOD9537297
Probable space group: I M M A
;
_chemical_formula_sum "Si O2"
_cell_formula_units_Z 112
_cell_length_a 26.037670
_cell_length_b 14.202169
_cell_length_c 17.503080
_cell_angle_alpha 90.000000
_cell_angle_beta 90.000000
_cell_angle_gamma 90.000000
_cell_volume 6472.488277
_symmetry_space_group_name_H-M "I M M A"
_symmetry_group_IT_number 74
_symmetry_cell_setting 'orthorhombic'
loop_
_space_group_symop_operation_xyz
x,y,z
-x,1/2-y,z
x,-y,-z
-x,1/2+y,-z
-x,-y,-z
x,1/2+y,-z
-x,y,z
x,1/2-y,z
1/2+x,1/2+y,1/2+z
1/2-x,-y,1/2+z
1/2+x,1/2-y,1/2-z
1/2-x,y,1/2-z
1/2-x,1/2-y,1/2-z
1/2+x,y,1/2-z
1/2-x,1/2+y,1/2+z
1/2+x,-y,1/2+z
loop_
_atom_site_type_symbol
_atom_site_label
_atom_site_fract_x
_atom_site_fract_y
_atom_site_fract_z
Si Si1 0.698608 0.853117 0.645503
Si Si2 0.641922 0.359830 0.193480
Si Si3 0.000000 0.637921 0.011007
Si Si4 0.288994 0.980426 0.910685
Si Si5 0.393988 0.066905 0.435249
Si Si6 0.901457 0.029456 0.772683
Si Si7 0.500000 0.862175 0.307672
Si Si8 0.695035 0.139883 0.791666
O O1 0.723362 0.750000 0.637609
O O2 0.681365 0.864382 0.733789
O O3 0.735576 0.935790 0.618582
O O4 0.647422 0.857305 0.593282
O O5 0.627165 0.250000 0.185542
O O6 0.669414 0.404282 0.119898
O O7 0.599187 0.435645 0.220057
O O8 0.000000 0.750000 0.007310
O O9 0.000000 0.611703 0.101160
O O10 0.051882 0.602937 0.969168
O O11 0.299985 0.078198 0.867829
O O12 0.289046 0.000000 0.000000
O O13 0.370601 0.000000 0.500000
O O14 0.402139 0.006580 0.359288
O O15 0.850054 0.088724 0.755741
O O16 0.950481 0.095323 0.766408
O O17 0.500000 0.750000 0.304823
O O18 0.683440 0.250000 0.803640
O O19 0.750000 0.133490 0.750000
#
# Coordination Sequence:
#
# PCOD9537297 Si02
#       8
#    16  16   8  16  16  16   8  16
#     4  10  20  33  52  76 103 141 189 233 275 323
#     4   9  19  36  57  77 104 142 183 227 281 334
#     4  11  22  34  48  71 109 155 198 233 276 313
#     4  11  21  34  53  80 109 138 174 225 281 337
#     4  11  19  32  48  68 104 146 192 236 277 306
#     4  10  20  35  55  77 106 143 190 234 276 325
#     4  11  21  35  54  80 112 153 197 231 271 325
#     4  10  21  38  56  77 107 146 185 227 279 334
#
# _framework density 17.304010000000002
#
# number of rings (size 3 to 8) (size 9 to 14) (size 15 to 20)
#    0.000    1.714    1.429    5.357    0.000    2.857 
#    0.000    1.786    0.000    0.000    0.000    8.000 
#    0.000    9.143    0.000    0.000    0.000    0.000 
#
# Total GULP energy -312311.076211 kJ/mol
# GULP energy per Si atom -5576.983504 kJ/mol
# Density = 1.726463 g / cm^3
# Si number density = 17.304010 Si / 1000 Ang^3
#
#
#
# Elastic Constant Matrix: (Units=GPa)
#
#
# Indices 1 2 3 4 5 6 
#
# 1 79.8766 46.4667 23.5158 0.0000 0.0000 0.0000
# 2 46.4667 143.1127 39.0541 0.0000 0.0000 0.0000
# 3 23.5158 39.0541 64.9340 0.0000 0.0000 0.0000
# 4 0.0000 0.0000 0.0000 12.9538 0.0000 0.0000
# 5 0.0000 0.0000 0.0000 0.0000 14.7945 0.0000
# 6 0.0000 0.0000 0.0000 0.0000 0.0000 6.1763
#
#
#
# Elastic Compliance Matrix: (Units=1/GPa)
#
#
# Indices 1 2 3 4 5 6 
#
# 1 0.015968 -0.004315 -0.003188 0.000000 0.000000 0.000000
# 2 -0.004315 0.009525 -0.004166 0.000000 0.000000 0.000000
# 3 -0.003188 -0.004166 0.019061 0.000000 0.000000 0.000000
# 4 0.000000 0.000000 0.000000 0.077198 0.000000 0.000000
# 5 0.000000 0.000000 0.000000 0.000000 0.067593 0.000000
# 6 0.000000 0.000000 0.000000 0.000000 0.000000 0.161908
#
#
# Mechanical properties :
#
#
# Convention : Reuss Voigt Hill
#
# Bulk Modulus (GPa) = 47.13388 56.22182 51.67785
# Shear Modulus (GPa) = 13.10060 18.71069 15.90565
#
# Velocity S-wave (km/s) = 2.75450 3.29187 3.03510
# Velocity P-wave (km/s) = 6.11672 6.85636 6.49707
#
# Compressibility (1/GPa) = 0.02121616
#
# Stress axis : x y z
#
# Youngs Moduli (GPa) = 62.62637 104.98270 52.46432
#
# Poissons Ratio (x) = 0.45296 0.16724
# Poissons Ratio (y) = 0.27021 0.21859
# Poissons Ratio (z) = 0.19963 0.43741
#
# Static dielectric constant tensor:
#      x y z
#    x 1.609820 0.000000 0.000000 
#    y 0.000000 1.617270 0.000000 
#    z 0.000000 0.000000 1.558770 
# 
# From -- ./inp_files/37441.got.cif
#   From: 2010.05.17/outbox.cif.g08.bks.cpg/sg74_19_cif.got.tgz:37441.got - 2010.06.03 17:57:02.
