data_PCOD9537848
_publ_section_title
;
Structure prediction by ZEFSAII (Michael W. Deem and Ramdas Pophale) SiO2 
 PCOD9537848
Probable space group: I M M A
;
_chemical_formula_sum "Si O2"
_cell_formula_units_Z 96
_cell_length_a 23.208158
_cell_length_b 8.710154
_cell_length_c 24.711946
_cell_angle_alpha 90.000000
_cell_angle_beta 90.000000
_cell_angle_gamma 90.000000
_cell_volume 4995.436610
_symmetry_space_group_name_H-M "I M M A"
_symmetry_group_IT_number 74
_symmetry_cell_setting 'orthorhombic'
loop_
_space_group_symop_operation_xyz
x,y,z
-x,1/2-y,z
x,-y,-z
-x,1/2+y,-z
-x,-y,-z
x,1/2+y,-z
-x,y,z
x,1/2-y,z
1/2+x,1/2+y,1/2+z
1/2-x,-y,1/2+z
1/2+x,1/2-y,1/2-z
1/2-x,y,1/2-z
1/2-x,1/2-y,1/2-z
1/2+x,y,1/2-z
1/2-x,1/2+y,1/2+z
1/2+x,-y,1/2+z
loop_
_atom_site_type_symbol
_atom_site_label
_atom_site_fract_x
_atom_site_fract_y
_atom_site_fract_z
Si Si1 0.067446 0.064878 0.441918
Si Si2 0.064246 0.434201 0.115597
Si Si3 0.760679 0.433445 0.836616
Si Si4 0.622243 0.933420 0.278552
Si Si5 0.866559 0.566511 0.666494
Si Si6 0.819802 0.566043 0.942014
O O1 0.070388 0.250000 0.444376
O O2 0.103920 0.013565 0.389620
O O3 0.000000 0.021629 0.435017
O O4 0.087206 0.000000 0.500000
O O5 0.065077 0.250000 0.122683
O O6 0.083004 0.508863 0.172234
O O7 0.113532 0.470735 0.072117
O O8 0.000000 0.482133 0.099957
O O9 0.754123 0.250000 0.832940
O O10 0.811886 0.478907 0.795150
O O11 0.699218 0.511062 0.829628
O O12 0.783706 0.484852 0.895094
O O13 0.620855 0.750000 0.275864
O O14 0.604733 0.002701 0.221096
O O15 0.868980 0.750000 0.667149
O O16 0.811904 0.750000 0.939695
O O17 0.804244 0.500000 0.000000
#
# Coordination Sequence:
#
# PCOD9537848 Si02
#       6
#    16  16  16  16  16  16
#     4   9  20  39  59  79 105 136 170 211 259 309
#     4   9  19  36  56  78 107 144 183 224 272 323
#     4  10  21  37  55  77 109 144 179 224 271 315
#     4  10  21  36  54  79 110 143 180 223 269 315
#     4  11  22  35  56  84 110 140 178 217 263 324
#     4  10  20  35  55  79 108 143 183 225 271 323
#
# _framework density 19.21754
#
# number of rings (size 3 to 8) (size 9 to 14) (size 15 to 20)
#    0.000    2.167    0.000    2.500    0.000    8.000 
#    0.000    3.333    0.000    0.000    0.000    0.000 
#    0.000    0.000    0.000    0.000    0.000    0.000 
#
# Total GULP energy -267991.959318 kJ/mol
# GULP energy per Si atom -5583.165819 kJ/mol
# Density = 1.917380 g / cm^3
# Si number density = 19.217540 Si / 1000 Ang^3
#
#
#
# Elastic Constant Matrix: (Units=GPa)
#
#
# Indices 1 2 3 4 5 6 
#
# 1 11.8295 -4.8405 -6.8482 0.0000 0.0000 0.0000
# 2 -4.8405 10.4789 8.7541 0.0000 0.0000 0.0000
# 3 -6.8482 8.7541 117.2923 0.0000 0.0000 0.0000
# 4 0.0000 0.0000 0.0000 27.7300 0.0000 0.0000
# 5 0.0000 0.0000 0.0000 0.0000 3.1459 0.0000
# 6 0.0000 0.0000 0.0000 0.0000 0.0000 10.6471
#
#
#
# Elastic Compliance Matrix: (Units=1/GPa)
#
#
# Indices 1 2 3 4 5 6 
#
# 1 0.105019 0.046274 0.002678 0.000000 0.000000 0.000000
# 2 0.046274 0.122166 -0.006416 0.000000 0.000000 0.000000
# 3 0.002678 -0.006416 0.009161 0.000000 0.000000 0.000000
# 4 0.000000 0.000000 0.000000 0.036062 0.000000 0.000000
# 5 0.000000 0.000000 0.000000 0.000000 0.317879 0.000000
# 6 0.000000 0.000000 0.000000 0.000000 0.000000 0.093922
#
#
# Mechanical properties :
#
#
# Convention : Reuss Voigt Hill
#
# Bulk Modulus (GPa) = 3.11122 14.85906 8.98514
# Shear Modulus (GPa) = 7.07939 17.80694 12.44316
#
# Velocity S-wave (km/s) = 1.92141 3.04731 2.54734
# Velocity P-wave (km/s) = 2.55830 4.48668 3.65207
#
# Compressibility (1/GPa) = 0.32141752
#
# Stress axis : x y z
#
# Youngs Moduli (GPa) = 9.52206 8.18562 109.15926
#
# Poissons Ratio (x) = -0.37878 -0.29232
# Poissons Ratio (y) = -0.44062 0.70037
# Poissons Ratio (z) = -0.02550 0.05252
#
# Static dielectric constant tensor:
#      x y z
#    x 1.688830 0.000000 0.000000 
#    y 0.000000 1.644330 0.000000 
#    z 0.000000 0.000000 1.773660 
# 
# From -- ./inp_files/55098.got.cif
#   From: 2010.05.17/outbox.cif.g08.bks.cpg/sg74_28_cif.got.tgz:55098.got - 2010.06.03 17:57:02.
