data_PCOD9537740
_publ_section_title
;
Structure prediction by ZEFSAII (Michael W. Deem and Ramdas Pophale) SiO2 
 PCOD9537740
Probable space group: I M M A
;
_chemical_formula_sum "Si O2"
_cell_formula_units_Z 80
_cell_length_a 15.334210
_cell_length_b 22.728094
_cell_length_c 11.149403
_cell_angle_alpha 90.000000
_cell_angle_beta 90.000000
_cell_angle_gamma 90.000000
_cell_volume 3885.760569
_symmetry_space_group_name_H-M "I M M A"
_symmetry_group_IT_number 74
_symmetry_cell_setting 'orthorhombic'
loop_
_space_group_symop_operation_xyz
x,y,z
-x,1/2-y,z
x,-y,-z
-x,1/2+y,-z
-x,-y,-z
x,1/2+y,-z
-x,y,z
x,1/2-y,z
1/2+x,1/2+y,1/2+z
1/2-x,-y,1/2+z
1/2+x,1/2-y,1/2-z
1/2-x,y,1/2-z
1/2-x,1/2-y,1/2-z
1/2+x,y,1/2-z
1/2-x,1/2+y,1/2+z
1/2+x,-y,1/2+z
loop_
_atom_site_type_symbol
_atom_site_label
_atom_site_fract_x
_atom_site_fract_y
_atom_site_fract_z
Si Si1 0.755277 0.139254 0.381438
Si Si2 0.189664 0.813773 0.369390
Si Si3 0.398208 0.962479 0.876674
Si Si4 0.602031 0.429928 0.488049
Si Si5 0.603653 0.077483 0.756768
O O1 0.750000 0.168325 0.250000
O O2 0.765537 0.178727 0.500569
O O3 0.835936 0.093310 0.381752
O O4 0.667625 0.100855 0.398563
O O5 0.143335 0.750000 0.369626
O O6 0.250000 0.812940 0.250000
O O7 0.134074 0.872474 0.346981
O O8 0.500000 0.947081 0.852100
O O9 0.363476 0.011926 0.784137
O O10 0.397003 0.000000 0.000000
O O11 0.613580 0.500000 0.500000
O O12 0.500000 0.419402 0.461150
O O13 0.624281 0.405650 0.620669
O O14 0.500000 0.072329 0.765621
#
# Coordination Sequence:
#
# PCOD9537740 Si02
#       5
#    16  16  16  16  16
#     4  12  24  37  62  92 124 165 199 246 313 376
#     4  11  24  42  62  85 116 158 213 263 299 352
#     4  10  20  34  57  93 130 160 196 248 307 373
#     4  10  21  37  58  89 127 161 200 246 300 370
#     4  10  20  38  63  90 120 159 207 257 304 361
#
# _framework density 20.587990000000001
#
# number of rings (size 3 to 8) (size 9 to 14) (size 15 to 20)
#    0.000    1.400    4.000    1.800    0.000    4.000 
#    0.000    0.000    0.000    0.600    0.000    2.800 
#    0.000    0.000    0.000    0.000    0.000    0.000 
#
# Total GULP energy -223247.184661 kJ/mol
# GULP energy per Si atom -5581.179617 kJ/mol
# Density = 2.054113 g / cm^3
# Si number density = 20.587990 Si / 1000 Ang^3
#
#
#
# Elastic Constant Matrix: (Units=GPa)
#
#
# Indices 1 2 3 4 5 6 
#
# 1 45.9463 18.4650 26.9922 0.0000 0.0000 0.0000
# 2 18.4650 75.5518 21.3752 0.0000 0.0000 0.0000
# 3 26.9922 21.3752 141.8683 0.0000 0.0000 0.0001
# 4 0.0000 0.0000 0.0000 7.4461 0.0000 0.0000
# 5 0.0000 0.0000 0.0000 0.0000 4.6689 0.0000
# 6 0.0000 0.0000 0.0001 0.0000 0.0000 -22.7358
#
#
#
# Elastic Compliance Matrix: (Units=1/GPa)
#
#
# Indices 1 2 3 4 5 6 
#
# 1 0.026354 -0.005246 -0.004224 0.000000 0.000000 0.000000
# 2 -0.005246 0.014870 -0.001242 0.000000 0.000000 0.000000
# 3 -0.004224 -0.001242 0.008040 0.000000 0.000000 0.000000
# 4 0.000000 0.000000 0.000000 0.134298 0.000000 0.000000
# 5 0.000000 0.000000 0.000000 0.000000 0.214184 0.000000
# 6 0.000000 0.000000 0.000000 0.000000 0.000000 -0.043983
#
#
# Mechanical properties :
#
#
# Convention : Reuss Voigt Hill
#
# Bulk Modulus (GPa) = 35.92063 44.11459 40.01761
# Shear Modulus (GPa) = 13.00506 10.97810 11.99158
#
# Velocity S-wave (km/s) = 2.51606 2.31168 2.41603
# Velocity P-wave (km/s) = 5.09175 5.34780 5.22135
#
# Compressibility (1/GPa) = 0.02783916
#
# Stress axis : x y z
#
# Youngs Moduli (GPa) = 37.94465 67.25155 124.38440
#
# Poissons Ratio (x) = 0.35280 0.52537
# Poissons Ratio (y) = 0.19906 0.15452
# Poissons Ratio (z) = 0.16027 0.08354
#
# Static dielectric constant tensor:
#      x y z
#    x 1.720180 0.000000 0.000000 
#    y 0.000000 1.722030 0.000000 
#    z 0.000000 0.000000 1.856880 
# 
# From -- ./inp_files/20496.got.cif
#   From: 2010.05.17/outbox.cif.g08.bks.cpg/sg74_11_cif.got.tgz:20496.got - 2010.06.03 17:57:02.
