data_PCOD9537860
_publ_section_title
;
Structure prediction by ZEFSAII (Michael W. Deem and Ramdas Pophale) SiO2 
 PCOD9537860
Probable space group: I M M A
;
_chemical_formula_sum "Si O2"
_cell_formula_units_Z 96
_cell_length_a 8.953582
_cell_length_b 23.958173
_cell_length_c 21.326634
_cell_angle_alpha 90.000000
_cell_angle_beta 90.000000
_cell_angle_gamma 90.000000
_cell_volume 4574.807535
_symmetry_space_group_name_H-M "I M M A"
_symmetry_group_IT_number 74
_symmetry_cell_setting 'orthorhombic'
loop_
_space_group_symop_operation_xyz
x,y,z
-x,1/2-y,z
x,-y,-z
-x,1/2+y,-z
-x,-y,-z
x,1/2+y,-z
-x,y,z
x,1/2-y,z
1/2+x,1/2+y,1/2+z
1/2-x,-y,1/2+z
1/2+x,1/2-y,1/2-z
1/2-x,y,1/2-z
1/2-x,1/2-y,1/2-z
1/2+x,y,1/2-z
1/2-x,1/2+y,1/2+z
1/2+x,-y,1/2+z
loop_
_atom_site_type_symbol
_atom_site_label
_atom_site_fract_x
_atom_site_fract_y
_atom_site_fract_z
Si Si1 0.327634 0.813490 0.449845
Si Si2 0.175577 0.077515 0.122778
Si Si3 0.674384 0.352832 0.689556
Si Si4 0.320731 0.186867 0.180541
Si Si5 0.825292 0.534371 0.355710
Si Si6 0.829457 0.918611 0.495825
O O1 0.500000 0.831426 0.463589
O O2 0.310383 0.750000 0.469910
O O3 0.309183 0.818869 0.374840
O O4 0.208662 0.854612 0.479950
O O5 0.252334 0.135881 0.141476
O O6 0.246326 0.024271 0.157902
O O7 0.000000 0.080739 0.133522
O O8 0.214589 0.066378 0.050045
O O9 0.500000 0.360395 0.701397
O O10 0.750000 0.326168 0.750000
O O11 0.749299 0.413065 0.677594
O O12 0.500000 0.181117 0.183891
O O13 0.287480 0.250000 0.156551
O O14 0.250000 0.183364 0.250000
O O15 0.813277 0.548811 0.430325
O O16 0.000000 0.531512 0.340337
O O17 0.000000 0.925946 0.518221
#
# Coordination Sequence:
#
# PCOD9537860 Si02
#       6
#    16  16  16  16  16  16
#     4   9  19  36  56  79 110 148 188 232 281 331
#     4  12  24  37  59  88 115 147 186 224 268 329
#     4  10  20  35  55  80 111 147 188 232 280 332
#     4  10  22  42  65  87 114 146 181 225 275 325
#     4  10  21  38  58  81 112 147 185 231 281 330
#     4  10  21  37  57  82 113 148 185 230 281 329
#
# _framework density 20.984490000000001
#
# number of rings (size 3 to 8) (size 9 to 14) (size 15 to 20)
#    0.000    1.833    0.000    4.000    0.000    7.667 
#    0.000    3.333    0.000    0.000    0.000    0.000 
#    0.000    0.000    0.000    0.000    0.000    0.000 
#
# Total GULP energy -268271.202557 kJ/mol
# GULP energy per Si atom -5588.983387 kJ/mol
# Density = 2.093673 g / cm^3
# Si number density = 20.984490 Si / 1000 Ang^3
#
#
#
# Elastic Constant Matrix: (Units=GPa)
#
#
# Indices 1 2 3 4 5 6 
#
# 1 104.2773 43.2281 7.8115 0.0000 0.0000 0.0000
# 2 43.2281 101.7309 -8.3353 0.0000 0.0000 0.0000
# 3 7.8115 -8.3353 17.6633 0.0000 0.0000 0.0000
# 4 0.0000 0.0000 0.0000 -5.8400 0.0000 0.0000
# 5 0.0000 0.0000 0.0000 0.0000 34.8951 0.0000
# 6 0.0000 0.0000 0.0000 0.0000 0.0000 26.4097
#
#
#
# Elastic Compliance Matrix: (Units=1/GPa)
#
#
# Indices 1 2 3 4 5 6 
#
# 1 0.012769 -0.006125 -0.008537 0.000000 0.000000 0.000000
# 2 -0.006125 0.013164 0.008921 0.000000 0.000000 0.000000
# 3 -0.008537 0.008921 0.064600 0.000000 0.000000 0.000000
# 4 0.000000 0.000000 0.000000 -0.171233 0.000000 0.000000
# 5 0.000000 0.000000 0.000000 0.000000 0.028657 0.000000
# 6 0.000000 0.000000 0.000000 0.000000 0.000000 0.037865
#
#
# Mechanical properties :
#
#
# Convention : Reuss Voigt Hill
#
# Bulk Modulus (GPa) = 12.65048 34.34221 23.49634
# Shear Modulus (GPa) = 211.38346 23.15746 117.27046
#
# Velocity S-wave (km/s) = 10.04748 3.32558 7.48369
# Velocity P-wave (km/s) = 11.85935 5.58095 9.26798
#
# Compressibility (1/GPa) = 0.07904841
#
# Stress axis : x y z
#
# Youngs Moduli (GPa) = 78.31749 75.96754 15.47990
#
# Poissons Ratio (x) = 0.46531 0.13216
# Poissons Ratio (y) = 0.47971 -0.13809
# Poissons Ratio (z) = 0.66862 -0.67768
#
# Static dielectric constant tensor:
#      x y z
#    x 1.702840 0.000000 0.000000 
#    y 0.000000 1.755200 0.000000 
#    z 0.000000 0.000000 1.784770 
# 
# From -- ./inp_files/57290.got.cif
#   From: 2010.05.17/outbox.cif.g08.bks.cpg/sg74_29_cif.got.tgz:57290.got - 2010.06.03 17:57:02.
