data_PCOD9537104
_publ_section_title
;
Structure prediction by ZEFSAII (Michael W. Deem and Ramdas Pophale) SiO2 
 PCOD9537104
Probable space group: I M M A
;
_chemical_formula_sum "Si O2"
_cell_formula_units_Z 64
_cell_length_a 24.774026
_cell_length_b 25.517130
_cell_length_c 5.036566
_cell_angle_alpha 90.000000
_cell_angle_beta 90.000000
_cell_angle_gamma 90.000000
_cell_volume 3183.925848
_symmetry_space_group_name_H-M "I M M A"
_symmetry_group_IT_number 74
_symmetry_cell_setting 'orthorhombic'
loop_
_space_group_symop_operation_xyz
x,y,z
-x,1/2-y,z
x,-y,-z
-x,1/2+y,-z
-x,-y,-z
x,1/2+y,-z
-x,y,z
x,1/2-y,z
1/2+x,1/2+y,1/2+z
1/2-x,-y,1/2+z
1/2+x,1/2-y,1/2-z
1/2-x,y,1/2-z
1/2-x,1/2-y,1/2-z
1/2+x,y,1/2-z
1/2-x,1/2+y,1/2+z
1/2+x,-y,1/2+z
loop_
_atom_site_type_symbol
_atom_site_label
_atom_site_fract_x
_atom_site_fract_y
_atom_site_fract_z
Si Si1 0.563820 0.311025 0.024894
Si Si2 0.112713 0.135905 0.955720
Si Si3 0.710786 0.440805 0.498873
Si Si4 0.060321 0.032907 0.731457
O O1 0.500000 0.322056 0.967716
O O2 0.566863 0.250000 0.104519
O O3 0.585295 0.346286 0.269260
O O4 0.601501 0.319725 0.765642
O O5 0.170639 0.108814 0.007733
O O6 0.084196 0.087593 0.809585
O O7 0.684474 0.500000 0.500000
O O8 0.750000 0.437518 0.750000
O O9 0.750000 0.439348 0.250000
O O10 0.000000 0.044093 0.630565
O O11 0.089167 0.000000 0.500000
O O12 0.057663 0.000000 0.000000
#
# Coordination Sequence:
#
# PCOD9537104 Si02
#       4
#    16  16  16  16
#     4  11  24  41  62  90 122 158 204 253 301 359
#     4  12  22  38  64  86 117 161 204 246 301 358
#     4  10  22  40  62  90 122 157 201 249 298 359
#     4  10  20  32  49  81 121 152 182 225 285 360
#
# _framework density 20.100971999999999
#
# number of rings (size 3 to 8) (size 9 to 14) (size 15 to 20)
#    0.000    1.250    0.000    6.750    0.000    7.000 
#    0.000    0.000    0.000   15.000    0.000    0.000 
#    0.000    0.000    0.000    0.000    0.000    0.000 
#
# Total GULP energy -178545.528929 kJ/mol
# GULP energy per Si atom -5579.547779 kJ/mol
# Density = 2.005522 g / cm^3
# Si number density = 20.100972 Si / 1000 Ang^3
#
#
#
# Elastic Constant Matrix: (Units=GPa)
#
#
# Indices 1 2 3 4 5 6 
#
# 1 93.1726 37.3243 33.5334 0.0000 0.0000 0.0000
# 2 37.3243 90.4602 20.6605 0.0000 0.0000 0.0000
# 3 33.5334 20.6605 128.5898 0.0000 0.0000 0.0000
# 4 0.0000 0.0000 0.0000 42.2499 0.0000 0.0000
# 5 0.0000 0.0000 0.0000 0.0000 30.3912 0.0000
# 6 0.0000 0.0000 0.0000 0.0000 0.0000 45.3061
#
#
#
# Elastic Compliance Matrix: (Units=1/GPa)
#
#
# Indices 1 2 3 4 5 6 
#
# 1 0.013751 -0.005040 -0.002776 0.000000 0.000000 0.000000
# 2 -0.005040 0.013323 -0.000826 0.000000 0.000000 0.000000
# 3 -0.002776 -0.000826 0.008633 0.000000 0.000000 0.000000
# 4 0.000000 0.000000 0.000000 0.023669 0.000000 0.000000
# 5 0.000000 0.000000 0.000000 0.000000 0.032904 0.000000
# 6 0.000000 0.000000 0.000000 0.000000 0.000000 0.022072
#
#
# Mechanical properties :
#
#
# Convention : Reuss Voigt Hill
#
# Bulk Modulus (GPa) = 54.28105 55.02877 54.65491
# Shear Modulus (GPa) = 36.29054 38.30306 37.29680
#
# Velocity S-wave (km/s) = 4.25362 4.36998 4.31219
# Velocity P-wave (km/s) = 7.15453 7.27309 7.21405
#
# Compressibility (1/GPa) = 0.01842264
#
# Stress axis : x y z
#
# Youngs Moduli (GPa) = 72.72329 75.06004 115.82919
#
# Poissons Ratio (x) = 0.37827 0.32156
# Poissons Ratio (y) = 0.36649 0.09571
# Poissons Ratio (z) = 0.20189 0.06203
#
# Static dielectric constant tensor:
#      x y z
#    x 1.754790 0.000000 0.000000 
#    y 0.000000 1.771770 0.000000 
#    z 0.000000 0.000000 1.757350 
# 
# From -- ./inp_files/2888.got.cif
#   From: 2010.05.17/outbox.cif.g08.bks.cpg/sg74_2_cif.got.tgz:2888.got - 2010.06.03 17:57:02.
