data_PCOD9537081
_publ_section_title
;
Structure prediction by ZEFSAII (Michael W. Deem and Ramdas Pophale) SiO2 
 PCOD9537081
Probable space group: I M M A
;
_chemical_formula_sum "Si O2"
_cell_formula_units_Z 96
_cell_length_a 23.185332
_cell_length_b 8.787109
_cell_length_c 27.444753
_cell_angle_alpha 90.000000
_cell_angle_beta 90.000000
_cell_angle_gamma 90.000000
_cell_volume 5591.375502
_symmetry_space_group_name_H-M "I M M A"
_symmetry_group_IT_number 74
_symmetry_cell_setting 'orthorhombic'
loop_
_space_group_symop_operation_xyz
x,y,z
-x,1/2-y,z
x,-y,-z
-x,1/2+y,-z
-x,-y,-z
x,1/2+y,-z
-x,y,z
x,1/2-y,z
1/2+x,1/2+y,1/2+z
1/2-x,-y,1/2+z
1/2+x,1/2-y,1/2-z
1/2-x,y,1/2-z
1/2-x,1/2-y,1/2-z
1/2+x,y,1/2-z
1/2-x,1/2+y,1/2+z
1/2+x,-y,1/2+z
loop_
_atom_site_type_symbol
_atom_site_label
_atom_site_fract_x
_atom_site_fract_y
_atom_site_fract_z
Si Si1 0.163809 0.574408 0.878008
Si Si2 0.646368 0.922346 0.131497
Si Si3 0.237819 0.933874 0.446000
Si Si4 0.068535 0.570331 0.711865
Si Si5 0.932921 0.432051 0.816026
Si Si6 0.761733 0.918104 0.194084
O O1 0.156269 0.750000 0.890892
O O2 0.204675 0.492010 0.917818
O O3 0.104146 0.498544 0.860785
O O4 0.201475 0.551003 0.829159
O O5 0.625101 0.750000 0.122222
O O6 0.679168 0.982250 0.083031
O O7 0.700835 0.913160 0.167560
O O8 0.599699 0.014057 0.162648
O O9 0.238509 0.750000 0.445533
O O10 0.237504 0.000000 0.500000
O O11 0.078290 0.750000 0.717881
O O12 0.087741 0.488334 0.762270
O O13 0.000000 0.542167 0.707309
O O14 0.930356 0.250000 0.816674
O O15 0.000000 0.479725 0.820236
O O16 0.789636 0.750000 0.185784
O O17 0.750000 0.937992 0.250000
#
# Coordination Sequence:
#
# PCOD9537081 Si02
#       6
#    16  16  16  16  16  16
#     4  11  21  32  50  75 102 132 166 206 252 301
#     4   9  18  31  49  73 100 132 167 205 250 301
#     4  10  21  38  58  79 102 128 164 210 260 311
#     4  10  20  32  48  74 107 140 174 212 250 293
#     4  10  20  34  52  73 102 142 180 211 247 294
#     4   9  17  29  45  67  98 132 165 203 247 296
#
# _framework density 17.1693
#
# number of rings (size 3 to 8) (size 9 to 14) (size 15 to 20)
#    0.000    2.167    0.000    5.000    0.000    7.000 
#    0.000    0.000    0.000    1.000    0.000    0.000 
#    0.000    0.000    0.000    0.000    0.000    0.000 
#
# Total GULP energy -267400.529627 kJ/mol
# GULP energy per Si atom -5570.844367 kJ/mol
# Density = 1.713022 g / cm^3
# Si number density = 17.169300 Si / 1000 Ang^3
#
#
#
# Elastic Constant Matrix: (Units=GPa)
#
#
# Indices 1 2 3 4 5 6 
#
# 1 42.4467 17.8888 14.1981 0.0000 0.0000 0.0000
# 2 17.8888 57.2432 22.5877 0.0000 0.0000 0.0000
# 3 14.1981 22.5877 89.1296 0.0000 0.0000 0.0000
# 4 0.0000 0.0000 0.0000 -59.3820 0.0000 0.0000
# 5 0.0000 0.0000 0.0000 0.0000 25.1336 0.0000
# 6 0.0000 0.0000 0.0000 0.0000 0.0000 4.6130
#
#
#
# Elastic Compliance Matrix: (Units=1/GPa)
#
#
# Indices 1 2 3 4 5 6 
#
# 1 0.027608 -0.007658 -0.002457 0.000000 0.000000 0.000000
# 2 -0.007658 0.021535 -0.004237 0.000000 0.000000 0.000000
# 3 -0.002457 -0.004237 0.012685 0.000000 0.000000 0.000000
# 4 0.000000 0.000000 0.000000 -0.016840 0.000000 0.000000
# 5 0.000000 0.000000 0.000000 0.000000 0.039787 0.000000
# 6 0.000000 0.000000 0.000000 0.000000 0.000000 0.216779
#
#
# Mechanical properties :
#
#
# Convention : Reuss Voigt Hill
#
# Bulk Modulus (GPa) = 30.19117 33.12983 31.66050
# Shear Modulus (GPa) = 14.64986 3.01591 8.83288
#
# Velocity S-wave (km/s) = 2.92423 1.32679 2.27063
# Velocity P-wave (km/s) = 5.38740 4.65672 5.03533
#
# Compressibility (1/GPa) = 0.03312227
#
# Stress axis : x y z
#
# Youngs Moduli (GPa) = 36.22094 46.43686 78.83374
#
# Poissons Ratio (x) = 0.35562 0.19371
# Poissons Ratio (y) = 0.27739 0.33406
# Poissons Ratio (z) = 0.08900 0.19678
#
# Static dielectric constant tensor:
#      x y z
#    x 1.695150 0.000000 0.000000 
#    y 0.000000 1.615440 0.000000 
#    z 0.000000 0.000000 1.636300 
# 
# From -- ./inp_files/68136.got.cif
#   From: 2010.05.17/outbox.cif.g08.bks.cpg/sg74_35_cif.got.tgz:68136.got - 2010.06.03 17:57:02.
