data_PCOD9537350
_publ_section_title
;
Structure prediction by ZEFSAII (Michael W. Deem and Ramdas Pophale) SiO2 
 PCOD9537350
Probable space group: I M M A
;
_chemical_formula_sum "Si O2"
_cell_formula_units_Z 96
_cell_length_a 14.675477
_cell_length_b 14.567142
_cell_length_c 23.323578
_cell_angle_alpha 90.000000
_cell_angle_beta 90.000000
_cell_angle_gamma 90.000000
_cell_volume 4986.108846
_symmetry_space_group_name_H-M "I M M A"
_symmetry_group_IT_number 74
_symmetry_cell_setting 'orthorhombic'
loop_
_space_group_symop_operation_xyz
x,y,z
-x,1/2-y,z
x,-y,-z
-x,1/2+y,-z
-x,-y,-z
x,1/2+y,-z
-x,y,z
x,1/2-y,z
1/2+x,1/2+y,1/2+z
1/2-x,-y,1/2+z
1/2+x,1/2-y,1/2-z
1/2-x,y,1/2-z
1/2-x,1/2-y,1/2-z
1/2+x,y,1/2-z
1/2-x,1/2+y,1/2+z
1/2+x,-y,1/2+z
loop_
_atom_site_type_symbol
_atom_site_label
_atom_site_fract_x
_atom_site_fract_y
_atom_site_fract_z
Si Si1 0.395690 0.649786 0.630476
Si Si2 0.857544 0.352649 0.262000
Si Si3 0.894662 0.009348 0.364085
Si Si4 0.722324 0.142618 0.914278
Si Si5 0.893535 0.643150 0.529235
Si Si6 0.106095 0.472172 0.933524
O O1 0.500000 0.653929 0.609066
O O2 0.352366 0.750000 0.618979
O O3 0.398539 0.636942 0.698672
O O4 0.355613 0.560647 0.600854
O O5 0.881798 0.250000 0.283495
O O6 0.750000 0.355091 0.250000
O O7 0.883438 0.429938 0.307045
O O8 0.874718 0.076507 0.417831
O O9 0.000000 0.979847 0.368632
O O10 0.828274 0.922776 0.368925
O O11 0.714494 0.250000 0.900973
O O12 0.826506 0.111292 0.921529
O O13 0.670458 0.125666 0.974831
O O14 0.882645 0.750000 0.546182
O O15 0.000000 0.630154 0.512523
O O16 0.000000 0.454784 0.917601
O O17 0.107924 0.500000 0.000000
#
# Coordination Sequence:
#
# PCOD9537350 Si02
#       6
#    16  16  16  16  16  16
#     4   9  18  34  56  81 109 137 166 210 270 331
#     4  10  20  33  53  83 116 146 175 213 269 338
#     4  11  21  34  56  83 112 147 187 230 276 331
#     4  11  23  37  53  75 108 149 192 238 282 324
#     4   9  18  33  54  81 112 144 179 224 280 337
#     4  10  21  37  58  83 110 144 187 230 276 335
#
# _framework density 19.253489999999999
#
# number of rings (size 3 to 8) (size 9 to 14) (size 15 to 20)
#    0.000    2.000    0.000    4.000    0.000    5.000 
#    0.000    5.833    0.000    4.500    0.000    4.667 
#    0.000    0.000    0.000    0.000    0.000    0.000 
#
# Total GULP energy -268104.817630 kJ/mol
# GULP energy per Si atom -5585.517034 kJ/mol
# Density = 1.920967 g / cm^3
# Si number density = 19.253490 Si / 1000 Ang^3
#
#
#
# Elastic Constant Matrix: (Units=GPa)
#
#
# Indices 1 2 3 4 5 6 
#
# 1 92.1935 39.6648 11.9346 0.0000 0.0000 0.0000
# 2 39.6648 113.7034 48.9270 0.0000 0.0000 0.0000
# 3 11.9346 48.9270 50.0887 0.0000 0.0000 0.0000
# 4 0.0000 0.0000 0.0000 28.7942 0.0000 0.0000
# 5 0.0000 0.0000 0.0000 0.0000 40.6185 0.0000
# 6 0.0000 0.0000 0.0000 0.0000 0.0000 1.0936
#
#
#
# Elastic Compliance Matrix: (Units=1/GPa)
#
#
# Indices 1 2 3 4 5 6 
#
# 1 0.012912 -0.005486 0.002283 0.000000 0.000000 0.000000
# 2 -0.005486 0.017503 -0.015790 0.000000 0.000000 0.000000
# 3 0.002283 -0.015790 0.034845 0.000000 0.000000 0.000000
# 4 0.000000 0.000000 0.000000 0.034729 0.000000 0.000000
# 5 0.000000 0.000000 0.000000 0.000000 0.024619 0.000000
# 6 0.000000 0.000000 0.000000 0.000000 0.000000 0.914388
#
#
# Mechanical properties :
#
#
# Convention : Reuss Voigt Hill
#
# Bulk Modulus (GPa) = 36.66768 50.78205 43.72486
# Shear Modulus (GPa) = 4.60374 24.46520 14.53447
#
# Velocity S-wave (km/s) = 1.54800 3.56854 2.75053
# Velocity P-wave (km/s) = 4.72029 6.58878 5.73119
#
# Compressibility (1/GPa) = 0.02727198
#
# Stress axis : x y z
#
# Youngs Moduli (GPa) = 77.44908 57.13216 28.69886
#
# Poissons Ratio (x) = 0.31345 -0.06551
# Poissons Ratio (y) = 0.42492 0.45316
# Poissons Ratio (z) = -0.17680 0.90212
#
# Static dielectric constant tensor:
#      x y z
#    x 1.520970 0.000000 0.000000 
#    y 0.000000 1.688640 0.000000 
#    z 0.000000 0.000000 1.645020 
# 
# From -- ./inp_files/51825.got.cif
#   From: 2010.05.17/outbox.cif.g08.bks.cpg/sg74_26_cif.got.tgz:51825.got - 2010.06.03 17:57:02.
