data_PCOD9537168
_publ_section_title
;
Structure prediction by ZEFSAII (Michael W. Deem and Ramdas Pophale) SiO2 
 PCOD9537168
Probable space group: I M M A
;
_chemical_formula_sum "Si O2"
_cell_formula_units_Z 96
_cell_length_a 21.890187
_cell_length_b 7.537416
_cell_length_c 31.745330
_cell_angle_alpha 90.000000
_cell_angle_beta 90.000000
_cell_angle_gamma 90.000000
_cell_volume 5237.834873
_symmetry_space_group_name_H-M "I M M A"
_symmetry_group_IT_number 74
_symmetry_cell_setting 'orthorhombic'
loop_
_space_group_symop_operation_xyz
x,y,z
-x,1/2-y,z
x,-y,-z
-x,1/2+y,-z
-x,-y,-z
x,1/2+y,-z
-x,y,z
x,1/2-y,z
1/2+x,1/2+y,1/2+z
1/2-x,-y,1/2+z
1/2+x,1/2-y,1/2-z
1/2-x,y,1/2-z
1/2-x,1/2-y,1/2-z
1/2+x,y,1/2-z
1/2-x,1/2+y,1/2+z
1/2+x,-y,1/2+z
loop_
_atom_site_type_symbol
_atom_site_label
_atom_site_fract_x
_atom_site_fract_y
_atom_site_fract_z
Si Si1 0.700293 0.959246 0.545824
Si Si2 0.065117 0.455949 0.060447
Si Si3 0.235135 0.039826 0.862955
Si Si4 0.597685 0.034484 0.653177
Si Si5 0.933674 0.966488 0.247028
Si Si6 0.696109 0.467039 0.782724
O O1 0.693347 0.750000 0.549733
O O2 0.630785 0.037026 0.547651
O O3 0.726727 0.000000 0.500000
O O4 0.738545 0.013060 0.586912
O O5 0.065004 0.250000 0.047148
O O6 0.066957 0.463575 0.111157
O O7 0.000000 0.536346 0.046944
O O8 0.233582 0.250000 0.856522
O O9 0.168159 0.974540 0.849278
O O10 0.284700 0.973284 0.829632
O O11 0.595366 0.250000 0.650721
O O12 0.570685 0.982715 0.697878
O O13 0.932706 0.750000 0.248190
O O14 0.871308 0.027160 0.269152
O O15 0.000000 0.023107 0.263979
O O16 0.694605 0.250000 0.781341
O O17 0.750000 0.518845 0.750000
#
# Coordination Sequence:
#
# PCOD9537168 Si02
#       6
#    16  16  16  16  16  16
#     4  10  20  33  47  62  82 106 137 179 224 264
#     4   9  18  30  41  55  79 110 140 173 217 262
#     4   9  16  27  45  64  83 111 147 180 214 256
#     4   9  15  24  39  59  81 108 145 185 216 244
#     4   9  15  21  33  58  89 115 144 185 221 244
#     4   9  14  23  39  60  86 118 151 180 212 254
#
# _framework density 18.328185000000001
#
# number of rings (size 3 to 8) (size 9 to 14) (size 15 to 20)
#    0.000    2.833    1.667    1.000    0.000    2.000 
#    0.000    0.000    0.000    1.500    0.000    0.000 
#    0.000    0.667    0.000    1.167    0.000    1.667 
#
# Total GULP energy -267569.139368 kJ/mol
# GULP energy per Si atom -5574.357070 kJ/mol
# Density = 1.828647 g / cm^3
# Si number density = 18.328185 Si / 1000 Ang^3
#
#
#
# Elastic Constant Matrix: (Units=GPa)
#
#
# Indices 1 2 3 4 5 6 
#
# 1 113.2934 2.1858 72.5002 0.0000 0.0000 0.0000
# 2 2.1858 42.0821 -5.0360 0.0000 0.0000 0.0000
# 3 72.5002 -5.0360 129.6223 0.0000 0.0000 0.0000
# 4 0.0000 0.0000 0.0000 11.4345 0.0000 0.0000
# 5 0.0000 0.0000 0.0000 0.0000 -5.4258 0.0000
# 6 0.0000 0.0000 0.0000 0.0000 0.0000 2.2725
#
#
#
# Elastic Compliance Matrix: (Units=1/GPa)
#
#
# Indices 1 2 3 4 5 6 
#
# 1 0.013861 -0.001655 -0.007817 0.000000 0.000000 0.000000
# 2 -0.001655 0.024072 0.001861 0.000000 0.000000 0.000000
# 3 -0.007817 0.001861 0.012159 0.000000 0.000000 0.000000
# 4 0.000000 0.000000 0.000000 0.087455 0.000000 0.000000
# 5 0.000000 0.000000 0.000000 0.000000 -0.184304 0.000000
# 6 0.000000 0.000000 0.000000 0.000000 0.000000 0.440045
#
#
# Mechanical properties :
#
#
# Convention : Reuss Voigt Hill
#
# Bulk Modulus (GPa) = 28.67847 47.14420 37.91133
# Shear Modulus (GPa) = 11.90100 16.01275 13.95688
#
# Velocity S-wave (km/s) = 2.55096 2.95899 2.76252
# Velocity P-wave (km/s) = 4.93535 6.11983 5.55922
#
# Compressibility (1/GPa) = 0.03486936
#
# Stress axis : x y z
#
# Youngs Moduli (GPa) = 72.14524 41.54240 82.24211
#
# Poissons Ratio (x) = 0.06877 0.64289
# Poissons Ratio (y) = 0.11943 -0.15306
# Poissons Ratio (z) = 0.56396 -0.07732
#
# Static dielectric constant tensor:
#      x y z
#    x 1.652640 0.000000 0.000000 
#    y 0.000000 1.697360 0.000000 
#    z 0.000000 0.000000 1.678460 
# 
# From -- ./inp_files/64683.got.cif
#   From: 2010.05.17/outbox.cif.g08.bks.cpg/sg74_33_cif.got.tgz:64683.got - 2010.06.03 17:57:02.
