data_PCOD9537536
_publ_section_title
;
Structure prediction by ZEFSAII (Michael W. Deem and Ramdas Pophale) SiO2 
 PCOD9537536
Probable space group: I M M A
;
_chemical_formula_sum "Si O2"
_cell_formula_units_Z 104
_cell_length_a 8.426555
_cell_length_b 27.626944
_cell_length_c 24.167992
_cell_angle_alpha 90.000000
_cell_angle_beta 90.000000
_cell_angle_gamma 90.000000
_cell_volume 5626.307646
_symmetry_space_group_name_H-M "I M M A"
_symmetry_group_IT_number 74
_symmetry_cell_setting 'orthorhombic'
loop_
_space_group_symop_operation_xyz
x,y,z
-x,1/2-y,z
x,-y,-z
-x,1/2+y,-z
-x,-y,-z
x,1/2+y,-z
-x,y,z
x,1/2-y,z
1/2+x,1/2+y,1/2+z
1/2-x,-y,1/2+z
1/2+x,1/2-y,1/2-z
1/2-x,y,1/2-z
1/2-x,1/2-y,1/2-z
1/2+x,y,1/2-z
1/2-x,1/2+y,1/2+z
1/2+x,-y,1/2+z
loop_
_atom_site_type_symbol
_atom_site_label
_atom_site_fract_x
_atom_site_fract_y
_atom_site_fract_z
Si Si1 0.808406 0.543765 0.619142
Si Si2 0.189418 0.630082 0.811278
Si Si3 0.191376 0.391240 0.486043
Si Si4 0.191229 0.934078 0.397025
Si Si5 0.691649 0.805517 0.584477
Si Si6 0.691064 0.250000 0.686728
Si Si7 0.190671 0.145046 0.813016
O O1 0.743501 0.576908 0.668534
O O2 0.763570 0.571221 0.562456
O O3 0.752257 0.488514 0.615568
O O4 0.000000 0.543854 0.622920
O O5 0.250000 0.641117 0.750000
O O6 0.246080 0.667693 0.858850
O O7 0.000000 0.631637 0.810828
O O8 0.248436 0.411820 0.544672
O O9 0.254170 0.339242 0.466288
O O10 0.000000 0.388896 0.487528
O O11 0.239788 0.897797 0.348964
O O12 0.000000 0.936696 0.400531
O O13 0.746597 0.750000 0.581419
O O14 0.000000 0.805252 0.914804
O O15 0.500000 0.250000 0.686846
O O16 0.750000 0.250000 0.750000
O O17 0.741933 0.301995 0.663435
O O18 0.250000 0.141907 0.750000
O O19 0.000000 0.142799 0.813421
#
# Coordination Sequence:
#
# PCOD9537536 Si02
#       7
#    16  16  16  16  16   8  16
#     4   9  18  34  55  75 101 138 173 211 259 307
#     4  10  20  34  53  78 107 139 178 219 261 312
#     4   9  18  34  55  78 103 133 173 216 258 306
#     4  10  20  34  53  79 106 133 170 213 258 308
#     4   9  19  36  55  76 106 142 176 216 265 312
#     4   8  16  32  52  70  90 122 160 196 237 288
#     4  10  20  35  54  75 101 132 168 208 254 303
#
# _framework density 18.484593
#
# number of rings (size 3 to 8) (size 9 to 14) (size 15 to 20)
#    0.000    2.615    0.000    1.385    0.000    5.538 
#    1.385    0.000    0.000    4.615    0.000    0.000 
#    0.000    0.000    0.000    0.000    0.000    0.000 
#
# Total GULP energy -289926.703713 kJ/mol
# GULP energy per Si atom -5575.513533 kJ/mol
# Density = 1.844252 g / cm^3
# Si number density = 18.484593 Si / 1000 Ang^3
#
#
#
# Elastic Constant Matrix: (Units=GPa)
#
#
# Indices 1 2 3 4 5 6 
#
# 1 7.7362 15.2204 3.5506 0.0000 0.0000 0.0000
# 2 15.2204 171.7710 27.4675 0.0000 0.0000 0.0000
# 3 3.5506 27.4675 18.2575 0.0000 0.0000 0.0000
# 4 0.0000 0.0000 0.0000 8.2015 0.0000 0.0000
# 5 0.0000 0.0000 0.0000 0.0000 23.1057 0.0000
# 6 0.0000 0.0000 0.0000 0.0000 0.0000 25.0257
#
#
#
# Elastic Compliance Matrix: (Units=1/GPa)
#
#
# Indices 1 2 3 4 5 6 
#
# 1 0.158791 -0.012025 -0.012790 0.000000 0.000000 0.000000
# 2 -0.012025 0.008577 -0.010564 0.000000 0.000000 0.000000
# 3 -0.012790 -0.010564 0.073153 0.000000 0.000000 0.000000
# 4 0.000000 0.000000 0.000000 0.121929 0.000000 0.000000
# 5 0.000000 0.000000 0.000000 0.000000 0.043279 0.000000
# 6 0.000000 0.000000 0.000000 0.000000 0.000000 0.039959
#
#
# Mechanical properties :
#
#
# Convention : Reuss Voigt Hill
#
# Bulk Modulus (GPa) = 5.89062 32.24908 19.06985
# Shear Modulus (GPa) = 8.72549 21.36833 15.04691
#
# Velocity S-wave (km/s) = 2.17501 3.40370 2.85621
# Velocity P-wave (km/s) = 3.08241 5.73857 4.60611
#
# Compressibility (1/GPa) = 0.16976135
#
# Stress axis : x y z
#
# Youngs Moduli (GPa) = 6.29760 116.59693 13.66999
#
# Poissons Ratio (x) = 1.40208 0.17484
# Poissons Ratio (y) = 0.07573 0.14442
# Poissons Ratio (z) = 0.08055 1.23178
#
# Static dielectric constant tensor:
#      x y z
#    x 1.643390 0.000000 0.000000 
#    y 0.000000 1.647920 0.000000 
#    z 0.000000 0.000000 1.613020 
# 
# From -- ./inp_files/49301.got.cif
#   From: 2010.05.17/outbox.cif.g08.bks.cpg/sg74_25_cif.got.tgz:49301.got - 2010.06.03 17:57:02.
