data_PCOD9537447
_publ_section_title
;
Structure prediction by ZEFSAII (Michael W. Deem and Ramdas Pophale) SiO2 
 PCOD9537447
Probable space group: I M M A
;
_chemical_formula_sum "Si O2"
_cell_formula_units_Z 104
_cell_length_a 8.641832
_cell_length_b 28.725493
_cell_length_c 23.432635
_cell_angle_alpha 90.000000
_cell_angle_beta 90.000000
_cell_angle_gamma 90.000000
_cell_volume 5816.938041
_symmetry_space_group_name_H-M "I M M A"
_symmetry_group_IT_number 74
_symmetry_cell_setting 'orthorhombic'
loop_
_space_group_symop_operation_xyz
x,y,z
-x,1/2-y,z
x,-y,-z
-x,1/2+y,-z
-x,-y,-z
x,1/2+y,-z
-x,y,z
x,1/2-y,z
1/2+x,1/2+y,1/2+z
1/2-x,-y,1/2+z
1/2+x,1/2-y,1/2-z
1/2-x,y,1/2-z
1/2-x,1/2-y,1/2-z
1/2+x,y,1/2-z
1/2-x,1/2+y,1/2+z
1/2+x,-y,1/2+z
loop_
_atom_site_type_symbol
_atom_site_label
_atom_site_fract_x
_atom_site_fract_y
_atom_site_fract_z
Si Si1 0.812911 0.849518 0.686177
Si Si2 0.314318 0.196120 0.813868
Si Si3 0.814575 0.607044 0.124279
Si Si4 0.186372 0.250000 0.314513
Si Si5 0.685177 0.053525 0.986036
Si Si6 0.315681 0.016436 0.688579
Si Si7 0.185723 0.064204 0.386904
O O1 0.750000 0.851978 0.750000
O O2 0.765769 0.799499 0.660103
O O3 0.757022 0.893442 0.651342
O O4 0.000000 0.851216 0.687689
O O5 0.500000 0.193732 0.812028
O O6 0.270503 0.250000 0.828168
O O7 0.250000 0.186599 0.750000
O O8 0.254014 0.156960 0.857797
O O9 0.760213 0.582649 0.065184
O O10 0.768724 0.568998 0.172483
O O11 0.000000 0.610588 0.123258
O O12 0.250000 0.250000 0.250000
O O13 0.000000 0.250000 0.311955
O O14 0.500000 0.051681 0.975019
O O15 0.716390 0.076075 0.047507
O O16 0.734654 0.000000 0.000000
O O17 0.500000 0.014070 0.690782
O O18 0.250000 0.002184 0.750000
O O19 0.257246 0.982763 0.638329
O O20 0.000000 0.059123 0.381671
#
# Coordination Sequence:
#
# PCOD9537447 Si02
#       7
#    16  16  16   8  16  16  16
#     4   9  17  29  47  71  98 127 163 204 254 311
#     4  10  21  38  62  91 121 151 186 231 286 347
#     4  11  23  37  57  83 111 148 189 232 276 331
#     4   8  14  26  44  66  92 122 154 194 241 292
#     4  10  20  36  57  77 103 144 186 228 273 322
#     4  11  23  35  50  76 109 141 175 216 267 325
#     4  10  20  34  52  74 101 137 178 220 269 321
#
# _framework density 17.878822
#
# number of rings (size 3 to 8) (size 9 to 14) (size 15 to 20)
#    0.000    2.000    1.538    2.308    0.000    6.769 
#    0.000    0.000    1.692    0.000    0.000    0.000 
#    0.000    0.000    0.000    0.000    0.000    0.000 
#
# Total GULP energy -289842.938432 kJ/mol
# GULP energy per Si atom -5573.902662 kJ/mol
# Density = 1.783813 g / cm^3
# Si number density = 17.878822 Si / 1000 Ang^3
#
#
#
# Elastic Constant Matrix: (Units=GPa)
#
#
# Indices 1 2 3 4 5 6 
#
# 1 28.4020 32.7258 25.9928 0.0000 0.0000 0.0000
# 2 32.7258 138.2142 49.1279 0.0000 0.0000 0.0000
# 3 25.9928 49.1279 84.2757 0.0000 0.0000 0.0000
# 4 0.0000 0.0000 0.0000 17.4039 0.0000 0.0000
# 5 0.0000 0.0000 0.0000 0.0000 25.8436 0.0000
# 6 0.0000 0.0000 0.0000 0.0000 0.0000 10.5104
#
#
#
# Elastic Compliance Matrix: (Units=1/GPa)
#
#
# Indices 1 2 3 4 5 6 
#
# 1 0.056926 -0.009130 -0.012235 0.000000 0.000000 0.000000
# 2 -0.009130 0.010590 -0.003358 0.000000 0.000000 0.000000
# 3 -0.012235 -0.003358 0.017597 0.000000 0.000000 0.000000
# 4 0.000000 0.000000 0.000000 0.057459 0.000000 0.000000
# 5 0.000000 0.000000 0.000000 0.000000 0.038694 0.000000
# 6 0.000000 0.000000 0.000000 0.000000 0.000000 0.095144
#
#
# Mechanical properties :
#
#
# Convention : Reuss Voigt Hill
#
# Bulk Modulus (GPa) = 28.03667 51.84276 39.93972
# Shear Modulus (GPa) = 14.80410 20.28792 17.54601
#
# Velocity S-wave (km/s) = 2.88066 3.37225 3.13611
# Velocity P-wave (km/s) = 5.17492 6.65000 5.95829
#
# Compressibility (1/GPa) = 0.03566757
#
# Stress axis : x y z
#
# Youngs Moduli (GPa) = 17.56676 94.42588 56.82827
#
# Poissons Ratio (x) = 0.86207 0.69531
# Poissons Ratio (y) = 0.16038 0.19081
# Poissons Ratio (z) = 0.21493 0.31706
#
# Static dielectric constant tensor:
#      x y z
#    x 1.614020 0.000000 0.000000 
#    y 0.000000 1.657590 0.000000 
#    z 0.000000 0.000000 1.589610 
# 
# From -- ./inp_files/57599.got.cif
#   From: 2010.05.17/outbox.cif.g08.bks.cpg/sg74_29_cif.got.tgz:57599.got - 2010.06.03 17:57:02.
