data_PCOD9537702
_publ_section_title
;
Structure prediction by ZEFSAII (Michael W. Deem and Ramdas Pophale) SiO2 
 PCOD9537702
Probable space group: I M M A
;
_chemical_formula_sum "Si O2"
_cell_formula_units_Z 88
_cell_length_a 17.273647
_cell_length_b 16.278725
_cell_length_c 15.241347
_cell_angle_alpha 90.000000
_cell_angle_beta 90.000000
_cell_angle_gamma 90.000000
_cell_volume 4285.759314
_symmetry_space_group_name_H-M "I M M A"
_symmetry_group_IT_number 74
_symmetry_cell_setting 'orthorhombic'
loop_
_space_group_symop_operation_xyz
x,y,z
-x,1/2-y,z
x,-y,-z
-x,1/2+y,-z
-x,-y,-z
x,1/2+y,-z
-x,y,z
x,1/2-y,z
1/2+x,1/2+y,1/2+z
1/2-x,-y,1/2+z
1/2+x,1/2-y,1/2-z
1/2-x,y,1/2-z
1/2-x,1/2-y,1/2-z
1/2+x,y,1/2-z
1/2-x,1/2+y,1/2+z
1/2+x,-y,1/2+z
loop_
_atom_site_type_symbol
_atom_site_label
_atom_site_fract_x
_atom_site_fract_y
_atom_site_fract_z
Si Si1 0.672477 0.000000 0.000000
Si Si2 0.588930 0.900970 0.502557
Si Si3 0.093355 0.157580 0.802342
Si Si4 0.165269 0.661552 0.709139
Si Si5 0.408006 0.005030 0.813046
Si Si6 0.245871 0.159917 0.029914
O O1 0.620641 0.998228 0.912944
O O2 0.727300 0.921735 0.018914
O O3 0.500000 0.880220 0.527083
O O4 0.604113 0.867695 0.403826
O O5 0.657634 0.859999 0.558955
O O6 0.594431 0.000000 0.500000
O O7 0.123171 0.250000 0.785750
O O8 0.000000 0.160530 0.790204
O O9 0.122886 0.085186 0.738625
O O10 0.129145 0.750000 0.731293
O O11 0.250000 0.656754 0.750000
O O12 0.118490 0.580233 0.730898
O O13 0.190212 0.662899 0.606821
O O14 0.500000 0.009213 0.811502
O O15 0.246480 0.250000 0.987187
#
# Coordination Sequence:
#
# PCOD9537702 Si02
#       6
#     8  16  16  16  16  16
#     4  10  21  38  55  80 114 146 192 246 287 340
#     4  10  20  34  56  84 115 150 189 232 283 342
#     4   9  19  35  54  82 119 150 180 228 288 346
#     4   9  20  37  55  78 110 147 187 237 292 342
#     4  10  21  36  60  84 109 149 194 241 292 343
#     4  10  20  35  55  79 110 150 189 229 288 345
#
# _framework density 20.533118000000002
#
# number of rings (size 3 to 8) (size 9 to 14) (size 15 to 20)
#    0.000    2.364    0.909    0.818    2.545    2.182 
#    0.000    0.000    0.000    9.273    0.000    0.000 
#    0.000    0.000    0.000    0.000    0.000    0.000 
#
# Total GULP energy -245040.148953 kJ/mol
# GULP energy per Si atom -5569.094294 kJ/mol
# Density = 2.048638 g / cm^3
# Si number density = 20.533118 Si / 1000 Ang^3
#
#
#
# Elastic Constant Matrix: (Units=GPa)
#
#
# Indices 1 2 3 4 5 6 
#
# 1 53.3030 52.2915 -0.3951 0.0000 0.0000 0.0000
# 2 52.2915 208.3487 34.8762 0.0000 0.0000 0.0000
# 3 -0.3951 34.8762 28.2101 0.0000 0.0000 0.0000
# 4 0.0000 0.0000 0.0000 25.7909 0.0000 0.0000
# 5 0.0000 0.0000 0.0000 0.0000 14.7850 0.0000
# 6 0.0000 0.0000 0.0000 0.0000 0.0000 50.3352
#
#
#
# Elastic Compliance Matrix: (Units=1/GPa)
#
#
# Indices 1 2 3 4 5 6 
#
# 1 0.027444 -0.008766 0.011222 0.000000 0.000000 0.000000
# 2 -0.008766 0.008852 -0.011067 0.000000 0.000000 0.000000
# 3 0.011222 -0.011067 0.049288 0.000000 0.000000 0.000000
# 4 0.000000 0.000000 0.000000 0.038773 0.000000 0.000000
# 5 0.000000 0.000000 0.000000 0.000000 0.067636 0.000000
# 6 0.000000 0.000000 0.000000 0.000000 0.000000 0.019867
#
#
# Mechanical properties :
#
#
# Convention : Reuss Voigt Hill
#
# Bulk Modulus (GPa) = 14.62808 51.48967 33.05887
# Shear Modulus (GPa) = 19.85153 31.72150 25.78652
#
# Velocity S-wave (km/s) = 3.11272 3.93478 3.54764
# Velocity P-wave (km/s) = 4.47865 6.76566 5.73727
#
# Compressibility (1/GPa) = 0.06836169
#
# Stress axis : x y z
#
# Youngs Moduli (GPa) = 36.43793 112.96370 20.28909
#
# Poissons Ratio (x) = 0.99029 -0.22769
# Poissons Ratio (y) = 0.31943 0.22454
# Poissons Ratio (z) = -0.40892 1.25017
#
# Static dielectric constant tensor:
#      x y z
#    x 1.731250 0.000000 0.000000 
#    y 0.000000 1.791200 0.000000 
#    z 0.000000 0.000000 1.815710 
# 
# From -- ./inp_files/43970.got.cif
#   From: 2010.05.17/outbox.cif.g08.bks.cpg/sg74_22_cif.got.tgz:43970.got - 2010.06.03 17:57:02.
