data_PCOD9537020
_publ_section_title
;
Structure prediction by ZEFSAII (Michael W. Deem and Ramdas Pophale) SiO2 
 PCOD9537020
Probable space group: I M M A
;
_chemical_formula_sum "Si O2"
_cell_formula_units_Z 80
_cell_length_a 21.288715
_cell_length_b 13.912115
_cell_length_c 14.526047
_cell_angle_alpha 90.000000
_cell_angle_beta 90.000000
_cell_angle_gamma 90.000000
_cell_volume 4302.194611
_symmetry_space_group_name_H-M "I M M A"
_symmetry_group_IT_number 74
_symmetry_cell_setting 'orthorhombic'
loop_
_space_group_symop_operation_xyz
x,y,z
-x,1/2-y,z
x,-y,-z
-x,1/2+y,-z
-x,-y,-z
x,1/2+y,-z
-x,y,z
x,1/2-y,z
1/2+x,1/2+y,1/2+z
1/2-x,-y,1/2+z
1/2+x,1/2-y,1/2-z
1/2-x,y,1/2-z
1/2-x,1/2-y,1/2-z
1/2+x,y,1/2-z
1/2-x,1/2+y,1/2+z
1/2+x,-y,1/2+z
loop_
_atom_site_type_symbol
_atom_site_label
_atom_site_fract_x
_atom_site_fract_y
_atom_site_fract_z
Si Si1 0.698636 0.645286 0.831497
Si Si2 0.747257 0.859477 0.038844
Si Si3 0.125963 0.561175 0.114058
Si Si4 0.926594 0.358154 0.064192
Si Si5 0.179741 0.936830 0.296633
O O1 0.666440 0.750000 0.830703
O O2 0.750000 0.647580 0.750000
O O3 0.661698 0.547380 0.815307
O O4 0.730482 0.633308 0.931768
O O5 0.766421 0.750000 0.057516
O O6 0.805601 0.924208 0.068523
O O7 0.689495 0.884679 0.106399
O O8 0.107803 0.448349 0.111845
O O9 0.133203 0.599629 0.217585
O O10 0.080852 0.617895 0.044569
O O11 0.901725 0.250000 0.082932
O O12 0.000000 0.360485 0.088229
O O13 0.250000 0.934003 0.250000
#
# Coordination Sequence:
#
# PCOD9537020 Si02
#       5
#    16  16  16  16  16
#     4   9  18  29  42  63  94 133 173 206 239 277
#     4  10  20  32  46  67 102 142 175 205 239 289
#     4  10  20  32  50  73  95 133 169 205 251 306
#     4  10  22  37  53  73  98 129 169 221 274 316
#     4   9  19  29  44  67  97 131 171 203 238 290
#
# _framework density 18.595161000000001
#
# number of rings (size 3 to 8) (size 9 to 14) (size 15 to 20)
#    0.000    2.400    0.000    2.400   16.800    5.200 
#    0.000    0.000    0.000    0.000    0.000    0.000 
#    0.000   12.800    0.000   35.200    0.000    0.000 
#
# Total GULP energy -222824.731233 kJ/mol
# GULP energy per Si atom -5570.618281 kJ/mol
# Density = 1.855284 g / cm^3
# Si number density = 18.595161 Si / 1000 Ang^3
#
#
#
# Elastic Constant Matrix: (Units=GPa)
#
#
# Indices 1 2 3 4 5 6 
#
# 1 25.6690 13.1314 18.4531 0.0000 0.0000 0.0000
# 2 13.1314 74.8308 22.5385 0.0000 0.0000 0.0000
# 3 18.4531 22.5385 124.9274 0.0000 0.0000 0.0000
# 4 0.0000 0.0000 0.0000 9.6135 0.0000 0.0000
# 5 0.0000 0.0000 0.0000 0.0000 15.3162 0.0000
# 6 0.0000 0.0000 0.0000 0.0000 0.0000 47.0365
#
#
#
# Elastic Compliance Matrix: (Units=1/GPa)
#
#
# Indices 1 2 3 4 5 6 
#
# 1 0.046327 -0.006417 -0.005685 0.000000 0.000000 0.000000
# 2 -0.006417 0.015020 -0.001762 0.000000 0.000000 0.000000
# 3 -0.005685 -0.001762 0.009162 0.000000 0.000000 0.000000
# 4 0.000000 0.000000 0.000000 0.104020 0.000000 0.000000
# 5 0.000000 0.000000 0.000000 0.000000 0.065290 0.000000
# 6 0.000000 0.000000 0.000000 0.000000 0.000000 0.021260
#
#
# Mechanical properties :
#
#
# Convention : Reuss Voigt Hill
#
# Bulk Modulus (GPa) = 23.37482 37.07479 30.22481
# Shear Modulus (GPa) = 16.49784 25.81353 21.15568
#
# Velocity S-wave (km/s) = 2.98184 3.72988 3.37664
# Velocity P-wave (km/s) = 4.94498 6.20729 5.61174
#
# Compressibility (1/GPa) = 0.04278107
#
# Stress axis : x y z
#
# Youngs Moduli (GPa) = 21.58546 66.57671 109.14280
#
# Poissons Ratio (x) = 0.42724 0.62051
# Poissons Ratio (y) = 0.13852 0.19230
# Poissons Ratio (z) = 0.12272 0.11731
#
# Static dielectric constant tensor:
#      x y z
#    x 1.648000 0.000000 0.000000 
#    y 0.000000 1.710770 0.000000 
#    z 0.000000 0.000000 1.694800 
# 
# From -- ./inp_files/35070.got.cif
#   From: 2010.05.17/outbox.cif.g08.bks.cpg/sg74_18_cif.got.tgz:35070.got - 2010.06.03 17:57:02.
