data_PCOD9537051
_publ_section_title
;
Structure prediction by ZEFSAII (Michael W. Deem and Ramdas Pophale) SiO2 
 PCOD9537051
Probable space group: I M M A
;
_chemical_formula_sum "Si O2"
_cell_formula_units_Z 96
_cell_length_a 14.515810
_cell_length_b 15.004953
_cell_length_c 28.770308
_cell_angle_alpha 90.000000
_cell_angle_beta 90.000000
_cell_angle_gamma 90.000000
_cell_volume 6266.433362
_symmetry_space_group_name_H-M "I M M A"
_symmetry_group_IT_number 74
_symmetry_cell_setting 'orthorhombic'
loop_
_space_group_symop_operation_xyz
x,y,z
-x,1/2-y,z
x,-y,-z
-x,1/2+y,-z
-x,-y,-z
x,1/2+y,-z
-x,y,z
x,1/2-y,z
1/2+x,1/2+y,1/2+z
1/2-x,-y,1/2+z
1/2+x,1/2-y,1/2-z
1/2-x,y,1/2-z
1/2-x,1/2-y,1/2-z
1/2+x,y,1/2-z
1/2-x,1/2+y,1/2+z
1/2+x,-y,1/2+z
loop_
_atom_site_type_symbol
_atom_site_label
_atom_site_fract_x
_atom_site_fract_y
_atom_site_fract_z
Si Si1 0.893366 0.149099 0.123111
Si Si2 0.889222 0.065332 0.376150
Si Si3 0.698408 0.938675 0.047635
Si Si4 0.394185 0.750000 0.917472
Si Si5 0.394432 0.250000 0.971870
Si Si6 0.729985 0.855003 0.803841
Si Si7 0.101149 0.483625 0.944973
O O1 0.878644 0.250000 0.105088
O O2 0.822098 0.134916 0.164973
O O3 0.000000 0.143613 0.139067
O O4 0.882385 0.075604 0.083036
O O5 0.854146 0.157994 0.399606
O O6 0.844817 0.077413 0.325463
O O7 0.000000 0.061130 0.375073
O O8 0.851322 0.989479 0.410005
O O9 0.654027 0.842116 0.041481
O O10 0.805947 0.928043 0.060586
O O11 0.690273 0.000000 0.000000
O O12 0.500000 0.750000 0.900497
O O13 0.395229 0.750000 0.972366
O O14 0.500000 0.250000 0.955101
O O15 0.700394 0.750000 0.807330
O O16 0.750000 0.872177 0.750000
O O17 0.000000 0.448573 0.930249
O O18 0.095768 0.500000 0.000000
#
# Coordination Sequence:
#
# PCOD9537051 Si02
#       7
#    16  16  16   8   8  16  16
#     4   9  17  31  51  71  96 134 173 208 253 303
#     4  11  20  32  50  74 104 139 174 208 252 309
#     4  11  21  34  52  76 104 142 174 210 254 307
#     4   9  18  30  47  70 100 139 176 205 241 295
#     4  11  22  34  49  76 109 141 178 213 249 304
#     4  10  20  32  47  71 102 135 173 215 257 304
#     4   9  18  33  49  70  99 130 170 214 251 297
#
# _framework density 15.319718999999999
#
# number of rings (size 3 to 8) (size 9 to 14) (size 15 to 20)
#    0.000    2.000    4.167    0.500    0.000    1.333 
#    6.000    2.083    0.000    0.000    0.000    0.583 
#    0.000    0.000    0.000    0.000    0.000    0.000 
#
# Total GULP energy -267261.073410 kJ/mol
# GULP energy per Si atom -5567.939029 kJ/mol
# Density = 1.528485 g / cm^3
# Si number density = 15.319719 Si / 1000 Ang^3
#
#
#
# Elastic Constant Matrix: (Units=GPa)
#
#
# Indices 1 2 3 4 5 6 
#
# 1 120.8586 48.2574 37.2889 0.0000 0.0000 0.0000
# 2 48.2574 82.9388 32.3424 0.0000 0.0000 0.0000
# 3 37.2889 32.3424 82.7976 0.0000 0.0000 0.0000
# 4 0.0000 0.0000 0.0000 16.5533 0.0000 0.0000
# 5 0.0000 0.0000 0.0000 0.0000 11.6037 0.0000
# 6 0.0000 0.0000 0.0000 0.0000 0.0000 12.4128
#
#
#
# Elastic Compliance Matrix: (Units=1/GPa)
#
#
# Indices 1 2 3 4 5 6 
#
# 1 0.011374 -0.005451 -0.002993 0.000000 0.000000 0.000000
# 2 -0.005451 0.016836 -0.004122 0.000000 0.000000 0.000000
# 3 -0.002993 -0.004122 0.015036 0.000000 0.000000 0.000000
# 4 0.000000 0.000000 0.000000 0.060411 0.000000 0.000000
# 5 0.000000 0.000000 0.000000 0.000000 0.086180 0.000000
# 6 0.000000 0.000000 0.000000 0.000000 0.000000 0.080562
#
#
# Mechanical properties :
#
#
# Convention : Reuss Voigt Hill
#
# Bulk Modulus (GPa) = 55.20484 58.04137 56.62311
# Shear Modulus (GPa) = 16.58005 19.36105 17.97055
#
# Velocity S-wave (km/s) = 3.29335 3.55885 3.42867
# Velocity P-wave (km/s) = 7.11161 7.40650 7.26055
#
# Compressibility (1/GPa) = 0.01811435
#
# Stress axis : x y z
#
# Youngs Moduli (GPa) = 87.91939 59.39740 66.50845
#
# Poissons Ratio (x) = 0.32376 0.19908
# Poissons Ratio (y) = 0.47922 0.27412
# Poissons Ratio (z) = 0.26317 0.24481
#
# Static dielectric constant tensor:
#      x y z
#    x 1.569230 0.000000 0.000000 
#    y 0.000000 1.499690 0.000000 
#    z 0.000000 0.000000 1.517120 
# 
# From -- ./inp_files/67121.got.cif
#   From: 2010.05.17/outbox.cif.g08.bks.cpg/sg74_34_cif.got.tgz:67121.got - 2010.06.03 17:57:02.
