data_PCOD9537409
_publ_section_title
;
Structure prediction by ZEFSAII (Michael W. Deem and Ramdas Pophale) SiO2 
 PCOD9537409
Probable space group: I M M A
;
_chemical_formula_sum "Si O2"
_cell_formula_units_Z 92
_cell_length_a 7.766145
_cell_length_b 22.545473
_cell_length_c 27.920902
_cell_angle_alpha 90.000000
_cell_angle_beta 90.000000
_cell_angle_gamma 90.000000
_cell_volume 4888.710167
_symmetry_space_group_name_H-M "I M M A"
_symmetry_group_IT_number 74
_symmetry_cell_setting 'orthorhombic'
loop_
_space_group_symop_operation_xyz
x,y,z
-x,1/2-y,z
x,-y,-z
-x,1/2+y,-z
-x,-y,-z
x,1/2+y,-z
-x,y,z
x,1/2-y,z
1/2+x,1/2+y,1/2+z
1/2-x,-y,1/2+z
1/2+x,1/2-y,1/2-z
1/2-x,y,1/2-z
1/2-x,1/2-y,1/2-z
1/2+x,y,1/2-z
1/2-x,1/2+y,1/2+z
1/2+x,-y,1/2+z
loop_
_atom_site_type_symbol
_atom_site_label
_atom_site_fract_x
_atom_site_fract_y
_atom_site_fract_z
Si Si1 0.201550 0.871547 0.352531
Si Si2 0.197877 0.069142 0.949692
Si Si3 0.791057 0.449227 0.099764
Si Si4 0.500000 0.750000 0.527644
Si Si5 0.308360 0.152421 0.033392
Si Si6 0.205173 0.989082 0.196807
Si Si7 0.792704 0.250000 0.694129
O O1 0.295132 0.894038 0.400109
O O2 0.218207 0.924127 0.313843
O O3 0.269400 0.809872 0.331538
O O4 0.000000 0.864538 0.364609
O O5 0.000000 0.063514 0.965722
O O6 0.262056 0.003790 0.935022
O O7 0.295871 0.105779 0.989568
O O8 0.719438 0.387799 0.080590
O O9 0.738090 0.468255 0.153373
O O10 0.000000 0.447007 0.098419
O O11 0.652975 0.698429 0.528061
O O12 0.500000 0.178621 0.033647
O O13 0.250000 0.009444 0.250000
O O14 0.000000 0.983185 0.192891
O O15 0.750000 0.250000 0.750000
O O16 0.000000 0.250000 0.690577
#
# Coordination Sequence:
#
# PCOD9537409 Si02
#       7
#    16  16  16   4  16  16   8
#     4  10  20  34  50  74 108 149 199 248 294 351
#     4  10  20  37  59  86 120 157 191 247 307 351
#     4   9  19  37  60  87 123 157 192 242 306 358
#     4  12  26  46  58  82 126 158 196 256 290 342
#     4  12  24  40  65  90 118 160 205 241 299 362
#     4  10  20  34  55  83 118 150 184 238 304 355
#     4  10  22  35  48  66  96 143 199 249 290 334
#
# _framework density 18.818871000000001
#
# number of rings (size 3 to 8) (size 9 to 14) (size 15 to 20)
#    0.000    1.739    1.739    3.913    0.000    9.739 
#    0.000    1.739    0.000    0.000    0.000    0.609 
#    0.000    0.000    0.000    0.000    0.000    0.000 
#
# Total GULP energy -256417.296515 kJ/mol
# GULP energy per Si atom -5574.289055 kJ/mol
# Density = 1.877604 g / cm^3
# Si number density = 18.818871 Si / 1000 Ang^3
#
#
#
# Elastic Constant Matrix: (Units=GPa)
#
#
# Indices 1 2 3 4 5 6 
#
# 1 102.2668 31.8600 14.3692 0.0000 0.0000 0.0000
# 2 31.8600 72.3514 39.9092 0.0000 0.0000 0.0000
# 3 14.3692 39.9092 80.3386 0.0000 0.0000 0.0000
# 4 0.0000 0.0000 0.0000 7.0345 0.0000 0.0000
# 5 0.0000 0.0000 0.0000 0.0000 25.4482 0.0000
# 6 0.0000 0.0000 0.0000 0.0000 0.0000 2.0975
#
#
#
# Elastic Compliance Matrix: (Units=1/GPa)
#
#
# Indices 1 2 3 4 5 6 
#
# 1 0.011356 -0.005345 0.000624 0.000000 0.000000 0.000000
# 2 -0.005345 0.021554 -0.009751 0.000000 0.000000 0.000000
# 3 0.000624 -0.009751 0.017180 0.000000 0.000000 0.000000
# 4 0.000000 0.000000 0.000000 0.142156 0.000000 0.000000
# 5 0.000000 0.000000 0.000000 0.000000 0.039296 0.000000
# 6 0.000000 0.000000 0.000000 0.000000 0.000000 0.476769
#
#
# Mechanical properties :
#
#
# Convention : Reuss Voigt Hill
#
# Bulk Modulus (GPa) = 47.29145 47.47039 47.38092
# Shear Modulus (GPa) = 6.71770 18.17060 12.44415
#
# Velocity S-wave (km/s) = 1.89141 3.11070 2.57429
# Velocity P-wave (km/s) = 5.47305 6.17913 5.83677
#
# Compressibility (1/GPa) = 0.02114547
#
# Stress axis : x y z
#
# Youngs Moduli (GPa) = 88.06117 46.39570 58.20820
#
# Poissons Ratio (x) = 0.24797 -0.03632
# Poissons Ratio (y) = 0.47066 0.56760
# Poissons Ratio (z) = -0.05495 0.45241
#
# Static dielectric constant tensor:
#      x y z
#    x 1.694450 0.000000 0.000000 
#    y 0.000000 1.640420 0.000000 
#    z 0.000000 0.000000 1.664560 
# 
# From -- ./inp_files/64385.got.cif
#   From: 2010.05.17/outbox.cif.g08.bks.cpg/sg74_33_cif.got.tgz:64385.got - 2010.06.03 17:57:02.
