data_PCOD9537559
_publ_section_title
;
Structure prediction by ZEFSAII (Michael W. Deem and Ramdas Pophale) SiO2 
 PCOD9537559
Probable space group: I M M A
;
_chemical_formula_sum "Si O2"
_cell_formula_units_Z 104
_cell_length_a 9.150381
_cell_length_b 32.162710
_cell_length_c 20.771318
_cell_angle_alpha 90.000000
_cell_angle_beta 90.000000
_cell_angle_gamma 90.000000
_cell_volume 6113.020708
_symmetry_space_group_name_H-M "I M M A"
_symmetry_group_IT_number 74
_symmetry_cell_setting 'orthorhombic'
loop_
_space_group_symop_operation_xyz
x,y,z
-x,1/2-y,z
x,-y,-z
-x,1/2+y,-z
-x,-y,-z
x,1/2+y,-z
-x,y,z
x,1/2-y,z
1/2+x,1/2+y,1/2+z
1/2-x,-y,1/2+z
1/2+x,1/2-y,1/2-z
1/2-x,y,1/2-z
1/2-x,1/2-y,1/2-z
1/2+x,y,1/2-z
1/2-x,1/2+y,1/2+z
1/2+x,-y,1/2+z
loop_
_atom_site_type_symbol
_atom_site_label
_atom_site_fract_x
_atom_site_fract_y
_atom_site_fract_z
Si Si1 0.324448 0.963445 0.818154
Si Si2 0.331215 0.250000 0.183347
Si Si3 0.675877 0.616506 0.060375
Si Si4 0.829310 0.703129 0.049627
Si Si5 0.671781 0.091096 0.427228
Si Si6 0.162751 0.686612 0.897607
Si Si7 0.173672 0.061752 0.684018
O O1 0.500000 0.957065 0.815443
O O2 0.250000 0.950916 0.750000
O O3 0.254021 0.939529 0.878483
O O4 0.295377 0.012801 0.826251
O O5 0.500000 0.250000 0.194413
O O6 0.250000 0.250000 0.250000
O O7 0.282047 0.289952 0.143033
O O8 0.500000 0.616746 0.052290
O O9 0.734345 0.663560 0.070682
O O10 0.715553 0.588713 0.122125
O O11 0.750889 0.596999 0.996597
O O12 0.783209 0.750000 0.068871
O O13 0.000000 0.697518 0.068349
O O14 0.826303 0.700551 0.971846
O O15 0.500000 0.080101 0.435101
O O16 0.677097 0.137190 0.396585
O O17 0.000000 0.698095 0.874494
O O18 0.250000 0.075093 0.750000
O O19 0.000000 0.065801 0.692212
#
# Coordination Sequence:
#
# PCOD9537559 Si02
#       7
#    16   8  16  16  16  16  16
#     4  10  20  36  56  77 104 141 182 223 269 321
#     4  12  24  34  48  68  92 126 171 214 257 306
#     4  10  20  34  53  82 113 139 175 222 269 317
#     4   9  17  32  54  77 104 137 169 207 257 314
#     4  10  21  36  54  78 107 141 178 220 267 317
#     4   9  18  35  52  67  95 130 164 208 257 302
#     4   9  20  37  57  80 108 142 177 217 267 321
#
# _framework density 17.012865999999999
#
# number of rings (size 3 to 8) (size 9 to 14) (size 15 to 20)
#    0.000    2.308    0.769    3.000    0.000    6.462 
#    0.000    3.077    0.000    0.462    0.000    0.000 
#    0.000    0.000    0.000    0.000    0.000    0.000 
#
# Total GULP energy -289972.158917 kJ/mol
# GULP energy per Si atom -5576.387671 kJ/mol
# Density = 1.697414 g / cm^3
# Si number density = 17.012866 Si / 1000 Ang^3
#
#
#
# Elastic Constant Matrix: (Units=GPa)
#
#
# Indices 1 2 3 4 5 6 
#
# 1 106.0288 58.1092 67.4768 0.0000 0.0000 0.0000
# 2 58.1092 92.7817 71.6387 0.0000 0.0000 0.0000
# 3 67.4768 71.6387 106.4410 -0.0001 0.0000 0.0000
# 4 0.0000 0.0000 -0.0001 25.6368 0.0000 0.0000
# 5 0.0000 0.0000 0.0000 0.0000 29.5919 0.0000
# 6 0.0000 0.0000 0.0000 0.0000 0.0000 26.6654
#
#
#
# Elastic Compliance Matrix: (Units=1/GPa)
#
#
# Indices 1 2 3 4 5 6 
#
# 1 0.016768 -0.004776 -0.007415 0.000000 0.000000 0.000000
# 2 -0.004776 0.023799 -0.012990 0.000000 0.000000 0.000000
# 3 -0.007415 -0.012990 0.022838 0.000000 0.000000 0.000000
# 4 0.000000 0.000000 0.000000 0.039006 0.000000 0.000000
# 5 0.000000 0.000000 0.000000 0.000000 0.033793 0.000000
# 6 0.000000 0.000000 0.000000 0.000000 0.000000 0.037502
#
#
# Mechanical properties :
#
#
# Convention : Reuss Voigt Hill
#
# Bulk Modulus (GPa) = 76.67112 77.74452 77.20782
# Shear Modulus (GPa) = 21.88979 23.58062 22.73521
#
# Velocity S-wave (km/s) = 3.59090 3.72700 3.65958
# Velocity P-wave (km/s) = 7.89665 8.01981 7.95847
#
# Compressibility (1/GPa) = 0.01304272
#
# Stress axis : x y z
#
# Youngs Moduli (GPa) = 59.63669 42.01842 43.78633
#
# Poissons Ratio (x) = 0.20070 0.32469
# Poissons Ratio (y) = 0.28485 0.56877
# Poissons Ratio (z) = 0.44222 0.54581
#
# Static dielectric constant tensor:
#      x y z
#    x 1.577930 0.000000 0.000000 
#    y 0.000000 1.579610 0.000000 
#    z 0.000000 0.000000 1.549920 
# 
# From -- ./inp_files/49593.got.cif
#   From: 2010.05.17/outbox.cif.g08.bks.cpg/sg74_25_cif.got.tgz:49593.got - 2010.06.03 17:57:02.
