data_PCOD9537591
_publ_section_title
;
Structure prediction by ZEFSAII (Michael W. Deem and Ramdas Pophale) SiO2 
 PCOD9537591
Probable space group: I M M A
;
_chemical_formula_sum "Si O2"
_cell_formula_units_Z 128
_cell_length_a 20.843188
_cell_length_b 18.171500
_cell_length_c 17.383005
_cell_angle_alpha 90.000000
_cell_angle_beta 90.000000
_cell_angle_gamma 90.000000
_cell_volume 6583.847749
_symmetry_space_group_name_H-M "I M M A"
_symmetry_group_IT_number 74
_symmetry_cell_setting 'orthorhombic'
loop_
_space_group_symop_operation_xyz
x,y,z
-x,1/2-y,z
x,-y,-z
-x,1/2+y,-z
-x,-y,-z
x,1/2+y,-z
-x,y,z
x,1/2-y,z
1/2+x,1/2+y,1/2+z
1/2-x,-y,1/2+z
1/2+x,1/2-y,1/2-z
1/2-x,y,1/2-z
1/2-x,1/2-y,1/2-z
1/2+x,y,1/2-z
1/2-x,1/2+y,1/2+z
1/2+x,-y,1/2+z
loop_
_atom_site_type_symbol
_atom_site_label
_atom_site_fract_x
_atom_site_fract_y
_atom_site_fract_z
Si Si1 0.294229 0.163478 0.069242
Si Si2 0.895733 0.457255 0.239916
Si Si3 0.571358 0.663262 0.855847
Si Si4 0.397533 0.015980 0.582541
Si Si5 0.227515 0.535624 0.851632
Si Si6 0.073699 0.896327 0.326757
Si Si7 0.577691 0.167080 0.661899
Si Si8 0.319988 0.565593 0.061344
O O1 0.281283 0.250000 0.072213
O O2 0.369920 0.149839 0.086249
O O3 0.256386 0.115660 0.132228
O O4 0.280961 0.125707 0.987373
O O5 0.912542 0.380876 0.278455
O O6 0.926349 0.473977 0.156756
O O7 0.818933 0.465590 0.222900
O O8 0.920787 0.519681 0.297023
O O9 0.500000 0.641756 0.883332
O O10 0.571128 0.750000 0.840755
O O11 0.396922 0.101350 0.608086
O O12 0.426672 0.000000 0.500000
O O13 0.326055 0.982526 0.583329
O O14 0.280108 0.473781 0.870602
O O15 0.094761 0.850233 0.251142
O O16 0.119834 0.894199 0.399650
O O17 0.000000 0.877753 0.344275
O O18 0.500000 0.162863 0.658213
O O19 0.597380 0.250000 0.641238
O O20 0.335677 0.500000 0.000000
#
# Coordination Sequence:
#
# PCOD9537591 Si02
#       8
#    16  16  16  16  16  16  16  16
#     4  10  21  36  56  81 111 149 189 227 275 334
#     4   9  19  33  56  78 105 145 186 225 271 332
#     4  10  21  37  55  80 115 148 181 228 282 332
#     4   9  18  35  56  80 104 141 183 226 276 332
#     4   9  20  36  55  77 106 144 181 227 271 323
#     4  10  20  34  55  83 110 145 188 231 278 332
#     4   9  19  37  57  79 109 143 181 228 280 336
#     4  10  20  34  54  79 113 147 186 234 280 325
#
# _framework density 19.441519
#
# number of rings (size 3 to 8) (size 9 to 14) (size 15 to 20)
#    0.750    1.750    0.000    3.000    0.000    4.500 
#    0.000    4.375    0.000    2.250    0.000    0.000 
#    0.000    0.000    0.000    0.000    0.000    0.000 
#
# Total GULP energy -356370.175441 kJ/mol
# GULP energy per Si atom -5568.283991 kJ/mol
# Density = 1.939727 g / cm^3
# Si number density = 19.441519 Si / 1000 Ang^3
#
#
#
# Elastic Constant Matrix: (Units=GPa)
#
#
# Indices 1 2 3 4 5 6 
#
# 1 62.5358 27.0621 6.3835 0.0000 0.0000 0.0000
# 2 27.0621 101.9489 21.8143 0.0000 0.0000 0.0000
# 3 6.3835 21.8143 64.8676 0.0000 0.0000 0.0000
# 4 0.0000 0.0000 0.0000 12.5995 0.0000 0.0000
# 5 0.0000 0.0000 0.0000 0.0000 -18.5309 0.0000
# 6 0.0000 0.0000 0.0000 0.0000 0.0000 22.0426
#
#
#
# Elastic Compliance Matrix: (Units=1/GPa)
#
#
# Indices 1 2 3 4 5 6 
#
# 1 0.018068 -0.004758 -0.000178 0.000000 0.000000 0.000000
# 2 -0.004758 0.011822 -0.003508 0.000000 0.000000 0.000000
# 3 -0.000178 -0.003508 0.016613 0.000000 0.000000 0.000000
# 4 0.000000 0.000000 0.000000 0.079368 0.000000 0.000000
# 5 0.000000 0.000000 0.000000 0.000000 -0.053964 0.000000
# 6 0.000000 0.000000 0.000000 0.000000 0.000000 0.045367
#
#
# Mechanical properties :
#
#
# Convention : Reuss Voigt Hill
#
# Bulk Modulus (GPa) = 33.76503 37.76356 35.76430
# Shear Modulus (GPa) = 34.71421 14.82842 24.77131
#
# Velocity S-wave (km/s) = 4.23019 2.76473 3.57339
# Velocity P-wave (km/s) = 6.42374 5.44592 5.95493
#
# Compressibility (1/GPa) = 0.02961644
#
# Stress axis : x y z
#
# Youngs Moduli (GPa) = 55.34639 84.58547 60.19359
#
# Poissons Ratio (x) = 0.40246 0.01071
# Poissons Ratio (y) = 0.26334 0.21113
# Poissons Ratio (z) = 0.00985 0.29668
#
# Static dielectric constant tensor:
#      x y z
#    x 1.770210 0.000000 0.000000 
#    y 0.000000 1.657800 0.000000 
#    z 0.000000 0.000000 1.701800 
# 
# From -- ./inp_files/46308.got.cif
#   From: 2010.05.17/outbox.cif.g08.bks.cpg/sg74_24_cif.got.tgz:46308.got - 2010.06.03 17:57:02.
