data_PCOD9537539
_publ_section_title
;
Structure prediction by ZEFSAII (Michael W. Deem and Ramdas Pophale) SiO2 
 PCOD9537539
Probable space group: I M M A
;
_chemical_formula_sum "Si O2"
_cell_formula_units_Z 104
_cell_length_a 22.520142
_cell_length_b 7.522534
_cell_length_c 28.538596
_cell_angle_alpha 90.000000
_cell_angle_beta 90.000000
_cell_angle_gamma 90.000000
_cell_volume 4834.681707
_symmetry_space_group_name_H-M "I M M A"
_symmetry_group_IT_number 74
_symmetry_cell_setting 'orthorhombic'
loop_
_space_group_symop_operation_xyz
x,y,z
-x,1/2-y,z
x,-y,-z
-x,1/2+y,-z
-x,-y,-z
x,1/2+y,-z
-x,y,z
x,1/2-y,z
1/2+x,1/2+y,1/2+z
1/2-x,-y,1/2+z
1/2+x,1/2-y,1/2-z
1/2-x,y,1/2-z
1/2-x,1/2-y,1/2-z
1/2+x,y,1/2-z
1/2-x,1/2+y,1/2+z
1/2+x,-y,1/2+z
loop_
_atom_site_type_symbol
_atom_site_label
_atom_site_fract_x
_atom_site_fract_y
_atom_site_fract_z
Si Si1 0.606308 0.463314 0.944483
Si Si2 0.000000 0.995828 0.374531
Si Si3 0.932206 0.534926 0.193441
Si Si4 0.667279 0.549062 0.375103
Si Si5 0.238766 0.036797 0.554817
Si Si6 0.399965 0.539120 0.801116
Si Si7 0.733416 0.464163 0.196553
O O1 0.603766 0.250000 0.938419
O O2 0.552696 0.534357 0.913405
O O3 0.672741 0.527772 0.930593
O O4 0.599073 0.500000 0.000000
O O5 0.948745 0.956787 0.334550
O O6 0.930397 0.750000 0.191781
O O7 0.888486 0.467708 0.152513
O O8 0.911317 0.485064 0.245714
O O9 0.000000 0.476634 0.187226
O O10 0.649800 0.750000 0.389032
O O11 0.703822 0.464376 0.417925
O O12 0.718818 0.553545 0.336202
O O13 0.238176 0.250000 0.562171
O O14 0.243854 0.000000 0.500000
O O15 0.405018 0.750000 0.810324
O O16 0.333712 0.477872 0.812328
O O17 0.736730 0.250000 0.189967
O O18 0.750000 0.501048 0.250000
#
# Coordination Sequence:
#
# PCOD9537539 Si02
#       7
#    16   8  16  16  16  16  16
#     4  10  22  39  59  81 109 144 187 236 284 332
#     4  12  23  34  53  78 109 148 188 226 271 320
#     4  10  21  36  54  78 108 145 186 224 267 323
#     4  10  20  35  57  82 110 145 182 224 279 335
#     4   9  19  37  59  85 112 140 180 231 284 338
#     4  11  23  37  53  76 108 147 188 231 274 322
#     4  10  20  34  53  78 108 141 183 232 277 325
#
# _framework density 21.511239
#
# number of rings (size 3 to 8) (size 9 to 14) (size 15 to 20)
#    0.000    1.846    2.308    1.615    0.000    4.000 
#    0.000    3.077    0.000    0.462    0.000    0.000 
#    0.000    0.000    0.000    0.000    0.000    0.000 
#
# Total GULP energy -289485.281852 kJ/mol
# GULP energy per Si atom -5567.024651 kJ/mol
# Density = 2.146228 g / cm^3
# Si number density = 21.511239 Si / 1000 Ang^3
#
#
#
# Elastic Constant Matrix: (Units=GPa)
#
#
# Indices 1 2 3 4 5 6 
#
# 1 142.7380 -0.2034 48.8617 0.0000 0.0000 0.0000
# 2 -0.2034 59.2710 -5.0210 0.0000 0.0000 0.0000
# 3 48.8617 -5.0210 94.2178 0.0000 0.0000 0.0000
# 4 0.0000 0.0000 0.0000 -5.9526 0.0000 0.0000
# 5 0.0000 0.0000 0.0000 0.0000 -21.7884 0.0000
# 6 0.0000 0.0000 0.0000 0.0000 0.0000 -2.5194
#
#
#
# Elastic Compliance Matrix: (Units=1/GPa)
#
#
# Indices 1 2 3 4 5 6 
#
# 1 0.008525 -0.000347 -0.004440 0.000000 0.000000 0.000000
# 2 -0.000347 0.016962 0.001084 0.000000 0.000000 0.000000
# 3 -0.004440 0.001084 0.012974 0.000000 0.000000 0.000000
# 4 0.000000 0.000000 0.000000 -0.167994 0.000000 0.000000
# 5 0.000000 0.000000 0.000000 0.000000 -0.045896 0.000000
# 6 0.000000 0.000000 0.000000 0.000000 0.000000 -0.396926
#
#
# Mechanical properties :
#
#
# Convention : Reuss Voigt Hill
#
# Bulk Modulus (GPa) = 32.19996 42.61126 37.40561
# Shear Modulus (GPa) = -9.01555 10.78724 0.88584
#
# Velocity S-wave (km/s) = -2.04944 2.24178 0.64242
# Velocity P-wave (km/s) = 3.06613 5.15292 4.23992
#
# Compressibility (1/GPa) = 0.03105594
#
# Stress axis : x y z
#
# Youngs Moduli (GPa) = 117.30055 58.95438 77.07803
#
# Poissons Ratio (x) = 0.02045 0.34220
# Poissons Ratio (y) = 0.04068 -0.08354
# Poissons Ratio (z) = 0.52077 -0.06390
#
# Static dielectric constant tensor:
#      x y z
#    x 1.784830 0.000000 0.000000 
#    y 0.000000 1.705040 0.000000 
#    z 0.000000 0.000000 1.791130 
# 
# From -- ./inp_files/68267.got.cif
#   From: 2010.05.17/outbox.cif.g08.bks.cpg/sg74_35_cif.got.tgz:68267.got - 2010.06.03 17:57:02.
