data_PCOD9537839
_publ_section_title
;
Structure prediction by ZEFSAII (Michael W. Deem and Ramdas Pophale) SiO2 
 PCOD9537839
Probable space group: I M M A
;
_chemical_formula_sum "Si O2"
_cell_formula_units_Z 120
_cell_length_a 27.794975
_cell_length_b 8.563856
_cell_length_c 28.388105
_cell_angle_alpha 90.000000
_cell_angle_beta 90.000000
_cell_angle_gamma 90.000000
_cell_volume 6757.282049
_symmetry_space_group_name_H-M "I M M A"
_symmetry_group_IT_number 74
_symmetry_cell_setting 'orthorhombic'
loop_
_space_group_symop_operation_xyz
x,y,z
-x,1/2-y,z
x,-y,-z
-x,1/2+y,-z
-x,-y,-z
x,1/2+y,-z
-x,y,z
x,1/2-y,z
1/2+x,1/2+y,1/2+z
1/2-x,-y,1/2+z
1/2+x,1/2-y,1/2-z
1/2-x,y,1/2-z
1/2-x,1/2-y,1/2-z
1/2+x,y,1/2-z
1/2-x,1/2+y,1/2+z
1/2+x,-y,1/2+z
loop_
_atom_site_type_symbol
_atom_site_label
_atom_site_fract_x
_atom_site_fract_y
_atom_site_fract_z
Si Si1 0.089916 0.937590 0.611264
Si Si2 0.711093 0.561656 0.448113
Si Si3 0.803619 0.938540 0.237847
Si Si4 0.351838 0.561598 0.360392
Si Si5 0.000000 0.435677 0.552816
Si Si6 0.602237 0.561945 0.782869
Si Si7 0.177963 0.562261 0.447523
Si Si8 0.054349 0.561297 0.814639
O O1 0.087768 0.750000 0.609854
O O2 0.085404 0.989733 0.665659
O O3 0.140320 0.993154 0.589306
O O4 0.046986 0.005032 0.580141
O O5 0.699280 0.500000 0.500000
O O6 0.709926 0.750000 0.449100
O O7 0.674447 0.507354 0.407813
O O8 0.766556 0.516977 0.437219
O O9 0.804730 0.750000 0.240554
O O10 0.750000 0.991274 0.250000
O O11 0.819995 0.983955 0.185191
O O12 0.843824 0.004801 0.272708
O O13 0.353755 0.750000 0.361343
O O14 0.405128 0.498848 0.350341
O O15 0.000000 0.500000 0.500000
O O16 0.000000 0.250000 0.551331
O O17 0.601646 0.750000 0.782647
O O18 0.570447 0.509740 0.738074
O O19 0.166571 0.500000 0.500000
O O20 0.174634 0.750000 0.447397
O O21 0.055200 0.750000 0.815114
O O22 0.000000 0.509643 0.824750
#
# Coordination Sequence:
#
# PCOD9537839 Si02
#       8
#    16  16  16  16   8  16  16  16
#     4  11  23  38  57  80 106 138 177 224 274 322
#     4   9  19  34  54  79 109 143 177 216 261 310
#     4   9  18  31  51  75 106 143 176 213 259 312
#     4   9  18  33  51  77 108 139 174 214 264 314
#     4  12  26  44  62  80 102 136 180 230 283 334
#     4   9  20  35  52  76 106 140 175 215 262 310
#     4  10  20  35  55  77 105 139 177 220 264 317
#     4   9  18  34  56  78 103 137 175 215 261 315
#
# _framework density 17.758620000000001
#
# number of rings (size 3 to 8) (size 9 to 14) (size 15 to 20)
#    0.000    2.400    0.000    1.800    2.800    2.667 
#    0.000    0.000    0.000    0.400    0.000    0.000 
#    0.000    0.000    0.000    0.000    0.000    0.000 
#
# Total GULP energy -334831.915264 kJ/mol
# GULP energy per Si atom -5580.531921 kJ/mol
# Density = 1.771820 g / cm^3
# Si number density = 17.758620 Si / 1000 Ang^3
#
#
#
# Elastic Constant Matrix: (Units=GPa)
#
#
# Indices 1 2 3 4 5 6 
#
# 1 137.8042 23.8752 81.8413 0.0000 0.0000 0.0000
# 2 23.8752 26.6851 28.8785 0.0000 0.0000 0.0000
# 3 81.8413 28.8785 128.8023 0.0000 0.0000 0.0000
# 4 0.0000 0.0000 0.0000 24.3089 0.0000 0.0000
# 5 0.0000 0.0000 0.0000 0.0000 18.9549 0.0000
# 6 0.0000 0.0000 0.0000 0.0000 0.0000 25.7850
#
#
#
# Elastic Compliance Matrix: (Units=1/GPa)
#
#
# Indices 1 2 3 4 5 6 
#
# 1 0.011864 -0.003244 -0.006811 0.000000 0.000000 0.000000
# 2 -0.003244 0.050366 -0.009232 0.000000 0.000000 0.000000
# 3 -0.006811 -0.009232 0.014161 0.000000 0.000000 0.000000
# 4 0.000000 0.000000 0.000000 0.041137 0.000000 0.000000
# 5 0.000000 0.000000 0.000000 0.000000 0.052757 0.000000
# 6 0.000000 0.000000 0.000000 0.000000 0.000000 0.038782
#
#
# Mechanical properties :
#
#
# Convention : Reuss Voigt Hill
#
# Bulk Modulus (GPa) = 26.44162 62.49793 44.46977
# Shear Modulus (GPa) = 19.21259 24.38956 21.80107
#
# Velocity S-wave (km/s) = 3.29275 3.70995 3.50756
# Velocity P-wave (km/s) = 5.42016 7.32264 6.44202
#
# Compressibility (1/GPa) = 0.03781917
#
# Stress axis : x y z
#
# Youngs Moduli (GPa) = 84.29130 19.85450 70.61504
#
# Poissons Ratio (x) = 0.06440 0.48095
# Poissons Ratio (y) = 0.27341 0.65188
# Poissons Ratio (z) = 0.57410 0.18329
#
# Static dielectric constant tensor:
#      x y z
#    x 1.591360 0.000000 0.000000 
#    y 0.000000 1.606740 0.000000 
#    z 0.000000 0.000000 1.586320 
# 
# From -- ./inp_files/69043.got.cif
#   From: 2010.05.17/outbox.cif.g08.bks.cpg/sg74_35_cif.got.tgz:69043.got - 2010.06.03 17:57:02.
