data_PCOD9537435
_publ_section_title
;
Structure prediction by ZEFSAII (Michael W. Deem and Ramdas Pophale) SiO2 
 PCOD9537435
Probable space group: I M M A
;
_chemical_formula_sum "Si O2"
_cell_formula_units_Z 116
_cell_length_a 7.494221
_cell_length_b 28.272126
_cell_length_c 26.381665
_cell_angle_alpha 90.000000
_cell_angle_beta 90.000000
_cell_angle_gamma 90.000000
_cell_volume 5589.682819
_symmetry_space_group_name_H-M "I M M A"
_symmetry_group_IT_number 74
_symmetry_cell_setting 'orthorhombic'
loop_
_space_group_symop_operation_xyz
x,y,z
-x,1/2-y,z
x,-y,-z
-x,1/2+y,-z
-x,-y,-z
x,1/2+y,-z
-x,y,z
x,1/2-y,z
1/2+x,1/2+y,1/2+z
1/2-x,-y,1/2+z
1/2+x,1/2-y,1/2-z
1/2-x,y,1/2-z
1/2-x,1/2-y,1/2-z
1/2+x,y,1/2-z
1/2-x,1/2+y,1/2+z
1/2+x,-y,1/2+z
loop_
_atom_site_type_symbol
_atom_site_label
_atom_site_fract_x
_atom_site_fract_y
_atom_site_fract_z
Si Si1 0.500000 0.250000 0.182615
Si Si2 0.287919 0.968245 0.309473
Si Si3 0.208786 0.301900 0.571312
Si Si4 0.207239 0.099418 0.602307
Si Si5 0.215113 0.652716 0.964395
Si Si6 0.212327 0.428267 0.190331
Si Si7 0.296915 0.552322 0.500098
Si Si8 0.216970 0.326943 0.148928
O O1 0.341198 0.291030 0.179061
O O2 0.500000 0.968548 0.315965
O O3 0.250000 0.962137 0.250000
O O4 0.217310 0.926972 0.344724
O O5 0.216556 0.020220 0.325468
O O6 0.288673 0.250000 0.579028
O O7 0.281209 0.347243 0.601513
O O8 0.222530 0.317209 0.512445
O O9 0.000000 0.298520 0.584312
O O10 0.299989 0.069640 0.558056
O O11 0.000000 0.101880 0.586652
O O12 0.257118 0.676932 0.911092
O O13 0.000000 0.650108 0.967601
O O14 0.279577 0.598076 0.970153
O O15 0.250000 0.423587 0.250000
O O16 0.268946 0.380598 0.163185
O O17 0.000000 0.430239 0.183041
O O18 0.213299 0.500000 0.500000
O O19 0.500000 0.546324 0.519780
O O20 0.000000 0.320565 0.156719
#
# Coordination Sequence:
#
# PCOD9537435 Si02
#       8
#     4  16  16  16  16  16  16  16
#     4  12  26  40  62  86 104 152 194 234 308 340
#     4  10  20  36  60  88 114 148 183 224 282 340
#     4   9  19  34  54  76 106 148 192 234 277 328
#     4  10  20  34  51  80 116 144 182 235 281 333
#     4   9  19  33  50  76 108 143 183 234 284 325
#     4   9  20  38  62  84 111 141 179 228 281 342
#     4   9  18  32  51  74 106 149 189 222 274 342
#     4  10  23  41  59  84 115 144 190 245 290 347
#
# _framework density 20.752521000000002
#
# number of rings (size 3 to 8) (size 9 to 14) (size 15 to 20)
#    0.000    2.483    0.000    1.034    4.828    1.655 
#    0.000    0.345    0.000    0.414    0.000    0.000 
#    0.000    0.000    0.000    0.000    0.000    0.000 
#
# Total GULP energy -322994.102309 kJ/mol
# GULP energy per Si atom -5568.863833 kJ/mol
# Density = 2.070529 g / cm^3
# Si number density = 20.752521 Si / 1000 Ang^3
#
#
#
# Elastic Constant Matrix: (Units=GPa)
#
#
# Indices 1 2 3 4 5 6 
#
# 1 76.2178 16.9488 -5.1178 0.0000 0.0000 0.0000
# 2 16.9488 171.8786 34.2867 0.0000 0.0000 0.0000
# 3 -5.1178 34.2867 21.4469 0.0000 0.0000 0.0000
# 4 0.0000 0.0000 0.0000 -0.4394 0.0000 0.0000
# 5 0.0000 0.0000 0.0000 0.0000 12.8635 0.0000
# 6 0.0000 0.0000 0.0000 0.0000 0.0000 17.5773
#
#
#
# Elastic Compliance Matrix: (Units=1/GPa)
#
#
# Indices 1 2 3 4 5 6 
#
# 1 0.014367 -0.003084 0.008359 0.000000 0.000000 0.000000
# 2 -0.003084 0.009204 -0.015451 0.000000 0.000000 0.000000
# 3 0.008359 -0.015451 0.073322 -0.000002 0.000000 0.000000
# 4 0.000000 0.000000 -0.000002 -2.275657 0.000000 0.000000
# 5 0.000000 0.000000 0.000000 0.000000 0.077739 0.000000
# 6 0.000000 0.000000 0.000000 0.000000 0.000000 0.056891
#
#
# Mechanical properties :
#
#
# Convention : Reuss Voigt Hill
#
# Bulk Modulus (GPa) = 13.06462 40.19760 26.63111
# Shear Modulus (GPa) = -2.50217 20.89531 9.19657
#
# Velocity S-wave (km/s) = -1.09924 3.17658 2.10741
# Velocity P-wave (km/s) = 2.16748 5.73291 4.33383
#
# Compressibility (1/GPa) = 0.07654259
#
# Stress axis : x y z
#
# Youngs Moduli (GPa) = 69.60169 108.64426 13.63840
#
# Poissons Ratio (x) = 0.33509 -0.11401
# Poissons Ratio (y) = 0.21467 0.21072
# Poissons Ratio (z) = -0.58182 1.67864
#
# Static dielectric constant tensor:
#      x y z
#    x 1.827390 0.000000 0.000000 
#    y 0.000000 1.787890 0.000000 
#    z 0.000000 0.000000 1.718410 
# 
# From -- ./inp_files/57695.got.cif
#   From: 2010.05.17/outbox.cif.g08.bks.cpg/sg74_29_cif.got.tgz:57695.got - 2010.06.03 17:57:02.
