data_PCOD9537130
_publ_section_title
;
Structure prediction by ZEFSAII (Michael W. Deem and Ramdas Pophale) SiO2 
 PCOD9537130
Probable space group: I M M A
;
_chemical_formula_sum "Si O2"
_cell_formula_units_Z 112
_cell_length_a 14.515013
_cell_length_b 15.084393
_cell_length_c 26.841467
_cell_angle_alpha 90.000000
_cell_angle_beta 90.000000
_cell_angle_gamma 90.000000
_cell_volume 5876.943507
_symmetry_space_group_name_H-M "I M M A"
_symmetry_group_IT_number 74
_symmetry_cell_setting 'orthorhombic'
loop_
_space_group_symop_operation_xyz
x,y,z
-x,1/2-y,z
x,-y,-z
-x,1/2+y,-z
-x,-y,-z
x,1/2+y,-z
-x,y,z
x,1/2-y,z
1/2+x,1/2+y,1/2+z
1/2-x,-y,1/2+z
1/2+x,1/2-y,1/2-z
1/2-x,y,1/2-z
1/2-x,1/2-y,1/2-z
1/2+x,y,1/2-z
1/2-x,1/2+y,1/2+z
1/2+x,-y,1/2+z
loop_
_atom_site_type_symbol
_atom_site_label
_atom_site_fract_x
_atom_site_fract_y
_atom_site_fract_z
Si Si1 0.610830 0.850742 0.874011
Si Si2 0.607171 0.470326 0.329183
Si Si3 0.888640 0.645234 0.921262
Si Si4 0.895280 0.601544 0.515096
Si Si5 0.611514 0.352849 0.625700
Si Si6 0.355214 0.648988 0.764135
Si Si7 0.798722 0.853071 0.022399
O O1 0.500000 0.848395 0.872690
O O2 0.646533 0.750000 0.875846
O O3 0.633754 0.892967 0.926899
O O4 0.638328 0.887409 0.820288
O O5 0.500000 0.476056 0.342126
O O6 0.646851 0.407547 0.372838
O O7 0.639437 0.572228 0.333843
O O8 0.610078 0.420049 0.276750
O O9 0.866807 0.750000 0.915057
O O10 0.000000 0.639572 0.925505
O O11 0.843673 0.608869 0.972071
O O12 0.900941 0.500000 0.500000
O O13 0.811686 0.641297 0.483095
O O14 0.000000 0.639652 0.510048
O O15 0.500000 0.351390 0.619695
O O16 0.638665 0.250000 0.636167
O O17 0.658763 0.385253 0.574221
O O18 0.395858 0.750000 0.762429
O O19 0.250000 0.659031 0.750000
O O20 0.826153 0.750000 0.021606
#
# Coordination Sequence:
#
# PCOD9537130 Si02
#       7
#    16  16  16  16  16  16  16
#     4   9  18  34  53  70  95 132 168 207 258 315
#     4  10  20  33  52  76 105 145 183 220 268 318
#     4   9  18  30  46  74 109 140 173 214 262 322
#     4  10  22  36  51  75 103 135 180 227 268 314
#     4   9  19  35  53  78 110 143 185 228 270 326
#     4  10  21  33  50  78 110 140 174 217 264 322
#     4  10  20  32  51  73 101 142 178 217 270 323
#
# _framework density 19.057525999999999
#
# number of rings (size 3 to 8) (size 9 to 14) (size 15 to 20)
#    0.000    2.429    0.000    1.714    4.000    4.000 
#    0.000    2.143    0.000    0.429    0.000    2.000 
#    0.000    9.143    0.000    0.000    0.000    0.000 
#
# Total GULP energy -311907.500011 kJ/mol
# GULP energy per Si atom -5569.776786 kJ/mol
# Density = 1.901415 g / cm^3
# Si number density = 19.057526 Si / 1000 Ang^3
#
#
#
# Elastic Constant Matrix: (Units=GPa)
#
#
# Indices 1 2 3 4 5 6 
#
# 1 44.4282 4.9319 4.1381 0.0000 0.0000 0.0000
# 2 4.9319 88.4691 52.9596 0.0000 0.0000 0.0000
# 3 4.1381 52.9596 90.9347 0.0000 0.0000 0.0000
# 4 0.0000 0.0000 0.0000 28.0910 0.0000 0.0000
# 5 0.0000 0.0000 0.0000 0.0000 20.4663 0.0000
# 6 0.0000 0.0000 0.0000 0.0000 0.0000 14.5009
#
#
#
# Elastic Compliance Matrix: (Units=1/GPa)
#
#
# Indices 1 2 3 4 5 6 
#
# 1 0.022661 -0.000992 -0.000454 0.000000 0.000000 0.000000
# 2 -0.000992 0.017397 -0.010087 0.000000 0.000000 0.000000
# 3 -0.000454 -0.010087 0.016892 0.000000 0.000000 0.000000
# 4 0.000000 0.000000 0.000000 0.035599 0.000000 0.000000
# 5 0.000000 0.000000 0.000000 0.000000 0.048861 0.000000
# 6 0.000000 0.000000 0.000000 0.000000 0.000000 0.068961
#
#
# Mechanical properties :
#
#
# Convention : Reuss Voigt Hill
#
# Bulk Modulus (GPa) = 29.51128 38.65459 34.08293
# Shear Modulus (GPa) = 20.43077 23.39846 21.91461
#
# Velocity S-wave (km/s) = 3.27778 3.50777 3.39472
# Velocity P-wave (km/s) = 5.46298 6.06078 5.76963
#
# Compressibility (1/GPa) = 0.03388534
#
# Stress axis : x y z
#
# Youngs Moduli (GPa) = 44.12948 57.48202 59.20000
#
# Poissons Ratio (x) = 0.05701 0.02685
# Poissons Ratio (y) = 0.04376 0.59713
# Poissons Ratio (z) = 0.02002 0.57980
#
# Static dielectric constant tensor:
#      x y z
#    x 1.740880 0.000000 0.000000 
#    y 0.000000 1.707530 0.000000 
#    z 0.000000 0.000000 1.679210 
# 
# From -- ./inp_files/67250.got.cif
#   From: 2010.05.17/outbox.cif.g08.bks.cpg/sg74_34_cif.got.tgz:67250.got - 2010.06.03 17:57:02.
