data_PCOD9537826
_publ_section_title
;
Structure prediction by ZEFSAII (Michael W. Deem and Ramdas Pophale) SiO2 
 PCOD9537826
Probable space group: I M M A
;
_chemical_formula_sum "Si O2"
_cell_formula_units_Z 92
_cell_length_a 8.825213
_cell_length_b 22.133830
_cell_length_c 28.436987
_cell_angle_alpha 90.000000
_cell_angle_beta 90.000000
_cell_angle_gamma 90.000000
_cell_volume 5554.760589
_symmetry_space_group_name_H-M "I M M A"
_symmetry_group_IT_number 74
_symmetry_cell_setting 'orthorhombic'
loop_
_space_group_symop_operation_xyz
x,y,z
-x,1/2-y,z
x,-y,-z
-x,1/2+y,-z
-x,-y,-z
x,1/2+y,-z
-x,y,z
x,1/2-y,z
1/2+x,1/2+y,1/2+z
1/2-x,-y,1/2+z
1/2+x,1/2-y,1/2-z
1/2-x,y,1/2-z
1/2-x,1/2-y,1/2-z
1/2+x,y,1/2-z
1/2-x,1/2+y,1/2+z
1/2+x,-y,1/2+z
loop_
_atom_site_type_symbol
_atom_site_label
_atom_site_fract_x
_atom_site_fract_y
_atom_site_fract_z
Si Si1 0.500000 0.750000 0.477366
Si Si2 0.321029 0.053572 0.896787
Si Si3 0.181398 0.250000 0.302158
Si Si4 0.182193 0.008124 0.299859
Si Si5 0.319776 0.628697 0.656181
Si Si6 0.677814 0.920821 0.936117
Si Si7 0.665214 0.875234 0.472474
O O1 0.629675 0.804326 0.476992
O O2 0.500000 0.066986 0.898205
O O3 0.227520 0.105832 0.921720
O O4 0.280182 0.036412 0.843236
O O5 0.296283 0.991894 0.926661
O O6 0.250000 0.250000 0.250000
O O7 0.242393 0.309559 0.327888
O O8 0.000000 0.250000 0.300402
O O9 0.250000 0.989034 0.250000
O O10 0.251886 0.073067 0.313862
O O11 0.000000 0.013418 0.297578
O O12 0.500000 0.631883 0.662413
O O13 0.277059 0.614560 0.602284
O O14 0.500000 0.909875 0.926614
O O15 0.722864 0.899610 0.987706
O O16 0.500000 0.905401 0.479743
#
# Coordination Sequence:
#
# PCOD9537826 Si02
#       7
#     4  16   8  16  16  16  16
#     4   8  24  38  48  76 110 142 182 220 268 310
#     4   9  19  34  55  83 111 139 179 223 274 329
#     4  12  24  39  54  70  96 141 198 237 278 315
#     4  10  20  35  54  80 115 141 172 221 277 332
#     4  11  22  36  52  75 105 144 187 231 275 321
#     4  10  20  35  55  81 110 142 179 227 281 327
#     4  10  20  36  54  75 112 141 182 221 268 322
#
# _framework density 16.562369
#
# number of rings (size 3 to 8) (size 9 to 14) (size 15 to 20)
#    0.522    1.391    0.000    6.000    0.000    6.957 
#    0.000    2.609    0.000    0.000    0.000    0.609 
#    0.000    0.000    0.000    0.000    0.000    0.000 
#
# Total GULP energy -256091.118629 kJ/mol
# GULP energy per Si atom -5567.198231 kJ/mol
# Density = 1.652467 g / cm^3
# Si number density = 16.562369 Si / 1000 Ang^3
#
#
#
# Elastic Constant Matrix: (Units=GPa)
#
#
# Indices 1 2 3 4 5 6 
#
# 1 82.2358 16.6344 26.3822 0.0000 0.0000 0.0000
# 2 16.6344 28.1916 28.0761 0.0000 0.0000 0.0000
# 3 26.3822 28.0761 83.7020 0.0000 0.0000 0.0000
# 4 0.0000 0.0000 0.0000 8.3621 0.0000 0.0000
# 5 0.0000 0.0000 0.0000 0.0000 28.8997 0.0000
# 6 0.0000 0.0000 0.0000 0.0000 0.0000 33.8049
#
#
#
# Elastic Compliance Matrix: (Units=1/GPa)
#
#
# Indices 1 2 3 4 5 6 
#
# 1 0.014146 -0.005866 -0.002491 0.000000 0.000000 0.000000
# 2 -0.005866 0.055697 -0.016834 0.000000 0.000000 0.000000
# 3 -0.002491 -0.016834 0.018379 0.000000 0.000000 0.000000
# 4 0.000000 0.000000 0.000000 0.119587 0.000000 0.000000
# 5 0.000000 0.000000 0.000000 0.000000 0.034602 0.000000
# 6 0.000000 0.000000 0.000000 0.000000 0.000000 0.029581
#
#
# Mechanical properties :
#
#
# Convention : Reuss Voigt Hill
#
# Bulk Modulus (GPa) = 26.42647 37.36830 31.89739
# Shear Modulus (GPa) = 14.92593 22.41581 18.67087
#
# Velocity S-wave (km/s) = 3.00525 3.68287 3.36118
# Velocity P-wave (km/s) = 5.29456 6.37933 5.86209
#
# Compressibility (1/GPa) = 0.03784084
#
# Stress axis : x y z
#
# Youngs Moduli (GPa) = 70.69215 17.95419 54.41050
#
# Poissons Ratio (x) = 0.10532 0.13554
# Poissons Ratio (y) = 0.41467 0.91593
# Poissons Ratio (z) = 0.17610 0.30223
#
# Static dielectric constant tensor:
#      x y z
#    x 1.561860 0.000000 0.000000 
#    y 0.000000 1.531580 0.000000 
#    z 0.000000 0.000000 1.576550 
# 
# From -- ./inp_files/64389.got.cif
#   From: 2010.05.17/outbox.cif.g08.bks.cpg/sg74_33_cif.got.tgz:64389.got - 2010.06.03 17:57:02.
