data_PCOD9537465
_publ_section_title
;
Structure prediction by ZEFSAII (Michael W. Deem and Ramdas Pophale) SiO2 
 PCOD9537465
Probable space group: I M M A
;
_chemical_formula_sum "Si O2"
_cell_formula_units_Z 72
_cell_length_a 8.776449
_cell_length_b 14.963644
_cell_length_c 29.597707
_cell_angle_alpha 90.000000
_cell_angle_beta 90.000000
_cell_angle_gamma 90.000000
_cell_volume 3886.997555
_symmetry_space_group_name_H-M "I M M A"
_symmetry_group_IT_number 74
_symmetry_cell_setting 'orthorhombic'
loop_
_space_group_symop_operation_xyz
x,y,z
-x,1/2-y,z
x,-y,-z
-x,1/2+y,-z
-x,-y,-z
x,1/2+y,-z
-x,y,z
x,1/2-y,z
1/2+x,1/2+y,1/2+z
1/2-x,-y,1/2+z
1/2+x,1/2-y,1/2-z
1/2-x,y,1/2-z
1/2-x,1/2-y,1/2-z
1/2+x,y,1/2-z
1/2-x,1/2+y,1/2+z
1/2+x,-y,1/2+z
loop_
_atom_site_type_symbol
_atom_site_label
_atom_site_fract_x
_atom_site_fract_y
_atom_site_fract_z
Si Si1 0.185159 0.750000 0.699063
Si Si2 0.328597 0.856382 0.294474
Si Si3 0.684783 0.391172 0.122989
Si Si4 0.183449 0.750000 0.547123
Si Si5 0.318960 0.250000 0.552321
Si Si6 0.318986 0.905333 0.113288
O O1 0.250000 0.750000 0.750000
O O2 0.232052 0.836257 0.668115
O O3 0.000000 0.750000 0.701593
O O4 0.500000 0.891499 0.301816
O O5 0.342691 0.750000 0.287978
O O6 0.250000 0.895714 0.250000
O O7 0.222164 0.869780 0.337248
O O8 0.500000 0.393555 0.125592
O O9 0.724086 0.333868 0.078772
O O10 0.737235 0.492202 0.115195
O O11 0.263232 0.750000 0.499131
O O12 0.000000 0.750000 0.540558
O O13 0.500000 0.250000 0.555354
O O14 0.256682 0.161749 0.577712
O O15 0.500000 0.904602 0.105501
#
# Coordination Sequence:
#
# PCOD9537465 Si02
#       6
#     8  16  16   8   8  16
#     4   9  17  35  59  86 118 149 180 223 271 322
#     4  10  20  34  52  75 108 147 185 223 268 320
#     4   8  18  36  60  85 111 143 185 231 275 326
#     4   9  18  40  65  82 104 142 187 231 279 336
#     4  12  25  39  54  80 115 147 182 230 284 338
#     4  11  21  36  58  84 111 146 189 231 276 330
#
# _framework density 18.523294
#
# number of rings (size 3 to 8) (size 9 to 14) (size 15 to 20)
#    0.000    2.222    1.111    3.667    0.000    2.667 
#    0.000   13.333    0.000    0.000    0.000    0.000 
#    0.000    0.000    0.000    0.000    0.000    0.000 
#
# Total GULP energy -200685.164116 kJ/mol
# GULP energy per Si atom -5574.587892 kJ/mol
# Density = 1.848113 g / cm^3
# Si number density = 18.523294 Si / 1000 Ang^3
#
#
#
# Elastic Constant Matrix: (Units=GPa)
#
#
# Indices 1 2 3 4 5 6 
#
# 1 61.3009 43.7844 41.7601 0.0000 0.0000 0.0000
# 2 43.7844 124.4831 72.3837 0.0000 0.0000 0.0000
# 3 41.7601 72.3837 165.6450 0.0000 0.0000 0.0000
# 4 0.0000 0.0000 0.0000 -24.6436 0.0000 0.0000
# 5 0.0000 0.0000 0.0000 0.0000 28.2059 0.0000
# 6 0.0000 0.0000 0.0000 0.0000 0.0000 2.4491
#
#
#
# Elastic Compliance Matrix: (Units=1/GPa)
#
#
# Indices 1 2 3 4 5 6 
#
# 1 0.022857 -0.006286 -0.003016 0.000000 0.000000 0.000000
# 2 -0.006286 0.012498 -0.003877 0.000000 0.000000 0.000000
# 3 -0.003016 -0.003877 0.008491 0.000000 0.000000 0.000000
# 4 0.000000 0.000000 0.000000 -0.040579 0.000000 0.000000
# 5 0.000000 0.000000 0.000000 0.000000 0.035454 0.000000
# 6 0.000000 0.000000 0.000000 0.000000 0.000000 0.408313
#
#
# Mechanical properties :
#
#
# Convention : Reuss Voigt Hill
#
# Bulk Modulus (GPa) = 57.17528 74.14279 65.65904
# Shear Modulus (GPa) = 10.43358 14.10233 12.26795
#
# Velocity S-wave (km/s) = 2.37590 2.76221 2.57631
# Velocity P-wave (km/s) = 6.20163 7.09132 6.66134
#
# Compressibility (1/GPa) = 0.01749008
#
# Stress axis : x y z
#
# Youngs Moduli (GPa) = 43.75008 80.00962 117.76692
#
# Poissons Ratio (x) = 0.50295 0.35513
# Poissons Ratio (y) = 0.27502 0.45656
# Poissons Ratio (z) = 0.13193 0.31019
#
# Static dielectric constant tensor:
#      x y z
#    x 1.645460 0.000000 0.000000 
#    y 0.000000 1.736390 0.000000 
#    z 0.000000 0.000000 1.606990 
# 
# From -- ./inp_files/63660.got.cif
#   From: 2010.05.17/outbox.cif.g08.bks.cpg/sg74_32_cif.got.tgz:63660.got - 2010.06.03 17:57:02.
