data_PCOD9537867
_publ_section_title
;
Structure prediction by ZEFSAII (Michael W. Deem and Ramdas Pophale) SiO2 
 PCOD9537867
Probable space group: I M M A
;
_chemical_formula_sum "Si O2"
_cell_formula_units_Z 96
_cell_length_a 19.300999
_cell_length_b 8.470240
_cell_length_c 29.116635
_cell_angle_alpha 90.000000
_cell_angle_beta 90.000000
_cell_angle_gamma 90.000000
_cell_volume 4760.106687
_symmetry_space_group_name_H-M "I M M A"
_symmetry_group_IT_number 74
_symmetry_cell_setting 'orthorhombic'
loop_
_space_group_symop_operation_xyz
x,y,z
-x,1/2-y,z
x,-y,-z
-x,1/2+y,-z
-x,-y,-z
x,1/2+y,-z
-x,y,z
x,1/2-y,z
1/2+x,1/2+y,1/2+z
1/2-x,-y,1/2+z
1/2+x,1/2-y,1/2-z
1/2-x,y,1/2-z
1/2-x,1/2-y,1/2-z
1/2+x,y,1/2-z
1/2-x,1/2+y,1/2+z
1/2+x,-y,1/2+z
loop_
_atom_site_type_symbol
_atom_site_label
_atom_site_fract_x
_atom_site_fract_y
_atom_site_fract_z
Si Si1 0.421910 0.939073 0.646196
Si Si2 0.078088 0.074696 0.695943
Si Si3 0.786526 0.440962 0.448548
Si Si4 0.076913 0.434031 0.398586
Si Si5 0.634337 0.561962 0.447780
Si Si6 0.816124 0.432491 0.778379
O O1 0.500000 0.991089 0.661674
O O2 0.420575 0.750000 0.647656
O O3 0.411925 0.994632 0.593508
O O4 0.357028 0.997191 0.677678
O O5 0.086453 0.250000 0.674741
O O6 0.127074 0.063606 0.738633
O O7 0.000000 0.060296 0.712634
O O8 0.088273 0.950892 0.655698
O O9 0.796296 0.500000 0.500000
O O10 0.781924 0.250000 0.446133
O O11 0.854221 0.499699 0.421711
O O12 0.712658 0.510893 0.434283
O O13 0.073938 0.250000 0.411414
O O14 0.000000 0.502904 0.408772
O O15 0.621050 0.500000 0.500000
O O16 0.628993 0.750000 0.449043
O O17 0.797565 0.250000 0.790133
O O18 0.750000 0.502425 0.750000
#
# Coordination Sequence:
#
# PCOD9537867 Si02
#       6
#    16  16  16  16  16  16
#     4  11  25  44  66  94 128 165 206 252 304 364
#     4   9  18  33  53  77 110 151 194 239 287 344
#     4  10  20  35  55  81 114 153 196 246 302 360
#     4   9  19  34  52  77 110 150 196 244 296 353
#     4  11  23  41  66  93 124 161 203 252 307 369
#     4  10  22  39  60  91 125 160 202 249 301 356
#
# _framework density 20.167615000000001
#
# number of rings (size 3 to 8) (size 9 to 14) (size 15 to 20)
#    0.000    2.000    0.000    4.000    2.333    5.000 
#    0.000    1.667    0.000    0.000    0.000    0.000 
#    0.000    0.000    0.000    0.000    0.000    0.000 
#
# Total GULP energy -267417.768061 kJ/mol
# GULP energy per Si atom -5571.203501 kJ/mol
# Density = 2.012171 g / cm^3
# Si number density = 20.167615 Si / 1000 Ang^3
#
#
#
# Elastic Constant Matrix: (Units=GPa)
#
#
# Indices 1 2 3 4 5 6 
#
# 1 67.1501 26.0405 72.6298 0.0000 0.0000 0.0000
# 2 26.0405 45.9074 16.1677 0.0000 0.0000 0.0000
# 3 72.6298 16.1677 61.8866 0.0000 0.0000 0.0000
# 4 0.0000 0.0000 0.0000 30.3667 0.0000 0.0000
# 5 0.0000 0.0000 0.0000 0.0000 36.1373 0.0000
# 6 0.0000 0.0000 0.0000 0.0000 0.0000 26.0934
#
#
#
# Elastic Compliance Matrix: (Units=1/GPa)
#
#
# Indices 1 2 3 4 5 6 
#
# 1 -0.051852 0.008790 0.058557 0.000000 0.000000 0.000000
# 2 0.008790 0.022500 -0.016194 0.000000 0.000000 0.000000
# 3 0.058557 -0.016194 -0.048333 0.000000 0.000000 0.000000
# 4 0.000000 0.000000 0.000000 0.032931 0.000000 0.000000
# 5 0.000000 0.000000 0.000000 0.000000 0.027672 0.000000
# 6 0.000000 0.000000 0.000000 0.000000 0.000000 0.038324
#
#
# Mechanical properties :
#
#
# Convention : Reuss Voigt Hill
#
# Bulk Modulus (GPa) = 40.61552 44.95780 42.78666
# Shear Modulus (GPa) = -68.62758 22.52656 -23.05051
#
# Velocity S-wave (km/s) = -5.83973 3.34573 -3.38442
# Velocity P-wave (km/s) = 5.02864 6.10456 2.44729
#
# Compressibility (1/GPa) = 0.02462113
#
# Stress axis : x y z
#
# Youngs Moduli (GPa) = -19.28561 44.44404 -20.68981
#
# Poissons Ratio (x) = -0.39066 1.21153
# Poissons Ratio (y) = 0.16952 -0.33505
# Poissons Ratio (z) = 1.12931 0.71972
#
# Static dielectric constant tensor:
#      x y z
#    x 1.876740 0.000000 0.000000 
#    y 0.000000 1.782280 0.000000 
#    z 0.000000 0.000000 1.692430 
# 
# From -- ./inp_files/68145.got.cif
#   From: 2010.05.17/outbox.cif.g08.bks.cpg/sg74_35_cif.got.tgz:68145.got - 2010.06.03 17:57:02.
