data_PCOD9537555
_publ_section_title
;
Structure prediction by ZEFSAII (Michael W. Deem and Ramdas Pophale) SiO2 
 PCOD9537555
Probable space group: I M M A
;
_chemical_formula_sum "Si O2"
_cell_formula_units_Z 80
_cell_length_a 15.412880
_cell_length_b 10.521558
_cell_length_c 26.799482
_cell_angle_alpha 90.000000
_cell_angle_beta 90.000000
_cell_angle_gamma 90.000000
_cell_volume 4346.005288
_symmetry_space_group_name_H-M "I M M A"
_symmetry_group_IT_number 74
_symmetry_cell_setting 'orthorhombic'
loop_
_space_group_symop_operation_xyz
x,y,z
-x,1/2-y,z
x,-y,-z
-x,1/2+y,-z
-x,-y,-z
x,1/2+y,-z
-x,y,z
x,1/2-y,z
1/2+x,1/2+y,1/2+z
1/2-x,-y,1/2+z
1/2+x,1/2-y,1/2-z
1/2-x,y,1/2-z
1/2-x,1/2-y,1/2-z
1/2+x,y,1/2-z
1/2-x,1/2+y,1/2+z
1/2+x,-y,1/2+z
loop_
_atom_site_type_symbol
_atom_site_label
_atom_site_fract_x
_atom_site_fract_y
_atom_site_fract_z
Si Si1 0.500000 0.103182 0.543333
Si Si2 0.500000 0.897189 0.956273
Si Si3 0.679511 0.602580 0.396601
Si Si4 0.679208 0.395686 0.103263
Si Si5 0.842761 0.110036 0.277913
Si Si6 0.598882 0.392056 0.709537
O O1 0.500000 0.250000 0.525155
O O2 0.412269 0.086663 0.575462
O O3 0.500000 0.000000 0.500000
O O4 0.500000 0.750000 0.974425
O O5 0.413295 0.913597 0.923268
O O6 0.500000 0.000000 0.000000
O O7 0.707037 0.750000 0.403433
O O8 0.750832 0.500565 0.413086
O O9 0.659961 0.582627 0.337761
O O10 0.708609 0.250000 0.093193
O O11 0.667174 0.406625 0.163000
O O12 0.882416 0.250000 0.269269
O O13 0.750000 0.110292 0.250000
O O14 0.892637 0.995624 0.252187
O O15 0.500000 0.391866 0.690698
O O16 0.618385 0.250000 0.728528
#
# Coordination Sequence:
#
# PCOD9537555 Si02
#       6
#     8   8  16  16  16  16
#     4  10  22  40  59  84 116 148 185 232 287 344
#     4  10  24  46  67  84 112 152 199 258 311 350
#     4  10  20  37  60  84 116 155 190 230 282 343
#     4  10  22  40  61  87 118 152 193 243 296 346
#     4  10  20  34  54  84 119 153 190 231 281 345
#     4  10  20  34  53  80 117 158 194 226 270 334
#
# _framework density 18.407709000000001
#
# number of rings (size 3 to 8) (size 9 to 14) (size 15 to 20)
#    0.000    2.000    3.000    0.000    1.400    4.000 
#    0.000    4.000    0.000    0.000    0.000    0.000 
#    0.000    0.000    0.000    0.000    0.000    0.000 
#
# Total GULP energy -223147.744461 kJ/mol
# GULP energy per Si atom -5578.693612 kJ/mol
# Density = 1.836581 g / cm^3
# Si number density = 18.407709 Si / 1000 Ang^3
#
#
#
# Elastic Constant Matrix: (Units=GPa)
#
#
# Indices 1 2 3 4 5 6 
#
# 1 101.3265 88.6405 29.0178 0.0000 0.0000 0.0000
# 2 88.6405 162.9550 69.2178 0.0000 0.0000 0.0000
# 3 29.0178 69.2178 75.8875 0.0000 0.0000 0.0000
# 4 0.0000 0.0000 0.0000 29.8874 0.0000 0.0000
# 5 0.0000 0.0000 0.0000 0.0000 15.8666 0.0000
# 6 0.0000 0.0000 0.0000 0.0000 0.0000 26.4971
#
#
#
# Elastic Compliance Matrix: (Units=1/GPa)
#
#
# Indices 1 2 3 4 5 6 
#
# 1 0.019415 -0.012093 0.003606 0.000000 0.000000 0.000000
# 2 -0.012093 0.017550 -0.011383 0.000000 0.000000 0.000000
# 3 0.003606 -0.011383 0.022182 0.000000 0.000000 0.000000
# 4 0.000000 0.000000 0.000000 0.033459 0.000000 0.000000
# 5 0.000000 0.000000 0.000000 0.000000 0.063025 0.000000
# 6 0.000000 0.000000 0.000000 0.000000 0.000000 0.037740
#
#
# Mechanical properties :
#
#
# Convention : Reuss Voigt Hill
#
# Bulk Modulus (GPa) = 51.53010 79.32458 65.42734
# Shear Modulus (GPa) = 20.86988 24.66975 22.76981
#
# Velocity S-wave (km/s) = 3.37078 3.66483 3.52088
# Velocity P-wave (km/s) = 6.57298 7.81630 7.22145
#
# Compressibility (1/GPa) = 0.01940613
#
# Stress axis : x y z
#
# Youngs Moduli (GPa) = 51.50639 56.98062 45.08252
#
# Poissons Ratio (x) = 0.68905 -0.16256
# Poissons Ratio (y) = 0.62285 0.51319
# Poissons Ratio (z) = -0.18573 0.64863
#
# Static dielectric constant tensor:
#      x y z
#    x 1.639520 0.000000 0.000000 
#    y 0.000000 1.643450 0.000000 
#    z 0.000000 0.000000 1.610520 
# 
# From -- ./inp_files/59729.got.cif
#   From: 2010.05.17/outbox.cif.g08.bks.cpg/sg74_30_cif.got.tgz:59729.got - 2010.06.03 17:57:02.
