data_PCOD9537165
_publ_section_title
;
Structure prediction by ZEFSAII (Michael W. Deem and Ramdas Pophale) SiO2 
 PCOD9537165
Probable space group: I M M A
;
_chemical_formula_sum "Si O2"
_cell_formula_units_Z 40
_cell_length_a 10.751645
_cell_length_b 10.516022
_cell_length_c 16.579926
_cell_angle_alpha 90.000000
_cell_angle_beta 90.000000
_cell_angle_gamma 90.000000
_cell_volume 1874.601629
_symmetry_space_group_name_H-M "I M M A"
_symmetry_group_IT_number 74
_symmetry_cell_setting 'orthorhombic'
loop_
_space_group_symop_operation_xyz
x,y,z
-x,1/2-y,z
x,-y,-z
-x,1/2+y,-z
-x,-y,-z
x,1/2+y,-z
-x,y,z
x,1/2-y,z
1/2+x,1/2+y,1/2+z
1/2-x,-y,1/2+z
1/2+x,1/2-y,1/2-z
1/2-x,y,1/2-z
1/2-x,1/2-y,1/2-z
1/2+x,y,1/2-z
1/2-x,1/2+y,1/2+z
1/2+x,-y,1/2+z
loop_
_atom_site_type_symbol
_atom_site_label
_atom_site_fract_x
_atom_site_fract_y
_atom_site_fract_z
Si Si1 0.760917 0.510021 0.403001
Si Si2 0.651023 0.250000 0.176812
Si Si3 0.500000 0.116666 0.937854
Si Si4 0.500000 0.596849 0.422160
O O1 0.749803 0.500000 0.500000
O O2 0.808270 0.375547 0.371344
O O3 0.626608 0.559647 0.375611
O O4 0.874837 0.604468 0.387169
O O5 0.500000 0.250000 0.193593
O O6 0.750000 0.250000 0.250000
O O7 0.500000 0.250000 0.983495
O O8 0.500000 0.000000 0.000000
O O9 0.500000 0.750000 0.442174
O O10 0.500000 0.500000 0.500000
#
# Coordination Sequence:
#
# PCOD9537165 Si02
#       4
#    16   8   8   8
#     4  10  23  37  69  99 142 178 248 294 355 404
#     4  12  28  48  72 108 149 196 240 297 368 451
#     4  10  20  32  60  97 137 171 227 299 359 405
#     4  10  22  36  60 103 149 183 229 295 367 419
#
# _framework density 21.337866999999999
#
# number of rings (size 3 to 8) (size 9 to 14) (size 15 to 20)
#    0.000    1.600    2.000    1.200   25.200    0.000 
#    0.000    0.000    0.000    7.200    0.000    0.000 
#    0.000    0.000    0.000    0.000    0.000    0.000 
#
# Total GULP energy -111351.564349 kJ/mol
# GULP energy per Si atom -5567.578217 kJ/mol
# Density = 2.128930 g / cm^3
# Si number density = 21.337867 Si / 1000 Ang^3
#
#
#
# Elastic Constant Matrix: (Units=GPa)
#
#
# Indices 1 2 3 4 5 6 
#
# 1 288.9588 72.0301 26.5175 0.0000 0.0000 0.0000
# 2 72.0301 208.1181 29.3966 0.0000 0.0000 0.0000
# 3 26.5175 29.3966 48.4597 0.0000 0.0000 0.0000
# 4 0.0000 0.0000 0.0000 13.9528 0.0000 0.0000
# 5 0.0000 0.0000 0.0000 0.0000 10.9662 0.0000
# 6 0.0000 0.0000 0.0000 0.0000 0.0000 31.6745
#
#
#
# Elastic Compliance Matrix: (Units=1/GPa)
#
#
# Indices 1 2 3 4 5 6 
#
# 1 0.003876 -0.001140 -0.001430 0.000000 0.000000 0.000000
# 2 -0.001140 0.005590 -0.002768 0.000000 0.000000 0.000000
# 3 -0.001430 -0.002768 0.023097 0.000000 0.000000 0.000000
# 4 0.000000 0.000000 0.000000 0.071670 0.000000 0.000000
# 5 0.000000 0.000000 0.000000 0.000000 0.091190 0.000000
# 6 0.000000 0.000000 0.000000 0.000000 0.000000 0.031571
#
#
# Mechanical properties :
#
#
# Convention : Reuss Voigt Hill
#
# Bulk Modulus (GPa) = 45.68403 89.04723 67.36563
# Shear Modulus (GPa) = 20.41114 39.15819 29.78466
#
# Velocity S-wave (km/s) = 3.09620 4.28851 3.74017
# Velocity P-wave (km/s) = 5.85135 8.14521 7.09164
#
# Compressibility (1/GPa) = 0.02188949
#
# Stress axis : x y z
#
# Youngs Moduli (GPa) = 258.00064 178.88179 43.29583
#
# Poissons Ratio (x) = 0.20384 0.06190
# Poissons Ratio (y) = 0.29400 0.11983
# Poissons Ratio (z) = 0.36886 0.49508
#
# Static dielectric constant tensor:
#      x y z
#    x 1.940940 0.000000 0.000000 
#    y 0.000000 1.820660 0.000000 
#    z 0.000000 0.000000 1.761490 
# 
# From -- ./inp_files/47636.got.cif
#   From: 2010.05.17/outbox.cif.g08.bks.cpg/sg74_24_cif.got.tgz:47636.got - 2010.06.03 17:57:02.
