data_PCOD9537957
_publ_section_title
;
Structure prediction by ZEFSAII (Michael W. Deem and Ramdas Pophale) SiO2 
 PCOD9537957
Probable space group: I M M A
;
_chemical_formula_sum "Si O2"
_cell_formula_units_Z 104
_cell_length_a 20.775736
_cell_length_b 9.005219
_cell_length_c 32.323818
_cell_angle_alpha 90.000000
_cell_angle_beta 90.000000
_cell_angle_gamma 90.000000
_cell_volume 6047.464809
_symmetry_space_group_name_H-M "I M M A"
_symmetry_group_IT_number 74
_symmetry_cell_setting 'orthorhombic'
loop_
_space_group_symop_operation_xyz
x,y,z
-x,1/2-y,z
x,-y,-z
-x,1/2+y,-z
-x,-y,-z
x,1/2+y,-z
-x,y,z
x,1/2-y,z
1/2+x,1/2+y,1/2+z
1/2-x,-y,1/2+z
1/2+x,1/2-y,1/2-z
1/2-x,y,1/2-z
1/2-x,1/2-y,1/2-z
1/2+x,y,1/2-z
1/2-x,1/2+y,1/2+z
1/2+x,-y,1/2+z
loop_
_atom_site_type_symbol
_atom_site_label
_atom_site_fract_x
_atom_site_fract_y
_atom_site_fract_z
Si Si1 0.828823 0.072275 0.834204
Si Si2 0.123017 0.924518 0.917995
Si Si3 0.739011 0.074486 0.043773
Si Si4 0.692945 0.573171 0.129061
Si Si5 0.073815 0.072402 0.228369
Si Si6 0.426936 0.927128 0.826834
Si Si7 0.000000 0.925256 0.044320
O O1 0.837063 0.250000 0.837482
O O2 0.752292 0.041212 0.839094
O O3 0.857465 0.987171 0.873592
O O4 0.869553 0.012057 0.795550
O O5 0.107651 0.750000 0.915851
O O6 0.184377 0.943155 0.948037
O O7 0.063034 0.017632 0.932946
O O8 0.724827 0.250000 0.042786
O O9 0.707235 0.001649 0.084558
O O10 0.721738 0.000000 0.000000
O O11 0.691039 0.750000 0.123373
O O12 0.627388 0.512637 0.148273
O O13 0.079705 0.250000 0.221250
O O14 0.079150 0.046496 0.277554
O O15 0.000000 0.030014 0.215807
O O16 0.500000 0.968227 0.838833
O O17 0.419590 0.750000 0.833198
O O18 0.000000 0.750000 0.040645
O O19 0.000000 0.000000 0.000000
#
# Coordination Sequence:
#
# PCOD9537957 Si02
#       7
#    16  16  16  16  16  16   8
#     4  10  21  35  51  76 109 143 181 226 273 319
#     4  10  21  36  53  73 100 138 180 224 272 320
#     4  10  20  35  57  81 106 138 176 218 265 318
#     4  10  21  36  55  81 112 143 178 220 267 322
#     4   9  19  35  54  76 105 144 187 229 271 322
#     4   9  19  37  59  82 108 140 179 221 269 324
#     4  12  24  36  50  70  98 134 178 226 276 326
#
# _framework density 17.197289999999999
#
# number of rings (size 3 to 8) (size 9 to 14) (size 15 to 20)
#    0.000    2.154    0.000    3.923    1.077    6.769 
#    0.000    4.615    0.000    0.462    0.000    0.000 
#    0.000    0.000    0.000    0.000    0.000    0.000 
#
# Total GULP energy -290130.745975 kJ/mol
# GULP energy per Si atom -5579.437423 kJ/mol
# Density = 1.715815 g / cm^3
# Si number density = 17.197290 Si / 1000 Ang^3
#
#
#
# Elastic Constant Matrix: (Units=GPa)
#
#
# Indices 1 2 3 4 5 6 
#
# 1 130.2488 83.2530 68.7547 0.0000 0.0000 0.0000
# 2 83.2530 103.0635 58.3787 0.0000 0.0000 0.0000
# 3 68.7547 58.3787 71.1744 0.0000 0.0000 0.0000
# 4 0.0000 0.0000 0.0000 33.8463 0.0000 0.0000
# 5 0.0000 0.0000 0.0000 0.0000 7.1993 0.0000
# 6 0.0000 0.0000 0.0000 0.0000 0.0000 29.1077
#
#
#
# Elastic Compliance Matrix: (Units=1/GPa)
#
#
# Indices 1 2 3 4 5 6 
#
# 1 0.019701 -0.009590 -0.011166 0.000000 0.000000 0.000000
# 2 -0.009590 0.022790 -0.009429 0.000000 0.000000 0.000000
# 3 -0.011166 -0.009429 0.032571 0.000000 0.000000 0.000000
# 4 0.000000 0.000000 0.000000 0.029545 0.000000 0.000000
# 5 0.000000 0.000000 0.000000 0.000000 0.138903 0.000000
# 6 0.000000 0.000000 0.000000 0.000000 0.000000 0.034355
#
#
# Mechanical properties :
#
#
# Convention : Reuss Voigt Hill
#
# Bulk Modulus (GPa) = 68.06357 80.58437 74.32397
# Shear Modulus (GPa) = 14.57162 20.30400 17.43781
#
# Velocity S-wave (km/s) = 2.91404 3.43979 3.18777
# Velocity P-wave (km/s) = 7.14046 7.92065 7.54065
#
# Compressibility (1/GPa) = 0.01469215
#
# Stress axis : x y z
#
# Youngs Moduli (GPa) = 50.75788 43.87832 30.70262
#
# Poissons Ratio (x) = 0.42078 0.34282
# Poissons Ratio (y) = 0.48675 0.28951
# Poissons Ratio (z) = 0.56676 0.41375
#
# Static dielectric constant tensor:
#      x y z
#    x 1.587380 0.000000 0.000000 
#    y 0.000000 1.569060 0.000000 
#    z 0.000000 0.000000 1.553570 
# 
# From -- ./inp_files/73411.got.cif
#   From: 2010.05.17/outbox.cif.g08.bks.cpg/sg74_37_cif.got.tgz:73411.got - 2010.06.03 17:57:02.
