data_PCOD9537973
_publ_section_title
;
Structure prediction by ZEFSAII (Michael W. Deem and Ramdas Pophale) SiO2 
 PCOD9537973
Probable space group: I M M A
;
_chemical_formula_sum "Si O2"
_cell_formula_units_Z 112
_cell_length_a 29.073715
_cell_length_b 14.702179
_cell_length_c 12.012474
_cell_angle_alpha 90.000000
_cell_angle_beta 90.000000
_cell_angle_gamma 90.000000
_cell_volume 5134.695519
_symmetry_space_group_name_H-M "I M M A"
_symmetry_group_IT_number 74
_symmetry_cell_setting 'orthorhombic'
loop_
_space_group_symop_operation_xyz
x,y,z
-x,1/2-y,z
x,-y,-z
-x,1/2+y,-z
-x,-y,-z
x,1/2+y,-z
-x,y,z
x,1/2-y,z
1/2+x,1/2+y,1/2+z
1/2-x,-y,1/2+z
1/2+x,1/2-y,1/2-z
1/2-x,y,1/2-z
1/2-x,1/2-y,1/2-z
1/2+x,y,1/2-z
1/2-x,1/2+y,1/2+z
1/2+x,-y,1/2+z
loop_
_atom_site_type_symbol
_atom_site_label
_atom_site_fract_x
_atom_site_fract_y
_atom_site_fract_z
Si Si1 0.216445 0.645545 0.654486
Si Si2 0.164980 0.857604 0.230646
Si Si3 0.845690 0.643180 0.471604
Si Si4 0.449830 0.608724 0.003384
Si Si5 0.380262 0.476921 0.383653
Si Si6 0.197367 0.851547 0.994814
Si Si7 0.050514 0.646204 0.756351
O O1 0.205626 0.750000 0.694728
O O2 0.250000 0.604077 0.750000
O O3 0.171898 0.603608 0.591060
O O4 0.252085 0.648522 0.553276
O O5 0.151392 0.750000 0.235082
O O6 0.178235 0.884932 0.355832
O O7 0.128541 0.930827 0.184453
O O8 0.200147 0.865278 0.127490
O O9 0.836631 0.750000 0.486366
O O10 0.900175 0.633379 0.447771
O O11 0.500000 0.638222 0.050892
O O12 0.447682 0.643880 0.877088
O O13 0.450725 0.500000 0.000000
O O14 0.404851 0.500000 0.500000
O O15 0.334546 0.422753 0.427618
O O16 0.409261 0.411121 0.308044
O O17 0.177280 0.750000 0.977348
O O18 0.054158 0.750000 0.793337
O O19 0.000000 0.610092 0.787958
#
# Coordination Sequence:
#
# PCOD9537973 Si02
#       7
#    16  16  16  16  16  16  16
#     4   9  19  34  54  85 119 154 196 242 301 365
#     4   9  19  36  57  82 113 155 206 247 294 365
#     4  10  20  35  57  83 115 154 197 244 293 356
#     4  10  21  37  57  85 120 156 196 245 304 361
#     4  10  20  35  59  82 114 151 198 249 309 361
#     4   9  18  34  58  84 115 153 194 245 300 362
#     4  10  21  36  57  87 119 155 201 250 307 374
#
# _framework density 21.812394000000001
#
# number of rings (size 3 to 8) (size 9 to 14) (size 15 to 20)
#    0.000    2.429    0.000    1.714    2.000    2.286 
#    0.000    5.000    0.000    2.143    0.000    2.000 
#    0.000    0.000    0.000    0.000    0.000    0.000 
#
# Total GULP energy -311824.593044 kJ/mol
# GULP energy per Si atom -5568.296304 kJ/mol
# Density = 2.176275 g / cm^3
# Si number density = 21.812394 Si / 1000 Ang^3
#
#
#
# Elastic Constant Matrix: (Units=GPa)
#
#
# Indices 1 2 3 4 5 6 
#
# 1 76.4571 9.7877 36.8467 0.0000 0.0000 0.0000
# 2 9.7877 73.2257 15.5350 0.0000 0.0000 0.0000
# 3 36.8467 15.5350 96.8766 0.0000 0.0000 0.0000
# 4 0.0000 0.0000 0.0000 27.4536 0.0000 0.0000
# 5 0.0000 0.0000 0.0000 0.0000 13.7721 0.0000
# 6 0.0000 0.0000 0.0000 0.0000 0.0000 13.3484
#
#
#
# Elastic Compliance Matrix: (Units=1/GPa)
#
#
# Indices 1 2 3 4 5 6 
#
# 1 0.016069 -0.000881 -0.005971 0.000000 0.000000 0.000000
# 2 -0.000881 0.014186 -0.001940 0.000000 0.000000 0.000000
# 3 -0.005971 -0.001940 0.012904 0.000000 0.000000 0.000000
# 4 0.000000 0.000000 0.000000 0.036425 0.000000 0.000000
# 5 0.000000 0.000000 0.000000 0.000000 0.072611 0.000000
# 6 0.000000 0.000000 0.000000 0.000000 0.000000 0.074915
#
#
# Mechanical properties :
#
#
# Convention : Reuss Voigt Hill
#
# Bulk Modulus (GPa) = 39.09841 41.21091 40.15466
# Shear Modulus (GPa) = 19.74573 23.20748 21.47660
#
# Velocity S-wave (km/s) = 3.01201 3.26538 3.14125
# Velocity P-wave (km/s) = 5.48270 5.75771 5.62189
#
# Compressibility (1/GPa) = 0.02557649
#
# Stress axis : x y z
#
# Youngs Moduli (GPa) = 62.22991 70.49356 77.49317
#
# Poissons Ratio (x) = 0.06212 0.46268
# Poissons Ratio (y) = 0.05484 0.15031
# Poissons Ratio (z) = 0.37155 0.13673
#
# Static dielectric constant tensor:
#      x y z
#    x 1.869280 0.000000 0.000000 
#    y 0.000000 1.824310 0.000000 
#    z 0.000000 0.000000 1.843420 
# 
# From -- ./inp_files/27253.got.cif
#   From: 2010.05.17/outbox.cif.g08.bks.cpg/sg74_14_cif.got.tgz:27253.got - 2010.06.03 17:57:02.
