data_PCOD9537930
_publ_section_title
;
Structure prediction by ZEFSAII (Michael W. Deem and Ramdas Pophale) SiO2 
 PCOD9537930
Probable space group: I M M A
;
_chemical_formula_sum "Si O2"
_cell_formula_units_Z 96
_cell_length_a 15.958937
_cell_length_b 20.963342
_cell_length_c 15.837301
_cell_angle_alpha 90.000000
_cell_angle_beta 90.000000
_cell_angle_gamma 90.000000
_cell_volume 5298.411086
_symmetry_space_group_name_H-M "I M M A"
_symmetry_group_IT_number 74
_symmetry_cell_setting 'orthorhombic'
loop_
_space_group_symop_operation_xyz
x,y,z
-x,1/2-y,z
x,-y,-z
-x,1/2+y,-z
-x,-y,-z
x,1/2+y,-z
-x,y,z
x,1/2-y,z
1/2+x,1/2+y,1/2+z
1/2-x,-y,1/2+z
1/2+x,1/2-y,1/2-z
1/2-x,y,1/2-z
1/2-x,1/2-y,1/2-z
1/2+x,y,1/2-z
1/2-x,1/2+y,1/2+z
1/2+x,-y,1/2+z
loop_
_atom_site_type_symbol
_atom_site_label
_atom_site_fract_x
_atom_site_fract_y
_atom_site_fract_z
Si Si1 0.756284 0.423416 0.003565
Si Si2 0.899590 0.250000 0.089974
Si Si3 0.149046 0.498387 0.753094
Si Si4 0.591905 0.947549 0.074166
Si Si5 0.901787 0.611734 0.118495
Si Si6 0.187826 0.629721 0.824534
Si Si7 0.399406 0.250000 0.607641
O O1 0.756688 0.399127 0.098919
O O2 0.760536 0.500000 0.000000
O O3 0.672401 0.405326 0.951827
O O4 0.841098 0.400066 0.960091
O O5 0.864878 0.187582 0.137455
O O6 0.000000 0.250000 0.090814
O O7 0.871865 0.250000 0.991068
O O8 0.250000 0.492007 0.750000
O O9 0.112147 0.483672 0.661278
O O10 0.114501 0.444381 0.815461
O O11 0.134468 0.569692 0.788515
O O12 0.500000 0.916322 0.080433
O O13 0.586997 0.000000 0.000000
O O14 0.877126 0.682740 0.150015
O O15 0.000000 0.611598 0.095026
O O16 0.250000 0.650882 0.750000
O O17 0.500000 0.250000 0.605365
#
# Coordination Sequence:
#
# PCOD9537930 Si02
#       7
#    16   8  16  16  16  16   8
#     4  11  19  36  56  82 116 147 190 246 288 348
#     4  11  23  37  55  80 118 158 199 242 289 360
#     4  11  20  37  59  88 119 146 191 250 290 347
#     4  10  20  35  56  82 115 154 191 237 297 349
#     4  11  21  35  58  85 116 152 188 234 296 354
#     4  11  22  37  58  83 115 155 196 240 295 349
#     4   9  20  37  54  82 117 154 192 227 287 361
#
# _framework density 18.118639000000002
#
# number of rings (size 3 to 8) (size 9 to 14) (size 15 to 20)
#    0.000    1.333    5.000    3.750    0.000    1.667 
#    0.000    1.250    0.000    0.000    0.000    4.083 
#    0.000    4.000    0.000    0.000    0.000    0.000 
#
# Total GULP energy -267628.094312 kJ/mol
# GULP energy per Si atom -5575.585298 kJ/mol
# Density = 1.807740 g / cm^3
# Si number density = 18.118639 Si / 1000 Ang^3
#
#
#
# Elastic Constant Matrix: (Units=GPa)
#
#
# Indices 1 2 3 4 5 6 
#
# 1 96.9557 28.4078 17.0939 0.0000 0.0000 0.0000
# 2 28.4078 89.4892 19.9134 0.0000 0.0000 0.0000
# 3 17.0939 19.9134 88.7886 0.0000 0.0000 0.0000
# 4 0.0000 0.0000 0.0000 16.9523 0.0000 0.0000
# 5 0.0000 0.0000 0.0000 0.0000 17.8829 0.0000
# 6 0.0000 0.0000 0.0000 0.0000 0.0000 13.0845
#
#
#
# Elastic Compliance Matrix: (Units=1/GPa)
#
#
# Indices 1 2 3 4 5 6 
#
# 1 0.011552 -0.003339 -0.001475 0.000000 0.000000 0.000000
# 2 -0.003339 0.012727 -0.002211 0.000000 0.000000 0.000000
# 3 -0.001475 -0.002211 0.012043 0.000000 0.000000 0.000000
# 4 0.000000 0.000000 0.000000 0.058989 0.000000 0.000000
# 5 0.000000 0.000000 0.000000 0.000000 0.055919 0.000000
# 6 0.000000 0.000000 0.000000 0.000000 0.000000 0.076426
#
#
# Mechanical properties :
#
#
# Convention : Reuss Voigt Hill
#
# Bulk Modulus (GPa) = 44.90283 45.11819 45.01051
# Shear Modulus (GPa) = 20.06977 23.57184 21.82080
#
# Velocity S-wave (km/s) = 3.33180 3.61081 3.47411
# Velocity P-wave (km/s) = 6.29585 6.50688 6.40224
#
# Compressibility (1/GPa) = 0.02227031
#
# Stress axis : x y z
#
# Youngs Moduli (GPa) = 86.56212 78.57572 83.03775
#
# Poissons Ratio (x) = 0.26236 0.12250
# Poissons Ratio (y) = 0.28903 0.18364
# Poissons Ratio (z) = 0.12770 0.17377
#
# Static dielectric constant tensor:
#      x y z
#    x 1.657620 0.000000 0.000000 
#    y 0.000000 1.644230 0.000000 
#    z 0.000000 0.000000 1.629040 
# 
# From -- ./inp_files/32458.got.cif
#   From: 2010.05.17/outbox.cif.g08.bks.cpg/sg74_17_cif.got.tgz:32458.got - 2010.06.03 17:57:02.
