data_PCOD9537944
_publ_section_title
;
Structure prediction by ZEFSAII (Michael W. Deem and Ramdas Pophale) SiO2 
 PCOD9537944
Probable space group: I M M A
;
_chemical_formula_sum "Si O2"
_cell_formula_units_Z 64
_cell_length_a 8.456214
_cell_length_b 28.556754
_cell_length_c 11.618116
_cell_angle_alpha 90.000000
_cell_angle_beta 90.000000
_cell_angle_gamma 90.000000
_cell_volume 2805.566155
_symmetry_space_group_name_H-M "I M M A"
_symmetry_group_IT_number 74
_symmetry_cell_setting 'orthorhombic'
loop_
_space_group_symop_operation_xyz
x,y,z
-x,1/2-y,z
x,-y,-z
-x,1/2+y,-z
-x,-y,-z
x,1/2+y,-z
-x,y,z
x,1/2-y,z
1/2+x,1/2+y,1/2+z
1/2-x,-y,1/2+z
1/2+x,1/2-y,1/2-z
1/2-x,y,1/2-z
1/2-x,1/2-y,1/2-z
1/2+x,y,1/2-z
1/2-x,1/2+y,1/2+z
1/2+x,-y,1/2+z
loop_
_atom_site_type_symbol
_atom_site_label
_atom_site_fract_x
_atom_site_fract_y
_atom_site_fract_z
Si Si1 0.182450 0.142608 0.375255
Si Si2 0.820717 0.101355 0.911305
Si Si3 0.818893 0.007715 0.628678
Si Si4 0.684747 0.198170 0.908186
O O1 0.250000 0.148722 0.250000
O O2 0.284079 0.106603 0.452009
O O3 0.188110 0.189479 0.453395
O O4 0.000000 0.127340 0.372677
O O5 0.697307 0.064106 0.863821
O O6 0.787487 0.154072 0.868167
O O7 0.000000 0.086702 0.889797
O O8 0.750000 0.989036 0.750000
O O9 0.000000 0.992468 0.622960
O O10 0.745603 0.000000 0.500000
O O11 0.500000 0.193404 0.874467
O O12 0.741765 0.250000 0.879690
#
# Coordination Sequence:
#
# PCOD9537944 Si02
#       4
#    16  16  16  16
#     4   9  17  29  46  73 110 156 209 262 318 375
#     4  10  20  35  56  84 119 161 205 254 314 380
#     4  11  25  46  72 101 133 170 215 270 328 392
#     4   8  16  31  50  75 114 162 212 265 318 376
#
# _framework density 22.811793000000002
#
# number of rings (size 3 to 8) (size 9 to 14) (size 15 to 20)
#    1.500    1.000    0.000    3.000    0.000    4.000 
#    0.000    2.500    0.000    0.750    0.000    0.000 
#    0.000    0.000    0.000    0.000    0.000    0.000 
#
# Total GULP energy -178231.311528 kJ/mol
# GULP energy per Si atom -5569.728485 kJ/mol
# Density = 2.275987 g / cm^3
# Si number density = 22.811793 Si / 1000 Ang^3
#
#
#
# Elastic Constant Matrix: (Units=GPa)
#
#
# Indices 1 2 3 4 5 6 
#
# 1 62.0826 -6.2850 27.1380 0.0002 0.0003 -0.0001
# 2 -6.2850 67.8557 0.8595 -0.0001 0.0000 0.0000
# 3 27.1380 0.8595 183.6053 -0.0010 -0.0009 0.0001
# 4 0.0002 -0.0001 -0.0010 -8.6458 -0.0002 0.0001
# 5 0.0003 0.0000 -0.0009 -0.0002 27.2966 -0.0001
# 6 -0.0001 0.0000 0.0001 0.0001 -0.0001 3.6521
#
#
#
# Elastic Compliance Matrix: (Units=1/GPa)
#
#
# Indices 1 2 3 4 5 6 
#
# 1 0.017402 0.001644 -0.002580 0.000001 0.000000 0.000000
# 2 0.001644 0.014893 -0.000313 0.000000 0.000000 0.000000
# 3 -0.002580 -0.000313 0.005829 -0.000001 0.000000 0.000000
# 4 0.000001 0.000000 -0.000001 -0.115663 -0.000001 0.000002
# 5 0.000000 0.000000 0.000000 -0.000001 0.036635 0.000001
# 6 0.000000 0.000000 0.000000 0.000002 0.000001 0.273814
#
#
# Mechanical properties :
#
#
# Convention : Reuss Voigt Hill
#
# Bulk Modulus (GPa) = 28.06763 39.66318 33.86541
# Shear Modulus (GPa) = 20.21978 23.91598 22.06788
#
# Velocity S-wave (km/s) = 2.98043 3.24142 3.11366
# Velocity P-wave (km/s) = 4.91678 5.60660 5.27298
#
# Compressibility (1/GPa) = 0.03562823
#
# Stress axis : x y z
#
# Youngs Moduli (GPa) = 57.46549 67.14371 171.54896
#
# Poissons Ratio (x) = -0.11042 0.44256
# Poissons Ratio (y) = -0.09450 0.05366
# Poissons Ratio (z) = 0.14825 0.02100
#
# Static dielectric constant tensor:
#      x y z
#    x 1.819530 0.000000 0.000000 
#    y 0.000000 1.875990 0.000000 
#    z 0.000000 0.000000 1.943670 
# 
# From -- ./inp_files/17571.got.cif
#   From: 2010.05.17/outbox.cif.g08.bks.cpg/sg74_9_cif.got.tgz:17571.got - 2010.06.03 17:57:02.
