data_PCOD9537950
_publ_section_title
;
Structure prediction by ZEFSAII (Michael W. Deem and Ramdas Pophale) SiO2 
 PCOD9537950
Probable space group: I M M A
;
_chemical_formula_sum "Si O2"
_cell_formula_units_Z 128
_cell_length_a 18.193648
_cell_length_b 17.285258
_cell_length_c 22.085083
_cell_angle_alpha 90.000000
_cell_angle_beta 90.000000
_cell_angle_gamma 90.000000
_cell_volume 6945.358856
_symmetry_space_group_name_H-M "I M M A"
_symmetry_group_IT_number 74
_symmetry_cell_setting 'orthorhombic'
loop_
_space_group_symop_operation_xyz
x,y,z
-x,1/2-y,z
x,-y,-z
-x,1/2+y,-z
-x,-y,-z
x,1/2+y,-z
-x,y,z
x,1/2-y,z
1/2+x,1/2+y,1/2+z
1/2-x,-y,1/2+z
1/2+x,1/2-y,1/2-z
1/2-x,y,1/2-z
1/2-x,1/2-y,1/2-z
1/2+x,y,1/2-z
1/2-x,1/2+y,1/2+z
1/2+x,-y,1/2+z
loop_
_atom_site_type_symbol
_atom_site_label
_atom_site_fract_x
_atom_site_fract_y
_atom_site_fract_z
Si Si1 0.413581 0.550291 0.388485
Si Si2 0.353073 0.834388 0.074353
Si Si3 0.413972 0.418386 0.031782
Si Si4 0.180892 0.839905 0.795089
Si Si5 0.848942 0.494438 0.631323
Si Si6 0.810221 0.661983 0.040614
Si Si7 0.796931 0.927589 0.915869
Si Si8 0.086700 0.982504 0.758571
O O1 0.500000 0.550629 0.400906
O O2 0.372952 0.622338 0.419241
O O3 0.372514 0.475126 0.414955
O O4 0.403292 0.539531 0.316014
O O5 0.381578 0.750000 0.092873
O O6 0.265223 0.834311 0.078350
O O7 0.378404 0.910708 0.109685
O O8 0.373718 0.850932 0.004241
O O9 0.500000 0.407915 0.023440
O O10 0.394705 0.435173 0.100998
O O11 0.391807 0.500000 0.000000
O O12 0.161182 0.750000 0.791116
O O13 0.250000 0.853717 0.750000
O O14 0.203617 0.863471 0.863201
O O15 0.114789 0.897720 0.778485
O O16 0.767885 0.512867 0.604362
O O17 0.861134 0.496090 0.702555
O O18 0.829318 0.750000 0.022778
O O19 0.791424 0.610472 0.981562
O O20 0.000000 0.982643 0.742461
#
# Coordination Sequence:
#
# PCOD9537950 Si02
#       8
#    16  16  16  16  16  16  16  16
#     4  10  23  40  60  85 115 153 201 251 302 360
#     4  10  21  35  54  83 118 155 196 242 293 348
#     4   9  18  32  53  80 112 151 189 231 285 350
#     4  10  20  35  56  85 119 154 194 241 295 357
#     4  11  19  35  61  86 116 154 199 243 295 359
#     4  11  22  37  58  86 120 154 193 244 302 354
#     4  11  20  35  61  87 115 154 194 242 295 361
#     4  10  22  40  61  87 117 156 205 251 294 356
#
# _framework density 18.429573000000001
#
# number of rings (size 3 to 8) (size 9 to 14) (size 15 to 20)
#    0.000    1.750    3.750    1.125    0.000    2.250 
#    0.000    1.250    0.000    6.000    0.000    0.000 
#    0.000    0.000    0.000    0.000    0.000    0.000 
#
# Total GULP energy -356677.561558 kJ/mol
# GULP energy per Si atom -5573.086899 kJ/mol
# Density = 1.838763 g / cm^3
# Si number density = 18.429573 Si / 1000 Ang^3
#
#
#
# Elastic Constant Matrix: (Units=GPa)
#
#
# Indices 1 2 3 4 5 6 
#
# 1 63.4044 18.2283 14.2419 0.0000 0.0000 0.0000
# 2 18.2283 89.5980 27.3693 0.0000 0.0000 0.0000
# 3 14.2419 27.3693 60.0035 0.0000 0.0000 0.0000
# 4 0.0000 0.0000 0.0000 18.6319 0.0000 0.0000
# 5 0.0000 0.0000 0.0000 0.0000 23.0579 0.0000
# 6 0.0000 0.0000 0.0000 0.0000 0.0000 12.9213
#
#
#
# Elastic Compliance Matrix: (Units=1/GPa)
#
#
# Indices 1 2 3 4 5 6 
#
# 1 0.017171 -0.002612 -0.002884 0.000000 0.000000 0.000000
# 2 -0.002612 0.013365 -0.005476 0.000000 0.000000 0.000000
# 3 -0.002884 -0.005476 0.019848 0.000000 0.000000 0.000000
# 4 0.000000 0.000000 0.000000 0.053672 0.000000 0.000000
# 5 0.000000 0.000000 0.000000 0.000000 0.043369 0.000000
# 6 0.000000 0.000000 0.000000 0.000000 0.000000 0.077392
#
#
# Mechanical properties :
#
#
# Convention : Reuss Voigt Hill
#
# Bulk Modulus (GPa) = 35.16303 36.96498 36.06401
# Shear Modulus (GPa) = 19.51290 21.13330 20.32310
#
# Velocity S-wave (km/s) = 3.25742 3.38998 3.32436
# Velocity P-wave (km/s) = 5.76791 5.95177 5.86056
#
# Compressibility (1/GPa) = 0.02843896
#
# Stress axis : x y z
#
# Youngs Moduli (GPa) = 58.23915 74.82095 50.38283
#
# Poissons Ratio (x) = 0.19546 0.14530
# Poissons Ratio (y) = 0.15214 0.27591
# Poissons Ratio (z) = 0.16796 0.40974
#
# Static dielectric constant tensor:
#      x y z
#    x 1.649040 0.000000 0.000000 
#    y 0.000000 1.635560 0.000000 
#    z 0.000000 0.000000 1.680630 
# 
# From -- ./inp_files/61152.got.cif
#   From: 2010.05.17/outbox.cif.g08.bks.cpg/sg74_31_cif.got.tgz:61152.got - 2010.06.03 17:57:02.
