data_PCOD9537827
_publ_section_title
;
Structure prediction by ZEFSAII (Michael W. Deem and Ramdas Pophale) SiO2 
 PCOD9537827
Probable space group: I M M A
;
_chemical_formula_sum "Si O2"
_cell_formula_units_Z 116
_cell_length_a 27.510527
_cell_length_b 8.117121
_cell_length_c 28.989162
_cell_angle_alpha 90.000000
_cell_angle_beta 90.000000
_cell_angle_gamma 90.000000
_cell_volume 6473.461823
_symmetry_space_group_name_H-M "I M M A"
_symmetry_group_IT_number 74
_symmetry_cell_setting 'orthorhombic'
loop_
_space_group_symop_operation_xyz
x,y,z
-x,1/2-y,z
x,-y,-z
-x,1/2+y,-z
-x,-y,-z
x,1/2+y,-z
-x,y,z
x,1/2-y,z
1/2+x,1/2+y,1/2+z
1/2-x,-y,1/2+z
1/2+x,1/2-y,1/2-z
1/2-x,y,1/2-z
1/2-x,1/2-y,1/2-z
1/2+x,y,1/2-z
1/2-x,1/2+y,1/2+z
1/2+x,-y,1/2+z
loop_
_atom_site_type_symbol
_atom_site_label
_atom_site_fract_x
_atom_site_fract_y
_atom_site_fract_z
Si Si1 0.835406 0.062200 0.647346
Si Si2 0.555074 0.053802 0.303947
Si Si3 0.500000 0.750000 0.173167
Si Si4 0.350766 0.944846 0.354520
Si Si5 0.241955 0.055766 0.198167
Si Si6 0.428174 0.942535 0.804534
Si Si7 0.695406 0.447414 0.550341
Si Si8 0.807397 0.443622 0.448855
O O1 0.846851 0.250000 0.657558
O O2 0.958398 0.097986 0.675035
O O3 0.874223 0.953488 0.674644
O O4 0.835349 0.030769 0.592685
O O5 0.500000 0.989850 0.309835
O O6 0.554341 0.250000 0.311225
O O7 0.570097 0.027874 0.250629
O O8 0.595001 0.980229 0.337850
O O9 0.342078 0.750000 0.352590
O O10 0.337411 0.000311 0.406419
O O11 0.312219 0.026403 0.319879
O O12 0.251983 0.250000 0.197906
O O13 0.250000 0.992816 0.250000
O O14 0.280964 0.973872 0.164593
O O15 0.445000 0.750000 0.811592
O O16 0.676834 0.500000 0.500000
O O17 0.699849 0.250000 0.550720
O O18 0.749778 0.518663 0.555603
O O19 0.821992 0.500000 0.500000
O O20 0.814561 0.250000 0.444171
#
# Coordination Sequence:
#
# PCOD9537827 Si02
#       8
#    16  16   4  16  16  16  16  16
#     4  12  23  37  57  86 121 156 197 240 295 355
#     4  10  22  39  59  82 114 150 196 249 297 349
#     4  12  22  40  64  90 116 164 202 252 306 338
#     4  11  23  35  55  83 112 149 194 240 290 354
#     4  11  23  37  52  76 115 159 195 231 283 354
#     4  11  23  40  61  90 122 155 203 251 297 355
#     4  10  20  35  54  81 111 148 191 236 285 350
#     4  11  21  35  57  83 116 155 191 239 292 348
#
# _framework density 17.919314
#
# number of rings (size 3 to 8) (size 9 to 14) (size 15 to 20)
#    0.000    1.103    2.759    5.586    0.966    6.345 
#    0.000    0.000    0.000    0.414    0.000    0.483 
#    0.000    0.000    0.000    0.000    0.000    0.000 
#
# Total GULP energy -323311.164656 kJ/mol
# GULP energy per Si atom -5574.330425 kJ/mol
# Density = 1.787853 g / cm^3
# Si number density = 17.919314 Si / 1000 Ang^3
#
#
#
# Elastic Constant Matrix: (Units=GPa)
#
#
# Indices 1 2 3 4 5 6 
#
# 1 67.7494 4.5409 28.7910 0.0000 0.0000 0.0000
# 2 4.5409 70.8033 5.4087 0.0000 0.0000 0.0000
# 3 28.7910 5.4087 84.0555 0.0000 0.0000 0.0000
# 4 0.0000 0.0000 0.0000 23.9388 0.0000 0.0000
# 5 0.0000 0.0000 0.0000 0.0000 4.2477 0.0000
# 6 0.0000 0.0000 0.0000 0.0000 0.0000 25.6856
#
#
#
# Elastic Compliance Matrix: (Units=1/GPa)
#
#
# Indices 1 2 3 4 5 6 
#
# 1 0.017305 -0.000660 -0.005885 0.000000 0.000000 0.000000
# 2 -0.000660 0.014219 -0.000689 0.000000 0.000000 0.000000
# 3 -0.005885 -0.000689 0.013957 0.000000 0.000000 0.000000
# 4 0.000000 0.000000 0.000000 0.041773 0.000000 0.000000
# 5 0.000000 0.000000 0.000000 0.000000 0.235419 0.000000
# 6 0.000000 0.000000 0.000000 0.000000 0.000000 0.038932
#
#
# Mechanical properties :
#
#
# Convention : Reuss Voigt Hill
#
# Bulk Modulus (GPa) = 32.24469 33.34325 32.79397
# Shear Modulus (GPa) = 12.93957 23.03226 17.98591
#
# Velocity S-wave (km/s) = 2.69011 3.58904 3.17159
# Velocity P-wave (km/s) = 5.26140 5.98521 5.63494
#
# Compressibility (1/GPa) = 0.03101286
#
# Stress axis : x y z
#
# Youngs Moduli (GPa) = 57.78522 70.33043 71.64872
#
# Poissons Ratio (x) = 0.04644 0.42166
# Poissons Ratio (y) = 0.03816 0.04935
# Poissons Ratio (z) = 0.34007 0.04844
#
# Static dielectric constant tensor:
#      x y z
#    x 1.632410 0.000000 0.000000 
#    y 0.000000 1.633590 0.000000 
#    z 0.000000 0.000000 1.625670 
# 
# From -- ./inp_files/73731.got.cif
#   From: 2010.05.17/outbox.cif.g08.bks.cpg/sg74_37_cif.got.tgz:73731.got - 2010.06.03 17:57:02.
