data_PCOD9537607
_publ_section_title
;
Structure prediction by ZEFSAII (Michael W. Deem and Ramdas Pophale) SiO2 
 PCOD9537607
Probable space group: I M M A
;
_chemical_formula_sum "Si O2"
_cell_formula_units_Z 116
_cell_length_a 25.625041
_cell_length_b 27.685104
_cell_length_c 9.657467
_cell_angle_alpha 90.000000
_cell_angle_beta 90.000000
_cell_angle_gamma 90.000000
_cell_volume 6851.315405
_symmetry_space_group_name_H-M "I M M A"
_symmetry_group_IT_number 74
_symmetry_cell_setting 'orthorhombic'
loop_
_space_group_symop_operation_xyz
x,y,z
-x,1/2-y,z
x,-y,-z
-x,1/2+y,-z
-x,-y,-z
x,1/2+y,-z
-x,y,z
x,1/2-y,z
1/2+x,1/2+y,1/2+z
1/2-x,-y,1/2+z
1/2+x,1/2-y,1/2-z
1/2-x,y,1/2-z
1/2-x,1/2-y,1/2-z
1/2+x,y,1/2-z
1/2-x,1/2+y,1/2+z
1/2+x,-y,1/2+z
loop_
_atom_site_type_symbol
_atom_site_label
_atom_site_fract_x
_atom_site_fract_y
_atom_site_fract_z
Si Si1 0.905563 0.802525 0.382968
Si Si2 0.806122 0.193445 0.811416
Si Si3 0.832678 0.607806 0.005601
Si Si4 0.363809 0.435930 0.223273
Si Si5 0.500000 0.750000 0.238783
Si Si6 0.721271 0.942955 0.012311
Si Si7 0.061773 0.904524 0.490876
Si Si8 0.634917 0.949985 0.236831
O O1 0.901616 0.750000 0.458713
O O2 0.851509 0.811441 0.303697
O O3 0.920285 0.848880 0.471855
O O4 0.953349 0.791472 0.277454
O O5 0.801676 0.250000 0.846102
O O6 0.750000 0.177613 0.750000
O O7 0.824240 0.162008 0.941598
O O8 0.775207 0.584398 0.007857
O O9 0.865751 0.579837 0.122529
O O10 0.856705 0.597522 0.856210
O O11 0.363922 0.492672 0.262310
O O12 0.315775 0.428926 0.116167
O O13 0.414782 0.424320 0.133710
O O14 0.687598 0.936227 0.151799
O O15 0.731773 0.000000 0.000000
O O16 0.088734 0.934881 0.367026
O O17 0.000000 0.907952 0.485245
#
# Coordination Sequence:
#
# PCOD9537607 Si02
#       8
#    16  16  16  16   4  16  16  16
#     4   9  17  34  58  86 103 130 188 243 272 314
#     4  10  21  35  56  86 118 145 179 228 283 336
#     4  12  20  33  55  79 113 149 178 221 279 328
#     4  10  23  34  49  79 116 146 183 224 271 335
#     4   8  16  32  62  88 100 124 188 262 274 284
#     4   9  18  33  52  76 106 146 190 225 260 314
#     4  11  20  37  59  79 104 143 188 234 288 333
#     4  10  20  34  54  81 103 143 194 232 267 317
#
# _framework density 16.931055000000001
#
# number of rings (size 3 to 8) (size 9 to 14) (size 15 to 20)
#    0.414    1.517    2.069    4.138    1.931    3.310 
#    0.000    1.379    1.517    3.310    0.000    0.000 
#    0.000    0.000    0.000    0.000    0.000    0.000 
#
# Total GULP energy -322878.161569 kJ/mol
# GULP energy per Si atom -5566.864855 kJ/mol
# Density = 1.689252 g / cm^3
# Si number density = 16.931055 Si / 1000 Ang^3
#
#
#
# Elastic Constant Matrix: (Units=GPa)
#
#
# Indices 1 2 3 4 5 6 
#
# 1 97.5928 15.6143 13.0182 0.0000 0.0000 0.0000
# 2 15.6143 46.6144 27.2572 0.0000 0.0000 0.0000
# 3 13.0182 27.2572 65.7055 0.0000 0.0000 0.0000
# 4 0.0000 0.0000 0.0000 9.8974 0.0000 0.0000
# 5 0.0000 0.0000 0.0000 0.0000 3.4689 0.0000
# 6 0.0000 0.0000 0.0000 0.0000 0.0000 18.2101
#
#
#
# Elastic Compliance Matrix: (Units=1/GPa)
#
#
# Indices 1 2 3 4 5 6 
#
# 1 0.010863 -0.003142 -0.000849 0.000000 0.000000 0.000000
# 2 -0.003142 0.029232 -0.011504 0.000000 0.000000 0.000000
# 3 -0.000849 -0.011504 0.020160 0.000000 0.000000 0.000000
# 4 0.000000 0.000000 0.000000 0.101037 0.000000 0.000000
# 5 0.000000 0.000000 0.000000 0.000000 0.288272 0.000000
# 6 0.000000 0.000000 0.000000 0.000000 0.000000 0.054915
#
#
# Mechanical properties :
#
#
# Convention : Reuss Voigt Hill
#
# Bulk Modulus (GPa) = 34.17107 35.74356 34.95732
# Shear Modulus (GPa) = 9.17055 16.58348 12.87702
#
# Velocity S-wave (km/s) = 2.32984 3.13305 2.76081
# Velocity P-wave (km/s) = 5.24060 5.85193 5.55468
#
# Compressibility (1/GPa) = 0.02926452
#
# Stress axis : x y z
#
# Youngs Moduli (GPa) = 92.05877 34.20905 49.60356
#
# Poissons Ratio (x) = 0.10750 0.04209
# Poissons Ratio (y) = 0.28929 0.57064
# Poissons Ratio (z) = 0.07812 0.39354
#
# Static dielectric constant tensor:
#      x y z
#    x 1.565010 0.000000 0.000000 
#    y 0.000000 1.604620 0.000000 
#    z 0.000000 0.000000 1.559460 
# 
# From -- ./inp_files/14300.got.cif
#   From: 2010.05.17/outbox.cif.g08.bks.cpg/sg74_8_cif.got.tgz:14300.got - 2010.06.03 17:57:02.
