data_PCOD9537638
_publ_section_title
;
Structure prediction by ZEFSAII (Michael W. Deem and Ramdas Pophale) SiO2 
 PCOD9537638
Probable space group: I M M A
;
_chemical_formula_sum "Si O2"
_cell_formula_units_Z 80
_cell_length_a 19.852348
_cell_length_b 15.087473
_cell_length_c 14.003303
_cell_angle_alpha 90.000000
_cell_angle_beta 90.000000
_cell_angle_gamma 90.000000
_cell_volume 4194.294023
_symmetry_space_group_name_H-M "I M M A"
_symmetry_group_IT_number 74
_symmetry_cell_setting 'orthorhombic'
loop_
_space_group_symop_operation_xyz
x,y,z
-x,1/2-y,z
x,-y,-z
-x,1/2+y,-z
-x,-y,-z
x,1/2+y,-z
-x,y,z
x,1/2-y,z
1/2+x,1/2+y,1/2+z
1/2-x,-y,1/2+z
1/2+x,1/2-y,1/2-z
1/2-x,y,1/2-z
1/2-x,1/2-y,1/2-z
1/2+x,y,1/2-z
1/2-x,1/2+y,1/2+z
1/2+x,-y,1/2+z
loop_
_atom_site_type_symbol
_atom_site_label
_atom_site_fract_x
_atom_site_fract_y
_atom_site_fract_z
Si Si1 0.422151 0.352738 0.765610
Si Si2 0.197892 0.345190 0.336207
Si Si3 0.777098 0.347282 0.962674
Si Si4 0.924848 0.904776 0.050636
Si Si5 0.668348 0.970944 0.106685
O O1 0.500000 0.355436 0.795663
O O2 0.404277 0.250000 0.746685
O O3 0.417224 0.405099 0.665548
O O4 0.376353 0.395501 0.846127
O O5 0.160401 0.250000 0.334973
O O6 0.250000 0.343607 0.250000
O O7 0.238333 0.349029 0.436313
O O8 0.161533 0.439422 0.332301
O O9 0.764896 0.250000 0.918356
O O10 0.856348 0.357443 0.981358
O O11 0.743483 0.427802 0.903071
O O12 0.000000 0.865342 0.032439
O O13 0.924333 0.000000 0.000000
O O14 0.647631 0.000000 0.000000
#
# Coordination Sequence:
#
# PCOD9537638 Si02
#       5
#    16  16  16  16  16
#     4  10  22  39  59  85 117 153 192 238 294 348
#     4   9  19  34  52  77 109 146 185 232 286 337
#     4  10  20  34  54  84 116 145 184 234 286 340
#     4  10  21  36  54  79 114 154 190 227 278 340
#     4  10  21  35  58  86 112 145 190 241 285 346
#
# _framework density 19.073530999999999
#
# number of rings (size 3 to 8) (size 9 to 14) (size 15 to 20)
#    0.000    2.200    0.000    3.000    5.600    2.400 
#    0.000    2.000    0.000    0.600    0.000    0.000 
#    0.000    0.000    0.000    0.000    0.000    0.000 
#
# Total GULP energy -222747.995794 kJ/mol
# GULP energy per Si atom -5568.699895 kJ/mol
# Density = 1.903012 g / cm^3
# Si number density = 19.073531 Si / 1000 Ang^3
#
#
#
# Elastic Constant Matrix: (Units=GPa)
#
#
# Indices 1 2 3 4 5 6 
#
# 1 58.2729 30.1169 16.7617 0.0000 0.0000 0.0000
# 2 30.1169 127.1964 36.8499 0.0000 0.0000 0.0000
# 3 16.7617 36.8499 36.7459 0.0000 0.0000 0.0000
# 4 0.0000 0.0000 0.0000 13.5396 0.0000 0.0000
# 5 0.0000 0.0000 0.0000 0.0000 16.1040 0.0000
# 6 0.0000 0.0000 0.0000 0.0000 0.0000 26.5482
#
#
#
# Elastic Compliance Matrix: (Units=1/GPa)
#
#
# Indices 1 2 3 4 5 6 
#
# 1 0.020549 -0.003030 -0.006335 0.000000 0.000000 0.000000
# 2 -0.003030 0.011528 -0.010179 0.000000 0.000000 0.000000
# 3 -0.006335 -0.010179 0.040311 0.000000 0.000000 0.000000
# 4 0.000000 0.000000 0.000000 0.073858 0.000000 0.000000
# 5 0.000000 0.000000 0.000000 0.000000 0.062096 0.000000
# 6 0.000000 0.000000 0.000000 0.000000 0.000000 0.037667
#
#
# Mechanical properties :
#
#
# Convention : Reuss Voigt Hill
#
# Bulk Modulus (GPa) = 30.02908 43.29693 36.66300
# Shear Modulus (GPa) = 16.88072 20.47081 18.67577
#
# Velocity S-wave (km/s) = 2.97818 3.27962 3.13253
# Velocity P-wave (km/s) = 5.25396 6.09019 5.68747
#
# Compressibility (1/GPa) = 0.03330106
#
# Stress axis : x y z
#
# Youngs Moduli (GPa) = 48.66454 86.74416 24.80729
#
# Poissons Ratio (x) = 0.26286 0.15714
# Poissons Ratio (y) = 0.14747 0.25250
# Poissons Ratio (z) = 0.30827 0.88293
#
# Static dielectric constant tensor:
#      x y z
#    x 1.661990 0.000000 0.000000 
#    y 0.000000 1.752490 0.000000 
#    z 0.000000 0.000000 1.651650 
# 
# From -- ./inp_files/35073.got.cif
#   From: 2010.05.17/outbox.cif.g08.bks.cpg/sg74_18_cif.got.tgz:35073.got - 2010.06.03 17:57:02.
