data_PCOD9537101
_publ_section_title
;
Structure prediction by ZEFSAII (Michael W. Deem and Ramdas Pophale) SiO2 
 PCOD9537101
Probable space group: I M M A
;
_chemical_formula_sum "Si O2"
_cell_formula_units_Z 80
_cell_length_a 15.296406
_cell_length_b 16.504545
_cell_length_c 16.182993
_cell_angle_alpha 90.000000
_cell_angle_beta 90.000000
_cell_angle_gamma 90.000000
_cell_volume 4085.561992
_symmetry_space_group_name_H-M "I M M A"
_symmetry_group_IT_number 74
_symmetry_cell_setting 'orthorhombic'
loop_
_space_group_symop_operation_xyz
x,y,z
-x,1/2-y,z
x,-y,-z
-x,1/2+y,-z
-x,-y,-z
x,1/2+y,-z
-x,y,z
x,1/2-y,z
1/2+x,1/2+y,1/2+z
1/2-x,-y,1/2+z
1/2+x,1/2-y,1/2-z
1/2-x,y,1/2-z
1/2-x,1/2-y,1/2-z
1/2+x,y,1/2-z
1/2-x,1/2+y,1/2+z
1/2+x,-y,1/2+z
loop_
_atom_site_type_symbol
_atom_site_label
_atom_site_fract_x
_atom_site_fract_y
_atom_site_fract_z
Si Si1 0.402807 0.009480 0.205641
Si Si2 0.338092 0.158542 0.305284
Si Si3 0.852879 0.839342 0.268888
Si Si4 0.764193 0.558361 0.569029
Si Si5 0.900951 0.842458 0.462798
O O1 0.500000 0.007569 0.167224
O O2 0.395684 0.090826 0.259794
O O3 0.321122 0.014558 0.141481
O O4 0.391485 0.926247 0.258023
O O5 0.373499 0.250000 0.312686
O O6 0.250000 0.164103 0.250000
O O7 0.304836 0.118790 0.390174
O O8 0.885416 0.750000 0.239314
O O9 0.750000 0.841146 0.250000
O O10 0.872703 0.840962 0.367060
O O11 0.723529 0.500000 0.500000
O O12 0.836886 0.606884 0.518349
O O13 0.899043 0.750000 0.492565
O O14 0.000000 0.872218 0.468379
#
# Coordination Sequence:
#
# PCOD9537101 Si02
#       5
#    16  16  16  16  16
#     4  11  22  35  56  83 112 147 187 232 283 331
#     4   9  20  38  56  78 110 152 199 237 272 328
#     4  10  20  34  51  75 111 152 188 220 268 339
#     4  11  20  32  55  81 115 146 182 225 284 344
#     4  10  20  32  49  78 112 143 176 223 286 344
#
# _framework density 19.581149
#
# number of rings (size 3 to 8) (size 9 to 14) (size 15 to 20)
#    0.000    1.800    2.000    3.600    0.000    3.200 
#    0.000    0.000    0.000    0.600    0.000    0.000 
#    0.000    0.000    0.000    0.000    0.000    0.000 
#
# Total GULP energy -222926.619128 kJ/mol
# GULP energy per Si atom -5573.165478 kJ/mol
# Density = 1.953658 g / cm^3
# Si number density = 19.581149 Si / 1000 Ang^3
#
#
#
# Elastic Constant Matrix: (Units=GPa)
#
#
# Indices 1 2 3 4 5 6 
#
# 1 20.5758 15.7059 -1.2742 0.0000 0.0000 0.0000
# 2 15.7059 181.0161 29.3015 0.0000 0.0000 0.0000
# 3 -1.2742 29.3015 44.3045 0.0000 0.0000 0.0000
# 4 0.0000 0.0000 0.0000 16.0263 0.0000 0.0000
# 5 0.0000 0.0000 0.0000 0.0000 5.0545 0.0000
# 6 0.0000 0.0000 0.0000 0.0000 0.0000 -20.4922
#
#
#
# Elastic Compliance Matrix: (Units=1/GPa)
#
#
# Indices 1 2 3 4 5 6 
#
# 1 0.053065 -0.005433 0.005119 0.000000 0.000000 0.000000
# 2 -0.005433 0.006743 -0.004616 0.000000 0.000000 0.000000
# 3 0.005119 -0.004616 0.025771 0.000000 0.000000 0.000000
# 4 0.000000 0.000000 0.000000 0.062397 0.000000 0.000000
# 5 0.000000 0.000000 0.000000 0.000000 0.197843 0.000000
# 6 0.000000 0.000000 0.000000 0.000000 0.000000 -0.048799
#
#
# Mechanical properties :
#
#
# Convention : Reuss Voigt Hill
#
# Bulk Modulus (GPa) = 13.20656 37.04032 25.12344
# Shear Modulus (GPa) = 15.05487 13.59529 14.32508
#
# Velocity S-wave (km/s) = 2.77581 2.63783 2.70770
# Velocity P-wave (km/s) = 4.12707 5.31365 4.75750
#
# Compressibility (1/GPa) = 0.07571996
#
# Stress axis : x y z
#
# Youngs Moduli (GPa) = 18.84492 148.30366 38.80324
#
# Poissons Ratio (x) = 0.80571 -0.19865
# Poissons Ratio (y) = 0.10238 0.17911
# Poissons Ratio (z) = -0.09647 0.68454
#
# Static dielectric constant tensor:
#      x y z
#    x 1.650000 0.000000 0.000000 
#    y 0.000000 1.786770 0.000000 
#    z 0.000000 0.000000 1.686160 
# 
# From -- ./inp_files/42693.got.cif
#   From: 2010.05.17/outbox.cif.g08.bks.cpg/sg74_22_cif.got.tgz:42693.got - 2010.06.03 17:57:02.
