data_PCOD9537291
_publ_section_title
;
Structure prediction by ZEFSAII (Michael W. Deem and Ramdas Pophale) SiO2 
 PCOD9537291
Probable space group: I M M A
;
_chemical_formula_sum "Si O2"
_cell_formula_units_Z 80
_cell_length_a 26.261466
_cell_length_b 18.137494
_cell_length_c 9.148951
_cell_angle_alpha 90.000000
_cell_angle_beta 90.000000
_cell_angle_gamma 90.000000
_cell_volume 4357.802559
_symmetry_space_group_name_H-M "I M M A"
_symmetry_group_IT_number 74
_symmetry_cell_setting 'orthorhombic'
loop_
_space_group_symop_operation_xyz
x,y,z
-x,1/2-y,z
x,-y,-z
-x,1/2+y,-z
-x,-y,-z
x,1/2+y,-z
-x,y,z
x,1/2-y,z
1/2+x,1/2+y,1/2+z
1/2-x,-y,1/2+z
1/2+x,1/2-y,1/2-z
1/2-x,y,1/2-z
1/2-x,1/2-y,1/2-z
1/2+x,y,1/2-z
1/2-x,1/2+y,1/2+z
1/2+x,-y,1/2+z
loop_
_atom_site_type_symbol
_atom_site_label
_atom_site_fract_x
_atom_site_fract_y
_atom_site_fract_z
Si Si1 0.558721 0.333690 0.498753
Si Si2 0.803656 0.517264 0.672462
Si Si3 0.057719 0.065673 0.392018
Si Si4 0.365128 0.165599 0.219977
Si Si5 0.602323 0.032618 0.656989
O O1 0.500000 0.347469 0.447474
O O2 0.559696 0.250000 0.553846
O O3 0.601329 0.336764 0.369888
O O4 0.574273 0.391613 0.622456
O O5 0.800526 0.500000 0.500000
O O6 0.750000 0.504850 0.750000
O O7 0.822662 0.601335 0.709536
O O8 0.847360 0.466163 0.744426
O O9 0.094014 0.135821 0.398165
O O10 0.000000 0.085732 0.420186
O O11 0.073126 0.000000 0.500000
O O12 0.064903 0.025317 0.235911
O O13 0.348302 0.250000 0.198605
O O14 0.617266 0.000000 0.500000
#
# Coordination Sequence:
#
# PCOD9537291 Si02
#       5
#    16  16  16  16  16
#     4  10  20  33  55  90 128 162 197 236 285 348
#     4  11  24  42  65  87 111 147 199 250 305 360
#     4  10  20  33  51  81 118 156 200 240 278 338
#     4  10  20  35  57  85 118 151 192 242 291 350
#     4  11  19  34  58  83 114 152 193 242 289 342
#
# _framework density 18.357876999999998
#
# number of rings (size 3 to 8) (size 9 to 14) (size 15 to 20)
#    0.000    1.600    4.000    4.200    0.000    2.400 
#    0.000    4.000    0.000    2.400    0.000    0.000 
#    0.000    0.000    0.000    0.000    0.000    0.000 
#
# Total GULP energy -222823.612338 kJ/mol
# GULP energy per Si atom -5570.590308 kJ/mol
# Density = 1.831609 g / cm^3
# Si number density = 18.357877 Si / 1000 Ang^3
#
#
#
# Elastic Constant Matrix: (Units=GPa)
#
#
# Indices 1 2 3 4 5 6 
#
# 1 82.7373 20.1323 19.2304 0.0000 0.0000 0.0000
# 2 20.1323 104.7383 19.0326 0.0000 0.0000 0.0000
# 3 19.2304 19.0326 80.7735 0.0000 0.0000 0.0000
# 4 0.0000 0.0000 0.0000 24.5410 0.0000 0.0000
# 5 0.0000 0.0000 0.0000 0.0000 22.9612 0.0000
# 6 0.0000 0.0000 0.0000 0.0000 0.0000 19.1575
#
#
#
# Elastic Compliance Matrix: (Units=1/GPa)
#
#
# Indices 1 2 3 4 5 6 
#
# 1 0.013205 -0.002055 -0.002660 0.000000 0.000000 0.000000
# 2 -0.002055 0.010294 -0.001936 0.000000 0.000000 0.000000
# 3 -0.002660 -0.001936 0.013470 0.000000 0.000000 0.000000
# 4 0.000000 0.000000 0.000000 0.040748 0.000000 0.000000
# 5 0.000000 0.000000 0.000000 0.000000 0.043552 0.000000
# 6 0.000000 0.000000 0.000000 0.000000 0.000000 0.052199
#
#
# Mechanical properties :
#
#
# Convention : Reuss Voigt Hill
#
# Bulk Modulus (GPa) = 42.25272 42.78220 42.51746
# Shear Modulus (GPa) = 25.68602 27.32219 26.50410
#
# Velocity S-wave (km/s) = 3.74462 3.86205 3.80379
# Velocity P-wave (km/s) = 6.46238 6.57589 6.51938
#
# Compressibility (1/GPa) = 0.02366712
#
# Stress axis : x y z
#
# Youngs Moduli (GPa) = 75.73119 97.13953 74.24037
#
# Poissons Ratio (x) = 0.19961 0.19745
# Poissons Ratio (y) = 0.15562 0.14376
# Poissons Ratio (z) = 0.20141 0.18811
#
# Static dielectric constant tensor:
#      x y z
#    x 1.636470 0.000000 0.000000 
#    y 0.000000 1.653330 0.000000 
#    z 0.000000 0.000000 1.689510 
# 
# From -- ./inp_files/11161.got.cif
#   From: 2010.05.17/outbox.cif.g08.bks.cpg/sg74_6_cif.got.tgz:11161.got - 2010.06.03 17:57:02.
