data_PCOD9537711
_publ_section_title
;
Structure prediction by ZEFSAII (Michael W. Deem and Ramdas Pophale) SiO2 
 PCOD9537711
Probable space group: I M M A
;
_chemical_formula_sum "Si O2"
_cell_formula_units_Z 104
_cell_length_a 26.777546
_cell_length_b 7.809456
_cell_length_c 22.921086
_cell_angle_alpha 90.000000
_cell_angle_beta 90.000000
_cell_angle_gamma 90.000000
_cell_volume 4793.213204
_symmetry_space_group_name_H-M "I M M A"
_symmetry_group_IT_number 74
_symmetry_cell_setting 'orthorhombic'
loop_
_space_group_symop_operation_xyz
x,y,z
-x,1/2-y,z
x,-y,-z
-x,1/2+y,-z
-x,-y,-z
x,1/2+y,-z
-x,y,z
x,1/2-y,z
1/2+x,1/2+y,1/2+z
1/2-x,-y,1/2+z
1/2+x,1/2-y,1/2-z
1/2-x,y,1/2-z
1/2-x,1/2-y,1/2-z
1/2+x,y,1/2-z
1/2-x,1/2+y,1/2+z
1/2+x,-y,1/2+z
loop_
_atom_site_type_symbol
_atom_site_label
_atom_site_fract_x
_atom_site_fract_y
_atom_site_fract_z
Si Si1 0.945113 0.046061 0.932588
Si Si2 0.268366 0.960696 0.685075
Si Si3 0.000000 0.955220 0.433155
Si Si4 0.712359 0.446624 0.067531
Si Si5 0.443403 0.542860 0.774914
Si Si6 0.894212 0.952497 0.388255
Si Si7 0.880609 0.950521 0.830467
O O1 0.944352 0.250000 0.926354
O O2 0.000000 0.981884 0.912853
O O3 0.900638 0.970835 0.895230
O O4 0.940299 0.000000 0.000000
O O5 0.265789 0.750000 0.684796
O O6 0.250000 0.012485 0.750000
O O7 0.238886 0.021805 0.626369
O O8 0.325512 0.020489 0.678686
O O9 0.052276 0.023504 0.409223
O O10 0.000000 0.750000 0.423165
O O11 0.000000 0.000000 0.500000
O O12 0.727084 0.250000 0.068216
O O13 0.653381 0.465944 0.081239
O O14 0.721999 0.500000 0.000000
O O15 0.500000 0.479557 0.787760
O O16 0.445780 0.750000 0.777122
O O17 0.400455 0.483695 0.819552
O O18 0.423859 0.482257 0.712220
O O19 0.891532 0.750000 0.400357
O O20 0.876407 0.750000 0.816507
#
# Coordination Sequence:
#
# PCOD9537711 Si02
#       7
#    16  16   8  16  16  16  16
#     4  10  21  37  57  83 117 156 194 236 291 352
#     4   9  19  38  63  88 116 153 200 250 300 352
#     4  10  22  36  52  76 106 142 181 224 273 326
#     4  11  23  40  62  88 118 155 198 247 301 359
#     4  10  20  34  56  87 120 156 196 237 287 348
#     4  11  22  38  57  82 115 153 194 237 288 340
#     4  10  20  36  60  88 116 150 194 243 292 349
#
# _framework density 21.697344000000001
#
# number of rings (size 3 to 8) (size 9 to 14) (size 15 to 20)
#    0.000    1.846    0.769    3.231    0.000    7.692 
#    0.000    3.077    0.000    3.231    0.000    0.000 
#    0.000    0.000    0.000    0.000    0.000    0.000 
#
# Total GULP energy -290053.448234 kJ/mol
# GULP energy per Si atom -5577.950928 kJ/mol
# Density = 2.164796 g / cm^3
# Si number density = 21.697344 Si / 1000 Ang^3
#
#
#
# Elastic Constant Matrix: (Units=GPa)
#
#
# Indices 1 2 3 4 5 6 
#
# 1 107.3105 2.3973 69.8745 0.0000 0.0000 0.0000
# 2 2.3973 21.6802 1.0552 0.0000 0.0000 0.0000
# 3 69.8745 1.0552 142.4328 0.0000 0.0000 0.0000
# 4 0.0000 0.0000 0.0000 18.7679 0.0000 0.0000
# 5 0.0000 0.0000 0.0000 0.0000 32.7801 0.0000
# 6 0.0000 0.0000 0.0000 0.0000 0.0000 10.4231
#
#
#
# Elastic Compliance Matrix: (Units=1/GPa)
#
#
# Indices 1 2 3 4 5 6 
#
# 1 0.013723 -0.001190 -0.006724 0.000000 0.000000 0.000000
# 2 -0.001190 0.046245 0.000241 0.000000 0.000000 0.000000
# 3 -0.006724 0.000241 0.010318 0.000000 0.000000 0.000000
# 4 0.000000 0.000000 0.000000 0.053282 0.000000 0.000000
# 5 0.000000 0.000000 0.000000 0.000000 0.030506 0.000000
# 6 0.000000 0.000000 0.000000 0.000000 0.000000 0.095941
#
#
# Mechanical properties :
#
#
# Convention : Reuss Voigt Hill
#
# Bulk Modulus (GPa) = 18.20145 46.45306 32.32725
# Shear Modulus (GPa) = 17.62587 25.60065 21.61326
#
# Velocity S-wave (km/s) = 2.85327 3.43869 3.15957
# Velocity P-wave (km/s) = 4.38883 6.10100 5.31432
#
# Compressibility (1/GPa) = 0.05494069
#
# Stress axis : x y z
#
# Youngs Moduli (GPa) = 72.86852 21.62404 96.92266
#
# Poissons Ratio (x) = 0.02574 0.65167
# Poissons Ratio (y) = 0.08673 -0.02339
# Poissons Ratio (z) = 0.48994 -0.00522
#
# Static dielectric constant tensor:
#      x y z
#    x 1.808940 0.000000 0.000000 
#    y 0.000000 1.809620 0.000000 
#    z 0.000000 0.000000 1.833990 
# 
# From -- ./inp_files/55250.got.cif
#   From: 2010.05.17/outbox.cif.g08.bks.cpg/sg74_28_cif.got.tgz:55250.got - 2010.06.03 17:57:02.
