data_PCOD9537976
_publ_section_title
;
Structure prediction by ZEFSAII (Michael W. Deem and Ramdas Pophale) SiO2 
 PCOD9537976
Probable space group: I M M A
;
_chemical_formula_sum "Si O2"
_cell_formula_units_Z 56
_cell_length_a 10.165306
_cell_length_b 34.304724
_cell_length_c 9.557529
_cell_angle_alpha 90.000000
_cell_angle_beta 90.000000
_cell_angle_gamma 90.000000
_cell_volume 3332.882557
_symmetry_space_group_name_H-M "I M M A"
_symmetry_group_IT_number 74
_symmetry_cell_setting 'orthorhombic'
loop_
_space_group_symop_operation_xyz
x,y,z
-x,1/2-y,z
x,-y,-z
-x,1/2+y,-z
-x,-y,-z
x,1/2+y,-z
-x,y,z
x,1/2-y,z
1/2+x,1/2+y,1/2+z
1/2-x,-y,1/2+z
1/2+x,1/2-y,1/2-z
1/2-x,y,1/2-z
1/2-x,1/2-y,1/2-z
1/2+x,y,1/2-z
1/2-x,1/2+y,1/2+z
1/2+x,-y,1/2+z
loop_
_atom_site_type_symbol
_atom_site_label
_atom_site_fract_x
_atom_site_fract_y
_atom_site_fract_z
Si Si1 0.500000 0.038485 0.408866
Si Si2 0.349227 0.750000 0.378659
Si Si3 0.000000 0.458518 0.422867
Si Si4 0.341837 0.163734 0.610752
Si Si5 0.745789 0.593612 0.584076
O O1 0.500000 0.031411 0.242394
O O2 0.373532 0.064202 0.441152
O O3 0.500000 0.000000 0.500000
O O4 0.500000 0.750000 0.326166
O O5 0.250000 0.750000 0.250000
O O6 0.331100 0.792038 0.450012
O O7 0.000000 0.500000 0.500000
O O8 0.124648 0.430960 0.453485
O O9 0.500000 0.156928 0.637065
O O10 0.250000 0.162106 0.750000
O O11 0.283882 0.131914 0.505275
O O12 0.750000 0.602844 0.750000
#
# Coordination Sequence:
#
# PCOD9537976 Si02
#       5
#     8   8   8  16  16
#     4  10  20  36  56  75 104 141 177 224 273 316
#     4   8  16  32  53  78 110 142 176 222 271 314
#     4  10  22  36  54  79 106 139 181 222 269 322
#     4  10  20  35  57  84 111 143 183 226 270 320
#     4  10  21  37  55  78 110 145 177 219 273 323
#
# _framework density 16.802274000000001
#
# number of rings (size 3 to 8) (size 9 to 14) (size 15 to 20)
#    0.000    2.286    1.429    0.857    2.000    2.286 
#    0.000    0.714    0.000    0.000    0.000    0.000 
#    0.000    0.000    0.000    0.000    0.000    0.000 
#
# Total GULP energy -155904.682345 kJ/mol
# GULP energy per Si atom -5568.024369 kJ/mol
# Density = 1.676403 g / cm^3
# Si number density = 16.802274 Si / 1000 Ang^3
#
#
#
# Elastic Constant Matrix: (Units=GPa)
#
#
# Indices 1 2 3 4 5 6 
#
# 1 149.5001 90.1952 47.2575 0.0014 -0.0006 -0.0008
# 2 90.1952 200.3715 89.1485 -0.0018 0.0003 0.0001
# 3 47.2575 89.1485 52.3420 -0.0075 0.0012 -0.0006
# 4 0.0014 -0.0018 -0.0075 32.8035 0.0007 0.0003
# 5 -0.0006 0.0003 0.0012 0.0007 46.8792 0.0003
# 6 -0.0008 0.0001 -0.0006 0.0003 0.0003 73.5242
#
#
#
# Elastic Compliance Matrix: (Units=1/GPa)
#
#
# Indices 1 2 3 4 5 6 
#
# 1 0.009534 -0.001907 -0.005360 -0.000002 0.000000 0.000000
# 2 -0.001907 0.020985 -0.034020 -0.000007 0.000001 0.000000
# 3 -0.005360 -0.034020 0.081887 0.000017 -0.000002 0.000001
# 4 -0.000002 -0.000007 0.000017 0.030485 0.000000 0.000000
# 5 0.000000 0.000001 -0.000002 0.000000 0.021331 0.000000
# 6 0.000000 0.000000 0.000001 0.000000 0.000000 0.013601
#
#
# Mechanical properties :
#
#
# Convention : Reuss Voigt Hill
#
# Bulk Modulus (GPa) = 33.52082 95.04620 64.28351
# Shear Modulus (GPa) = 18.49515 42.34887 30.42201
#
# Velocity S-wave (km/s) = 3.32136 5.02583 4.25972
# Velocity P-wave (km/s) = 5.89084 9.50626 7.90794
#
# Compressibility (1/GPa) = 0.02983220
#
# Stress axis : x y z
#
# Youngs Moduli (GPa) = 104.89201 47.65276 12.21189
#
# Poissons Ratio (x) = 0.09086 0.06546
# Poissons Ratio (y) = 0.20000 0.41545
# Poissons Ratio (z) = 0.56223 1.62116
#
# Static dielectric constant tensor:
#      x y z
#    x 1.560590 0.000000 0.000000 
#    y 0.000000 1.569420 0.000000 
#    z 0.000000 0.000000 1.550420 
# 
# From -- ./inp_files/7116.got.cif
#   From: 2010.05.17/outbox.cif.g08.bks.cpg/sg74_4_cif.got.tgz:7116.got - 2010.06.03 17:57:02.
