data_PCOD9537874
_publ_section_title
;
Structure prediction by ZEFSAII (Michael W. Deem and Ramdas Pophale) SiO2 
 PCOD9537874
Probable space group: I M M A
;
_chemical_formula_sum "Si O2"
_cell_formula_units_Z 80
_cell_length_a 15.666759
_cell_length_b 24.194819
_cell_length_c 10.953336
_cell_angle_alpha 90.000000
_cell_angle_beta 90.000000
_cell_angle_gamma 90.000000
_cell_volume 4151.910187
_symmetry_space_group_name_H-M "I M M A"
_symmetry_group_IT_number 74
_symmetry_cell_setting 'orthorhombic'
loop_
_space_group_symop_operation_xyz
x,y,z
-x,1/2-y,z
x,-y,-z
-x,1/2+y,-z
-x,-y,-z
x,1/2+y,-z
-x,y,z
x,1/2-y,z
1/2+x,1/2+y,1/2+z
1/2-x,-y,1/2+z
1/2+x,1/2-y,1/2-z
1/2-x,y,1/2-z
1/2-x,1/2-y,1/2-z
1/2+x,y,1/2-z
1/2-x,1/2+y,1/2+z
1/2+x,-y,1/2+z
loop_
_atom_site_type_symbol
_atom_site_label
_atom_site_fract_x
_atom_site_fract_y
_atom_site_fract_z
Si Si1 0.596207 0.124887 0.287501
Si Si2 0.601846 0.360235 0.999478
Si Si3 0.806472 0.750000 0.543818
Si Si4 0.362521 0.250000 0.330217
Si Si5 0.852072 0.971047 0.380369
Si Si6 0.157312 0.515731 0.871499
O O1 0.500000 0.104069 0.305172
O O2 0.615649 0.123626 0.142439
O O3 0.597765 0.188408 0.333090
O O4 0.658598 0.081988 0.353993
O O5 0.500000 0.352339 0.985430
O O6 0.653206 0.303777 0.984010
O O7 0.635531 0.406980 0.908831
O O8 0.705517 0.750000 0.560284
O O9 0.831970 0.750000 0.688162
O O10 0.885989 0.990863 0.249826
O O11 0.752832 0.990091 0.376878
O O12 0.891823 0.000000 0.500000
O O13 0.115976 0.500000 0.000000
#
# Coordination Sequence:
#
# PCOD9537874 Si02
#       6
#    16  16   8   8  16  16
#     4  10  20  35  55  83 117 151 191 240 289 340
#     4  10  20  35  58  86 116 147 189 244 293 339
#     4   9  19  31  55  87 115 145 187 236 289 337
#     4   9  19  31  55  84 116 151 186 230 290 344
#     4  10  20  35  57  81 114 150 190 230 287 343
#     4  10  22  35  56  82 117 153 189 236 283 344
#
# _framework density 19.268239000000001
#
# number of rings (size 3 to 8) (size 9 to 14) (size 15 to 20)
#    0.000    2.200    2.000    0.600    5.600    5.600 
#    0.000    0.000    0.000    3.600    0.000    2.800 
#    0.000    0.000    0.000    0.000    0.000    0.000 
#
# Total GULP energy -222807.121897 kJ/mol
# GULP energy per Si atom -5570.178047 kJ/mol
# Density = 1.922438 g / cm^3
# Si number density = 19.268239 Si / 1000 Ang^3
#
#
#
# Elastic Constant Matrix: (Units=GPa)
#
#
# Indices 1 2 3 4 5 6 
#
# 1 57.9462 36.3334 15.9123 0.0000 0.0000 0.0000
# 2 36.3334 148.9251 53.7964 0.0000 0.0000 0.0000
# 3 15.9123 53.7964 118.0699 -0.0002 0.0000 0.0003
# 4 0.0000 0.0000 -0.0002 16.1984 0.0000 -0.0001
# 5 0.0000 0.0000 0.0000 0.0000 8.0535 0.0000
# 6 0.0000 0.0000 0.0003 -0.0001 0.0000 35.3921
#
#
#
# Elastic Compliance Matrix: (Units=1/GPa)
#
#
# Indices 1 2 3 4 5 6 
#
# 1 0.020407 -0.004770 -0.000577 0.000000 0.000000 0.000000
# 2 -0.004770 0.009153 -0.003527 0.000000 0.000000 0.000000
# 3 -0.000577 -0.003527 0.010154 0.000000 0.000000 0.000000
# 4 0.000000 0.000000 0.000000 0.061735 0.000000 0.000000
# 5 0.000000 0.000000 0.000000 0.000000 0.124169 0.000000
# 6 0.000000 0.000000 0.000000 0.000000 0.000000 0.028255
#
#
# Mechanical properties :
#
#
# Convention : Reuss Voigt Hill
#
# Bulk Modulus (GPa) = 45.52654 59.66947 52.59800
# Shear Modulus (GPa) = 17.92480 26.52210 22.22345
#
# Velocity S-wave (km/s) = 3.05335 3.71410 3.39982
# Velocity P-wave (km/s) = 6.00913 7.03049 6.53978
#
# Compressibility (1/GPa) = 0.02196521
#
# Stress axis : x y z
#
# Youngs Moduli (GPa) = 49.00316 109.25589 98.47870
#
# Poissons Ratio (x) = 0.52119 0.05679
# Poissons Ratio (y) = 0.23376 0.34738
# Poissons Ratio (z) = 0.02826 0.38539
#
# Static dielectric constant tensor:
#      x y z
#    x 1.705770 0.000000 0.000000 
#    y 0.000000 1.704820 0.000000 
#    z 0.000000 0.000000 1.690490 
# 
# From -- ./inp_files/22095.got.cif
#   From: 2010.05.17/outbox.cif.g08.bks.cpg/sg74_12_cif.got.tgz:22095.got - 2010.06.03 17:57:02.
