data_PCOD9537449
_publ_section_title
;
Structure prediction by ZEFSAII (Michael W. Deem and Ramdas Pophale) SiO2 
 PCOD9537449
Probable space group: I M M A
;
_chemical_formula_sum "Si O2"
_cell_formula_units_Z 56
_cell_length_a 9.685200
_cell_length_b 7.569388
_cell_length_c 41.530981
_cell_angle_alpha 90.000000
_cell_angle_beta 90.000000
_cell_angle_gamma 90.000000
_cell_volume 3044.679271
_symmetry_space_group_name_H-M "I M M A"
_symmetry_group_IT_number 74
_symmetry_cell_setting 'orthorhombic'
loop_
_space_group_symop_operation_xyz
x,y,z
-x,1/2-y,z
x,-y,-z
-x,1/2+y,-z
-x,-y,-z
x,1/2+y,-z
-x,y,z
x,1/2-y,z
1/2+x,1/2+y,1/2+z
1/2-x,-y,1/2+z
1/2+x,1/2-y,1/2-z
1/2-x,y,1/2-z
1/2-x,1/2-y,1/2-z
1/2+x,y,1/2-z
1/2-x,1/2+y,1/2+z
1/2+x,-y,1/2+z
loop_
_atom_site_type_symbol
_atom_site_label
_atom_site_fract_x
_atom_site_fract_y
_atom_site_fract_z
Si Si1 0.658754 0.033970 0.094950
Si Si2 0.167737 0.951684 0.666125
Si Si3 0.842719 0.961853 0.964257
Si Si4 0.832959 0.250000 0.716932
O O1 0.500000 0.976908 0.091177
O O2 0.657836 0.250000 0.095096
O O3 0.711423 0.984007 0.130552
O O4 0.750704 0.972451 0.065211
O O5 0.214450 0.750000 0.671140
O O6 0.000000 0.948895 0.664495
O O7 0.204291 0.080797 0.695009
O O8 0.848613 0.750000 0.961187
O O9 0.000000 0.030282 0.962771
O O10 0.787125 0.000000 0.000000
O O11 0.750000 0.250000 0.750000
O O12 0.000000 0.250000 0.721955
#
# Coordination Sequence:
#
# PCOD9537449 Si02
#       4
#    16  16  16   8
#     4   8  14  27  47  66  85 113 151 192 229 268
#     4   8  15  30  51  72  95 126 160 194 238 287
#     4   9  17  29  43  60  87 121 152 183 227 279
#     4  10  20  34  52  74 102 130 158 194 238 288
#
# _framework density 18.392741000000001
#
# number of rings (size 3 to 8) (size 9 to 14) (size 15 to 20)
#    0.000    3.429    0.000    1.714    0.000    1.143 
#    2.571    1.429    0.000    1.714    0.000    0.000 
#    0.000    0.000    0.000    0.000    0.000    0.000 
#
# Total GULP energy -155999.304696 kJ/mol
# GULP energy per Si atom -5571.403739 kJ/mol
# Density = 1.835088 g / cm^3
# Si number density = 18.392741 Si / 1000 Ang^3
#
#
#
# Elastic Constant Matrix: (Units=GPa)
#
#
# Indices 1 2 3 4 5 6 
#
# 1 41.4137 20.4626 73.5228 0.0000 0.0000 0.0000
# 2 20.4626 67.9136 58.2841 0.0000 0.0000 0.0000
# 3 73.5228 58.2841 225.8494 0.0000 0.0000 0.0000
# 4 0.0000 0.0000 0.0000 26.3124 0.0000 0.0000
# 5 0.0000 0.0000 0.0000 0.0000 35.9628 0.0000
# 6 0.0000 0.0000 0.0000 0.0000 0.0000 7.1958
#
#
#
# Elastic Compliance Matrix: (Units=1/GPa)
#
#
# Indices 1 2 3 4 5 6 
#
# 1 0.057348 -0.001615 -0.018252 0.000000 0.000000 0.000000
# 2 -0.001615 0.018959 -0.004367 0.000000 0.000000 0.000000
# 3 -0.018252 -0.004367 0.011497 0.000000 0.000000 0.000000
# 4 0.000000 0.000000 0.000000 0.038005 0.000000 0.000000
# 5 0.000000 0.000000 0.000000 0.000000 0.027807 0.000000
# 6 0.000000 0.000000 0.000000 0.000000 0.000000 0.138970
#
#
# Mechanical properties :
#
#
# Convention : Reuss Voigt Hill
#
# Bulk Modulus (GPa) = 25.42236 71.07952 48.25094
# Shear Modulus (GPa) = 14.11770 26.08802 20.10286
#
# Velocity S-wave (km/s) = 2.77351 3.77023 3.30961
# Velocity P-wave (km/s) = 4.91003 7.59488 6.39494
#
# Compressibility (1/GPa) = 0.03933545
#
# Stress axis : x y z
#
# Youngs Moduli (GPa) = 17.43726 52.74566 86.98244
#
# Poissons Ratio (x) = 0.08518 1.58764
# Poissons Ratio (y) = 0.02816 0.37985
# Poissons Ratio (z) = 0.31827 0.23034
#
# Static dielectric constant tensor:
#      x y z
#    x 1.618170 0.000000 0.000000 
#    y 0.000000 1.680940 0.000000 
#    z 0.000000 0.000000 1.627580 
# 
# From -- ./inp_files/69635.got.cif
#   From: 2010.05.17/outbox.cif.g08.bks.cpg/sg74_35_cif.got.tgz:69635.got - 2010.06.03 17:57:02.
