data_PCOD9537621
_publ_section_title
;
Structure prediction by ZEFSAII (Michael W. Deem and Ramdas Pophale) SiO2 
 PCOD9537621
Probable space group: I M M A
;
_chemical_formula_sum "Si O2"
_cell_formula_units_Z 88
_cell_length_a 7.853507
_cell_length_b 18.387079
_cell_length_c 28.185051
_cell_angle_alpha 90.000000
_cell_angle_beta 90.000000
_cell_angle_gamma 90.000000
_cell_volume 4070.007431
_symmetry_space_group_name_H-M "I M M A"
_symmetry_group_IT_number 74
_symmetry_cell_setting 'orthorhombic'
loop_
_space_group_symop_operation_xyz
x,y,z
-x,1/2-y,z
x,-y,-z
-x,1/2+y,-z
-x,-y,-z
x,1/2+y,-z
-x,y,z
x,1/2-y,z
1/2+x,1/2+y,1/2+z
1/2-x,-y,1/2+z
1/2+x,1/2-y,1/2-z
1/2-x,y,1/2-z
1/2-x,1/2-y,1/2-z
1/2+x,y,1/2-z
1/2-x,1/2+y,1/2+z
1/2+x,-y,1/2+z
loop_
_atom_site_type_symbol
_atom_site_label
_atom_site_fract_x
_atom_site_fract_y
_atom_site_fract_z
Si Si1 0.697040 0.163173 0.554239
Si Si2 0.195459 0.931290 0.528355
Si Si3 0.798597 0.479676 0.698728
Si Si4 0.705425 0.250000 0.193567
Si Si5 0.291066 0.391663 0.132725
Si Si6 0.796527 0.168564 0.841682
O O1 0.500000 0.138367 0.550477
O O2 0.696250 0.250000 0.552988
O O3 0.798405 0.131416 0.510659
O O4 0.768263 0.144314 0.606288
O O5 0.266499 0.900962 0.578052
O O6 0.000000 0.952800 0.539304
O O7 0.274590 0.000000 0.500000
O O8 0.750000 0.509049 0.750000
O O9 0.733289 0.535042 0.659240
O O10 0.737662 0.397099 0.693292
O O11 0.000000 0.477916 0.694497
O O12 0.500000 0.250000 0.192222
O O13 0.750000 0.250000 0.250000
O O14 0.763707 0.178509 0.163720
O O15 0.500000 0.388366 0.132610
O O16 0.732511 0.250000 0.829592
O O17 0.000000 0.174769 0.846718
#
# Coordination Sequence:
#
# PCOD9537621 Si02
#       6
#    16  16  16   8  16  16
#     4   9  19  35  54  78 110 144 179 220 267 320
#     4  10  20  34  54  82 113 145 185 227 270 331
#     4  11  22  37  57  81 109 141 183 232 282 333
#     4  10  20  38  60  80 108 146 192 240 293 342
#     4   9  20  36  56  81 111 148 186 230 282 339
#     4   9  19  37  58  80 110 148 186 224 271 328
#
# _framework density 21.621582
#
# number of rings (size 3 to 8) (size 9 to 14) (size 15 to 20)
#    0.000    2.364    0.000    3.273    1.273    3.636 
#    0.000    5.455    0.000    0.000    0.000    0.000 
#    0.000    0.000    0.000    0.000    0.000    0.000 
#
# Total GULP energy -245376.895034 kJ/mol
# GULP energy per Si atom -5576.747614 kJ/mol
# Density = 2.157237 g / cm^3
# Si number density = 21.621582 Si / 1000 Ang^3
#
#
#
# Elastic Constant Matrix: (Units=GPa)
#
#
# Indices 1 2 3 4 5 6 
#
# 1 23.6523 7.4652 3.7004 0.0000 0.0000 0.0000
# 2 7.4652 88.0390 50.8262 0.0000 0.0000 0.0000
# 3 3.7004 50.8262 113.3247 0.0000 0.0000 0.0000
# 4 0.0000 0.0000 0.0000 38.8447 0.0000 0.0000
# 5 0.0000 0.0000 0.0000 0.0000 11.1029 0.0000
# 6 0.0000 0.0000 0.0000 0.0000 0.0000 -12.8265
#
#
#
# Elastic Compliance Matrix: (Units=1/GPa)
#
#
# Indices 1 2 3 4 5 6 
#
# 1 0.043450 -0.003866 0.000315 0.000000 0.000000 0.000000
# 2 -0.003866 0.015671 -0.006902 0.000000 0.000000 0.000000
# 3 0.000315 -0.006902 0.011910 0.000000 0.000000 0.000000
# 4 0.000000 0.000000 0.000000 0.025744 0.000000 0.000000
# 5 0.000000 0.000000 0.000000 0.000000 0.090067 0.000000
# 6 0.000000 0.000000 0.000000 0.000000 0.000000 -0.077963
#
#
# Mechanical properties :
#
#
# Convention : Reuss Voigt Hill
#
# Bulk Modulus (GPa) = 19.95041 38.77774 29.36407
# Shear Modulus (GPa) = 34.13133 18.29249 26.21191
#
# Velocity S-wave (km/s) = 3.97744 2.91181 3.48559
# Velocity P-wave (km/s) = 5.50822 5.41097 5.45981
#
# Compressibility (1/GPa) = 0.05012429
#
# Stress axis : x y z
#
# Youngs Moduli (GPa) = 23.01483 63.81116 83.96593
#
# Poissons Ratio (x) = 0.24672 -0.02647
# Poissons Ratio (y) = 0.08898 0.57956
# Poissons Ratio (z) = -0.00726 0.44044
#
# Static dielectric constant tensor:
#      x y z
#    x 1.819380 0.000000 0.000000 
#    y 0.000000 1.813760 0.000000 
#    z 0.000000 0.000000 1.800570 
# 
# From -- ./inp_files/50527.got.cif
#   From: 2010.05.17/outbox.cif.g08.bks.cpg/sg74_26_cif.got.tgz:50527.got - 2010.06.03 17:57:02.
