data_PCOD9537977
_publ_section_title
;
Structure prediction by ZEFSAII (Michael W. Deem and Ramdas Pophale) SiO2 
 PCOD9537977
Probable space group: I M M A
;
_chemical_formula_sum "Si O2"
_cell_formula_units_Z 104
_cell_length_a 26.391672
_cell_length_b 7.784933
_cell_length_c 23.324728
_cell_angle_alpha 90.000000
_cell_angle_beta 90.000000
_cell_angle_gamma 90.000000
_cell_volume 4792.237930
_symmetry_space_group_name_H-M "I M M A"
_symmetry_group_IT_number 74
_symmetry_cell_setting 'orthorhombic'
loop_
_space_group_symop_operation_xyz
x,y,z
-x,1/2-y,z
x,-y,-z
-x,1/2+y,-z
-x,-y,-z
x,1/2+y,-z
-x,y,z
x,1/2-y,z
1/2+x,1/2+y,1/2+z
1/2-x,-y,1/2+z
1/2+x,1/2-y,1/2-z
1/2-x,y,1/2-z
1/2-x,1/2-y,1/2-z
1/2+x,y,1/2-z
1/2-x,1/2+y,1/2+z
1/2+x,-y,1/2+z
loop_
_atom_site_type_symbol
_atom_site_label
_atom_site_fract_x
_atom_site_fract_y
_atom_site_fract_z
Si Si1 0.442459 0.955846 0.722865
Si Si2 0.500000 0.954323 0.433982
Si Si3 0.391202 0.450328 0.386166
Si Si4 0.056314 0.543666 0.434823
Si Si5 0.380288 0.956847 0.167513
Si Si6 0.234230 0.460482 0.685361
Si Si7 0.212771 0.945443 0.066436
O O1 0.500000 0.022173 0.714099
O O2 0.444687 0.750000 0.714559
O O3 0.400190 0.021260 0.677964
O O4 0.421468 0.994391 0.785129
O O5 0.500000 0.750000 0.424361
O O6 0.500000 0.000000 0.500000
O O7 0.551996 0.031279 0.410032
O O8 0.376981 0.250000 0.385102
O O9 0.347738 0.540811 0.422482
O O10 0.066648 0.500000 0.500000
O O11 0.054848 0.750000 0.429596
O O12 0.098750 0.477302 0.392582
O O13 0.000000 0.478440 0.419936
O O14 0.377673 0.750000 0.166349
O O15 0.323970 0.016565 0.179786
O O16 0.238097 0.250000 0.685702
O O17 0.250000 0.515578 0.750000
O O18 0.263230 0.520264 0.626498
O O19 0.229915 0.750000 0.067281
O O20 0.223071 0.000000 0.000000
#
# Coordination Sequence:
#
# PCOD9537977 Si02
#       7
#    16   8  16  16  16  16  16
#     4  10  21  37  56  83 120 156 188 235 297 353
#     4  12  24  38  58  84 114 150 191 232 279 336
#     4  11  22  40  60  83 118 156 194 240 289 343
#     4   9  18  32  50  75 108 143 181 226 278 339
#     4  10  20  35  57  84 111 146 193 243 290 348
#     4   9  19  37  60  85 115 150 194 247 298 347
#     4  11  23  40  62  89 120 158 202 250 304 361
#
# _framework density 21.701761000000001
#
# number of rings (size 3 to 8) (size 9 to 14) (size 15 to 20)
#    0.000    1.846    0.769    3.462    0.000    4.615 
#    0.000    3.077    0.000    4.154    0.000    0.000 
#    0.000    0.000    0.000    0.000    0.000    0.000 
#
# Total GULP energy -290025.479892 kJ/mol
# GULP energy per Si atom -5577.413075 kJ/mol
# Density = 2.165237 g / cm^3
# Si number density = 21.701761 Si / 1000 Ang^3
#
#
#
# Elastic Constant Matrix: (Units=GPa)
#
#
# Indices 1 2 3 4 5 6 
#
# 1 43.6701 8.9219 112.1036 0.0000 0.0000 0.0000
# 2 8.9219 34.0787 5.8069 0.0000 0.0000 0.0000
# 3 112.1036 5.8069 135.6424 0.0000 0.0000 0.0000
# 4 0.0000 0.0000 0.0000 131.2905 0.0000 0.0000
# 5 0.0000 0.0000 0.0000 0.0000 -161.3835 0.0000
# 6 0.0000 0.0000 0.0000 0.0000 0.0000 9.7363
#
#
#
# Elastic Compliance Matrix: (Units=1/GPa)
#
#
# Indices 1 2 3 4 5 6 
#
# 1 -0.020209 0.002463 0.016597 0.000000 0.000000 0.000000
# 2 0.002463 0.029259 -0.003288 0.000000 0.000000 0.000000
# 3 0.016597 -0.003288 -0.006204 0.000000 0.000000 0.000000
# 4 0.000000 0.000000 0.000000 0.007617 0.000000 0.000000
# 5 0.000000 0.000000 0.000000 0.000000 -0.006196 0.000000
# 6 0.000000 0.000000 0.000000 0.000000 0.000000 0.102708
#
#
# Mechanical properties :
#
#
# Convention : Reuss Voigt Hill
#
# Bulk Modulus (GPa) = 29.07847 51.89510 40.48678
# Shear Modulus (GPa) = 57.54096 1.69925 29.62011
#
# Velocity S-wave (km/s) = 5.15480 0.88583 3.69842
# Velocity P-wave (km/s) = 6.98982 5.00110 6.07736
#
# Compressibility (1/GPa) = 0.03438971
#
# Stress axis : x y z
#
# Youngs Moduli (GPa) = -49.48194 34.17710 -161.19486
#
# Poissons Ratio (x) = -0.08417 2.67534
# Poissons Ratio (y) = 0.12187 -0.53001
# Poissons Ratio (z) = 0.82125 0.11238
#
# Static dielectric constant tensor:
#      x y z
#    x 1.640640 0.000000 0.000000 
#    y 0.000000 1.805880 0.000000 
#    z 0.000000 0.000000 1.825210 
# 
# From -- ./inp_files/49236.got.cif
#   From: 2010.05.17/outbox.cif.g08.bks.cpg/sg74_25_cif.got.tgz:49236.got - 2010.06.03 17:57:02.
