data_PCOD9537511
_publ_section_title
;
Structure prediction by ZEFSAII (Michael W. Deem and Ramdas Pophale) SiO2 
 PCOD9537511
Probable space group: I M M A
;
_chemical_formula_sum "Si O2"
_cell_formula_units_Z 80
_cell_length_a 7.747729
_cell_length_b 26.434137
_cell_length_c 18.982462
_cell_angle_alpha 90.000000
_cell_angle_beta 90.000000
_cell_angle_gamma 90.000000
_cell_volume 3887.694205
_symmetry_space_group_name_H-M "I M M A"
_symmetry_group_IT_number 74
_symmetry_cell_setting 'orthorhombic'
loop_
_space_group_symop_operation_xyz
x,y,z
-x,1/2-y,z
x,-y,-z
-x,1/2+y,-z
-x,-y,-z
x,1/2+y,-z
-x,y,z
x,1/2-y,z
1/2+x,1/2+y,1/2+z
1/2-x,-y,1/2+z
1/2+x,1/2-y,1/2-z
1/2-x,y,1/2-z
1/2-x,1/2-y,1/2-z
1/2+x,y,1/2-z
1/2-x,1/2+y,1/2+z
1/2+x,-y,1/2+z
loop_
_atom_site_type_symbol
_atom_site_label
_atom_site_fract_x
_atom_site_fract_y
_atom_site_fract_z
Si Si1 0.704957 0.404137 0.919773
Si Si2 0.705703 0.693049 0.331056
Si Si3 0.712115 0.097697 0.080084
Si Si4 0.292433 0.693198 0.831080
Si Si5 0.707723 0.999800 0.167797
O O1 0.500000 0.412578 0.925419
O O2 0.730228 0.350141 0.883050
O O3 0.774503 0.449065 0.870360
O O4 0.772064 0.405725 0.999494
O O5 0.500000 0.694477 0.336798
O O6 0.773283 0.750000 0.345266
O O7 0.750000 0.680484 0.250000
O O8 0.500000 0.098032 0.080023
O O9 0.770293 0.149425 0.117305
O O10 0.767834 0.049498 0.125969
O O11 0.500000 0.694679 0.836964
O O12 0.226591 0.750000 0.845959
O O13 0.250000 0.680958 0.750000
O O14 0.500000 0.999544 0.162928
O O15 0.750000 0.001198 0.250000
#
# Coordination Sequence:
#
# PCOD9537511 Si02
#       5
#    16  16  16  16  16
#     4  10  20  34  54  78 104 135 171 213 259 306
#     4  10  21  37  56  78 105 137 173 212 254 303
#     4   9  18  33  52  74 102 136 172 209 252 305
#     4   9  17  30  49  72  97 128 168 210 250 297
#     4  10  20  34  53  76 102 134 173 214 257 306
#
# _framework density 20.577750000000002
#
# number of rings (size 3 to 8) (size 9 to 14) (size 15 to 20)
#    0.000    2.400    0.000    2.400    0.000    6.800 
#    0.000    4.000    0.000    4.800    0.000    0.000 
#    0.000    0.000    0.000    0.000    0.000    0.000 
#
# Total GULP energy -223377.013563 kJ/mol
# GULP energy per Si atom -5584.425339 kJ/mol
# Density = 2.053091 g / cm^3
# Si number density = 20.577750 Si / 1000 Ang^3
#
#
#
# Elastic Constant Matrix: (Units=GPa)
#
#
# Indices 1 2 3 4 5 6 
#
# 1 28.3576 4.3884 1.9545 0.0000 0.0000 0.0000
# 2 4.3884 165.8501 145.3722 0.0000 0.0000 0.0000
# 3 1.9545 145.3722 210.5117 0.0001 0.0000 0.0000
# 4 0.0000 0.0000 0.0001 0.1478 0.0000 0.0000
# 5 0.0000 0.0000 0.0000 0.0000 25.3729 0.0000
# 6 0.0000 0.0000 0.0000 0.0000 0.0000 -15.5718
#
#
#
# Elastic Compliance Matrix: (Units=1/GPa)
#
#
# Indices 1 2 3 4 5 6 
#
# 1 0.035463 -0.001646 0.000808 -0.000001 0.000000 0.000000
# 2 -0.001646 0.015353 -0.010587 0.000004 0.000000 0.000000
# 3 0.000808 -0.010587 0.012054 -0.000005 0.000000 0.000000
# 4 -0.000001 0.000004 -0.000005 6.766906 -0.000002 0.000000
# 5 0.000000 0.000000 0.000000 -0.000002 0.039412 0.000000
# 6 0.000000 0.000000 0.000000 0.000000 0.000000 -0.064218
#
#
# Mechanical properties :
#
#
# Convention : Reuss Voigt Hill
#
# Bulk Modulus (GPa) = 24.98839 78.68329 51.83584
# Shear Modulus (GPa) = 0.73087 18.85672 9.79379
#
# Velocity S-wave (km/s) = 0.59661 3.03044 2.18397
# Velocity P-wave (km/s) = 3.55589 7.11089 5.62179
#
# Compressibility (1/GPa) = 0.04001859
#
# Stress axis : x y z
#
# Youngs Moduli (GPa) = 28.19839 65.13526 82.96225
#
# Poissons Ratio (x) = 0.10722 -0.06699
# Poissons Ratio (y) = 0.04642 0.87830
# Poissons Ratio (z) = -0.02277 0.68957
#
# Static dielectric constant tensor:
#      x y z
#    x 1.768290 0.000000 0.000000 
#    y 0.000000 1.734800 0.000000 
#    z 0.000000 0.000000 1.697680 
# 
# From -- ./inp_files/39697.got.cif
#   From: 2010.05.17/outbox.cif.g08.bks.cpg/sg74_20_cif.got.tgz:39697.got - 2010.06.03 17:57:02.
