data_PCOD9537122
_publ_section_title
;
Structure prediction by ZEFSAII (Michael W. Deem and Ramdas Pophale) SiO2 
 PCOD9537122
Probable space group: I M M A
;
_chemical_formula_sum "Si O2"
_cell_formula_units_Z 96
_cell_length_a 14.583978
_cell_length_b 24.994415
_cell_length_c 10.386700
_cell_angle_alpha 90.000000
_cell_angle_beta 90.000000
_cell_angle_gamma 90.000000
_cell_volume 3786.139095
_symmetry_space_group_name_H-M "I M M A"
_symmetry_group_IT_number 74
_symmetry_cell_setting 'orthorhombic'
loop_
_space_group_symop_operation_xyz
x,y,z
-x,1/2-y,z
x,-y,-z
-x,1/2+y,-z
-x,-y,-z
x,1/2+y,-z
-x,y,z
x,1/2-y,z
1/2+x,1/2+y,1/2+z
1/2-x,-y,1/2+z
1/2+x,1/2-y,1/2-z
1/2-x,y,1/2-z
1/2-x,1/2-y,1/2-z
1/2+x,y,1/2-z
1/2-x,1/2+y,1/2+z
1/2+x,-y,1/2+z
loop_
_atom_site_type_symbol
_atom_site_label
_atom_site_fract_x
_atom_site_fract_y
_atom_site_fract_z
Si Si1 0.888027 0.913588 0.345497
Si Si2 0.888868 0.504379 0.853395
Si Si3 0.397986 0.569062 0.887451
Si Si4 0.838059 0.689144 0.936453
Si Si5 0.626640 0.188625 0.150087
Si Si6 0.389324 0.811302 0.289530
O O1 0.851222 0.941291 0.475149
O O2 0.856993 0.852984 0.318116
O O3 0.000000 0.912775 0.353130
O O4 0.866192 0.950641 0.224269
O O5 0.858729 0.550931 0.750923
O O6 0.000000 0.510093 0.864230
O O7 0.854976 0.500000 0.000000
O O8 0.500000 0.544392 0.889613
O O9 0.408722 0.633071 0.902897
O O10 0.863953 0.750000 0.966990
O O11 0.732635 0.687650 0.893833
O O12 0.887890 0.678588 0.802626
O O13 0.861223 0.663333 0.072101
O O14 0.596918 0.250000 0.120654
O O15 0.500000 0.809766 0.287918
O O16 0.357358 0.750000 0.266456
#
# Coordination Sequence:
#
# PCOD9537122 Si02
#       6
#    16  16  16  16  16  16
#     4   9  18  32  49  74 111 144 169 213 273 325
#     4   9  18  32  51  76 103 133 178 226 265 318
#     4  10  20  32  50  78 108 140 177 220 271 320
#     4   8  16  32  50  72 104 142 178 214 261 314
#     4   9  18  32  50  74 106 144 180 215 266 323
#     4   9  17  29  50  80 110 141 180 225 271 320
#
# _framework density 25.355644999999999
#
# number of rings (size 3 to 8) (size 9 to 14) (size 15 to 20)
#    0.000    3.000    0.000    1.500    2.333    3.667 
#    0.000    4.167    0.000    3.000   17.333    0.000 
#    0.000    0.000    0.000    0.000    0.000    0.000 
#
# Total GULP energy -267499.981509 kJ/mol
# GULP energy per Si atom -5572.916281 kJ/mol
# Density = 2.529793 g / cm^3
# Si number density = 25.355645 Si / 1000 Ang^3
#
#
#
# Elastic Constant Matrix: (Units=GPa)
#
#
# Indices 1 2 3 4 5 6 
#
# 1 61.7942 1.1335 7.7010 0.0000 0.0000 0.0000
# 2 1.1335 144.4224 68.1751 0.0001 0.0000 -0.0001
# 3 7.7010 68.1751 229.3077 0.0009 0.0001 -0.0006
# 4 0.0000 0.0001 0.0009 39.6208 0.0000 -0.0004
# 5 0.0000 0.0000 0.0001 0.0000 12.5801 -0.0003
# 6 0.0000 -0.0001 -0.0006 -0.0004 -0.0003 -38.1665
#
#
#
# Elastic Compliance Matrix: (Units=1/GPa)
#
#
# Indices 1 2 3 4 5 6 
#
# 1 0.016254 0.000151 -0.000591 0.000000 0.000000 0.000000
# 2 0.000151 0.008056 -0.002400 0.000000 0.000000 0.000000
# 3 -0.000591 -0.002400 0.005094 0.000000 0.000000 0.000000
# 4 0.000000 0.000000 0.000000 0.025239 0.000000 0.000000
# 5 0.000000 0.000000 0.000000 0.000000 0.079491 -0.000001
# 6 0.000000 0.000000 0.000000 0.000000 -0.000001 -0.026201
#
#
# Mechanical properties :
#
#
# Convention : Reuss Voigt Hill
#
# Bulk Modulus (GPa) = 42.15040 65.50483 53.82761
# Shear Modulus (GPa) = 41.14536 26.70786 33.92661
#
# Velocity S-wave (km/s) = 4.03268 3.24903 3.66188
# Velocity P-wave (km/s) = 6.19218 6.32182 6.25734
#
# Compressibility (1/GPa) = 0.02372456
#
# Stress axis : x y z
#
# Youngs Moduli (GPa) = 61.52484 124.13164 196.29427
#
# Poissons Ratio (x) = -0.01879 0.11598
# Poissons Ratio (y) = -0.00931 0.47114
# Poissons Ratio (z) = 0.03635 0.29794
#
# Static dielectric constant tensor:
#      x y z
#    x 1.940400 0.000000 0.000000 
#    y 0.000000 2.011160 0.000000 
#    z 0.000000 0.000000 2.141390 
# 
# From -- ./inp_files/12617.got.cif
#   From: 2010.05.17/outbox.cif.g08.bks.cpg/sg74_7_cif.got.tgz:12617.got - 2010.06.03 17:57:02.
