data_PCOD9537412
_publ_section_title
;
Structure prediction by ZEFSAII (Michael W. Deem and Ramdas Pophale) SiO2 
 PCOD9537412
Probable space group: I M M A
;
_chemical_formula_sum "Si O2"
_cell_formula_units_Z 104
_cell_length_a 29.588978
_cell_length_b 8.438314
_cell_length_c 24.833301
_cell_angle_alpha 90.000000
_cell_angle_beta 90.000000
_cell_angle_gamma 90.000000
_cell_volume 6200.405595
_symmetry_space_group_name_H-M "I M M A"
_symmetry_group_IT_number 74
_symmetry_cell_setting 'orthorhombic'
loop_
_space_group_symop_operation_xyz
x,y,z
-x,1/2-y,z
x,-y,-z
-x,1/2+y,-z
-x,-y,-z
x,1/2+y,-z
-x,y,z
x,1/2-y,z
1/2+x,1/2+y,1/2+z
1/2-x,-y,1/2+z
1/2+x,1/2-y,1/2-z
1/2-x,y,1/2-z
1/2-x,1/2-y,1/2-z
1/2+x,y,1/2-z
1/2-x,1/2+y,1/2+z
1/2+x,-y,1/2+z
loop_
_atom_site_type_symbol
_atom_site_label
_atom_site_fract_x
_atom_site_fract_y
_atom_site_fract_z
Si Si1 0.175747 0.058086 0.061540
Si Si2 0.774425 0.058969 0.438510
Si Si3 0.500000 0.438768 0.561038
Si Si4 0.126520 0.558099 0.561353
Si Si5 0.447560 0.439616 0.735501
Si Si6 0.587429 0.439856 0.374641
Si Si7 0.948139 0.058443 0.353864
O O1 0.175097 0.250000 0.060463
O O2 0.225393 0.007048 0.083180
O O3 0.133743 0.003714 0.097445
O O4 0.170748 0.000000 0.000000
O O5 0.774429 0.250000 0.437534
O O6 0.823598 0.007583 0.417276
O O7 0.774299 0.000000 0.500000
O O8 0.500000 0.250000 0.561121
O O9 0.500000 0.500000 0.500000
O O10 0.544513 0.497804 0.591977
O O11 0.121154 0.500000 0.500000
O O12 0.125682 0.750000 0.560269
O O13 0.086534 0.503252 0.600416
O O14 0.500000 0.490074 0.726497
O O15 0.446373 0.250000 0.734664
O O16 0.418181 0.505343 0.686696
O O17 0.434547 0.500250 0.794560
O O18 0.586670 0.250000 0.376405
O O19 0.947902 0.250000 0.353640
O O20 0.000000 0.006193 0.363692
#
# Coordination Sequence:
#
# PCOD9537412 Si02
#       7
#    16  16   8  16  16  16  16
#     4   9  18  30  46  69  94 122 156 195 238 284
#     4   8  14  27  45  66  93 122 156 193 229 277
#     4  12  24  36  48  68  98 130 161 196 241 290
#     4   9  17  29  48  73 100 130 158 189 234 283
#     4  10  20  34  51  70  91 120 161 203 241 282
#     4  11  21  33  50  70  93 124 159 198 244 289
#     4   9  18  32  49  70  97 128 161 196 234 280
#
# _framework density 16.773097
#
# number of rings (size 3 to 8) (size 9 to 14) (size 15 to 20)
#    0.000    2.462    0.769    2.077    0.000    4.000 
#    0.000    0.000    0.000    0.923    0.000    6.462 
#    0.000    0.000    0.000    0.000    0.000    0.000 
#
# Total GULP energy -289752.821215 kJ/mol
# GULP energy per Si atom -5572.169639 kJ/mol
# Density = 1.673492 g / cm^3
# Si number density = 16.773097 Si / 1000 Ang^3
#
#
#
# Elastic Constant Matrix: (Units=GPa)
#
#
# Indices 1 2 3 4 5 6 
#
# 1 163.2541 22.8397 94.3375 0.0000 0.0000 0.0000
# 2 22.8397 18.2402 17.0666 0.0000 0.0000 0.0000
# 3 94.3375 17.0666 107.4173 0.0000 0.0000 0.0000
# 4 0.0000 0.0000 0.0000 23.3465 0.0000 0.0000
# 5 0.0000 0.0000 0.0000 0.0000 -0.5375 0.0000
# 6 0.0000 0.0000 0.0000 0.0000 0.0000 9.5340
#
#
#
# Elastic Compliance Matrix: (Units=1/GPa)
#
#
# Indices 1 2 3 4 5 6 
#
# 1 0.013083 -0.006615 -0.010439 0.000000 0.000000 0.000000
# 2 -0.006615 0.067742 -0.004954 0.000000 0.000000 0.000000
# 3 -0.010439 -0.004954 0.019264 0.000000 0.000000 0.000000
# 4 0.000000 0.000000 0.000000 0.042833 0.000000 0.000000
# 5 0.000000 0.000000 0.000000 0.000000 -1.860378 0.000000
# 6 0.000000 0.000000 0.000000 0.000000 0.000000 0.104887
#
#
# Mechanical properties :
#
#
# Convention : Reuss Voigt Hill
#
# Bulk Modulus (GPa) = 17.83348 61.93326 39.88337
# Shear Modulus (GPa) = -3.22609 16.77979 6.77685
#
# Velocity S-wave (km/s) = -1.38836 3.16634 2.01223
# Velocity P-wave (km/s) = 2.84345 7.09732 5.40635
#
# Compressibility (1/GPa) = 0.05607429
#
# Stress axis : x y z
#
# Youngs Moduli (GPa) = 76.43424 14.76199 51.90907
#
# Poissons Ratio (x) = 0.09765 0.54188
# Poissons Ratio (y) = 0.50560 0.25713
# Poissons Ratio (z) = 0.79790 0.07312
#
# Static dielectric constant tensor:
#      x y z
#    x 1.611740 0.000000 0.000000 
#    y 0.000000 1.571290 0.000000 
#    z 0.000000 0.000000 1.523990 
# 
# From -- ./inp_files/62658.got.cif
#   From: 2010.05.17/outbox.cif.g08.bks.cpg/sg74_32_cif.got.tgz:62658.got - 2010.06.03 17:57:02.
