data_PCOD9537561
_publ_section_title
;
Structure prediction by ZEFSAII (Michael W. Deem and Ramdas Pophale) SiO2 
 PCOD9537561
Probable space group: I M M A
;
_chemical_formula_sum "Si O2"
_cell_formula_units_Z 88
_cell_length_a 8.966568
_cell_length_b 21.988659
_cell_length_c 24.125239
_cell_angle_alpha 90.000000
_cell_angle_beta 90.000000
_cell_angle_gamma 90.000000
_cell_volume 4756.599820
_symmetry_space_group_name_H-M "I M M A"
_symmetry_group_IT_number 74
_symmetry_cell_setting 'orthorhombic'
loop_
_space_group_symop_operation_xyz
x,y,z
-x,1/2-y,z
x,-y,-z
-x,1/2+y,-z
-x,-y,-z
x,1/2+y,-z
-x,y,z
x,1/2-y,z
1/2+x,1/2+y,1/2+z
1/2-x,-y,1/2+z
1/2+x,1/2-y,1/2-z
1/2-x,y,1/2-z
1/2-x,1/2-y,1/2-z
1/2+x,y,1/2-z
1/2-x,1/2+y,1/2+z
1/2+x,-y,1/2+z
loop_
_atom_site_type_symbol
_atom_site_label
_atom_site_fract_x
_atom_site_fract_y
_atom_site_fract_z
Si Si1 0.823587 0.680771 0.807534
Si Si2 0.675442 0.972721 0.059847
Si Si3 0.680879 0.250000 0.812370
Si Si4 0.828222 0.317563 0.016891
Si Si5 0.829548 0.895783 0.600591
Si Si6 0.674575 0.851289 0.391644
O O1 0.773528 0.750000 0.819876
O O2 0.750000 0.662146 0.750000
O O3 0.775126 0.636054 0.855447
O O4 0.000000 0.681262 0.801639
O O5 0.500000 0.956600 0.051885
O O6 0.758051 0.916947 0.090090
O O7 0.684766 0.032088 0.098469
O O8 0.730323 0.000000 0.000000
O O9 0.500000 0.250000 0.810314
O O10 0.750000 0.250000 0.750000
O O11 0.739469 0.190217 0.846538
O O12 0.794191 0.250000 0.038404
O O13 0.718008 0.366846 0.041931
O O14 0.000000 0.332195 0.032013
O O15 0.820195 0.317202 0.950799
O O16 0.000000 0.879838 0.612505
O O17 0.500000 0.857200 0.375494
#
# Coordination Sequence:
#
# PCOD9537561 Si02
#       6
#    16  16   8  16  16  16
#     4  10  21  38  59  82 112 150 193 242 294 347
#     4  10  21  38  57  85 125 166 206 248 301 364
#     4  12  26  46  72  96 126 164 207 260 319 376
#     4  10  20  34  53  82 121 157 194 245 299 355
#     4  11  22  35  55  84 120 158 201 245 290 353
#     4  11  22  39  63  92 123 157 203 253 307 368
#
# _framework density 18.500610000000002
#
# number of rings (size 3 to 8) (size 9 to 14) (size 15 to 20)
#    0.000    1.455    2.727    3.000    0.000    6.182 
#    0.000    0.909    0.000    4.364    0.000    0.000 
#    0.000    0.000    0.000    0.000    0.000    0.000 
#
# Total GULP energy -245464.057384 kJ/mol
# GULP energy per Si atom -5578.728577 kJ/mol
# Density = 1.845850 g / cm^3
# Si number density = 18.500610 Si / 1000 Ang^3
#
#
#
# Elastic Constant Matrix: (Units=GPa)
#
#
# Indices 1 2 3 4 5 6 
#
# 1 93.2613 46.8659 43.1060 0.0000 0.0000 0.0000
# 2 46.8659 79.8620 33.8762 0.0000 0.0000 0.0000
# 3 43.1060 33.8762 97.1748 0.0000 0.0000 0.0000
# 4 0.0000 0.0000 0.0000 -25.6267 0.0000 0.0000
# 5 0.0000 0.0000 0.0000 0.0000 33.8612 0.0000
# 6 0.0000 0.0000 0.0000 0.0000 0.0000 686.8015
#
#
#
# Elastic Compliance Matrix: (Units=1/GPa)
#
#
# Indices 1 2 3 4 5 6 
#
# 1 0.016879 -0.007897 -0.004735 0.000000 0.000000 0.000000
# 2 -0.007897 0.018389 -0.002908 0.000000 0.000000 0.000000
# 3 -0.004735 -0.002908 0.013405 0.000000 0.000000 0.000000
# 4 0.000000 0.000000 0.000000 -0.039022 0.000000 0.000000
# 5 0.000000 0.000000 0.000000 0.000000 0.029532 0.000000
# 6 0.000000 0.000000 0.000000 0.000000 0.000000 0.001456
#
#
# Mechanical properties :
#
#
# Convention : Reuss Voigt Hill
#
# Bulk Modulus (GPa) = 56.83532 57.55493 57.19513
# Shear Modulus (GPa) = 64.44690 148.77052 106.60871
#
# Velocity S-wave (km/s) = 5.90852 8.97711 7.59931
# Velocity P-wave (km/s) = 8.79403 11.77406 10.39143
#
# Compressibility (1/GPa) = 0.01759469
#
# Stress axis : x y z
#
# Youngs Moduli (GPa) = 59.24386 54.37952 74.60146
#
# Poissons Ratio (x) = 0.42944 0.35320
# Poissons Ratio (y) = 0.46786 0.21691
# Poissons Ratio (z) = 0.28049 0.15811
#
# Static dielectric constant tensor:
#      x y z
#    x 1.640440 0.000000 0.000000 
#    y 0.000000 1.648350 0.000000 
#    z 0.000000 0.000000 1.677030 
# 
# From -- ./inp_files/57005.got.cif
#   From: 2010.05.17/outbox.cif.g08.bks.cpg/sg74_29_cif.got.tgz:57005.got - 2010.06.03 17:57:02.
