data_PCOD9537634
_publ_section_title
;
Structure prediction by ZEFSAII (Michael W. Deem and Ramdas Pophale) SiO2 
 PCOD9537634
Probable space group: I M M A
;
_chemical_formula_sum "Si O2"
_cell_formula_units_Z 72
_cell_length_a 29.649939
_cell_length_b 8.689073
_cell_length_c 14.197116
_cell_angle_alpha 90.000000
_cell_angle_beta 90.000000
_cell_angle_gamma 90.000000
_cell_volume 3657.609872
_symmetry_space_group_name_H-M "I M M A"
_symmetry_group_IT_number 74
_symmetry_cell_setting 'orthorhombic'
loop_
_space_group_symop_operation_xyz
x,y,z
-x,1/2-y,z
x,-y,-z
-x,1/2+y,-z
-x,-y,-z
x,1/2+y,-z
-x,y,z
x,1/2-y,z
1/2+x,1/2+y,1/2+z
1/2-x,-y,1/2+z
1/2+x,1/2-y,1/2-z
1/2-x,y,1/2-z
1/2-x,1/2-y,1/2-z
1/2+x,y,1/2-z
1/2-x,1/2+y,1/2+z
1/2+x,-y,1/2+z
loop_
_atom_site_type_symbol
_atom_site_label
_atom_site_fract_x
_atom_site_fract_y
_atom_site_fract_z
Si Si1 0.726500 0.434578 0.893427
Si Si2 0.132073 0.433565 0.395729
Si Si3 0.913206 0.565923 0.789890
Si Si4 0.174090 0.064552 0.893630
Si Si5 0.500000 0.567056 0.394540
O O1 0.722484 0.250000 0.894462
O O2 0.679885 0.503451 0.856406
O O3 0.775912 0.472234 0.852594
O O4 0.728060 0.500000 0.000000
O O5 0.124777 0.500000 0.500000
O O6 0.135553 0.250000 0.402596
O O7 0.093618 0.473350 0.320290
O O8 0.916819 0.750000 0.798536
O O9 0.867661 0.509519 0.840332
O O10 0.955898 0.489735 0.839042
O O11 0.169874 0.250000 0.894660
O O12 0.173081 0.000000 0.000000
O O13 0.500000 0.750000 0.400614
O O14 0.500000 0.500000 0.500000
#
# Coordination Sequence:
#
# PCOD9537634 Si02
#       5
#    16  16  16  16   8
#     4   9  17  30  51  79 115 156 197 239 285 338
#     4  10  21  37  59  85 117 156 196 240 287 337
#     4  11  24  41  61  87 117 151 193 240 290 347
#     4  10  20  34  54  83 118 157 198 242 290 343
#     4  12  26  46  71  94 119 150 183 230 288 346
#
# _framework density 19.684988000000001
#
# number of rings (size 3 to 8) (size 9 to 14) (size 15 to 20)
#    0.000    1.778    0.000    5.667    0.000    7.111 
#    0.000    5.000    0.000    0.000    0.000    0.000 
#    0.000    0.000    0.000    0.000    0.000    0.000 
#
# Total GULP energy -201098.913833 kJ/mol
# GULP energy per Si atom -5586.080940 kJ/mol
# Density = 1.964018 g / cm^3
# Si number density = 19.684988 Si / 1000 Ang^3
#
#
#
# Elastic Constant Matrix: (Units=GPa)
#
#
# Indices 1 2 3 4 5 6 
#
# 1 155.8779 67.3513 92.6704 0.0000 0.0000 0.0000
# 2 67.3513 96.9212 58.2235 0.0000 0.0000 0.0000
# 3 92.6704 58.2235 127.2942 0.0000 0.0000 0.0000
# 4 0.0000 0.0000 0.0000 21.7617 0.0000 0.0000
# 5 0.0000 0.0000 0.0000 0.0000 35.8197 0.0000
# 6 0.0000 0.0000 0.0000 0.0000 0.0000 30.1260
#
#
#
# Elastic Compliance Matrix: (Units=1/GPa)
#
#
# Indices 1 2 3 4 5 6 
#
# 1 0.012571 -0.004465 -0.007110 0.000000 0.000000 0.000000
# 2 -0.004465 0.015812 -0.003982 0.000000 0.000000 0.000000
# 3 -0.007110 -0.003982 0.014853 0.000000 0.000000 0.000000
# 4 0.000000 0.000000 0.000000 0.045952 0.000000 0.000000
# 5 0.000000 0.000000 0.000000 0.000000 0.027918 0.000000
# 6 0.000000 0.000000 0.000000 0.000000 0.000000 0.033194
#
#
# Mechanical properties :
#
#
# Convention : Reuss Voigt Hill
#
# Bulk Modulus (GPa) = 82.48439 90.73151 86.60795
# Shear Modulus (GPa) = 26.96075 28.33136 27.64605
#
# Velocity S-wave (km/s) = 3.70484 3.79784 3.75163
# Velocity P-wave (km/s) = 7.76494 8.08847 7.92835
#
# Compressibility (1/GPa) = 0.01212351
#
# Stress axis : x y z
#
# Youngs Moduli (GPa) = 79.54722 63.24123 67.32623
#
# Poissons Ratio (x) = 0.28236 0.47867
# Poissons Ratio (y) = 0.35516 0.26810
# Poissons Ratio (z) = 0.56555 0.25183
#
# Static dielectric constant tensor:
#      x y z
#    x 1.685390 0.000000 0.000000 
#    y 0.000000 1.654830 0.000000 
#    z 0.000000 0.000000 1.224180 
# 
# From -- ./inp_files/37061.got.cif
#   From: 2010.05.17/outbox.cif.g08.bks.cpg/sg74_19_cif.got.tgz:37061.got - 2010.06.03 17:57:02.
