data_PCOD9537775
_publ_section_title
;
Structure prediction by ZEFSAII (Michael W. Deem and Ramdas Pophale) SiO2 
 PCOD9537775
Probable space group: I M M A
;
_chemical_formula_sum "Si O2"
_cell_formula_units_Z 112
_cell_length_a 14.405318
_cell_length_b 29.368327
_cell_length_c 14.425520
_cell_angle_alpha 90.000000
_cell_angle_beta 90.000000
_cell_angle_gamma 90.000000
_cell_volume 6102.861783
_symmetry_space_group_name_H-M "I M M A"
_symmetry_group_IT_number 74
_symmetry_cell_setting 'orthorhombic'
loop_
_space_group_symop_operation_xyz
x,y,z
-x,1/2-y,z
x,-y,-z
-x,1/2+y,-z
-x,-y,-z
x,1/2+y,-z
-x,y,z
x,1/2-y,z
1/2+x,1/2+y,1/2+z
1/2-x,-y,1/2+z
1/2+x,1/2-y,1/2-z
1/2-x,y,1/2-z
1/2-x,1/2-y,1/2-z
1/2+x,y,1/2-z
1/2-x,1/2+y,1/2+z
1/2+x,-y,1/2+z
loop_
_atom_site_type_symbol
_atom_site_label
_atom_site_fract_x
_atom_site_fract_y
_atom_site_fract_z
Si Si1 0.283520 0.196215 0.616613
Si Si2 0.109871 0.101587 0.135726
Si Si3 0.110158 0.698362 0.923965
Si Si4 0.895641 0.840681 0.291115
Si Si5 0.339176 0.560127 0.184589
Si Si6 0.251442 0.052063 0.014779
Si Si7 0.893456 0.456835 0.316972
O O1 0.276928 0.250000 0.634697
O O2 0.327588 0.190616 0.515233
O O3 0.181561 0.175298 0.634119
O O4 0.352502 0.175168 0.693203
O O5 0.127320 0.155760 0.144026
O O6 0.167151 0.083024 0.048347
O O7 0.134773 0.071632 0.225895
O O8 0.000000 0.095213 0.121110
O O9 0.128001 0.750000 0.889435
O O10 0.000000 0.696609 0.948808
O O11 0.897142 0.895312 0.292510
O O12 0.000000 0.822952 0.305199
O O13 0.250000 0.560497 0.250000
O O14 0.386664 0.511204 0.198448
O O15 0.302144 0.564905 0.079825
O O16 0.326264 0.053141 0.097516
O O17 0.219005 0.000000 0.000000
O O18 0.000000 0.445009 0.338822
#
# Coordination Sequence:
#
# PCOD9537775 Si02
#       7
#    16  16  16  16  16  16  16
#     4  10  20  35  52  74 106 144 187 230 275 334
#     4  10  20  35  57  85 113 142 181 233 286 332
#     4   9  18  34  57  83 110 141 179 227 286 345
#     4  11  21  32  49  74 108 148 186 229 277 329
#     4  11  21  36  54  77 114 148 188 228 273 328
#     4  10  21  36  56  76 109 151 185 228 273 326
#     4  10  21  37  57  81 108 145 191 231 273 330
#
# _framework density 18.352046999999999
#
# number of rings (size 3 to 8) (size 9 to 14) (size 15 to 20)
#    0.000    1.857    1.429    4.714    0.000    5.143 
#    0.000    0.714    0.000    1.714    0.000    0.000 
#    0.000    4.571    0.000    0.000    0.000    0.000 
#
# Total GULP energy -312431.699468 kJ/mol
# GULP energy per Si atom -5579.137491 kJ/mol
# Density = 1.831028 g / cm^3
# Si number density = 18.352047 Si / 1000 Ang^3
#
#
#
# Elastic Constant Matrix: (Units=GPa)
#
#
# Indices 1 2 3 4 5 6 
#
# 1 92.4184 42.1527 24.1847 0.0000 0.0000 0.0000
# 2 42.1527 127.8066 59.2828 0.0001 0.0000 0.0001
# 3 24.1847 59.2828 53.5764 0.0002 -0.0001 0.0002
# 4 0.0000 0.0001 0.0002 19.8696 0.0000 0.0000
# 5 0.0000 0.0000 -0.0001 0.0000 6.9829 0.0000
# 6 0.0000 0.0001 0.0002 0.0000 0.0000 26.7521
#
#
#
# Elastic Compliance Matrix: (Units=1/GPa)
#
#
# Indices 1 2 3 4 5 6 
#
# 1 0.012871 -0.003185 -0.002286 0.000000 0.000000 0.000000
# 2 -0.003185 0.016863 -0.017221 0.000000 0.000000 0.000000
# 3 -0.002286 -0.017221 0.038752 0.000000 0.000001 0.000000
# 4 0.000000 0.000000 0.000000 0.050328 0.000000 0.000000
# 5 0.000000 0.000000 0.000001 0.000000 0.143207 0.000000
# 6 0.000000 0.000000 0.000000 0.000000 0.000000 0.037380
#
#
# Mechanical properties :
#
#
# Convention : Reuss Voigt Hill
#
# Bulk Modulus (GPa) = 43.28617 58.33798 50.81208
# Shear Modulus (GPa) = 14.18492 20.59965 17.39229
#
# Velocity S-wave (km/s) = 2.78319 3.35397 3.08182
# Velocity P-wave (km/s) = 5.82803 6.84515 6.35696
#
# Compressibility (1/GPa) = 0.02310207
#
# Stress axis : x y z
#
# Youngs Moduli (GPa) = 77.69291 59.30259 25.80488
#
# Poissons Ratio (x) = 0.18886 0.05900
# Poissons Ratio (y) = 0.24742 0.44439
# Poissons Ratio (z) = 0.17763 1.02126
#
# Static dielectric constant tensor:
#      x y z
#    x 1.574370 0.000000 0.000000 
#    y 0.000000 1.664470 0.000000 
#    z 0.000000 0.000000 1.653110 
# 
# From -- ./inp_files/32964.got.cif
#   From: 2010.05.17/outbox.cif.g08.bks.cpg/sg74_17_cif.got.tgz:32964.got - 2010.06.03 17:57:02.
