data_PCOD9537805
_publ_section_title
;
Structure prediction by ZEFSAII (Michael W. Deem and Ramdas Pophale) SiO2 
 PCOD9537805
Probable space group: I M M A
;
_chemical_formula_sum "Si O2"
_cell_formula_units_Z 120
_cell_length_a 27.998664
_cell_length_b 8.721511
_cell_length_c 28.181197
_cell_angle_alpha 90.000000
_cell_angle_beta 90.000000
_cell_angle_gamma 90.000000
_cell_volume 6881.584984
_symmetry_space_group_name_H-M "I M M A"
_symmetry_group_IT_number 74
_symmetry_cell_setting 'orthorhombic'
loop_
_space_group_symop_operation_xyz
x,y,z
-x,1/2-y,z
x,-y,-z
-x,1/2+y,-z
-x,-y,-z
x,1/2+y,-z
-x,y,z
x,1/2-y,z
1/2+x,1/2+y,1/2+z
1/2-x,-y,1/2+z
1/2+x,1/2-y,1/2-z
1/2-x,y,1/2-z
1/2-x,1/2-y,1/2-z
1/2+x,y,1/2-z
1/2-x,1/2+y,1/2+z
1/2+x,-y,1/2+z
loop_
_atom_site_type_symbol
_atom_site_label
_atom_site_fract_x
_atom_site_fract_y
_atom_site_fract_z
Si Si1 0.345167 0.564610 0.813392
Si Si2 0.810358 0.933423 0.052691
Si Si3 0.500000 0.566807 0.552921
Si Si4 0.092234 0.935397 0.106116
Si Si5 0.699253 0.923719 0.277676
Si Si6 0.054954 0.570947 0.204717
Si Si7 0.948027 0.566779 0.691901
Si Si8 0.748561 0.432967 0.365730
O O1 0.344123 0.750000 0.810601
O O2 0.335386 0.499800 0.760683
O O3 0.397778 0.513391 0.830055
O O4 0.300922 0.517758 0.846727
O O5 0.809456 0.750000 0.050681
O O6 0.859187 0.980240 0.079776
O O7 0.767149 0.992999 0.085091
O O8 0.809563 0.000000 0.000000
O O9 0.500000 0.750000 0.551487
O O10 0.500000 0.500000 0.500000
O O11 0.547177 0.507600 0.579552
O O12 0.087966 0.750000 0.104479
O O13 0.088981 0.977861 0.161753
O O14 0.684428 0.750000 0.289155
O O15 0.750000 0.918088 0.250000
O O16 0.710879 0.014763 0.325371
O O17 0.063797 0.750000 0.216647
O O18 0.056511 0.473133 0.252372
O O19 0.000000 0.562327 0.186632
O O20 0.949434 0.750000 0.686242
O O21 0.000000 0.504795 0.676050
O O22 0.748143 0.250000 0.369422
#
# Coordination Sequence:
#
# PCOD9537805 Si02
#       8
#    16  16   8  16  16  16  16  16
#     4   9  18  32  50  74 103 137 169 204 251 299
#     4  11  24  40  57  76  99 129 168 212 265 317
#     4  12  24  36  54  74  92 118 158 208 262 314
#     4  10  21  38  55  71  96 127 163 210 260 308
#     4   9  17  29  46  70  98 128 165 206 246 291
#     4   9  17  31  49  68  94 129 165 202 245 289
#     4   9  18  31  47  71 104 137 170 205 239 285
#     4  10  20  35  54  74 100 131 167 209 256 307
#
# _framework density 17.437842
#
# number of rings (size 3 to 8) (size 9 to 14) (size 15 to 20)
#    0.000    2.267    0.667    2.200    1.867    5.333 
#    0.000    0.000    0.000    0.000    0.000    0.000 
#    0.000    0.533    0.000    0.933    0.000    1.333 
#
# Total GULP energy -334797.899119 kJ/mol
# GULP energy per Si atom -5579.964985 kJ/mol
# Density = 1.739815 g / cm^3
# Si number density = 17.437842 Si / 1000 Ang^3
#
#
#
# Elastic Constant Matrix: (Units=GPa)
#
#
# Indices 1 2 3 4 5 6 
#
# 1 134.6311 20.7839 31.3530 0.0000 0.0000 0.0000
# 2 20.7839 22.1297 13.6501 0.0000 0.0000 0.0000
# 3 31.3530 13.6501 51.5112 0.0000 0.0000 0.0000
# 4 0.0000 0.0000 0.0000 23.2822 0.0000 0.0000
# 5 0.0000 0.0000 0.0000 0.0000 20.4891 0.0000
# 6 0.0000 0.0000 0.0000 0.0000 0.0000 15.5691
#
#
#
# Elastic Compliance Matrix: (Units=1/GPa)
#
#
# Indices 1 2 3 4 5 6 
#
# 1 0.009334 -0.006290 -0.004014 0.000000 0.000000 0.000000
# 2 -0.006290 0.058256 -0.011609 0.000000 0.000000 0.000000
# 3 -0.004014 -0.011609 0.024933 0.000000 0.000000 0.000000
# 4 0.000000 0.000000 0.000000 0.042951 0.000000 0.000000
# 5 0.000000 0.000000 0.000000 0.000000 0.048807 0.000000
# 6 0.000000 0.000000 0.000000 0.000000 0.000000 0.064230
#
#
# Mechanical properties :
#
#
# Convention : Reuss Voigt Hill
#
# Bulk Modulus (GPa) = 20.53544 37.76068 29.14806
# Shear Modulus (GPa) = 16.20386 21.36708 18.78547
#
# Velocity S-wave (km/s) = 3.05164 3.50427 3.28576
# Velocity P-wave (km/s) = 4.92124 6.17046 5.58092
#
# Compressibility (1/GPa) = 0.04869630
#
# Stress axis : x y z
#
# Youngs Moduli (GPa) = 107.14039 17.16558 40.10771
#
# Poissons Ratio (x) = 0.10797 0.16100
# Poissons Ratio (y) = 0.67390 0.46561
# Poissons Ratio (z) = 0.43009 0.19928
#
# Static dielectric constant tensor:
#      x y z
#    x 1.668650 0.000000 0.000000 
#    y 0.000000 1.589490 0.000000 
#    z 0.000000 0.000000 1.560940 
# 
# From -- ./inp_files/69053.got.cif
#   From: 2010.05.17/outbox.cif.g08.bks.cpg/sg74_35_cif.got.tgz:69053.got - 2010.06.03 17:57:02.
