data_PCOD9537025
_publ_section_title
;
Structure prediction by ZEFSAII (Michael W. Deem and Ramdas Pophale) SiO2 
 PCOD9537025
Probable space group: I M M A
;
_chemical_formula_sum "Si O2"
_cell_formula_units_Z 96
_cell_length_a 14.757592
_cell_length_b 9.397699
_cell_length_c 32.432991
_cell_angle_alpha 90.000000
_cell_angle_beta 90.000000
_cell_angle_gamma 90.000000
_cell_volume 4498.047442
_symmetry_space_group_name_H-M "I M M A"
_symmetry_group_IT_number 74
_symmetry_cell_setting 'orthorhombic'
loop_
_space_group_symop_operation_xyz
x,y,z
-x,1/2-y,z
x,-y,-z
-x,1/2+y,-z
-x,-y,-z
x,1/2+y,-z
-x,y,z
x,1/2-y,z
1/2+x,1/2+y,1/2+z
1/2-x,-y,1/2+z
1/2+x,1/2-y,1/2-z
1/2-x,y,1/2-z
1/2-x,1/2-y,1/2-z
1/2+x,y,1/2-z
1/2-x,1/2+y,1/2+z
1/2+x,-y,1/2+z
loop_
_atom_site_type_symbol
_atom_site_label
_atom_site_fract_x
_atom_site_fract_y
_atom_site_fract_z
Si Si1 0.859951 0.085579 0.707677
Si Si2 0.106607 0.588984 0.382023
Si Si3 0.607841 0.410433 0.379853
Si Si4 0.611041 0.588109 0.959712
Si Si5 0.357518 0.414939 0.702653
Si Si6 0.389060 0.913320 0.459246
O O1 0.891852 0.250000 0.706894
O O2 0.886692 0.022754 0.663677
O O3 0.751242 0.087962 0.706271
O O4 0.889729 0.029553 0.752399
O O5 0.146530 0.750000 0.381823
O O6 0.142584 0.491343 0.418440
O O7 0.000000 0.604484 0.390340
O O8 0.500000 0.398279 0.386211
O O9 0.645895 0.250000 0.379391
O O10 0.619843 0.490019 0.336430
O O11 0.641267 0.505787 0.417903
O O12 0.500000 0.591872 0.959269
O O13 0.642852 0.750000 0.961609
O O14 0.637430 0.500000 0.000000
O O15 0.387269 0.250000 0.697072
O O16 0.500000 0.910002 0.458950
O O17 0.358008 0.750000 0.460229
O O18 0.362377 0.000000 0.500000
#
# Coordination Sequence:
#
# PCOD9537025 Si02
#       6
#    16  16  16  16  16  16
#     4   8  16  31  50  71  94 122 157 196 236 280
#     4   9  16  27  45  69  95 122 152 187 229 275
#     4  10  20  32  46  69 100 128 157 197 240 279
#     4   9  16  26  41  63  91 121 152 186 225 270
#     4   9  17  32  52  70  91 123 162 198 234 280
#     4   9  16  27  45  69  96 126 158 191 231 280
#
# _framework density 21.342593999999998
#
# number of rings (size 3 to 8) (size 9 to 14) (size 15 to 20)
#    0.000    3.000    0.000    2.500    0.000    5.667 
#    0.000    5.000    0.000    3.000    0.000    4.667 
#    0.000    0.000    0.000    0.000    0.000    0.000 
#
# Total GULP energy -267735.121013 kJ/mol
# GULP energy per Si atom -5577.815021 kJ/mol
# Density = 2.129402 g / cm^3
# Si number density = 21.342594 Si / 1000 Ang^3
#
#
#
# Elastic Constant Matrix: (Units=GPa)
#
#
# Indices 1 2 3 4 5 6 
#
# 1 46.6544 5.5911 -2.8464 0.0000 0.0000 0.0000
# 2 5.5911 158.0256 129.1763 0.0000 0.0000 0.0000
# 3 -2.8464 129.1763 253.3419 0.0000 0.0000 0.0000
# 4 0.0000 0.0000 0.0000 30.1441 0.0000 0.0000
# 5 0.0000 0.0000 0.0000 0.0000 34.5878 0.0000
# 6 0.0000 0.0000 0.0000 0.0000 0.0000 6.1815
#
#
#
# Elastic Compliance Matrix: (Units=1/GPa)
#
#
# Indices 1 2 3 4 5 6 
#
# 1 0.021699 -0.001658 0.001089 0.000000 0.000000 0.000000
# 2 -0.001658 0.010977 -0.005616 0.000000 0.000000 0.000000
# 3 0.001089 -0.005616 0.006823 0.000000 0.000000 0.000000
# 4 0.000000 0.000000 0.000000 0.033174 0.000000 0.000000
# 5 0.000000 0.000000 0.000000 0.000000 0.028912 0.000000
# 6 0.000000 0.000000 0.000000 0.000000 0.000000 0.161774
#
#
# Mechanical properties :
#
#
# Convention : Reuss Voigt Hill
#
# Bulk Modulus (GPa) = 36.85930 80.20712 58.53321
# Shear Modulus (GPa) = 17.55790 35.92275 26.74032
#
# Velocity S-wave (km/s) = 2.87133 4.10707 3.54349
# Velocity P-wave (km/s) = 5.31982 7.75584 6.65032
#
# Compressibility (1/GPa) = 0.02713020
#
# Stress axis : x y z
#
# Youngs Moduli (GPa) = 46.08424 91.09623 146.56405
#
# Poissons Ratio (x) = 0.15105 -0.15965
# Poissons Ratio (y) = 0.07642 0.82309
# Poissons Ratio (z) = -0.05020 0.51159
#
# Static dielectric constant tensor:
#      x y z
#    x 1.822150 0.000000 0.000000 
#    y 0.000000 1.764500 0.000000 
#    z 0.000000 0.000000 1.780960 
# 
# From -- ./inp_files/68104.got.cif
#   From: 2010.05.17/outbox.cif.g08.bks.cpg/sg74_35_cif.got.tgz:68104.got - 2010.06.03 17:57:02.
