data_PCOD9537194
_publ_section_title
;
Structure prediction by ZEFSAII (Michael W. Deem and Ramdas Pophale) SiO2 
 PCOD9537194
Probable space group: I M M A
;
_chemical_formula_sum "Si O2"
_cell_formula_units_Z 72
_cell_length_a 9.491043
_cell_length_b 25.878949
_cell_length_c 17.248824
_cell_angle_alpha 90.000000
_cell_angle_beta 90.000000
_cell_angle_gamma 90.000000
_cell_volume 4236.625409
_symmetry_space_group_name_H-M "I M M A"
_symmetry_group_IT_number 74
_symmetry_cell_setting 'orthorhombic'
loop_
_space_group_symop_operation_xyz
x,y,z
-x,1/2-y,z
x,-y,-z
-x,1/2+y,-z
-x,-y,-z
x,1/2+y,-z
-x,y,z
x,1/2-y,z
1/2+x,1/2+y,1/2+z
1/2-x,-y,1/2+z
1/2+x,1/2-y,1/2-z
1/2-x,y,1/2-z
1/2-x,1/2-y,1/2-z
1/2+x,y,1/2-z
1/2-x,1/2+y,1/2+z
1/2+x,-y,1/2+z
loop_
_atom_site_type_symbol
_atom_site_label
_atom_site_fract_x
_atom_site_fract_y
_atom_site_fract_z
Si Si1 0.832837 0.940952 0.505615
Si Si2 0.839393 0.809691 0.875651
Si Si3 0.834435 0.655871 0.052859
Si Si4 0.836179 0.598271 0.679945
Si Si5 0.829016 0.750000 0.167620
O O1 0.752829 0.897388 0.455249
O O2 0.815868 0.927207 0.596178
O O3 0.000000 0.939067 0.486905
O O4 0.782960 0.000000 0.500000
O O5 0.824820 0.750000 0.856245
O O6 0.727019 0.844853 0.833143
O O7 0.000000 0.826556 0.857517
O O8 0.821555 0.817243 0.968273
O O9 0.792654 0.698443 0.117302
O O10 0.000000 0.644019 0.064454
O O11 0.750000 0.573224 0.750000
O O12 0.000000 0.599029 0.698167
O O13 0.750000 0.750000 0.250000
O O14 0.000000 0.750000 0.177075
#
# Coordination Sequence:
#
# PCOD9537194 Si02
#       5
#    16  16  16  16   8
#     4   9  19  36  56  77 101 132 172 217 264 312
#     4   9  16  29  50  72  96 130 164 198 241 289
#     4   9  17  32  53  76 103 134 172 214 257 308
#     4  10  20  33  49  71  99 130 162 201 247 295
#     4  10  20  34  52  78 111 144 177 220 271 320
#
# _framework density 16.994658999999999
#
# number of rings (size 3 to 8) (size 9 to 14) (size 15 to 20)
#    0.000    2.667    1.111    0.667    0.000    3.111 
#    0.000    1.111    0.000    5.333    0.000    0.000 
#    0.000    0.000    0.000    0.000    0.000    0.000 
#
# Total GULP energy -200561.446423 kJ/mol
# GULP energy per Si atom -5571.151290 kJ/mol
# Density = 1.695598 g / cm^3
# Si number density = 16.994659 Si / 1000 Ang^3
#
#
#
# Elastic Constant Matrix: (Units=GPa)
#
#
# Indices 1 2 3 4 5 6 
#
# 1 77.9067 56.8438 49.0030 0.0000 0.0000 0.0000
# 2 56.8438 125.4345 46.4005 0.0000 0.0000 0.0000
# 3 49.0030 46.4005 86.7669 0.0000 0.0000 0.0000
# 4 0.0000 0.0000 0.0000 8.2924 0.0000 0.0000
# 5 0.0000 0.0000 0.0000 0.0000 29.7413 0.0000
# 6 0.0000 0.0000 0.0000 0.0000 0.0000 24.0740
#
#
#
# Elastic Compliance Matrix: (Units=1/GPa)
#
#
# Indices 1 2 3 4 5 6 
#
# 1 0.024448 -0.007444 -0.009827 0.000000 0.000000 0.000000
# 2 -0.007444 0.012205 -0.002323 0.000000 0.000000 0.000000
# 3 -0.009827 -0.002323 0.018317 0.000000 0.000000 0.000000
# 4 0.000000 0.000000 0.000000 0.120592 0.000000 0.000000
# 5 0.000000 0.000000 0.000000 0.000000 0.033623 0.000000
# 6 0.000000 0.000000 0.000000 0.000000 0.000000 0.041539
#
#
# Mechanical properties :
#
#
# Convention : Reuss Voigt Hill
#
# Bulk Modulus (GPa) = 63.35819 66.06697 64.71258
# Shear Modulus (GPa) = 16.93922 21.61227 19.27575
#
# Velocity S-wave (km/s) = 3.16054 3.56997 3.37148
# Velocity P-wave (km/s) = 7.11905 7.48014 7.30183
#
# Compressibility (1/GPa) = 0.01578328
#
# Stress axis : x y z
#
# Youngs Moduli (GPa) = 40.90231 81.93311 54.59436
#
# Poissons Ratio (x) = 0.60994 0.53648
# Poissons Ratio (y) = 0.30449 0.12680
# Poissons Ratio (z) = 0.40193 0.19030
#
# Static dielectric constant tensor:
#      x y z
#    x 1.576160 0.000000 0.000000 
#    y 0.000000 1.567940 0.000000 
#    z 0.000000 0.000000 1.588660 
# 
# From -- ./inp_files/29169.got.cif
#   From: 2010.05.17/outbox.cif.g08.bks.cpg/sg74_15_cif.got.tgz:29169.got - 2010.06.03 17:57:02.
