data_PCOD9537206
_publ_section_title
;
Structure prediction by ZEFSAII (Michael W. Deem and Ramdas Pophale) SiO2 
 PCOD9537206
Probable space group: I M M A
;
_chemical_formula_sum "Si O2"
_cell_formula_units_Z 80
_cell_length_a 15.477172
_cell_length_b 9.241378
_cell_length_c 27.442885
_cell_angle_alpha 90.000000
_cell_angle_beta 90.000000
_cell_angle_gamma 90.000000
_cell_volume 3925.166732
_symmetry_space_group_name_H-M "I M M A"
_symmetry_group_IT_number 74
_symmetry_cell_setting 'orthorhombic'
loop_
_space_group_symop_operation_xyz
x,y,z
-x,1/2-y,z
x,-y,-z
-x,1/2+y,-z
-x,-y,-z
x,1/2+y,-z
-x,y,z
x,1/2-y,z
1/2+x,1/2+y,1/2+z
1/2-x,-y,1/2+z
1/2+x,1/2-y,1/2-z
1/2-x,y,1/2-z
1/2-x,1/2-y,1/2-z
1/2+x,y,1/2-z
1/2-x,1/2+y,1/2+z
1/2+x,-y,1/2+z
loop_
_atom_site_type_symbol
_atom_site_label
_atom_site_fract_x
_atom_site_fract_y
_atom_site_fract_z
Si Si1 0.894995 0.421006 0.547822
Si Si2 0.102995 0.084348 0.652636
Si Si3 0.895744 0.415206 0.145593
Si Si4 0.148140 0.914539 0.243495
Si Si5 0.605688 0.083688 0.548906
O O1 0.860592 0.500000 0.500000
O O2 0.876577 0.250000 0.545781
O O3 0.865202 0.477631 0.601011
O O4 0.000000 0.435343 0.546629
O O5 0.137567 0.250000 0.656096
O O6 0.118389 0.016060 0.705283
O O7 0.000000 0.094346 0.647746
O O8 0.863977 0.250000 0.145268
O O9 0.872772 0.496056 0.195469
O O10 0.865646 0.502839 0.097985
O O11 0.000000 0.410849 0.142851
O O12 0.111841 0.750000 0.238867
O O13 0.250000 0.903568 0.250000
O O14 0.500000 0.084610 0.549174
O O15 0.634552 0.250000 0.548420
O O16 0.632043 0.000000 0.500000
#
# Coordination Sequence:
#
# PCOD9537206 Si02
#       5
#    16  16  16  16  16
#     4   8  13  22  38  61  87 113 140 174 219 267
#     4   8  14  26  45  67  91 119 150 186 230 280
#     4  10  20  33  50  73 100 130 165 205 249 297
#     4  10  20  33  50  71  94 125 165 205 247 295
#     4   9  16  27  46  73 103 131 159 196 243 293
#
# _framework density 20.3813
#
# number of rings (size 3 to 8) (size 9 to 14) (size 15 to 20)
#    0.000    3.000    0.000    3.000    0.000    4.800 
#    0.000    1.000    0.000    4.800    0.000    2.800 
#    0.000    0.000    0.000    0.000    0.000    0.000 
#
# Total GULP energy -222894.742068 kJ/mol
# GULP energy per Si atom -5572.368552 kJ/mol
# Density = 2.033491 g / cm^3
# Si number density = 20.381300 Si / 1000 Ang^3
#
#
#
# Elastic Constant Matrix: (Units=GPa)
#
#
# Indices 1 2 3 4 5 6 
#
# 1 20.5865 2.1734 7.5036 0.0000 0.0000 0.0000
# 2 2.1734 112.5618 107.1270 0.0000 0.0000 0.0000
# 3 7.5036 107.1270 276.7406 0.0000 0.0000 0.0000
# 4 0.0000 0.0000 0.0000 27.4347 0.0000 0.0000
# 5 0.0000 0.0000 0.0000 0.0000 -37.8895 0.0000
# 6 0.0000 0.0000 0.0000 0.0000 0.0000 1.7196
#
#
#
# Elastic Compliance Matrix: (Units=1/GPa)
#
#
# Indices 1 2 3 4 5 6 
#
# 1 0.049078 0.000505 -0.001526 0.000000 0.000000 0.000000
# 2 0.000505 0.014071 -0.005461 0.000000 0.000000 0.000000
# 3 -0.001526 -0.005461 0.005769 0.000000 0.000000 0.000000
# 4 0.000000 0.000000 0.000000 0.036450 0.000000 0.000000
# 5 0.000000 0.000000 0.000000 0.000000 -0.026393 0.000000
# 6 0.000000 0.000000 0.000000 0.000000 0.000000 0.581543
#
#
# Mechanical properties :
#
#
# Convention : Reuss Voigt Hill
#
# Bulk Modulus (GPa) = 17.87171 71.49965 44.68568
# Shear Modulus (GPa) = 7.22403 17.79195 12.50799
#
# Velocity S-wave (km/s) = 1.88471 2.95779 2.47998
# Velocity P-wave (km/s) = 3.67748 6.84265 5.49298
#
# Compressibility (1/GPa) = 0.05595435
#
# Stress axis : x y z
#
# Youngs Moduli (GPa) = 20.37557 71.06650 173.34826
#
# Poissons Ratio (x) = -0.03588 0.26455
# Poissons Ratio (y) = -0.01029 0.94661
# Poissons Ratio (z) = 0.03110 0.38808
#
# Static dielectric constant tensor:
#      x y z
#    x 1.723510 0.000000 0.000000 
#    y 0.000000 1.709810 0.000000 
#    z 0.000000 0.000000 1.763100 
# 
# From -- ./inp_files/63976.got.cif
#   From: 2010.05.17/outbox.cif.g08.bks.cpg/sg74_32_cif.got.tgz:63976.got - 2010.06.03 17:57:02.
