data_PCOD9537779
_publ_section_title
;
Structure prediction by ZEFSAII (Michael W. Deem and Ramdas Pophale) SiO2 
 PCOD9537779
Probable space group: I M M A
;
_chemical_formula_sum "Si O2"
_cell_formula_units_Z 88
_cell_length_a 12.399571
_cell_length_b 14.908781
_cell_length_c 24.892587
_cell_angle_alpha 90.000000
_cell_angle_beta 90.000000
_cell_angle_gamma 90.000000
_cell_volume 4601.705579
_symmetry_space_group_name_H-M "I M M A"
_symmetry_group_IT_number 74
_symmetry_cell_setting 'orthorhombic'
loop_
_space_group_symop_operation_xyz
x,y,z
-x,1/2-y,z
x,-y,-z
-x,1/2+y,-z
-x,-y,-z
x,1/2+y,-z
-x,y,z
x,1/2-y,z
1/2+x,1/2+y,1/2+z
1/2-x,-y,1/2+z
1/2+x,1/2-y,1/2-z
1/2-x,y,1/2-z
1/2-x,1/2-y,1/2-z
1/2+x,y,1/2-z
1/2-x,1/2+y,1/2+z
1/2+x,-y,1/2+z
loop_
_atom_site_type_symbol
_atom_site_label
_atom_site_fract_x
_atom_site_fract_y
_atom_site_fract_z
Si Si1 0.127572 0.356748 0.378501
Si Si2 0.261796 0.512219 0.688682
Si Si3 0.740382 0.355517 0.482848
Si Si4 0.000000 0.655163 0.132947
Si Si5 0.000000 0.416249 0.039437
Si Si6 0.736805 0.145210 0.600880
Si Si7 0.500000 0.033443 0.335602
O O1 0.147626 0.250000 0.371393
O O2 0.175294 0.414224 0.329827
O O3 0.190590 0.387976 0.432258
O O4 0.000000 0.369688 0.384304
O O5 0.250000 0.483298 0.750000
O O6 0.246507 0.426812 0.648429
O O7 0.380724 0.558702 0.683667
O O8 0.761822 0.250000 0.487175
O O9 0.613671 0.367741 0.470622
O O10 0.771102 0.390545 0.542230
O O11 0.106584 0.650335 0.097652
O O12 0.000000 0.573681 0.173420
O O13 0.000000 0.750000 0.162139
O O14 0.000000 0.448414 0.100902
O O15 0.000000 0.500000 0.000000
O O16 0.772553 0.250000 0.610512
#
# Coordination Sequence:
#
# PCOD9537779 Si02
#       7
#    16  16  16   8   8  16   8
#     4  10  23  43  63  85 114 154 200 245 296 355
#     4  11  23  39  62  85 118 157 200 245 290 340
#     4  10  20  35  58  87 121 152 185 235 298 356
#     4   8  14  28  49  77 117 155 182 220 284 342
#     4  12  19  29  56  88 125 148 182 235 295 351
#     4   9  18  34  57  89 122 153 191 234 287 350
#     4  10  20  35  52  89 115 144 192 249 287 339
#
# _framework density 19.123343999999999
#
# number of rings (size 3 to 8) (size 9 to 14) (size 15 to 20)
#    0.000    2.000    1.818    3.000    1.273    2.182 
#    0.000    2.273    0.000    1.636    0.000    0.000 
#    0.000    0.000    0.000    0.000    0.000    0.000 
#
# Total GULP energy -245071.571156 kJ/mol
# GULP energy per Si atom -5569.808435 kJ/mol
# Density = 1.907982 g / cm^3
# Si number density = 19.123344 Si / 1000 Ang^3
#
#
#
# Elastic Constant Matrix: (Units=GPa)
#
#
# Indices 1 2 3 4 5 6 
#
# 1 58.2942 21.5254 23.4726 0.0000 0.0000 0.0000
# 2 21.5254 63.5758 36.0719 0.0000 0.0000 0.0000
# 3 23.4726 36.0719 129.5223 0.0000 0.0000 0.0000
# 4 0.0000 0.0000 0.0000 23.5212 0.0000 0.0000
# 5 0.0000 0.0000 0.0000 0.0000 8.6730 0.0000
# 6 0.0000 0.0000 0.0000 0.0000 0.0000 15.4751
#
#
#
# Elastic Compliance Matrix: (Units=1/GPa)
#
#
# Indices 1 2 3 4 5 6 
#
# 1 0.020063 -0.005618 -0.002071 0.000000 0.000000 0.000000
# 2 -0.005618 0.020254 -0.004623 0.000000 0.000000 0.000000
# 3 -0.002071 -0.004623 0.009383 0.000000 0.000000 0.000000
# 4 0.000000 0.000000 0.000000 0.042515 0.000000 0.000000
# 5 0.000000 0.000000 0.000000 0.000000 0.115300 0.000000
# 6 0.000000 0.000000 0.000000 0.000000 0.000000 0.064620
#
#
# Mechanical properties :
#
#
# Convention : Reuss Voigt Hill
#
# Bulk Modulus (GPa) = 39.87712 45.94801 42.91256
# Shear Modulus (GPa) = 16.38712 20.88869 18.63791
#
# Velocity S-wave (km/s) = 2.93049 3.30860 3.12527
# Velocity P-wave (km/s) = 5.68755 6.21893 5.95917
#
# Compressibility (1/GPa) = 0.02507704
#
# Stress axis : x y z
#
# Youngs Moduli (GPa) = 49.84365 49.37275 106.57025
#
# Poissons Ratio (x) = 0.27735 0.22075
# Poissons Ratio (y) = 0.28000 0.49264
# Poissons Ratio (z) = 0.10324 0.22824
#
# Static dielectric constant tensor:
#      x y z
#    x 1.693800 0.000000 0.000000 
#    y 0.000000 1.716270 0.000000 
#    z 0.000000 0.000000 1.682360 
# 
# From -- ./inp_files/58664.got.cif
#   From: 2010.05.17/outbox.cif.g08.bks.cpg/sg74_30_cif.got.tgz:58664.got - 2010.06.03 17:57:02.
