data_PCOD9537142
_publ_section_title
;
Structure prediction by ZEFSAII (Michael W. Deem and Ramdas Pophale) SiO2 
 PCOD9537142
Probable space group: I M M A
;
_chemical_formula_sum "Si O2"
_cell_formula_units_Z 96
_cell_length_a 14.180250
_cell_length_b 28.308139
_cell_length_c 10.605465
_cell_angle_alpha 90.000000
_cell_angle_beta 90.000000
_cell_angle_gamma 90.000000
_cell_volume 4257.208514
_symmetry_space_group_name_H-M "I M M A"
_symmetry_group_IT_number 74
_symmetry_cell_setting 'orthorhombic'
loop_
_space_group_symop_operation_xyz
x,y,z
-x,1/2-y,z
x,-y,-z
-x,1/2+y,-z
-x,-y,-z
x,1/2+y,-z
-x,y,z
x,1/2-y,z
1/2+x,1/2+y,1/2+z
1/2-x,-y,1/2+z
1/2+x,1/2-y,1/2-z
1/2-x,y,1/2-z
1/2-x,1/2-y,1/2-z
1/2+x,y,1/2-z
1/2-x,1/2+y,1/2+z
1/2+x,-y,1/2+z
loop_
_atom_site_type_symbol
_atom_site_label
_atom_site_fract_x
_atom_site_fract_y
_atom_site_fract_z
Si Si1 0.384712 0.194664 0.016527
Si Si2 0.355092 0.009138 0.865161
Si Si3 0.385592 0.304549 0.297149
Si Si4 0.114897 0.618049 0.305681
Si Si5 0.143326 0.969370 0.889084
Si Si6 0.613986 0.129955 0.516921
O O1 0.500000 0.195346 0.015421
O O2 0.356223 0.250000 0.997829
O O3 0.356195 0.157822 0.907577
O O4 0.356482 0.177730 0.157943
O O5 0.352437 0.065069 0.839185
O O6 0.250420 0.987593 0.877525
O O7 0.398246 0.981669 0.746612
O O8 0.400374 0.000000 0.000000
O O9 0.500000 0.308068 0.298608
O O10 0.360069 0.250000 0.299805
O O11 0.352244 0.328431 0.425717
O O12 0.000000 0.616656 0.306762
O O13 0.146099 0.629057 0.162028
O O14 0.139948 0.916629 0.938488
O O15 0.099061 0.000000 0.000000
O O16 0.500000 0.131799 0.523706
#
# Coordination Sequence:
#
# PCOD9537142 Si02
#       6
#    16  16  16  16  16  16
#     4   8  15  29  48  72 107 144 173 209 259 313
#     4  10  22  36  53  74 100 140 183 220 262 314
#     4   8  15  29  48  73 106 141 176 212 256 312
#     4  10  20  33  50  79 112 138 174 221 266 312
#     4  10  20  38  54  71 103 139 181 218 261 318
#     4  10  20  32  52  80 108 140 175 219 267 311
#
# _framework density 22.549989
#
# number of rings (size 3 to 8) (size 9 to 14) (size 15 to 20)
#    0.000    2.667    1.667    1.000    2.333    2.000 
#    0.000    3.333    0.000    0.000    0.000    9.333 
#    0.000    0.000    0.000    0.000    0.000    0.333 
#
# Total GULP energy -268005.753991 kJ/mol
# GULP energy per Si atom -5583.453208 kJ/mol
# Density = 2.249866 g / cm^3
# Si number density = 22.549989 Si / 1000 Ang^3
#
#
#
# Elastic Constant Matrix: (Units=GPa)
#
#
# Indices 1 2 3 4 5 6 
#
# 1 65.5062 -32.4604 0.1570 -0.0002 0.0001 0.0001
# 2 -32.4604 47.4857 80.7860 -0.0003 0.0002 0.0003
# 3 0.1570 80.7860 273.4969 -0.0006 0.0002 -0.0002
# 4 -0.0002 -0.0003 -0.0006 50.9486 0.0000 0.0000
# 5 0.0001 0.0002 0.0002 0.0000 -15.8032 0.0001
# 6 0.0001 0.0003 -0.0002 0.0000 0.0001 21.4265
#
#
#
# Elastic Compliance Matrix: (Units=1/GPa)
#
#
# Indices 1 2 3 4 5 6 
#
# 1 0.048136 0.066238 -0.019593 0.000000 0.000001 -0.000001
# 2 0.066238 0.133479 -0.039465 0.000001 0.000001 -0.000003
# 3 -0.019593 -0.039465 0.015325 0.000000 0.000000 0.000001
# 4 0.000000 0.000001 0.000000 0.019628 0.000000 0.000000
# 5 0.000001 0.000001 0.000000 0.000000 -0.063278 0.000000
# 6 -0.000001 -0.000003 0.000001 0.000000 0.000000 0.046671
#
#
# Mechanical properties :
#
#
# Convention : Reuss Voigt Hill
#
# Bulk Modulus (GPa) = 4.73265 53.71710 29.22487
# Shear Modulus (GPa) = 19.52866 33.84812 26.68839
#
# Velocity S-wave (km/s) = 2.94601 3.87851 3.44397
# Velocity P-wave (km/s) = 3.69801 6.62798 5.36682
#
# Compressibility (1/GPa) = 0.21129817
#
# Stress axis : x y z
#
# Youngs Moduli (GPa) = 20.77467 7.49182 65.25324
#
# Poissons Ratio (x) = -0.49624 1.27851
# Poissons Ratio (y) = -1.37607 2.57524
# Poissons Ratio (z) = 0.40704 0.29567
#
# Static dielectric constant tensor:
#      x y z
#    x 1.835520 0.000000 0.000000 
#    y 0.000000 1.857770 0.000000 
#    z 0.000000 0.000000 1.977140 
# 
# From -- ./inp_files/24083.got.cif
#   From: 2010.05.17/outbox.cif.g08.bks.cpg/sg74_13_cif.got.tgz:24083.got - 2010.06.03 17:57:02.
