data_PCOD9537115
_publ_section_title
;
Structure prediction by ZEFSAII (Michael W. Deem and Ramdas Pophale) SiO2 
 PCOD9537115
Probable space group: I M M A
;
_chemical_formula_sum "Si O2"
_cell_formula_units_Z 128
_cell_length_a 17.623217
_cell_length_b 21.520658
_cell_length_c 19.653626
_cell_angle_alpha 90.000000
_cell_angle_beta 90.000000
_cell_angle_gamma 90.000000
_cell_volume 7453.897598
_symmetry_space_group_name_H-M "I M M A"
_symmetry_group_IT_number 74
_symmetry_cell_setting 'orthorhombic'
loop_
_space_group_symop_operation_xyz
x,y,z
-x,1/2-y,z
x,-y,-z
-x,1/2+y,-z
-x,-y,-z
x,1/2+y,-z
-x,y,z
x,1/2-y,z
1/2+x,1/2+y,1/2+z
1/2-x,-y,1/2+z
1/2+x,1/2-y,1/2-z
1/2-x,y,1/2-z
1/2-x,1/2-y,1/2-z
1/2+x,y,1/2-z
1/2-x,1/2+y,1/2+z
1/2+x,-y,1/2+z
loop_
_atom_site_type_symbol
_atom_site_label
_atom_site_fract_x
_atom_site_fract_y
_atom_site_fract_z
Si Si1 0.179030 0.102578 0.297294
Si Si2 0.585154 0.933922 0.026328
Si Si3 0.089149 0.401239 0.164599
Si Si4 0.697790 0.179357 0.962974
Si Si5 0.085616 0.453777 0.821668
Si Si6 0.717626 0.321263 0.396958
Si Si7 0.235881 0.121703 0.826965
Si Si8 0.871135 0.973001 0.331382
O O1 0.250000 0.080199 0.250000
O O2 0.116063 0.118783 0.240795
O O3 0.215378 0.152988 0.347441
O O4 0.145044 0.045700 0.339464
O O5 0.500000 0.926914 0.998240
O O6 0.635927 0.873045 0.018090
O O7 0.583158 0.944560 0.107081
O O8 0.617856 0.000000 0.000000
O O9 0.102837 0.475426 0.154793
O O10 0.144157 0.363130 0.115817
O O11 0.000000 0.390154 0.155809
O O12 0.667345 0.250000 0.960920
O O13 0.735557 0.163330 0.889923
O O14 0.757075 0.176117 0.024905
O O15 0.150620 0.403691 0.838119
O O16 0.088889 0.461043 0.740033
O O17 0.000000 0.437163 0.843156
O O18 0.702382 0.250000 0.378281
O O19 0.250000 0.147929 0.750000
O O20 0.290280 0.061384 0.828728
#
# Coordination Sequence:
#
# PCOD9537115 Si02
#       8
#    16  16  16  16  16  16  16  16
#     4   9  16  28  48  72  99 130 165 203 245 294
#     4  10  20  32  50  77 104 131 167 209 250 298
#     4   9  18  31  49  75 103 131 165 207 255 301
#     4  10  22  38  54  73 101 139 175 209 258 311
#     4   9  16  28  48  74 102 127 156 203 261 310
#     4  10  20  34  49  65  93 135 177 212 250 302
#     4   9  17  31  53  76  97 126 169 213 251 301
#     4   9  15  27  47  72 100 128 157 198 254 308
#
# _framework density 17.172224
#
# number of rings (size 3 to 8) (size 9 to 14) (size 15 to 20)
#    0.000    2.625    0.000    3.750    0.000    4.500 
#    0.000    1.250    0.000    3.375    0.000    0.000 
#    0.000    0.000    0.000    0.000    0.000    0.000 
#
# Total GULP energy -356305.770290 kJ/mol
# GULP energy per Si atom -5567.277661 kJ/mol
# Density = 1.713314 g / cm^3
# Si number density = 17.172224 Si / 1000 Ang^3
#
#
#
# Elastic Constant Matrix: (Units=GPa)
#
#
# Indices 1 2 3 4 5 6 
#
# 1 84.0409 42.8295 13.6091 0.0000 0.0000 0.0000
# 2 42.8295 93.9884 31.0091 0.0000 0.0000 0.0000
# 3 13.6091 31.0091 48.1571 0.0000 0.0000 0.0000
# 4 0.0000 0.0000 0.0000 25.6039 0.0000 0.0000
# 5 0.0000 0.0000 0.0000 0.0000 8.8131 0.0000
# 6 0.0000 0.0000 0.0000 0.0000 0.0000 8.4835
#
#
#
# Elastic Compliance Matrix: (Units=1/GPa)
#
#
# Indices 1 2 3 4 5 6 
#
# 1 0.015500 -0.007133 0.000213 0.000000 0.000000 0.000000
# 2 -0.007133 0.016793 -0.008797 0.000000 0.000000 0.000000
# 3 0.000213 -0.008797 0.026370 0.000000 0.000000 0.000000
# 4 0.000000 0.000000 0.000000 0.039057 0.000000 0.000000
# 5 0.000000 0.000000 0.000000 0.000000 0.113467 0.000000
# 6 0.000000 0.000000 0.000000 0.000000 0.000000 0.117876
#
#
# Mechanical properties :
#
#
# Convention : Reuss Voigt Hill
#
# Bulk Modulus (GPa) = 36.72783 44.56466 40.64625
# Shear Modulus (GPa) = 13.52916 17.82935 15.67925
#
# Velocity S-wave (km/s) = 2.80991 3.22571 3.02496
# Velocity P-wave (km/s) = 5.65348 6.31518 5.99347
#
# Compressibility (1/GPa) = 0.02722731
#
# Stress axis : x y z
#
# Youngs Moduli (GPa) = 64.51680 59.54993 37.92221
#
# Poissons Ratio (x) = 0.42479 -0.00808
# Poissons Ratio (y) = 0.46023 0.33361
# Poissons Ratio (z) = -0.01375 0.52387
#
# Static dielectric constant tensor:
#      x y z
#    x 1.608750 0.000000 0.000000 
#    y 0.000000 1.573160 0.000000 
#    z 0.000000 0.000000 1.600800 
# 
# From -- ./inp_files/53416.got.cif
#   From: 2010.05.17/outbox.cif.g08.bks.cpg/sg74_27_cif.got.tgz:53416.got - 2010.06.03 17:57:02.
