data_PCOD9537252
_publ_section_title
;
Structure prediction by ZEFSAII (Michael W. Deem and Ramdas Pophale) SiO2 
 PCOD9537252
Probable space group: I M M A
;
_chemical_formula_sum "Si O2"
_cell_formula_units_Z 96
_cell_length_a 14.922913
_cell_length_b 9.473323
_cell_length_c 31.736949
_cell_angle_alpha 90.000000
_cell_angle_beta 90.000000
_cell_angle_gamma 90.000000
_cell_volume 4486.638990
_symmetry_space_group_name_H-M "I M M A"
_symmetry_group_IT_number 74
_symmetry_cell_setting 'orthorhombic'
loop_
_space_group_symop_operation_xyz
x,y,z
-x,1/2-y,z
x,-y,-z
-x,1/2+y,-z
-x,-y,-z
x,1/2+y,-z
-x,y,z
x,1/2-y,z
1/2+x,1/2+y,1/2+z
1/2-x,-y,1/2+z
1/2+x,1/2-y,1/2-z
1/2-x,y,1/2-z
1/2-x,1/2-y,1/2-z
1/2+x,y,1/2-z
1/2-x,1/2+y,1/2+z
1/2+x,-y,1/2+z
loop_
_atom_site_type_symbol
_atom_site_label
_atom_site_fract_x
_atom_site_fract_y
_atom_site_fract_z
Si Si1 0.647410 0.091639 0.038914
Si Si2 0.392159 0.089130 0.879580
Si Si3 0.360857 0.089554 0.460557
Si Si4 0.609362 0.587419 0.214980
Si Si5 0.390171 0.912068 0.704318
Si Si6 0.107438 0.910483 0.123541
O O1 0.610527 0.250000 0.039224
O O2 0.754232 0.101593 0.032967
O O3 0.634232 0.013897 0.083155
O O4 0.611002 0.000000 0.000000
O O5 0.500000 0.091906 0.878524
O O6 0.361927 0.250000 0.888144
O O7 0.362242 0.048095 0.832430
O O8 0.395899 0.250000 0.458026
O O9 0.396883 0.000000 0.500000
O O10 0.374727 0.002199 0.417900
O O11 0.500000 0.586357 0.215289
O O12 0.636195 0.750000 0.223071
O O13 0.638528 0.484145 0.252018
O O14 0.500000 0.911437 0.703977
O O15 0.361012 0.750000 0.700551
O O16 0.360202 0.007008 0.664928
O O17 0.142343 0.750000 0.120469
O O18 0.000000 0.900765 0.127549
#
# Coordination Sequence:
#
# PCOD9537252 Si02
#       6
#    16  16  16  16  16  16
#     4  10  21  36  54  74  97 129 167 205 247 297
#     4   9  18  32  51  76 104 133 166 205 248 292
#     4  10  21  37  55  74  97 128 166 204 246 297
#     4   8  14  26  44  67  97 131 164 198 238 287
#     4   9  16  26  43  69 100 132 164 199 240 286
#     4  10  20  33  51  76 103 131 164 202 245 291
#
# _framework density 21.396861999999999
#
# number of rings (size 3 to 8) (size 9 to 14) (size 15 to 20)
#    0.000    2.667    0.000    3.000    0.000    6.667 
#    0.000    1.667    0.000    1.000    0.000    7.000 
#    0.000    0.000    0.000    0.000    0.000    0.000 
#
# Total GULP energy -268090.608964 kJ/mol
# GULP energy per Si atom -5585.221020 kJ/mol
# Density = 2.134816 g / cm^3
# Si number density = 21.396862 Si / 1000 Ang^3
#
#
#
# Elastic Constant Matrix: (Units=GPa)
#
#
# Indices 1 2 3 4 5 6 
#
# 1 53.0328 10.0439 0.2543 0.0000 0.0000 0.0000
# 2 10.0439 227.9123 157.3194 0.0000 0.0000 0.0000
# 3 0.2543 157.3194 206.3268 0.0000 0.0000 0.0000
# 4 0.0000 0.0000 0.0000 27.0248 0.0000 0.0000
# 5 0.0000 0.0000 0.0000 0.0000 31.6032 0.0000
# 6 0.0000 0.0000 0.0000 0.0000 0.0000 13.0110
#
#
#
# Elastic Compliance Matrix: (Units=1/GPa)
#
#
# Indices 1 2 3 4 5 6 
#
# 1 0.019181 -0.001750 0.001311 0.000000 0.000000 0.000000
# 2 -0.001750 0.009422 -0.007182 0.000000 0.000000 0.000000
# 3 0.001311 -0.007182 0.010321 0.000000 0.000000 0.000000
# 4 0.000000 0.000000 0.000000 0.037003 0.000000 0.000000
# 5 0.000000 0.000000 0.000000 0.000000 0.031642 0.000000
# 6 0.000000 0.000000 0.000000 0.000000 0.000000 0.076858
#
#
# Mechanical properties :
#
#
# Convention : Reuss Voigt Hill
#
# Bulk Modulus (GPa) = 42.22597 91.38965 66.80781
# Shear Modulus (GPa) = 24.08874 35.63807 29.86340
#
# Velocity S-wave (km/s) = 3.35894 4.08557 3.73995
# Velocity P-wave (km/s) = 5.90092 8.06600 7.06686
#
# Compressibility (1/GPa) = 0.02368211
#
# Stress axis : x y z
#
# Youngs Moduli (GPa) = 52.13375 106.13039 96.88688
#
# Poissons Ratio (x) = 0.18573 -0.12699
# Poissons Ratio (y) = 0.09124 0.69586
# Poissons Ratio (z) = -0.06833 0.76225
#
# Static dielectric constant tensor:
#      x y z
#    x 1.826240 0.000000 0.000000 
#    y 0.000000 1.750810 0.000000 
#    z 0.000000 0.000000 1.732660 
# 
# From -- ./inp_files/64340.got.cif
#   From: 2010.05.17/outbox.cif.g08.bks.cpg/sg74_33_cif.got.tgz:64340.got - 2010.06.03 17:57:02.
