data_PCOD9537028
_publ_section_title
;
Structure prediction by ZEFSAII (Michael W. Deem and Ramdas Pophale) SiO2 
 PCOD9537028
Probable space group: I M M A
;
_chemical_formula_sum "Si O2"
_cell_formula_units_Z 80
_cell_length_a 14.545015
_cell_length_b 22.377816
_cell_length_c 12.079384
_cell_angle_alpha 90.000000
_cell_angle_beta 90.000000
_cell_angle_gamma 90.000000
_cell_volume 3931.666387
_symmetry_space_group_name_H-M "I M M A"
_symmetry_group_IT_number 74
_symmetry_cell_setting 'orthorhombic'
loop_
_space_group_symop_operation_xyz
x,y,z
-x,1/2-y,z
x,-y,-z
-x,1/2+y,-z
-x,-y,-z
x,1/2+y,-z
-x,y,z
x,1/2-y,z
1/2+x,1/2+y,1/2+z
1/2-x,-y,1/2+z
1/2+x,1/2-y,1/2-z
1/2-x,y,1/2-z
1/2-x,1/2-y,1/2-z
1/2+x,y,1/2-z
1/2-x,1/2+y,1/2+z
1/2+x,-y,1/2+z
loop_
_atom_site_type_symbol
_atom_site_label
_atom_site_fract_x
_atom_site_fract_y
_atom_site_fract_z
Si Si1 0.643014 0.816148 0.222227
Si Si2 0.112983 0.442307 0.073279
Si Si3 0.604773 0.818796 0.469076
Si Si4 0.887561 0.465392 0.324290
Si Si5 0.890069 0.084089 0.550190
O O1 0.608431 0.750000 0.199049
O O2 0.750000 0.814174 0.250000
O O3 0.600856 0.835814 0.339091
O O4 0.629391 0.856730 0.116889
O O5 0.142762 0.451958 0.200180
O O6 0.000000 0.441333 0.069008
O O7 0.141072 0.500000 0.000000
O O8 0.145582 0.377374 0.028671
O O9 0.500000 0.813755 0.509970
O O10 0.644174 0.750000 0.476604
O O11 0.856830 0.529388 0.372820
O O12 0.858695 0.420909 0.423333
O O13 0.000000 0.465672 0.318627
O O14 0.000000 0.076650 0.545015
#
# Coordination Sequence:
#
# PCOD9537028 Si02
#       5
#    16  16  16  16  16
#     4  10  20  32  47  66  91 125 160 196 238 282
#     4   9  15  24  43  71  97 120 151 189 232 284
#     4   9  17  29  46  68  92 118 153 196 235 274
#     4   8  15  27  47  74  97 120 149 186 239 288
#     4   9  16  29  50  71  94 122 153 194 237 281
#
# _framework density 20.347607
#
# number of rings (size 3 to 8) (size 9 to 14) (size 15 to 20)
#    0.000    3.000    0.000    3.000    0.000    4.400 
#    0.000    1.000   13.200    3.600    0.000    4.200 
#    0.000    0.000    0.000    0.000    0.000    0.000 
#
# Total GULP energy -222908.210032 kJ/mol
# GULP energy per Si atom -5572.705251 kJ/mol
# Density = 2.030130 g / cm^3
# Si number density = 20.347607 Si / 1000 Ang^3
#
#
#
# Elastic Constant Matrix: (Units=GPa)
#
#
# Indices 1 2 3 4 5 6 
#
# 1 38.7842 7.7895 5.0123 0.0000 0.0000 0.0000
# 2 7.7895 114.9502 117.2216 0.0000 0.0000 0.0000
# 3 5.0123 117.2216 207.4610 -0.0001 0.0000 0.0000
# 4 0.0000 0.0000 -0.0001 34.0551 0.0000 0.0000
# 5 0.0000 0.0000 0.0000 0.0000 5.8249 0.0000
# 6 0.0000 0.0000 0.0000 0.0000 0.0000 5.3548
#
#
#
# Elastic Compliance Matrix: (Units=1/GPa)
#
#
# Indices 1 2 3 4 5 6 
#
# 1 0.026206 -0.002667 0.000874 0.000000 0.000000 0.000000
# 2 -0.002667 0.020798 -0.011687 0.000000 0.000000 0.000000
# 3 0.000874 -0.011687 0.011403 0.000000 0.000000 0.000000
# 4 0.000000 0.000000 0.000000 0.029364 0.000000 0.000000
# 5 0.000000 0.000000 0.000000 0.000000 0.171677 0.000000
# 6 0.000000 0.000000 0.000000 0.000000 0.000000 0.186749
#
#
# Mechanical properties :
#
#
# Convention : Reuss Voigt Hill
#
# Bulk Modulus (GPa) = 31.79985 69.02694 50.41340
# Shear Modulus (GPa) = 10.33827 24.45842 17.39834
#
# Velocity S-wave (km/s) = 2.25651 3.47079 2.92731
# Velocity P-wave (km/s) = 4.73829 7.07526 6.02124
#
# Compressibility (1/GPa) = 0.03144668
#
# Stress axis : x y z
#
# Youngs Moduli (GPa) = 38.15863 48.08089 87.69854
#
# Poissons Ratio (x) = 0.12822 -0.07662
# Poissons Ratio (y) = 0.10176 1.02495
# Poissons Ratio (z) = -0.03334 0.56193
#
# Static dielectric constant tensor:
#      x y z
#    x 1.744370 0.000000 0.000000 
#    y 0.000000 1.755600 0.000000 
#    z 0.000000 0.000000 1.807100 
# 
# From -- ./inp_files/20469.got.cif
#   From: 2010.05.17/outbox.cif.g08.bks.cpg/sg74_11_cif.got.tgz:20469.got - 2010.06.03 17:57:02.
