data_PCOD9537653
_publ_section_title
;
Structure prediction by ZEFSAII (Michael W. Deem and Ramdas Pophale) SiO2 
 PCOD9537653
Probable space group: I M M A
;
_chemical_formula_sum "Si O2"
_cell_formula_units_Z 80
_cell_length_a 28.191441
_cell_length_b 14.945804
_cell_length_c 8.520514
_cell_angle_alpha 90.000000
_cell_angle_beta 90.000000
_cell_angle_gamma 90.000000
_cell_volume 3590.065335
_symmetry_space_group_name_H-M "I M M A"
_symmetry_group_IT_number 74
_symmetry_cell_setting 'orthorhombic'
loop_
_space_group_symop_operation_xyz
x,y,z
-x,1/2-y,z
x,-y,-z
-x,1/2+y,-z
-x,-y,-z
x,1/2+y,-z
-x,y,z
x,1/2-y,z
1/2+x,1/2+y,1/2+z
1/2-x,-y,1/2+z
1/2+x,1/2-y,1/2-z
1/2-x,y,1/2-z
1/2-x,1/2-y,1/2-z
1/2+x,y,1/2-z
1/2-x,1/2+y,1/2+z
1/2+x,-y,1/2+z
loop_
_atom_site_type_symbol
_atom_site_label
_atom_site_fract_x
_atom_site_fract_y
_atom_site_fract_z
Si Si1 0.948634 0.602584 0.439465
Si Si2 0.747938 0.399077 0.435189
Si Si3 0.050180 0.141759 0.932825
Si Si4 0.845426 0.399217 0.563454
Si Si5 0.849234 0.353176 0.914685
O O1 0.948536 0.500000 0.500000
O O2 0.949001 0.610912 0.249487
O O3 0.896791 0.641167 0.483775
O O4 0.000000 0.641133 0.491718
O O5 0.746254 0.500000 0.500000
O O6 0.750000 0.399431 0.250000
O O7 0.796513 0.357028 0.502608
O O8 0.698385 0.357696 0.487635
O O9 0.048278 0.250000 0.936344
O O10 0.101913 0.115877 0.998435
O O11 0.000000 0.109588 0.004100
O O12 0.845907 0.500000 0.500000
O O13 0.842618 0.404394 0.751623
O O14 0.856553 0.250000 0.866990
#
# Coordination Sequence:
#
# PCOD9537653 Si02
#       5
#    16  16  16  16  16
#     4   8  13  22  40  67  96 125 160 204 247 291
#     4  11  22  36  53  72 101 141 181 219 263 319
#     4   8  14  26  46  73 103 133 165 203 252 309
#     4   9  17  31  50  73 102 136 172 205 251 312
#     4  10  20  34  55  82 108 136 174 220 263 304
#
# _framework density 22.283716999999999
#
# number of rings (size 3 to 8) (size 9 to 14) (size 15 to 20)
#    0.000    2.800    0.000    3.000    0.000    2.000 
#    0.000    0.000    0.000    1.800    0.000    0.000 
#    0.000    6.400    0.000    0.000    0.000    0.000 
#
# Total GULP energy -222764.688810 kJ/mol
# GULP energy per Si atom -5569.117220 kJ/mol
# Density = 2.223300 g / cm^3
# Si number density = 22.283717 Si / 1000 Ang^3
#
#
#
# Elastic Constant Matrix: (Units=GPa)
#
#
# Indices 1 2 3 4 5 6 
#
# 1 303.5903 7.3454 50.2637 0.0000 0.0000 0.0000
# 2 7.3454 54.2556 0.8144 0.0000 0.0000 0.0000
# 3 50.2637 0.8144 52.9181 0.0000 0.0000 0.0000
# 4 0.0000 0.0000 0.0000 -12.8672 0.0000 0.0000
# 5 0.0000 0.0000 0.0000 0.0000 10.8874 0.0000
# 6 0.0000 0.0000 0.0000 0.0000 0.0000 -239.9047
#
#
#
# Elastic Compliance Matrix: (Units=1/GPa)
#
#
# Indices 1 2 3 4 5 6 
#
# 1 0.003921 -0.000475 -0.003717 0.000000 0.000000 0.000000
# 2 -0.000475 0.018493 0.000167 0.000000 0.000000 0.000000
# 3 -0.003717 0.000167 0.022425 0.000000 0.000000 0.000000
# 4 0.000000 0.000000 0.000000 -0.077717 0.000000 0.000000
# 5 0.000000 0.000000 0.000000 0.000000 0.091850 0.000000
# 6 0.000000 0.000000 0.000000 0.000000 0.000000 -0.004168
#
#
# Mechanical properties :
#
#
# Convention : Reuss Voigt Hill
#
# Bulk Modulus (GPa) = 27.18253 58.62343 42.90298
# Shear Modulus (GPa) = 66.56330 -24.88754 20.83788
#
# Velocity S-wave (km/s) = 5.47135 -3.34555 3.06129
# Velocity P-wave (km/s) = 7.22074 3.38249 5.63828
#
# Compressibility (1/GPa) = 0.03678834
#
# Stress axis : x y z
#
# Youngs Moduli (GPa) = 255.05161 54.07425 44.59325
#
# Poissons Ratio (x) = 0.02569 0.16574
# Poissons Ratio (y) = 0.12115 -0.00743
# Poissons Ratio (z) = 0.94797 -0.00901
#
# Static dielectric constant tensor:
#      x y z
#    x 1.976690 0.000000 0.000000 
#    y 0.000000 1.917180 0.000000 
#    z 0.000000 0.000000 1.737060 
# 
# From -- ./inp_files/10967.got.cif
#   From: 2010.05.17/outbox.cif.g08.bks.cpg/sg74_6_cif.got.tgz:10967.got - 2010.06.03 17:57:02.
