data_PCOD9537589
_publ_section_title
;
Structure prediction by ZEFSAII (Michael W. Deem and Ramdas Pophale) SiO2 
 PCOD9537589
Probable space group: I M M A
;
_chemical_formula_sum "Si O2"
_cell_formula_units_Z 96
_cell_length_a 8.798870
_cell_length_b 20.135330
_cell_length_c 30.215360
_cell_angle_alpha 90.000000
_cell_angle_beta 90.000000
_cell_angle_gamma 90.000000
_cell_volume 5353.199465
_symmetry_space_group_name_H-M "I M M A"
_symmetry_group_IT_number 74
_symmetry_cell_setting 'orthorhombic'
loop_
_space_group_symop_operation_xyz
x,y,z
-x,1/2-y,z
x,-y,-z
-x,1/2+y,-z
-x,-y,-z
x,1/2+y,-z
-x,y,z
x,1/2-y,z
1/2+x,1/2+y,1/2+z
1/2-x,-y,1/2+z
1/2+x,1/2-y,1/2-z
1/2-x,y,1/2-z
1/2-x,1/2-y,1/2-z
1/2+x,y,1/2-z
1/2-x,1/2+y,1/2+z
1/2+x,-y,1/2+z
loop_
_atom_site_type_symbol
_atom_site_label
_atom_site_fract_x
_atom_site_fract_y
_atom_site_fract_z
Si Si1 0.818569 0.174418 0.481237
Si Si2 0.681487 0.042935 0.201065
Si Si3 0.819054 0.552225 0.377089
Si Si4 0.680680 0.461865 0.453509
Si Si5 0.817841 0.322222 0.200167
Si Si6 0.822874 0.326150 0.921856
O O1 0.774325 0.250000 0.467956
O O2 0.737574 0.113842 0.456597
O O3 0.771184 0.167053 0.532737
O O4 0.000000 0.168371 0.476931
O O5 0.500000 0.049351 0.204294
O O6 0.750000 0.035181 0.250000
O O7 0.747332 0.111247 0.180277
O O8 0.719728 0.981755 0.169479
O O9 0.765755 0.501901 0.415344
O O10 0.736991 0.621330 0.386786
O O11 0.000000 0.560989 0.379465
O O12 0.710754 0.500000 0.500000
O O13 0.500000 0.463634 0.445948
O O14 0.780830 0.250000 0.179777
O O15 0.750000 0.320683 0.250000
O O16 0.000000 0.328166 0.202475
O O17 0.809162 0.250000 0.906884
O O18 0.000000 0.339473 0.932262
#
# Coordination Sequence:
#
# PCOD9537589 Si02
#       6
#    16  16  16  16  16  16
#     4  10  20  34  54  79 109 147 185 223 269 319
#     4  10  21  36  55  80 107 140 181 225 274 324
#     4  11  23  37  56  82 110 143 183 224 271 325
#     4  11  22  35  54  81 110 144 182 221 268 318
#     4   9  16  27  47  74 101 132 171 214 261 312
#     4  10  20  34  54  81 110 140 178 222 267 320
#
# _framework density 17.933199999999999
#
# number of rings (size 3 to 8) (size 9 to 14) (size 15 to 20)
#    0.000    1.833    1.667    4.000    0.000    6.333 
#    0.000    0.833    0.000    1.500    0.000    0.000 
#    0.000    0.000    0.000    0.000    0.000    0.000 
#
# Total GULP energy -267940.565085 kJ/mol
# GULP energy per Si atom -5582.095106 kJ/mol
# Density = 1.789238 g / cm^3
# Si number density = 17.933200 Si / 1000 Ang^3
#
#
#
# Elastic Constant Matrix: (Units=GPa)
#
#
# Indices 1 2 3 4 5 6 
#
# 1 33.0013 18.6731 5.9671 0.0000 0.0000 0.0000
# 2 18.6731 95.0886 15.5268 0.0000 0.0000 0.0000
# 3 5.9671 15.5268 30.8833 0.0000 0.0000 0.0000
# 4 0.0000 0.0000 0.0000 26.0025 0.0000 0.0000
# 5 0.0000 0.0000 0.0000 0.0000 15.2524 0.0000
# 6 0.0000 0.0000 0.0000 0.0000 0.0000 34.7760
#
#
#
# Elastic Compliance Matrix: (Units=1/GPa)
#
#
# Indices 1 2 3 4 5 6 
#
# 1 0.034442 -0.006185 -0.003545 0.000000 0.000000 0.000000
# 2 -0.006185 0.012568 -0.005123 0.000000 0.000000 0.000000
# 3 -0.003545 -0.005123 0.035641 0.000000 0.000000 0.000000
# 4 0.000000 0.000000 0.000000 0.038458 0.000000 0.000000
# 5 0.000000 0.000000 0.000000 0.000000 0.065564 0.000000
# 6 0.000000 0.000000 0.000000 0.000000 0.000000 0.028756
#
#
# Mechanical properties :
#
#
# Convention : Reuss Voigt Hill
#
# Bulk Modulus (GPa) = 18.88798 26.58969 22.73883
# Shear Modulus (GPa) = 19.02712 23.12658 21.07685
#
# Velocity S-wave (km/s) = 3.26083 3.59499 3.43198
# Velocity P-wave (km/s) = 4.97319 5.66491 5.33028
#
# Compressibility (1/GPa) = 0.05294372
#
# Stress axis : x y z
#
# Youngs Moduli (GPa) = 29.03400 79.56941 28.05772
#
# Poissons Ratio (x) = 0.49212 0.09947
# Poissons Ratio (y) = 0.17957 0.14375
# Poissons Ratio (z) = 0.10294 0.40767
#
# Static dielectric constant tensor:
#      x y z
#    x 1.598500 0.000000 0.000000 
#    y 0.000000 1.645540 0.000000 
#    z 0.000000 0.000000 1.597890 
# 
# From -- ./inp_files/64361.got.cif
#   From: 2010.05.17/outbox.cif.g08.bks.cpg/sg74_33_cif.got.tgz:64361.got - 2010.06.03 17:57:02.
