data_PCOD9537991
_publ_section_title
;
Structure prediction by ZEFSAII (Michael W. Deem and Ramdas Pophale) SiO2 
 PCOD9537991
Probable space group: I M M A
;
_chemical_formula_sum "Si O2"
_cell_formula_units_Z 88
_cell_length_a 11.480943
_cell_length_b 20.157187
_cell_length_c 18.071501
_cell_angle_alpha 90.000000
_cell_angle_beta 90.000000
_cell_angle_gamma 90.000000
_cell_volume 4182.170283
_symmetry_space_group_name_H-M "I M M A"
_symmetry_group_IT_number 74
_symmetry_cell_setting 'orthorhombic'
loop_
_space_group_symop_operation_xyz
x,y,z
-x,1/2-y,z
x,-y,-z
-x,1/2+y,-z
-x,-y,-z
x,1/2+y,-z
-x,y,z
x,1/2-y,z
1/2+x,1/2+y,1/2+z
1/2-x,-y,1/2+z
1/2+x,1/2-y,1/2-z
1/2-x,y,1/2-z
1/2-x,1/2-y,1/2-z
1/2+x,y,1/2-z
1/2-x,1/2+y,1/2+z
1/2+x,-y,1/2+z
loop_
_atom_site_type_symbol
_atom_site_label
_atom_site_fract_x
_atom_site_fract_y
_atom_site_fract_z
Si Si1 0.135263 0.825799 0.053168
Si Si2 0.626639 0.970553 0.882144
Si Si3 0.125351 0.364106 0.247843
Si Si4 0.870582 0.580060 0.917899
Si Si5 0.303108 0.611945 0.168229
Si Si6 0.122491 0.750000 0.288160
O O1 0.179109 0.750000 0.056189
O O2 0.201739 0.872793 0.109818
O O3 0.000000 0.824964 0.073502
O O4 0.142605 0.856644 0.971461
O O5 0.500000 0.958379 0.919482
O O6 0.629709 0.920516 0.811694
O O7 0.748548 0.959040 0.924988
O O8 0.631131 0.045817 0.854114
O O9 0.250000 0.327627 0.250000
O O10 0.122977 0.398166 0.167435
O O11 0.000000 0.329139 0.257039
O O12 0.000000 0.549983 0.934537
O O13 0.250000 0.602112 0.250000
O O14 0.374988 0.680404 0.169449
O O15 0.250000 0.750000 0.250000
O O16 0.000000 0.750000 0.243319
#
# Coordination Sequence:
#
# PCOD9537991 Si02
#       6
#    16  16  16  16  16   8
#     4  10  22  40  61  85 114 152 196 244 293 343
#     4  10  20  35  57  85 121 155 189 231 289 351
#     4   8  14  27  50  80 109 143 178 220 273 331
#     4   9  18  35  59  85 115 148 191 239 289 344
#     4  11  22  37  57  85 115 151 196 242 291 343
#     4  10  22  38  56  80 112 150 193 238 285 334
#
# _framework density 21.041706999999999
#
# number of rings (size 3 to 8) (size 9 to 14) (size 15 to 20)
#    0.000    2.364    0.909    2.182    0.000    5.091 
#    0.000    4.545    0.000    4.909    0.000    5.091 
#    0.000    0.000    0.000    0.000    0.000    0.000 
#
# Total GULP energy -244989.866003 kJ/mol
# GULP energy per Si atom -5567.951500 kJ/mol
# Density = 2.099382 g / cm^3
# Si number density = 21.041707 Si / 1000 Ang^3
#
#
#
# Elastic Constant Matrix: (Units=GPa)
#
#
# Indices 1 2 3 4 5 6 
#
# 1 213.2206 43.3961 22.0674 0.0000 0.0000 0.0000
# 2 43.3961 79.1380 2.9648 0.0000 0.0000 0.0000
# 3 22.0674 2.9648 51.3063 0.0000 0.0000 0.0000
# 4 0.0000 0.0000 0.0000 12.2850 0.0000 0.0000
# 5 0.0000 0.0000 0.0000 0.0000 3.8658 0.0000
# 6 0.0000 0.0000 0.0000 0.0000 0.0000 -23.4464
#
#
#
# Elastic Compliance Matrix: (Units=1/GPa)
#
#
# Indices 1 2 3 4 5 6 
#
# 1 0.005517 -0.002943 -0.002203 0.000000 0.000000 0.000000
# 2 -0.002943 0.014233 0.000443 0.000000 0.000000 0.000000
# 3 -0.002203 0.000443 0.020413 0.000000 0.000000 0.000000
# 4 0.000000 0.000000 0.000000 0.081400 0.000000 0.000000
# 5 0.000000 0.000000 0.000000 0.000000 0.258676 0.000000
# 6 0.000000 0.000000 0.000000 0.000000 0.000000 -0.042650
#
#
# Mechanical properties :
#
#
# Convention : Reuss Voigt Hill
#
# Bulk Modulus (GPa) = 32.51177 53.39126 42.95152
# Shear Modulus (GPa) = 13.99598 16.89000 15.44299
#
# Velocity S-wave (km/s) = 2.58186 2.83625 2.71204
# Velocity P-wave (km/s) = 4.93686 6.01289 5.50125
#
# Compressibility (1/GPa) = 0.03075809
#
# Stress axis : x y z
#
# Youngs Moduli (GPa) = 181.26182 70.25822 48.98925
#
# Poissons Ratio (x) = 0.20675 0.10791
# Poissons Ratio (y) = 0.53340 -0.02171
# Poissons Ratio (z) = 0.39929 -0.03114
#
# Static dielectric constant tensor:
#      x y z
#    x 1.822960 0.000000 0.000000 
#    y 0.000000 1.720860 0.000000 
#    z 0.000000 0.000000 1.733710 
# 
# From -- ./inp_files/41288.got.cif
#   From: 2010.05.17/outbox.cif.g08.bks.cpg/sg74_21_cif.got.tgz:41288.got - 2010.06.03 17:57:02.
