data_PCOD9537712
_publ_section_title
;
Structure prediction by ZEFSAII (Michael W. Deem and Ramdas Pophale) SiO2 
 PCOD9537712
Probable space group: I M M A
;
_chemical_formula_sum "Si O2"
_cell_formula_units_Z 112
_cell_length_a 14.023409
_cell_length_b 32.028361
_cell_length_c 10.851302
_cell_angle_alpha 90.000000
_cell_angle_beta 90.000000
_cell_angle_gamma 90.000000
_cell_volume 4873.827633
_symmetry_space_group_name_H-M "I M M A"
_symmetry_group_IT_number 74
_symmetry_cell_setting 'orthorhombic'
loop_
_space_group_symop_operation_xyz
x,y,z
-x,1/2-y,z
x,-y,-z
-x,1/2+y,-z
-x,-y,-z
x,1/2+y,-z
-x,y,z
x,1/2-y,z
1/2+x,1/2+y,1/2+z
1/2-x,-y,1/2+z
1/2+x,1/2-y,1/2-z
1/2-x,y,1/2-z
1/2-x,1/2-y,1/2-z
1/2+x,y,1/2-z
1/2-x,1/2+y,1/2+z
1/2+x,-y,1/2+z
loop_
_atom_site_type_symbol
_atom_site_label
_atom_site_fract_x
_atom_site_fract_y
_atom_site_fract_z
Si Si1 0.887484 0.846241 0.048039
Si Si2 0.715792 0.799157 0.944484
Si Si3 0.848862 0.875147 0.679360
Si Si4 0.394320 0.521760 0.134634
Si Si5 0.397623 0.548653 0.658659
Si Si6 0.108452 0.202257 0.697687
Si Si7 0.750635 0.923073 0.027116
O O1 0.822468 0.819098 0.952722
O O2 0.881386 0.825719 0.182693
O O3 0.000000 0.849049 0.014562
O O4 0.832653 0.890039 0.059407
O O5 0.717076 0.750000 0.914764
O O6 0.677658 0.804929 0.083922
O O7 0.644000 0.826577 0.859175
O O8 0.750000 0.875261 0.750000
O O9 0.903340 0.906661 0.769578
O O10 0.831131 0.899041 0.550982
O O11 0.500000 0.541435 0.149473
O O12 0.385676 0.486577 0.238168
O O13 0.393029 0.500000 0.000000
O O14 0.307035 0.553495 0.131568
O O15 0.500000 0.542580 0.595051
O O16 0.308153 0.547586 0.567889
O O17 0.122055 0.250000 0.739726
O O18 0.000000 0.198071 0.651245
#
# Coordination Sequence:
#
# PCOD9537712 Si02
#       7
#    16  16  16  16  16  16  16
#     4  10  20  35  58  87 119 158 207 253 304 374
#     4  10  20  34  56  87 121 162 208 256 313 371
#     4   9  19  34  54  83 113 154 198 246 302 355
#     4  10  20  36  64  97 120 152 208 257 302 374
#     4  10  20  37  64  92 119 159 209 254 307 375
#     4   9  18  34  57  86 120 160 207 258 313 372
#     4  10  20  37  61  90 121 159 196 254 311 365
#
# _framework density 22.979886
#
# number of rings (size 3 to 8) (size 9 to 14) (size 15 to 20)
#    0.000    2.286    1.429    1.286    0.000    2.857 
#    0.000    3.571    6.286    6.000    0.000    2.000 
#    0.000    0.000    0.000    0.000    0.000    0.000 
#
# Total GULP energy -312569.670362 kJ/mol
# GULP energy per Si atom -5581.601256 kJ/mol
# Density = 2.292758 g / cm^3
# Si number density = 22.979886 Si / 1000 Ang^3
#
#
#
# Elastic Constant Matrix: (Units=GPa)
#
#
# Indices 1 2 3 4 5 6 
#
# 1 126.9912 57.5835 37.9585 -0.0002 -0.0001 0.0001
# 2 57.5835 101.6717 34.8762 -0.0004 0.0001 -0.0002
# 3 37.9585 34.8762 46.6135 0.0000 -0.0010 -0.0027
# 4 -0.0002 -0.0004 0.0000 31.5897 -0.0001 -0.0007
# 5 -0.0001 0.0001 -0.0010 -0.0001 -6.6808 -0.0002
# 6 0.0001 -0.0002 -0.0027 -0.0007 -0.0002 8.2851
#
#
#
# Elastic Compliance Matrix: (Units=1/GPa)
#
#
# Indices 1 2 3 4 5 6 
#
# 1 0.011791 -0.004553 -0.006195 0.000000 0.000001 -0.000002
# 2 -0.004553 0.014989 -0.007508 0.000000 0.000001 -0.000002
# 3 -0.006195 -0.007508 0.032115 0.000000 -0.000005 0.000010
# 4 0.000000 0.000000 0.000000 0.031656 0.000000 0.000003
# 5 0.000001 0.000001 -0.000005 0.000000 -0.149683 -0.000003
# 6 -0.000002 -0.000002 0.000010 0.000003 -0.000003 0.120699
#
#
# Mechanical properties :
#
#
# Convention : Reuss Voigt Hill
#
# Bulk Modulus (GPa) = 44.67441 59.56810 52.12126
# Shear Modulus (GPa) = 47.37563 16.29601 31.83582
#
# Velocity S-wave (km/s) = 4.54542 2.66586 3.72610
# Velocity P-wave (km/s) = 6.85789 5.95432 6.42202
#
# Compressibility (1/GPa) = 0.02238418
#
# Stress axis : x y z
#
# Youngs Moduli (GPa) = 84.81209 66.71354 31.13807
#
# Poissons Ratio (x) = 0.30373 0.19290
# Poissons Ratio (y) = 0.38613 0.23377
# Poissons Ratio (z) = 0.52542 0.50086
#
# Static dielectric constant tensor:
#      x y z
#    x 4.553850 0.000000 -0.000010 
#    y 0.000000 1.937790 0.000000 
#    z -0.000010 0.000000 1.887180 
# 
# From -- ./inp_files/21111.got.cif
#   From: 2010.05.17/outbox.cif.g08.bks.cpg/sg74_11_cif.got.tgz:21111.got - 2010.06.03 17:57:02.
