data_PCOD9537705
_publ_section_title
;
Structure prediction by ZEFSAII (Michael W. Deem and Ramdas Pophale) SiO2 
 PCOD9537705
Probable space group: I M M A
;
_chemical_formula_sum "Si O2"
_cell_formula_units_Z 116
_cell_length_a 25.830662
_cell_length_b 13.920381
_cell_length_c 17.811720
_cell_angle_alpha 90.000000
_cell_angle_beta 90.000000
_cell_angle_gamma 90.000000
_cell_volume 6404.607478
_symmetry_space_group_name_H-M "I M M A"
_symmetry_group_IT_number 74
_symmetry_cell_setting 'orthorhombic'
loop_
_space_group_symop_operation_xyz
x,y,z
-x,1/2-y,z
x,-y,-z
-x,1/2+y,-z
-x,-y,-z
x,1/2+y,-z
-x,y,z
x,1/2-y,z
1/2+x,1/2+y,1/2+z
1/2-x,-y,1/2+z
1/2+x,1/2-y,1/2-z
1/2-x,y,1/2-z
1/2-x,1/2-y,1/2-z
1/2+x,y,1/2-z
1/2-x,1/2+y,1/2+z
1/2+x,-y,1/2+z
loop_
_atom_site_type_symbol
_atom_site_label
_atom_site_fract_x
_atom_site_fract_y
_atom_site_fract_z
Si Si1 0.160858 0.641879 0.735936
Si Si2 0.796393 0.037493 0.400183
Si Si3 0.500000 0.750000 0.573287
Si Si4 0.059991 0.361416 0.643515
Si Si5 0.560210 0.470893 0.262874
Si Si6 0.577743 0.567659 0.568106
Si Si7 0.155012 0.362908 0.535597
Si Si8 0.309627 0.860579 0.589134
O O1 0.167380 0.750000 0.706540
O O2 0.191951 0.569139 0.683918
O O3 0.100886 0.610243 0.737842
O O4 0.181029 0.639907 0.820882
O O5 0.838445 0.092154 0.453005
O O6 0.740862 0.076312 0.425209
O O7 0.805080 0.925495 0.414843
O O8 0.544754 0.664949 0.573334
O O9 0.066821 0.250000 0.667468
O O10 0.069703 0.435429 0.711514
O O11 0.099517 0.378236 0.575237
O O12 0.000000 0.373364 0.620596
O O13 0.500000 0.442840 0.254080
O O14 0.570768 0.485192 0.351486
O O15 0.561105 0.500000 0.500000
O O16 0.637602 0.596689 0.556531
O O17 0.165748 0.250000 0.533968
O O18 0.301489 0.750000 0.565466
#
# Coordination Sequence:
#
# PCOD9537705 Si02
#       8
#    16  16   4  16  16  16  16  16
#     4  10  20  34  56  85 115 149 192 240 297 346
#     4  11  21  36  58  85 114 155 197 243 286 348
#     4  12  22  44  64  86 122 156 182 234 320 356
#     4   9  18  37  59  83 114 155 198 239 286 344
#     4  10  20  35  57  83 114 147 193 237 292 348
#     4  11  24  40  61  88 117 152 190 238 294 361
#     4  10  21  36  58  83 115 157 196 238 294 343
#     4  10  21  38  60  86 115 151 193 242 295 350
#
# _framework density 18.111961000000001
#
# number of rings (size 3 to 8) (size 9 to 14) (size 15 to 20)
#    0.000    1.793    2.759    1.862    2.897    1.379 
#    1.241    2.069    0.000    4.138    0.000    0.000 
#    0.000    0.000    0.000    0.000    0.000    0.000 
#
# Total GULP energy -323018.522103 kJ/mol
# GULP energy per Si atom -5569.284864 kJ/mol
# Density = 1.807074 g / cm^3
# Si number density = 18.111961 Si / 1000 Ang^3
#
#
#
# Elastic Constant Matrix: (Units=GPa)
#
#
# Indices 1 2 3 4 5 6 
#
# 1 88.0323 27.1631 11.8996 0.0000 0.0000 0.0000
# 2 27.1631 81.7059 21.3365 0.0000 0.0000 0.0000
# 3 11.8996 21.3365 41.2314 0.0000 0.0000 0.0000
# 4 0.0000 0.0000 0.0000 21.4830 0.0000 0.0000
# 5 0.0000 0.0000 0.0000 0.0000 13.3464 0.0000
# 6 0.0000 0.0000 0.0000 0.0000 0.0000 15.5211
#
#
#
# Elastic Compliance Matrix: (Units=1/GPa)
#
#
# Indices 1 2 3 4 5 6 
#
# 1 0.012763 -0.003794 -0.001720 0.000000 0.000000 0.000000
# 2 -0.003794 0.015279 -0.006812 0.000000 0.000000 0.000000
# 3 -0.001720 -0.006812 0.028275 0.000000 0.000000 0.000000
# 4 0.000000 0.000000 0.000000 0.046548 0.000000 0.000000
# 5 0.000000 0.000000 0.000000 0.000000 0.074926 0.000000
# 6 0.000000 0.000000 0.000000 0.000000 0.000000 0.064428
#
#
# Mechanical properties :
#
#
# Convention : Reuss Voigt Hill
#
# Bulk Modulus (GPa) = 31.58047 36.86310 34.22178
# Shear Modulus (GPa) = 18.02284 20.10814 19.06549
#
# Velocity S-wave (km/s) = 3.15791 3.33560 3.24797
# Velocity P-wave (km/s) = 5.54713 5.93566 5.74468
#
# Compressibility (1/GPa) = 0.03166514
#
# Stress axis : x y z
#
# Youngs Moduli (GPa) = 78.35410 65.44921 35.36726
#
# Poissons Ratio (x) = 0.24830 0.06084
# Poissons Ratio (y) = 0.29725 0.24091
# Poissons Ratio (z) = 0.13478 0.44582
#
# Static dielectric constant tensor:
#      x y z
#    x 1.641440 0.000000 0.000000 
#    y 0.000000 1.609650 0.000000 
#    z 0.000000 0.000000 1.617900 
# 
# From -- ./inp_files/46188.got.cif
#   From: 2010.05.17/outbox.cif.g08.bks.cpg/sg74_24_cif.got.tgz:46188.got - 2010.06.03 17:57:02.
