data_PCOD9537966
_publ_section_title
;
Structure prediction by ZEFSAII (Michael W. Deem and Ramdas Pophale) SiO2 
 PCOD9537966
Probable space group: I M M A
;
_chemical_formula_sum "Si O2"
_cell_formula_units_Z 64
_cell_length_a 25.241114
_cell_length_b 8.389684
_cell_length_c 14.383339
_cell_angle_alpha 90.000000
_cell_angle_beta 90.000000
_cell_angle_gamma 90.000000
_cell_volume 3045.887356
_symmetry_space_group_name_H-M "I M M A"
_symmetry_group_IT_number 74
_symmetry_cell_setting 'orthorhombic'
loop_
_space_group_symop_operation_xyz
x,y,z
-x,1/2-y,z
x,-y,-z
-x,1/2+y,-z
-x,-y,-z
x,1/2+y,-z
-x,y,z
x,1/2-y,z
1/2+x,1/2+y,1/2+z
1/2-x,-y,1/2+z
1/2+x,1/2-y,1/2-z
1/2-x,y,1/2-z
1/2-x,1/2-y,1/2-z
1/2+x,y,1/2-z
1/2-x,1/2+y,1/2+z
1/2+x,-y,1/2+z
loop_
_atom_site_type_symbol
_atom_site_label
_atom_site_fract_x
_atom_site_fract_y
_atom_site_fract_z
Si Si1 0.110784 0.941237 0.605349
Si Si2 0.558028 0.058333 0.717263
Si Si3 0.771739 0.940846 0.607003
Si Si4 0.660588 0.940993 0.393690
O O1 0.108894 0.750000 0.606282
O O2 0.169914 0.992924 0.639556
O O3 0.103792 0.000000 0.500000
O O4 0.068681 0.010937 0.676500
O O5 0.500000 0.000542 0.686564
O O6 0.558238 0.250000 0.710151
O O7 0.608344 0.998015 0.658852
O O8 0.770016 0.750000 0.609598
O O9 0.770688 0.000000 0.500000
O O10 0.716781 0.002834 0.648882
O O11 0.660808 0.750000 0.393352
O O12 0.658167 0.000000 0.500000
#
# Coordination Sequence:
#
# PCOD9537966 Si02
#       4
#    16  16  16  16
#     4  10  21  37  59  85 112 144 180 222 273 326
#     4  10  23  41  57  77 108 146 189 231 269 318
#     4   9  17  31  53  82 113 141 174 217 268 327
#     4  10  20  35  57  83 111 144 181 223 273 325
#
# _framework density 21.011939999999999
#
# number of rings (size 3 to 8) (size 9 to 14) (size 15 to 20)
#    0.000    2.250    0.000    3.750    0.000    7.500 
#    0.000    5.000    0.000    0.000    0.000    0.000 
#    0.000    0.000    0.000    0.000    0.000    0.000 
#
# Total GULP energy -178646.668228 kJ/mol
# GULP energy per Si atom -5582.708382 kJ/mol
# Density = 2.096412 g / cm^3
# Si number density = 21.011940 Si / 1000 Ang^3
#
#
#
# Elastic Constant Matrix: (Units=GPa)
#
#
# Indices 1 2 3 4 5 6 
#
# 1 115.6960 13.5074 9.7391 0.0000 0.0000 0.0000
# 2 13.5074 23.9713 -12.7261 0.0000 0.0000 0.0000
# 3 9.7391 -12.7261 38.3086 0.0000 0.0000 0.0000
# 4 0.0000 0.0000 0.0000 18.0698 0.0000 0.0000
# 5 0.0000 0.0000 0.0000 0.0000 27.4980 0.0000
# 6 0.0000 0.0000 0.0000 0.0000 0.0000 29.3895
#
#
#
# Elastic Compliance Matrix: (Units=1/GPa)
#
#
# Indices 1 2 3 4 5 6 
#
# 1 0.010099 -0.008564 -0.005412 0.000000 0.000000 0.000000
# 2 -0.008564 0.057911 0.021415 0.000000 0.000000 0.000000
# 3 -0.005412 0.021415 0.034594 0.000000 0.000000 0.000000
# 4 0.000000 0.000000 0.000000 0.055341 0.000000 0.000000
# 5 0.000000 0.000000 0.000000 0.000000 0.036366 0.000000
# 6 0.000000 0.000000 0.000000 0.000000 0.000000 0.034026
#
#
# Mechanical properties :
#
#
# Convention : Reuss Voigt Hill
#
# Bulk Modulus (GPa) = 8.51196 22.11300 15.31248
# Shear Modulus (GPa) = 19.79266 26.15517 22.97392
#
# Velocity S-wave (km/s) = 3.07249 3.53197 3.31021
# Velocity P-wave (km/s) = 4.08004 5.21344 4.68117
#
# Compressibility (1/GPa) = 0.11748182
#
# Stress axis : x y z
#
# Youngs Moduli (GPa) = 99.02212 17.26785 28.90691
#
# Poissons Ratio (x) = 0.14788 0.15645
# Poissons Ratio (y) = 0.84800 -0.61905
# Poissons Ratio (z) = 0.53593 -0.36979
#
# Static dielectric constant tensor:
#      x y z
#    x 1.808500 0.000000 0.000000 
#    y 0.000000 1.716420 0.000000 
#    z 0.000000 0.000000 1.750470 
# 
# From -- ./inp_files/28798.got.cif
#   From: 2010.05.17/outbox.cif.g08.bks.cpg/sg74_15_cif.got.tgz:28798.got - 2010.06.03 17:57:02.
