data_PCOD9537015
_publ_section_title
;
Structure prediction by ZEFSAII (Michael W. Deem and Ramdas Pophale) SiO2 
 PCOD9537015
Probable space group: I M M A
;
_chemical_formula_sum "Si O2"
_cell_formula_units_Z 104
_cell_length_a 21.233498
_cell_length_b 7.651598
_cell_length_c 32.978354
_cell_angle_alpha 90.000000
_cell_angle_beta 90.000000
_cell_angle_gamma 90.000000
_cell_volume 5357.999468
_symmetry_space_group_name_H-M "I M M A"
_symmetry_group_IT_number 74
_symmetry_cell_setting 'orthorhombic'
loop_
_space_group_symop_operation_xyz
x,y,z
-x,1/2-y,z
x,-y,-z
-x,1/2+y,-z
-x,-y,-z
x,1/2+y,-z
-x,y,z
x,1/2-y,z
1/2+x,1/2+y,1/2+z
1/2-x,-y,1/2+z
1/2+x,1/2-y,1/2-z
1/2-x,y,1/2-z
1/2-x,1/2-y,1/2-z
1/2+x,y,1/2-z
1/2-x,1/2+y,1/2+z
1/2+x,-y,1/2+z
loop_
_atom_site_type_symbol
_atom_site_label
_atom_site_fract_x
_atom_site_fract_y
_atom_site_fract_z
Si Si1 0.761641 0.959320 0.954908
Si Si2 0.500000 0.459381 0.047061
Si Si3 0.929385 0.457738 0.723510
Si Si4 0.632038 0.536995 0.919681
Si Si5 0.187061 0.455746 0.130591
Si Si6 0.429643 0.961876 0.681911
Si Si7 0.681998 0.451846 0.832040
O O1 0.761646 0.750000 0.951623
O O2 0.689019 0.017575 0.949231
O O3 0.797197 0.027369 0.914476
O O4 0.785239 0.000000 0.000000
O O5 0.500000 0.250000 0.052347
O O6 0.564339 0.526150 0.066276
O O7 0.500000 0.500000 0.000000
O O8 0.931002 0.250000 0.714832
O O9 0.920831 0.482910 0.771477
O O10 0.868490 0.529441 0.699688
O O11 0.000000 0.526869 0.712887
O O12 0.632207 0.750000 0.917931
O O13 0.648197 0.467835 0.875415
O O14 0.175408 0.250000 0.124935
O O15 0.126082 0.528953 0.153271
O O16 0.248904 0.471089 0.159117
O O17 0.500000 0.017073 0.669262
O O18 0.428204 0.750000 0.681653
O O19 0.692803 0.250000 0.821071
#
# Coordination Sequence:
#
# PCOD9537015 Si02
#       7
#    16   8  16  16  16  16  16
#     4   9  17  30  48  68  93 124 156 193 238 285
#     4  10  20  32  46  66  92 126 168 212 258 304
#     4   9  19  34  49  69 101 135 165 204 249 286
#     4   9  19  33  46  65  95 128 163 207 254 290
#     4   9  19  35  52  73 103 129 155 202 252 289
#     4   9  18  34  56  78  96 124 166 200 236 295
#     4  10  20  32  49  72  97 130 171 206 242 293
#
# _framework density 19.410229000000001
#
# number of rings (size 3 to 8) (size 9 to 14) (size 15 to 20)
#    0.000    2.769    0.000    1.846    1.077    5.538 
#    0.000    3.077    0.000    0.462    0.000    0.000 
#    0.000    0.000    0.000    0.000    0.000    0.308 
#
# Total GULP energy -289819.722875 kJ/mol
# GULP energy per Si atom -5573.456209 kJ/mol
# Density = 1.936605 g / cm^3
# Si number density = 19.410229 Si / 1000 Ang^3
#
#
#
# Elastic Constant Matrix: (Units=GPa)
#
#
# Indices 1 2 3 4 5 6 
#
# 1 145.9920 -4.5673 87.6970 0.0000 0.0000 0.0000
# 2 -4.5673 30.9486 -4.9486 0.0000 0.0000 0.0000
# 3 87.6970 -4.9486 93.8637 0.0000 0.0000 0.0000
# 4 0.0000 0.0000 0.0000 21.4173 0.0000 0.0000
# 5 0.0000 0.0000 0.0000 0.0000 16.3327 0.0000
# 6 0.0000 0.0000 0.0000 0.0000 0.0000 6.9532
#
#
#
# Elastic Compliance Matrix: (Units=1/GPa)
#
#
# Indices 1 2 3 4 5 6 
#
# 1 0.015611 -0.000029 -0.014587 0.000000 0.000000 0.000000
# 2 -0.000029 0.032586 0.001745 0.000000 0.000000 0.000000
# 3 -0.014587 0.001745 0.024374 0.000000 0.000000 0.000000
# 4 0.000000 0.000000 0.000000 0.046691 0.000000 0.000000
# 5 0.000000 0.000000 0.000000 0.000000 0.061227 0.000000
# 6 0.000000 0.000000 0.000000 0.000000 0.000000 0.143818
#
#
# Mechanical properties :
#
#
# Convention : Reuss Voigt Hill
#
# Bulk Modulus (GPa) = 21.35379 47.46297 34.40838
# Shear Modulus (GPa) = 13.67389 21.78219 17.72804
#
# Velocity S-wave (km/s) = 2.65706 3.35356 3.02542
# Velocity P-wave (km/s) = 4.52090 6.28497 5.47445
#
# Compressibility (1/GPa) = 0.04683008
#
# Stress axis : x y z
#
# Youngs Moduli (GPa) = 64.05646 30.68767 41.02653
#
# Poissons Ratio (x) = 0.00088 0.59846
# Poissons Ratio (y) = 0.00183 -0.07158
# Poissons Ratio (z) = 0.93440 -0.05354
#
# Static dielectric constant tensor:
#      x y z
#    x 1.684070 0.000000 0.000000 
#    y 0.000000 1.689750 0.000000 
#    z 0.000000 0.000000 1.660780 
# 
# From -- ./inp_files/73433.got.cif
#   From: 2010.05.17/outbox.cif.g08.bks.cpg/sg74_37_cif.got.tgz:73433.got - 2010.06.03 17:57:02.
