data_PCOD9537783
_publ_section_title
;
Structure prediction by ZEFSAII (Michael W. Deem and Ramdas Pophale) SiO2 
 PCOD9537783
Probable space group: I M M A
;
_chemical_formula_sum "Si O2"
_cell_formula_units_Z 128
_cell_length_a 19.571793
_cell_length_b 20.351020
_cell_length_c 19.692410
_cell_angle_alpha 90.000000
_cell_angle_beta 90.000000
_cell_angle_gamma 90.000000
_cell_volume 7843.604088
_symmetry_space_group_name_H-M "I M M A"
_symmetry_group_IT_number 74
_symmetry_cell_setting 'orthorhombic'
loop_
_space_group_symop_operation_xyz
x,y,z
-x,1/2-y,z
x,-y,-z
-x,1/2+y,-z
-x,-y,-z
x,1/2+y,-z
-x,y,z
x,1/2-y,z
1/2+x,1/2+y,1/2+z
1/2-x,-y,1/2+z
1/2+x,1/2-y,1/2-z
1/2-x,y,1/2-z
1/2-x,1/2-y,1/2-z
1/2+x,y,1/2-z
1/2-x,1/2+y,1/2+z
1/2+x,-y,1/2+z
loop_
_atom_site_type_symbol
_atom_site_label
_atom_site_fract_x
_atom_site_fract_y
_atom_site_fract_z
Si Si1 0.788140 0.178786 0.036747
Si Si2 0.282505 0.935116 0.047587
Si Si3 0.219772 0.992393 0.179775
Si Si4 0.078188 0.391369 0.008436
Si Si5 0.426407 0.078078 0.983483
Si Si6 0.078911 0.328109 0.384227
Si Si7 0.223818 0.858855 0.676524
Si Si8 0.079096 0.988607 0.115236
O O1 0.769710 0.250000 0.009630
O O2 0.763623 0.174313 0.114334
O O3 0.750908 0.121703 0.996129
O O4 0.867769 0.163852 0.026783
O O5 0.360296 0.915318 0.062388
O O6 0.243510 0.950569 0.115801
O O7 0.281251 0.000000 0.000000
O O8 0.250000 0.965978 0.250000
O O9 0.254386 0.064420 0.172024
O O10 0.137532 0.995063 0.172135
O O11 0.090180 0.426468 0.935418
O O12 0.000000 0.369131 0.010072
O O13 0.086389 0.448831 0.064867
O O14 0.500000 0.096541 0.954227
O O15 0.415705 0.123264 0.050559
O O16 0.429101 0.000000 0.000000
O O17 0.086480 0.250000 0.401270
O O18 0.142734 0.347321 0.335852
O O19 0.000000 0.336160 0.358522
O O20 0.250000 0.835726 0.750000
O O21 0.000000 0.986785 0.138869
#
# Coordination Sequence:
#
# PCOD9537783 Si02
#       8
#    16  16  16  16  16  16  16  16
#     4  12  22  32  53  82 108 138 178 224 269 316
#     4  11  18  34  56  74 106 140 175 226 263 312
#     4  11  21  34  55  84 107 138 181 218 265 314
#     4   9  17  31  53  79 105 137 175 221 265 309
#     4   9  17  29  49  75  98 127 170 223 276 307
#     4  10  20  35  53  73 101 141 184 218 257 317
#     4  11  22  36  52  77 108 144 183 220 261 311
#     4   9  16  31  56  79 103 139 179 214 260 317
#
# _framework density 16.319029
#
# number of rings (size 3 to 8) (size 9 to 14) (size 15 to 20)
#    0.000    1.750    5.000    1.875    0.000    1.250 
#    0.000    3.750    0.000    0.375    0.000    0.000 
#    0.000    0.000    0.000    0.000    0.000    0.000 
#
# Total GULP energy -356476.785329 kJ/mol
# GULP energy per Si atom -5569.949771 kJ/mol
# Density = 1.628189 g / cm^3
# Si number density = 16.319029 Si / 1000 Ang^3
#
#
#
# Elastic Constant Matrix: (Units=GPa)
#
#
# Indices 1 2 3 4 5 6 
#
# 1 135.4558 34.0852 40.7755 0.0000 0.0000 0.0000
# 2 34.0852 78.3635 33.1975 0.0000 0.0000 0.0000
# 3 40.7755 33.1975 61.3041 0.0000 0.0000 0.0000
# 4 0.0000 0.0000 0.0000 10.0563 0.0000 0.0000
# 5 0.0000 0.0000 0.0000 0.0000 23.9856 0.0000
# 6 0.0000 0.0000 0.0000 0.0000 0.0000 108.5840
#
#
#
# Elastic Compliance Matrix: (Units=1/GPa)
#
#
# Indices 1 2 3 4 5 6 
#
# 1 0.009439 -0.001876 -0.005262 0.000000 0.000000 0.000000
# 2 -0.001876 0.016933 -0.007922 0.000000 0.000000 0.000000
# 3 -0.005262 -0.007922 0.024102 0.000000 0.000000 0.000000
# 4 0.000000 0.000000 0.000000 0.099441 0.000000 0.000000
# 5 0.000000 0.000000 0.000000 0.000000 0.041692 0.000000
# 6 0.000000 0.000000 0.000000 0.000000 0.000000 0.009209
#
#
# Mechanical properties :
#
#
# Convention : Reuss Voigt Hill
#
# Bulk Modulus (GPa) = 49.13099 54.58217 51.85658
# Shear Modulus (GPa) = 21.03322 39.66285 30.34803
#
# Velocity S-wave (km/s) = 3.59399 4.93532 4.31707
# Velocity P-wave (km/s) = 6.88435 8.12380 7.52962
#
# Compressibility (1/GPa) = 0.02035375
#
# Stress axis : x y z
#
# Youngs Moduli (GPa) = 105.94819 59.05614 41.49088
#
# Poissons Ratio (x) = 0.11081 0.21832
# Poissons Ratio (y) = 0.19879 0.32867
# Poissons Ratio (z) = 0.55748 0.46782
#
# Static dielectric constant tensor:
#      x y z
#    x 1.609080 0.000000 0.000000 
#    y 0.000000 1.553470 0.000000 
#    z 0.000000 0.000000 1.527040 
# 
# From -- ./inp_files/45640.got.cif
#   From: 2010.05.17/outbox.cif.g08.bks.cpg/sg74_23_cif.got.tgz:45640.got - 2010.06.03 17:57:02.
