data_PCOD9537733
_publ_section_title
;
Structure prediction by ZEFSAII (Michael W. Deem and Ramdas Pophale) SiO2 
 PCOD9537733
Probable space group: I M M A
;
_chemical_formula_sum "Si O2"
_cell_formula_units_Z 116
_cell_length_a 24.684750
_cell_length_b 7.918570
_cell_length_c 29.892563
_cell_angle_alpha 90.000000
_cell_angle_beta 90.000000
_cell_angle_gamma 90.000000
_cell_volume 5843.037137
_symmetry_space_group_name_H-M "I M M A"
_symmetry_group_IT_number 74
_symmetry_cell_setting 'orthorhombic'
loop_
_space_group_symop_operation_xyz
x,y,z
-x,1/2-y,z
x,-y,-z
-x,1/2+y,-z
-x,-y,-z
x,1/2+y,-z
-x,y,z
x,1/2-y,z
1/2+x,1/2+y,1/2+z
1/2-x,-y,1/2+z
1/2+x,1/2-y,1/2-z
1/2-x,y,1/2-z
1/2-x,1/2-y,1/2-z
1/2+x,y,1/2-z
1/2-x,1/2+y,1/2+z
1/2+x,-y,1/2+z
loop_
_atom_site_type_symbol
_atom_site_label
_atom_site_fract_x
_atom_site_fract_y
_atom_site_fract_z
Si Si1 0.691649 0.049676 0.048338
Si Si2 0.142543 0.946675 0.640163
Si Si3 0.195186 0.441891 0.917905
Si Si4 0.751328 0.055855 0.818585
Si Si5 0.439389 0.449446 0.789773
Si Si6 0.086438 0.558533 0.886049
Si Si7 0.636176 0.457172 0.709437
Si Si8 0.500000 0.750000 0.398321
O O1 0.690369 0.250000 0.052343
O O2 0.660312 0.980056 0.091945
O O3 0.754392 0.996853 0.052282
O O4 0.669677 0.000000 0.000000
O O5 0.130677 0.750000 0.634906
O O6 0.194721 0.965733 0.672735
O O7 0.091180 0.028487 0.663559
O O8 0.180884 0.250000 0.928462
O O9 0.219627 0.446081 0.867438
O O10 0.140210 0.546628 0.916957
O O11 0.738540 0.250000 0.806542
O O12 0.800412 0.991726 0.787622
O O13 0.500000 0.521324 0.788849
O O14 0.443688 0.250000 0.780934
O O15 0.399945 0.515435 0.750931
O O16 0.064513 0.750000 0.889136
O O17 0.108289 0.526105 0.835494
O O18 0.046852 0.402431 0.896623
O O19 0.636641 0.250000 0.706704
#
# Coordination Sequence:
#
# PCOD9537733 Si02
#       8
#    16  16  16  16  16  16  16   4
#     4  10  20  34  57  89 115 139 171 216 279 348
#     4  10  21  36  53  77 113 145 177 225 277 334
#     4   9  16  32  52  77 115 146 173 223 282 339
#     4   8  15  29  52  76 104 144 180 218 276 334
#     4  10  22  37  56  75 102 148 195 235 279 330
#     4  11  21  33  53  77 108 153 196 248 297 335
#     4   9  18  34  53  77 108 143 188 245 293 330
#     4  12  22  36  48  74 114 150 208 248 294 326
#
# _framework density 19.852689999999999
#
# number of rings (size 3 to 8) (size 9 to 14) (size 15 to 20)
#    0.000    2.345    1.379    2.276    0.966    6.345 
#    0.000    2.759    0.000    0.414    0.000    0.483 
#    0.000    0.000    0.000    0.000    0.000    0.000 
#
# Total GULP energy -322908.997359 kJ/mol
# GULP energy per Si atom -5567.396506 kJ/mol
# Density = 1.980750 g / cm^3
# Si number density = 19.852690 Si / 1000 Ang^3
#
#
#
# Elastic Constant Matrix: (Units=GPa)
#
#
# Indices 1 2 3 4 5 6 
#
# 1 83.3551 7.6417 32.9873 0.0000 0.0000 0.0000
# 2 7.6417 70.1366 -4.0378 0.0000 0.0000 0.0000
# 3 32.9873 -4.0378 74.7158 0.0000 0.0000 0.0000
# 4 0.0000 0.0000 0.0000 16.8330 0.0000 0.0000
# 5 0.0000 0.0000 0.0000 0.0000 0.8508 0.0000
# 6 0.0000 0.0000 0.0000 0.0000 0.0000 0.4676
#
#
#
# Elastic Compliance Matrix: (Units=1/GPa)
#
#
# Indices 1 2 3 4 5 6 
#
# 1 0.014810 -0.001996 -0.006647 0.000000 0.000000 0.000000
# 2 -0.001996 0.014571 0.001669 0.000000 0.000000 0.000000
# 3 -0.006647 0.001669 0.016409 0.000000 0.000000 0.000000
# 4 0.000000 0.000000 0.000000 0.059407 0.000000 0.000000
# 5 0.000000 0.000000 0.000000 0.000000 1.175344 0.000000
# 6 0.000000 0.000000 0.000000 0.000000 0.000000 2.138385
#
#
# Mechanical properties :
#
#
# Convention : Reuss Voigt Hill
#
# Bulk Modulus (GPa) = 31.40479 33.48775 32.44627
# Shear Modulus (GPa) = 1.45202 16.40472 8.92837
#
# Velocity S-wave (km/s) = 0.85614 2.87770 2.12299
# Velocity P-wave (km/s) = 4.10251 5.28642 4.73164
#
# Compressibility (1/GPa) = 0.03184228
#
# Stress axis : x y z
#
# Youngs Moduli (GPa) = 67.52076 68.62723 60.94308
#
# Poissons Ratio (x) = 0.13700 0.40507
# Poissons Ratio (y) = 0.13479 -0.10171
# Poissons Ratio (z) = 0.44879 -0.11453
#
# Static dielectric constant tensor:
#      x y z
#    x 1.707490 0.000000 0.000000 
#    y 0.000000 1.711990 0.000000 
#    z 0.000000 0.000000 1.737600 
# 
# From -- ./inp_files/73751.got.cif
#   From: 2010.05.17/outbox.cif.g08.bks.cpg/sg74_37_cif.got.tgz:73751.got - 2010.06.03 17:57:02.
