data_PCOD9537725
_publ_section_title
;
Structure prediction by ZEFSAII (Michael W. Deem and Ramdas Pophale) SiO2 
 PCOD9537725
Probable space group: I M M A
;
_chemical_formula_sum "Si O2"
_cell_formula_units_Z 96
_cell_length_a 24.074413
_cell_length_b 18.829351
_cell_length_c 11.578427
_cell_angle_alpha 90.000000
_cell_angle_beta 90.000000
_cell_angle_gamma 90.000000
_cell_volume 5248.565480
_symmetry_space_group_name_H-M "I M M A"
_symmetry_group_IT_number 74
_symmetry_cell_setting 'orthorhombic'
loop_
_space_group_symop_operation_xyz
x,y,z
-x,1/2-y,z
x,-y,-z
-x,1/2+y,-z
-x,-y,-z
x,1/2+y,-z
-x,y,z
x,1/2-y,z
1/2+x,1/2+y,1/2+z
1/2-x,-y,1/2+z
1/2+x,1/2-y,1/2-z
1/2-x,y,1/2-z
1/2-x,1/2-y,1/2-z
1/2+x,y,1/2-z
1/2-x,1/2+y,1/2+z
1/2+x,-y,1/2+z
loop_
_atom_site_type_symbol
_atom_site_label
_atom_site_fract_x
_atom_site_fract_y
_atom_site_fract_z
Si Si1 0.118004 0.041412 0.622515
Si Si2 0.000000 0.334604 0.252461
Si Si3 0.661348 0.165273 0.021923
Si Si4 0.203232 0.456100 0.823314
Si Si5 0.216456 0.897965 0.939707
Si Si6 0.000000 0.984844 0.634396
Si Si7 0.123119 0.833806 0.776024
O O1 0.132568 0.121402 0.581229
O O2 0.157220 0.024062 0.730498
O O3 0.057068 0.022443 0.670366
O O4 0.127692 0.000000 0.500000
O O5 0.000000 0.400265 0.342739
O O6 0.058944 0.346075 0.188744
O O7 0.000000 0.250000 0.291181
O O8 0.657030 0.250000 0.006676
O O9 0.726040 0.143209 0.038604
O O10 0.631351 0.143920 0.142504
O O11 0.250000 0.416141 0.750000
O O12 0.230110 0.527073 0.878241
O O13 0.187725 0.412249 0.936503
O O14 0.171092 0.864047 0.856156
O O15 0.000000 0.000000 0.500000
O O16 0.131643 0.750000 0.775807
#
# Coordination Sequence:
#
# PCOD9537725 Si02
#       7
#    16   8  16  16  16   8  16
#     4  11  21  38  58  83 116 151 196 237 293 351
#     4  10  20  36  57  87 117 149 194 240 291 342
#     4  11  22  36  57  85 116 149 191 245 299 350
#     4  11  21  34  54  82 110 151 189 231 288 345
#     4  11  21  35  55  82 115 147 192 241 290 350
#     4  10  20  34  57  85 113 153 187 238 291 342
#     4  10  20  35  57  82 111 147 188 238 294 347
#
# _framework density 18.290711999999999
#
# number of rings (size 3 to 8) (size 9 to 14) (size 15 to 20)
#    0.000    1.333    1.667    7.000    0.000    1.333 
#    0.000    3.750    0.000    3.000    0.000    0.000 
#    0.000    0.000    0.000    0.000    0.000    0.000 
#
# Total GULP energy -267367.030162 kJ/mol
# GULP energy per Si atom -5570.146462 kJ/mol
# Density = 1.824908 g / cm^3
# Si number density = 18.290712 Si / 1000 Ang^3
#
#
#
# Elastic Constant Matrix: (Units=GPa)
#
#
# Indices 1 2 3 4 5 6 
#
# 1 119.6767 29.3593 27.2319 0.0000 0.0000 0.0000
# 2 29.3593 77.7463 21.4942 0.0000 0.0000 0.0000
# 3 27.2319 21.4942 76.0768 0.0000 0.0000 0.0000
# 4 0.0000 0.0000 0.0000 22.9885 0.0000 0.0000
# 5 0.0000 0.0000 0.0000 0.0000 20.0727 0.0000
# 6 0.0000 0.0000 0.0000 0.0000 0.0000 22.4910
#
#
#
# Elastic Compliance Matrix: (Units=1/GPa)
#
#
# Indices 1 2 3 4 5 6 
#
# 1 0.009673 -0.002924 -0.002636 0.000000 0.000000 0.000000
# 2 -0.002924 0.014836 -0.003145 0.000000 0.000000 0.000000
# 3 -0.002636 -0.003145 0.014977 0.000000 0.000000 0.000000
# 4 0.000000 0.000000 0.000000 0.043500 0.000000 0.000000
# 5 0.000000 0.000000 0.000000 0.000000 0.049819 0.000000
# 6 0.000000 0.000000 0.000000 0.000000 0.000000 0.044462
#
#
# Mechanical properties :
#
#
# Convention : Reuss Voigt Hill
#
# Bulk Modulus (GPa) = 45.29966 47.74118 46.52042
# Shear Modulus (GPa) = 24.74802 26.13806 25.44304
#
# Velocity S-wave (km/s) = 3.68236 3.78436 3.73371
# Velocity P-wave (km/s) = 6.54980 6.72705 6.63902
#
# Compressibility (1/GPa) = 0.02207522
#
# Stress axis : x y z
#
# Youngs Moduli (GPa) = 103.37998 67.40362 66.76957
#
# Poissons Ratio (x) = 0.19708 0.17603
# Poissons Ratio (y) = 0.30228 0.20999
# Poissons Ratio (z) = 0.27255 0.21199
#
# Static dielectric constant tensor:
#      x y z
#    x 1.744830 0.000000 0.000000 
#    y 0.000000 1.693820 0.000000 
#    z 0.000000 0.000000 1.625760 
# 
# From -- ./inp_files/22509.got.cif
#   From: 2010.05.17/outbox.cif.g08.bks.cpg/sg74_12_cif.got.tgz:22509.got - 2010.06.03 17:57:02.
