data_PCOD9537300
_publ_section_title
;
Structure prediction by ZEFSAII (Michael W. Deem and Ramdas Pophale) SiO2 
 PCOD9537300
Probable space group: I M M A
;
_chemical_formula_sum "Si O2"
_cell_formula_units_Z 120
_cell_length_a 28.743635
_cell_length_b 7.623486
_cell_length_c 26.745511
_cell_angle_alpha 90.000000
_cell_angle_beta 90.000000
_cell_angle_gamma 90.000000
_cell_volume 5860.655539
_symmetry_space_group_name_H-M "I M M A"
_symmetry_group_IT_number 74
_symmetry_cell_setting 'orthorhombic'
loop_
_space_group_symop_operation_xyz
x,y,z
-x,1/2-y,z
x,-y,-z
-x,1/2+y,-z
-x,-y,-z
x,1/2+y,-z
-x,y,z
x,1/2-y,z
1/2+x,1/2+y,1/2+z
1/2-x,-y,1/2+z
1/2+x,1/2-y,1/2-z
1/2-x,y,1/2-z
1/2-x,1/2-y,1/2-z
1/2+x,y,1/2-z
1/2-x,1/2+y,1/2+z
1/2+x,-y,1/2+z
loop_
_atom_site_type_symbol
_atom_site_label
_atom_site_fract_x
_atom_site_fract_y
_atom_site_fract_z
Si Si1 0.849332 0.960331 0.941574
Si Si2 0.449009 0.538915 0.753603
Si Si3 0.778786 0.962766 0.860344
Si Si4 0.950098 0.039158 0.059612
Si Si5 0.824778 0.043908 0.668062
Si Si6 0.078532 0.960540 0.367509
Si Si7 0.000000 0.038801 0.558486
Si Si8 0.149514 0.452338 0.221948
O O1 0.850692 0.750000 0.936283
O O2 0.805506 0.022609 0.910041
O O3 0.899846 0.026620 0.922183
O O4 0.845301 0.000000 0.000000
O O5 0.500000 0.473366 0.737959
O O6 0.448983 0.750000 0.747616
O O7 0.442088 0.503094 0.812718
O O8 0.402589 0.470313 0.726076
O O9 0.777239 0.750000 0.859027
O O10 0.812071 0.027008 0.815310
O O11 0.725965 0.020750 0.854497
O O12 0.950381 0.250000 0.065960
O O13 0.000000 0.972632 0.079407
O O14 0.949960 0.000000 0.000000
O O15 0.832401 0.250000 0.677257
O O16 0.867851 0.979047 0.634229
O O17 0.829842 0.955950 0.722183
O O18 0.079022 0.750000 0.372164
O O19 0.045260 0.028164 0.411295
O O20 0.000000 0.250000 0.563020
O O21 0.000000 0.000000 0.500000
O O22 0.143265 0.250000 0.206071
#
# Coordination Sequence:
#
# PCOD9537300 Si02
#       8
#    16  16  16  16  16  16   8  16
#     4   9  18  32  49  69  92 123 163 200 239 288
#     4   9  16  27  47  74 100 127 162 201 238 286
#     4  10  20  34  50  69  98 134 166 199 245 297
#     4   8  13  23  41  64  87 110 143 188 231 270
#     4  10  20  33  52  76  98 123 162 207 246 288
#     4   9  18  33  51  71  96 127 160 196 242 294
#     4  10  20  34  52  74 102 132 162 198 245 296
#     4   9  18  32  49  71 101 133 162 197 245 297
#
# _framework density 20.475524
#
# number of rings (size 3 to 8) (size 9 to 14) (size 15 to 20)
#    0.000    2.800    0.667    0.800    0.000    3.733 
#    0.000    1.333    0.000    7.200    0.000    0.000 
#    0.000    9.600    0.000    0.000    0.000    0.000 
#
# Total GULP energy -334432.349157 kJ/mol
# GULP energy per Si atom -5573.872486 kJ/mol
# Density = 2.042892 g / cm^3
# Si number density = 20.475524 Si / 1000 Ang^3
#
#
#
# Elastic Constant Matrix: (Units=GPa)
#
#
# Indices 1 2 3 4 5 6 
#
# 1 215.7419 5.7527 63.9535 0.0000 0.0000 0.0000
# 2 5.7527 37.9481 4.7227 0.0000 0.0000 0.0000
# 3 63.9535 4.7227 58.0837 0.0000 0.0000 0.0000
# 4 0.0000 0.0000 0.0000 8.0674 0.0000 0.0000
# 5 0.0000 0.0000 0.0000 0.0000 10.5602 0.0000
# 6 0.0000 0.0000 0.0000 0.0000 0.0000 11.9452
#
#
#
# Elastic Compliance Matrix: (Units=1/GPa)
#
#
# Indices 1 2 3 4 5 6 
#
# 1 0.006881 -0.000101 -0.007569 0.000000 0.000000 0.000000
# 2 -0.000101 0.026623 -0.002053 0.000000 0.000000 0.000000
# 3 -0.007569 -0.002053 0.025717 0.000000 0.000000 0.000000
# 4 0.000000 0.000000 0.000000 0.123955 0.000000 0.000000
# 5 0.000000 0.000000 0.000000 0.000000 0.094695 0.000000
# 6 0.000000 0.000000 0.000000 0.000000 0.000000 0.083716
#
#
# Mechanical properties :
#
#
# Convention : Reuss Voigt Hill
#
# Bulk Modulus (GPa) = 25.14144 51.18129 38.16137
# Shear Modulus (GPa) = 12.68097 21.93755 17.30926
#
# Velocity S-wave (km/s) = 2.49132 3.27678 2.91067
# Velocity P-wave (km/s) = 4.53663 6.27431 5.47485
#
# Compressibility (1/GPa) = 0.03977496
#
# Stress axis : x y z
#
# Youngs Moduli (GPa) = 145.31723 37.56202 38.88468
#
# Poissons Ratio (x) = 0.00380 0.29431
# Poissons Ratio (y) = 0.01471 0.07984
# Poissons Ratio (z) = 1.09986 0.07712
#
# Static dielectric constant tensor:
#      x y z
#    x 1.775110 0.000000 0.000000 
#    y 0.000000 1.793600 0.000000 
#    z 0.000000 0.000000 1.673780 
# 
# From -- ./inp_files/68999.got.cif
#   From: 2010.05.17/outbox.cif.g08.bks.cpg/sg74_35_cif.got.tgz:68999.got - 2010.06.03 17:57:02.
