data_PCOD9537858
_publ_section_title
;
Structure prediction by ZEFSAII (Michael W. Deem and Ramdas Pophale) SiO2 
 PCOD9537858
Probable space group: I M M A
;
_chemical_formula_sum "Si O2"
_cell_formula_units_Z 72
_cell_length_a 15.772749
_cell_length_b 7.650717
_cell_length_c 26.547734
_cell_angle_alpha 90.000000
_cell_angle_beta 90.000000
_cell_angle_gamma 90.000000
_cell_volume 3203.590428
_symmetry_space_group_name_H-M "I M M A"
_symmetry_group_IT_number 74
_symmetry_cell_setting 'orthorhombic'
loop_
_space_group_symop_operation_xyz
x,y,z
-x,1/2-y,z
x,-y,-z
-x,1/2+y,-z
-x,-y,-z
x,1/2+y,-z
-x,y,z
x,1/2-y,z
1/2+x,1/2+y,1/2+z
1/2-x,-y,1/2+z
1/2+x,1/2-y,1/2-z
1/2-x,y,1/2-z
1/2-x,1/2-y,1/2-z
1/2+x,y,1/2-z
1/2-x,1/2+y,1/2+z
1/2+x,-y,1/2+z
loop_
_atom_site_type_symbol
_atom_site_label
_atom_site_fract_x
_atom_site_fract_y
_atom_site_fract_z
Si Si1 0.500000 0.539748 0.941023
Si Si2 0.645742 0.460046 0.443655
Si Si3 0.500000 0.460156 0.253221
Si Si4 0.000000 0.463979 0.131005
Si Si5 0.320918 0.452812 0.094462
Si Si6 0.316755 0.044186 0.791608
O O1 0.500000 0.750000 0.932618
O O2 0.412870 0.469013 0.917455
O O3 0.500000 0.500000 0.000000
O O4 0.616198 0.500000 0.500000
O O5 0.648583 0.250000 0.438731
O O6 0.581741 0.522534 0.400635
O O7 0.740324 0.531110 0.434261
O O8 0.500000 0.250000 0.252462
O O9 0.500000 0.521293 0.311259
O O10 0.586732 0.518563 0.226659
O O11 0.000000 0.250000 0.131688
O O12 0.325397 0.250000 0.078592
O O13 0.304545 0.459891 0.153948
O O14 0.300749 0.250000 0.797862
O O15 0.250000 0.976834 0.750000
#
# Coordination Sequence:
#
# PCOD9537858 Si02
#       6
#     8  16   8   8  16  16
#     4  10  21  36  55  81 110 142 183 230 280 335
#     4  10  20  35  55  80 110 143 184 231 278 332
#     4  11  22  39  64  87 113 154 199 240 285 341
#     4   9  19  35  55  80 108 142 185 230 276 332
#     4  10  21  37  57  81 110 147 191 233 276 337
#     4  11  24  40  59  87 121 153 190 240 295 347
#
# _framework density 22.474784
#
# number of rings (size 3 to 8) (size 9 to 14) (size 15 to 20)
#    0.000    1.778    0.000    4.000    0.000    6.222 
#    0.000    2.222    0.000    0.000    0.000    0.000 
#    0.000    0.000    0.000    0.000    0.000    0.000 
#
# Total GULP energy -201302.635880 kJ/mol
# GULP energy per Si atom -5591.739886 kJ/mol
# Density = 2.242363 g / cm^3
# Si number density = 22.474784 Si / 1000 Ang^3
#
#
#
# Elastic Constant Matrix: (Units=GPa)
#
#
# Indices 1 2 3 4 5 6 
#
# 1 91.6474 -0.7740 -6.1732 0.0000 0.0000 0.0000
# 2 -0.7740 45.1270 -23.8698 0.0000 0.0000 0.0000
# 3 -6.1732 -23.8698 64.5066 0.0000 0.0000 0.0000
# 4 0.0000 0.0000 0.0000 25.7432 0.0000 0.0000
# 5 0.0000 0.0000 0.0000 0.0000 55.5197 0.0000
# 6 0.0000 0.0000 0.0000 0.0000 0.0000 -35.4165
#
#
#
# Elastic Compliance Matrix: (Units=1/GPa)
#
#
# Indices 1 2 3 4 5 6 
#
# 1 0.011013 0.000928 0.001397 0.000000 0.000000 0.000000
# 2 0.000928 0.027631 0.010313 0.000000 0.000000 0.000000
# 3 0.001397 0.010313 0.019452 0.000000 0.000000 0.000000
# 4 0.000000 0.000000 0.000000 0.038845 0.000000 0.000000
# 5 0.000000 0.000000 0.000000 0.000000 0.018012 0.000000
# 6 0.000000 0.000000 0.000000 0.000000 0.000000 -0.028235
#
#
# Mechanical properties :
#
#
# Convention : Reuss Voigt Hill
#
# Bulk Modulus (GPa) = 11.99421 15.51633 13.75527
# Shear Modulus (GPa) = 56.03388 24.64248 40.33818
#
# Velocity S-wave (km/s) = 4.99860 3.31486 4.24113
# Velocity P-wave (km/s) = 6.21796 4.64435 5.48785
#
# Compressibility (1/GPa) = 0.08337354
#
# Stress axis : x y z
#
# Youngs Moduli (GPa) = 90.79889 36.19161 51.40788
#
# Poissons Ratio (x) = -0.03359 -0.07184
# Poissons Ratio (y) = -0.08426 -0.53018
# Poissons Ratio (z) = -0.12688 -0.37325
#
# Static dielectric constant tensor:
#      x y z
#    x 1.854660 0.000000 0.000000 
#    y 0.000000 1.853020 0.000000 
#    z 0.000000 0.000000 1.751970 
# 
# From -- ./inp_files/63713.got.cif
#   From: 2010.05.17/outbox.cif.g08.bks.cpg/sg74_32_cif.got.tgz:63713.got - 2010.06.03 17:57:02.
