data_PCOD9537516
_publ_section_title
;
Structure prediction by ZEFSAII (Michael W. Deem and Ramdas Pophale) SiO2 
 PCOD9537516
Probable space group: I M M A
;
_chemical_formula_sum "Si O2"
_cell_formula_units_Z 104
_cell_length_a 9.206718
_cell_length_b 21.425800
_cell_length_c 28.491341
_cell_angle_alpha 90.000000
_cell_angle_beta 90.000000
_cell_angle_gamma 90.000000
_cell_volume 5620.238922
_symmetry_space_group_name_H-M "I M M A"
_symmetry_group_IT_number 74
_symmetry_cell_setting 'orthorhombic'
loop_
_space_group_symop_operation_xyz
x,y,z
-x,1/2-y,z
x,-y,-z
-x,1/2+y,-z
-x,-y,-z
x,1/2+y,-z
-x,y,z
x,1/2-y,z
1/2+x,1/2+y,1/2+z
1/2-x,-y,1/2+z
1/2+x,1/2-y,1/2-z
1/2-x,y,1/2-z
1/2-x,1/2-y,1/2-z
1/2+x,y,1/2-z
1/2-x,1/2+y,1/2+z
1/2+x,-y,1/2+z
loop_
_atom_site_type_symbol
_atom_site_label
_atom_site_fract_x
_atom_site_fract_y
_atom_site_fract_z
Si Si1 0.830125 0.929830 0.700968
Si Si2 0.830957 0.323140 0.369561
Si Si3 0.673605 0.250000 0.699718
Si Si4 0.672303 0.400894 0.448471
Si Si5 0.672404 0.654178 0.381151
Si Si6 0.672974 0.819331 0.023035
Si Si7 0.672123 0.993622 0.379825
O O1 0.750000 0.935820 0.750000
O O2 0.814455 0.860674 0.678874
O O3 0.000000 0.943177 0.706528
O O4 0.761667 0.974990 0.661906
O O5 0.805327 0.250000 0.364853
O O6 0.724432 0.354813 0.406872
O O7 0.000000 0.332389 0.385116
O O8 0.500000 0.250000 0.707039
O O9 0.750000 0.250000 0.750000
O O10 0.709839 0.309840 0.666935
O O11 0.500000 0.495100 0.372072
O O12 0.753914 0.374788 0.493748
O O13 0.708590 0.469815 0.428254
O O14 0.500000 0.665393 0.389563
O O15 0.764152 0.679199 0.424636
O O16 0.696001 0.580038 0.379784
O O17 0.500000 0.826312 0.023091
O O18 0.706438 0.750000 0.002452
O O19 0.500000 0.897640 0.543775
#
# Coordination Sequence:
#
# PCOD9537516 Si02
#       7
#    16  16   8  16  16  16  16
#     4  10  20  34  53  76 105 142 183 229 280 333
#     4   9  18  33  51  73 105 143 185 233 280 326
#     4  10  22  40  64  90 116 146 182 230 285 342
#     4  10  20  34  54  81 112 149 188 228 276 331
#     4  10  21  40  63  86 112 144 184 229 279 333
#     4  11  23  37  56  83 116 152 188 230 276 327
#     4   9  20  38  58  81 111 144 184 233 282 336
#
# _framework density 18.504552
#
# number of rings (size 3 to 8) (size 9 to 14) (size 15 to 20)
#    0.000    2.154    0.769    1.846    0.000    7.077 
#    0.000    4.615    0.000    0.000    0.000    0.000 
#    0.000    0.000    0.000    0.000    0.000    0.000 
#
# Total GULP energy -290215.092371 kJ/mol
# GULP energy per Si atom -5581.059469 kJ/mol
# Density = 1.846243 g / cm^3
# Si number density = 18.504552 Si / 1000 Ang^3
#
#
#
# Elastic Constant Matrix: (Units=GPa)
#
#
# Indices 1 2 3 4 5 6 
#
# 1 53.0788 53.2022 53.2778 0.0000 0.0000 0.0000
# 2 53.2022 123.5405 49.2210 0.0000 0.0000 0.0000
# 3 53.2778 49.2210 120.2726 0.0000 0.0000 0.0000
# 4 0.0000 0.0000 0.0000 14.7916 0.0000 0.0000
# 5 0.0000 0.0000 0.0000 0.0000 37.9748 0.0000
# 6 0.0000 0.0000 0.0000 0.0000 0.0000 20.4732
#
#
#
# Elastic Compliance Matrix: (Units=1/GPa)
#
#
# Indices 1 2 3 4 5 6 
#
# 1 0.050142 -0.015227 -0.015980 0.000000 0.000000 0.000000
# 2 -0.015227 0.014295 0.000895 0.000000 0.000000 0.000000
# 3 -0.015980 0.000895 0.015027 0.000000 0.000000 0.000000
# 4 0.000000 0.000000 0.000000 0.067606 0.000000 0.000000
# 5 0.000000 0.000000 0.000000 0.000000 0.026333 0.000000
# 6 0.000000 0.000000 0.000000 0.000000 0.000000 0.048844
#
#
# Mechanical properties :
#
#
# Convention : Reuss Voigt Hill
#
# Bulk Modulus (GPa) = 53.07793 67.58820 60.33306
# Shear Modulus (GPa) = 17.29190 24.06065 20.67628
#
# Velocity S-wave (km/s) = 3.06022 3.60982 3.34632
# Velocity P-wave (km/s) = 6.42126 7.34703 6.89969
#
# Compressibility (1/GPa) = 0.01884022
#
# Stress axis : x y z
#
# Youngs Moduli (GPa) = 19.94329 69.95305 66.54616
#
# Poissons Ratio (x) = 1.06515 1.06343
# Poissons Ratio (y) = 0.30367 -0.05954
# Poissons Ratio (z) = 0.31870 -0.06259
#
# Static dielectric constant tensor:
#      x y z
#    x 1.617830 0.000000 0.000000 
#    y 0.000000 1.651780 0.000000 
#    z 0.000000 0.000000 1.620800 
# 
# From -- ./inp_files/64424.got.cif
#   From: 2010.05.17/outbox.cif.g08.bks.cpg/sg74_33_cif.got.tgz:64424.got - 2010.06.03 17:57:02.
