data_PCOD9537664
_publ_section_title
;
Structure prediction by ZEFSAII (Michael W. Deem and Ramdas Pophale) SiO2 
 PCOD9537664
Probable space group: I M M A
;
_chemical_formula_sum "Si O2"
_cell_formula_units_Z 96
_cell_length_a 15.348610
_cell_length_b 28.227447
_cell_length_c 10.923452
_cell_angle_alpha 90.000000
_cell_angle_beta 90.000000
_cell_angle_gamma 90.000000
_cell_volume 4732.608248
_symmetry_space_group_name_H-M "I M M A"
_symmetry_group_IT_number 74
_symmetry_cell_setting 'orthorhombic'
loop_
_space_group_symop_operation_xyz
x,y,z
-x,1/2-y,z
x,-y,-z
-x,1/2+y,-z
-x,-y,-z
x,1/2+y,-z
-x,y,z
x,1/2-y,z
1/2+x,1/2+y,1/2+z
1/2-x,-y,1/2+z
1/2+x,1/2-y,1/2-z
1/2-x,y,1/2-z
1/2-x,1/2-y,1/2-z
1/2+x,y,1/2-z
1/2-x,1/2+y,1/2+z
1/2+x,-y,1/2+z
loop_
_atom_site_type_symbol
_atom_site_label
_atom_site_fract_x
_atom_site_fract_y
_atom_site_fract_z
Si Si1 0.500000 0.806789 0.270053
Si Si2 0.835069 0.695695 0.071755
Si Si3 0.500000 0.627564 0.048379
Si Si4 0.250000 0.123098 0.250000
Si Si5 0.000000 0.022047 0.635705
Si Si6 0.899190 0.803019 0.794638
Si Si7 0.689865 0.519249 0.138911
Si Si8 0.303120 0.115991 0.990682
O O1 0.500000 0.750000 0.275908
O O2 0.409811 0.822158 0.335493
O O3 0.500000 0.827163 0.135043
O O4 0.809394 0.750000 0.103090
O O5 0.752324 0.661348 0.054767
O O6 0.883884 0.697819 0.940750
O O7 0.500000 0.578777 0.126344
O O8 0.594329 0.625990 0.984420
O O9 0.167194 0.157954 0.250492
O O10 0.241409 0.098454 0.381836
O O11 0.092575 0.006947 0.685825
O O12 0.000000 0.000000 0.500000
O O13 0.877864 0.750000 0.747649
O O14 0.000000 0.812762 0.767646
O O15 0.750000 0.504339 0.250000
O O16 0.699621 0.575417 0.112110
O O17 0.701283 0.500000 0.000000
#
# Coordination Sequence:
#
# PCOD9537664 Si02
#       8
#     8  16   8   8   8  16  16  16
#     4  10  20  34  55  83 122 166 205 249 301 362
#     4   9  18  34  56  81 115 158 203 245 296 354
#     4  10  22  36  55  81 117 156 199 237 296 371
#     4  10  21  34  54  78 114 144 196 244 297 346
#     4   8  18  40  63  88 118 161 192 234 311 383
#     4   9  16  30  51  75 104 147 198 244 290 340
#     4  10  22  41  69  93 123 159 202 248 309 372
#     4  10  23  38  59  87 118 158 199 250 303 364
#
# _framework density 20.284797999999999
#
# number of rings (size 3 to 8) (size 9 to 14) (size 15 to 20)
#    0.000    2.500    0.833    0.250    7.000    1.333 
#    0.000    2.083    0.000    0.000    0.000    0.000 
#    0.000    0.000    0.000    0.000    0.000    0.000 
#
# Total GULP energy -267446.813630 kJ/mol
# GULP energy per Si atom -5571.808617 kJ/mol
# Density = 2.023863 g / cm^3
# Si number density = 20.284798 Si / 1000 Ang^3
#
#
#
# Elastic Constant Matrix: (Units=GPa)
#
#
# Indices 1 2 3 4 5 6 
#
# 1 148.3874 33.8984 41.2295 0.0001 0.0000 0.0000
# 2 33.8984 37.4863 9.8790 0.0003 0.0000 0.0000
# 3 41.2295 9.8790 59.3848 0.0004 0.0000 -0.0003
# 4 0.0001 0.0003 0.0004 22.1207 0.0000 -0.0001
# 5 0.0000 0.0000 0.0000 0.0000 36.1343 0.0000
# 6 0.0000 0.0000 -0.0003 -0.0001 0.0000 14.2448
#
#
#
# Elastic Compliance Matrix: (Units=1/GPa)
#
#
# Indices 1 2 3 4 5 6 
#
# 1 0.010064 -0.007592 -0.005724 0.000000 0.000000 0.000000
# 2 -0.007592 0.033627 -0.000323 0.000000 0.000000 0.000000
# 3 -0.005724 -0.000323 0.020867 0.000000 0.000000 0.000000
# 4 0.000000 0.000000 0.000000 0.045207 0.000000 0.000000
# 5 0.000000 0.000000 0.000000 0.000000 0.027675 0.000000
# 6 0.000000 0.000000 0.000000 0.000000 0.000000 0.070201
#
#
# Mechanical properties :
#
#
# Convention : Reuss Voigt Hill
#
# Bulk Modulus (GPa) = 26.82438 46.14137 36.48287
# Shear Modulus (GPa) = 20.21465 25.18341 22.69903
#
# Velocity S-wave (km/s) = 3.16023 3.52730 3.34880
# Velocity P-wave (km/s) = 5.15448 6.27577 5.74256
#
# Compressibility (1/GPa) = 0.03727952
#
# Stress axis : x y z
#
# Youngs Moduli (GPa) = 99.36433 29.73799 47.92209
#
# Poissons Ratio (x) = 0.22578 0.27431
# Poissons Ratio (y) = 0.75439 0.01548
# Poissons Ratio (z) = 0.56878 0.00960
#
# Static dielectric constant tensor:
#      x y z
#    x 1.729740 0.000000 0.000000 
#    y 0.000000 1.738330 0.000000 
#    z 0.000000 0.000000 1.699900 
# 
# From -- ./inp_files/21096.got.cif
#   From: 2010.05.17/outbox.cif.g08.bks.cpg/sg74_11_cif.got.tgz:21096.got - 2010.06.03 17:57:02.
