data_PCOD9537586
_publ_section_title
;
Structure prediction by ZEFSAII (Michael W. Deem and Ramdas Pophale) SiO2 
 PCOD9537586
Probable space group: I M M A
;
_chemical_formula_sum "Si O2"
_cell_formula_units_Z 72
_cell_length_a 7.526327
_cell_length_b 13.545937
_cell_length_c 32.777754
_cell_angle_alpha 90.000000
_cell_angle_beta 90.000000
_cell_angle_gamma 90.000000
_cell_volume 3341.729760
_symmetry_space_group_name_H-M "I M M A"
_symmetry_group_IT_number 74
_symmetry_cell_setting 'orthorhombic'
loop_
_space_group_symop_operation_xyz
x,y,z
-x,1/2-y,z
x,-y,-z
-x,1/2+y,-z
-x,-y,-z
x,1/2+y,-z
-x,y,z
x,1/2-y,z
1/2+x,1/2+y,1/2+z
1/2-x,-y,1/2+z
1/2+x,1/2-y,1/2-z
1/2-x,y,1/2-z
1/2-x,1/2-y,1/2-z
1/2+x,y,1/2-z
1/2-x,1/2+y,1/2+z
1/2+x,-y,1/2+z
loop_
_atom_site_type_symbol
_atom_site_label
_atom_site_fract_x
_atom_site_fract_y
_atom_site_fract_z
Si Si1 0.213520 0.138940 0.797971
Si Si2 0.716759 0.057832 0.436876
Si Si3 0.208874 0.750000 0.702292
Si Si4 0.283479 0.143751 0.521463
Si Si5 0.790841 0.052750 0.154000
O O1 0.279301 0.250000 0.808360
O O2 0.250000 0.121913 0.750000
O O3 0.000000 0.141257 0.802526
O O4 0.282170 0.046315 0.824392
O O5 0.500000 0.063949 0.436805
O O6 0.773313 0.126211 0.474607
O O7 0.781063 0.076068 0.391196
O O8 0.769577 0.947972 0.450925
O O9 0.250000 0.750000 0.750000
O O10 0.276549 0.649502 0.681775
O O11 0.000000 0.750000 0.696457
O O12 0.500000 0.142445 0.521460
O O13 0.224081 0.250000 0.536376
O O14 0.000000 0.032983 0.148278
#
# Coordination Sequence:
#
# PCOD9537586 Si02
#       5
#    16  16   8  16  16
#     4   9  18  32  50  73 100 131 167 207 257 314
#     4   8  15  25  39  67 101 133 170 208 256 306
#     4  12  26  42  58  78 106 140 180 226 274 326
#     4   8  13  22  38  63 101 141 170 206 253 303
#     4  10  20  34  54  79 108 141 177 220 267 319
#
# _framework density 21.545726999999999
#
# number of rings (size 3 to 8) (size 9 to 14) (size 15 to 20)
#    0.000    2.889    0.000    3.000    1.556    3.556 
#    0.000    4.444    0.000    0.000    0.000    3.111 
#    0.000    0.000    0.000    0.000    0.000    0.000 
#
# Total GULP energy -200806.713097 kJ/mol
# GULP energy per Si atom -5577.964253 kJ/mol
# Density = 2.149669 g / cm^3
# Si number density = 21.545727 Si / 1000 Ang^3
#
#
#
# Elastic Constant Matrix: (Units=GPa)
#
#
# Indices 1 2 3 4 5 6 
#
# 1 52.0164 -14.2330 -12.2430 0.0000 0.0000 0.0000
# 2 -14.2330 89.8825 28.2484 0.0000 0.0000 0.0000
# 3 -12.2430 28.2484 114.5117 0.0000 0.0000 0.0000
# 4 0.0000 0.0000 0.0000 27.7118 0.0000 0.0000
# 5 0.0000 0.0000 0.0000 0.0000 4.3035 0.0000
# 6 0.0000 0.0000 0.0000 0.0000 0.0000 -53.8535
#
#
#
# Elastic Compliance Matrix: (Units=1/GPa)
#
#
# Indices 1 2 3 4 5 6 
#
# 1 0.020329 0.002749 0.001495 0.000000 0.000000 0.000000
# 2 0.002749 0.012432 -0.002773 0.000000 0.000000 0.000000
# 3 0.001495 -0.002773 0.009577 0.000000 0.000000 0.000000
# 4 0.000000 0.000000 0.000000 0.036086 0.000000 0.000000
# 5 0.000000 0.000000 0.000000 0.000000 0.232368 0.000000
# 6 0.000000 0.000000 0.000000 0.000000 0.000000 -0.018569
#
#
# Mechanical properties :
#
#
# Convention : Reuss Voigt Hill
#
# Bulk Modulus (GPa) = 22.08436 28.88393 25.48414
# Shear Modulus (GPa) = 16.42721 12.60824 14.51772
#
# Velocity S-wave (km/s) = 2.76422 2.42168 2.59860
# Velocity P-wave (km/s) = 4.52329 4.61025 4.56697
#
# Compressibility (1/GPa) = 0.04528092
#
# Stress axis : x y z
#
# Youngs Moduli (GPa) = 49.19110 80.43455 104.42055
#
# Poissons Ratio (x) = -0.22113 -0.15614
# Poissons Ratio (y) = -0.13523 0.28956
# Poissons Ratio (z) = -0.07356 0.22304
#
# Static dielectric constant tensor:
#      x y z
#    x 1.820590 0.000000 0.000000 
#    y 0.000000 1.462340 0.000000 
#    z 0.000000 0.000000 1.749920 
# 
# From -- ./inp_files/69976.got.cif
#   From: 2010.05.17/outbox.cif.g08.bks.cpg/sg74_35_cif.got.tgz:69976.got - 2010.06.03 17:57:02.
