data_PCOD9537647
_publ_section_title
;
Structure prediction by ZEFSAII (Michael W. Deem and Ramdas Pophale) SiO2 
 PCOD9537647
Probable space group: I M M A
;
_chemical_formula_sum "Si O2"
_cell_formula_units_Z 96
_cell_length_a 20.788106
_cell_length_b 8.685307
_cell_length_c 28.527211
_cell_angle_alpha 90.000000
_cell_angle_beta 90.000000
_cell_angle_gamma 90.000000
_cell_volume 5150.618828
_symmetry_space_group_name_H-M "I M M A"
_symmetry_group_IT_number 74
_symmetry_cell_setting 'orthorhombic'
loop_
_space_group_symop_operation_xyz
x,y,z
-x,1/2-y,z
x,-y,-z
-x,1/2+y,-z
-x,-y,-z
x,1/2+y,-z
-x,y,z
x,1/2-y,z
1/2+x,1/2+y,1/2+z
1/2-x,-y,1/2+z
1/2+x,1/2-y,1/2-z
1/2-x,y,1/2-z
1/2-x,1/2-y,1/2-z
1/2+x,y,1/2-z
1/2-x,1/2+y,1/2+z
1/2+x,-y,1/2+z
loop_
_atom_site_type_symbol
_atom_site_label
_atom_site_fract_x
_atom_site_fract_y
_atom_site_fract_z
Si Si1 0.425243 0.565593 0.448630
Si Si2 0.925801 0.935828 0.396976
Si Si3 0.813882 0.063924 0.778938
Si Si4 0.314967 0.565487 0.616633
Si Si5 0.803950 0.934197 0.551307
Si Si6 0.427233 0.437403 0.789147
O O1 0.408758 0.500000 0.500000
O O2 0.500000 0.524898 0.439106
O O3 0.420131 0.750000 0.449611
O O4 0.377049 0.498431 0.410449
O O5 0.921571 0.750000 0.399483
O O6 0.912380 0.982222 0.342835
O O7 0.000000 0.978018 0.407623
O O8 0.872893 0.008043 0.430469
O O9 0.816309 0.250000 0.782777
O O10 0.750000 0.023717 0.750000
O O11 0.875069 0.011051 0.748409
O O12 0.812766 0.995203 0.830582
O O13 0.317001 0.750000 0.616608
O O14 0.251457 0.515895 0.587739
O O15 0.803945 0.750000 0.549138
O O16 0.790188 0.000000 0.500000
O O17 0.500000 0.486828 0.778081
O O18 0.426807 0.250000 0.788945
#
# Coordination Sequence:
#
# PCOD9537647 Si02
#       6
#    16  16  16  16  16  16
#     4  10  21  38  61  87 114 146 184 227 278 336
#     4   9  18  35  60  86 111 142 180 223 271 323
#     4  10  20  34  55  81 108 143 186 230 277 328
#     4  11  24  39  56  81 113 149 189 233 280 330
#     4  11  24  39  56  79 108 144 184 227 274 325
#     4   8  15  30  53  80 108 138 175 218 263 315
#
# _framework density 18.638536999999999
#
# number of rings (size 3 to 8) (size 9 to 14) (size 15 to 20)
#    0.000    2.167    0.000    4.000    0.000    8.000 
#    0.000    2.500    0.000    1.000    0.000    0.000 
#    0.000    0.000    0.000    0.000    0.000    0.000 
#
# Total GULP energy -268088.458695 kJ/mol
# GULP energy per Si atom -5585.176223 kJ/mol
# Density = 1.859612 g / cm^3
# Si number density = 18.638537 Si / 1000 Ang^3
#
#
#
# Elastic Constant Matrix: (Units=GPa)
#
#
# Indices 1 2 3 4 5 6 
#
# 1 66.8164 18.9100 33.7591 0.0000 0.0000 0.0000
# 2 18.9100 20.1142 15.6921 0.0000 0.0000 0.0000
# 3 33.7591 15.6921 69.2114 0.0000 0.0000 0.0000
# 4 0.0000 0.0000 0.0000 33.6415 0.0000 0.0000
# 5 0.0000 0.0000 0.0000 0.0000 42.2911 0.0000
# 6 0.0000 0.0000 0.0000 0.0000 0.0000 17.9215
#
#
#
# Elastic Compliance Matrix: (Units=1/GPa)
#
#
# Indices 1 2 3 4 5 6 
#
# 1 0.023421 -0.015923 -0.007814 0.000000 0.000000 0.000000
# 2 -0.015923 0.071224 -0.008382 0.000000 0.000000 0.000000
# 3 -0.007814 -0.008382 0.020160 0.000000 0.000000 0.000000
# 4 0.000000 0.000000 0.000000 0.029725 0.000000 0.000000
# 5 0.000000 0.000000 0.000000 0.000000 0.023646 0.000000
# 6 0.000000 0.000000 0.000000 0.000000 0.000000 0.055799
#
#
# Mechanical properties :
#
#
# Convention : Reuss Voigt Hill
#
# Bulk Modulus (GPa) = 19.77507 32.54050 26.15779
# Shear Modulus (GPa) = 16.38980 24.62288 20.50634
#
# Velocity S-wave (km/s) = 2.96860 3.63860 3.32054
# Velocity P-wave (km/s) = 4.73106 5.92867 5.36340
#
# Compressibility (1/GPa) = 0.05056871
#
# Stress axis : x y z
#
# Youngs Moduli (GPa) = 42.69744 14.04012 49.60263
#
# Poissons Ratio (x) = 0.22355 0.38758
# Poissons Ratio (y) = 0.67985 0.41577
# Poissons Ratio (z) = 0.33363 0.11768
#
# Static dielectric constant tensor:
#      x y z
#    x 1.642810 0.000000 0.000000 
#    y 0.000000 1.632460 0.000000 
#    z 0.000000 0.000000 1.607540 
# 
# From -- ./inp_files/64338.got.cif
#   From: 2010.05.17/outbox.cif.g08.bks.cpg/sg74_33_cif.got.tgz:64338.got - 2010.06.03 17:57:02.
