data_PCOD9537965
_publ_section_title
;
Structure prediction by ZEFSAII (Michael W. Deem and Ramdas Pophale) SiO2 
 PCOD9537965
Probable space group: I M M A
;
_chemical_formula_sum "Si O2"
_cell_formula_units_Z 72
_cell_length_a 9.107583
_cell_length_b 24.252800
_cell_length_c 16.908677
_cell_angle_alpha 90.000000
_cell_angle_beta 90.000000
_cell_angle_gamma 90.000000
_cell_volume 3734.862788
_symmetry_space_group_name_H-M "I M M A"
_symmetry_group_IT_number 74
_symmetry_cell_setting 'orthorhombic'
loop_
_space_group_symop_operation_xyz
x,y,z
-x,1/2-y,z
x,-y,-z
-x,1/2+y,-z
-x,-y,-z
x,1/2+y,-z
-x,y,z
x,1/2-y,z
1/2+x,1/2+y,1/2+z
1/2-x,-y,1/2+z
1/2+x,1/2-y,1/2-z
1/2-x,y,1/2-z
1/2-x,1/2-y,1/2-z
1/2+x,y,1/2-z
1/2-x,1/2+y,1/2+z
1/2+x,-y,1/2+z
loop_
_atom_site_type_symbol
_atom_site_label
_atom_site_fract_x
_atom_site_fract_y
_atom_site_fract_z
Si Si1 0.158270 0.688163 0.371321
Si Si2 0.826851 0.813239 0.970921
Si Si3 0.750000 0.900141 0.250000
Si Si4 0.829958 0.472309 0.895731
Si Si5 0.324104 0.922963 0.948780
O O1 0.167248 0.750000 0.337534
O O2 0.285275 0.682760 0.435899
O O3 0.160942 0.642170 0.304815
O O4 0.000000 0.684028 0.414201
O O5 0.792320 0.750000 0.947359
O O6 0.000000 0.822723 0.960435
O O7 0.733458 0.861647 0.931020
O O8 0.825476 0.939307 0.185980
O O9 0.748635 0.531175 0.892148
O O10 0.000000 0.478597 0.918417
O O11 0.741474 0.439690 0.964617
O O12 0.500000 0.926833 0.949219
#
# Coordination Sequence:
#
# PCOD9537965 Si02
#       5
#    16  16   8  16  16
#     4  10  21  35  51  75 111 151 188 226 268 317
#     4  10  20  35  57  83 110 143 184 227 276 332
#     4  12  23  34  56  82 113 150 192 232 274 330
#     4  11  23  37  56  78 110 149 190 234 280 330
#     4  11  22  38  58  79 108 144 188 236 281 332
#
# _framework density 19.277816999999999
#
# number of rings (size 3 to 8) (size 9 to 14) (size 15 to 20)
#    0.000    1.333    2.222    5.667    0.000    4.889 
#    0.000    2.222    0.000    0.000    0.000    0.778 
#    0.000    0.000    0.000    0.000    0.000    0.000 
#
# Total GULP energy -200799.709232 kJ/mol
# GULP energy per Si atom -5577.769701 kJ/mol
# Density = 1.923394 g / cm^3
# Si number density = 19.277817 Si / 1000 Ang^3
#
#
#
# Elastic Constant Matrix: (Units=GPa)
#
#
# Indices 1 2 3 4 5 6 
#
# 1 145.8815 72.1015 10.0615 0.0000 0.0000 0.0003
# 2 72.1015 173.2183 32.6655 0.0000 0.0000 -0.0002
# 3 10.0615 32.6655 31.3527 0.0000 0.0000 0.0003
# 4 0.0000 0.0000 0.0000 37.8266 0.0000 0.0000
# 5 0.0000 0.0000 0.0000 0.0000 8.0817 0.0001
# 6 0.0003 -0.0002 0.0003 0.0000 0.0001 1562.3612
#
#
#
# Elastic Compliance Matrix: (Units=1/GPa)
#
#
# Indices 1 2 3 4 5 6 
#
# 1 0.008668 -0.003837 0.001216 0.000000 0.000000 0.000000
# 2 -0.003837 0.008883 -0.008024 0.000000 0.000000 0.000000
# 3 0.001216 -0.008024 0.039865 0.000000 0.000000 0.000000
# 4 0.000000 0.000000 0.000000 0.026436 0.000000 0.000000
# 5 0.000000 0.000000 0.000000 0.000000 0.123736 0.000000
# 6 0.000000 0.000000 0.000000 0.000000 0.000000 0.000640
#
#
# Mechanical properties :
#
#
# Convention : Reuss Voigt Hill
#
# Bulk Modulus (GPa) = 27.68084 64.45661 46.06873
# Shear Modulus (GPa) = 20.69879 337.36217 179.03048
#
# Velocity S-wave (km/s) = 3.28031 13.24312 9.64729
# Velocity P-wave (km/s) = 5.36072 16.35079 12.16729
#
# Compressibility (1/GPa) = 0.03612607
#
# Stress axis : x y z
#
# Youngs Moduli (GPa) = 115.37339 112.56895 25.08477
#
# Poissons Ratio (x) = 0.43195 -0.03051
# Poissons Ratio (y) = 0.44271 0.20128
# Poissons Ratio (z) = -0.14033 0.90325
#
# Static dielectric constant tensor:
#      x y z
#    x 1.675840 0.000000 0.000000 
#    y 0.000000 1.739110 0.000000 
#    z 0.000000 0.000000 1.654250 
# 
# From -- ./inp_files/48534.got.cif
#   From: 2010.05.17/outbox.cif.g08.bks.cpg/sg74_25_cif.got.tgz:48534.got - 2010.06.03 17:57:02.
