data_PCOD9537707
_publ_section_title
;
Structure prediction by ZEFSAII (Michael W. Deem and Ramdas Pophale) SiO2 
 PCOD9537707
Probable space group: I M M A
;
_chemical_formula_sum "Si O2"
_cell_formula_units_Z 104
_cell_length_a 9.527131
_cell_length_b 26.297975
_cell_length_c 22.527937
_cell_angle_alpha 90.000000
_cell_angle_beta 90.000000
_cell_angle_gamma 90.000000
_cell_volume 5644.245144
_symmetry_space_group_name_H-M "I M M A"
_symmetry_group_IT_number 74
_symmetry_cell_setting 'orthorhombic'
loop_
_space_group_symop_operation_xyz
x,y,z
-x,1/2-y,z
x,-y,-z
-x,1/2+y,-z
-x,-y,-z
x,1/2+y,-z
-x,y,z
x,1/2-y,z
1/2+x,1/2+y,1/2+z
1/2-x,-y,1/2+z
1/2+x,1/2-y,1/2-z
1/2-x,y,1/2-z
1/2-x,1/2-y,1/2-z
1/2+x,y,1/2-z
1/2-x,1/2+y,1/2+z
1/2+x,-y,1/2+z
loop_
_atom_site_type_symbol
_atom_site_label
_atom_site_fract_x
_atom_site_fract_y
_atom_site_fract_z
Si Si1 0.159118 0.895052 0.062877
Si Si2 0.255113 0.000000 0.500000
Si Si3 0.335052 0.056328 0.690770
Si Si4 0.157888 0.189920 0.120962
Si Si5 0.339785 0.123584 0.197695
Si Si6 0.667407 0.189940 0.001122
Si Si7 0.153337 0.025051 0.372117
O O1 0.180133 0.907802 0.132622
O O2 0.269587 0.852446 0.042788
O O3 0.000000 0.875975 0.054239
O O4 0.170593 0.948410 0.025426
O O5 0.171575 0.017331 0.441903
O O6 0.500000 0.051620 0.703910
O O7 0.250000 0.071030 0.750000
O O8 0.270919 0.003992 0.665191
O O9 0.144701 0.250000 0.125322
O O10 0.248155 0.170420 0.175918
O O11 0.000000 0.167514 0.118674
O O12 0.247346 0.180164 0.061748
O O13 0.500000 0.135191 0.214450
O O14 0.250000 0.098806 0.250000
O O15 0.342155 0.083866 0.144002
O O16 0.500000 0.183459 0.009107
O O17 0.690494 0.250000 0.984706
O O18 0.000000 0.004916 0.353712
#
# Coordination Sequence:
#
# PCOD9537707 Si02
#       7
#    16   8  16  16  16  16  16
#     4  10  21  36  56  83 114 148 184 225 274 327
#     4  10  20  34  56  86 118 146 180 224 276 330
#     4  10  21  36  55  79 108 143 181 220 265 318
#     4  10  21  37  57  79 103 135 175 221 274 327
#     4  11  23  37  53  75 104 141 184 227 271 320
#     4  10  21  37  58  85 115 146 182 226 275 327
#     4  10  21  35  53  78 108 142 179 218 264 320
#
# _framework density 18.425847999999998
#
# number of rings (size 3 to 8) (size 9 to 14) (size 15 to 20)
#    0.000    1.846    0.000    3.692    0.000   10.154 
#    0.000    0.000    0.000    0.462    0.000    0.000 
#    0.000    0.000    0.000    0.000    0.000    0.000 
#
# Total GULP energy -289845.218896 kJ/mol
# GULP energy per Si atom -5573.946517 kJ/mol
# Density = 1.838391 g / cm^3
# Si number density = 18.425848 Si / 1000 Ang^3
#
#
#
# Elastic Constant Matrix: (Units=GPa)
#
#
# Indices 1 2 3 4 5 6 
#
# 1 159.1679 50.6400 56.0935 0.0000 0.0000 0.0000
# 2 50.6400 45.0941 37.3663 0.0000 0.0000 0.0000
# 3 56.0935 37.3663 89.9508 0.0000 0.0000 0.0000
# 4 0.0000 0.0000 0.0000 24.1322 0.0000 0.0000
# 5 0.0000 0.0000 0.0000 0.0000 -44.3706 0.0000
# 6 0.0000 0.0000 0.0000 0.0000 0.0000 23.1919
#
#
#
# Elastic Compliance Matrix: (Units=1/GPa)
#
#
# Indices 1 2 3 4 5 6 
#
# 1 0.010110 -0.009346 -0.002422 0.000000 0.000000 0.000000
# 2 -0.009346 0.042456 -0.011808 0.000000 0.000000 0.000000
# 3 -0.002422 -0.011808 0.017533 0.000000 0.000000 0.000000
# 4 0.000000 0.000000 0.000000 0.041438 0.000000 0.000000
# 5 0.000000 0.000000 0.000000 0.000000 -0.022537 0.000000
# 6 0.000000 0.000000 0.000000 0.000000 0.000000 0.043118
#
#
# Mechanical properties :
#
#
# Convention : Reuss Voigt Hill
#
# Bulk Modulus (GPa) = 43.58100 64.71249 54.14675
# Shear Modulus (GPa) = 26.74941 10.59824 18.67382
#
# Velocity S-wave (km/s) = 3.81429 2.40090 3.18694
# Velocity P-wave (km/s) = 6.56520 6.54847 6.55684
#
# Compressibility (1/GPa) = 0.02294578
#
# Stress axis : x y z
#
# Youngs Moduli (GPa) = 98.91437 23.55365 57.03584
#
# Poissons Ratio (x) = 0.22014 0.13814
# Poissons Ratio (y) = 0.92447 0.67350
# Poissons Ratio (z) = 0.23957 0.27813
#
# Static dielectric constant tensor:
#      x y z
#    x 1.662920 0.000000 0.000000 
#    y 0.000000 1.637180 0.000000 
#    z 0.000000 0.000000 1.663720 
# 
# From -- ./inp_files/49317.got.cif
#   From: 2010.05.17/outbox.cif.g08.bks.cpg/sg74_25_cif.got.tgz:49317.got - 2010.06.03 17:57:02.
