data_PCOD9537793
_publ_section_title
;
Structure prediction by ZEFSAII (Michael W. Deem and Ramdas Pophale) SiO2 
 PCOD9537793
Probable space group: I M M A
;
_chemical_formula_sum "Si O2"
_cell_formula_units_Z 72
_cell_length_a 15.750047
_cell_length_b 8.686820
_cell_length_c 29.385212
_cell_angle_alpha 90.000000
_cell_angle_beta 90.000000
_cell_angle_gamma 90.000000
_cell_volume 4020.420742
_symmetry_space_group_name_H-M "I M M A"
_symmetry_group_IT_number 74
_symmetry_cell_setting 'orthorhombic'
loop_
_space_group_symop_operation_xyz
x,y,z
-x,1/2-y,z
x,-y,-z
-x,1/2+y,-z
-x,-y,-z
x,1/2+y,-z
-x,y,z
x,1/2-y,z
1/2+x,1/2+y,1/2+z
1/2-x,-y,1/2+z
1/2+x,1/2-y,1/2-z
1/2-x,y,1/2-z
1/2-x,1/2-y,1/2-z
1/2+x,y,1/2-z
1/2-x,1/2+y,1/2+z
1/2+x,-y,1/2+z
loop_
_atom_site_type_symbol
_atom_site_label
_atom_site_fract_x
_atom_site_fract_y
_atom_site_fract_z
Si Si1 0.755440 0.066504 0.638108
Si Si2 0.312708 0.934301 0.550835
Si Si3 0.402375 0.566456 0.207263
Si Si4 0.402874 0.433545 0.307487
Si Si5 0.000000 0.435314 0.051025
O O1 0.756918 0.250000 0.634040
O O2 0.835200 0.018613 0.669156
O O3 0.752853 0.994371 0.587992
O O4 0.670402 0.014585 0.664157
O O5 0.310627 0.750000 0.548485
O O6 0.407504 0.982517 0.568793
O O7 0.301571 0.000000 0.500000
O O8 0.500000 0.543677 0.192691
O O9 0.390676 0.750000 0.216124
O O10 0.390174 0.477533 0.254596
O O11 0.500000 0.479466 0.319698
O O12 0.396601 0.250000 0.313897
O O13 0.000000 0.250000 0.051128
O O14 0.000000 0.500000 0.000000
#
# Coordination Sequence:
#
# PCOD9537793 Si02
#       5
#    16  16  16  16   8
#     4  11  22  34  53  80 106 138 178 217 261 313
#     4  10  20  35  53  75 105 139 175 215 259 308
#     4   9  19  37  57  76 103 138 176 219 266 314
#     4  10  21  35  52  77 110 143 175 213 258 310
#     4   8  16  30  48  68  94 130 166 200 242 294
#
# _framework density 17.908573000000001
#
# number of rings (size 3 to 8) (size 9 to 14) (size 15 to 20)
#    0.000    2.222    0.000    2.667    1.556    6.667 
#    0.000    0.000    0.000    0.667    0.000    0.000 
#    0.000    0.000    0.000    0.000    0.000    0.000 
#
# Total GULP energy -200872.021161 kJ/mol
# GULP energy per Si atom -5579.778366 kJ/mol
# Density = 1.786781 g / cm^3
# Si number density = 17.908573 Si / 1000 Ang^3
#
#
#
# Elastic Constant Matrix: (Units=GPa)
#
#
# Indices 1 2 3 4 5 6 
#
# 1 64.4488 22.1683 55.2419 0.0000 0.0000 0.0000
# 2 22.1683 29.5466 23.0561 0.0000 0.0000 0.0000
# 3 55.2419 23.0561 88.4964 0.0000 0.0000 0.0000
# 4 0.0000 0.0000 0.0000 30.2328 0.0000 0.0000
# 5 0.0000 0.0000 0.0000 0.0000 29.5569 0.0000
# 6 0.0000 0.0000 0.0000 0.0000 0.0000 19.5303
#
#
#
# Elastic Compliance Matrix: (Units=1/GPa)
#
#
# Indices 1 2 3 4 5 6 
#
# 1 0.036501 -0.012058 -0.019644 0.000000 0.000000 0.000000
# 2 -0.012058 0.046464 -0.004579 0.000000 0.000000 0.000000
# 3 -0.019644 -0.004579 0.024755 0.000000 0.000000 0.000000
# 4 0.000000 0.000000 0.000000 0.033077 0.000000 0.000000
# 5 0.000000 0.000000 0.000000 0.000000 0.033833 0.000000
# 6 0.000000 0.000000 0.000000 0.000000 0.000000 0.051203
#
#
# Mechanical properties :
#
#
# Convention : Reuss Voigt Hill
#
# Bulk Modulus (GPa) = 28.44105 42.60270 35.52188
# Shear Modulus (GPa) = 16.12317 21.33235 18.72776
#
# Velocity S-wave (km/s) = 3.00376 3.45509 3.23730
# Velocity P-wave (km/s) = 5.28638 6.30536 5.81822
#
# Compressibility (1/GPa) = 0.03516045
#
# Stress axis : x y z
#
# Youngs Moduli (GPa) = 27.39646 21.52184 40.39608
#
# Poissons Ratio (x) = 0.25950 0.79352
# Poissons Ratio (y) = 0.33034 0.18496
# Poissons Ratio (z) = 0.53816 0.09854
#
# Static dielectric constant tensor:
#      x y z
#    x 1.626510 0.000000 0.000000 
#    y 0.000000 1.604560 0.000000 
#    z 0.000000 0.000000 1.602210 
# 
# From -- ./inp_files/56677.got.cif
#   From: 2010.05.17/outbox.cif.g08.bks.cpg/sg74_29_cif.got.tgz:56677.got - 2010.06.03 17:57:02.
