data_PCOD9537413
_publ_section_title
;
Structure prediction by ZEFSAII (Michael W. Deem and Ramdas Pophale) SiO2 
 PCOD9537413
Probable space group: I M M A
;
_chemical_formula_sum "Si O2"
_cell_formula_units_Z 96
_cell_length_a 8.060096
_cell_length_b 19.522961
_cell_length_c 33.499332
_cell_angle_alpha 90.000000
_cell_angle_beta 90.000000
_cell_angle_gamma 90.000000
_cell_volume 5271.352371
_symmetry_space_group_name_H-M "I M M A"
_symmetry_group_IT_number 74
_symmetry_cell_setting 'orthorhombic'
loop_
_space_group_symop_operation_xyz
x,y,z
-x,1/2-y,z
x,-y,-z
-x,1/2+y,-z
-x,-y,-z
x,1/2+y,-z
-x,y,z
x,1/2-y,z
1/2+x,1/2+y,1/2+z
1/2-x,-y,1/2+z
1/2+x,1/2-y,1/2-z
1/2-x,y,1/2-z
1/2-x,1/2-y,1/2-z
1/2+x,y,1/2-z
1/2-x,1/2+y,1/2+z
1/2+x,-y,1/2+z
loop_
_atom_site_type_symbol
_atom_site_label
_atom_site_fract_x
_atom_site_fract_y
_atom_site_fract_z
Si Si1 0.800462 0.539796 0.871844
Si Si2 0.200848 0.407170 0.582913
Si Si3 0.700572 0.671163 0.005064
Si Si4 0.699896 0.173025 0.838033
Si Si5 0.802605 0.039381 0.794408
Si Si6 0.199369 0.672725 0.915097
O O1 0.759803 0.482401 0.904895
O O2 0.736039 0.509904 0.829720
O O3 0.736530 0.613590 0.885838
O O4 0.000000 0.544405 0.868877
O O5 0.258349 0.378387 0.540427
O O6 0.254734 0.356686 0.618924
O O7 0.000000 0.407478 0.582670
O O8 0.500000 0.669502 0.004582
O O9 0.750493 0.750000 0.013533
O O10 0.761569 0.653663 0.960878
O O11 0.500000 0.175472 0.838899
O O12 0.761904 0.250000 0.831061
O O13 0.749428 0.116525 0.805649
O O14 0.750000 0.020571 0.750000
O O15 0.000000 0.037107 0.796360
O O16 0.263922 0.750000 0.908176
O O17 0.000000 0.675213 0.911106
#
# Coordination Sequence:
#
# PCOD9537413 Si02
#       6
#    16  16  16  16  16  16
#     4   9  19  34  50  69  92 118 150 189 231 274
#     4   9  17  29  46  68  95 128 162 193 226 263
#     4   9  17  29  45  67  96 128 161 195 227 260
#     4   9  17  30  48  69  94 126 162 195 225 259
#     4  10  20  34  51  70  92 118 149 186 230 278
#     4   9  18  33  51  69  90 119 154 189 228 275
#
# _framework density 18.211645999999998
#
# number of rings (size 3 to 8) (size 9 to 14) (size 15 to 20)
#    0.000    2.833    0.000    1.000    0.000    5.333 
#    0.000    3.333    0.000    3.500    0.000    0.000 
#    0.000    0.000    0.000    0.000    0.000    0.500 
#
# Total GULP energy -267612.653602 kJ/mol
# GULP energy per Si atom -5575.263617 kJ/mol
# Density = 1.817020 g / cm^3
# Si number density = 18.211646 Si / 1000 Ang^3
#
#
#
# Elastic Constant Matrix: (Units=GPa)
#
#
# Indices 1 2 3 4 5 6 
#
# 1 8.9440 8.6488 5.4356 0.0000 0.0000 0.0000
# 2 8.6488 125.0814 97.7443 0.0000 0.0000 0.0000
# 3 5.4356 97.7443 105.4091 0.0000 0.0000 0.0000
# 4 0.0000 0.0000 0.0000 10.3027 0.0000 0.0000
# 5 0.0000 0.0000 0.0000 0.0000 21.2325 0.0000
# 6 0.0000 0.0000 0.0000 0.0000 0.0000 16.5822
#
#
#
# Elastic Compliance Matrix: (Units=1/GPa)
#
#
# Indices 1 2 3 4 5 6 
#
# 1 0.120690 -0.012644 0.005501 0.000000 0.000000 0.000000
# 2 -0.012644 0.030357 -0.027497 0.000000 0.000000 0.000000
# 3 0.005501 -0.027497 0.034701 0.000000 0.000000 0.000000
# 4 0.000000 0.000000 0.000000 0.097062 0.000000 0.000000
# 5 0.000000 0.000000 0.000000 0.000000 0.047098 0.000000
# 6 0.000000 0.000000 0.000000 0.000000 0.000000 0.060306
#
#
# Mechanical properties :
#
#
# Convention : Reuss Voigt Hill
#
# Bulk Modulus (GPa) = 8.58613 51.45467 30.02040
# Shear Modulus (GPa) = 10.03381 18.13054 14.08217
#
# Velocity S-wave (km/s) = 2.34979 3.15865 2.78376
# Velocity P-wave (km/s) = 3.47662 6.45119 5.18193
#
# Compressibility (1/GPa) = 0.11646690
#
# Stress axis : x y z
#
# Youngs Moduli (GPa) = 8.28572 32.94162 28.81757
#
# Poissons Ratio (x) = 0.41651 -0.15852
# Poissons Ratio (y) = 0.10476 0.79241
# Poissons Ratio (z) = -0.04558 0.90581
#
# Static dielectric constant tensor:
#      x y z
#    x 1.650140 0.000000 0.000000 
#    y 0.000000 1.632970 0.000000 
#    z 0.000000 0.000000 1.622590 
# 
# From -- ./inp_files/64324.got.cif
#   From: 2010.05.17/outbox.cif.g08.bks.cpg/sg74_33_cif.got.tgz:64324.got - 2010.06.03 17:57:02.
