data_PCOD9537198
_publ_section_title
;
Structure prediction by ZEFSAII (Michael W. Deem and Ramdas Pophale) SiO2 
 PCOD9537198
Probable space group: I M M A
;
_chemical_formula_sum "Si O2"
_cell_formula_units_Z 80
_cell_length_a 19.442117
_cell_length_b 13.538684
_cell_length_c 16.393196
_cell_angle_alpha 90.000000
_cell_angle_beta 90.000000
_cell_angle_gamma 90.000000
_cell_volume 4315.028172
_symmetry_space_group_name_H-M "I M M A"
_symmetry_group_IT_number 74
_symmetry_cell_setting 'orthorhombic'
loop_
_space_group_symop_operation_xyz
x,y,z
-x,1/2-y,z
x,-y,-z
-x,1/2+y,-z
-x,-y,-z
x,1/2+y,-z
-x,y,z
x,1/2-y,z
1/2+x,1/2+y,1/2+z
1/2-x,-y,1/2+z
1/2+x,1/2-y,1/2-z
1/2-x,y,1/2-z
1/2-x,1/2-y,1/2-z
1/2+x,y,1/2-z
1/2-x,1/2+y,1/2+z
1/2+x,-y,1/2+z
loop_
_atom_site_type_symbol
_atom_site_label
_atom_site_fract_x
_atom_site_fract_y
_atom_site_fract_z
Si Si1 0.279597 0.642005 0.938439
Si Si2 0.000000 0.131736 0.854861
Si Si3 0.866498 0.138430 0.144272
Si Si4 0.354961 0.436743 0.715658
Si Si5 0.000000 0.869677 0.958709
Si Si6 0.714610 0.076160 0.879436
O O1 0.305707 0.750000 0.910194
O O2 0.198462 0.640640 0.916489
O O3 0.302635 0.539343 0.897795
O O4 0.291983 0.631352 0.034970
O O5 0.929664 0.098033 0.812001
O O6 0.000000 0.250000 0.855995
O O7 0.000000 0.094714 0.948570
O O8 0.876341 0.250000 0.175509
O O9 0.932179 0.105879 0.092079
O O10 0.854143 0.056605 0.212961
O O11 0.332988 0.395214 0.803369
O O12 0.293304 0.411540 0.652331
O O13 0.000000 0.750000 0.963788
#
# Coordination Sequence:
#
# PCOD9537198 Si02
#       6
#    16   8  16  16   8  16
#     4   9  17  31  51  72  96 127 165 207 245 287
#     4  11  23  35  48  71 103 138 168 192 232 291
#     4   9  17  29  48  74 100 129 163 197 239 289
#     4  10  20  33  49  72 104 133 160 202 244 286
#     4   9  17  29  45  68  99 131 161 188 223 285
#     4   9  19  33  50  75 100 127 165 203 246 290
#
# _framework density 18.539854999999999
#
# number of rings (size 3 to 8) (size 9 to 14) (size 15 to 20)
#    0.000    2.600    0.000    1.800    0.000    7.200 
#    0.000    6.000    0.000    2.400    0.000    1.400 
#    0.000    0.000    0.000    0.000    0.000    0.000 
#
# Total GULP energy -222917.775036 kJ/mol
# GULP energy per Si atom -5572.944376 kJ/mol
# Density = 1.849766 g / cm^3
# Si number density = 18.539855 Si / 1000 Ang^3
#
#
#
# Elastic Constant Matrix: (Units=GPa)
#
#
# Indices 1 2 3 4 5 6 
#
# 1 53.3332 4.3049 23.9339 0.0000 0.0000 0.0000
# 2 4.3049 62.3082 -0.8713 0.0000 0.0000 0.0000
# 3 23.9339 -0.8713 73.2384 0.0000 0.0000 0.0000
# 4 0.0000 0.0000 0.0000 8.6481 0.0000 0.0000
# 5 0.0000 0.0000 0.0000 0.0000 12.0433 0.0000
# 6 0.0000 0.0000 0.0000 0.0000 0.0000 15.6933
#
#
#
# Elastic Compliance Matrix: (Units=1/GPa)
#
#
# Indices 1 2 3 4 5 6 
#
# 1 0.022137 -0.001631 -0.007254 0.000000 0.000000 0.000000
# 2 -0.001631 0.016172 0.000725 0.000000 0.000000 0.000000
# 3 -0.007254 0.000725 0.016033 0.000000 0.000000 0.000000
# 4 0.000000 0.000000 0.000000 0.115632 0.000000 0.000000
# 5 0.000000 0.000000 0.000000 0.000000 0.083034 0.000000
# 6 0.000000 0.000000 0.000000 0.000000 0.000000 0.063721
#
#
# Mechanical properties :
#
#
# Convention : Reuss Voigt Hill
#
# Bulk Modulus (GPa) = 26.29931 27.06828 26.68380
# Shear Modulus (GPa) = 14.46248 18.04443 16.25345
#
# Velocity S-wave (km/s) = 2.79601 3.12312 2.96408
# Velocity P-wave (km/s) = 4.96383 5.25709 5.11256
#
# Compressibility (1/GPa) = 0.03802381
#
# Stress axis : x y z
#
# Youngs Moduli (GPa) = 45.17363 61.83496 62.37097
#
# Poissons Ratio (x) = 0.10085 0.45241
# Poissons Ratio (y) = 0.07367 -0.04524
# Poissons Ratio (z) = 0.32767 -0.04485
#
# Static dielectric constant tensor:
#      x y z
#    x 1.598200 0.000000 0.000000 
#    y 0.000000 1.713850 0.000000 
#    z 0.000000 0.000000 1.613560 
# 
# From -- ./inp_files/43869.got.cif
#   From: 2010.05.17/outbox.cif.g08.bks.cpg/sg74_22_cif.got.tgz:43869.got - 2010.06.03 17:57:02.
