data_PCOD9537137
_publ_section_title
;
Structure prediction by ZEFSAII (Michael W. Deem and Ramdas Pophale) SiO2 
 PCOD9537137
Probable space group: I M M A
;
_chemical_formula_sum "Si O2"
_cell_formula_units_Z 128
_cell_length_a 17.816492
_cell_length_b 23.009264
_cell_length_c 16.868482
_cell_angle_alpha 90.000000
_cell_angle_beta 90.000000
_cell_angle_gamma 90.000000
_cell_volume 6915.139192
_symmetry_space_group_name_H-M "I M M A"
_symmetry_group_IT_number 74
_symmetry_cell_setting 'orthorhombic'
loop_
_space_group_symop_operation_xyz
x,y,z
-x,1/2-y,z
x,-y,-z
-x,1/2+y,-z
-x,-y,-z
x,1/2+y,-z
-x,y,z
x,1/2-y,z
1/2+x,1/2+y,1/2+z
1/2-x,-y,1/2+z
1/2+x,1/2-y,1/2-z
1/2-x,y,1/2-z
1/2-x,1/2-y,1/2-z
1/2+x,y,1/2-z
1/2-x,1/2+y,1/2+z
1/2+x,-y,1/2+z
loop_
_atom_site_type_symbol
_atom_site_label
_atom_site_fract_x
_atom_site_fract_y
_atom_site_fract_z
Si Si1 0.729556 0.862925 0.604410
Si Si2 0.747743 0.319408 0.927730
Si Si3 0.192805 0.085732 0.823205
Si Si4 0.082628 0.320666 0.534817
Si Si5 0.917007 0.611630 0.799888
Si Si6 0.586573 0.014794 0.772754
Si Si7 0.617940 0.182983 0.146444
Si Si8 0.708479 0.493697 0.091916
O O1 0.727018 0.839227 0.515089
O O2 0.649468 0.864378 0.646086
O O3 0.792065 0.824195 0.648111
O O4 0.762813 0.928272 0.605957
O O5 0.750546 0.250000 0.921067
O O6 0.798521 0.352405 0.864497
O O7 0.659378 0.338908 0.921234
O O8 0.250000 0.083655 0.750000
O O9 0.115075 0.066191 0.784476
O O10 0.224577 0.038197 0.885528
O O11 0.082780 0.250000 0.537233
O O12 0.093039 0.336451 0.441894
O O13 0.000000 0.340592 0.562381
O O14 0.903854 0.544355 0.778039
O O15 0.914849 0.644873 0.716181
O O16 0.000000 0.617961 0.835478
O O17 0.500000 0.020657 0.795048
O O18 0.639934 0.008009 0.849189
O O19 0.596552 0.250000 0.155250
O O20 0.687787 0.500000 0.000000
#
# Coordination Sequence:
#
# PCOD9537137 Si02
#       8
#    16  16  16  16  16  16  16  16
#     4  11  20  35  56  81 116 153 192 242 287 353
#     4  10  21  37  58  86 114 151 203 246 293 361
#     4  10  21  38  63  85 112 154 193 243 295 350
#     4   8  15  30  51  79 118 154 184 228 283 345
#     4  11  22  34  53  81 114 154 196 243 287 330
#     4  10  22  39  59  88 120 150 193 247 300 350
#     4  10  20  32  51  79 114 162 201 227 276 352
#     4  11  20  36  62  88 113 151 193 233 293 361
#
# _framework density 18.510111999999999
#
# number of rings (size 3 to 8) (size 9 to 14) (size 15 to 20)
#    0.000    1.875    3.750    1.875    0.000    2.750 
#    0.000    3.125    0.000    3.375    0.000    0.000 
#    0.000    0.000    0.000    0.000    0.000    0.000 
#
# Total GULP energy -357169.098498 kJ/mol
# GULP energy per Si atom -5580.767164 kJ/mol
# Density = 1.846798 g / cm^3
# Si number density = 18.510112 Si / 1000 Ang^3
#
#
#
# Elastic Constant Matrix: (Units=GPa)
#
#
# Indices 1 2 3 4 5 6 
#
# 1 84.2716 12.7569 30.8521 0.0000 0.0000 0.0000
# 2 12.7569 70.3993 24.0382 0.0000 0.0000 0.0000
# 3 30.8521 24.0382 54.1114 0.0000 0.0000 0.0000
# 4 0.0000 0.0000 0.0000 26.0917 0.0000 0.0000
# 5 0.0000 0.0000 0.0000 0.0000 14.7646 0.0000
# 6 0.0000 0.0000 0.0000 0.0000 0.0000 12.8909
#
#
#
# Elastic Compliance Matrix: (Units=1/GPa)
#
#
# Indices 1 2 3 4 5 6 
#
# 1 0.015000 0.000238 -0.008658 0.000000 0.000000 0.000000
# 2 0.000238 0.016748 -0.007576 0.000000 0.000000 0.000000
# 3 -0.008658 -0.007576 0.026783 0.000000 0.000000 0.000000
# 4 0.000000 0.000000 0.000000 0.038326 0.000000 0.000000
# 5 0.000000 0.000000 0.000000 0.000000 0.067729 0.000000
# 6 0.000000 0.000000 0.000000 0.000000 0.000000 0.077574
#
#
# Mechanical properties :
#
#
# Convention : Reuss Voigt Hill
#
# Bulk Modulus (GPa) = 37.68056 38.23073 37.95564
# Shear Modulus (GPa) = 17.66785 20.15844 18.91314
#
# Velocity S-wave (km/s) = 3.09285 3.30366 3.19999
# Velocity P-wave (km/s) = 5.75805 5.93726 5.84834
#
# Compressibility (1/GPa) = 0.02653889
#
# Stress axis : x y z
#
# Youngs Moduli (GPa) = 66.66590 59.70715 37.33767
#
# Poissons Ratio (x) = -0.01423 0.32328
# Poissons Ratio (y) = -0.01589 0.28287
# Poissons Ratio (z) = 0.57722 0.45235
#
# Static dielectric constant tensor:
#      x y z
#    x 1.660300 0.000000 0.000000 
#    y 0.000000 1.657220 0.000000 
#    z 0.000000 0.000000 1.626020 
# 
# From -- ./inp_files/44615.got.cif
#   From: 2010.05.17/outbox.cif.g08.bks.cpg/sg74_23_cif.got.tgz:44615.got - 2010.06.03 17:57:02.
