data_PCOD9537247
_publ_section_title
;
Structure prediction by ZEFSAII (Michael W. Deem and Ramdas Pophale) SiO2 
 PCOD9537247
Probable space group: I M M A
;
_chemical_formula_sum "Si O2"
_cell_formula_units_Z 96
_cell_length_a 7.514794
_cell_length_b 20.901704
_cell_length_c 26.806325
_cell_angle_alpha 90.000000
_cell_angle_beta 90.000000
_cell_angle_gamma 90.000000
_cell_volume 4210.523075
_symmetry_space_group_name_H-M "I M M A"
_symmetry_group_IT_number 74
_symmetry_cell_setting 'orthorhombic'
loop_
_space_group_symop_operation_xyz
x,y,z
-x,1/2-y,z
x,-y,-z
-x,1/2+y,-z
-x,-y,-z
x,1/2+y,-z
-x,y,z
x,1/2-y,z
1/2+x,1/2+y,1/2+z
1/2-x,-y,1/2+z
1/2+x,1/2-y,1/2-z
1/2-x,y,1/2-z
1/2-x,1/2-y,1/2-z
1/2+x,y,1/2-z
1/2-x,1/2+y,1/2+z
1/2+x,-y,1/2+z
loop_
_atom_site_type_symbol
_atom_site_label
_atom_site_fract_x
_atom_site_fract_y
_atom_site_fract_z
Si Si1 0.284569 0.677453 0.994467
Si Si2 0.295280 0.545988 0.841965
Si Si3 0.793326 0.959372 0.953051
Si Si4 0.286454 0.915627 0.194940
Si Si5 0.786537 0.819404 0.690886
Si Si6 0.716754 0.177684 0.891037
O O1 0.500000 0.677399 0.992545
O O2 0.228226 0.750000 0.980328
O O3 0.228457 0.665570 0.051926
O O4 0.222900 0.616402 0.963503
O O5 0.500000 0.551948 0.825303
O O6 0.293510 0.526881 0.899939
O O7 0.213980 0.487584 0.811253
O O8 0.215094 0.616287 0.834427
O O9 0.000000 0.976620 0.948078
O O10 0.720551 0.000000 0.000000
O O11 0.500000 0.918725 0.189079
O O12 0.250000 0.890243 0.250000
O O13 0.218683 0.871729 0.150083
O O14 0.716738 0.750000 0.673793
O O15 0.750000 0.824305 0.750000
O O16 0.000000 0.817347 0.683026
O O17 0.500000 0.175914 0.891499
O O18 0.769030 0.250000 0.878082
#
# Coordination Sequence:
#
# PCOD9537247 Si02
#       6
#    16  16  16  16  16  16
#     4   9  18  35  60  84 105 137 181 223 263 312
#     4  10  21  36  54  75 100 135 178 219 258 307
#     4  11  24  38  53  78 111 143 176 220 273 323
#     4  10  20  33  51  75 102 133 170 213 259 306
#     4   9  18  33  53  77 104 133 167 208 254 306
#     4   8  15  30  52  76 101 131 169 210 251 302
#
# _framework density 22.800018000000001
#
# number of rings (size 3 to 8) (size 9 to 14) (size 15 to 20)
#    0.000    2.500    0.000    3.000    0.000    5.333 
#    0.000    2.500    0.000    1.000    0.000    0.000 
#    0.000    0.000    0.000    0.000    0.000    0.000 
#
# Total GULP energy -268068.374795 kJ/mol
# GULP energy per Si atom -5584.757808 kJ/mol
# Density = 2.274812 g / cm^3
# Si number density = 22.800018 Si / 1000 Ang^3
#
#
#
# Elastic Constant Matrix: (Units=GPa)
#
#
# Indices 1 2 3 4 5 6 
#
# 1 61.4135 -0.9543 -14.8668 0.0000 0.0000 0.0000
# 2 -0.9543 59.7711 11.8767 0.0000 0.0000 0.0000
# 3 -14.8668 11.8767 40.7105 0.0000 0.0000 0.0000
# 4 0.0000 0.0000 0.0000 38.9473 0.0000 0.0000
# 5 0.0000 0.0000 0.0000 0.0000 16.8648 0.0000
# 6 0.0000 0.0000 0.0000 0.0000 0.0000 -31.0823
#
#
#
# Elastic Compliance Matrix: (Units=1/GPa)
#
#
# Indices 1 2 3 4 5 6 
#
# 1 0.017927 -0.001077 0.006861 0.000000 0.000000 0.000000
# 2 -0.001077 0.017825 -0.005593 0.000000 0.000000 0.000000
# 3 0.006861 -0.005593 0.028701 0.000000 0.000000 0.000000
# 4 0.000000 0.000000 0.000000 0.025676 0.000000 0.000000
# 5 0.000000 0.000000 0.000000 0.000000 0.059295 0.000000
# 6 0.000000 0.000000 0.000000 0.000000 0.000000 -0.032173
#
#
# Mechanical properties :
#
#
# Convention : Reuss Voigt Hill
#
# Bulk Modulus (GPa) = 15.42406 17.11183 16.26795
# Shear Modulus (GPa) = 36.10593 16.00193 26.05393
#
# Velocity S-wave (km/s) = 3.98375 2.65210 3.38407
# Velocity P-wave (km/s) = 5.28583 4.11092 4.73496
#
# Compressibility (1/GPa) = 0.06483376
#
# Stress axis : x y z
#
# Youngs Moduli (GPa) = 55.78115 56.10185 34.84199
#
# Poissons Ratio (x) = 0.06043 -0.23905
# Poissons Ratio (y) = 0.06008 0.19489
# Poissons Ratio (z) = -0.38271 0.31380
#
# Static dielectric constant tensor:
#      x y z
#    x -1.370120 0.000000 0.000000 
#    y 0.000000 1.874200 0.000000 
#    z 0.000000 0.000000 1.864920 
# 
# From -- ./inp_files/64291.got.cif
#   From: 2010.05.17/outbox.cif.g08.bks.cpg/sg74_33_cif.got.tgz:64291.got - 2010.06.03 17:57:02.
