data_PCOD9537866
_publ_section_title
;
Structure prediction by ZEFSAII (Michael W. Deem and Ramdas Pophale) SiO2 
 PCOD9537866
Probable space group: I M M A
;
_chemical_formula_sum "Si O2"
_cell_formula_units_Z 100
_cell_length_a 23.488096
_cell_length_b 7.557590
_cell_length_c 24.319007
_cell_angle_alpha 90.000000
_cell_angle_beta 90.000000
_cell_angle_gamma 90.000000
_cell_volume 4316.949604
_symmetry_space_group_name_H-M "I M M A"
_symmetry_group_IT_number 74
_symmetry_cell_setting 'orthorhombic'
loop_
_space_group_symop_operation_xyz
x,y,z
-x,1/2-y,z
x,-y,-z
-x,1/2+y,-z
-x,-y,-z
x,1/2+y,-z
-x,y,z
x,1/2-y,z
1/2+x,1/2+y,1/2+z
1/2-x,-y,1/2+z
1/2+x,1/2-y,1/2-z
1/2-x,y,1/2-z
1/2-x,1/2-y,1/2-z
1/2+x,y,1/2-z
1/2-x,1/2+y,1/2+z
1/2+x,-y,1/2+z
loop_
_atom_site_type_symbol
_atom_site_label
_atom_site_fract_x
_atom_site_fract_y
_atom_site_fract_z
Si Si1 0.000000 0.250000 0.057955
Si Si2 0.780258 0.946415 0.676478
Si Si3 0.316751 0.540090 0.060682
Si Si4 0.847971 0.537871 0.176548
Si Si5 0.101256 0.448206 0.717385
Si Si6 0.603507 0.962498 0.441444
Si Si7 0.561696 0.466287 0.898814
O O1 0.049455 0.407347 0.057919
O O2 0.795247 0.750000 0.694444
O O3 0.782031 0.957601 0.610405
O O4 0.716175 0.988432 0.692699
O O5 0.832872 0.062314 0.697074
O O6 0.315319 0.750000 0.069166
O O7 0.382469 0.477455 0.067978
O O8 0.296282 0.500000 0.000000
O O9 0.851030 0.750000 0.179773
O O10 0.892757 0.468583 0.222208
O O11 0.862200 0.491263 0.113979
O O12 0.077595 0.250000 0.723911
O O13 0.069842 0.527849 0.664586
O O14 0.589571 0.750000 0.439043
O O15 0.633722 0.000000 0.500000
O O16 0.500000 0.522479 0.919969
O O17 0.562641 0.250000 0.897902
#
# Coordination Sequence:
#
# PCOD9537866 Si02
#       7
#     4  16  16  16  16  16  16
#     4  12  24  44  70  86 122 162 196 256 286 368
#     4  11  22  35  57  83 115 155 190 236 292 350
#     4  10  20  35  55  81 111 148 192 234 284 346
#     4  10  22  39  58  87 120 149 195 244 288 349
#     4   9  18  36  59  82 113 154 195 236 287 347
#     4  11  24  41  66  94 119 158 202 245 304 360
#     4   8  15  30  54  80 110 146 187 231 280 331
#
# _framework density 23.164507
#
# number of rings (size 3 to 8) (size 9 to 14) (size 15 to 20)
#    0.000    2.080    0.800    3.840    1.120    3.520 
#    1.440    1.600    0.000   11.520    0.000    0.000 
#    0.000    0.000    0.000    0.000    0.000    0.000 
#
# Total GULP energy -278565.932803 kJ/mol
# GULP energy per Si atom -5571.318656 kJ/mol
# Density = 2.311178 g / cm^3
# Si number density = 23.164507 Si / 1000 Ang^3
#
#
#
# Elastic Constant Matrix: (Units=GPa)
#
#
# Indices 1 2 3 4 5 6 
#
# 1 39.4878 5.0680 -11.3316 0.0000 0.0000 0.0000
# 2 5.0680 98.6897 -2.3500 0.0000 0.0000 0.0000
# 3 -11.3316 -2.3500 103.5542 0.0000 0.0000 0.0000
# 4 0.0000 0.0000 0.0000 16.9175 0.0000 0.0000
# 5 0.0000 0.0000 0.0000 0.0000 4.1970 0.0000
# 6 0.0000 0.0000 0.0000 0.0000 0.0000 15.5477
#
#
#
# Elastic Compliance Matrix: (Units=1/GPa)
#
#
# Indices 1 2 3 4 5 6 
#
# 1 0.026307 -0.001283 0.002850 0.000000 0.000000 0.000000
# 2 -0.001283 0.010201 0.000091 0.000000 0.000000 0.000000
# 3 0.002850 0.000091 0.009971 0.000000 0.000000 0.000000
# 4 0.000000 0.000000 0.000000 0.059110 0.000000 0.000000
# 5 0.000000 0.000000 0.000000 0.000000 0.238268 0.000000
# 6 0.000000 0.000000 0.000000 0.000000 0.000000 0.064318
#
#
# Mechanical properties :
#
#
# Convention : Reuss Voigt Hill
#
# Bulk Modulus (GPa) = 20.08304 24.94495 22.51399
# Shear Modulus (GPa) = 11.86359 24.02212 17.94285
#
# Velocity S-wave (km/s) = 2.26552 3.22378 2.78615
# Velocity P-wave (km/s) = 3.94107 4.96477 4.48224
#
# Compressibility (1/GPa) = 0.04979326
#
# Stress axis : x y z
#
# Youngs Moduli (GPa) = 38.01315 98.03121 100.29425
#
# Poissons Ratio (x) = 0.12578 -0.28579
# Poissons Ratio (y) = 0.04877 -0.00914
# Poissons Ratio (z) = -0.10832 -0.00893
#
# Static dielectric constant tensor:
#      x y z
#    x 1.818030 0.000000 0.000000 
#    y 0.000000 1.892830 0.000000 
#    z 0.000000 0.000000 1.932610 
# 
# From -- ./inp_files/55242.got.cif
#   From: 2010.05.17/outbox.cif.g08.bks.cpg/sg74_28_cif.got.tgz:55242.got - 2010.06.03 17:57:02.
