data_PCOD9537106
_publ_section_title
;
Structure prediction by ZEFSAII (Michael W. Deem and Ramdas Pophale) SiO2 
 PCOD9537106
Probable space group: I M M A
;
_chemical_formula_sum "Si O2"
_cell_formula_units_Z 72
_cell_length_a 18.604390
_cell_length_b 7.931946
_cell_length_c 24.074660
_cell_angle_alpha 90.000000
_cell_angle_beta 90.000000
_cell_angle_gamma 90.000000
_cell_volume 3552.673907
_symmetry_space_group_name_H-M "I M M A"
_symmetry_group_IT_number 74
_symmetry_cell_setting 'orthorhombic'
loop_
_space_group_symop_operation_xyz
x,y,z
-x,1/2-y,z
x,-y,-z
-x,1/2+y,-z
-x,-y,-z
x,1/2+y,-z
-x,y,z
x,1/2-y,z
1/2+x,1/2+y,1/2+z
1/2-x,-y,1/2+z
1/2+x,1/2-y,1/2-z
1/2-x,y,1/2-z
1/2-x,1/2-y,1/2-z
1/2+x,y,1/2-z
1/2-x,1/2+y,1/2+z
1/2+x,-y,1/2+z
loop_
_atom_site_type_symbol
_atom_site_label
_atom_site_fract_x
_atom_site_fract_y
_atom_site_fract_z
Si Si1 0.500000 0.046508 0.064463
Si Si2 0.715571 0.546213 0.564230
Si Si3 0.857325 0.047622 0.372753
Si Si4 0.082137 0.048599 0.741824
Si Si5 0.918980 0.048303 0.133266
O O1 0.500000 0.250000 0.068605
O O2 0.571866 0.983092 0.095006
O O3 0.500000 0.000000 0.000000
O O4 0.721686 0.500000 0.500000
O O5 0.714961 0.750000 0.568142
O O6 0.784541 0.483929 0.598879
O O7 0.641640 0.482487 0.591714
O O8 0.857072 0.250000 0.378248
O O9 0.867075 0.006959 0.308116
O O10 0.080620 0.250000 0.743241
O O11 0.000000 0.987139 0.730529
O O12 0.102360 0.985480 0.802926
O O13 0.922731 0.250000 0.126164
O O14 0.000000 0.979924 0.125067
#
# Coordination Sequence:
#
# PCOD9537106 Si02
#       5
#     8  16  16  16  16
#     4  10  20  32  50  74 102 142 183 216 257 308
#     4  10  22  38  56  80 109 142 182 226 269 318
#     4  10  20  35  54  77 108 146 182 217 265 322
#     4  10  20  34  55  84 112 139 178 226 271 316
#     4   9  19  37  59  80 106 143 181 219 270 329
#
# _framework density 20.266424000000001
#
# number of rings (size 3 to 8) (size 9 to 14) (size 15 to 20)
#    0.000    2.222    1.111    1.333    0.000    4.889 
#    0.000    4.444    0.000    0.000    0.000    0.000 
#    0.000    0.000    0.000    0.000    0.000    0.000 
#
# Total GULP energy -201034.439289 kJ/mol
# GULP energy per Si atom -5584.289980 kJ/mol
# Density = 2.022030 g / cm^3
# Si number density = 20.266424 Si / 1000 Ang^3
#
#
#
# Elastic Constant Matrix: (Units=GPa)
#
#
# Indices 1 2 3 4 5 6 
#
# 1 128.9151 17.2440 64.9074 0.0000 0.0000 0.0000
# 2 17.2440 13.6622 -2.3884 0.0000 0.0000 0.0000
# 3 64.9074 -2.3884 75.1325 0.0000 0.0000 0.0000
# 4 0.0000 0.0000 0.0000 29.5088 0.0000 0.0000
# 5 0.0000 0.0000 0.0000 0.0000 34.2494 0.0000
# 6 0.0000 0.0000 0.0000 0.0000 0.0000 3.0316
#
#
#
# Elastic Compliance Matrix: (Units=1/GPa)
#
#
# Indices 1 2 3 4 5 6 
#
# 1 0.022025 -0.031299 -0.020022 0.000000 0.000000 0.000000
# 2 -0.031299 0.118082 0.030793 0.000000 0.000000 0.000000
# 3 -0.020022 0.030793 0.031586 0.000000 0.000000 0.000000
# 4 0.000000 0.000000 0.000000 0.033888 0.000000 0.000000
# 5 0.000000 0.000000 0.000000 0.000000 0.029198 0.000000
# 6 0.000000 0.000000 0.000000 0.000000 0.000000 0.329863
#
#
# Mechanical properties :
#
#
# Convention : Reuss Voigt Hill
#
# Bulk Modulus (GPa) = 7.65480 41.91510 24.78495
# Shear Modulus (GPa) = 7.70126 22.55440 15.12783
#
# Velocity S-wave (km/s) = 1.95148 3.33963 2.73508
# Velocity P-wave (km/s) = 2.97707 5.96639 4.71491
#
# Compressibility (1/GPa) = 0.13063706
#
# Stress axis : x y z
#
# Youngs Moduli (GPa) = 45.40365 8.46866 31.65958
#
# Poissons Ratio (x) = 0.26506 0.63389
# Poissons Ratio (y) = 1.42109 -0.97490
# Poissons Ratio (z) = 0.90908 -0.26078
#
# Static dielectric constant tensor:
#      x y z
#    x 1.743520 0.000000 0.000000 
#    y 0.000000 1.717450 0.000000 
#    z 0.000000 0.000000 1.667980 
# 
# From -- ./inp_files/56647.got.cif
#   From: 2010.05.17/outbox.cif.g08.bks.cpg/sg74_29_cif.got.tgz:56647.got - 2010.06.03 17:57:02.
