data_PCOD9537850
_publ_section_title
;
Structure prediction by ZEFSAII (Michael W. Deem and Ramdas Pophale) SiO2 
 PCOD9537850
Probable space group: I M M A
;
_chemical_formula_sum "Si O2"
_cell_formula_units_Z 80
_cell_length_a 17.684091
_cell_length_b 29.616558
_cell_length_c 8.277195
_cell_angle_alpha 90.000000
_cell_angle_beta 90.000000
_cell_angle_gamma 90.000000
_cell_volume 4335.113892
_symmetry_space_group_name_H-M "I M M A"
_symmetry_group_IT_number 74
_symmetry_cell_setting 'orthorhombic'
loop_
_space_group_symop_operation_xyz
x,y,z
-x,1/2-y,z
x,-y,-z
-x,1/2+y,-z
-x,-y,-z
x,1/2+y,-z
-x,y,z
x,1/2-y,z
1/2+x,1/2+y,1/2+z
1/2-x,-y,1/2+z
1/2+x,1/2-y,1/2-z
1/2-x,y,1/2-z
1/2-x,1/2-y,1/2-z
1/2+x,y,1/2-z
1/2-x,1/2+y,1/2+z
1/2+x,-y,1/2+z
loop_
_atom_site_type_symbol
_atom_site_label
_atom_site_fract_x
_atom_site_fract_y
_atom_site_fract_z
Si Si1 0.089466 0.957236 0.903634
Si Si2 0.409994 0.861903 0.439520
Si Si3 0.317705 0.625272 0.132165
Si Si4 0.314302 0.956795 0.888065
Si Si5 0.273160 0.303501 0.436018
O O1 0.111072 0.963136 0.718683
O O2 0.000000 0.957360 0.924040
O O3 0.114051 0.909233 0.976235
O O4 0.121683 0.000000 0.000000
O O5 0.500000 0.854527 0.461511
O O6 0.388375 0.866472 0.250190
O O7 0.354900 0.824505 0.517936
O O8 0.250000 0.609776 0.250000
O O9 0.325190 0.587143 0.997565
O O10 0.287363 0.670769 0.048376
O O11 0.250000 0.951029 0.750000
O O12 0.299809 0.000000 0.000000
O O13 0.273007 0.250000 0.463233
O O14 0.250000 0.312192 0.250000
#
# Coordination Sequence:
#
# PCOD9537850 Si02
#       5
#    16  16  16  16  16
#     4  10  21  37  54  74 107 147 181 216 266 326
#     4  10  21  37  58  84 112 143 183 231 276 321
#     4  10  20  35  55  79 109 143 180 221 270 329
#     4  12  22  33  53  80 110 144 184 230 271 312
#     4  10  21  39  61  82 108 145 184 222 274 339
#
# _framework density 18.453956999999999
#
# number of rings (size 3 to 8) (size 9 to 14) (size 15 to 20)
#    0.000    1.600    0.000    6.600    0.000    5.200 
#    0.000    1.000    0.000    1.200    0.000    0.000 
#    0.000    0.000    0.000    0.000    0.000    0.000 
#
# Total GULP energy -223277.784545 kJ/mol
# GULP energy per Si atom -5581.944614 kJ/mol
# Density = 1.841196 g / cm^3
# Si number density = 18.453957 Si / 1000 Ang^3
#
#
#
# Elastic Constant Matrix: (Units=GPa)
#
#
# Indices 1 2 3 4 5 6 
#
# 1 50.1782 48.2443 31.6785 -0.0005 -0.0003 0.0002
# 2 48.2443 126.3428 73.1330 0.0004 0.0001 -0.0011
# 3 31.6785 73.1330 126.4792 -0.0054 0.0015 0.0041
# 4 -0.0005 0.0004 -0.0054 39.6578 0.0002 0.0012
# 5 -0.0003 0.0001 0.0015 0.0002 26.6512 -0.0004
# 6 0.0002 -0.0011 0.0041 0.0012 -0.0004 3.9389
#
#
#
# Elastic Compliance Matrix: (Units=1/GPa)
#
#
# Indices 1 2 3 4 5 6 
#
# 1 0.031657 -0.011271 -0.001412 0.000000 0.000000 -0.000003
# 2 -0.011271 0.015910 -0.006376 -0.000001 0.000000 0.000012
# 3 -0.001412 -0.006376 0.011947 0.000002 -0.000001 -0.000014
# 4 0.000000 -0.000001 0.000002 0.025216 0.000000 -0.000008
# 5 0.000000 0.000000 -0.000001 0.000000 0.037522 0.000004
# 6 -0.000003 0.000012 -0.000014 -0.000008 0.000004 0.253879
#
#
# Mechanical properties :
#
#
# Convention : Reuss Voigt Hill
#
# Bulk Modulus (GPa) = 46.73922 67.67906 57.20914
# Shear Modulus (GPa) = 11.86575 24.04587 17.95581
#
# Velocity S-wave (km/s) = 2.53848 3.61365 3.12269
# Velocity P-wave (km/s) = 5.82875 7.35972 6.63852
#
# Compressibility (1/GPa) = 0.02139531
#
# Stress axis : x y z
#
# Youngs Moduli (GPa) = 31.58865 62.85429 83.70306
#
# Poissons Ratio (x) = 0.70844 0.11817
# Poissons Ratio (y) = 0.35604 0.53372
# Poissons Ratio (z) = 0.04459 0.40078
#
# Static dielectric constant tensor:
#      x y z
#    x 1.664480 0.000000 0.000000 
#    y 0.000000 1.630490 0.000000 
#    z 0.000000 0.000000 1.647970 
# 
# From -- ./inp_files/10919.got.cif
#   From: 2010.05.17/outbox.cif.g08.bks.cpg/sg74_6_cif.got.tgz:10919.got - 2010.06.03 17:57:02.
