data_PCOD9537996
_publ_section_title
;
Structure prediction by ZEFSAII (Michael W. Deem and Ramdas Pophale) SiO2 
 PCOD9537996
Probable space group: I M M A
;
_chemical_formula_sum "Si O2"
_cell_formula_units_Z 116
_cell_length_a 8.077716
_cell_length_b 24.844536
_cell_length_c 27.461615
_cell_angle_alpha 90.000000
_cell_angle_beta 90.000000
_cell_angle_gamma 90.000000
_cell_volume 5511.192039
_symmetry_space_group_name_H-M "I M M A"
_symmetry_group_IT_number 74
_symmetry_cell_setting 'orthorhombic'
loop_
_space_group_symop_operation_xyz
x,y,z
-x,1/2-y,z
x,-y,-z
-x,1/2+y,-z
-x,-y,-z
x,1/2+y,-z
-x,y,z
x,1/2-y,z
1/2+x,1/2+y,1/2+z
1/2-x,-y,1/2+z
1/2+x,1/2-y,1/2-z
1/2-x,y,1/2-z
1/2-x,1/2-y,1/2-z
1/2+x,y,1/2-z
1/2-x,1/2+y,1/2+z
1/2+x,-y,1/2+z
loop_
_atom_site_type_symbol
_atom_site_label
_atom_site_fract_x
_atom_site_fract_y
_atom_site_fract_z
Si Si1 0.809237 0.472656 0.832492
Si Si2 0.694697 0.113449 0.090990
Si Si3 0.802422 0.089875 0.302876
Si Si4 0.698108 0.811047 0.099147
Si Si5 0.189053 0.513343 0.435487
Si Si6 0.500000 0.000000 0.500000
Si Si7 0.301279 0.137329 0.800010
Si Si8 0.304692 0.811422 0.503946
O O1 0.752044 0.527743 0.807568
O O2 0.705501 0.462804 0.881555
O O3 0.783265 0.420966 0.799891
O O4 0.000000 0.479584 0.846270
O O5 0.500000 0.125277 0.092462
O O6 0.760695 0.116863 0.146655
O O7 0.711299 0.051293 0.073898
O O8 0.770397 0.152453 0.050992
O O9 0.750000 0.111311 0.250000
O O10 0.000000 0.091331 0.305029
O O11 0.500000 0.809383 0.102751
O O12 0.763013 0.750000 0.096195
O O13 0.757766 0.836445 0.149390
O O14 0.737229 0.836180 0.046537
O O15 0.348433 0.528437 0.467530
O O16 0.000000 0.524179 0.452883
O O17 0.500000 0.132424 0.801193
O O18 0.250000 0.166251 0.750000
O O19 0.500000 0.807843 0.498174
O O20 0.237412 0.750000 0.510168
#
# Coordination Sequence:
#
# PCOD9537996 Si02
#       8
#    16  16  16  16  16   4  16  16
#     4  11  21  37  57  80 113 156 200 240 296 348
#     4   9  20  37  58  83 116 153 193 245 290 345
#     4  10  20  35  57  86 117 154 196 242 293 343
#     4   9  20  40  62  81 106 143 188 235 293 364
#     4  10  22  39  56  82 118 156 206 250 290 359
#     4  12  22  36  56  82 110 164 202 236 312 348
#     4  11  23  38  57  83 114 148 190 246 303 355
#     4  10  21  36  59  89 117 147 189 243 297 354
#
# _framework density 21.048079000000001
#
# number of rings (size 3 to 8) (size 9 to 14) (size 15 to 20)
#    0.000    1.931    0.690    3.931    0.966    4.414 
#    0.000    1.379    0.000    0.414    0.000    0.000 
#    0.000    0.000    0.000    0.000    0.000    0.000 
#
# Total GULP energy -323209.457337 kJ/mol
# GULP energy per Si atom -5572.576851 kJ/mol
# Density = 2.100017 g / cm^3
# Si number density = 21.048079 Si / 1000 Ang^3
#
#
#
# Elastic Constant Matrix: (Units=GPa)
#
#
# Indices 1 2 3 4 5 6 
#
# 1 89.0528 4.3889 29.3408 0.0000 0.0000 0.0000
# 2 4.3889 35.3714 36.2120 0.0000 0.0000 0.0000
# 3 29.3408 36.2120 178.5455 0.0000 0.0000 0.0000
# 4 0.0000 0.0000 0.0000 17.2132 0.0000 0.0000
# 5 0.0000 0.0000 0.0000 0.0000 35.3291 0.0000
# 6 0.0000 0.0000 0.0000 0.0000 0.0000 9.6796
#
#
#
# Elastic Compliance Matrix: (Units=1/GPa)
#
#
# Indices 1 2 3 4 5 6 
#
# 1 0.011884 0.000662 -0.002087 0.000000 0.000000 0.000000
# 2 0.000662 0.035717 -0.007353 0.000000 0.000000 0.000000
# 3 -0.002087 -0.007353 0.007435 0.000000 0.000000 0.000000
# 4 0.000000 0.000000 0.000000 0.058095 0.000000 0.000000
# 5 0.000000 0.000000 0.000000 0.000000 0.028305 0.000000
# 6 0.000000 0.000000 0.000000 0.000000 0.000000 0.103310
#
#
# Mechanical properties :
#
#
# Convention : Reuss Voigt Hill
#
# Bulk Modulus (GPa) = 26.68049 49.20591 37.94320
# Shear Modulus (GPa) = 18.19534 27.97959 23.08746
#
# Velocity S-wave (km/s) = 2.94337 3.64994 3.31553
# Velocity P-wave (km/s) = 4.92491 6.41805 5.72040
#
# Compressibility (1/GPa) = 0.03748057
#
# Stress axis : x y z
#
# Youngs Moduli (GPa) = 84.14418 27.99810 134.49740
#
# Poissons Ratio (x) = -0.01854 0.28074
# Poissons Ratio (y) = -0.05573 0.98893
# Poissons Ratio (z) = 0.17563 0.20586
#
# Static dielectric constant tensor:
#      x y z
#    x 1.769070 0.000000 0.000000 
#    y 0.000000 1.777520 0.000000 
#    z 0.000000 0.000000 1.910860 
# 
# From -- ./inp_files/64886.got.cif
#   From: 2010.05.17/outbox.cif.g08.bks.cpg/sg74_33_cif.got.tgz:64886.got - 2010.06.03 17:57:02.
