data_PCOD9537907
_publ_section_title
;
Structure prediction by ZEFSAII (Michael W. Deem and Ramdas Pophale) SiO2 
 PCOD9537907
Probable space group: I M M A
;
_chemical_formula_sum "Si O2"
_cell_formula_units_Z 88
_cell_length_a 9.258551
_cell_length_b 24.698310
_cell_length_c 20.789994
_cell_angle_alpha 90.000000
_cell_angle_beta 90.000000
_cell_angle_gamma 90.000000
_cell_volume 4754.059628
_symmetry_space_group_name_H-M "I M M A"
_symmetry_group_IT_number 74
_symmetry_cell_setting 'orthorhombic'
loop_
_space_group_symop_operation_xyz
x,y,z
-x,1/2-y,z
x,-y,-z
-x,1/2+y,-z
-x,-y,-z
x,1/2+y,-z
-x,y,z
x,1/2-y,z
1/2+x,1/2+y,1/2+z
1/2-x,-y,1/2+z
1/2+x,1/2-y,1/2-z
1/2-x,y,1/2-z
1/2-x,1/2-y,1/2-z
1/2+x,y,1/2-z
1/2-x,1/2+y,1/2+z
1/2+x,-y,1/2+z
loop_
_atom_site_type_symbol
_atom_site_label
_atom_site_fract_x
_atom_site_fract_y
_atom_site_fract_z
Si Si1 0.173985 0.337467 0.568833
Si Si2 0.675807 0.464783 0.939331
Si Si3 0.836129 0.483722 0.310319
Si Si4 0.825711 0.250000 0.679136
Si Si5 0.834490 0.646457 0.686417
Si Si6 0.335603 0.687069 0.563066
O O1 0.210597 0.401495 0.568797
O O2 0.210022 0.302158 0.632849
O O3 0.255536 0.316728 0.505358
O O4 0.000000 0.332109 0.560375
O O5 0.500000 0.466953 0.941991
O O6 0.727835 0.495875 0.876521
O O7 0.727599 0.500000 0.000000
O O8 0.750000 0.504619 0.250000
O O9 0.838435 0.418772 0.309225
O O10 0.000000 0.503231 0.306313
O O11 0.750000 0.250000 0.750000
O O12 0.000000 0.250000 0.688750
O O13 0.750000 0.666402 0.750000
O O14 0.753770 0.659698 0.620287
O O15 0.000000 0.666231 0.685573
O O16 0.500000 0.665683 0.558775
O O17 0.343344 0.750000 0.580341
#
# Coordination Sequence:
#
# PCOD9537907 Si02
#       6
#    16  16  16   8  16  16
#     4  10  20  37  59  82 110 146 189 233 281 340
#     4   9  17  31  54  82 109 140 182 228 274 329
#     4   9  18  33  53  78 107 141 179 219 267 322
#     4  10  22  38  58  84 113 148 191 238 286 340
#     4  10  20  35  56  80 110 147 185 226 269 320
#     4  11  23  37  55  79 108 142 181 228 280 332
#
# _framework density 18.510496
#
# number of rings (size 3 to 8) (size 9 to 14) (size 15 to 20)
#    0.000    2.182    0.909    2.182    0.000    6.545 
#    0.000    0.909    0.000    2.182    0.000    0.000 
#    0.000    0.000    0.000    0.000    0.000    0.000 
#
# Total GULP energy -245154.991776 kJ/mol
# GULP energy per Si atom -5571.704359 kJ/mol
# Density = 1.846837 g / cm^3
# Si number density = 18.510496 Si / 1000 Ang^3
#
#
#
# Elastic Constant Matrix: (Units=GPa)
#
#
# Indices 1 2 3 4 5 6 
#
# 1 80.7771 25.2593 69.4177 0.0000 0.0000 0.0000
# 2 25.2593 54.5227 52.3150 0.0000 0.0000 0.0000
# 3 69.4177 52.3150 189.7769 0.0000 0.0000 0.0000
# 4 0.0000 0.0000 0.0000 33.5011 0.0000 0.0000
# 5 0.0000 0.0000 0.0000 0.0000 34.8227 0.0000
# 6 0.0000 0.0000 0.0000 0.0000 0.0000 37.2755
#
#
#
# Elastic Compliance Matrix: (Units=1/GPa)
#
#
# Indices 1 2 3 4 5 6 
#
# 1 0.018365 -0.002804 -0.005945 0.000000 0.000000 0.000000
# 2 -0.002804 0.025365 -0.005967 0.000000 0.000000 0.000000
# 3 -0.005945 -0.005967 0.009089 0.000000 0.000000 0.000000
# 4 0.000000 0.000000 0.000000 0.029850 0.000000 0.000000
# 5 0.000000 0.000000 0.000000 0.000000 0.028717 0.000000
# 6 0.000000 0.000000 0.000000 0.000000 0.000000 0.026827
#
#
# Mechanical properties :
#
#
# Convention : Reuss Voigt Hill
#
# Bulk Modulus (GPa) = 42.75698 68.78451 55.77075
# Shear Modulus (GPa) = 28.49974 32.99218 30.74596
#
# Velocity S-wave (km/s) = 3.92810 4.22637 4.07996
# Velocity P-wave (km/s) = 6.61228 7.81388 7.23805
#
# Compressibility (1/GPa) = 0.02338799
#
# Stress axis : x y z
#
# Youngs Moduli (GPa) = 54.45017 39.42426 110.02775
#
# Poissons Ratio (x) = 0.11056 0.65409
# Poissons Ratio (y) = 0.15269 0.65648
# Poissons Ratio (z) = 0.32369 0.23523
#
# Static dielectric constant tensor:
#      x y z
#    x 1.651740 0.000000 0.000000 
#    y 0.000000 1.679350 0.000000 
#    z 0.000000 0.000000 1.637350 
# 
# From -- ./inp_files/48725.got.cif
#   From: 2010.05.17/outbox.cif.g08.bks.cpg/sg74_25_cif.got.tgz:48725.got - 2010.06.03 17:57:02.
