data_PCOD9537446
_publ_section_title
;
Structure prediction by ZEFSAII (Michael W. Deem and Ramdas Pophale) SiO2 
 PCOD9537446
Probable space group: I M M A
;
_chemical_formula_sum "Si O2"
_cell_formula_units_Z 96
_cell_length_a 8.682433
_cell_length_b 24.804746
_cell_length_c 23.932131
_cell_angle_alpha 90.000000
_cell_angle_beta 90.000000
_cell_angle_gamma 90.000000
_cell_volume 5154.156441
_symmetry_space_group_name_H-M "I M M A"
_symmetry_group_IT_number 74
_symmetry_cell_setting 'orthorhombic'
loop_
_space_group_symop_operation_xyz
x,y,z
-x,1/2-y,z
x,-y,-z
-x,1/2+y,-z
-x,-y,-z
x,1/2+y,-z
-x,y,z
x,1/2-y,z
1/2+x,1/2+y,1/2+z
1/2-x,-y,1/2+z
1/2+x,1/2-y,1/2-z
1/2-x,y,1/2-z
1/2-x,1/2-y,1/2-z
1/2+x,y,1/2-z
1/2-x,1/2+y,1/2+z
1/2+x,-y,1/2+z
loop_
_atom_site_type_symbol
_atom_site_label
_atom_site_fract_x
_atom_site_fract_y
_atom_site_fract_z
Si Si1 0.815056 0.188659 0.078864
Si Si2 0.184708 0.688215 0.187721
Si Si3 0.313948 0.027447 0.124519
Si Si4 0.686578 0.091943 0.886868
Si Si5 0.817004 0.371921 0.189911
Si Si6 0.315981 0.588417 0.985094
O O1 0.772872 0.250000 0.067131
O O2 0.779424 0.172254 0.142670
O O3 0.728868 0.145958 0.040482
O O4 0.000000 0.182609 0.071447
O O5 0.228535 0.750000 0.171766
O O6 0.250000 0.678610 0.250000
O O7 0.246387 0.642945 0.145605
O O8 0.000000 0.685579 0.189590
O O9 0.500000 0.030686 0.125164
O O10 0.248430 0.071694 0.166522
O O11 0.262724 0.044978 0.061519
O O12 0.270621 0.966289 0.138704
O O13 0.500000 0.096249 0.886266
O O14 0.739970 0.087400 0.951375
O O15 0.750000 0.358916 0.250000
O O16 0.000000 0.376149 0.193718
O O17 0.500000 0.581900 0.988092
#
# Coordination Sequence:
#
# PCOD9537446 Si02
#       6
#    16  16  16  16  16  16
#     4   9  19  35  52  72 102 138 174 214 259 304
#     4  10  22  40  59  78 103 135 170 211 258 305
#     4   9  18  34  54  76 105 139 172 209 254 301
#     4  10  20  34  56  83 107 135 171 209 251 303
#     4  10  20  34  52  74 101 135 174 216 261 306
#     4   9  18  33  53  78 107 137 171 211 253 299
#
# _framework density 18.625744000000001
#
# number of rings (size 3 to 8) (size 9 to 14) (size 15 to 20)
#    0.000    2.500    0.000    1.500    0.000    7.000 
#    0.000    3.333    0.000    5.000    0.000    0.000 
#    0.000    0.000    0.000    0.000    0.000    0.000 
#
# Total GULP energy -267739.794649 kJ/mol
# GULP energy per Si atom -5577.912389 kJ/mol
# Density = 1.858335 g / cm^3
# Si number density = 18.625744 Si / 1000 Ang^3
#
#
#
# Elastic Constant Matrix: (Units=GPa)
#
#
# Indices 1 2 3 4 5 6 
#
# 1 11.6409 10.3755 1.5151 0.0000 0.0000 0.0000
# 2 10.3755 85.8379 -0.7790 0.0000 0.0000 0.0000
# 3 1.5151 -0.7790 17.2220 0.0000 0.0000 0.0000
# 4 0.0000 0.0000 0.0000 9.8487 0.0000 0.0000
# 5 0.0000 0.0000 0.0000 0.0000 24.8960 0.0000
# 6 0.0000 0.0000 0.0000 0.0000 0.0000 14.4425
#
#
#
# Elastic Compliance Matrix: (Units=1/GPa)
#
#
# Indices 1 2 3 4 5 6 
#
# 1 0.097692 -0.011891 -0.009132 0.000000 0.000000 0.000000
# 2 -0.011891 0.013102 0.001639 0.000000 0.000000 0.000000
# 3 -0.009132 0.001639 0.058943 0.000000 0.000000 0.000000
# 4 0.000000 0.000000 0.000000 0.101536 0.000000 0.000000
# 5 0.000000 0.000000 0.000000 0.000000 0.040167 0.000000
# 6 0.000000 0.000000 0.000000 0.000000 0.000000 0.069240
#
#
# Mechanical properties :
#
#
# Convention : Reuss Voigt Hill
#
# Bulk Modulus (GPa) = 7.63553 15.21377 11.42465
# Shear Modulus (GPa) = 10.79668 16.74337 13.77002
#
# Velocity S-wave (km/s) = 2.41023 3.00148 2.72196
# Velocity P-wave (km/s) = 3.44296 4.49419 4.00323
#
# Compressibility (1/GPa) = 0.13096672
#
# Stress axis : x y z
#
# Youngs Moduli (GPa) = 10.23630 76.32395 16.96563
#
# Poissons Ratio (x) = 0.90758 0.15494
# Poissons Ratio (y) = 0.12172 -0.02780
# Poissons Ratio (z) = 0.09348 -0.12508
#
# Static dielectric constant tensor:
#      x y z
#    x 1.632860 0.000000 0.000000 
#    y 0.000000 1.631280 0.000000 
#    z 0.000000 0.000000 1.640260 
# 
# From -- ./inp_files/49127.got.cif
#   From: 2010.05.17/outbox.cif.g08.bks.cpg/sg74_25_cif.got.tgz:49127.got - 2010.06.03 17:57:02.
