data_PCOD9537912
_publ_section_title
;
Structure prediction by ZEFSAII (Michael W. Deem and Ramdas Pophale) SiO2 
 PCOD9537912
Probable space group: I M M A
;
_chemical_formula_sum "Si O2"
_cell_formula_units_Z 104
_cell_length_a 8.935651
_cell_length_b 20.655808
_cell_length_c 32.144795
_cell_angle_alpha 90.000000
_cell_angle_beta 90.000000
_cell_angle_gamma 90.000000
_cell_volume 5933.064186
_symmetry_space_group_name_H-M "I M M A"
_symmetry_group_IT_number 74
_symmetry_cell_setting 'orthorhombic'
loop_
_space_group_symop_operation_xyz
x,y,z
-x,1/2-y,z
x,-y,-z
-x,1/2+y,-z
-x,-y,-z
x,1/2+y,-z
-x,y,z
x,1/2-y,z
1/2+x,1/2+y,1/2+z
1/2-x,-y,1/2+z
1/2+x,1/2-y,1/2-z
1/2-x,y,1/2-z
1/2-x,1/2-y,1/2-z
1/2+x,y,1/2-z
1/2-x,1/2+y,1/2+z
1/2+x,-y,1/2+z
loop_
_atom_site_type_symbol
_atom_site_label
_atom_site_fract_x
_atom_site_fract_y
_atom_site_fract_z
Si Si1 0.677729 0.250000 0.295469
Si Si2 0.821158 0.508442 0.207899
Si Si3 0.672213 0.569555 0.917529
Si Si4 0.178038 0.824455 0.431779
Si Si5 0.679542 0.675735 0.523056
Si Si6 0.828103 0.620691 0.676649
Si Si7 0.321072 0.558451 0.384156
O O1 0.500000 0.250000 0.293014
O O2 0.750000 0.250000 0.250000
O O3 0.737388 0.313872 0.317853
O O4 0.750000 0.536643 0.250000
O O5 0.750543 0.437373 0.201350
O O6 0.786711 0.545373 0.164633
O O7 0.000000 0.504206 0.212004
O O8 0.500000 0.558778 0.930522
O O9 0.751724 0.620455 0.947814
O O10 0.671022 0.600601 0.871533
O O11 0.756357 0.501408 0.911186
O O12 0.203644 0.750000 0.418585
O O13 0.254713 0.832373 0.476815
O O14 0.247832 0.876014 0.400500
O O15 0.000000 0.834417 0.435737
O O16 0.500000 0.670323 0.522313
O O17 0.717067 0.750000 0.536624
O O18 0.000000 0.628712 0.690769
O O19 0.500000 0.560156 0.388630
#
# Coordination Sequence:
#
# PCOD9537912 Si02
#       7
#     8  16  16  16  16  16  16
#     4  12  24  36  50  68  96 134 180 230 278 328
#     4  10  20  35  56  81 108 140 176 218 267 321
#     4  10  21  36  55  79 109 144 184 229 274 322
#     4  10  21  38  60  85 112 143 179 220 269 326
#     4  10  21  36  55  80 111 148 188 229 273 323
#     4  10  21  36  52  73 102 138 179 225 275 323
#     4  10  21  37  58  84 113 143 180 224 271 324
#
# _framework density 17.528886
#
# number of rings (size 3 to 8) (size 9 to 14) (size 15 to 20)
#    0.000    1.846    0.000    3.923    1.077    6.154 
#    0.000    3.077    0.000    0.462    0.000    0.000 
#    0.000    0.000    0.000    0.000    0.000    0.000 
#
# Total GULP energy -290411.135667 kJ/mol
# GULP energy per Si atom -5584.829532 kJ/mol
# Density = 1.748899 g / cm^3
# Si number density = 17.528886 Si / 1000 Ang^3
#
#
#
# Elastic Constant Matrix: (Units=GPa)
#
#
# Indices 1 2 3 4 5 6 
#
# 1 123.6688 72.6255 59.3357 0.0000 0.0000 0.0000
# 2 72.6255 116.3483 69.8998 0.0000 0.0000 0.0000
# 3 59.3357 69.8998 81.0372 0.0000 0.0000 0.0000
# 4 0.0000 0.0000 0.0000 9.9721 0.0000 0.0000
# 5 0.0000 0.0000 0.0000 0.0000 32.6685 0.0000
# 6 0.0000 0.0000 0.0000 0.0000 0.0000 32.5691
#
#
#
# Elastic Compliance Matrix: (Units=1/GPa)
#
#
# Indices 1 2 3 4 5 6 
#
# 1 0.013885 -0.005312 -0.005585 0.000000 0.000000 0.000000
# 2 -0.005312 0.019872 -0.013251 0.000000 0.000000 0.000000
# 3 -0.005585 -0.013251 0.027859 0.000000 0.000000 0.000000
# 4 0.000000 0.000000 0.000000 0.100280 0.000000 0.000000
# 5 0.000000 0.000000 0.000000 0.000000 0.030611 0.000000
# 6 0.000000 0.000000 0.000000 0.000000 0.000000 0.030704
#
#
# Mechanical properties :
#
#
# Convention : Reuss Voigt Hill
#
# Bulk Modulus (GPa) = 75.07436 80.53068 77.80252
# Shear Modulus (GPa) = 18.11947 22.98817 20.55382
#
# Velocity S-wave (km/s) = 3.21860 3.62532 3.42799
# Velocity P-wave (km/s) = 7.53222 7.97279 7.75563
#
# Compressibility (1/GPa) = 0.01332013
#
# Stress axis : x y z
#
# Youngs Moduli (GPa) = 72.01909 50.32291 35.89473
#
# Poissons Ratio (x) = 0.26731 0.20047
# Poissons Ratio (y) = 0.38256 0.47565
# Poissons Ratio (z) = 0.40222 0.66684
#
# Static dielectric constant tensor:
#      x y z
#    x 1.589270 0.000000 0.000000 
#    y 0.000000 1.567410 0.000000 
#    z 0.000000 0.000000 1.604720 
# 
# From -- ./inp_files/64473.got.cif
#   From: 2010.05.17/outbox.cif.g08.bks.cpg/sg74_33_cif.got.tgz:64473.got - 2010.06.03 17:57:02.
