data_PCOD9537522
_publ_section_title
;
Structure prediction by ZEFSAII (Michael W. Deem and Ramdas Pophale) SiO2 
 PCOD9537522
Probable space group: I M M A
;
_chemical_formula_sum "Si O2"
_cell_formula_units_Z 112
_cell_length_a 15.087299
_cell_length_b 14.952984
_cell_length_c 26.201369
_cell_angle_alpha 90.000000
_cell_angle_beta 90.000000
_cell_angle_gamma 90.000000
_cell_volume 5911.032529
_symmetry_space_group_name_H-M "I M M A"
_symmetry_group_IT_number 74
_symmetry_cell_setting 'orthorhombic'
loop_
_space_group_symop_operation_xyz
x,y,z
-x,1/2-y,z
x,-y,-z
-x,1/2+y,-z
-x,-y,-z
x,1/2+y,-z
-x,y,z
x,1/2-y,z
1/2+x,1/2+y,1/2+z
1/2-x,-y,1/2+z
1/2+x,1/2-y,1/2-z
1/2-x,y,1/2-z
1/2-x,1/2-y,1/2-z
1/2+x,y,1/2-z
1/2-x,1/2+y,1/2+z
1/2+x,-y,1/2+z
loop_
_atom_site_type_symbol
_atom_site_label
_atom_site_fract_x
_atom_site_fract_y
_atom_site_fract_z
Si Si1 0.397802 0.643283 0.866241
Si Si2 0.650336 0.465073 0.235296
Si Si3 0.405205 0.844377 0.678669
Si Si4 0.893428 0.149771 0.774486
Si Si5 0.098713 0.609392 0.001063
Si Si6 0.894456 0.078677 0.887738
Si Si7 0.284013 0.398962 0.408013
O O1 0.500000 0.629899 0.882461
O O2 0.386565 0.750000 0.856669
O O3 0.380484 0.584195 0.815541
O O4 0.321219 0.610887 0.905039
O O5 0.750000 0.439567 0.250000
O O6 0.596534 0.425901 0.282867
O O7 0.642338 0.571931 0.237702
O O8 0.500000 0.846927 0.650791
O O9 0.401087 0.750000 0.707982
O O10 0.325716 0.846630 0.639496
O O11 0.861996 0.250000 0.763150
O O12 0.874509 0.125210 0.833873
O O13 0.000000 0.148687 0.769788
O O14 0.172966 0.634731 0.960504
O O15 0.000000 0.638699 0.985541
O O16 0.097402 0.500000 0.000000
O O17 0.113896 0.635073 0.059964
O O18 0.000000 0.051421 0.886679
O O19 0.826386 0.996796 0.896168
#
# Coordination Sequence:
#
# PCOD9537522 Si02
#       7
#    16  16  16  16  16  16  16
#     4  11  24  39  53  72 105 149 193 233 273 322
#     4  12  22  36  55  74  99 140 184 226 272 327
#     4  11  21  31  48  75 106 136 170 214 261 315
#     4  10  20  34  53  77 105 137 174 218 269 328
#     4   8  15  27  50  81 112 146 177 211 259 320
#     4   9  16  31  54  82 115 147 177 212 266 330
#     4  11  18  31  52  76 106 141 183 221 259 314
#
# _framework density 18.947620000000001
#
# number of rings (size 3 to 8) (size 9 to 14) (size 15 to 20)
#    0.000    1.714    2.857    4.286    0.000    2.000 
#    0.000    1.429    0.000    7.286    0.000    0.000 
#    0.000    0.000    0.000    4.857    0.000    0.000 
#
# Total GULP energy -312241.718310 kJ/mol
# GULP energy per Si atom -5575.744970 kJ/mol
# Density = 1.890449 g / cm^3
# Si number density = 18.947620 Si / 1000 Ang^3
#
#
#
# Elastic Constant Matrix: (Units=GPa)
#
#
# Indices 1 2 3 4 5 6 
#
# 1 138.9935 24.6766 33.3770 0.0000 0.0000 0.0000
# 2 24.6766 92.6575 17.6462 0.0000 0.0000 0.0000
# 3 33.3770 17.6462 64.5846 0.0000 0.0000 0.0000
# 4 0.0000 0.0000 0.0000 2.0293 0.0000 0.0000
# 5 0.0000 0.0000 0.0000 0.0000 21.3837 0.0000
# 6 0.0000 0.0000 0.0000 0.0000 0.0000 49.3000
#
#
#
# Elastic Compliance Matrix: (Units=1/GPa)
#
#
# Indices 1 2 3 4 5 6 
#
# 1 0.008404 -0.001489 -0.003937 0.000000 0.000000 0.000000
# 2 -0.001489 0.011648 -0.002413 0.000000 0.000000 0.000000
# 3 -0.003937 -0.002413 0.018177 0.000000 0.000000 0.000000
# 4 0.000000 0.000000 0.000000 0.492787 0.000000 0.000000
# 5 0.000000 0.000000 0.000000 0.000000 0.046765 0.000000
# 6 0.000000 0.000000 0.000000 0.000000 0.000000 0.020284
#
#
# Mechanical properties :
#
#
# Convention : Reuss Voigt Hill
#
# Bulk Modulus (GPa) = 44.33985 49.73725 47.03855
# Shear Modulus (GPa) = 8.04816 29.24500 18.64658
#
# Velocity S-wave (km/s) = 2.06320 3.93296 3.14046
# Velocity P-wave (km/s) = 5.39702 6.85063 6.16680
#
# Compressibility (1/GPa) = 0.02255308
#
# Stress axis : x y z
#
# Youngs Moduli (GPa) = 118.98910 85.84812 55.01355
#
# Poissons Ratio (x) = 0.12779 0.21656
# Poissons Ratio (y) = 0.17712 0.13277
# Poissons Ratio (z) = 0.46840 0.20719
#
# Static dielectric constant tensor:
#      x y z
#    x 1.713410 0.000000 0.000000 
#    y 0.000000 1.735830 0.000000 
#    z 0.000000 0.000000 1.662980 
# 
# From -- ./inp_files/72674.got.cif
#   From: 2010.05.17/outbox.cif.g08.bks.cpg/sg74_37_cif.got.tgz:72674.got - 2010.06.03 17:57:02.
