data_PCOD9537556
_publ_section_title
;
Structure prediction by ZEFSAII (Michael W. Deem and Ramdas Pophale) SiO2 
 PCOD9537556
Probable space group: I M M A
;
_chemical_formula_sum "Si O2"
_cell_formula_units_Z 112
_cell_length_a 14.635608
_cell_length_b 14.974370
_cell_length_c 22.442917
_cell_angle_alpha 90.000000
_cell_angle_beta 90.000000
_cell_angle_gamma 90.000000
_cell_volume 4918.567457
_symmetry_space_group_name_H-M "I M M A"
_symmetry_group_IT_number 74
_symmetry_cell_setting 'orthorhombic'
loop_
_space_group_symop_operation_xyz
x,y,z
-x,1/2-y,z
x,-y,-z
-x,1/2+y,-z
-x,-y,-z
x,1/2+y,-z
-x,y,z
x,1/2-y,z
1/2+x,1/2+y,1/2+z
1/2-x,-y,1/2+z
1/2+x,1/2-y,1/2-z
1/2-x,y,1/2-z
1/2-x,1/2-y,1/2-z
1/2+x,y,1/2-z
1/2-x,1/2+y,1/2+z
1/2+x,-y,1/2+z
loop_
_atom_site_type_symbol
_atom_site_label
_atom_site_fract_x
_atom_site_fract_y
_atom_site_fract_z
Si Si1 0.393666 0.998394 0.747823
Si Si2 0.102725 0.643648 0.001300
Si Si3 0.104293 0.093234 0.864972
Si Si4 0.401000 0.147535 0.940660
Si Si5 0.204286 0.648031 0.324910
Si Si6 0.890506 0.644593 0.658089
Si Si7 0.288656 0.086027 0.043571
O O1 0.500000 0.018140 0.761914
O O2 0.371972 0.904984 0.779176
O O3 0.386023 0.004915 0.676152
O O4 0.334562 0.076904 0.778070
O O5 0.109119 0.750000 0.014949
O O6 0.115392 0.591154 0.063880
O O7 0.000000 0.625528 0.979258
O O8 0.184205 0.617415 0.957956
O O9 0.188012 0.149734 0.839266
O O10 0.000000 0.126799 0.855439
O O11 0.500000 0.102280 0.943748
O O12 0.412903 0.250000 0.923578
O O13 0.338897 0.113963 0.887214
O O14 0.351851 0.149583 0.003522
O O15 0.177492 0.750000 0.309024
O O16 0.867888 0.750000 0.658133
O O17 0.832931 0.591755 0.608202
O O18 0.000000 0.637198 0.645965
O O19 0.294899 0.000000 0.000000
#
# Coordination Sequence:
#
# PCOD9537556 Si02
#       7
#    16  16  16  16  16  16  16
#     4  10  22  39  59  89 126 161 207 264 315 376
#     4  10  21  39  62  89 123 165 213 260 311 379
#     4  10  21  37  59  85 115 158 206 259 315 371
#     4  10  20  34  53  80 118 160 201 247 302 372
#     4  11  21  34  54  85 124 165 201 245 313 389
#     4  10  22  41  65  92 126 172 221 264 314 383
#     4  12  23  35  58  92 128 168 205 262 324 382
#
# _framework density 22.770856999999999
#
# number of rings (size 3 to 8) (size 9 to 14) (size 15 to 20)
#    0.000    1.571    1.429    3.857    0.000    7.143 
#    0.000    2.857    0.000    1.714    0.000    0.000 
#    0.000    0.000    0.000    0.000    0.000    0.000 
#
# Total GULP energy -312453.643163 kJ/mol
# GULP energy per Si atom -5579.529342 kJ/mol
# Density = 2.271903 g / cm^3
# Si number density = 22.770857 Si / 1000 Ang^3
#
#
#
# Elastic Constant Matrix: (Units=GPa)
#
#
# Indices 1 2 3 4 5 6 
#
# 1 110.1030 38.8745 25.1255 0.0000 0.0000 0.0000
# 2 38.8745 108.5744 21.8293 0.0000 0.0000 0.0000
# 3 25.1255 21.8293 55.1961 0.0000 0.0000 0.0000
# 4 0.0000 0.0000 0.0000 24.7564 0.0000 0.0000
# 5 0.0000 0.0000 0.0000 0.0000 20.3530 0.0000
# 6 0.0000 0.0000 0.0000 0.0000 0.0000 12.0602
#
#
#
# Elastic Compliance Matrix: (Units=1/GPa)
#
#
# Indices 1 2 3 4 5 6 
#
# 1 0.011076 -0.003207 -0.003773 0.000000 0.000000 0.000000
# 2 -0.003207 0.010934 -0.002865 0.000000 0.000000 0.000000
# 3 -0.003773 -0.002865 0.020968 0.000000 0.000000 0.000000
# 4 0.000000 0.000000 0.000000 0.040394 0.000000 0.000000
# 5 0.000000 0.000000 0.000000 0.000000 0.049133 0.000000
# 6 0.000000 0.000000 0.000000 0.000000 0.000000 0.082917
#
#
# Mechanical properties :
#
#
# Convention : Reuss Voigt Hill
#
# Bulk Modulus (GPa) = 42.94047 49.50355 46.22201
# Shear Modulus (GPa) = 20.58677 23.97020 22.27848
#
# Velocity S-wave (km/s) = 3.01006 3.24801 3.13130
# Velocity P-wave (km/s) = 5.56590 5.98775 5.78067
#
# Compressibility (1/GPa) = 0.02328806
#
# Stress axis : x y z
#
# Youngs Moduli (GPa) = 90.28699 91.45404 47.69218
#
# Poissons Ratio (x) = 0.29329 0.17996
# Poissons Ratio (y) = 0.28955 0.13662
# Poissons Ratio (z) = 0.34069 0.26198
#
# Static dielectric constant tensor:
#      x y z
#    x 1.940600 0.000000 0.000000 
#    y 0.000000 1.921790 0.000000 
#    z 0.000000 0.000000 1.841680 
# 
# From -- ./inp_files/60169.got.cif
#   From: 2010.05.17/outbox.cif.g08.bks.cpg/sg74_31_cif.got.tgz:60169.got - 2010.06.03 17:57:02.
