data_PCOD9537672
_publ_section_title
;
Structure prediction by ZEFSAII (Michael W. Deem and Ramdas Pophale) SiO2 
 PCOD9537672
Probable space group: I M M A
;
_chemical_formula_sum "Si O2"
_cell_formula_units_Z 72
_cell_length_a 9.584331
_cell_length_b 30.718402
_cell_length_c 12.744743
_cell_angle_alpha 90.000000
_cell_angle_beta 90.000000
_cell_angle_gamma 90.000000
_cell_volume 3752.247749
_symmetry_space_group_name_H-M "I M M A"
_symmetry_group_IT_number 74
_symmetry_cell_setting 'orthorhombic'
loop_
_space_group_symop_operation_xyz
x,y,z
-x,1/2-y,z
x,-y,-z
-x,1/2+y,-z
-x,-y,-z
x,1/2+y,-z
-x,y,z
x,1/2-y,z
1/2+x,1/2+y,1/2+z
1/2-x,-y,1/2+z
1/2+x,1/2-y,1/2-z
1/2-x,y,1/2-z
1/2-x,1/2-y,1/2-z
1/2+x,y,1/2-z
1/2-x,1/2+y,1/2+z
1/2+x,-y,1/2+z
loop_
_atom_site_type_symbol
_atom_site_label
_atom_site_fract_x
_atom_site_fract_y
_atom_site_fract_z
Si Si1 0.839415 0.577662 0.350572
Si Si2 0.230947 0.500000 0.500000
Si Si3 0.647762 0.934184 0.656950
Si Si4 0.836833 0.302446 0.355140
Si Si5 0.338440 0.357574 0.512789
O O1 0.750000 0.562499 0.250000
O O2 0.843777 0.539409 0.438491
O O3 0.752561 0.618716 0.397209
O O4 0.000000 0.588436 0.323622
O O5 0.319937 0.523566 0.588982
O O6 0.500000 0.939586 0.709510
O O7 0.750000 0.926221 0.750000
O O8 0.649035 0.894596 0.576385
O O9 0.839223 0.250000 0.358157
O O10 0.750000 0.315016 0.250000
O O11 0.752315 0.320384 0.455571
O O12 0.000000 0.317458 0.351495
O O13 0.500000 0.345869 0.541593
#
# Coordination Sequence:
#
# PCOD9537672 Si02
#       5
#    16   8  16  16  16
#     4  11  23  39  58  81 109 143 185 231 279 331
#     4  10  22  36  54  76 104 140 182 226 272 322
#     4  10  21  34  50  72 101 136 175 220 267 317
#     4  10  20  34  55  85 119 152 185 224 272 327
#     4  10  21  37  56  79 108 144 183 224 273 327
#
# _framework density 19.188497999999999
#
# number of rings (size 3 to 8) (size 9 to 14) (size 15 to 20)
#    0.000    1.778    0.000    4.000    0.000   12.889 
#    0.000    0.000    0.000    0.667    0.000    0.000 
#    0.000    0.000    0.000    0.000    0.000    0.000 
#
# Total GULP energy -200711.235777 kJ/mol
# GULP energy per Si atom -5575.312105 kJ/mol
# Density = 1.914482 g / cm^3
# Si number density = 19.188498 Si / 1000 Ang^3
#
#
#
# Elastic Constant Matrix: (Units=GPa)
#
#
# Indices 1 2 3 4 5 6 
#
# 1 187.4268 24.0974 42.3012 0.0000 0.0000 0.0000
# 2 24.0974 43.0573 6.7892 0.0000 0.0000 0.0000
# 3 42.3012 6.7892 62.1032 -0.0002 0.0001 -0.0004
# 4 0.0000 0.0000 -0.0002 18.2027 0.0000 -0.0001
# 5 0.0000 0.0000 0.0001 0.0000 26.5689 -0.0001
# 6 0.0000 0.0000 -0.0004 -0.0001 -0.0001 66.4248
#
#
#
# Elastic Compliance Matrix: (Units=1/GPa)
#
#
# Indices 1 2 3 4 5 6 
#
# 1 0.006682 -0.003075 -0.004215 0.000000 0.000000 0.000000
# 2 -0.003075 0.025047 -0.000644 0.000000 0.000000 0.000000
# 3 -0.004215 -0.000644 0.019044 0.000000 0.000000 0.000000
# 4 0.000000 0.000000 0.000000 0.054937 0.000000 0.000000
# 5 0.000000 0.000000 0.000000 0.000000 0.037638 0.000000
# 6 0.000000 0.000000 0.000000 0.000000 0.000000 0.015055
#
#
# Mechanical properties :
#
#
# Convention : Reuss Voigt Hill
#
# Bulk Modulus (GPa) = 28.64896 48.77363 38.71130
# Shear Modulus (GPa) = 26.89531 36.86592 31.88061
#
# Velocity S-wave (km/s) = 3.74791 4.38796 4.08050
# Velocity P-wave (km/s) = 5.80446 7.15162 6.51296
#
# Compressibility (1/GPa) = 0.03490528
#
# Stress axis : x y z
#
# Youngs Moduli (GPa) = 149.65243 39.92438 52.51047
#
# Poissons Ratio (x) = 0.12277 0.22135
# Poissons Ratio (y) = 0.46019 0.03380
# Poissons Ratio (z) = 0.63083 0.02570
#
# Static dielectric constant tensor:
#      x y z
#    x 1.705380 0.000000 0.000000 
#    y 0.000000 1.649050 0.000000 
#    z 0.000000 0.000000 1.645700 
# 
# From -- ./inp_files/29385.got.cif
#   From: 2010.05.17/outbox.cif.g08.bks.cpg/sg74_15_cif.got.tgz:29385.got - 2010.06.03 17:57:02.
