data_PCOD9537871
_publ_section_title
;
Structure prediction by ZEFSAII (Michael W. Deem and Ramdas Pophale) SiO2 
 PCOD9537871
Probable space group: I M M A
;
_chemical_formula_sum "Si O2"
_cell_formula_units_Z 72
_cell_length_a 9.985072
_cell_length_b 27.108138
_cell_length_c 14.387655
_cell_angle_alpha 90.000000
_cell_angle_beta 90.000000
_cell_angle_gamma 90.000000
_cell_volume 3894.403116
_symmetry_space_group_name_H-M "I M M A"
_symmetry_group_IT_number 74
_symmetry_cell_setting 'orthorhombic'
loop_
_space_group_symop_operation_xyz
x,y,z
-x,1/2-y,z
x,-y,-z
-x,1/2+y,-z
-x,-y,-z
x,1/2+y,-z
-x,y,z
x,1/2-y,z
1/2+x,1/2+y,1/2+z
1/2-x,-y,1/2+z
1/2+x,1/2-y,1/2-z
1/2-x,y,1/2-z
1/2-x,1/2-y,1/2-z
1/2+x,y,1/2-z
1/2-x,1/2+y,1/2+z
1/2+x,-y,1/2+z
loop_
_atom_site_type_symbol
_atom_site_label
_atom_site_fract_x
_atom_site_fract_y
_atom_site_fract_z
Si Si1 0.500000 0.542630 0.811369
Si Si2 0.000000 0.411418 0.518572
Si Si3 0.282895 0.543080 0.153842
Si Si4 0.223752 0.195882 0.141001
Si Si5 0.500000 0.613540 0.625205
Si Si6 0.500000 0.951618 0.443346
Si Si7 0.000000 0.804830 0.528883
O O1 0.368641 0.506441 0.817936
O O2 0.500000 0.576161 0.716225
O O3 0.500000 0.574100 0.908587
O O4 0.126700 0.433612 0.572918
O O5 0.000000 0.352965 0.533650
O O6 0.250000 0.571088 0.250000
O O7 0.134610 0.542458 0.114269
O O8 0.167180 0.250000 0.113117
O O9 0.250000 0.197782 0.250000
O O10 0.366263 0.190937 0.090652
O O11 0.128129 0.149519 0.127291
O O12 0.500000 0.589601 0.523059
O O13 0.500000 0.000000 0.500000
O O14 0.000000 0.750000 0.486001
#
# Coordination Sequence:
#
# PCOD9537871 Si02
#       7
#     8   8  16  16   8   8   8
#     4  11  24  38  57  83 119 160 190 221 275 352
#     4  11  21  39  61  81 111 152 191 229 283 346
#     4  11  23  40  58  80 110 149 195 242 287 333
#     4  10  20  35  55  82 119 158 192 226 271 338
#     4  12  24  37  58  89 122 155 191 235 287 340
#     4  12  23  36  55  82 113 145 190 244 288 328
#     4  10  21  36  56  83 112 148 192 235 284 344
#
# _framework density 18.48807
#
# number of rings (size 3 to 8) (size 9 to 14) (size 15 to 20)
#    0.000    1.111    0.000    9.000    0.000    6.222 
#    0.000    1.111    0.000    0.667    0.000    3.111 
#    0.000    0.000    0.000    0.000    0.000    0.000 
#
# Total GULP energy -200497.367304 kJ/mol
# GULP energy per Si atom -5569.371314 kJ/mol
# Density = 1.844599 g / cm^3
# Si number density = 18.488070 Si / 1000 Ang^3
#
#
#
# Elastic Constant Matrix: (Units=GPa)
#
#
# Indices 1 2 3 4 5 6 
#
# 1 159.4336 55.8386 46.0253 0.0000 0.0000 0.0000
# 2 55.8386 114.6828 28.5789 0.0000 0.0000 0.0000
# 3 46.0253 28.5789 84.9706 0.0001 0.0000 0.0000
# 4 0.0000 0.0000 0.0001 30.3604 0.0000 0.0000
# 5 0.0000 0.0000 0.0000 0.0000 30.4417 0.0000
# 6 0.0000 0.0000 0.0000 0.0000 0.0000 42.7276
#
#
#
# Elastic Compliance Matrix: (Units=1/GPa)
#
#
# Indices 1 2 3 4 5 6 
#
# 1 0.008403 -0.003228 -0.003466 0.000000 0.000000 0.000000
# 2 -0.003228 0.010757 -0.001870 0.000000 0.000000 0.000000
# 3 -0.003466 -0.001870 0.014275 0.000000 0.000000 0.000000
# 4 0.000000 0.000000 0.000000 0.032938 0.000000 0.000000
# 5 0.000000 0.000000 0.000000 0.000000 0.032850 0.000000
# 6 0.000000 0.000000 0.000000 0.000000 0.000000 0.023404
#
#
# Mechanical properties :
#
#
# Convention : Reuss Voigt Hill
#
# Bulk Modulus (GPa) = 61.31805 68.88584 65.10194
# Shear Modulus (GPa) = 34.43759 35.94890 35.19325
#
# Velocity S-wave (km/s) = 4.32057 4.41436 4.36772
# Velocity P-wave (km/s) = 7.62418 7.95755 7.79265
#
# Compressibility (1/GPa) = 0.01630841
#
# Stress axis : x y z
#
# Youngs Moduli (GPa) = 119.00141 92.96081 70.05214
#
# Poissons Ratio (x) = 0.30006 0.24281
# Poissons Ratio (y) = 0.38411 0.13098
# Poissons Ratio (z) = 0.41247 0.17381
#
# Static dielectric constant tensor:
#      x y z
#    x 2.070060 0.000000 0.000000 
#    y 0.000000 1.679180 0.000000 
#    z 0.000000 0.000000 1.563710 
# 
# From -- ./inp_files/29267.got.cif
#   From: 2010.05.17/outbox.cif.g08.bks.cpg/sg74_15_cif.got.tgz:29267.got - 2010.06.03 17:57:02.
