data_PCOD9537461
_publ_section_title
;
Structure prediction by ZEFSAII (Michael W. Deem and Ramdas Pophale) SiO2 
 PCOD9537461
Probable space group: I M M A
;
_chemical_formula_sum "Si O2"
_cell_formula_units_Z 80
_cell_length_a 8.664621
_cell_length_b 19.005318
_cell_length_c 27.272220
_cell_angle_alpha 90.000000
_cell_angle_beta 90.000000
_cell_angle_gamma 90.000000
_cell_volume 4491.022214
_symmetry_space_group_name_H-M "I M M A"
_symmetry_group_IT_number 74
_symmetry_cell_setting 'orthorhombic'
loop_
_space_group_symop_operation_xyz
x,y,z
-x,1/2-y,z
x,-y,-z
-x,1/2+y,-z
-x,-y,-z
x,1/2+y,-z
-x,y,z
x,1/2-y,z
1/2+x,1/2+y,1/2+z
1/2-x,-y,1/2+z
1/2+x,1/2-y,1/2-z
1/2-x,y,1/2-z
1/2-x,1/2-y,1/2-z
1/2+x,y,1/2-z
1/2-x,1/2+y,1/2+z
1/2+x,-y,1/2+z
loop_
_atom_site_type_symbol
_atom_site_label
_atom_site_fract_x
_atom_site_fract_y
_atom_site_fract_z
Si Si1 0.815942 0.104988 0.697332
Si Si2 0.315434 0.829807 0.804958
Si Si3 0.184964 0.169126 0.902149
Si Si4 0.184576 0.533175 0.447344
Si Si5 0.316914 0.467983 0.349599
O O1 0.750000 0.126805 0.750000
O O2 0.747136 0.149182 0.651979
O O3 0.000000 0.109898 0.697039
O O4 0.764347 0.024727 0.686070
O O5 0.500000 0.838826 0.804044
O O6 0.281408 0.750000 0.821691
O O7 0.250000 0.836708 0.750000
O O8 0.238982 0.890168 0.837078
O O9 0.222267 0.250000 0.913440
O O10 0.258826 0.113085 0.939407
O O11 0.000000 0.160488 0.902157
O O12 0.220728 0.500000 0.500000
O O13 0.266182 0.489904 0.404059
O O14 0.000000 0.530628 0.440034
O O15 0.500000 0.474577 0.343893
#
# Coordination Sequence:
#
# PCOD9537461 Si02
#       5
#    16  16  16  16  16
#     4  11  21  34  53  77 108 144 182 219 258 308
#     4  10  20  34  52  75 106 142 179 219 264 315
#     4  10  21  37  57  82 111 141 175 216 263 314
#     4  10  21  38  60  83 106 136 176 219 265 316
#     4  11  21  34  54  78 106 138 176 221 266 316
#
# _framework density 17.813317000000001
#
# number of rings (size 3 to 8) (size 9 to 14) (size 15 to 20)
#    0.000    1.600    0.000    8.400    0.000    4.800 
#    0.000    1.000    0.000    1.200    0.000    0.000 
#    0.000    0.000    0.000    0.000    0.000    0.000 
#
# Total GULP energy -223490.084623 kJ/mol
# GULP energy per Si atom -5587.252116 kJ/mol
# Density = 1.777277 g / cm^3
# Si number density = 17.813317 Si / 1000 Ang^3
#
#
#
# Elastic Constant Matrix: (Units=GPa)
#
#
# Indices 1 2 3 4 5 6 
#
# 1 74.4779 33.9217 19.0621 0.0000 0.0000 0.0000
# 2 33.9217 125.1906 40.3717 0.0000 0.0000 0.0000
# 3 19.0621 40.3717 67.4700 0.0000 0.0000 0.0000
# 4 0.0000 0.0000 0.0000 8.7262 0.0000 0.0000
# 5 0.0000 0.0000 0.0000 0.0000 27.8141 0.0000
# 6 0.0000 0.0000 0.0000 0.0000 0.0000 31.1836
#
#
#
# Elastic Compliance Matrix: (Units=1/GPa)
#
#
# Indices 1 2 3 4 5 6 
#
# 1 0.015607 -0.003478 -0.002328 0.000000 0.000000 0.000000
# 2 -0.003478 0.010673 -0.005404 0.000000 0.000000 0.000000
# 3 -0.002328 -0.005404 0.018712 0.000000 0.000000 0.000000
# 4 0.000000 0.000000 0.000000 0.114598 0.000000 0.000000
# 5 0.000000 0.000000 0.000000 0.000000 0.035953 0.000000
# 6 0.000000 0.000000 0.000000 0.000000 0.000000 0.032068
#
#
# Mechanical properties :
#
#
# Convention : Reuss Voigt Hill
#
# Bulk Modulus (GPa) = 44.30182 50.42774 47.36478
# Shear Modulus (GPa) = 19.41335 25.13031 22.27183
#
# Velocity S-wave (km/s) = 3.30483 3.76008 3.53978
# Velocity P-wave (km/s) = 6.28383 6.87178 6.58437
#
# Compressibility (1/GPa) = 0.02257244
#
# Stress axis : x y z
#
# Youngs Moduli (GPa) = 64.07467 93.69624 53.44023
#
# Poissons Ratio (x) = 0.32588 0.12442
# Poissons Ratio (y) = 0.22285 0.28877
# Poissons Ratio (z) = 0.14918 0.50630
#
# Static dielectric constant tensor:
#      x y z
#    x 1.594450 0.000000 0.000000 
#    y 0.000000 1.617270 0.000000 
#    z 0.000000 0.000000 1.582140 
# 
# From -- ./inp_files/70386.got.cif
#   From: 2010.05.17/outbox.cif.g08.bks.cpg/sg74_36_cif.got.tgz:70386.got - 2010.06.03 17:57:02.
