data_PCOD9537990
_publ_section_title
;
Structure prediction by ZEFSAII (Michael W. Deem and Ramdas Pophale) SiO2 
 PCOD9537990
Probable space group: I M M A
;
_chemical_formula_sum "Si O2"
_cell_formula_units_Z 92
_cell_length_a 7.910795
_cell_length_b 22.276877
_cell_length_c 27.943517
_cell_angle_alpha 90.000000
_cell_angle_beta 90.000000
_cell_angle_gamma 90.000000
_cell_volume 4924.424726
_symmetry_space_group_name_H-M "I M M A"
_symmetry_group_IT_number 74
_symmetry_cell_setting 'orthorhombic'
loop_
_space_group_symop_operation_xyz
x,y,z
-x,1/2-y,z
x,-y,-z
-x,1/2+y,-z
-x,-y,-z
x,1/2+y,-z
-x,y,z
x,1/2-y,z
1/2+x,1/2+y,1/2+z
1/2-x,-y,1/2+z
1/2+x,1/2-y,1/2-z
1/2-x,y,1/2-z
1/2-x,1/2-y,1/2-z
1/2+x,y,1/2-z
1/2-x,1/2+y,1/2+z
1/2+x,-y,1/2+z
loop_
_atom_site_type_symbol
_atom_site_label
_atom_site_fract_x
_atom_site_fract_y
_atom_site_fract_z
Si Si1 0.310008 0.153157 0.531652
Si Si2 0.306576 0.070217 0.051396
Si Si3 0.000000 0.250000 0.526008
Si Si4 0.295017 0.446928 0.900286
Si Si5 0.298362 0.508291 0.802803
Si Si6 0.200701 0.250000 0.305647
Si Si7 0.806716 0.374246 0.146928
O O1 0.500000 0.179055 0.531416
O O2 0.295779 0.105810 0.488060
O O3 0.282439 0.113529 0.579357
O O4 0.152220 0.198147 0.526318
O O5 0.500000 0.065123 0.034420
O O6 0.302530 0.107952 0.100845
O O7 0.246542 0.003909 0.066430
O O8 0.500000 0.442839 0.901843
O O9 0.244960 0.465052 0.846338
O O10 0.500000 0.514477 0.805775
O O11 0.250000 0.487684 0.750000
O O12 0.221883 0.573763 0.813910
O O13 0.250000 0.250000 0.250000
O O14 0.267435 0.190219 0.331196
O O15 0.000000 0.250000 0.309238
O O16 0.000000 0.376159 0.130907
#
# Coordination Sequence:
#
# PCOD9537990 Si02
#       7
#    16  16   4  16  16   8  16
#     4  12  24  40  65  91 119 161 208 244 300 364
#     4  10  20  38  61  87 121 159 192 248 309 352
#     4  12  26  46  58  82 126 160 198 258 294 344
#     4   9  19  37  61  89 124 159 194 242 308 360
#     4  10  20  35  57  85 121 154 187 238 304 355
#     4  12  24  39  54  70  98 146 204 248 296 345
#     4  11  22  36  53  78 110 150 201 248 292 352
#
# _framework density 18.682383999999999
#
# number of rings (size 3 to 8) (size 9 to 14) (size 15 to 20)
#    0.000    1.391    1.739    5.739    0.000    6.957 
#    1.565    1.739    0.000    0.000    0.000    0.609 
#    0.000    0.000    0.000    0.000    0.000    0.000 
#
# Total GULP energy -256470.980129 kJ/mol
# GULP energy per Si atom -5575.456090 kJ/mol
# Density = 1.863986 g / cm^3
# Si number density = 18.682384 Si / 1000 Ang^3
#
#
#
# Elastic Constant Matrix: (Units=GPa)
#
#
# Indices 1 2 3 4 5 6 
#
# 1 118.3351 28.9954 16.2789 0.0000 0.0000 0.0000
# 2 28.9954 57.2273 36.0270 0.0000 0.0000 0.0000
# 3 16.2789 36.0270 80.3969 0.0000 0.0000 0.0000
# 4 0.0000 0.0000 0.0000 -15.7126 0.0000 0.0000
# 5 0.0000 0.0000 0.0000 0.0000 26.8254 0.0000
# 6 0.0000 0.0000 0.0000 0.0000 0.0000 2.4265
#
#
#
# Elastic Compliance Matrix: (Units=1/GPa)
#
#
# Indices 1 2 3 4 5 6 
#
# 1 0.009655 -0.005100 0.000330 0.000000 0.000000 0.000000
# 2 -0.005100 0.027035 -0.011082 0.000000 0.000000 0.000000
# 3 0.000330 -0.011082 0.017337 0.000000 0.000000 0.000000
# 4 0.000000 0.000000 0.000000 -0.063643 0.000000 0.000000
# 5 0.000000 0.000000 0.000000 0.000000 0.037278 0.000000
# 6 0.000000 0.000000 0.000000 0.000000 0.000000 0.412113
#
#
# Mechanical properties :
#
#
# Convention : Reuss Voigt Hill
#
# Bulk Modulus (GPa) = 44.79485 46.50689 45.65087
# Shear Modulus (GPa) = 10.44019 14.35173 12.39596
#
# Velocity S-wave (km/s) = 2.36651 2.77464 2.57866
# Velocity P-wave (km/s) = 5.61216 5.93400 5.77532
#
# Compressibility (1/GPa) = 0.02232399
#
# Stress axis : x y z
#
# Youngs Moduli (GPa) = 103.57639 36.98953 57.67875
#
# Poissons Ratio (x) = 0.18864 -0.01906
# Poissons Ratio (y) = 0.52821 0.63920
# Poissons Ratio (z) = -0.03422 0.40992
#
# Static dielectric constant tensor:
#      x y z
#    x 1.674040 0.000000 0.000000 
#    y 0.000000 1.672520 0.000000 
#    z 0.000000 0.000000 1.656710 
# 
# From -- ./inp_files/64387.got.cif
#   From: 2010.05.17/outbox.cif.g08.bks.cpg/sg74_33_cif.got.tgz:64387.got - 2010.06.03 17:57:02.
