data_PCOD9537728
_publ_section_title
;
Structure prediction by ZEFSAII (Michael W. Deem and Ramdas Pophale) SiO2 
 PCOD9537728
Probable space group: I M M A
;
_chemical_formula_sum "Si O2"
_cell_formula_units_Z 96
_cell_length_a 23.613698
_cell_length_b 14.842736
_cell_length_c 14.045836
_cell_angle_alpha 90.000000
_cell_angle_beta 90.000000
_cell_angle_gamma 90.000000
_cell_volume 4922.951542
_symmetry_space_group_name_H-M "I M M A"
_symmetry_group_IT_number 74
_symmetry_cell_setting 'orthorhombic'
loop_
_space_group_symop_operation_xyz
x,y,z
-x,1/2-y,z
x,-y,-z
-x,1/2+y,-z
-x,-y,-z
x,1/2+y,-z
-x,y,z
x,1/2-y,z
1/2+x,1/2+y,1/2+z
1/2-x,-y,1/2+z
1/2+x,1/2-y,1/2-z
1/2-x,y,1/2-z
1/2-x,1/2-y,1/2-z
1/2+x,y,1/2-z
1/2-x,1/2+y,1/2+z
1/2+x,-y,1/2+z
loop_
_atom_site_type_symbol
_atom_site_label
_atom_site_fract_x
_atom_site_fract_y
_atom_site_fract_z
Si Si1 0.000000 0.646648 0.268923
Si Si2 0.696351 0.355957 0.878777
Si Si3 0.712193 0.151386 0.104343
Si Si4 0.000000 0.392127 0.505509
Si Si5 0.394098 0.532710 0.244220
Si Si6 0.584063 0.848754 0.842623
Si Si7 0.205849 0.009993 0.886521
O O1 0.943245 0.601628 0.230626
O O2 0.000000 0.750000 0.245712
O O3 0.000000 0.635511 0.384662
O O4 0.691883 0.250000 0.851554
O O5 0.646702 0.418021 0.834300
O O6 0.757630 0.401304 0.859022
O O7 0.695467 0.361327 0.993560
O O8 0.738904 0.250000 0.114963
O O9 0.651961 0.150256 0.154716
O O10 0.753551 0.073768 0.137549
O O11 0.000000 0.500000 0.500000
O O12 0.054241 0.357008 0.445947
O O13 0.426874 0.443048 0.209039
O O14 0.352004 0.509404 0.329545
O O15 0.566947 0.750000 0.803941
O O16 0.196943 0.000000 0.000000
#
# Coordination Sequence:
#
# PCOD9537728 Si02
#       7
#     8  16  16   8  16  16  16
#     4  12  26  41  61  89 124 158 197 244 294 355
#     4  10  20  34  57  86 118 154 195 242 297 356
#     4   9  19  35  56  85 121 158 193 238 297 356
#     4  12  22  39  61  88 126 163 194 232 287 355
#     4  12  23  38  59  87 116 160 202 250 293 350
#     4  11  22  35  56  86 122 161 197 235 284 349
#     4  10  22  39  59  83 117 154 199 253 305 354
#
# _framework density 19.500495999999998
#
# number of rings (size 3 to 8) (size 9 to 14) (size 15 to 20)
#    0.000    1.333    3.333    2.750    0.000    4.000 
#    0.000    2.083    0.000    0.000    0.000    0.000 
#    0.000    0.000    0.000    0.000    0.000    0.000 
#
# Total GULP energy -267996.030924 kJ/mol
# GULP energy per Si atom -5583.250644 kJ/mol
# Density = 1.945611 g / cm^3
# Si number density = 19.500496 Si / 1000 Ang^3
#
#
#
# Elastic Constant Matrix: (Units=GPa)
#
#
# Indices 1 2 3 4 5 6 
#
# 1 111.4832 43.6507 23.3630 0.0000 0.0000 0.0000
# 2 43.6507 155.0524 28.2979 0.0000 0.0000 0.0000
# 3 23.3630 28.2979 48.4258 0.0000 0.0000 0.0000
# 4 0.0000 0.0000 0.0000 6.4329 0.0000 0.0000
# 5 0.0000 0.0000 0.0000 0.0000 35.0432 0.0000
# 6 0.0000 0.0000 0.0000 0.0000 0.0000 -0.0182
#
#
#
# Elastic Compliance Matrix: (Units=1/GPa)
#
#
# Indices 1 2 3 4 5 6 
#
# 1 0.010671 -0.002311 -0.003798 0.000000 0.000000 0.000000
# 2 -0.002311 0.007720 -0.003396 0.000000 0.000000 0.000000
# 3 -0.003798 -0.003396 0.024467 0.000000 0.000000 0.000000
# 4 0.000000 0.000000 0.000000 0.155450 0.000000 0.000000
# 5 0.000000 0.000000 0.000000 0.000000 0.028536 0.000000
# 6 0.000000 0.000000 0.000000 0.000000 0.000000-55.033014
#
#
# Mechanical properties :
#
#
# Convention : Reuss Voigt Hill
#
# Bulk Modulus (GPa) = 41.93257 56.17606 49.05432
# Shear Modulus (GPa) = -0.09128 22.93491 11.42182
#
# Velocity S-wave (km/s) = -0.21658 3.43318 2.42279
# Velocity P-wave (km/s) = 4.63546 6.67725 5.74775
#
# Compressibility (1/GPa) = 0.02384781
#
# Stress axis : x y z
#
# Youngs Moduli (GPa) = 93.71498 129.53629 40.87149
#
# Poissons Ratio (x) = 0.29935 0.15522
# Poissons Ratio (y) = 0.21657 0.13881
# Poissons Ratio (z) = 0.35590 0.43994
#
# Static dielectric constant tensor:
#      x y z
#    x 1.670250 0.000000 0.000000 
#    y 0.000000 1.741900 0.000000 
#    z 0.000000 0.000000 1.693180 
# 
# From -- ./inp_files/35321.got.cif
#   From: 2010.05.17/outbox.cif.g08.bks.cpg/sg74_18_cif.got.tgz:35321.got - 2010.06.03 17:57:02.
