data_PCOD9537612
_publ_section_title
;
Structure prediction by ZEFSAII (Michael W. Deem and Ramdas Pophale) SiO2 
 PCOD9537612
Probable space group: I M M A
;
_chemical_formula_sum "Si O2"
_cell_formula_units_Z 88
_cell_length_a 19.026020
_cell_length_b 18.895131
_cell_length_c 12.263759
_cell_angle_alpha 90.000000
_cell_angle_beta 90.000000
_cell_angle_gamma 90.000000
_cell_volume 4408.810817
_symmetry_space_group_name_H-M "I M M A"
_symmetry_group_IT_number 74
_symmetry_cell_setting 'orthorhombic'
loop_
_space_group_symop_operation_xyz
x,y,z
-x,1/2-y,z
x,-y,-z
-x,1/2+y,-z
-x,-y,-z
x,1/2+y,-z
-x,y,z
x,1/2-y,z
1/2+x,1/2+y,1/2+z
1/2-x,-y,1/2+z
1/2+x,1/2-y,1/2-z
1/2-x,y,1/2-z
1/2-x,1/2-y,1/2-z
1/2+x,y,1/2-z
1/2-x,1/2+y,1/2+z
1/2+x,-y,1/2+z
loop_
_atom_site_type_symbol
_atom_site_label
_atom_site_fract_x
_atom_site_fract_y
_atom_site_fract_z
Si Si1 0.197465 0.168778 0.348092
Si Si2 0.891501 0.986450 0.826379
Si Si3 0.272955 0.828065 0.421426
Si Si4 0.250000 0.444255 0.750000
Si Si5 0.078883 0.615921 0.016924
Si Si6 0.078571 0.054956 0.406207
O O1 0.173984 0.250000 0.325988
O O2 0.250000 0.148162 0.250000
O O3 0.242841 0.168299 0.457655
O O4 0.132888 0.117094 0.375808
O O5 0.811736 0.007149 0.796605
O O6 0.920871 0.048139 0.903019
O O7 0.926690 0.984669 0.709150
O O8 0.901251 0.915146 0.897114
O O9 0.258041 0.750000 0.377032
O O10 0.237242 0.889395 0.349346
O O11 0.356863 0.838759 0.435388
O O12 0.000000 0.646382 0.013861
O O13 0.000000 0.079908 0.438000
O O14 0.103062 0.000000 0.500000
#
# Coordination Sequence:
#
# PCOD9537612 Si02
#       6
#    16  16  16   8  16  16
#     4  10  22  40  59  81 115 154 194 241 289 344
#     4  10  20  34  54  81 113 143 183 232 285 335
#     4  10  21  37  56  81 113 147 189 235 279 338
#     4  10  21  34  56  84 107 150 184 230 282 344
#     4  10  20  35  57  82 112 148 184 233 292 339
#     4  11  23  37  57  85 118 151 190 241 291 346
#
# _framework density 19.960031000000001
#
# number of rings (size 3 to 8) (size 9 to 14) (size 15 to 20)
#    0.000    1.818    0.000    4.636    3.818    0.727 
#    0.000    0.000    0.000    5.455    0.000    5.091 
#    0.000    0.000    0.000    0.000    0.000    0.000 
#
# Total GULP energy -245331.400933 kJ/mol
# GULP energy per Si atom -5575.713658 kJ/mol
# Density = 1.991460 g / cm^3
# Si number density = 19.960031 Si / 1000 Ang^3
#
#
#
# Elastic Constant Matrix: (Units=GPa)
#
#
# Indices 1 2 3 4 5 6 
#
# 1 104.8514 38.9025 17.2122 0.0000 0.0000 0.0000
# 2 38.9025 80.1539 29.3175 0.0000 0.0000 0.0000
# 3 17.2122 29.3175 121.0805 0.0000 0.0000 0.0000
# 4 0.0000 0.0000 0.0000 23.3082 0.0000 0.0000
# 5 0.0000 0.0000 0.0000 0.0000 51.4980 0.0000
# 6 0.0000 0.0000 0.0000 0.0000 0.0000 9.4188
#
#
#
# Elastic Compliance Matrix: (Units=1/GPa)
#
#
# Indices 1 2 3 4 5 6 
#
# 1 0.011643 -0.005536 -0.000315 0.000000 0.000000 0.000000
# 2 -0.005536 0.016320 -0.003165 0.000000 0.000000 0.000000
# 3 -0.000315 -0.003165 0.009070 0.000000 0.000000 0.000000
# 4 0.000000 0.000000 0.000000 0.042903 0.000000 0.000000
# 5 0.000000 0.000000 0.000000 0.000000 0.019418 0.000000
# 6 0.000000 0.000000 0.000000 0.000000 0.000000 0.106171
#
#
# Mechanical properties :
#
#
# Convention : Reuss Voigt Hill
#
# Bulk Modulus (GPa) = 52.62382 52.99446 52.80914
# Shear Modulus (GPa) = 21.74950 31.55523 26.65236
#
# Velocity S-wave (km/s) = 3.30457 3.98039 3.65812
# Velocity P-wave (km/s) = 6.40172 6.90888 6.66013
#
# Compressibility (1/GPa) = 0.01900280
#
# Stress axis : x y z
#
# Youngs Moduli (GPa) = 85.88949 61.27335 110.25365
#
# Poissons Ratio (x) = 0.33919 0.03470
# Poissons Ratio (y) = 0.47546 0.34892
# Poissons Ratio (z) = 0.02703 0.19391
#
# Static dielectric constant tensor:
#      x y z
#    x 1.773300 0.000000 0.000000 
#    y 0.000000 1.732000 0.000000 
#    z 0.000000 0.000000 1.691760 
# 
# From -- ./inp_files/22218.got.cif
#   From: 2010.05.17/outbox.cif.g08.bks.cpg/sg74_12_cif.got.tgz:22218.got - 2010.06.03 17:57:02.
