data_PCOD9537123
_publ_section_title
;
Structure prediction by ZEFSAII (Michael W. Deem and Ramdas Pophale) SiO2 
 PCOD9537123
Probable space group: I M M A
;
_chemical_formula_sum "Si O2"
_cell_formula_units_Z 56
_cell_length_a 7.569889
_cell_length_b 11.742299
_cell_length_c 28.493664
_cell_angle_alpha 90.000000
_cell_angle_beta 90.000000
_cell_angle_gamma 90.000000
_cell_volume 2532.741957
_symmetry_space_group_name_H-M "I M M A"
_symmetry_group_IT_number 74
_symmetry_cell_setting 'orthorhombic'
loop_
_space_group_symop_operation_xyz
x,y,z
-x,1/2-y,z
x,-y,-z
-x,1/2+y,-z
-x,-y,-z
x,1/2+y,-z
-x,y,z
x,1/2-y,z
1/2+x,1/2+y,1/2+z
1/2-x,-y,1/2+z
1/2+x,1/2-y,1/2-z
1/2-x,y,1/2-z
1/2-x,1/2-y,1/2-z
1/2+x,y,1/2-z
1/2-x,1/2+y,1/2+z
1/2+x,-y,1/2+z
loop_
_atom_site_type_symbol
_atom_site_label
_atom_site_fract_x
_atom_site_fract_y
_atom_site_fract_z
Si Si1 0.212143 0.877510 0.301059
Si Si2 0.294698 0.619189 0.521776
Si Si3 0.789564 0.750000 0.695878
Si Si4 0.214638 0.554835 0.627127
O O1 0.284563 0.750000 0.298837
O O2 0.250000 0.933424 0.250000
O O3 0.000000 0.874296 0.303682
O O4 0.270895 0.936638 0.349200
O O5 0.218203 0.500000 0.500000
O O6 0.500000 0.623181 0.506784
O O7 0.223823 0.750000 0.512914
O O8 0.284941 0.595244 0.577378
O O9 0.750000 0.750000 0.750000
O O10 0.726391 0.858280 0.667343
O O11 0.000000 0.750000 0.691458
O O12 0.000000 0.555996 0.622952
#
# Coordination Sequence:
#
# PCOD9537123 Si02
#       4
#    16  16   8  16
#     4   9  18  32  50  75 109 146 183 223 268 323
#     4  10  22  40  60  82 109 142 183 233 286 340
#     4  10  20  32  50  78 110 142 178 218 263 320
#     4  10  20  35  54  78 109 142 180 225 273 328
#
# _framework density 22.110426
#
# number of rings (size 3 to 8) (size 9 to 14) (size 15 to 20)
#    0.000    2.286    1.429    0.857    0.000    4.000 
#    0.000    0.000    0.000    0.000    0.000    0.000 
#    0.000    0.000    0.000    0.000    0.000    0.000 
#
# Total GULP energy -155961.911336 kJ/mol
# GULP energy per Si atom -5570.068262 kJ/mol
# Density = 2.206010 g / cm^3
# Si number density = 22.110426 Si / 1000 Ang^3
#
#
#
# Elastic Constant Matrix: (Units=GPa)
#
#
# Indices 1 2 3 4 5 6 
#
# 1 49.4681 4.8339 -11.4086 0.0000 0.0000 0.0000
# 2 4.8339 145.4047 60.1796 0.0000 0.0000 0.0000
# 3 -11.4086 60.1796 103.1332 0.0000 0.0000 0.0000
# 4 0.0000 0.0000 0.0000 22.6886 0.0000 0.0000
# 5 0.0000 0.0000 0.0000 0.0000 25.3641 0.0000
# 6 0.0000 0.0000 0.0000 0.0000 0.0000 -32.2950
#
#
#
# Elastic Compliance Matrix: (Units=1/GPa)
#
#
# Indices 1 2 3 4 5 6 
#
# 1 0.021273 -0.002216 0.003646 0.000000 0.000000 0.000000
# 2 -0.002216 0.009298 -0.005671 0.000000 0.000000 0.000000
# 3 0.003646 -0.005671 0.013408 0.000000 0.000000 0.000000
# 4 0.000000 0.000000 0.000000 0.044075 0.000000 0.000000
# 5 0.000000 0.000000 0.000000 0.000000 0.039426 0.000000
# 6 0.000000 0.000000 0.000000 0.000000 0.000000 -0.030965
#
#
# Mechanical properties :
#
#
# Convention : Reuss Voigt Hill
#
# Bulk Modulus (GPa) = 28.17069 45.02399 36.59734
# Shear Modulus (GPa) = 42.79757 19.44496 31.12127
#
# Velocity S-wave (km/s) = 4.40435 2.96877 3.75579
# Velocity P-wave (km/s) = 6.21554 5.67088 5.94945
#
# Compressibility (1/GPa) = 0.03549788
#
# Stress axis : x y z
#
# Youngs Moduli (GPa) = 47.00882 107.54999 74.57958
#
# Poissons Ratio (x) = 0.23837 -0.27195
# Poissons Ratio (y) = 0.10419 0.42292
# Poissons Ratio (z) = -0.17142 0.60988
#
# Static dielectric constant tensor:
#      x y z
#    x 1.839050 0.000000 0.000000 
#    y 0.000000 2.222550 0.000000 
#    z 0.000000 0.000000 1.765590 
# 
# From -- ./inp_files/49928.got.cif
#   From: 2010.05.17/outbox.cif.g08.bks.cpg/sg74_25_cif.got.tgz:49928.got - 2010.06.03 17:57:02.
