data_PCOD9537418
_publ_section_title
;
Structure prediction by ZEFSAII (Michael W. Deem and Ramdas Pophale) SiO2 
 PCOD9537418
Probable space group: I M M A
;
_chemical_formula_sum "Si O2"
_cell_formula_units_Z 96
_cell_length_a 7.525753
_cell_length_b 22.928809
_cell_length_c 24.532771
_cell_angle_alpha 90.000000
_cell_angle_beta 90.000000
_cell_angle_gamma 90.000000
_cell_volume 4233.290402
_symmetry_space_group_name_H-M "I M M A"
_symmetry_group_IT_number 74
_symmetry_cell_setting 'orthorhombic'
loop_
_space_group_symop_operation_xyz
x,y,z
-x,1/2-y,z
x,-y,-z
-x,1/2+y,-z
-x,-y,-z
x,1/2+y,-z
-x,y,z
x,1/2-y,z
1/2+x,1/2+y,1/2+z
1/2-x,-y,1/2+z
1/2+x,1/2-y,1/2-z
1/2-x,y,1/2-z
1/2-x,1/2-y,1/2-z
1/2+x,y,1/2-z
1/2-x,1/2+y,1/2+z
1/2+x,-y,1/2+z
loop_
_atom_site_type_symbol
_atom_site_label
_atom_site_fract_x
_atom_site_fract_y
_atom_site_fract_z
Si Si1 0.208034 0.687081 0.153361
Si Si2 0.203195 0.010615 0.579049
Si Si3 0.215356 0.635726 0.461377
Si Si4 0.788795 0.062961 0.810258
Si Si5 0.287044 0.816900 0.810786
Si Si6 0.282216 0.619797 0.920478
O O1 0.287059 0.750000 0.167239
O O2 0.221976 0.675471 0.088447
O O3 0.282184 0.629102 0.181696
O O4 0.000000 0.688944 0.167518
O O5 0.278572 0.069374 0.551930
O O6 0.205711 0.023784 0.643187
O O7 0.000000 0.007129 0.559991
O O8 0.281811 0.946745 0.572096
O O9 0.265499 0.651986 0.523007
O O10 0.000000 0.635324 0.458233
O O11 0.750000 0.042294 0.750000
O O12 0.000000 0.063541 0.819804
O O13 0.500000 0.814639 0.815715
O O14 0.219690 0.750000 0.812360
O O15 0.250000 0.840814 0.750000
O O16 0.221552 0.852254 0.863600
O O17 0.500000 0.618285 0.918462
#
# Coordination Sequence:
#
# PCOD9537418 Si02
#       6
#    16  16  16  16  16  16
#     4   9  19  35  51  69  98 133 164 199 246 293
#     4   9  17  31  50  72 100 130 158 193 239 288
#     4   9  17  30  50  75 100 126 158 197 239 284
#     4  10  20  34  51  71  97 129 165 205 247 290
#     4   9  18  33  50  67  91 122 155 194 237 277
#     4   9  17  30  51  76  98 125 161 196 233 283
#
# _framework density 22.677396999999999
#
# number of rings (size 3 to 8) (size 9 to 14) (size 15 to 20)
#    0.000    2.833    0.000    1.000    0.000    4.667 
#    0.000    5.833    0.000    6.000    0.000    0.000 
#    0.000    0.000    0.000    0.000    0.000    0.000 
#
# Total GULP energy -267845.586846 kJ/mol
# GULP energy per Si atom -5580.116393 kJ/mol
# Density = 2.262578 g / cm^3
# Si number density = 22.677397 Si / 1000 Ang^3
#
#
#
# Elastic Constant Matrix: (Units=GPa)
#
#
# Indices 1 2 3 4 5 6 
#
# 1 65.6859 -1.1546 -7.3139 0.0000 0.0000 0.0000
# 2 -1.1546 14.3091 -15.6303 0.0000 0.0000 0.0000
# 3 -7.3139 -15.6303 126.4086 0.0000 0.0000 0.0000
# 4 0.0000 0.0000 0.0000 -8.3491 0.0000 0.0000
# 5 0.0000 0.0000 0.0000 0.0000 14.1208 0.0000
# 6 0.0000 0.0000 0.0000 0.0000 0.0000 4.9660
#
#
#
# Elastic Compliance Matrix: (Units=1/GPa)
#
#
# Indices 1 2 3 4 5 6 
#
# 1 0.015404 0.002563 0.001208 0.000000 0.000000 0.000000
# 2 0.002563 0.081225 0.010192 0.000000 0.000000 0.000000
# 3 0.001208 0.010192 0.009241 0.000000 0.000000 0.000000
# 4 0.000000 0.000000 0.000000 -0.119773 0.000000 0.000000
# 5 0.000000 0.000000 0.000000 0.000000 0.070818 0.000000
# 6 0.000000 0.000000 0.000000 0.000000 0.000000 0.201367
#
#
# Mechanical properties :
#
#
# Convention : Reuss Voigt Hill
#
# Bulk Modulus (GPa) = 7.47416 17.57842 12.52629
# Shear Modulus (GPa) = 18.18483 17.51438 17.84961
#
# Velocity S-wave (km/s) = 2.83484 2.78209 2.80859
# Velocity P-wave (km/s) = 3.74408 4.25305 4.00665
#
# Compressibility (1/GPa) = 0.13379424
#
# Stress axis : x y z
#
# Youngs Moduli (GPa) = 64.92020 12.31149 108.21395
#
# Poissons Ratio (x) = -0.03155 -0.13073
# Poissons Ratio (y) = -0.16637 -1.10288
# Poissons Ratio (z) = -0.07843 -0.12547
#
# Static dielectric constant tensor:
#      x y z
#    x 1.793600 0.000000 0.000000 
#    y 0.000000 1.845980 0.000000 
#    z 0.000000 0.000000 1.827940 
# 
# From -- ./inp_files/49050.got.cif
#   From: 2010.05.17/outbox.cif.g08.bks.cpg/sg74_25_cif.got.tgz:49050.got - 2010.06.03 17:57:02.
