data_PCOD9537963
_publ_section_title
;
Structure prediction by ZEFSAII (Michael W. Deem and Ramdas Pophale) SiO2 
 PCOD9537963
Probable space group: I M M A
;
_chemical_formula_sum "Si O2"
_cell_formula_units_Z 96
_cell_length_a 25.369047
_cell_length_b 8.188380
_cell_length_c 20.804783
_cell_angle_alpha 90.000000
_cell_angle_beta 90.000000
_cell_angle_gamma 90.000000
_cell_volume 4321.806638
_symmetry_space_group_name_H-M "I M M A"
_symmetry_group_IT_number 74
_symmetry_cell_setting 'orthorhombic'
loop_
_space_group_symop_operation_xyz
x,y,z
-x,1/2-y,z
x,-y,-z
-x,1/2+y,-z
-x,-y,-z
x,1/2+y,-z
-x,y,z
x,1/2-y,z
1/2+x,1/2+y,1/2+z
1/2-x,-y,1/2+z
1/2+x,1/2-y,1/2-z
1/2-x,y,1/2-z
1/2-x,1/2-y,1/2-z
1/2+x,y,1/2-z
1/2-x,1/2+y,1/2+z
1/2+x,-y,1/2+z
loop_
_atom_site_type_symbol
_atom_site_label
_atom_site_fract_x
_atom_site_fract_y
_atom_site_fract_z
Si Si1 0.940118 0.050455 0.379671
Si Si2 0.940300 0.938507 0.099766
Si Si3 0.667620 0.553559 0.931055
Si Si4 0.829423 0.439164 0.068603
Si Si5 0.251502 0.550199 0.675858
Si Si6 0.563070 0.566927 0.737242
O O1 0.942079 0.250000 0.380164
O O2 0.892839 0.994297 0.424561
O O3 0.921733 0.006056 0.307309
O O4 0.000000 0.993154 0.392645
O O5 0.938315 0.750000 0.080184
O O6 0.000000 0.000983 0.087667
O O7 0.892057 0.033897 0.069803
O O8 0.929570 0.954632 0.176069
O O9 0.667136 0.750000 0.929691
O O10 0.702260 0.502200 0.869573
O O11 0.688884 0.500000 0.000000
O O12 0.817713 0.250000 0.070097
O O13 0.801611 0.507128 0.132945
O O14 0.809533 0.500000 0.000000
O O15 0.251900 0.750000 0.679367
O O16 0.250000 0.493174 0.750000
O O17 0.500000 0.584752 0.742948
O O18 0.585553 0.750000 0.725322
#
# Coordination Sequence:
#
# PCOD9537963 Si02
#       6
#    16  16  16  16  16  16
#     4   8  15  28  50  81 113 148 191 234 276 329
#     4  10  21  36  55  83 120 156 190 232 286 348
#     4  10  20  35  57  82 115 153 188 233 282 336
#     4  11  23  39  62  87 117 154 193 240 289 344
#     4   9  20  38  62  89 111 142 193 245 288 335
#     4   8  14  27  49  77 107 143 190 237 278 324
#
# _framework density 22.212934000000001
#
# number of rings (size 3 to 8) (size 9 to 14) (size 15 to 20)
#    0.000    2.667    0.000    2.500    2.333    1.667 
#    0.000    1.667    0.000    3.500    0.000    0.000 
#    0.000    0.000    0.000    0.000    0.000    0.000 
#
# Total GULP energy -267623.517992 kJ/mol
# GULP energy per Si atom -5575.489958 kJ/mol
# Density = 2.216238 g / cm^3
# Si number density = 22.212934 Si / 1000 Ang^3
#
#
#
# Elastic Constant Matrix: (Units=GPa)
#
#
# Indices 1 2 3 4 5 6 
#
# 1 123.1404 7.1286 67.2743 0.0000 0.0000 0.0000
# 2 7.1286 10.5087 11.0420 0.0000 0.0000 0.0000
# 3 67.2743 11.0420 173.5856 0.0000 0.0000 0.0000
# 4 0.0000 0.0000 0.0000 21.5119 0.0000 0.0000
# 5 0.0000 0.0000 0.0000 0.0000 150.2908 0.0000
# 6 0.0000 0.0000 0.0000 0.0000 0.0000 -129.4383
#
#
#
# Elastic Compliance Matrix: (Units=1/GPa)
#
#
# Indices 1 2 3 4 5 6 
#
# 1 0.010391 -0.003019 -0.003835 0.000000 0.000000 0.000000
# 2 -0.003019 0.102853 -0.005373 0.000000 0.000000 0.000000
# 3 -0.003835 -0.005373 0.007589 0.000000 0.000000 0.000000
# 4 0.000000 0.000000 0.000000 0.046486 0.000000 0.000000
# 5 0.000000 0.000000 0.000000 0.000000 0.006654 0.000000
# 6 0.000000 0.000000 0.000000 0.000000 0.000000 -0.007726
#
#
# Mechanical properties :
#
#
# Convention : Reuss Voigt Hill
#
# Bulk Modulus (GPa) = 10.37566 53.12494 31.75030
# Shear Modulus (GPa) = 22.43904 23.25886 22.84895
#
# Velocity S-wave (km/s) = 3.18178 3.23938 3.21071
# Velocity P-wave (km/s) = 4.26373 6.16114 5.29807
#
# Compressibility (1/GPa) = 0.09637941
#
# Stress axis : x y z
#
# Youngs Moduli (GPa) = 96.24001 9.72263 131.77210
#
# Poissons Ratio (x) = 0.02935 0.50534
# Poissons Ratio (y) = 0.29055 0.70796
# Poissons Ratio (z) = 0.36907 0.05224
#
# Static dielectric constant tensor:
#      x y z
#    x 1.849200 0.000000 0.000000 
#    y 0.000000 1.797490 0.000000 
#    z 0.000000 0.000000 1.856340 
# 
# From -- ./inp_files/55052.got.cif
#   From: 2010.05.17/outbox.cif.g08.bks.cpg/sg74_28_cif.got.tgz:55052.got - 2010.06.03 17:57:02.
