data_PCOD9537512
_publ_section_title
;
Structure prediction by ZEFSAII (Michael W. Deem and Ramdas Pophale) SiO2 
 PCOD9537512
Probable space group: I M M A
;
_chemical_formula_sum "Si O2"
_cell_formula_units_Z 104
_cell_length_a 20.829244
_cell_length_b 9.543278
_cell_length_c 30.471060
_cell_angle_alpha 90.000000
_cell_angle_beta 90.000000
_cell_angle_gamma 90.000000
_cell_volume 6057.014942
_symmetry_space_group_name_H-M "I M M A"
_symmetry_group_IT_number 74
_symmetry_cell_setting 'orthorhombic'
loop_
_space_group_symop_operation_xyz
x,y,z
-x,1/2-y,z
x,-y,-z
-x,1/2+y,-z
-x,-y,-z
x,1/2+y,-z
-x,y,z
x,1/2-y,z
1/2+x,1/2+y,1/2+z
1/2-x,-y,1/2+z
1/2+x,1/2-y,1/2-z
1/2-x,y,1/2-z
1/2-x,1/2-y,1/2-z
1/2+x,y,1/2-z
1/2-x,1/2+y,1/2+z
1/2+x,-y,1/2+z
loop_
_atom_site_type_symbol
_atom_site_label
_atom_site_fract_x
_atom_site_fract_y
_atom_site_fract_z
Si Si1 0.778634 0.084703 0.131741
Si Si2 0.077355 0.410218 0.459132
Si Si3 0.642741 0.418116 0.453773
Si Si4 0.000000 0.584333 0.954950
Si Si5 0.310006 0.917720 0.281781
Si Si6 0.073784 0.417022 0.717964
Si Si7 0.874716 0.084252 0.365115
O O1 0.793539 0.250000 0.137383
O O2 0.807283 0.042716 0.084393
O O3 0.701901 0.068664 0.133689
O O4 0.806006 0.996942 0.172252
O O5 0.101074 0.500000 0.500000
O O6 0.100244 0.250000 0.462960
O O7 0.098492 0.465113 0.411922
O O8 0.000000 0.409068 0.460308
O O9 0.650576 0.500000 0.500000
O O10 0.648207 0.250000 0.461819
O O11 0.570230 0.446127 0.435163
O O12 0.000000 0.750000 0.963895
O O13 0.000000 0.500000 0.000000
O O14 0.306274 0.750000 0.288683
O O15 0.250000 0.956539 0.250000
O O16 0.375515 0.950905 0.256073
O O17 0.078916 0.250000 0.709772
O O18 0.094642 0.499712 0.674632
O O19 0.000000 0.448593 0.729350
O O20 0.890032 0.250000 0.360603
#
# Coordination Sequence:
#
# PCOD9537512 Si02
#       7
#    16  16  16   8  16  16  16
#     4  10  21  35  53  79 108 138 174 214 258 309
#     4   9  18  32  48  68  97 132 168 208 253 300
#     4   9  18  33  52  76 105 137 175 217 260 308
#     4   8  14  28  50  70  96 134 172 212 256 302
#     4  10  20  37  58  78 104 139 176 213 259 314
#     4  10  21  37  57  80 105 133 171 219 263 307
#     4  10  20  34  53  76 104 137 174 214 258 309
#
# _framework density 17.170172999999998
#
# number of rings (size 3 to 8) (size 9 to 14) (size 15 to 20)
#    0.000    2.462    1.538    0.462    0.000    3.692 
#    1.385    1.538    0.000    0.000    0.000    0.000 
#    0.000    0.000    0.000    0.000    0.000    0.000 
#
# Total GULP energy -289800.284341 kJ/mol
# GULP energy per Si atom -5573.082391 kJ/mol
# Density = 1.713109 g / cm^3
# Si number density = 17.170173 Si / 1000 Ang^3
#
#
#
# Elastic Constant Matrix: (Units=GPa)
#
#
# Indices 1 2 3 4 5 6 
#
# 1 78.4075 30.2533 43.5194 0.0000 0.0000 0.0000
# 2 30.2533 29.9456 50.7271 0.0000 0.0000 0.0000
# 3 43.5194 50.7271 124.3989 0.0000 0.0000 0.0000
# 4 0.0000 0.0000 0.0000 35.8268 0.0000 0.0000
# 5 0.0000 0.0000 0.0000 0.0000 32.0091 0.0000
# 6 0.0000 0.0000 0.0000 0.0000 0.0000 15.5531
#
#
#
# Elastic Compliance Matrix: (Units=1/GPa)
#
#
# Indices 1 2 3 4 5 6 
#
# 1 0.021603 -0.029177 0.004340 0.000000 0.000000 0.000000
# 2 -0.029177 0.147397 -0.049898 0.000000 0.000000 0.000000
# 3 0.004340 -0.049898 0.026867 0.000000 0.000000 0.000000
# 4 0.000000 0.000000 0.000000 0.027912 0.000000 0.000000
# 5 0.000000 0.000000 0.000000 0.000000 0.031241 0.000000
# 6 0.000000 0.000000 0.000000 0.000000 0.000000 0.064296
#
#
# Mechanical properties :
#
#
# Convention : Reuss Voigt Hill
#
# Bulk Modulus (GPa) = 21.55285 53.52796 37.54040
# Shear Modulus (GPa) = 10.32523 23.89464 17.10993
#
# Velocity S-wave (km/s) = 2.45490 3.73451 3.16015
# Velocity P-wave (km/s) = 4.54039 7.05961 5.93520
#
# Compressibility (1/GPa) = 0.04639757
#
# Stress axis : x y z
#
# Youngs Moduli (GPa) = 46.29050 6.78442 37.21977
#
# Poissons Ratio (x) = 0.19795 -0.16155
# Poissons Ratio (y) = 1.35063 1.85718
# Poissons Ratio (z) = -0.20092 0.33853
#
# Static dielectric constant tensor:
#      x y z
#    x 1.606620 0.000000 0.000000 
#    y 0.000000 1.578310 0.000000 
#    z 0.000000 0.000000 1.546800 
# 
# From -- ./inp_files/73349.got.cif
#   From: 2010.05.17/outbox.cif.g08.bks.cpg/sg74_37_cif.got.tgz:73349.got - 2010.06.03 17:57:02.
