data_PCOD9537323
_publ_section_title
;
Structure prediction by ZEFSAII (Michael W. Deem and Ramdas Pophale) SiO2 
 PCOD9537323
Probable space group: I M M A
;
_chemical_formula_sum "Si O2"
_cell_formula_units_Z 104
_cell_length_a 9.403950
_cell_length_b 19.265486
_cell_length_c 30.685330
_cell_angle_alpha 90.000000
_cell_angle_beta 90.000000
_cell_angle_gamma 90.000000
_cell_volume 5559.312391
_symmetry_space_group_name_H-M "I M M A"
_symmetry_group_IT_number 74
_symmetry_cell_setting 'orthorhombic'
loop_
_space_group_symop_operation_xyz
x,y,z
-x,1/2-y,z
x,-y,-z
-x,1/2+y,-z
-x,-y,-z
x,1/2+y,-z
-x,y,z
x,1/2-y,z
1/2+x,1/2+y,1/2+z
1/2-x,-y,1/2+z
1/2+x,1/2-y,1/2-z
1/2-x,y,1/2-z
1/2-x,1/2-y,1/2-z
1/2+x,y,1/2-z
1/2-x,1/2+y,1/2+z
1/2+x,-y,1/2+z
loop_
_atom_site_type_symbol
_atom_site_label
_atom_site_fract_x
_atom_site_fract_y
_atom_site_fract_z
Si Si1 0.837876 0.468934 0.791949
Si Si2 0.832396 0.166426 0.940492
Si Si3 0.662018 0.135782 0.291916
Si Si4 0.830516 0.883224 0.357008
Si Si5 0.163370 0.165440 0.039501
Si Si6 0.660075 0.833260 0.878050
Si Si7 0.331674 0.250000 0.795653
O O1 0.750000 0.443154 0.750000
O O2 0.843812 0.552085 0.789168
O O3 0.752243 0.446141 0.834438
O O4 0.000000 0.442292 0.791839
O O5 0.816077 0.250000 0.937757
O O6 0.734032 0.132528 0.904202
O O7 0.000000 0.151424 0.932872
O O8 0.797789 0.145037 0.990185
O O9 0.500000 0.161777 0.291933
O O10 0.750000 0.161089 0.250000
O O11 0.743489 0.153065 0.336163
O O12 0.800489 0.817138 0.325517
O O13 0.000000 0.893693 0.358460
O O14 0.164720 0.250000 0.039844
O O15 0.265676 0.140296 0.077790
O O16 0.000000 0.144528 0.048035
O O17 0.500000 0.860625 0.872235
O O18 0.651035 0.750000 0.882465
O O19 0.500000 0.250000 0.786520
O O20 0.250000 0.250000 0.750000
#
# Coordination Sequence:
#
# PCOD9537323 Si02
#       7
#    16  16  16  16  16  16   8
#     4  10  21  37  55  75  97 129 174 215 255 304
#     4   9  17  30  49  73 101 135 173 213 258 305
#     4  10  21  37  57  78 103 135 171 211 251 298
#     4  11  21  33  49  72 102 135 172 214 260 308
#     4   8  15  29  49  73 102 136 172 207 248 301
#     4  10  20  33  52  81 112 139 168 202 247 301
#     4  10  22  34  44  66  98 132 168 208 257 308
#
# _framework density 18.707349000000001
#
# number of rings (size 3 to 8) (size 9 to 14) (size 15 to 20)
#    0.000    2.308    0.769    3.231    0.000    6.154 
#    0.000    1.538    0.000    0.923    0.000    6.462 
#    0.000    0.000    0.000    0.000    0.000    0.000 
#
# Total GULP energy -290184.522391 kJ/mol
# GULP energy per Si atom -5580.471584 kJ/mol
# Density = 1.866477 g / cm^3
# Si number density = 18.707349 Si / 1000 Ang^3
#
#
#
# Elastic Constant Matrix: (Units=GPa)
#
#
# Indices 1 2 3 4 5 6 
#
# 1 154.3506 16.1824 108.7116 0.0000 0.0000 0.0000
# 2 16.1824 11.8814 6.6855 0.0000 0.0000 0.0000
# 3 108.7116 6.6855 160.4231 0.0000 0.0000 0.0000
# 4 0.0000 0.0000 0.0000 -8.2096 0.0000 0.0000
# 5 0.0000 0.0000 0.0000 0.0000 40.8212 0.0000
# 6 0.0000 0.0000 0.0000 0.0000 0.0000 16.8512
#
#
#
# Elastic Compliance Matrix: (Units=1/GPa)
#
#
# Indices 1 2 3 4 5 6 
#
# 1 0.014497 -0.014558 -0.009217 0.000000 0.000000 0.000000
# 2 -0.014558 0.100806 0.005664 0.000000 0.000000 0.000000
# 3 -0.009217 0.005664 0.012244 0.000000 0.000000 0.000000
# 4 0.000000 0.000000 0.000000 -0.121809 0.000000 0.000000
# 5 0.000000 0.000000 0.000000 0.000000 0.024497 0.000000
# 6 0.000000 0.000000 0.000000 0.000000 0.000000 0.059343
#
#
# Mechanical properties :
#
#
# Convention : Reuss Voigt Hill
#
# Bulk Modulus (GPa) = 10.94999 65.53490 38.24245
# Shear Modulus (GPa) = 32.00200 22.89762 27.44981
#
# Velocity S-wave (km/s) = 4.14051 3.50235 3.83473
# Velocity P-wave (km/s) = 5.35951 7.17377 6.33196
#
# Compressibility (1/GPa) = 0.09132427
#
# Stress axis : x y z
#
# Youngs Moduli (GPa) = 68.98032 9.92007 81.67572
#
# Poissons Ratio (x) = 0.14442 0.75282
# Poissons Ratio (y) = 1.00423 -0.46265
# Poissons Ratio (z) = 0.63581 -0.05619
#
# Static dielectric constant tensor:
#      x y z
#    x 1.646550 0.000000 0.000000 
#    y 0.000000 1.667640 0.000000 
#    z 0.000000 0.000000 1.630780 
# 
# From -- ./inp_files/64752.got.cif
#   From: 2010.05.17/outbox.cif.g08.bks.cpg/sg74_33_cif.got.tgz:64752.got - 2010.06.03 17:57:02.
