data_PCOD9537315
_publ_section_title
;
Structure prediction by ZEFSAII (Michael W. Deem and Ramdas Pophale) SiO2 
 PCOD9537315
Probable space group: I M M A
;
_chemical_formula_sum "Si O2"
_cell_formula_units_Z 64
_cell_length_a 23.558540
_cell_length_b 15.110484
_cell_length_c 7.799011
_cell_angle_alpha 90.000000
_cell_angle_beta 90.000000
_cell_angle_gamma 90.000000
_cell_volume 2776.299280
_symmetry_space_group_name_H-M "I M M A"
_symmetry_group_IT_number 74
_symmetry_cell_setting 'orthorhombic'
loop_
_space_group_symop_operation_xyz
x,y,z
-x,1/2-y,z
x,-y,-z
-x,1/2+y,-z
-x,-y,-z
x,1/2+y,-z
-x,y,z
x,1/2-y,z
1/2+x,1/2+y,1/2+z
1/2-x,-y,1/2+z
1/2+x,1/2-y,1/2-z
1/2-x,y,1/2-z
1/2-x,1/2-y,1/2-z
1/2+x,y,1/2-z
1/2-x,1/2+y,1/2+z
1/2+x,-y,1/2+z
loop_
_atom_site_type_symbol
_atom_site_label
_atom_site_fract_x
_atom_site_fract_y
_atom_site_fract_z
Si Si1 0.064723 0.604863 0.305981
Si Si2 0.110784 0.905264 0.645337
Si Si3 0.148066 0.893340 0.014184
Si Si4 0.771522 0.650637 0.553194
O O1 0.081210 0.499904 0.319339
O O2 0.073510 0.640230 0.498485
O O3 0.108516 0.640233 0.166051
O O4 0.000000 0.614716 0.250852
O O5 0.172895 0.909304 0.554418
O O6 0.124413 0.861660 0.829125
O O7 0.214183 0.872816 0.046892
O O8 0.145320 0.000000 0.000000
O O9 0.789295 0.750000 0.508469
O O10 0.750000 0.649094 0.750000
#
# Coordination Sequence:
#
# PCOD9537315 Si02
#       4
#    16  16  16  16
#     4  10  20  33  52  80 107 140 183 223 264 320
#     4   9  18  32  51  77 104 139 171 222 270 318
#     4   9  19  32  52  80 106 139 175 223 269 322
#     4   9  18  34  55  80 112 142 177 222 279 338
#
# _framework density 23.052271000000001
#
# number of rings (size 3 to 8) (size 9 to 14) (size 15 to 20)
#    0.000    2.750    0.000    1.500    3.500    6.500 
#    0.000    2.500    0.000    5.250    0.000   17.500 
#    0.000    0.000    0.000    0.000    0.000    0.000 
#
# Total GULP energy -178438.215660 kJ/mol
# GULP energy per Si atom -5576.194239 kJ/mol
# Density = 2.299980 g / cm^3
# Si number density = 23.052271 Si / 1000 Ang^3
#
#
#
# Elastic Constant Matrix: (Units=GPa)
#
#
# Indices 1 2 3 4 5 6 
#
# 1 132.1322 2.1374 35.8959 0.0000 0.0000 0.0000
# 2 2.1374 64.8665 1.3576 0.0000 0.0000 0.0000
# 3 35.8959 1.3576 92.4096 0.0000 0.0000 0.0000
# 4 0.0000 0.0000 0.0000 -2.8047 0.0000 0.0000
# 5 0.0000 0.0000 0.0000 0.0000 36.2632 0.0000
# 6 0.0000 0.0000 0.0000 0.0000 0.0000 -75.5635
#
#
#
# Elastic Compliance Matrix: (Units=1/GPa)
#
#
# Indices 1 2 3 4 5 6 
#
# 1 0.008464 -0.000210 -0.003285 0.000000 0.000000 0.000000
# 2 -0.000210 0.015426 -0.000145 0.000000 0.000000 0.000000
# 3 -0.003285 -0.000145 0.012099 0.000000 0.000000 0.000000
# 4 0.000000 0.000000 0.000000 -0.356543 0.000000 0.000000
# 5 0.000000 0.000000 0.000000 0.000000 0.027576 0.000000
# 6 0.000000 0.000000 0.000000 0.000000 0.000000 -0.013234
#
#
# Mechanical properties :
#
#
# Convention : Reuss Voigt Hill
#
# Bulk Modulus (GPa) = 34.83115 40.91003 37.87059
# Shear Modulus (GPa) = -17.27943 8.24684 -4.51629
#
# Velocity S-wave (km/s) = -2.74081 1.89347 -1.40122
# Velocity P-wave (km/s) = 2.26415 4.75031 3.72101
#
# Compressibility (1/GPa) = 0.02870993
#
# Stress axis : x y z
#
# Youngs Moduli (GPa) = 118.14871 64.82467 82.64859
#
# Poissons Ratio (x) = 0.01362 0.27147
# Poissons Ratio (y) = 0.02483 0.01198
# Poissons Ratio (z) = 0.38808 0.00940
#
# Static dielectric constant tensor:
#      x y z
#    x 1.837540 0.000000 0.000000 
#    y 0.000000 1.911990 0.000000 
#    z 0.000000 0.000000 1.926220 
# 
# From -- ./inp_files/10239.got.cif
#   From: 2010.05.17/outbox.cif.g08.bks.cpg/sg74_6_cif.got.tgz:10239.got - 2010.06.03 17:57:02.
