data_PCOD9537121
_publ_section_title
;
Structure prediction by ZEFSAII (Michael W. Deem and Ramdas Pophale) SiO2 
 PCOD9537121
Probable space group: I M M A
;
_chemical_formula_sum "Si O2"
_cell_formula_units_Z 96
_cell_length_a 24.511871
_cell_length_b 7.833223
_cell_length_c 26.084872
_cell_angle_alpha 90.000000
_cell_angle_beta 90.000000
_cell_angle_gamma 90.000000
_cell_volume 5008.476758
_symmetry_space_group_name_H-M "I M M A"
_symmetry_group_IT_number 74
_symmetry_cell_setting 'orthorhombic'
loop_
_space_group_symop_operation_xyz
x,y,z
-x,1/2-y,z
x,-y,-z
-x,1/2+y,-z
-x,-y,-z
x,1/2+y,-z
-x,y,z
x,1/2-y,z
1/2+x,1/2+y,1/2+z
1/2-x,-y,1/2+z
1/2+x,1/2-y,1/2-z
1/2-x,y,1/2-z
1/2-x,1/2-y,1/2-z
1/2+x,y,1/2-z
1/2-x,1/2+y,1/2+z
1/2+x,-y,1/2+z
loop_
_atom_site_type_symbol
_atom_site_label
_atom_site_fract_x
_atom_site_fract_y
_atom_site_fract_z
Si Si1 0.882263 0.546023 0.346658
Si Si2 0.500000 0.954770 0.183596
Si Si3 0.500000 0.042565 0.303903
Si Si4 0.809152 0.046874 0.441665
Si Si5 0.685485 0.544101 0.558486
Si Si6 0.885235 0.454031 0.152383
Si Si7 0.312409 0.043087 0.749862
O O1 0.885455 0.750000 0.339949
O O2 0.852400 0.513926 0.400079
O O3 0.844893 0.480607 0.299926
O O4 0.943750 0.477873 0.340677
O O5 0.500000 0.750000 0.176576
O O6 0.500000 0.989095 0.244455
O O7 0.500000 0.250000 0.304419
O O8 0.444931 0.980494 0.331690
O O9 0.806841 0.250000 0.438133
O O10 0.747443 0.980213 0.431375
O O11 0.823305 0.000000 0.500000
O O12 0.671462 0.500000 0.500000
O O13 0.686996 0.750000 0.562417
O O14 0.642770 0.478816 0.600525
O O15 0.890849 0.250000 0.146440
O O16 0.844412 0.488082 0.199287
O O17 0.311742 0.250000 0.750798
O O18 0.250000 0.983377 0.750000
#
# Coordination Sequence:
#
# PCOD9537121 Si02
#       7
#    16   8   8  16  16  16  16
#     4  10  20  34  52  76 106 137 173 215 259 309
#     4  10  20  36  55  74 103 144 180 215 260 309
#     4  10  20  34  53  76 104 142 182 219 259 309
#     4  10  20  35  56  79 104 136 173 214 263 317
#     4   9  19  35  54  77 105 138 174 215 265 315
#     4  10  20  34  52  76 106 139 177 219 263 311
#     4  10  20  32  50  78 108 137 171 214 264 317
#
# _framework density 19.167504000000001
#
# number of rings (size 3 to 8) (size 9 to 14) (size 15 to 20)
#    0.000    2.167    1.667    1.500    0.000    3.000 
#    0.000    0.833    0.000    0.000    0.000    0.000 
#    0.000    0.000    0.000    0.000    0.000    0.000 
#
# Total GULP energy -267951.955440 kJ/mol
# GULP energy per Si atom -5582.332405 kJ/mol
# Density = 1.912388 g / cm^3
# Si number density = 19.167504 Si / 1000 Ang^3
#
#
#
# Elastic Constant Matrix: (Units=GPa)
#
#
# Indices 1 2 3 4 5 6 
#
# 1 182.3570 -1.9046 105.0441 0.0000 0.0000 0.0000
# 2 -1.9046 12.5938 -16.2642 0.0000 0.0000 0.0000
# 3 105.0441 -16.2642 135.1136 0.0000 0.0000 0.0000
# 4 0.0000 0.0000 0.0000 23.4459 0.0000 0.0000
# 5 0.0000 0.0000 0.0000 0.0000 18.3090 0.0000
# 6 0.0000 0.0000 0.0000 0.0000 0.0000 -6.8947
#
#
#
# Elastic Compliance Matrix: (Units=1/GPa)
#
#
# Indices 1 2 3 4 5 6 
#
# 1 0.011130 -0.011239 -0.010006 0.000000 0.000000 0.000000
# 2 -0.011239 0.105369 0.021422 0.000000 0.000000 0.000000
# 3 -0.010006 0.021422 0.017759 0.000000 0.000000 0.000000
# 4 0.000000 0.000000 0.000000 0.042651 0.000000 0.000000
# 5 0.000000 0.000000 0.000000 0.000000 0.054618 0.000000
# 6 0.000000 0.000000 0.000000 0.000000 0.000000 -0.145038
#
#
# Mechanical properties :
#
#
# Convention : Reuss Voigt Hill
#
# Bulk Modulus (GPa) = 7.42879 55.97943 31.70411
# Shear Modulus (GPa) = 38.16564 23.18462 30.67513
#
# Velocity S-wave (km/s) = 4.46709 3.48167 4.00480
# Velocity P-wave (km/s) = 5.52183 6.74029 6.16126
#
# Compressibility (1/GPa) = 0.13461146
#
# Stress axis : x y z
#
# Youngs Moduli (GPa) = 89.84534 9.49043 56.30933
#
# Poissons Ratio (x) = 0.10666 0.56344
# Poissons Ratio (y) = 1.00978 -1.20624
# Poissons Ratio (z) = 0.89900 -0.20330
#
# Static dielectric constant tensor:
#      x y z
#    x 1.685030 0.000000 0.000000 
#    y 0.000000 1.687670 0.000000 
#    z 0.000000 0.000000 1.607970 
# 
# From -- ./inp_files/57320.got.cif
#   From: 2010.05.17/outbox.cif.g08.bks.cpg/sg74_29_cif.got.tgz:57320.got - 2010.06.03 17:57:02.
