data_PCOD9537095
_publ_section_title
;
Structure prediction by ZEFSAII (Michael W. Deem and Ramdas Pophale) SiO2 
 PCOD9537095
Probable space group: I M M A
;
_chemical_formula_sum "Si O2"
_cell_formula_units_Z 112
_cell_length_a 29.034754
_cell_length_b 14.457716
_cell_length_c 15.260458
_cell_angle_alpha 90.000000
_cell_angle_beta 90.000000
_cell_angle_gamma 90.000000
_cell_volume 6405.977489
_symmetry_space_group_name_H-M "I M M A"
_symmetry_group_IT_number 74
_symmetry_cell_setting 'orthorhombic'
loop_
_space_group_symop_operation_xyz
x,y,z
-x,1/2-y,z
x,-y,-z
-x,1/2+y,-z
-x,-y,-z
x,1/2+y,-z
-x,y,z
x,1/2-y,z
1/2+x,1/2+y,1/2+z
1/2-x,-y,1/2+z
1/2+x,1/2-y,1/2-z
1/2-x,y,1/2-z
1/2-x,1/2-y,1/2-z
1/2+x,y,1/2-z
1/2-x,1/2+y,1/2+z
1/2+x,-y,1/2+z
loop_
_atom_site_type_symbol
_atom_site_label
_atom_site_fract_x
_atom_site_fract_y
_atom_site_fract_z
Si Si1 0.806812 0.639243 0.474354
Si Si2 0.319681 0.850807 0.327148
Si Si3 0.053442 0.514044 0.604744
Si Si4 0.201187 0.102150 0.008717
Si Si5 0.636282 0.139181 0.149995
Si Si6 0.297545 0.563423 0.703939
Si Si7 0.382044 0.856409 0.168034
O O1 0.802090 0.750000 0.470079
O O2 0.755056 0.602871 0.480414
O O3 0.834155 0.615508 0.562761
O O4 0.838039 0.611892 0.391317
O O5 0.298158 0.750000 0.300416
O O6 0.324526 0.844932 0.431710
O O7 0.365188 0.857336 0.267977
O O8 0.296122 0.951375 0.310970
O O9 0.057089 0.500000 0.500000
O O10 0.085622 0.598860 0.633884
O O11 0.076117 0.423539 0.648211
O O12 0.000000 0.525941 0.627068
O O13 0.198904 0.119125 0.112166
O O14 0.181811 0.000000 0.000000
O O15 0.636538 0.250000 0.159781
O O16 0.660895 0.090765 0.232151
O O17 0.250000 0.590298 0.750000
O O18 0.392009 0.750000 0.142507
#
# Coordination Sequence:
#
# PCOD9537095 Si02
#       7
#    16  16  16  16  16  16  16
#     4  10  20  32  49  75 112 153 191 231 274 326
#     4  10  22  36  54  79 111 149 191 240 284 329
#     4  11  23  38  61  85 112 149 187 235 290 345
#     4  10  22  33  50  80 113 152 195 236 272 324
#     4  11  23  38  56  80 114 155 193 234 280 333
#     4  11  22  37  56  81 114 156 198 232 278 336
#     4  10  21  36  57  82 111 148 186 232 290 347
#
# _framework density 17.483671000000001
#
# number of rings (size 3 to 8) (size 9 to 14) (size 15 to 20)
#    0.000    1.571    4.286    0.429    6.000    2.286 
#    0.000    1.429    0.000    0.000    0.000    2.000 
#    0.000    2.286    0.000    0.000    0.000    0.000 
#
# Total GULP energy -312172.035091 kJ/mol
# GULP energy per Si atom -5574.500627 kJ/mol
# Density = 1.744388 g / cm^3
# Si number density = 17.483671 Si / 1000 Ang^3
#
#
#
# Elastic Constant Matrix: (Units=GPa)
#
#
# Indices 1 2 3 4 5 6 
#
# 1 85.3903 28.5915 58.8853 0.0000 0.0000 0.0000
# 2 28.5915 88.7322 36.8119 0.0000 0.0000 0.0000
# 3 58.8853 36.8119 124.4210 0.0000 0.0000 0.0000
# 4 0.0000 0.0000 0.0000 20.7350 0.0000 0.0000
# 5 0.0000 0.0000 0.0000 0.0000 11.0539 0.0000
# 6 0.0000 0.0000 0.0000 0.0000 0.0000 -23.9712
#
#
#
# Elastic Compliance Matrix: (Units=1/GPa)
#
#
# Indices 1 2 3 4 5 6 
#
# 1 0.017883 -0.002566 -0.007704 0.000000 0.000000 0.000000
# 2 -0.002566 0.013215 -0.002695 0.000000 0.000000 0.000000
# 3 -0.007704 -0.002695 0.012481 0.000000 0.000000 0.000000
# 4 0.000000 0.000000 0.000000 0.048228 0.000000 0.000000
# 5 0.000000 0.000000 0.000000 0.000000 0.090465 0.000000
# 6 0.000000 0.000000 0.000000 0.000000 0.000000 -0.041717
#
#
# Mechanical properties :
#
#
# Convention : Reuss Voigt Hill
#
# Bulk Modulus (GPa) = 56.66578 60.79118 58.72848
# Shear Modulus (GPa) = 29.00744 13.18054 21.09399
#
# Velocity S-wave (km/s) = 4.07764 2.74866 3.47723
# Velocity P-wave (km/s) = 7.39261 6.70218 7.05584
#
# Compressibility (1/GPa) = 0.01764734
#
# Stress axis : x y z
#
# Youngs Moduli (GPa) = 55.91865 75.67198 80.12166
#
# Poissons Ratio (x) = 0.19418 0.61729
# Poissons Ratio (y) = 0.14349 0.21596
# Poissons Ratio (z) = 0.43082 0.20397
#
# Static dielectric constant tensor:
#      x y z
#    x 1.548800 0.000000 0.000000 
#    y 0.000000 1.623900 0.000000 
#    z 0.000000 0.000000 1.632720 
# 
# From -- ./inp_files/37383.got.cif
#   From: 2010.05.17/outbox.cif.g08.bks.cpg/sg74_19_cif.got.tgz:37383.got - 2010.06.03 17:57:02.
