data_PCOD9537979
_publ_section_title
;
Structure prediction by ZEFSAII (Michael W. Deem and Ramdas Pophale) SiO2 
 PCOD9537979
Probable space group: I M M A
;
_chemical_formula_sum "Si O2"
_cell_formula_units_Z 56
_cell_length_a 13.777471
_cell_length_b 23.405972
_cell_length_c 7.013168
_cell_angle_alpha 90.000000
_cell_angle_beta 90.000000
_cell_angle_gamma 90.000000
_cell_volume 2261.572055
_symmetry_space_group_name_H-M "I M M A"
_symmetry_group_IT_number 74
_symmetry_cell_setting 'orthorhombic'
loop_
_space_group_symop_operation_xyz
x,y,z
-x,1/2-y,z
x,-y,-z
-x,1/2+y,-z
-x,-y,-z
x,1/2+y,-z
-x,y,z
x,1/2-y,z
1/2+x,1/2+y,1/2+z
1/2-x,-y,1/2+z
1/2+x,1/2-y,1/2-z
1/2-x,y,1/2-z
1/2-x,1/2-y,1/2-z
1/2+x,y,1/2-z
1/2-x,1/2+y,1/2+z
1/2+x,-y,1/2+z
loop_
_atom_site_type_symbol
_atom_site_label
_atom_site_fract_x
_atom_site_fract_y
_atom_site_fract_z
Si Si1 0.389590 0.395457 0.917497
Si Si2 0.393553 0.082793 0.371893
Si Si3 0.750000 0.007914 0.750000
Si Si4 0.774703 0.685492 0.978136
O O1 0.500000 0.387939 0.849371
O O2 0.335802 0.450226 0.824902
O O3 0.397794 0.405920 0.145219
O O4 0.317942 0.340914 0.912112
O O5 0.500000 0.063236 0.431267
O O6 0.361165 0.139391 0.484513
O O7 0.305985 0.038670 0.382554
O O8 0.797878 0.750000 0.034448
O O9 0.750000 0.686697 0.750000
#
# Coordination Sequence:
#
# PCOD9537979 Si02
#       4
#    16  16   8  16
#     4  10  21  37  58  82 114 155 192 231 282 341
#     4  10  20  35  57  84 114 149 187 233 288 340
#     4  12  20  34  54  84 120 154 192 230 274 342
#     4   9  18  36  59  85 111 139 188 244 285 327
#
# _framework density 24.761536
#
# number of rings (size 3 to 8) (size 9 to 14) (size 15 to 20)
#    0.000    2.000    4.286    1.714    0.000    3.429 
#    0.000   10.714    0.000    0.000    0.000    0.000 
#    0.000    0.000    0.000    0.000    0.000    0.000 
#
# Total GULP energy -156568.653646 kJ/mol
# GULP energy per Si atom -5591.737630 kJ/mol
# Density = 2.470518 g / cm^3
# Si number density = 24.761536 Si / 1000 Ang^3
#
#
#
# Elastic Constant Matrix: (Units=GPa)
#
#
# Indices 1 2 3 4 5 6 
#
# 1 226.6962 97.9362 20.9806 -0.0001 -0.0001 0.0001
# 2 97.9362 203.2207 18.3798 0.0002 0.0000 0.0002
# 3 20.9806 18.3798 75.4943 0.0023 0.0000 0.0008
# 4 -0.0001 0.0002 0.0023 25.9555 0.0000 0.0002
# 5 -0.0001 0.0000 0.0000 0.0000 27.6566 0.0000
# 6 0.0001 0.0002 0.0008 0.0002 0.0000 6.0589
#
#
#
# Elastic Compliance Matrix: (Units=1/GPa)
#
#
# Indices 1 2 3 4 5 6 
#
# 1 0.005634 -0.002631 -0.000925 0.000000 0.000000 0.000000
# 2 -0.002631 0.006261 -0.000793 0.000000 0.000000 0.000000
# 3 -0.000925 -0.000793 0.013696 -0.000001 0.000000 -0.000002
# 4 0.000000 0.000000 -0.000001 0.038527 0.000000 -0.000001
# 5 0.000000 0.000000 0.000000 0.000000 0.036158 0.000000
# 6 0.000000 0.000000 -0.000002 -0.000001 0.000000 0.165047
#
#
# Mechanical properties :
#
#
# Convention : Reuss Voigt Hill
#
# Bulk Modulus (GPa) = 59.20027 86.66716 72.93371
# Shear Modulus (GPa) = 17.87939 36.47517 27.17728
#
# Velocity S-wave (km/s) = 2.69004 3.84221 3.31654
# Velocity P-wave (km/s) = 5.79728 7.40001 6.64713
#
# Compressibility (1/GPa) = 0.01689182
#
# Stress axis : x y z
#
# Youngs Moduli (GPa) = 177.50813 159.73080 73.01322
#
# Poissons Ratio (x) = 0.42029 0.06754
# Poissons Ratio (y) = 0.46707 0.05789
# Poissons Ratio (z) = 0.16420 0.12666
#
# Static dielectric constant tensor:
#      x y z
#    x 1.943480 0.000000 0.000000 
#    y 0.000000 1.899940 0.000000 
#    z 0.000000 0.000000 2.289050 
# 
# From -- ./inp_files/8464.got.cif
#   From: 2010.05.17/outbox.cif.g08.bks.cpg/sg74_5_cif.got.tgz:8464.got - 2010.06.03 17:57:02.
