data_PCOD9537861
_publ_section_title
;
Structure prediction by ZEFSAII (Michael W. Deem and Ramdas Pophale) SiO2 
 PCOD9537861
Probable space group: I M M A
;
_chemical_formula_sum "Si O2"
_cell_formula_units_Z 80
_cell_length_a 21.827373
_cell_length_b 22.449841
_cell_length_c 8.898030
_cell_angle_alpha 90.000000
_cell_angle_beta 90.000000
_cell_angle_gamma 90.000000
_cell_volume 4360.222033
_symmetry_space_group_name_H-M "I M M A"
_symmetry_group_IT_number 74
_symmetry_cell_setting 'orthorhombic'
loop_
_space_group_symop_operation_xyz
x,y,z
-x,1/2-y,z
x,-y,-z
-x,1/2+y,-z
-x,-y,-z
x,1/2+y,-z
-x,y,z
x,1/2-y,z
1/2+x,1/2+y,1/2+z
1/2-x,-y,1/2+z
1/2+x,1/2-y,1/2-z
1/2-x,y,1/2-z
1/2-x,1/2-y,1/2-z
1/2+x,y,1/2-z
1/2-x,1/2+y,1/2+z
1/2+x,-y,1/2+z
loop_
_atom_site_type_symbol
_atom_site_label
_atom_site_fract_x
_atom_site_fract_y
_atom_site_fract_z
Si Si1 0.227547 0.250000 0.495307
Si Si2 0.625494 0.881335 0.605078
Si Si3 0.867438 0.065752 0.428421
Si Si4 0.650030 0.750000 0.708936
Si Si5 0.000000 0.934524 0.931167
Si Si6 0.000000 0.566545 0.567302
Si Si7 0.750191 0.120896 0.583252
O O1 0.286944 0.250000 0.386522
O O2 0.169567 0.250000 0.383346
O O3 0.232376 0.309579 0.589265
O O4 0.634919 0.925132 0.748309
O O5 0.619551 0.813155 0.665961
O O6 0.562566 0.900857 0.526432
O O7 0.684975 0.885487 0.499180
O O8 0.933844 0.093915 0.474652
O O9 0.805425 0.093995 0.488229
O O10 0.868703 0.000000 0.500000
O O11 0.000000 0.937514 0.748789
O O12 0.000000 0.000000 0.000000
O O13 0.000000 0.500000 0.500000
O O14 0.750000 0.094758 0.750000
#
# Coordination Sequence:
#
# PCOD9537861 Si02
#       7
#     8  16  16   8   8   8  16
#     4   9  17  34  56  81 111 147 186 234 309 347
#     4  10  21  38  59  85 113 153 200 240 298 355
#     4  10  20  35  55  80 111 149 191 242 289 352
#     4   9  16  33  64  83 105 150 192 249 294 349
#     4  10  22  37  57  82 117 154 188 235 289 354
#     4   8  18  36  55  74 103 145 192 225 277 340
#     4  11  22  34  55  86 115 149 192 243 294 357
#
# _framework density 18.347688999999999
#
# number of rings (size 3 to 8) (size 9 to 14) (size 15 to 20)
#    0.000    2.200    2.000    0.900    0.000    7.600 
#    0.000    0.000    0.000    0.600    0.000    2.800 
#    0.000    0.000    0.000    0.000    0.000    0.000 
#
# Total GULP energy -222697.537367 kJ/mol
# GULP energy per Si atom -5567.438434 kJ/mol
# Density = 1.830593 g / cm^3
# Si number density = 18.347689 Si / 1000 Ang^3
#
#
#
# Elastic Constant Matrix: (Units=GPa)
#
#
# Indices 1 2 3 4 5 6 
#
# 1 177.5065 48.6275 37.9217 0.0000 0.0000 0.0000
# 2 48.6275 77.0849 13.2423 0.0000 0.0000 0.0000
# 3 37.9217 13.2423 54.0739 0.0000 0.0000 0.0000
# 4 0.0000 0.0000 0.0000 21.3746 0.0000 0.0000
# 5 0.0000 0.0000 0.0000 0.0000 16.1795 0.0000
# 6 0.0000 0.0000 0.0000 0.0000 0.0000 21.3905
#
#
#
# Elastic Compliance Matrix: (Units=1/GPa)
#
#
# Indices 1 2 3 4 5 6 
#
# 1 0.007695 -0.004100 -0.004393 0.000000 0.000000 0.000000
# 2 -0.004100 0.015727 -0.000976 0.000000 0.000000 0.000000
# 3 -0.004393 -0.000976 0.021813 0.000000 0.000000 0.000000
# 4 0.000000 0.000000 0.000000 0.046785 0.000000 0.000000
# 5 0.000000 0.000000 0.000000 0.000000 0.061807 0.000000
# 6 0.000000 0.000000 0.000000 0.000000 0.000000 0.046750
#
#
# Mechanical properties :
#
#
# Convention : Reuss Voigt Hill
#
# Bulk Modulus (GPa) = 38.02643 56.47203 47.24923
# Shear Modulus (GPa) = 21.90309 25.71383 23.80846
#
# Velocity S-wave (km/s) = 3.45886 3.74769 3.60617
# Velocity P-wave (km/s) = 6.05987 7.04078 6.56866
#
# Compressibility (1/GPa) = 0.02629750
#
# Stress axis : x y z
#
# Youngs Moduli (GPa) = 129.95270 63.58640 45.84478
#
# Poissons Ratio (x) = 0.26069 0.20137
# Poissons Ratio (y) = 0.53277 0.04476
# Poissons Ratio (z) = 0.57082 0.06208
#
# Static dielectric constant tensor:
#      x y z
#    x 1.656800 0.000000 0.000000 
#    y 0.000000 1.666890 0.000000 
#    z 0.000000 0.000000 1.640930 
# 
# From -- ./inp_files/12367.got.cif
#   From: 2010.05.17/outbox.cif.g08.bks.cpg/sg74_7_cif.got.tgz:12367.got - 2010.06.03 17:57:02.
