data_PCOD9537262
_publ_section_title
;
Structure prediction by ZEFSAII (Michael W. Deem and Ramdas Pophale) SiO2 
 PCOD9537262
Probable space group: I M M A
;
_chemical_formula_sum "Si O2"
_cell_formula_units_Z 80
_cell_length_a 27.243816
_cell_length_b 8.960778
_cell_length_c 18.160062
_cell_angle_alpha 90.000000
_cell_angle_beta 90.000000
_cell_angle_gamma 90.000000
_cell_volume 4433.339429
_symmetry_space_group_name_H-M "I M M A"
_symmetry_group_IT_number 74
_symmetry_cell_setting 'orthorhombic'
loop_
_space_group_symop_operation_xyz
x,y,z
-x,1/2-y,z
x,-y,-z
-x,1/2+y,-z
-x,-y,-z
x,1/2+y,-z
-x,y,z
x,1/2-y,z
1/2+x,1/2+y,1/2+z
1/2-x,-y,1/2+z
1/2+x,1/2-y,1/2-z
1/2-x,y,1/2-z
1/2-x,1/2-y,1/2-z
1/2+x,y,1/2-z
1/2-x,1/2+y,1/2+z
1/2+x,-y,1/2+z
loop_
_atom_site_type_symbol
_atom_site_label
_atom_site_fract_x
_atom_site_fract_y
_atom_site_fract_z
Si Si1 0.945001 0.572312 0.230190
Si Si2 0.347648 0.427949 0.211645
Si Si3 0.808359 0.576805 0.874470
Si Si4 0.920147 0.425340 0.076470
Si Si5 0.289497 0.573227 0.077270
O O1 0.936485 0.750000 0.228766
O O2 0.902000 0.492418 0.275303
O O3 0.941726 0.508517 0.147271
O O4 0.000000 0.544270 0.258637
O O5 0.349587 0.250000 0.201548
O O6 0.318324 0.454982 0.288218
O O7 0.320804 0.505529 0.144077
O O8 0.792178 0.750000 0.881241
O O9 0.860999 0.562488 0.913777
O O10 0.766981 0.471697 0.907156
O O11 0.932583 0.250000 0.078382
O O12 0.935009 0.500000 0.000000
O O13 0.294754 0.750000 0.074162
O O14 0.304223 0.500000 0.000000
#
# Coordination Sequence:
#
# PCOD9537262 Si02
#       5
#    16  16  16  16  16
#     4  10  21  37  57  80 105 136 177 223 270 322
#     4  10  21  38  59  81 108 141 178 221 266 316
#     4   9  19  35  54  78 109 145 182 218 259 310
#     4  10  20  33  51  76 109 147 184 224 267 313
#     4  12  24  36  54  80 111 145 180 219 264 315
#
# _framework density 18.045086999999999
#
# number of rings (size 3 to 8) (size 9 to 14) (size 15 to 20)
#    0.000    1.800    0.000    6.000    0.000   10.800 
#    0.000    0.000    0.000    0.600    0.000    0.000 
#    0.000    0.000    0.000    0.000    0.000    0.000 
#
# Total GULP energy -223594.090597 kJ/mol
# GULP energy per Si atom -5589.852265 kJ/mol
# Density = 1.800402 g / cm^3
# Si number density = 18.045087 Si / 1000 Ang^3
#
#
#
# Elastic Constant Matrix: (Units=GPa)
#
#
# Indices 1 2 3 4 5 6 
#
# 1 54.3780 30.1266 12.9860 0.0000 0.0000 0.0000
# 2 30.1266 99.7856 40.8390 0.0000 0.0000 0.0000
# 3 12.9860 40.8390 62.4556 0.0000 0.0000 0.0000
# 4 0.0000 0.0000 0.0000 31.7198 0.0000 0.0000
# 5 0.0000 0.0000 0.0000 0.0000 -0.9958 0.0000
# 6 0.0000 0.0000 0.0000 0.0000 0.0000 24.9344
#
#
#
# Elastic Compliance Matrix: (Units=1/GPa)
#
#
# Indices 1 2 3 4 5 6 
#
# 1 0.022088 -0.006539 -0.000317 0.000000 0.000000 0.000000
# 2 -0.006539 0.015619 -0.008854 0.000000 0.000000 0.000000
# 3 -0.000317 -0.008854 0.021867 0.000000 0.000000 0.000000
# 4 0.000000 0.000000 0.000000 0.031526 0.000000 0.000000
# 5 0.000000 0.000000 0.000000 0.000000 -1.004242 0.000000
# 6 0.000000 0.000000 0.000000 0.000000 0.000000 0.040105
#
#
# Mechanical properties :
#
#
# Convention : Reuss Voigt Hill
#
# Bulk Modulus (GPa) = 35.51774 42.72471 39.12123
# Shear Modulus (GPa) = -6.00794 19.97618 6.98412
#
# Velocity S-wave (km/s) = -1.82664 3.33079 1.96946
# Velocity P-wave (km/s) = 3.90854 6.20647 5.18637
#
# Compressibility (1/GPa) = 0.02815494
#
# Stress axis : x y z
#
# Youngs Moduli (GPa) = 45.27297 64.02382 45.73200
#
# Poissons Ratio (x) = 0.41865 0.01449
# Poissons Ratio (y) = 0.29604 0.40489
# Poissons Ratio (z) = 0.01435 0.56684
#
# Static dielectric constant tensor:
#      x y z
#    x 1.625480 0.000000 0.000000 
#    y 0.000000 1.597330 0.000000 
#    z 0.000000 0.000000 1.595450 
# 
# From -- ./inp_files/39701.got.cif
#   From: 2010.05.17/outbox.cif.g08.bks.cpg/sg74_20_cif.got.tgz:39701.got - 2010.06.03 17:57:02.
