data_PCOD9537401
_publ_section_title
;
Structure prediction by ZEFSAII (Michael W. Deem and Ramdas Pophale) SiO2 
 PCOD9537401
Probable space group: I M M A
;
_chemical_formula_sum "Si O2"
_cell_formula_units_Z 88
_cell_length_a 17.360099
_cell_length_b 7.333306
_cell_length_c 31.706756
_cell_angle_alpha 90.000000
_cell_angle_beta 90.000000
_cell_angle_gamma 90.000000
_cell_volume 4036.489391
_symmetry_space_group_name_H-M "I M M A"
_symmetry_group_IT_number 74
_symmetry_cell_setting 'orthorhombic'
loop_
_space_group_symop_operation_xyz
x,y,z
-x,1/2-y,z
x,-y,-z
-x,1/2+y,-z
-x,-y,-z
x,1/2+y,-z
-x,y,z
x,1/2-y,z
1/2+x,1/2+y,1/2+z
1/2-x,-y,1/2+z
1/2+x,1/2-y,1/2-z
1/2-x,y,1/2-z
1/2-x,1/2-y,1/2-z
1/2+x,y,1/2-z
1/2-x,1/2+y,1/2+z
1/2+x,-y,1/2+z
loop_
_atom_site_type_symbol
_atom_site_label
_atom_site_fract_x
_atom_site_fract_y
_atom_site_fract_z
Si Si1 0.000000 0.032163 0.449517
Si Si2 0.592148 0.456144 0.206764
Si Si3 0.910226 0.026923 0.201324
Si Si4 0.190884 0.027534 0.122016
Si Si5 0.866817 0.973089 0.614086
Si Si6 0.913128 0.032897 0.046082
O O1 0.075420 0.966973 0.423191
O O2 0.000000 0.250000 0.445440
O O3 0.000000 0.000000 0.500000
O O4 0.500000 0.443978 0.210025
O O5 0.625132 0.250000 0.205608
O O6 0.614895 0.536583 0.251958
O O7 0.608116 0.535660 0.160890
O O8 0.911065 0.250000 0.202380
O O9 0.849852 0.970850 0.165565
O O10 0.000000 0.973997 0.192714
O O11 0.191524 0.250000 0.122950
O O12 0.277843 0.972472 0.111783
O O13 0.137026 0.963571 0.084158
O O14 0.870697 0.750000 0.613806
O O15 0.918300 0.250000 0.051528
O O16 0.000000 0.959067 0.046433
O O17 0.878916 0.000000 0.000000
#
# Coordination Sequence:
#
# PCOD9537401 Si02
#       6
#     8  16  16  16  16  16
#     4  10  20  34  50  66  86 114 148 186 225 262
#     4   8  12  20  34  51  76 111 145 171 202 252
#     4   8  13  20  32  52  80 114 145 171 204 250
#     4   9  16  24  36  57  83 110 141 176 212 253
#     4   9  16  26  40  57  80 111 143 175 214 257
#     4   9  17  29  44  60  81 110 141 172 209 251
#
# _framework density 21.801121999999999
#
# number of rings (size 3 to 8) (size 9 to 14) (size 15 to 20)
#    0.000    3.273    0.909    1.636    0.000    3.636 
#    0.000    3.636    0.000    0.000    0.000    0.000 
#    0.000    1.455    0.000    3.273    0.000    3.636 
#
# Total GULP energy -245252.489313 kJ/mol
# GULP energy per Si atom -5573.920212 kJ/mol
# Density = 2.175150 g / cm^3
# Si number density = 21.801122 Si / 1000 Ang^3
#
#
#
# Elastic Constant Matrix: (Units=GPa)
#
#
# Indices 1 2 3 4 5 6 
#
# 1 113.1703 6.1266 113.6573 0.0000 0.0000 0.0000
# 2 6.1266 83.5483 5.2409 0.0000 0.0000 0.0000
# 3 113.6573 5.2409 243.5034 0.0000 0.0000 0.0000
# 4 0.0000 0.0000 0.0000 2.1442 0.0000 0.0000
# 5 0.0000 0.0000 0.0000 0.0000 -0.4562 0.0000
# 6 0.0000 0.0000 0.0000 0.0000 0.0000 -18.4133
#
#
#
# Elastic Compliance Matrix: (Units=1/GPa)
#
#
# Indices 1 2 3 4 5 6 
#
# 1 0.016679 -0.000736 -0.007769 0.000000 0.000000 0.000000
# 2 -0.000736 0.012018 0.000085 0.000000 0.000000 0.000000
# 3 -0.007769 0.000085 0.007731 0.000000 0.000000 0.000000
# 4 0.000000 0.000000 0.000000 0.466369 0.000000 0.000000
# 5 0.000000 0.000000 0.000000 0.000000 -2.192033 0.000000
# 6 0.000000 0.000000 0.000000 0.000000 0.000000 -0.054309
#
#
# Mechanical properties :
#
#
# Convention : Reuss Voigt Hill
#
# Bulk Modulus (GPa) = 51.05301 76.69684 63.87492
# Shear Modulus (GPa) = -2.90668 17.66810 7.38071
#
# Velocity S-wave (km/s) = -1.15593 2.84988 1.84196
# Velocity P-wave (km/s) = 4.65692 6.78864 5.82119
#
# Compressibility (1/GPa) = 0.01958748
#
# Stress axis : x y z
#
# Youngs Moduli (GPa) = 59.95741 83.21025 129.34694
#
# Poissons Ratio (x) = 0.06122 1.00490
# Poissons Ratio (y) = 0.04411 -0.01096
# Poissons Ratio (z) = 0.46581 -0.00705
#
# Static dielectric constant tensor:
#      x y z
#    x 1.767140 0.000000 0.000000 
#    y 0.000000 1.917000 0.000000 
#    z 0.000000 0.000000 1.797100 
# 
# From -- ./inp_files/70312.got.cif
#   From: 2010.05.17/outbox.cif.g08.bks.cpg/sg74_36_cif.got.tgz:70312.got - 2010.06.03 17:57:02.
