data_PCOD9537892
_publ_section_title
;
Structure prediction by ZEFSAII (Michael W. Deem and Ramdas Pophale) SiO2 
 PCOD9537892
Probable space group: I M M A
;
_chemical_formula_sum "Si O2"
_cell_formula_units_Z 72
_cell_length_a 8.816531
_cell_length_b 14.776528
_cell_length_c 29.700681
_cell_angle_alpha 90.000000
_cell_angle_beta 90.000000
_cell_angle_gamma 90.000000
_cell_volume 3869.336920
_symmetry_space_group_name_H-M "I M M A"
_symmetry_group_IT_number 74
_symmetry_cell_setting 'orthorhombic'
loop_
_space_group_symop_operation_xyz
x,y,z
-x,1/2-y,z
x,-y,-z
-x,1/2+y,-z
-x,-y,-z
x,1/2+y,-z
-x,y,z
x,1/2-y,z
1/2+x,1/2+y,1/2+z
1/2-x,-y,1/2+z
1/2+x,1/2-y,1/2-z
1/2-x,y,1/2-z
1/2-x,1/2-y,1/2-z
1/2+x,y,1/2-z
1/2-x,1/2+y,1/2+z
1/2+x,-y,1/2+z
loop_
_atom_site_type_symbol
_atom_site_label
_atom_site_fract_x
_atom_site_fract_y
_atom_site_fract_z
Si Si1 0.179146 0.594115 0.614752
Si Si2 0.183684 0.250000 0.950125
Si Si3 0.816685 0.395379 0.876585
Si Si4 0.682855 0.250000 0.446588
Si Si5 0.169917 0.642809 0.793738
Si Si6 0.683183 0.750000 0.300553
O O1 0.242917 0.492616 0.616932
O O2 0.257332 0.660646 0.578782
O O3 0.224064 0.632102 0.663534
O O4 0.000000 0.594944 0.607695
O O5 0.227714 0.164263 0.919994
O O6 0.000000 0.250000 0.951514
O O7 0.235062 0.250000 0.001491
O O8 0.774538 0.337705 0.831594
O O9 0.000000 0.403599 0.875880
O O10 0.500000 0.250000 0.444561
O O11 0.153201 0.750000 0.786156
O O12 0.250000 0.601753 0.750000
O O13 0.000000 0.605679 0.801604
O O14 0.500000 0.750000 0.297291
O O15 0.750000 0.750000 0.250000
#
# Coordination Sequence:
#
# PCOD9537892 Si02
#       6
#    16   8  16   8  16   8
#     4  12  24  37  55  85 121 156 192 234 287 348
#     4   8  18  39  66  87 105 142 197 247 294 348
#     4   9  19  39  62  85 114 150 193 241 288 341
#     4  11  22  39  62  85 110 147 195 246 294 346
#     4  10  20  35  56  79 108 148 190 231 277 328
#     4   9  19  36  62  90 118 151 190 235 283 332
#
# _framework density 18.607839999999999
#
# number of rings (size 3 to 8) (size 9 to 14) (size 15 to 20)
#    0.000    2.000    1.111    4.333    0.000    3.556 
#    0.000   10.556    0.000    0.000    0.000    0.000 
#    0.000    0.000    0.000    0.000    0.000    0.000 
#
# Total GULP energy -200786.388350 kJ/mol
# GULP energy per Si atom -5577.399676 kJ/mol
# Density = 1.856549 g / cm^3
# Si number density = 18.607840 Si / 1000 Ang^3
#
#
#
# Elastic Constant Matrix: (Units=GPa)
#
#
# Indices 1 2 3 4 5 6 
#
# 1 83.1527 53.1860 45.0789 0.0000 0.0000 0.0000
# 2 53.1860 118.2588 67.3986 0.0000 0.0000 0.0000
# 3 45.0789 67.3986 177.1992 0.0000 0.0000 0.0000
# 4 0.0000 0.0000 0.0000 -92.4584 0.0000 0.0000
# 5 0.0000 0.0000 0.0000 0.0000 25.7037 0.0000
# 6 0.0000 0.0000 0.0000 0.0000 0.0000 13.1851
#
#
#
# Elastic Compliance Matrix: (Units=1/GPa)
#
#
# Indices 1 2 3 4 5 6 
#
# 1 0.017343 -0.006748 -0.001845 0.000000 0.000000 0.000000
# 2 -0.006748 0.013422 -0.003388 0.000000 0.000000 0.000000
# 3 -0.001845 -0.003388 0.007402 0.000000 0.000000 0.000000
# 4 0.000000 0.000000 0.000000 -0.010816 0.000000 0.000000
# 5 0.000000 0.000000 0.000000 0.000000 0.038905 0.000000
# 6 0.000000 0.000000 0.000000 0.000000 0.000000 0.075843
#
#
# Mechanical properties :
#
#
# Convention : Reuss Voigt Hill
#
# Bulk Modulus (GPa) = 70.40888 78.88197 74.64543
# Shear Modulus (GPa) = 29.27461 3.48258 16.37859
#
# Velocity S-wave (km/s) = 3.97071 1.36954 2.97003
# Velocity P-wave (km/s) = 7.67740 6.70706 7.20858
#
# Compressibility (1/GPa) = 0.01420275
#
# Stress axis : x y z
#
# Youngs Moduli (GPa) = 57.66153 74.50403 135.10567
#
# Poissons Ratio (x) = 0.50276 0.24930
# Poissons Ratio (y) = 0.38910 0.45780
# Poissons Ratio (z) = 0.10640 0.25246
#
# Static dielectric constant tensor:
#      x y z
#    x 1.647490 0.000000 0.000000 
#    y 0.000000 1.092860 0.000000 
#    z 0.000000 0.000000 1.637900 
# 
# From -- ./inp_files/63709.got.cif
#   From: 2010.05.17/outbox.cif.g08.bks.cpg/sg74_32_cif.got.tgz:63709.got - 2010.06.03 17:57:02.
