data_PCOD9537205
_publ_section_title
;
Structure prediction by ZEFSAII (Michael W. Deem and Ramdas Pophale) SiO2 
 PCOD9537205
Probable space group: I M M A
;
_chemical_formula_sum "Si O2"
_cell_formula_units_Z 116
_cell_length_a 7.935944
_cell_length_b 26.762939
_cell_length_c 28.518458
_cell_angle_alpha 90.000000
_cell_angle_beta 90.000000
_cell_angle_gamma 90.000000
_cell_volume 6057.012057
_symmetry_space_group_name_H-M "I M M A"
_symmetry_group_IT_number 74
_symmetry_cell_setting 'orthorhombic'
loop_
_space_group_symop_operation_xyz
x,y,z
-x,1/2-y,z
x,-y,-z
-x,1/2+y,-z
-x,-y,-z
x,1/2+y,-z
-x,y,z
x,1/2-y,z
1/2+x,1/2+y,1/2+z
1/2-x,-y,1/2+z
1/2+x,1/2-y,1/2-z
1/2-x,y,1/2-z
1/2-x,1/2-y,1/2-z
1/2+x,y,1/2-z
1/2-x,1/2+y,1/2+z
1/2+x,-y,1/2+z
loop_
_atom_site_type_symbol
_atom_site_label
_atom_site_fract_x
_atom_site_fract_y
_atom_site_fract_z
Si Si1 0.800762 0.092809 0.646055
Si Si2 0.695205 0.463600 0.559933
Si Si3 0.807231 0.437533 0.391765
Si Si4 0.797692 0.805462 0.195147
Si Si5 0.314406 0.804075 0.048029
Si Si6 0.197601 0.608691 0.982990
Si Si7 0.797245 0.508004 0.696762
Si Si8 0.000000 0.750000 0.085860
O O1 0.711867 0.082264 0.596628
O O2 0.769462 0.146384 0.668551
O O3 0.741891 0.047566 0.680270
O O4 0.000000 0.086725 0.638597
O O5 0.500000 0.479894 0.557143
O O6 0.797863 0.508527 0.582484
O O7 0.751527 0.441751 0.510379
O O8 0.724651 0.399245 0.427965
O O9 0.732268 0.451264 0.340877
O O10 0.000000 0.422077 0.386104
O O11 0.737591 0.750000 0.179623
O O12 0.750000 0.810015 0.250000
O O13 0.000000 0.804785 0.190539
O O14 0.500000 0.811584 0.070971
O O15 0.320809 0.750000 0.022853
O O16 0.287307 0.846175 0.009319
O O17 0.151660 0.793567 0.080907
O O18 0.000000 0.614415 0.992203
O O19 0.750000 0.517446 0.750000
O O20 0.000000 0.508526 0.693166
#
# Coordination Sequence:
#
# PCOD9537205 Si02
#       8
#    16  16  16  16  16  16  16   4
#     4  10  20  34  50  69  93 122 161 204 248 301
#     4  10  21  34  49  69  97 131 167 208 250 296
#     4  10  21  34  48  72 102 130 167 207 246 300
#     4  10  20  33  50  71  94 120 156 203 258 311
#     4   9  17  30  50  72  97 131 166 208 253 290
#     4  11  20  33  51  73 101 134 171 211 252 299
#     4   9  19  33  49  70  95 123 156 197 241 290
#     4   8  14  32  48  70 102 124 164 220 236 298
#
# _framework density 19.151357000000001
#
# number of rings (size 3 to 8) (size 9 to 14) (size 15 to 20)
#    0.414    1.793    0.690    3.724    0.000    9.103 
#    0.000    0.690    0.000    0.828    0.000    0.000 
#    0.000    0.552    0.000    3.034    0.000    5.241 
#
# Total GULP energy -323125.256832 kJ/mol
# GULP energy per Si atom -5571.125118 kJ/mol
# Density = 1.910777 g / cm^3
# Si number density = 19.151357 Si / 1000 Ang^3
#
#
#
# Elastic Constant Matrix: (Units=GPa)
#
#
# Indices 1 2 3 4 5 6 
#
# 1 66.1389 5.9932 7.5661 0.0000 0.0000 0.0000
# 2 5.9932 40.9314 19.9932 0.0000 0.0000 0.0000
# 3 7.5661 19.9932 112.0041 0.0000 0.0000 0.0000
# 4 0.0000 0.0000 0.0000 -40.2065 0.0000 0.0000
# 5 0.0000 0.0000 0.0000 0.0000 14.9169 0.0000
# 6 0.0000 0.0000 0.0000 0.0000 0.0000 24.4707
#
#
#
# Elastic Compliance Matrix: (Units=1/GPa)
#
#
# Indices 1 2 3 4 5 6 
#
# 1 0.015373 -0.001910 -0.000697 0.000000 0.000000 0.000000
# 2 -0.001910 0.027002 -0.004691 0.000000 0.000000 0.000000
# 3 -0.000697 -0.004691 0.009813 0.000000 0.000000 0.000000
# 4 0.000000 0.000000 0.000000 -0.024872 0.000000 0.000000
# 5 0.000000 0.000000 0.000000 0.000000 0.067038 0.000000
# 6 0.000000 0.000000 0.000000 0.000000 0.000000 0.040865
#
#
# Mechanical properties :
#
#
# Convention : Reuss Voigt Hill
#
# Bulk Modulus (GPa) = 26.60268 31.79771 29.20019
# Shear Modulus (GPa) = 30.79833 12.20433 21.50133
#
# Velocity S-wave (km/s) = 4.01453 2.52713 3.35431
# Velocity P-wave (km/s) = 5.95059 5.01544 5.50291
#
# Compressibility (1/GPa) = 0.03759020
#
# Stress axis : x y z
#
# Youngs Moduli (GPa) = 65.05096 37.03415 101.90863
#
# Poissons Ratio (x) = 0.07074 0.07108
# Poissons Ratio (y) = 0.12426 0.47805
# Poissons Ratio (z) = 0.04537 0.17373
#
# Static dielectric constant tensor:
#      x y z
#    x 1.708480 0.000000 0.000000 
#    y 0.000000 1.687990 0.000000 
#    z 0.000000 0.000000 1.700700 
# 
# From -- ./inp_files/65061.got.cif
#   From: 2010.05.17/outbox.cif.g08.bks.cpg/sg74_33_cif.got.tgz:65061.got - 2010.06.03 17:57:02.
