data_PCOD9537753
_publ_section_title
;
Structure prediction by ZEFSAII (Michael W. Deem and Ramdas Pophale) SiO2 
 PCOD9537753
Probable space group: I M M A
;
_chemical_formula_sum "Si O2"
_cell_formula_units_Z 68
_cell_length_a 10.400325
_cell_length_b 19.815427
_cell_length_c 18.390848
_cell_angle_alpha 90.000000
_cell_angle_beta 90.000000
_cell_angle_gamma 90.000000
_cell_volume 3790.112500
_symmetry_space_group_name_H-M "I M M A"
_symmetry_group_IT_number 74
_symmetry_cell_setting 'orthorhombic'
loop_
_space_group_symop_operation_xyz
x,y,z
-x,1/2-y,z
x,-y,-z
-x,1/2+y,-z
-x,-y,-z
x,1/2+y,-z
-x,y,z
x,1/2-y,z
1/2+x,1/2+y,1/2+z
1/2-x,-y,1/2+z
1/2+x,1/2-y,1/2-z
1/2-x,y,1/2-z
1/2-x,1/2-y,1/2-z
1/2+x,y,1/2-z
1/2-x,1/2+y,1/2+z
1/2+x,-y,1/2+z
loop_
_atom_site_type_symbol
_atom_site_label
_atom_site_fract_x
_atom_site_fract_y
_atom_site_fract_z
Si Si1 0.346319 0.329245 0.878648
Si Si2 0.764646 0.831448 0.544398
Si Si3 0.000000 0.869799 0.884951
Si Si4 0.750000 0.922586 0.250000
Si Si5 0.500000 0.750000 0.735763
Si Si6 0.000000 0.985369 0.766220
Si Si7 0.000000 0.628965 0.645445
O O1 0.500000 0.339992 0.876529
O O2 0.322337 0.250000 0.863417
O O3 0.279522 0.375675 0.819206
O O4 0.297586 0.343141 0.960211
O O5 0.764887 0.750000 0.556450
O O6 0.627806 0.861240 0.567338
O O7 0.874600 0.863469 0.595114
O O8 0.000000 0.808737 0.827202
O O9 0.000000 0.937450 0.836967
O O10 0.626622 0.969005 0.264647
O O11 0.500000 0.808721 0.798835
O O12 0.000000 0.937888 0.694490
#
# Coordination Sequence:
#
# PCOD9537753 Si02
#       7
#    16  16   8   8   4   8   8
#     4  10  22  42  72  98 119 154 206 268 324 380
#     4  11  20  38  64  97 130 161 205 269 317 367
#     4  11  23  39  56  94 137 169 212 253 310 360
#     4  12  23  48  64  91 124 166 212 262 320 363
#     4  10  20  34  60  90 126 172 206 252 300 350
#     4  11  26  41  61  88 133 176 214 256 293 380
#     4  11  21  37  62  92 125 177 216 243 306 370
#
# _framework density 17.941420999999998
#
# number of rings (size 3 to 8) (size 9 to 14) (size 15 to 20)
#    0.000    1.176    4.706    1.765    0.000    4.706 
#    0.000    8.235    0.000    0.000    0.000    0.000 
#    0.000    0.000    0.000    0.000    0.000    0.000 
#
# Total GULP energy -189464.866956 kJ/mol
# GULP energy per Si atom -5572.496087 kJ/mol
# Density = 1.790059 g / cm^3
# Si number density = 17.941421 Si / 1000 Ang^3
#
#
#
# Elastic Constant Matrix: (Units=GPa)
#
#
# Indices 1 2 3 4 5 6 
#
# 1 173.9837 92.7878 87.7795 0.0000 0.0000 0.0000
# 2 92.7878 125.1034 105.2419 0.0000 0.0000 0.0000
# 3 87.7795 105.2419 143.0695 0.0000 0.0000 0.0000
# 4 0.0000 0.0000 0.0000 -143.4139 0.0000 0.0000
# 5 0.0000 0.0000 0.0000 0.0000 10.3299 0.0000
# 6 0.0000 0.0000 0.0000 0.0000 0.0000 10.5801
#
#
#
# Elastic Compliance Matrix: (Units=1/GPa)
#
#
# Indices 1 2 3 4 5 6 
#
# 1 0.009668 -0.005721 -0.001724 0.000000 0.000000 0.000000
# 2 -0.005721 0.024355 -0.014406 0.000000 0.000000 0.000000
# 3 -0.001724 -0.014406 0.018644 0.000000 0.000000 0.000000
# 4 0.000000 0.000000 0.000000 -0.006973 0.000000 0.000000
# 5 0.000000 0.000000 0.000000 0.000000 0.096806 0.000000
# 6 0.000000 0.000000 0.000000 0.000000 0.000000 0.094517
#
#
# Mechanical properties :
#
#
# Convention : Reuss Voigt Hill
#
# Bulk Modulus (GPa) = 111.51946 112.64167 112.08057
# Shear Modulus (GPa) = 17.62384 -14.07762 1.77311
#
# Velocity S-wave (km/s) = 3.13757 -2.80419 0.99520
# Velocity P-wave (km/s) = 8.68437 7.24118 7.99540
#
# Compressibility (1/GPa) = 0.00896704
#
# Stress axis : x y z
#
# Youngs Moduli (GPa) = 103.43052 41.05934 53.63690
#
# Poissons Ratio (x) = 0.23489 0.09245
# Poissons Ratio (y) = 0.59171 0.77267
# Poissons Ratio (z) = 0.17828 0.59148
#
# Static dielectric constant tensor:
#      x y z
#    x 1.597310 0.000000 0.000000 
#    y 0.000000 1.595790 0.000000 
#    z 0.000000 0.000000 1.575740 
# 
# From -- ./inp_files/39271.got.cif
#   From: 2010.05.17/outbox.cif.g08.bks.cpg/sg74_20_cif.got.tgz:39271.got - 2010.06.03 17:57:02.
