data_PCOD9537061
_publ_section_title
;
Structure prediction by ZEFSAII (Michael W. Deem and Ramdas Pophale) SiO2 
 PCOD9537061
Probable space group: I M M A
;
_chemical_formula_sum "Si O2"
_cell_formula_units_Z 104
_cell_length_a 19.213743
_cell_length_b 9.420220
_cell_length_c 29.230124
_cell_angle_alpha 90.000000
_cell_angle_beta 90.000000
_cell_angle_gamma 90.000000
_cell_volume 5290.584808
_symmetry_space_group_name_H-M "I M M A"
_symmetry_group_IT_number 74
_symmetry_cell_setting 'orthorhombic'
loop_
_space_group_symop_operation_xyz
x,y,z
-x,1/2-y,z
x,-y,-z
-x,1/2+y,-z
-x,-y,-z
x,1/2+y,-z
-x,y,z
x,1/2-y,z
1/2+x,1/2+y,1/2+z
1/2-x,-y,1/2+z
1/2+x,1/2-y,1/2-z
1/2-x,y,1/2-z
1/2-x,1/2-y,1/2-z
1/2+x,y,1/2-z
1/2-x,1/2+y,1/2+z
1/2+x,-y,1/2+z
loop_
_atom_site_type_symbol
_atom_site_label
_atom_site_fract_x
_atom_site_fract_y
_atom_site_fract_z
Si Si1 0.500000 0.919159 0.452236
Si Si2 0.814863 0.086203 0.281082
Si Si3 0.599726 0.916465 0.046012
Si Si4 0.420851 0.412339 0.300754
Si Si5 0.079012 0.078414 0.358747
Si Si6 0.233631 0.587219 0.043306
Si Si7 0.371166 0.918825 0.385618
O O1 0.500000 0.750000 0.460556
O O2 0.432940 0.953172 0.421161
O O3 0.500000 0.000000 0.500000
O O4 0.793649 0.250000 0.291574
O O5 0.750000 0.025770 0.250000
O O6 0.878806 0.086315 0.245879
O O7 0.854669 0.031028 0.327099
O O8 0.578743 0.750000 0.045894
O O9 0.683713 0.917877 0.045023
O O10 0.580133 0.998649 0.092434
O O11 0.577307 0.000000 0.000000
O O12 0.500000 0.460477 0.294606
O O13 0.421864 0.250000 0.317328
O O14 0.383592 0.505998 0.338253
O O15 0.085456 0.250000 0.364578
O O16 0.000000 0.054557 0.339139
O O17 0.211198 0.750000 0.037355
O O18 0.199837 0.535296 0.090095
O O19 0.208183 0.500000 0.000000
O O20 0.371347 0.750000 0.378317
#
# Coordination Sequence:
#
# PCOD9537061 Si02
#       7
#     8  16  16  16  16  16  16
#     4  10  20  32  48  70 102 142 186 230 275 328
#     4   9  19  36  59  87 115 147 189 236 284 337
#     4  10  21  38  60  88 120 154 193 238 289 348
#     4  10  20  34  54  81 110 142 184 231 276 330
#     4  10  21  38  61  88 120 157 193 236 291 345
#     4   9  19  34  52  75 106 143 184 232 284 335
#     4  10  20  34  50  73 106 145 183 226 284 338
#
# _framework density 19.657561000000001
#
# number of rings (size 3 to 8) (size 9 to 14) (size 15 to 20)
#    0.000    2.308    0.769    1.385    2.154    4.308 
#    0.000    0.769    0.000    2.769    0.000    0.000 
#    0.000    0.000    0.000    0.000    0.000    0.000 
#
# Total GULP energy -289778.518730 kJ/mol
# GULP energy per Si atom -5572.663822 kJ/mol
# Density = 1.961282 g / cm^3
# Si number density = 19.657561 Si / 1000 Ang^3
#
#
#
# Elastic Constant Matrix: (Units=GPa)
#
#
# Indices 1 2 3 4 5 6 
#
# 1 80.3799 22.1349 35.8190 0.0000 0.0000 0.0000
# 2 22.1349 34.7413 34.7017 0.0000 0.0000 0.0000
# 3 35.8190 34.7017 103.2640 0.0000 0.0000 0.0000
# 4 0.0000 0.0000 0.0000 19.0893 0.0000 0.0000
# 5 0.0000 0.0000 0.0000 0.0000 22.7089 0.0000
# 6 0.0000 0.0000 0.0000 0.0000 0.0000 15.1051
#
#
#
# Elastic Compliance Matrix: (Units=1/GPa)
#
#
# Indices 1 2 3 4 5 6 
#
# 1 0.015739 -0.006886 -0.003145 0.000000 0.000000 0.000000
# 2 -0.006886 0.046341 -0.013184 0.000000 0.000000 0.000000
# 3 -0.003145 -0.013184 0.015205 0.000000 0.000000 0.000000
# 4 0.000000 0.000000 0.000000 0.052385 0.000000 0.000000
# 5 0.000000 0.000000 0.000000 0.000000 0.044036 0.000000
# 6 0.000000 0.000000 0.000000 0.000000 0.000000 0.066203
#
#
# Mechanical properties :
#
#
# Convention : Reuss Voigt Hill
#
# Bulk Modulus (GPa) = 32.41078 44.85516 38.63297
# Shear Modulus (GPa) = 16.85635 19.76263 18.30949
#
# Velocity S-wave (km/s) = 2.93149 3.17416 3.05523
# Velocity P-wave (km/s) = 5.28977 6.02507 5.66935
#
# Compressibility (1/GPa) = 0.03085393
#
# Stress axis : x y z
#
# Youngs Moduli (GPa) = 63.53733 21.57934 65.76601
#
# Poissons Ratio (x) = 0.14860 0.20685
# Poissons Ratio (y) = 0.43752 0.86707
# Poissons Ratio (z) = 0.19984 0.28451
#
# Static dielectric constant tensor:
#      x y z
#    x 1.760170 0.000000 0.000000 
#    y 0.000000 1.662820 0.000000 
#    z 0.000000 0.000000 1.728460 
# 
# From -- ./inp_files/64502.got.cif
#   From: 2010.05.17/outbox.cif.g08.bks.cpg/sg74_33_cif.got.tgz:64502.got - 2010.06.03 17:57:02.
