data_PCOD9537800
_publ_section_title
;
Structure prediction by ZEFSAII (Michael W. Deem and Ramdas Pophale) SiO2 
 PCOD9537800
Probable space group: I M M A
;
_chemical_formula_sum "Si O2"
_cell_formula_units_Z 88
_cell_length_a 8.700111
_cell_length_b 28.199219
_cell_length_c 19.953344
_cell_angle_alpha 90.000000
_cell_angle_beta 90.000000
_cell_angle_gamma 90.000000
_cell_volume 4895.280296
_symmetry_space_group_name_H-M "I M M A"
_symmetry_group_IT_number 74
_symmetry_cell_setting 'orthorhombic'
loop_
_space_group_symop_operation_xyz
x,y,z
-x,1/2-y,z
x,-y,-z
-x,1/2+y,-z
-x,-y,-z
x,1/2+y,-z
-x,y,z
x,1/2-y,z
1/2+x,1/2+y,1/2+z
1/2-x,-y,1/2+z
1/2+x,1/2-y,1/2-z
1/2-x,y,1/2-z
1/2-x,1/2-y,1/2-z
1/2+x,y,1/2-z
1/2-x,1/2+y,1/2+z
1/2+x,-y,1/2+z
loop_
_atom_site_type_symbol
_atom_site_label
_atom_site_fract_x
_atom_site_fract_y
_atom_site_fract_z
Si Si1 0.814704 0.374222 0.677049
Si Si2 0.183199 0.750000 0.675330
Si Si3 0.181743 0.665766 0.914034
Si Si4 0.186474 0.460398 0.589854
Si Si5 0.318697 0.305895 0.943930
Si Si6 0.685804 0.565548 0.937848
O O1 0.750000 0.364405 0.750000
O O2 0.761950 0.425143 0.647973
O O3 0.770714 0.335685 0.620931
O O4 0.000000 0.374390 0.680556
O O5 0.250000 0.750000 0.750000
O O6 0.239961 0.703630 0.635097
O O7 0.000000 0.750000 0.677318
O O8 0.241507 0.612078 0.905950
O O9 0.000000 0.668021 0.904971
O O10 0.226897 0.680249 0.989801
O O11 0.234535 0.515170 0.593864
O O12 0.228479 0.439247 0.516817
O O13 0.000000 0.460847 0.590118
O O14 0.500000 0.316612 0.956794
O O15 0.304426 0.250000 0.931735
O O16 0.500000 0.569156 0.934679
#
# Coordination Sequence:
#
# PCOD9537800 Si02
#       6
#    16   8  16  16  16  16
#     4  10  20  35  53  79 114 153 197 243 294 348
#     4  12  26  46  68  90 119 154 189 230 286 348
#     4  12  23  36  58  92 124 150 187 235 288 346
#     4   8  15  30  55  81 106 144 199 246 285 343
#     4  10  20  36  59  82 108 151 203 243 283 340
#     4   9  16  32  58  83 107 146 195 242 290 339
#
# _framework density 17.976497999999999
#
# number of rings (size 3 to 8) (size 9 to 14) (size 15 to 20)
#    0.000    2.000    2.727    3.545    0.000    1.091 
#    0.000    3.636    0.000    2.182    0.000    0.000 
#    0.000    0.000    0.000    0.000    0.000    0.000 
#
# Total GULP energy -245589.733418 kJ/mol
# GULP energy per Si atom -5581.584850 kJ/mol
# Density = 1.793558 g / cm^3
# Si number density = 17.976498 Si / 1000 Ang^3
#
#
#
# Elastic Constant Matrix: (Units=GPa)
#
#
# Indices 1 2 3 4 5 6 
#
# 1 71.7383 53.4724 41.6922 0.0000 0.0000 0.0000
# 2 53.4724 134.6145 57.4221 0.0000 0.0000 0.0000
# 3 41.6922 57.4221 105.8578 0.0000 0.0000 0.0000
# 4 0.0000 0.0000 0.0000 25.4676 0.0000 0.0000
# 5 0.0000 0.0000 0.0000 0.0000 26.5383 0.0000
# 6 0.0000 0.0000 0.0000 0.0000 0.0000 -6.2977
#
#
#
# Elastic Compliance Matrix: (Units=1/GPa)
#
#
# Indices 1 2 3 4 5 6 
#
# 1 0.021685 -0.006467 -0.005033 0.000000 0.000000 0.000000
# 2 -0.006467 0.011594 -0.003742 0.000000 0.000000 0.000000
# 3 -0.005033 -0.003742 0.013458 0.000000 0.000000 0.000000
# 4 0.000000 0.000000 0.000000 0.039266 0.000000 0.000000
# 5 0.000000 0.000000 0.000000 0.000000 0.037681 0.000000
# 6 0.000000 0.000000 0.000000 0.000000 0.000000 -0.158787
#
#
# Mechanical properties :
#
#
# Convention : Reuss Voigt Hill
#
# Bulk Modulus (GPa) = 61.52348 68.59823 65.06085
# Shear Modulus (GPa) = 6266.91784 19.78320 3143.35052
#
# Velocity S-wave (km/s) = 59.10788 3.32098 41.86150
# Velocity P-wave (km/s) = 68.50270 7.27654 48.71123
#
# Compressibility (1/GPa) = 0.01625396
#
# Stress axis : x y z
#
# Youngs Moduli (GPa) = 46.11542 86.25406 74.30259
#
# Poissons Ratio (x) = 0.55781 0.37393
# Poissons Ratio (y) = 0.29823 0.27803
# Poissons Ratio (z) = 0.23208 0.32275
#
# Static dielectric constant tensor:
#      x y z
#    x 1.611800 0.000000 0.000000 
#    y 0.000000 1.634790 0.000000 
#    z 0.000000 0.000000 1.584050 
# 
# From -- ./inp_files/40079.got.cif
#   From: 2010.05.17/outbox.cif.g08.bks.cpg/sg74_21_cif.got.tgz:40079.got - 2010.06.03 17:57:02.
