data_PCOD9537403
_publ_section_title
;
Structure prediction by ZEFSAII (Michael W. Deem and Ramdas Pophale) SiO2 
 PCOD9537403
Probable space group: I M M A
;
_chemical_formula_sum "Si O2"
_cell_formula_units_Z 120
_cell_length_a 7.711247
_cell_length_b 28.114905
_cell_length_c 28.176577
_cell_angle_alpha 90.000000
_cell_angle_beta 90.000000
_cell_angle_gamma 90.000000
_cell_volume 6108.709418
_symmetry_space_group_name_H-M "I M M A"
_symmetry_group_IT_number 74
_symmetry_cell_setting 'orthorhombic'
loop_
_space_group_symop_operation_xyz
x,y,z
-x,1/2-y,z
x,-y,-z
-x,1/2+y,-z
-x,-y,-z
x,1/2+y,-z
-x,y,z
x,1/2-y,z
1/2+x,1/2+y,1/2+z
1/2-x,-y,1/2+z
1/2+x,1/2-y,1/2-z
1/2-x,y,1/2-z
1/2-x,1/2-y,1/2-z
1/2+x,y,1/2-z
1/2-x,1/2+y,1/2+z
1/2+x,-y,1/2+z
loop_
_atom_site_type_symbol
_atom_site_label
_atom_site_fract_x
_atom_site_fract_y
_atom_site_fract_z
Si Si1 0.210626 0.849078 0.529153
Si Si2 0.706675 0.959789 0.195553
Si Si3 0.798487 0.448710 0.511043
Si Si4 0.794586 0.197868 0.931766
Si Si5 0.796393 0.598248 0.105321
Si Si6 0.791572 0.567221 0.695281
Si Si7 0.787451 0.841936 0.636941
Si Si8 0.208274 0.750000 0.694681
O O1 0.273667 0.902196 0.515387
O O2 0.270272 0.814364 0.487325
O O3 0.265343 0.836735 0.582270
O O4 0.000000 0.849015 0.527667
O O5 0.500000 0.960833 0.190770
O O6 0.750000 0.948302 0.250000
O O7 0.774578 0.922344 0.157565
O O8 0.773999 0.013614 0.185944
O O9 0.719171 0.500000 0.500000
O O10 0.789346 0.436435 0.566670
O O11 0.000000 0.451116 0.496044
O O12 0.720390 0.250000 0.920962
O O13 0.726226 0.151625 0.903607
O O14 0.000000 0.199979 0.922099
O O15 0.000000 0.598933 0.093483
O O16 0.750000 0.579168 0.750000
O O17 0.728780 0.608413 0.660265
O O18 0.000000 0.565619 0.691053
O O19 0.728520 0.797564 0.668556
O O20 0.000000 0.842474 0.637460
O O21 0.250000 0.750000 0.750000
O O22 0.000000 0.750000 0.690120
#
# Coordination Sequence:
#
# PCOD9537403 Si02
#       8
#    16  16  16  16  16  16  16   8
#     4   9  18  31  49  74 100 128 168 210 250 299
#     4  10  20  34  55  79 107 138 172 210 253 303
#     4   9  18  31  50  74 102 136 173 209 251 305
#     4   9  19  36  55  74 102 136 167 206 256 307
#     4  10  20  34  53  77 106 137 172 210 256 309
#     4   9  18  32  50  70  96 129 166 207 251 300
#     4   9  18  31  49  71  94 126 166 210 256 301
#     4  10  20  34  50  68  92 124 166 214 263 306
#
# _framework density 19.644083999999999
#
# number of rings (size 3 to 8) (size 9 to 14) (size 15 to 20)
#    0.000    2.667    0.000    1.200    2.800    1.600 
#    0.000    1.333    0.000    0.400    0.000    0.000 
#    0.000    0.000    0.000    0.000    0.000    0.000 
#
# Total GULP energy -334739.995216 kJ/mol
# GULP energy per Si atom -5578.999920 kJ/mol
# Density = 1.959937 g / cm^3
# Si number density = 19.644084 Si / 1000 Ang^3
#
#
#
# Elastic Constant Matrix: (Units=GPa)
#
#
# Indices 1 2 3 4 5 6 
#
# 1 32.9087 1.2684 -12.0107 0.0000 0.0000 0.0000
# 2 1.2684 140.1230 72.1777 0.0000 0.0000 0.0000
# 3 -12.0107 72.1777 111.2583 0.0000 0.0000 0.0000
# 4 0.0000 0.0000 0.0000 -3.1369 0.0000 0.0000
# 5 0.0000 0.0000 0.0000 0.0000 24.1801 0.0000
# 6 0.0000 0.0000 0.0000 0.0000 0.0000 6.4551
#
#
#
# Elastic Compliance Matrix: (Units=1/GPa)
#
#
# Indices 1 2 3 4 5 6 
#
# 1 0.032539 -0.003160 0.005563 0.000000 0.000000 0.000000
# 2 -0.003160 0.011025 -0.007494 0.000000 0.000000 0.000000
# 3 0.005563 -0.007494 0.014450 0.000000 0.000000 0.000000
# 4 0.000000 0.000000 0.000000 -0.318785 0.000000 0.000000
# 5 0.000000 0.000000 0.000000 0.000000 0.041356 0.000000
# 6 0.000000 0.000000 0.000000 0.000000 0.000000 0.154917
#
#
# Mechanical properties :
#
#
# Convention : Reuss Voigt Hill
#
# Bulk Modulus (GPa) = 20.90623 45.24007 33.07315
# Shear Modulus (GPa) = -130.30313 20.35665 -54.97324
#
# Velocity S-wave (km/s) = -8.15328 3.22261 -5.29579
# Velocity P-wave (km/s) = 8.83001 6.07675 4.53002
#
# Compressibility (1/GPa) = 0.04783263
#
# Stress axis : x y z
#
# Youngs Moduli (GPa) = 30.73226 90.70183 69.20429
#
# Poissons Ratio (x) = 0.28661 -0.38496
# Poissons Ratio (y) = 0.09711 0.51859
# Poissons Ratio (z) = -0.17095 0.67968
#
# Static dielectric constant tensor:
#      x y z
#    x 1.751730 0.000000 0.000000 
#    y 0.000000 1.717650 0.000000 
#    z 0.000000 0.000000 1.570640 
# 
# From -- ./inp_files/65076.got.cif
#   From: 2010.05.17/outbox.cif.g08.bks.cpg/sg74_33_cif.got.tgz:65076.got - 2010.06.03 17:57:02.
