data_PCOD9537170
_publ_section_title
;
Structure prediction by ZEFSAII (Michael W. Deem and Ramdas Pophale) SiO2 
 PCOD9537170
Probable space group: I M M A
;
_chemical_formula_sum "Si O2"
_cell_formula_units_Z 96
_cell_length_a 24.368179
_cell_length_b 7.272861
_cell_length_c 22.437922
_cell_angle_alpha 90.000000
_cell_angle_beta 90.000000
_cell_angle_gamma 90.000000
_cell_volume 3976.591661
_symmetry_space_group_name_H-M "I M M A"
_symmetry_group_IT_number 74
_symmetry_cell_setting 'orthorhombic'
loop_
_space_group_symop_operation_xyz
x,y,z
-x,1/2-y,z
x,-y,-z
-x,1/2+y,-z
-x,-y,-z
x,1/2+y,-z
-x,y,z
x,1/2-y,z
1/2+x,1/2+y,1/2+z
1/2-x,-y,1/2+z
1/2+x,1/2-y,1/2-z
1/2-x,y,1/2-z
1/2-x,1/2-y,1/2-z
1/2+x,y,1/2-z
1/2-x,1/2+y,1/2+z
1/2+x,-y,1/2+z
loop_
_atom_site_type_symbol
_atom_site_label
_atom_site_fract_x
_atom_site_fract_y
_atom_site_fract_z
Si Si1 0.263300 0.968000 0.064792
Si Si2 0.000000 0.537659 0.264953
Si Si3 0.880935 0.025457 0.596486
Si Si4 0.166831 0.974942 0.146443
Si Si5 0.381095 0.025947 0.765812
Si Si6 0.000000 0.962536 0.410500
Si Si7 0.061480 0.030995 0.929358
O O1 0.268096 0.750000 0.074265
O O2 0.325511 0.039573 0.065504
O O3 0.222168 0.038527 0.114711
O O4 0.238188 0.000000 0.000000
O O5 0.058260 0.461176 0.246190
O O6 0.000000 0.535890 0.337627
O O7 0.000000 0.750000 0.245340
O O8 0.883998 0.250000 0.594496
O O9 0.873350 0.972210 0.665901
O O10 0.940310 0.959114 0.573285
O O11 0.167198 0.750000 0.144785
O O12 0.161127 0.029396 0.215234
O O13 0.112955 0.035056 0.109446
O O14 0.382338 0.250000 0.766887
O O15 0.000000 0.750000 0.429922
O O16 0.059745 0.250000 0.920014
O O17 0.000000 0.960823 0.914520
O O18 0.070489 0.000000 0.000000
#
# Coordination Sequence:
#
# PCOD9537170 Si02
#       7
#    16   8  16  16  16   8  16
#     4  10  20  33  47  64  87 117 150 182 217 257
#     4   7  10  16  30  53  84 115 137 157 202 265
#     4   8  14  25  42  64  90 116 141 172 216 267
#     4   9  17  26  39  61  87 114 144 179 218 258
#     4   8  13  21  36  61  89 115 138 171 219 266
#     4   7  10  20  37  59  86 113 135 163 208 259
#     4   9  17  28  41  58  82 113 148 184 216 247
#
# _framework density 24.141278
#
# number of rings (size 3 to 8) (size 9 to 14) (size 15 to 20)
#    0.000    3.500    0.000    2.500    1.167    0.667 
#    0.000    3.750    0.000    0.000    0.000    3.500 
#    0.000    0.000    0.000    0.000    0.000    0.000 
#
# Total GULP energy -267910.535366 kJ/mol
# GULP energy per Si atom -5581.469487 kJ/mol
# Density = 2.408633 g / cm^3
# Si number density = 24.141278 Si / 1000 Ang^3
#
#
#
# Elastic Constant Matrix: (Units=GPa)
#
#
# Indices 1 2 3 4 5 6 
#
# 1 114.6216 7.7583 46.9384 0.0000 0.0000 0.0000
# 2 7.7583 107.8562 -7.7542 0.0000 0.0000 0.0000
# 3 46.9384 -7.7542 87.6950 0.0000 0.0000 0.0000
# 4 0.0000 0.0000 0.0000 -2.0901 0.0000 0.0000
# 5 0.0000 0.0000 0.0000 0.0000 69.1130 0.0000
# 6 0.0000 0.0000 0.0000 0.0000 0.0000 -30.6918
#
#
#
# Elastic Compliance Matrix: (Units=1/GPa)
#
#
# Indices 1 2 3 4 5 6 
#
# 1 0.011341 -0.001260 -0.006182 0.000000 0.000000 0.000000
# 2 -0.001260 0.009471 0.001512 0.000000 0.000000 0.000000
# 3 -0.006182 0.001512 0.014846 0.000000 0.000000 0.000000
# 4 0.000000 0.000000 0.000000 -0.478444 0.000000 0.000000
# 5 0.000000 0.000000 0.000000 0.000000 0.014469 0.000000
# 6 0.000000 0.000000 0.000000 0.000000 0.000000 -0.032582
#
#
# Mechanical properties :
#
#
# Convention : Reuss Voigt Hill
#
# Bulk Modulus (GPa) = 42.02080 44.89530 43.45805
# Shear Modulus (GPa) = -11.33511 24.81490 6.73990
#
# Velocity S-wave (km/s) = -2.16922 3.20957 1.67270
# Velocity P-wave (km/s) = 3.34215 5.68968 4.66596
#
# Compressibility (1/GPa) = 0.02379774
#
# Stress axis : x y z
#
# Youngs Moduli (GPa) = 88.17477 105.58597 67.36007
#
# Poissons Ratio (x) = 0.13306 0.41640
# Poissons Ratio (y) = 0.11112 -0.10185
# Poissons Ratio (z) = 0.54507 -0.15964
#
# Static dielectric constant tensor:
#      x y z
#    x 1.922680 0.000000 0.000000 
#    y 0.000000 2.005540 0.000000 
#    z 0.000000 0.000000 1.875420 
# 
# From -- ./inp_files/59007.got.cif
#   From: 2010.05.17/outbox.cif.g08.bks.cpg/sg74_30_cif.got.tgz:59007.got - 2010.06.03 17:57:02.
