data_PCOD9537096
_publ_section_title
;
Structure prediction by ZEFSAII (Michael W. Deem and Ramdas Pophale) SiO2 
 PCOD9537096
Probable space group: I M M A
;
_chemical_formula_sum "Si O2"
_cell_formula_units_Z 96
_cell_length_a 24.285973
_cell_length_b 7.627832
_cell_length_c 26.337053
_cell_angle_alpha 90.000000
_cell_angle_beta 90.000000
_cell_angle_gamma 90.000000
_cell_volume 4878.921212
_symmetry_space_group_name_H-M "I M M A"
_symmetry_group_IT_number 74
_symmetry_cell_setting 'orthorhombic'
loop_
_space_group_symop_operation_xyz
x,y,z
-x,1/2-y,z
x,-y,-z
-x,1/2+y,-z
-x,-y,-z
x,1/2+y,-z
-x,y,z
x,1/2-y,z
1/2+x,1/2+y,1/2+z
1/2-x,-y,1/2+z
1/2+x,1/2-y,1/2-z
1/2-x,y,1/2-z
1/2-x,1/2-y,1/2-z
1/2+x,y,1/2-z
1/2-x,1/2+y,1/2+z
1/2+x,-y,1/2+z
loop_
_atom_site_type_symbol
_atom_site_label
_atom_site_fract_x
_atom_site_fract_y
_atom_site_fract_z
Si Si1 0.871671 0.961093 0.155144
Si Si2 0.749689 0.539782 0.691939
Si Si3 0.063329 0.537449 0.255255
Si Si4 0.062410 0.539214 0.557989
Si Si5 0.637445 0.542919 0.852325
Si Si6 0.436980 0.960541 0.442667
O O1 0.875517 0.750000 0.154707
O O2 0.907536 0.022726 0.203350
O O3 0.897733 0.025912 0.102336
O O4 0.808282 0.005412 0.165206
O O5 0.756218 0.750000 0.695429
O O6 0.750000 0.472019 0.750000
O O7 0.802644 0.469555 0.661764
O O8 0.063561 0.750000 0.255238
O O9 0.098616 0.477270 0.303275
O O10 0.000000 0.479490 0.258228
O O11 0.077586 0.500000 0.500000
O O12 0.060170 0.750000 0.563406
O O13 0.105295 0.468947 0.599151
O O14 0.000000 0.472721 0.566758
O O15 0.644922 0.750000 0.862094
O O16 0.500000 0.026457 0.436909
O O17 0.439323 0.750000 0.438233
O O18 0.418450 0.000000 0.500000
#
# Coordination Sequence:
#
# PCOD9537096 Si02
#       6
#    16  16  16  16  16  16
#     4  10  20  34  53  76 104 137 173 212 257 308
#     4  10  20  35  53  74 103 140 176 212 253 300
#     4  10  20  32  49  76 106 133 164 207 257 307
#     4   9  18  33  53  75  99 129 164 204 251 300
#     4  10  20  35  53  74 102 135 171 209 254 302
#     4   9  18  34  55  78 105 137 173 215 263 313
#
# _framework density 19.676480000000002
#
# number of rings (size 3 to 8) (size 9 to 14) (size 15 to 20)
#    0.000    2.333    1.667    1.000    0.000    5.333 
#    0.000    2.500    0.000    7.000    0.000    0.000 
#    0.000    0.000    0.000    0.000    0.000    0.000 
#
# Total GULP energy -267956.397833 kJ/mol
# GULP energy per Si atom -5582.424955 kJ/mol
# Density = 1.963170 g / cm^3
# Si number density = 19.676480 Si / 1000 Ang^3
#
#
#
# Elastic Constant Matrix: (Units=GPa)
#
#
# Indices 1 2 3 4 5 6 
#
# 1 150.0301 -7.4990 89.8188 0.0000 0.0000 0.0000
# 2 -7.4990 35.8593 -7.4940 0.0000 0.0000 0.0000
# 3 89.8188 -7.4940 151.7626 0.0000 0.0000 0.0000
# 4 0.0000 0.0000 0.0000 19.0555 0.0000 0.0000
# 5 0.0000 0.0000 0.0000 0.0000 14.8985 0.0000
# 6 0.0000 0.0000 0.0000 0.0000 0.0000 -84.7099
#
#
#
# Elastic Compliance Matrix: (Units=1/GPa)
#
#
# Indices 1 2 3 4 5 6 
#
# 1 0.010351 0.000894 -0.006082 0.000000 0.000000 0.000000
# 2 0.000894 0.028255 0.000866 0.000000 0.000000 0.000000
# 3 -0.006082 0.000866 0.010232 0.000000 0.000000 0.000000
# 4 0.000000 0.000000 0.000000 0.052478 0.000000 0.000000
# 5 0.000000 0.000000 0.000000 0.000000 0.067121 0.000000
# 6 0.000000 0.000000 0.000000 0.000000 0.000000 -0.011805
#
#
# Mechanical properties :
#
#
# Convention : Reuss Voigt Hill
#
# Bulk Modulus (GPa) = 24.87979 54.14483 39.51231
# Shear Modulus (GPa) = 27.98401 7.37058 17.67730
#
# Velocity S-wave (km/s) = 3.77531 1.93753 3.00058
# Velocity P-wave (km/s) = 5.62813 5.70812 5.66826
#
# Compressibility (1/GPa) = 0.04019327
#
# Stress axis : x y z
#
# Youngs Moduli (GPa) = 96.60740 35.39230 97.73615
#
# Poissons Ratio (x) = -0.03163 0.59444
# Poissons Ratio (y) = -0.08633 -0.08467
# Poissons Ratio (z) = 0.58757 -0.03066
#
# Static dielectric constant tensor:
#      x y z
#    x 1.678450 0.000000 0.000000 
#    y 0.000000 1.828590 0.000000 
#    z 0.000000 0.000000 1.671250 
# 
# From -- ./inp_files/57240.got.cif
#   From: 2010.05.17/outbox.cif.g08.bks.cpg/sg74_29_cif.got.tgz:57240.got - 2010.06.03 17:57:02.
