data_PCOD9537440
_publ_section_title
;
Structure prediction by ZEFSAII (Michael W. Deem and Ramdas Pophale) SiO2 
 PCOD9537440
Probable space group: I M M A
;
_chemical_formula_sum "Si O2"
_cell_formula_units_Z 80
_cell_length_a 8.969066
_cell_length_b 28.171837
_cell_length_c 18.087449
_cell_angle_alpha 90.000000
_cell_angle_beta 90.000000
_cell_angle_gamma 90.000000
_cell_volume 4570.247359
_symmetry_space_group_name_H-M "I M M A"
_symmetry_group_IT_number 74
_symmetry_cell_setting 'orthorhombic'
loop_
_space_group_symop_operation_xyz
x,y,z
-x,1/2-y,z
x,-y,-z
-x,1/2+y,-z
-x,-y,-z
x,1/2+y,-z
-x,y,z
x,1/2-y,z
1/2+x,1/2+y,1/2+z
1/2-x,-y,1/2+z
1/2+x,1/2-y,1/2-z
1/2-x,y,1/2-z
1/2-x,1/2-y,1/2-z
1/2+x,y,1/2-z
1/2-x,1/2+y,1/2+z
1/2+x,-y,1/2+z
loop_
_atom_site_type_symbol
_atom_site_label
_atom_site_fract_x
_atom_site_fract_y
_atom_site_fract_z
Si Si1 0.676451 0.392535 0.452381
Si Si2 0.170613 0.807639 0.175286
Si Si3 0.831110 0.541383 0.437769
Si Si4 0.822730 0.694237 0.480553
Si Si5 0.320459 0.039272 0.169720
O O1 0.500000 0.392589 0.442957
O O2 0.722387 0.419961 0.527947
O O3 0.741449 0.339977 0.461847
O O4 0.753883 0.421560 0.386116
O O5 0.165835 0.750000 0.180153
O O6 0.250000 0.824962 0.250000
O O7 0.262380 0.818089 0.101338
O O8 0.000000 0.824377 0.169681
O O9 0.838070 0.500000 0.500000
O O10 0.785182 0.512755 0.364816
O O11 0.000000 0.560489 0.429904
O O12 0.791013 0.750000 0.493057
O O13 0.000000 0.687280 0.483509
O O14 0.500000 0.043368 0.170881
O O15 0.250000 0.044520 0.250000
#
# Coordination Sequence:
#
# PCOD9537440 Si02
#       5
#    16  16  16  16  16
#     4  11  21  33  53  79 107 139 176 217 261 313
#     4   9  16  27  44  66  92 122 159 204 253 303
#     4   8  16  32  52  74 102 134 166 204 251 303
#     4  10  20  34  52  73 100 138 183 227 268 311
#     4  10  20  35  56  81 109 139 172 212 259 312
#
# _framework density 17.504522000000001
#
# number of rings (size 3 to 8) (size 9 to 14) (size 15 to 20)
#    0.000    2.400    0.000    4.800    0.000    8.000 
#    0.000    1.000    0.000    3.000    0.000    0.000 
#    0.000    0.000    0.000    0.000    0.000    0.000 
#
# Total GULP energy -223084.076012 kJ/mol
# GULP energy per Si atom -5577.101900 kJ/mol
# Density = 1.746468 g / cm^3
# Si number density = 17.504522 Si / 1000 Ang^3
#
#
#
# Elastic Constant Matrix: (Units=GPa)
#
#
# Indices 1 2 3 4 5 6 
#
# 1 114.2130 49.2356 52.8830 0.0000 0.0000 0.0000
# 2 49.2356 68.0832 46.6794 0.0000 0.0000 0.0000
# 3 52.8830 46.6794 105.5236 0.0001 0.0000 0.0000
# 4 0.0000 0.0000 0.0001 16.7666 0.0000 0.0000
# 5 0.0000 0.0000 0.0000 0.0000 29.2530 0.0000
# 6 0.0000 0.0000 0.0000 0.0000 0.0000 21.9297
#
#
#
# Elastic Compliance Matrix: (Units=1/GPa)
#
#
# Indices 1 2 3 4 5 6 
#
# 1 0.013581 -0.007399 -0.003533 0.000000 0.000000 0.000000
# 2 -0.007399 0.025113 -0.007401 0.000000 0.000000 0.000000
# 3 -0.003533 -0.007401 0.014521 0.000000 0.000000 0.000000
# 4 0.000000 0.000000 0.000000 0.059643 0.000000 0.000000
# 5 0.000000 0.000000 0.000000 0.000000 0.034185 0.000000
# 6 0.000000 0.000000 0.000000 0.000000 0.000000 0.045600
#
#
# Mechanical properties :
#
#
# Convention : Reuss Voigt Hill
#
# Bulk Modulus (GPa) = 60.42700 65.04620 62.73660
# Shear Modulus (GPa) = 21.29247 22.85797 22.07522
#
# Velocity S-wave (km/s) = 3.49147 3.61755 3.55507
# Velocity P-wave (km/s) = 7.13089 7.39522 7.26426
#
# Compressibility (1/GPa) = 0.01654889
#
# Stress axis : x y z
#
# Youngs Moduli (GPa) = 73.63187 39.82021 68.86564
#
# Poissons Ratio (x) = 0.29463 0.24331
# Poissons Ratio (y) = 0.54480 0.50967
# Poissons Ratio (z) = 0.26015 0.29471
#
# Static dielectric constant tensor:
#      x y z
#    x 1.585680 0.000000 0.000000 
#    y 0.000000 1.616170 0.000000 
#    z 0.000000 0.000000 1.586730 
# 
# From -- ./inp_files/39732.got.cif
#   From: 2010.05.17/outbox.cif.g08.bks.cpg/sg74_20_cif.got.tgz:39732.got - 2010.06.03 17:57:02.
