data_PCOD9537942
_publ_section_title
;
Structure prediction by ZEFSAII (Michael W. Deem and Ramdas Pophale) SiO2 
 PCOD9537942
Probable space group: I M M A
;
_chemical_formula_sum "Si O2"
_cell_formula_units_Z 104
_cell_length_a 26.524785
_cell_length_b 8.838031
_cell_length_c 20.986073
_cell_angle_alpha 90.000000
_cell_angle_beta 90.000000
_cell_angle_gamma 90.000000
_cell_volume 4919.699451
_symmetry_space_group_name_H-M "I M M A"
_symmetry_group_IT_number 74
_symmetry_cell_setting 'orthorhombic'
loop_
_space_group_symop_operation_xyz
x,y,z
-x,1/2-y,z
x,-y,-z
-x,1/2+y,-z
-x,-y,-z
x,1/2+y,-z
-x,y,z
x,1/2-y,z
1/2+x,1/2+y,1/2+z
1/2-x,-y,1/2+z
1/2+x,1/2-y,1/2-z
1/2-x,y,1/2-z
1/2-x,1/2-y,1/2-z
1/2+x,y,1/2-z
1/2-x,1/2+y,1/2+z
1/2+x,-y,1/2+z
loop_
_atom_site_type_symbol
_atom_site_label
_atom_site_fract_x
_atom_site_fract_y
_atom_site_fract_z
Si Si1 0.659266 0.422612 0.749357
Si Si2 0.943289 0.567355 0.792097
Si Si3 0.000000 0.931194 0.428971
Si Si4 0.411085 0.070267 0.435099
Si Si5 0.294348 0.070916 0.135076
Si Si6 0.391973 0.932115 0.070812
Si Si7 0.807866 0.422679 0.897994
O O1 0.657096 0.250000 0.773536
O O2 0.603094 0.492388 0.745478
O O3 0.697859 0.516273 0.792398
O O4 0.678752 0.420094 0.677122
O O5 0.938546 0.750000 0.787671
O O6 0.936366 0.526629 0.867455
O O7 0.000000 0.524235 0.772032
O O8 0.053522 0.971982 0.398593
O O9 0.000000 0.750000 0.435917
O O10 0.000000 0.000000 0.500000
O O11 0.413693 0.250000 0.439897
O O12 0.432634 0.000000 0.500000
O O13 0.353048 0.016200 0.429191
O O14 0.290062 0.250000 0.131737
O O15 0.345706 0.009953 0.104769
O O16 0.246957 0.996615 0.099475
O O17 0.386414 0.750000 0.069299
O O18 0.392992 0.000000 0.000000
O O19 0.807705 0.250000 0.921806
#
# Coordination Sequence:
#
# PCOD9537942 Si02
#       7
#    16  16   8  16  16  16  16
#     4  10  21  38  59  83 110 144 186 232 282 335
#     4   9  19  37  59  83 115 153 191 235 287 338
#     4   8  16  32  56  78 100 134 170 208 255 308
#     4  10  20  35  56  84 117 153 193 235 281 338
#     4  12  24  37  56  84 113 146 186 228 277 334
#     4  10  20  37  58  82 111 142 179 223 272 325
#     4  10  21  38  59  81 109 145 185 232 283 334
#
# _framework density 21.139502
#
# number of rings (size 3 to 8) (size 9 to 14) (size 15 to 20)
#    0.000    2.000    0.000    3.692    0.000    6.154 
#    1.385    3.077    0.000    0.000    0.000    0.000 
#    0.000    0.000    0.000    0.000    0.000    0.000 
#
# Total GULP energy -290463.659934 kJ/mol
# GULP energy per Si atom -5585.839614 kJ/mol
# Density = 2.109139 g / cm^3
# Si number density = 21.139502 Si / 1000 Ang^3
#
#
#
# Elastic Constant Matrix: (Units=GPa)
#
#
# Indices 1 2 3 4 5 6 
#
# 1 117.5935 16.3382 -9.8439 0.0000 0.0000 0.0000
# 2 16.3382 58.6669 -5.0513 0.0000 0.0000 0.0000
# 3 -9.8439 -5.0513 28.7724 0.0000 0.0000 0.0000
# 4 0.0000 0.0000 0.0000 28.3414 0.0000 0.0000
# 5 0.0000 0.0000 0.0000 0.0000 15.8187 0.0000
# 6 0.0000 0.0000 0.0000 0.0000 0.0000 26.4955
#
#
#
# Elastic Compliance Matrix: (Units=1/GPa)
#
#
# Indices 1 2 3 4 5 6 
#
# 1 0.009047 -0.002288 0.002694 0.000000 0.000000 0.000000
# 2 -0.002288 0.017885 0.002357 0.000000 0.000000 0.000000
# 3 0.002694 0.002357 0.036091 0.000000 0.000000 0.000000
# 4 0.000000 0.000000 0.000000 0.035284 0.000000 0.000000
# 5 0.000000 0.000000 0.000000 0.000000 0.063216 0.000000
# 6 0.000000 0.000000 0.000000 0.000000 0.000000 0.037742
#
#
# Mechanical properties :
#
#
# Convention : Reuss Voigt Hill
#
# Bulk Modulus (GPa) = 14.58780 23.10207 18.84494
# Shear Modulus (GPa) = 23.08511 27.70376 25.39443
#
# Velocity S-wave (km/s) = 3.30818 3.62404 3.46971
# Velocity P-wave (km/s) = 4.63765 5.33513 4.99857
#
# Compressibility (1/GPa) = 0.06855044
#
# Stress axis : x y z
#
# Youngs Moduli (GPa) = 110.53132 55.91136 27.70773
#
# Poissons Ratio (x) = 0.12790 -0.07464
# Poissons Ratio (y) = 0.25286 -0.06532
# Poissons Ratio (z) = -0.29774 -0.13180
#
# Static dielectric constant tensor:
#      x y z
#    x 1.765860 0.000000 0.000000 
#    y 0.000000 1.716070 0.000000 
#    z 0.000000 0.000000 1.840750 
# 
# From -- ./inp_files/55176.got.cif
#   From: 2010.05.17/outbox.cif.g08.bks.cpg/sg74_28_cif.got.tgz:55176.got - 2010.06.03 17:57:02.
