data_PCOD9537360
_publ_section_title
;
Structure prediction by ZEFSAII (Michael W. Deem and Ramdas Pophale) SiO2 
 PCOD9537360
Probable space group: I M M A
;
_chemical_formula_sum "Si O2"
_cell_formula_units_Z 96
_cell_length_a 15.624113
_cell_length_b 21.273202
_cell_length_c 14.932138
_cell_angle_alpha 90.000000
_cell_angle_beta 90.000000
_cell_angle_gamma 90.000000
_cell_volume 4963.068053
_symmetry_space_group_name_H-M "I M M A"
_symmetry_group_IT_number 74
_symmetry_cell_setting 'orthorhombic'
loop_
_space_group_symop_operation_xyz
x,y,z
-x,1/2-y,z
x,-y,-z
-x,1/2+y,-z
-x,-y,-z
x,1/2+y,-z
-x,y,z
x,1/2-y,z
1/2+x,1/2+y,1/2+z
1/2-x,-y,1/2+z
1/2+x,1/2-y,1/2-z
1/2-x,y,1/2-z
1/2-x,1/2-y,1/2-z
1/2+x,y,1/2-z
1/2-x,1/2+y,1/2+z
1/2+x,-y,1/2+z
loop_
_atom_site_type_symbol
_atom_site_label
_atom_site_fract_x
_atom_site_fract_y
_atom_site_fract_z
Si Si1 0.406722 0.035305 0.095199
Si Si2 0.773229 0.178514 0.970312
Si Si3 0.403964 0.006939 0.708159
Si Si4 0.717872 0.441918 0.427549
Si Si5 0.097158 0.847123 0.180609
Si Si6 0.406164 0.824145 0.108905
O O1 0.500000 0.067721 0.103952
O O2 0.399425 0.991620 0.183713
O O3 0.316819 0.070376 0.097688
O O4 0.408011 0.000000 0.000000
O O5 0.767849 0.250000 0.006886
O O6 0.830727 0.181417 0.881354
O O7 0.678676 0.154028 0.941413
O O8 0.813453 0.123912 0.031364
O O9 0.500000 0.984990 0.685129
O O10 0.335034 0.964331 0.658551
O O11 0.394384 0.077764 0.674373
O O12 0.713546 0.500000 0.500000
O O13 0.106823 0.830705 0.284884
O O14 0.000000 0.829230 0.154505
O O15 0.500000 0.852657 0.086983
O O16 0.410780 0.750000 0.089465
#
# Coordination Sequence:
#
# PCOD9537360 Si02
#       6
#    16  16  16  16  16  16
#     4   9  20  36  57  87 116 143 183 240 298 345
#     4  11  23  37  54  81 117 155 196 239 283 336
#     4  10  21  37  58  85 117 152 189 236 288 341
#     4  11  22  36  57  84 115 156 195 231 279 337
#     4  10  20  33  54  81 115 155 191 231 285 347
#     4   9  19  34  52  77 113 156 193 228 282 351
#
# _framework density 19.342874999999999
#
# number of rings (size 3 to 8) (size 9 to 14) (size 15 to 20)
#    0.000    2.000    1.667    1.500    4.667    5.333 
#    0.000    0.000    0.000    2.000    0.000    2.333 
#    0.000    0.000    0.000    0.000    0.000    0.000 
#
# Total GULP energy -267579.054304 kJ/mol
# GULP energy per Si atom -5574.563631 kJ/mol
# Density = 1.929885 g / cm^3
# Si number density = 19.342875 Si / 1000 Ang^3
#
#
#
# Elastic Constant Matrix: (Units=GPa)
#
#
# Indices 1 2 3 4 5 6 
#
# 1 98.0942 32.1467 45.2738 0.0000 0.0000 0.0000
# 2 32.1467 69.9552 30.0692 0.0000 0.0000 0.0000
# 3 45.2738 30.0692 68.7628 0.0000 -0.0001 0.0000
# 4 0.0000 0.0000 0.0000 24.9425 -0.0001 0.0000
# 5 0.0000 0.0000 -0.0001 -0.0001 94.9465 0.0000
# 6 0.0000 0.0000 0.0000 0.0000 0.0000 12.9039
#
#
#
# Elastic Compliance Matrix: (Units=1/GPa)
#
#
# Indices 1 2 3 4 5 6 
#
# 1 0.015244 -0.003314 -0.008587 0.000000 0.000000 0.000000
# 2 -0.003314 0.018324 -0.005831 0.000000 0.000000 0.000000
# 3 -0.008587 -0.005831 0.022747 0.000000 0.000000 0.000000
# 4 0.000000 0.000000 0.000000 0.040092 0.000000 0.000000
# 5 0.000000 0.000000 0.000000 0.000000 0.010532 0.000000
# 6 0.000000 0.000000 0.000000 0.000000 0.000000 0.077496
#
#
# Mechanical properties :
#
#
# Convention : Reuss Voigt Hill
#
# Bulk Modulus (GPa) = 47.96222 50.19906 49.08064
# Shear Modulus (GPa) = 22.04107 35.18007 28.61057
#
# Velocity S-wave (km/s) = 3.37930 4.26932 3.85011
# Velocity P-wave (km/s) = 6.33055 7.09305 6.72262
#
# Compressibility (1/GPa) = 0.02084974
#
# Stress axis : x y z
#
# Youngs Moduli (GPa) = 65.60121 54.57303 43.96263
#
# Poissons Ratio (x) = 0.18084 0.37752
# Poissons Ratio (y) = 0.21739 0.25635
# Poissons Ratio (z) = 0.56334 0.31822
#
# Static dielectric constant tensor:
#      x y z
#    x 1.727920 0.000000 0.000000 
#    y 0.000000 1.707470 0.000000 
#    z 0.000000 0.000000 1.667020 
# 
# From -- ./inp_files/32316.got.cif
#   From: 2010.05.17/outbox.cif.g08.bks.cpg/sg74_17_cif.got.tgz:32316.got - 2010.06.03 17:57:02.
