data_PCOD9537379
_publ_section_title
;
Structure prediction by ZEFSAII (Michael W. Deem and Ramdas Pophale) SiO2 
 PCOD9537379
Probable space group: I M M A
;
_chemical_formula_sum "Si O2"
_cell_formula_units_Z 112
_cell_length_a 13.749360
_cell_length_b 15.051781
_cell_length_c 26.946221
_cell_angle_alpha 90.000000
_cell_angle_beta 90.000000
_cell_angle_gamma 90.000000
_cell_volume 5576.583911
_symmetry_space_group_name_H-M "I M M A"
_symmetry_group_IT_number 74
_symmetry_cell_setting 'orthorhombic'
loop_
_space_group_symop_operation_xyz
x,y,z
-x,1/2-y,z
x,-y,-z
-x,1/2+y,-z
-x,-y,-z
x,1/2+y,-z
-x,y,z
x,1/2-y,z
1/2+x,1/2+y,1/2+z
1/2-x,-y,1/2+z
1/2+x,1/2-y,1/2-z
1/2-x,y,1/2-z
1/2-x,1/2-y,1/2-z
1/2+x,y,1/2-z
1/2-x,1/2+y,1/2+z
1/2+x,-y,1/2+z
loop_
_atom_site_type_symbol
_atom_site_label
_atom_site_fract_x
_atom_site_fract_y
_atom_site_fract_z
Si Si1 0.782677 0.846118 0.693325
Si Si2 0.110538 0.352104 0.004410
Si Si3 0.111152 0.144804 0.627519
Si Si4 0.694288 0.579854 0.405618
Si Si5 0.117405 0.847724 0.192823
Si Si6 0.113275 0.526314 0.278405
Si Si7 0.615204 0.611669 0.616637
O O1 0.831924 0.750000 0.681237
O O2 0.750000 0.840479 0.750000
O O3 0.687937 0.852914 0.658337
O O4 0.840534 0.939762 0.695133
O O5 0.110564 0.250000 0.987978
O O6 0.167445 0.403663 0.962413
O O7 0.000000 0.386070 0.004517
O O8 0.141749 0.353603 0.061624
O O9 0.131486 0.250000 0.624311
O O10 0.189816 0.086889 0.598356
O O11 0.117850 0.108796 0.683656
O O12 0.000000 0.130607 0.611073
O O13 0.656802 0.647081 0.363144
O O14 0.639671 0.491678 0.388207
O O15 0.143632 0.750000 0.213511
O O16 0.151470 0.931852 0.226337
O O17 0.000000 0.852436 0.191864
O O18 0.000000 0.503476 0.269790
O O19 0.500000 0.628142 0.626002
#
# Coordination Sequence:
#
# PCOD9537379 Si02
#       7
#    16  16  16  16  16  16  16
#     4  11  24  41  61  88 117 154 207 259 305 360
#     4  10  21  37  59  90 125 161 203 248 299 363
#     4  10  21  37  58  85 119 161 206 248 296 357
#     4  12  21  35  59  91 125 162 204 254 299 357
#     4  10  20  33  55  90 129 165 200 245 306 373
#     4  10  21  39  59  83 118 159 205 254 306 364
#     4  11  23  41  64  90 125 166 203 246 308 375
#
# _framework density 20.08398
#
# number of rings (size 3 to 8) (size 9 to 14) (size 15 to 20)
#    0.000    1.429    1.429    4.714    0.000    6.857 
#    0.000    2.857    0.000    2.571    0.000    0.000 
#    0.000    0.000    0.000    0.000    0.000    0.000 
#
# Total GULP energy -312333.648087 kJ/mol
# GULP energy per Si atom -5577.386573 kJ/mol
# Density = 2.003827 g / cm^3
# Si number density = 20.083980 Si / 1000 Ang^3
#
#
#
# Elastic Constant Matrix: (Units=GPa)
#
#
# Indices 1 2 3 4 5 6 
#
# 1 67.6641 19.0014 50.9037 0.0000 0.0000 0.0000
# 2 19.0014 91.7650 20.9127 0.0000 0.0000 0.0000
# 3 50.9037 20.9127 118.3304 0.0000 0.0000 0.0000
# 4 0.0000 0.0000 0.0000 -0.6069 0.0000 0.0000
# 5 0.0000 0.0000 0.0000 0.0000 31.0767 0.0000
# 6 0.0000 0.0000 0.0000 0.0000 0.0000 21.6258
#
#
#
# Elastic Compliance Matrix: (Units=1/GPa)
#
#
# Indices 1 2 3 4 5 6 
#
# 1 0.022407 -0.002546 -0.009189 0.000000 0.000000 0.000000
# 2 -0.002546 0.011644 -0.000963 0.000000 0.000000 0.000000
# 3 -0.009189 -0.000963 0.012574 0.000000 0.000000 0.000000
# 4 0.000000 0.000000 0.000000 -1.647622 0.000000 0.000000
# 5 0.000000 0.000000 0.000000 0.000000 0.032178 0.000000
# 6 0.000000 0.000000 0.000000 0.000000 0.000000 0.046241
#
#
# Mechanical properties :
#
#
# Convention : Reuss Voigt Hill
#
# Bulk Modulus (GPa) = 47.10359 51.04390 49.07374
# Shear Modulus (GPa) = -3.35547 22.88191 9.76322
#
# Velocity S-wave (km/s) = -1.29396 3.37903 2.20720
# Velocity P-wave (km/s) = 4.61213 6.37920 5.56624
#
# Compressibility (1/GPa) = 0.02122981
#
# Stress axis : x y z
#
# Youngs Moduli (GPa) = 44.62957 85.88187 79.52874
#
# Poissons Ratio (x) = 0.21861 0.73080
# Poissons Ratio (y) = 0.11361 0.07657
# Poissons Ratio (z) = 0.41011 0.08269
#
# Static dielectric constant tensor:
#      x y z
#    x 1.738430 0.000000 0.000000 
#    y 0.000000 1.809600 0.000000 
#    z 0.000000 0.000000 1.712770 
# 
# From -- ./inp_files/60144.got.cif
#   From: 2010.05.17/outbox.cif.g08.bks.cpg/sg74_31_cif.got.tgz:60144.got - 2010.06.03 17:57:02.
