data_PCOD9537233
_publ_section_title
;
Structure prediction by ZEFSAII (Michael W. Deem and Ramdas Pophale) SiO2 
 PCOD9537233
Probable space group: I M M A
;
_chemical_formula_sum "Si O2"
_cell_formula_units_Z 112
_cell_length_a 13.915889
_cell_length_b 26.448720
_cell_length_c 15.102483
_cell_angle_alpha 90.000000
_cell_angle_beta 90.000000
_cell_angle_gamma 90.000000
_cell_volume 5558.581408
_symmetry_space_group_name_H-M "I M M A"
_symmetry_group_IT_number 74
_symmetry_cell_setting 'orthorhombic'
loop_
_space_group_symop_operation_xyz
x,y,z
-x,1/2-y,z
x,-y,-z
-x,1/2+y,-z
-x,-y,-z
x,1/2+y,-z
-x,y,z
x,1/2-y,z
1/2+x,1/2+y,1/2+z
1/2-x,-y,1/2+z
1/2+x,1/2-y,1/2-z
1/2-x,y,1/2-z
1/2-x,1/2-y,1/2-z
1/2+x,y,1/2-z
1/2-x,1/2+y,1/2+z
1/2+x,-y,1/2+z
loop_
_atom_site_type_symbol
_atom_site_label
_atom_site_fract_x
_atom_site_fract_y
_atom_site_fract_z
Si Si1 0.114466 0.439874 0.817523
Si Si2 0.106150 0.310846 0.247320
Si Si3 0.263799 0.310659 0.098199
Si Si4 0.392052 0.947370 0.115178
Si Si5 0.786575 0.898009 0.026605
Si Si6 0.171700 0.946975 0.857838
Si Si7 0.605984 0.065586 0.165270
O O1 0.132521 0.428418 0.714495
O O2 0.154315 0.397538 0.882679
O O3 0.166996 0.492255 0.846660
O O4 0.000000 0.448036 0.826258
O O5 0.107061 0.250000 0.252093
O O6 0.179350 0.322092 0.168924
O O7 0.142286 0.326534 0.344693
O O8 0.000000 0.327650 0.226682
O O9 0.266210 0.250000 0.082298
O O10 0.243448 0.343975 0.012755
O O11 0.500000 0.930726 0.090363
O O12 0.311838 0.928687 0.047484
O O13 0.396437 0.007545 0.129909
O O14 0.853397 0.927716 0.955300
O O15 0.280466 0.924825 0.852972
O O16 0.110367 0.930352 0.772855
O O17 0.500000 0.085593 0.137163
#
# Coordination Sequence:
#
# PCOD9537233 Si02
#       7
#    16  16  16  16  16  16  16
#     4  10  21  38  56  74 103 142 178 215 264 322
#     4   8  15  33  58  75 100 146 181 207 259 321
#     4   9  20  36  53  80 112 139 176 224 267 313
#     4   9  19  36  55  73 100 143 184 212 257 324
#     4  12  22  32  54  83 106 134 178 226 269 314
#     4  10  20  33  50  78 107 135 176 220 256 306
#     4   9  18  34  52  70 106 150 173 204 260 312
#
# _framework density 20.149025000000002
#
# number of rings (size 3 to 8) (size 9 to 14) (size 15 to 20)
#    0.000    2.429    1.429    3.000    0.000    5.714 
#    0.000    2.857    0.000    1.714    0.000    2.000 
#    0.000    0.000    0.000    0.000    0.000    0.000 
#
# Total GULP energy -312285.438263 kJ/mol
# GULP energy per Si atom -5576.525683 kJ/mol
# Density = 2.010316 g / cm^3
# Si number density = 20.149025 Si / 1000 Ang^3
#
#
#
# Elastic Constant Matrix: (Units=GPa)
#
#
# Indices 1 2 3 4 5 6 
#
# 1 102.8145 28.0068 18.9693 0.0000 0.0000 0.0000
# 2 28.0068 61.6325 28.4112 0.0000 0.0000 0.0000
# 3 18.9693 28.4112 78.8363 0.0000 0.0000 0.0000
# 4 0.0000 0.0000 0.0000 33.7614 0.0000 0.0000
# 5 0.0000 0.0000 0.0000 0.0000 7.8568 0.0000
# 6 0.0000 0.0000 0.0000 0.0000 0.0000 23.4436
#
#
#
# Elastic Compliance Matrix: (Units=1/GPa)
#
#
# Indices 1 2 3 4 5 6 
#
# 1 0.011170 -0.004601 -0.001029 0.000000 0.000000 0.000000
# 2 -0.004601 0.021353 -0.006588 0.000000 0.000000 0.000000
# 3 -0.001029 -0.006588 0.015306 0.000000 0.000000 0.000000
# 4 0.000000 0.000000 0.000000 0.029620 0.000000 0.000000
# 5 0.000000 0.000000 0.000000 0.000000 0.127279 0.000000
# 6 0.000000 0.000000 0.000000 0.000000 0.000000 0.042656
#
#
# Mechanical properties :
#
#
# Convention : Reuss Voigt Hill
#
# Bulk Modulus (GPa) = 42.75020 43.78419 43.26720
# Shear Modulus (GPa) = 17.88159 24.20543 21.04351
#
# Velocity S-wave (km/s) = 2.98227 3.46977 3.23521
# Velocity P-wave (km/s) = 5.75514 6.15059 5.95615
#
# Compressibility (1/GPa) = 0.02339170
#
# Stress axis : x y z
#
# Youngs Moduli (GPa) = 89.52931 46.83185 65.33191
#
# Poissons Ratio (x) = 0.21548 0.06725
# Poissons Ratio (y) = 0.41193 0.43042
# Poissons Ratio (z) = 0.09216 0.30853
#
# Static dielectric constant tensor:
#      x y z
#    x 1.770120 0.000000 0.000000 
#    y 0.000000 1.783980 0.000000 
#    z 0.000000 0.000000 1.747940 
# 
# From -- ./inp_files/32925.got.cif
#   From: 2010.05.17/outbox.cif.g08.bks.cpg/sg74_17_cif.got.tgz:32925.got - 2010.06.03 17:57:02.
