data_PCOD9537554
_publ_section_title
;
Structure prediction by ZEFSAII (Michael W. Deem and Ramdas Pophale) SiO2 
 PCOD9537554
Probable space group: I M M A
;
_chemical_formula_sum "Si O2"
_cell_formula_units_Z 116
_cell_length_a 29.129100
_cell_length_b 7.676781
_cell_length_c 23.527549
_cell_angle_alpha 90.000000
_cell_angle_beta 90.000000
_cell_angle_gamma 90.000000
_cell_volume 5261.176898
_symmetry_space_group_name_H-M "I M M A"
_symmetry_group_IT_number 74
_symmetry_cell_setting 'orthorhombic'
loop_
_space_group_symop_operation_xyz
x,y,z
-x,1/2-y,z
x,-y,-z
-x,1/2+y,-z
-x,-y,-z
x,1/2+y,-z
-x,y,z
x,1/2-y,z
1/2+x,1/2+y,1/2+z
1/2-x,-y,1/2+z
1/2+x,1/2-y,1/2-z
1/2-x,y,1/2-z
1/2-x,1/2-y,1/2-z
1/2+x,y,1/2-z
1/2-x,1/2+y,1/2+z
1/2+x,-y,1/2+z
loop_
_atom_site_type_symbol
_atom_site_label
_atom_site_fract_x
_atom_site_fract_y
_atom_site_fract_z
Si Si1 0.051783 0.452364 0.787403
Si Si2 0.000000 0.250000 0.940748
Si Si3 0.238937 0.042749 0.564413
Si Si4 0.169566 0.953567 0.873575
Si Si5 0.114608 0.955252 0.683444
Si Si6 0.302345 0.963295 0.747507
Si Si7 0.135304 0.956011 0.436605
Si Si8 0.575671 0.048186 0.412237
O O1 0.050892 0.250000 0.804923
O O2 0.081034 0.468024 0.730457
O O3 0.068207 0.550691 0.843566
O O4 0.000000 0.508910 0.774872
O O5 0.040184 0.406997 0.936581
O O6 0.237871 0.250000 0.572451
O O7 0.187208 0.969943 0.570855
O O8 0.252309 0.000000 0.500000
O O9 0.278905 0.970943 0.603669
O O10 0.159172 0.750000 0.868258
O O11 0.172091 0.026487 0.809631
O O12 0.128891 0.016396 0.914891
O O13 0.113191 0.750000 0.692844
O O14 0.166099 0.016756 0.699735
O O15 0.105709 0.989127 0.617477
O O16 0.300679 0.750000 0.745772
O O17 0.250000 0.024152 0.750000
O O18 0.139230 0.750000 0.434369
O O19 0.118952 0.000000 0.500000
O O20 0.569076 0.250000 0.432968
#
# Coordination Sequence:
#
# PCOD9537554 Si02
#       8
#    16   4  16  16  16  16  16  16
#     4  11  21  36  55  80 114 152 191 239 292 343
#     4  12  22  36  56  82 112 152 198 240 296 338
#     4  10  21  36  57  81 112 148 193 239 284 336
#     4  10  20  34  53  80 116 149 185 234 284 340
#     4  11  21  34  55  82 112 150 191 235 287 344
#     4   9  17  29  47  74 110 150 184 218 272 340
#     4  10  21  38  57  81 109 148 193 242 287 336
#     4  11  21  35  55  82 116 152 192 238 291 353
#
# _framework density 22.048300000000001
#
# number of rings (size 3 to 8) (size 9 to 14) (size 15 to 20)
#    0.000    1.655    2.759    2.690    0.966    3.586 
#    0.000    0.000    0.000    3.310    0.000    0.483 
#    0.000    0.000    0.000    0.000    0.000    0.000 
#
# Total GULP energy -323385.193347 kJ/mol
# GULP energy per Si atom -5575.606782 kJ/mol
# Density = 2.199812 g / cm^3
# Si number density = 22.048300 Si / 1000 Ang^3
#
#
#
# Elastic Constant Matrix: (Units=GPa)
#
#
# Indices 1 2 3 4 5 6 
#
# 1 48.4272 10.9444 2.2200 0.0000 0.0000 0.0000
# 2 10.9444 86.2670 -3.6801 0.0000 0.0000 0.0000
# 3 2.2200 -3.6801 85.8381 0.0000 0.0000 0.0000
# 4 0.0000 0.0000 0.0000 19.0961 0.0000 0.0000
# 5 0.0000 0.0000 0.0000 0.0000 9.0046 0.0000
# 6 0.0000 0.0000 0.0000 0.0000 0.0000 111.3106
#
#
#
# Elastic Compliance Matrix: (Units=1/GPa)
#
#
# Indices 1 2 3 4 5 6 
#
# 1 0.021297 -0.002730 -0.000668 0.000000 0.000000 0.000000
# 2 -0.002730 0.011963 0.000584 0.000000 0.000000 0.000000
# 3 -0.000668 0.000584 0.011692 0.000000 0.000000 0.000000
# 4 0.000000 0.000000 0.000000 0.052367 0.000000 0.000000
# 5 0.000000 0.000000 0.000000 0.000000 0.111055 0.000000
# 6 0.000000 0.000000 0.000000 0.000000 0.000000 0.008984
#
#
# Mechanical properties :
#
#
# Convention : Reuss Voigt Hill
#
# Bulk Modulus (GPa) = 25.43038 26.61122 26.02080
# Shear Modulus (GPa) = 21.17794 41.95213 31.56503
#
# Velocity S-wave (km/s) = 3.10260 4.36677 3.78779
# Velocity P-wave (km/s) = 4.93901 6.12541 5.56392
#
# Compressibility (1/GPa) = 0.03932304
#
# Stress axis : x y z
#
# Youngs Moduli (GPa) = 46.95452 83.58970 85.52764
#
# Poissons Ratio (x) = 0.22823 0.05712
# Poissons Ratio (y) = 0.12820 -0.04991
# Poissons Ratio (z) = 0.03136 -0.04878
#
# Static dielectric constant tensor:
#      x y z
#    x 1.849060 0.000000 0.000000 
#    y 0.000000 1.826830 0.000000 
#    z 0.000000 0.000000 1.988640 
# 
# From -- ./inp_files/62759.got.cif
#   From: 2010.05.17/outbox.cif.g08.bks.cpg/sg74_32_cif.got.tgz:62759.got - 2010.06.03 17:57:02.
