data_PCOD9537187
_publ_section_title
;
Structure prediction by ZEFSAII (Michael W. Deem and Ramdas Pophale) SiO2 
 PCOD9537187
Probable space group: I M M A
;
_chemical_formula_sum "Si O2"
_cell_formula_units_Z 80
_cell_length_a 17.232844
_cell_length_b 13.678140
_cell_length_c 21.195785
_cell_angle_alpha 90.000000
_cell_angle_beta 90.000000
_cell_angle_gamma 90.000000
_cell_volume 4996.127429
_symmetry_space_group_name_H-M "I M M A"
_symmetry_group_IT_number 74
_symmetry_cell_setting 'orthorhombic'
loop_
_space_group_symop_operation_xyz
x,y,z
-x,1/2-y,z
x,-y,-z
-x,1/2+y,-z
-x,-y,-z
x,1/2+y,-z
-x,y,z
x,1/2-y,z
1/2+x,1/2+y,1/2+z
1/2-x,-y,1/2+z
1/2+x,1/2-y,1/2-z
1/2-x,y,1/2-z
1/2-x,1/2-y,1/2-z
1/2+x,y,1/2-z
1/2-x,1/2+y,1/2+z
1/2+x,-y,1/2+z
loop_
_atom_site_type_symbol
_atom_site_label
_atom_site_fract_x
_atom_site_fract_y
_atom_site_fract_z
Si Si1 0.720926 0.939076 0.403432
Si Si2 0.823558 0.009793 0.709409
Si Si3 0.911222 0.634794 0.619390
Si Si4 0.262768 0.637538 0.960192
Si Si5 0.591003 0.865902 0.315313
O O1 0.784298 0.929833 0.347811
O O2 0.747748 0.884796 0.466654
O O3 0.640818 0.899616 0.375684
O O4 0.717233 0.054487 0.420935
O O5 0.750000 0.970944 0.750000
O O6 0.874027 0.076242 0.755757
O O7 0.874886 0.926704 0.676642
O O8 0.910432 0.750000 0.634491
O O9 0.852400 0.621695 0.560587
O O10 0.000000 0.605628 0.606462
O O11 0.242730 0.750000 0.945483
O O12 0.500000 0.886354 0.322553
O O13 0.601387 0.750000 0.306520
#
# Coordination Sequence:
#
# PCOD9537187 Si02
#       5
#    16  16  16  16  16
#     4   9  18  32  50  71  92 123 158 188 231 277
#     4   9  18  31  48  70  95 123 156 191 226 274
#     4   9  17  30  48  70  97 126 154 190 235 276
#     4   9  17  31  50  71  95 122 156 193 229 276
#     4  10  20  33  49  69  94 123 154 192 235 275
#
# _framework density 16.012402000000002
#
# number of rings (size 3 to 8) (size 9 to 14) (size 15 to 20)
#    0.000    2.800    0.000    1.200    0.000    4.800 
#    0.000   14.000    0.000    5.400    0.000    0.000 
#    0.000    0.000    0.000    0.000    0.000    0.000 
#
# Total GULP energy -222742.961654 kJ/mol
# GULP energy per Si atom -5568.574041 kJ/mol
# Density = 1.597596 g / cm^3
# Si number density = 16.012402 Si / 1000 Ang^3
#
#
#
# Elastic Constant Matrix: (Units=GPa)
#
#
# Indices 1 2 3 4 5 6 
#
# 1 120.6868 60.5554 71.9505 0.0000 0.0000 0.0000
# 2 60.5554 74.7651 41.9065 0.0000 0.0000 0.0000
# 3 71.9505 41.9065 112.9355 0.0000 0.0000 0.0000
# 4 0.0000 0.0000 0.0000 15.6294 0.0000 0.0000
# 5 0.0000 0.0000 0.0000 0.0000 15.5552 0.0000
# 6 0.0000 0.0000 0.0000 0.0000 0.0000 24.7752
#
#
#
# Elastic Compliance Matrix: (Units=1/GPa)
#
#
# Indices 1 2 3 4 5 6 
#
# 1 0.018021 -0.010304 -0.007658 0.000000 0.000000 0.000000
# 2 -0.010304 0.022779 -0.001888 0.000000 0.000000 0.000000
# 3 -0.007658 -0.001888 0.014434 0.000000 0.000000 0.000000
# 4 0.000000 0.000000 0.000000 0.063982 0.000000 0.000000
# 5 0.000000 0.000000 0.000000 0.000000 0.064287 0.000000
# 6 0.000000 0.000000 0.000000 0.000000 0.000000 0.040363
#
#
# Mechanical properties :
#
#
# Convention : Reuss Voigt Hill
#
# Bulk Modulus (GPa) = 64.37142 73.02357 68.69749
# Shear Modulus (GPa) = 18.60504 20.12364 19.36434
#
# Velocity S-wave (km/s) = 3.41238 3.54892 3.48132
# Velocity P-wave (km/s) = 7.47088 7.90547 7.69125
#
# Compressibility (1/GPa) = 0.01553484
#
# Stress axis : x y z
#
# Youngs Moduli (GPa) = 55.48938 43.89996 69.28111
#
# Poissons Ratio (x) = 0.45235 0.53055
# Poissons Ratio (y) = 0.57176 0.13080
# Poissons Ratio (z) = 0.42493 0.08288
#
# Static dielectric constant tensor:
#      x y z
#    x 1.529810 0.000000 0.000000 
#    y 0.000000 1.538370 0.000000 
#    z 0.000000 0.000000 1.526990 
# 
# From -- ./inp_files/51644.got.cif
#   From: 2010.05.17/outbox.cif.g08.bks.cpg/sg74_26_cif.got.tgz:51644.got - 2010.06.03 17:57:02.
