data_PCOD9537340
_publ_section_title
;
Structure prediction by ZEFSAII (Michael W. Deem and Ramdas Pophale) SiO2 
 PCOD9537340
Probable space group: I M M A
;
_chemical_formula_sum "Si O2"
_cell_formula_units_Z 116
_cell_length_a 26.711968
_cell_length_b 7.520440
_cell_length_c 29.541252
_cell_angle_alpha 90.000000
_cell_angle_beta 90.000000
_cell_angle_gamma 90.000000
_cell_volume 5934.416642
_symmetry_space_group_name_H-M "I M M A"
_symmetry_group_IT_number 74
_symmetry_cell_setting 'orthorhombic'
loop_
_space_group_symop_operation_xyz
x,y,z
-x,1/2-y,z
x,-y,-z
-x,1/2+y,-z
-x,-y,-z
x,1/2+y,-z
-x,y,z
x,1/2-y,z
1/2+x,1/2+y,1/2+z
1/2-x,-y,1/2+z
1/2+x,1/2-y,1/2-z
1/2-x,y,1/2-z
1/2-x,1/2-y,1/2-z
1/2+x,y,1/2-z
1/2-x,1/2+y,1/2+z
1/2+x,-y,1/2+z
loop_
_atom_site_type_symbol
_atom_site_label
_atom_site_fract_x
_atom_site_fract_y
_atom_site_fract_z
Si Si1 0.251153 0.536350 0.052614
Si Si2 0.638913 0.963222 0.447041
Si Si3 0.681359 0.546710 0.129633
Si Si4 0.943241 0.963776 0.124084
Si Si5 0.088650 0.543391 0.310656
Si Si6 0.500000 0.750000 0.813687
Si Si7 0.233140 0.964273 0.800941
Si Si8 0.121711 0.038620 0.210638
O O1 0.249760 0.750000 0.058849
O O2 0.195005 0.469019 0.063952
O O3 0.294894 0.463435 0.084566
O O4 0.259833 0.500000 0.000000
O O5 0.640303 0.750000 0.441976
O O6 0.595794 0.031559 0.413718
O O7 0.628958 0.000000 0.500000
O O8 0.668090 0.750000 0.118698
O O9 0.632971 0.477275 0.155872
O O10 0.727665 0.543903 0.164383
O O11 0.945212 0.750000 0.119592
O O12 0.000000 0.030903 0.119243
O O13 0.920468 0.003477 0.173336
O O14 0.075652 0.750000 0.321221
O O15 0.109544 0.541822 0.259280
O O16 0.043438 0.406646 0.312883
O O17 0.235634 0.750000 0.805946
O O18 0.250000 0.007537 0.750000
O O19 0.175868 0.022924 0.807354
O O20 0.125447 0.250000 0.217718
#
# Coordination Sequence:
#
# PCOD9537340 Si02
#       8
#    16  16  16  16  16   4  16  16
#     4   9  18  34  55  85 118 149 183 229 292 360
#     4   9  18  34  55  76 108 146 189 242 301 363
#     4  10  21  36  58  87 121 153 196 241 290 358
#     4  10  22  37  53  74 102 147 202 255 304 355
#     4  11  24  41  63  89 117 159 202 250 299 351
#     4  12  26  44  64  84 122 156 206 248 300 352
#     4  10  20  33  53  78 116 156 191 239 293 356
#     4  11  22  37  54  81 117 155 199 249 302 356
#
# _framework density 19.546993000000001
#
# number of rings (size 3 to 8) (size 9 to 14) (size 15 to 20)
#    0.000    1.931    2.069    1.448    1.931    4.138 
#    0.000    2.759    0.000    0.000    0.000    0.483 
#    0.000    0.000    0.000    0.000    0.000    0.000 
#
# Total GULP energy -323337.881510 kJ/mol
# GULP energy per Si atom -5574.791061 kJ/mol
# Density = 1.950250 g / cm^3
# Si number density = 19.546993 Si / 1000 Ang^3
#
#
#
# Elastic Constant Matrix: (Units=GPa)
#
#
# Indices 1 2 3 4 5 6 
#
# 1 137.4144 26.5853 38.5483 0.0000 0.0000 0.0000
# 2 26.5853 79.6006 -1.1702 0.0000 0.0000 0.0000
# 3 38.5483 -1.1702 56.2082 0.0000 0.0000 0.0000
# 4 0.0000 0.0000 0.0000 13.3938 0.0000 0.0000
# 5 0.0000 0.0000 0.0000 0.0000 -1.0301 0.0000
# 6 0.0000 0.0000 0.0000 0.0000 0.0000 -19.1915
#
#
#
# Elastic Compliance Matrix: (Units=1/GPa)
#
#
# Indices 1 2 3 4 5 6 
#
# 1 0.009847 -0.003389 -0.006824 0.000000 0.000000 0.000000
# 2 -0.003389 0.013733 0.002610 0.000000 0.000000 0.000000
# 3 -0.006824 0.002610 0.022525 0.000000 0.000000 0.000000
# 4 0.000000 0.000000 0.000000 0.074662 0.000000 0.000000
# 5 0.000000 0.000000 0.000000 0.000000 -0.970820 0.000000
# 6 0.000000 0.000000 0.000000 0.000000 0.000000 -0.052106
#
#
# Mechanical properties :
#
#
# Convention : Reuss Voigt Hill
#
# Bulk Modulus (GPa) = 32.36261 44.57222 38.46742
# Shear Modulus (GPa) = -5.70351 12.58508 3.44078
#
# Velocity S-wave (km/s) = -1.71002 2.54015 1.32819
# Velocity P-wave (km/s) = 3.56277 5.60850 4.69833
#
# Compressibility (1/GPa) = 0.03089985
#
# Stress axis : x y z
#
# Youngs Moduli (GPa) = 101.55137 72.81725 44.39454
#
# Poissons Ratio (x) = 0.24679 0.30294
# Poissons Ratio (y) = 0.34417 -0.11588
# Poissons Ratio (z) = 0.69298 -0.19007
#
# Static dielectric constant tensor:
#      x y z
#    x 1.683810 0.000000 0.000000 
#    y 0.000000 1.734750 0.000000 
#    z 0.000000 0.000000 1.679330 
# 
# From -- ./inp_files/73771.got.cif
#   From: 2010.05.17/outbox.cif.g08.bks.cpg/sg74_37_cif.got.tgz:73771.got - 2010.06.03 17:57:02.
