data_PCOD9537776
_publ_section_title
;
Structure prediction by ZEFSAII (Michael W. Deem and Ramdas Pophale) SiO2 
 PCOD9537776
Probable space group: I M M A
;
_chemical_formula_sum "Si O2"
_cell_formula_units_Z 112
_cell_length_a 27.867171
_cell_length_b 14.799141
_cell_length_c 16.336122
_cell_angle_alpha 90.000000
_cell_angle_beta 90.000000
_cell_angle_gamma 90.000000
_cell_volume 6737.183225
_symmetry_space_group_name_H-M "I M M A"
_symmetry_group_IT_number 74
_symmetry_cell_setting 'orthorhombic'
loop_
_space_group_symop_operation_xyz
x,y,z
-x,1/2-y,z
x,-y,-z
-x,1/2+y,-z
-x,-y,-z
x,1/2+y,-z
-x,y,z
x,1/2-y,z
1/2+x,1/2+y,1/2+z
1/2-x,-y,1/2+z
1/2+x,1/2-y,1/2-z
1/2-x,y,1/2-z
1/2-x,1/2-y,1/2-z
1/2+x,y,1/2-z
1/2-x,1/2+y,1/2+z
1/2+x,-y,1/2+z
loop_
_atom_site_type_symbol
_atom_site_label
_atom_site_fract_x
_atom_site_fract_y
_atom_site_fract_z
Si Si1 0.141760 0.143628 0.070404
Si Si2 0.052751 0.022902 0.095449
Si Si3 0.304841 0.358733 0.593675
Si Si4 0.343743 0.144714 0.776862
Si Si5 0.243855 0.150098 0.153077
Si Si6 0.292104 0.526539 0.087263
Si Si7 0.054030 0.351429 0.789004
O O1 0.130230 0.250000 0.068914
O O2 0.097618 0.088323 0.106302
O O3 0.189489 0.131030 0.124657
O O4 0.156883 0.117216 0.977323
O O5 0.000000 0.061531 0.117620
O O6 0.058218 0.929939 0.144751
O O7 0.051702 0.000000 0.000000
O O8 0.297125 0.250000 0.588433
O O9 0.323051 0.378411 0.685963
O O10 0.256257 0.413302 0.575287
O O11 0.330531 0.250000 0.791888
O O12 0.323064 0.081280 0.847021
O O13 0.401323 0.138380 0.771494
O O14 0.256038 0.250000 0.119047
O O15 0.250000 0.153700 0.250000
O O16 0.276222 0.069168 0.123061
O O17 0.314546 0.500000 0.000000
O O18 0.059261 0.250000 0.825624
O O19 0.000000 0.356569 0.753836
#
# Coordination Sequence:
#
# PCOD9537776 Si02
#       7
#    16  16  16  16  16  16  16
#     4  10  21  35  53  74 105 146 185 222 261 303
#     4  10  21  32  49  75 105 141 180 218 257 306
#     4  10  20  35  52  76 108 144 177 215 263 311
#     4  10  21  35  56  83 107 132 173 218 263 319
#     4  10  22  37  51  71  99 143 188 215 246 304
#     4  12  23  33  53  77 106 141 167 216 265 313
#     4   9  19  36  56  78 105 136 169 215 273 324
#
# _framework density 16.624158999999999
#
# number of rings (size 3 to 8) (size 9 to 14) (size 15 to 20)
#    0.000    1.857    1.429    2.571    6.000    3.714 
#    0.000    1.429    0.000    0.429    0.000    0.000 
#    0.000    0.000    0.000    0.000    0.000    0.000 
#
# Total GULP energy -312473.194905 kJ/mol
# GULP energy per Si atom -5579.878480 kJ/mol
# Density = 1.658632 g / cm^3
# Si number density = 16.624159 Si / 1000 Ang^3
#
#
#
# Elastic Constant Matrix: (Units=GPa)
#
#
# Indices 1 2 3 4 5 6 
#
# 1 94.5795 65.3391 51.8127 0.0000 0.0000 0.0000
# 2 65.3391 94.5327 53.7998 0.0000 0.0000 0.0000
# 3 51.8127 53.7998 87.6051 0.0000 0.0000 0.0000
# 4 0.0000 0.0000 0.0000 23.6519 0.0000 0.0000
# 5 0.0000 0.0000 0.0000 0.0000 18.8332 0.0000
# 6 0.0000 0.0000 0.0000 0.0000 0.0000 30.6562
#
#
#
# Elastic Compliance Matrix: (Units=1/GPa)
#
#
# Indices 1 2 3 4 5 6 
#
# 1 0.021899 -0.011937 -0.005621 0.000000 0.000000 0.000000
# 2 -0.011937 0.022769 -0.006923 0.000000 0.000000 0.000000
# 3 -0.005621 -0.006923 0.018991 0.000000 0.000000 0.000000
# 4 0.000000 0.000000 0.000000 0.042280 0.000000 0.000000
# 5 0.000000 0.000000 0.000000 0.000000 0.053098 0.000000
# 6 0.000000 0.000000 0.000000 0.000000 0.000000 0.032620
#
#
# Mechanical properties :
#
#
# Convention : Reuss Voigt Hill
#
# Bulk Modulus (GPa) = 68.04200 68.73558 68.38879
# Shear Modulus (GPa) = 20.36518 21.67931 21.02224
#
# Velocity S-wave (km/s) = 3.50385 3.61513 3.55992
# Velocity P-wave (km/s) = 7.57547 7.67216 7.62397
#
# Compressibility (1/GPa) = 0.01469681
#
# Stress axis : x y z
#
# Youngs Moduli (GPa) = 45.66387 43.91953 52.65739
#
# Poissons Ratio (x) = 0.52428 0.29599
# Poissons Ratio (y) = 0.54510 0.36453
# Poissons Ratio (z) = 0.25668 0.30404
#
# Static dielectric constant tensor:
#      x y z
#    x 1.580870 0.000000 0.000000 
#    y 0.000000 1.586870 0.000000 
#    z 0.000000 0.000000 1.574110 
# 
# From -- ./inp_files/37375.got.cif
#   From: 2010.05.17/outbox.cif.g08.bks.cpg/sg74_19_cif.got.tgz:37375.got - 2010.06.03 17:57:02.
