data_PCOD9537353
_publ_section_title
;
Structure prediction by ZEFSAII (Michael W. Deem and Ramdas Pophale) SiO2 
 PCOD9537353
Probable space group: I M M A
;
_chemical_formula_sum "Si O2"
_cell_formula_units_Z 96
_cell_length_a 8.985929
_cell_length_b 18.649058
_cell_length_c 28.739262
_cell_angle_alpha 90.000000
_cell_angle_beta 90.000000
_cell_angle_gamma 90.000000
_cell_volume 4816.099980
_symmetry_space_group_name_H-M "I M M A"
_symmetry_group_IT_number 74
_symmetry_cell_setting 'orthorhombic'
loop_
_space_group_symop_operation_xyz
x,y,z
-x,1/2-y,z
x,-y,-z
-x,1/2+y,-z
-x,-y,-z
x,1/2+y,-z
-x,y,z
x,1/2-y,z
1/2+x,1/2+y,1/2+z
1/2-x,-y,1/2+z
1/2+x,1/2-y,1/2-z
1/2-x,y,1/2-z
1/2-x,1/2-y,1/2-z
1/2+x,y,1/2-z
1/2-x,1/2+y,1/2+z
1/2+x,-y,1/2+z
loop_
_atom_site_type_symbol
_atom_site_label
_atom_site_fract_x
_atom_site_fract_y
_atom_site_fract_z
Si Si1 0.828142 0.434229 0.875972
Si Si2 0.169534 0.671128 0.207813
Si Si3 0.323034 0.537962 0.800225
Si Si4 0.322982 0.164698 0.347365
Si Si5 0.331918 0.336426 0.452812
Si Si6 0.677173 0.665256 0.048413
O O1 0.829087 0.368108 0.840238
O O2 0.744412 0.493114 0.844109
O O3 0.751007 0.397296 0.920378
O O4 0.000000 0.456159 0.885394
O O5 0.237375 0.750000 0.202021
O O6 0.250000 0.632871 0.250000
O O7 0.000000 0.677085 0.222579
O O8 0.500000 0.527570 0.797794
O O9 0.250000 0.521531 0.750000
O O10 0.276518 0.619212 0.812657
O O11 0.500000 0.151126 0.339882
O O12 0.299543 0.250000 0.343403
O O13 0.288678 0.141260 0.400750
O O14 0.500000 0.362681 0.462934
O O15 0.340387 0.250000 0.450223
O O16 0.222992 0.351815 0.495227
O O17 0.500000 0.663624 0.054614
O O18 0.724873 0.750000 0.057713
#
# Coordination Sequence:
#
# PCOD9537353 Si02
#       6
#    16  16  16  16  16  16
#     4  11  22  37  56  77 108 152 199 243 288 338
#     4   9  18  31  48  71  97 130 176 229 281 330
#     4  12  26  43  62  85 116 152 191 236 290 351
#     4   9  19  39  67  95 120 147 184 231 285 348
#     4   8  15  31  57  87 118 152 188 229 281 340
#     4  10  20  33  53  85 123 160 199 242 285 333
#
# _framework density 19.933140999999999
#
# number of rings (size 3 to 8) (size 9 to 14) (size 15 to 20)
#    0.000    2.167    0.000    4.500    0.000    5.667 
#    0.000    4.167    0.000    5.000    0.000    0.000 
#    0.000    0.000    0.000    0.000    0.000    0.000 
#
# Total GULP energy -267441.851210 kJ/mol
# GULP energy per Si atom -5571.705234 kJ/mol
# Density = 1.988777 g / cm^3
# Si number density = 19.933141 Si / 1000 Ang^3
#
#
#
# Elastic Constant Matrix: (Units=GPa)
#
#
# Indices 1 2 3 4 5 6 
#
# 1 93.1986 44.6512 49.8367 0.0000 0.0000 0.0000
# 2 44.6512 64.7635 36.8542 0.0000 0.0000 0.0000
# 3 49.8367 36.8542 76.4929 0.0000 0.0000 0.0000
# 4 0.0000 0.0000 0.0000 29.1125 0.0000 0.0000
# 5 0.0000 0.0000 0.0000 0.0000 29.6332 0.0000
# 6 0.0000 0.0000 0.0000 0.0000 0.0000 25.0312
#
#
#
# Elastic Compliance Matrix: (Units=1/GPa)
#
#
# Indices 1 2 3 4 5 6 
#
# 1 0.019355 -0.008498 -0.008516 0.000000 0.000000 0.000000
# 2 -0.008498 0.025005 -0.006510 0.000000 0.000000 0.000000
# 3 -0.008516 -0.006510 0.021758 0.000000 0.000000 0.000000
# 4 0.000000 0.000000 0.000000 0.034350 0.000000 0.000000
# 5 0.000000 0.000000 0.000000 0.000000 0.033746 0.000000
# 6 0.000000 0.000000 0.000000 0.000000 0.000000 0.039950
#
#
# Mechanical properties :
#
#
# Convention : Reuss Voigt Hill
#
# Bulk Modulus (GPa) = 52.44162 55.23769 53.83965
# Shear Modulus (GPa) = 21.97140 23.62957 22.80049
#
# Velocity S-wave (km/s) = 3.32362 3.44676 3.38575
# Velocity P-wave (km/s) = 6.41050 6.60393 6.50793
#
# Compressibility (1/GPa) = 0.01906883
#
# Stress axis : x y z
#
# Youngs Moduli (GPa) = 51.66634 39.99231 45.96022
#
# Poissons Ratio (x) = 0.33987 0.39138
# Poissons Ratio (y) = 0.43908 0.29922
# Poissons Ratio (z) = 0.43997 0.26037
#
# Static dielectric constant tensor:
#      x y z
#    x 1.693890 0.000000 0.000000 
#    y 0.000000 1.756990 0.000000 
#    z 0.000000 0.000000 1.707560 
# 
# From -- ./inp_files/64287.got.cif
#   From: 2010.05.17/outbox.cif.g08.bks.cpg/sg74_33_cif.got.tgz:64287.got - 2010.06.03 17:57:02.
