data_PCOD9537046
_publ_section_title
;
Structure prediction by ZEFSAII (Michael W. Deem and Ramdas Pophale) SiO2 
 PCOD9537046
Probable space group: I M M A
;
_chemical_formula_sum "Si O2"
_cell_formula_units_Z 100
_cell_length_a 23.903956
_cell_length_b 14.390198
_cell_length_c 15.224476
_cell_angle_alpha 90.000000
_cell_angle_beta 90.000000
_cell_angle_gamma 90.000000
_cell_volume 5236.955749
_symmetry_space_group_name_H-M "I M M A"
_symmetry_group_IT_number 74
_symmetry_cell_setting 'orthorhombic'
loop_
_space_group_symop_operation_xyz
x,y,z
-x,1/2-y,z
x,-y,-z
-x,1/2+y,-z
-x,-y,-z
x,1/2+y,-z
-x,y,z
x,1/2-y,z
1/2+x,1/2+y,1/2+z
1/2-x,-y,1/2+z
1/2+x,1/2-y,1/2-z
1/2-x,y,1/2-z
1/2-x,1/2-y,1/2-z
1/2+x,y,1/2-z
1/2-x,1/2+y,1/2+z
1/2+x,-y,1/2+z
loop_
_atom_site_type_symbol
_atom_site_label
_atom_site_fract_x
_atom_site_fract_y
_atom_site_fract_z
Si Si1 0.258142 0.858841 0.123178
Si Si2 0.500000 0.250000 0.430034
Si Si3 0.629728 0.145611 0.678832
Si Si4 0.908839 0.392543 0.008692
Si Si5 0.156451 0.002468 0.299874
Si Si6 0.814636 0.356890 0.145980
Si Si7 0.192086 0.643195 0.572305
O O1 0.267679 0.750000 0.145669
O O2 0.192236 0.874692 0.139046
O O3 0.293085 0.931958 0.178826
O O4 0.283162 0.871854 0.025278
O O5 0.451409 0.168992 0.436476
O O6 0.629830 0.250000 0.714986
O O7 0.592747 0.143074 0.591334
O O8 0.614135 0.070164 0.752821
O O9 0.923363 0.500000 0.000000
O O10 0.849061 0.382628 0.058092
O O11 0.167778 0.075901 0.223339
O O12 0.150492 0.065861 0.387528
O O13 0.827121 0.250000 0.167537
O O14 0.748539 0.364029 0.130108
O O15 0.171225 0.750000 0.577354
#
# Coordination Sequence:
#
# PCOD9537046 Si02
#       7
#    16   4  16  16  16  16  16
#     4  10  20  32  47  70 106 148 187 223 259 306
#     4  12  26  44  60  82 104 132 192 240 276 334
#     4  11  20  34  52  72 102 142 182 226 273 316
#     4  12  23  39  61  80 101 141 186 229 279 332
#     4  12  22  29  48  76 103 137 193 231 256 311
#     4  11  20  34  52  72 102 142 182 226 273 316
#     4  10  20  32  47  70 106 148 187 223 259 306
#
# _framework density 19.095063
#
# number of rings (size 3 to 8) (size 9 to 14) (size 15 to 20)
#    0.000    0.960    4.800    4.560    0.000    2.560 
#    0.000    0.000    0.000    0.000    0.000    0.000 
#    0.000    0.000    0.000   17.280    0.000    0.160 
#
# Total GULP energy -278418.256232 kJ/mol
# GULP energy per Si atom -5568.365125 kJ/mol
# Density = 1.905160 g / cm^3
# Si number density = 19.095063 Si / 1000 Ang^3
#
#
#
# Elastic Constant Matrix: (Units=GPa)
#
#
# Indices 1 2 3 4 5 6 
#
# 1 12.3664 1.9521 -3.9792 0.0000 0.0000 0.0000
# 2 1.9521 127.1833 36.4627 0.0000 0.0000 0.0000
# 3 -3.9792 36.4627 68.7771 0.0000 0.0000 0.0000
# 4 0.0000 0.0000 0.0000 50.6279 0.0000 0.0000
# 5 0.0000 0.0000 0.0000 0.0000 -5.9364 0.0000
# 6 0.0000 0.0000 0.0000 0.0000 0.0000 -12.7196
#
#
#
# Elastic Compliance Matrix: (Units=1/GPa)
#
#
# Indices 1 2 3 4 5 6 
#
# 1 0.083450 -0.003143 0.006494 0.000000 0.000000 0.000000
# 2 -0.003143 0.009390 -0.005160 0.000000 0.000000 0.000000
# 3 0.006494 -0.005160 0.017651 0.000000 0.000000 0.000000
# 4 0.000000 0.000000 0.000000 0.019752 0.000000 0.000000
# 5 0.000000 0.000000 0.000000 0.000000 -0.168451 0.000000
# 6 0.000000 0.000000 0.000000 0.000000 0.000000 -0.078619
#
#
# Mechanical properties :
#
#
# Convention : Reuss Voigt Hill
#
# Bulk Modulus (GPa) = 9.35682 30.79978 20.07830
# Shear Modulus (GPa) = -64.44532 17.98713 -23.22910
#
# Velocity S-wave (km/s) = -5.81575 3.07250 -3.49162
# Velocity P-wave (km/s) = 6.33929 5.36206 2.39112
#
# Compressibility (1/GPa) = 0.10687395
#
# Stress axis : x y z
#
# Youngs Moduli (GPa) = 11.98325 106.49294 56.65352
#
# Poissons Ratio (x) = 0.33467 -0.36792
# Poissons Ratio (y) = 0.03766 0.29234
# Poissons Ratio (z) = -0.07782 0.54952
#
# Static dielectric constant tensor:
#      x y z
#    x 1.663920 0.000000 0.000000 
#    y 0.000000 1.724770 0.000000 
#    z 0.000000 0.000000 1.760670 
# 
# From -- ./inp_files/36426.got.cif
#   From: 2010.05.17/outbox.cif.g08.bks.cpg/sg74_19_cif.got.tgz:36426.got - 2010.06.03 17:57:02.
