data_PCOD9537183
_publ_section_title
;
Structure prediction by ZEFSAII (Michael W. Deem and Ramdas Pophale) SiO2 
 PCOD9537183
Probable space group: I M M A
;
_chemical_formula_sum "Si O2"
_cell_formula_units_Z 64
_cell_length_a 7.782622
_cell_length_b 15.277991
_cell_length_c 25.768755
_cell_angle_alpha 90.000000
_cell_angle_beta 90.000000
_cell_angle_gamma 90.000000
_cell_volume 3063.977866
_symmetry_space_group_name_H-M "I M M A"
_symmetry_group_IT_number 74
_symmetry_cell_setting 'orthorhombic'
loop_
_space_group_symop_operation_xyz
x,y,z
-x,1/2-y,z
x,-y,-z
-x,1/2+y,-z
-x,-y,-z
x,1/2+y,-z
-x,y,z
x,1/2-y,z
1/2+x,1/2+y,1/2+z
1/2-x,-y,1/2+z
1/2+x,1/2-y,1/2-z
1/2-x,y,1/2-z
1/2-x,1/2-y,1/2-z
1/2+x,y,1/2-z
1/2-x,1/2+y,1/2+z
1/2+x,-y,1/2+z
loop_
_atom_site_type_symbol
_atom_site_label
_atom_site_fract_x
_atom_site_fract_y
_atom_site_fract_z
Si Si1 0.211478 0.400012 0.613621
Si Si2 0.294569 0.099244 0.111680
Si Si3 0.706377 0.750000 0.189881
Si Si4 0.797820 0.750000 0.810283
Si Si5 0.698156 0.606830 0.000206
O O1 0.267028 0.500392 0.621797
O O2 0.268149 0.335372 0.658762
O O3 0.271361 0.369197 0.556365
O O4 0.000000 0.399810 0.612297
O O5 0.500000 0.092665 0.104412
O O6 0.264609 0.165131 0.158323
O O7 0.225042 0.131858 0.055580
O O8 0.500000 0.750000 0.185952
O O9 0.750000 0.750000 0.250000
O O10 0.750000 0.750000 0.750000
O O11 0.000000 0.750000 0.813577
O O12 0.500000 0.637563 0.000833
O O13 0.696175 0.500000 0.000000
#
# Coordination Sequence:
#
# PCOD9537183 Si02
#       5
#    16  16   8   8  16
#     4   8  15  29  52  81 109 136 167 206 251 301
#     4   9  17  33  57  82 106 132 164 207 259 311
#     4  10  20  33  48  70 102 137 175 212 243 284
#     4  12  26  41  54  72 100 135 179 224 265 312
#     4   7  11  23  48  81 108 128 158 200 246 300
#
# _framework density 20.887881
#
# number of rings (size 3 to 8) (size 9 to 14) (size 15 to 20)
#    0.000    3.250    0.000    4.125    0.000    2.000 
#    0.000    7.500    0.000    9.750    0.000    0.000 
#    0.000    0.000    0.000    0.000    0.000    0.000 
#
# Total GULP energy -178377.035902 kJ/mol
# GULP energy per Si atom -5574.282372 kJ/mol
# Density = 2.084034 g / cm^3
# Si number density = 20.887881 Si / 1000 Ang^3
#
#
#
# Elastic Constant Matrix: (Units=GPa)
#
#
# Indices 1 2 3 4 5 6 
#
# 1 24.4207 5.1755 1.2082 0.0000 0.0000 0.0000
# 2 5.1755 120.3390 111.8290 0.0000 0.0000 0.0000
# 3 1.2082 111.8290 241.8451 0.0000 0.0000 0.0000
# 4 0.0000 0.0000 0.0000 41.0704 0.0000 0.0000
# 5 0.0000 0.0000 0.0000 0.0000 18.8475 0.0000
# 6 0.0000 0.0000 0.0000 0.0000 0.0000 -30.7746
#
#
#
# Elastic Compliance Matrix: (Units=1/GPa)
#
#
# Indices 1 2 3 4 5 6 
#
# 1 0.041487 -0.002791 0.001083 0.000000 0.000000 0.000000
# 2 -0.002791 0.014759 -0.006811 0.000000 0.000000 0.000000
# 3 0.001083 -0.006811 0.007279 0.000000 0.000000 0.000000
# 4 0.000000 0.000000 0.000000 0.024348 0.000000 0.000000
# 5 0.000000 0.000000 0.000000 0.000000 0.053058 0.000000
# 6 0.000000 0.000000 0.000000 0.000000 0.000000 -0.032494
#
#
# Mechanical properties :
#
#
# Convention : Reuss Voigt Hill
#
# Bulk Modulus (GPa) = 21.51103 69.22559 45.36831
# Shear Modulus (GPa) = 35.46907 23.72147 29.59527
#
# Velocity S-wave (km/s) = 4.12523 3.37361 3.76821
# Velocity P-wave (km/s) = 5.74550 6.95618 6.37962
#
# Compressibility (1/GPa) = 0.04648778
#
# Stress axis : x y z
#
# Youngs Moduli (GPa) = 24.10412 67.75632 137.38838
#
# Poissons Ratio (x) = 0.18910 -0.14883
# Poissons Ratio (y) = 0.06727 0.93568
# Poissons Ratio (z) = -0.02611 0.46145
#
# Static dielectric constant tensor:
#      x y z
#    x 1.798720 0.000000 0.000000 
#    y 0.000000 1.543240 0.000000 
#    z 0.000000 0.000000 1.712520 
# 
# From -- ./inp_files/56476.got.cif
#   From: 2010.05.17/outbox.cif.g08.bks.cpg/sg74_29_cif.got.tgz:56476.got - 2010.06.03 17:57:02.
