data_PCOD9537788
_publ_section_title
;
Structure prediction by ZEFSAII (Michael W. Deem and Ramdas Pophale) SiO2 
 PCOD9537788
Probable space group: I M M A
;
_chemical_formula_sum "Si O2"
_cell_formula_units_Z 104
_cell_length_a 8.672207
_cell_length_b 20.980983
_cell_length_c 32.489379
_cell_angle_alpha 90.000000
_cell_angle_beta 90.000000
_cell_angle_gamma 90.000000
_cell_volume 5911.488892
_symmetry_space_group_name_H-M "I M M A"
_symmetry_group_IT_number 74
_symmetry_cell_setting 'orthorhombic'
loop_
_space_group_symop_operation_xyz
x,y,z
-x,1/2-y,z
x,-y,-z
-x,1/2+y,-z
-x,-y,-z
x,1/2+y,-z
-x,y,z
x,1/2-y,z
1/2+x,1/2+y,1/2+z
1/2-x,-y,1/2+z
1/2+x,1/2-y,1/2-z
1/2-x,y,1/2-z
1/2-x,1/2-y,1/2-z
1/2+x,y,1/2-z
1/2-x,1/2+y,1/2+z
1/2+x,-y,1/2+z
loop_
_atom_site_type_symbol
_atom_site_label
_atom_site_fract_x
_atom_site_fract_y
_atom_site_fract_z
Si Si1 0.185893 0.059102 0.879567
Si Si2 0.187231 0.677584 0.979943
Si Si3 0.820108 0.570048 0.917752
Si Si4 0.183269 0.010584 0.706196
Si Si5 0.816737 0.750000 0.704217
Si Si6 0.315474 0.823053 0.071892
Si Si7 0.179187 0.881072 0.824558
O O1 0.241361 0.125364 0.898100
O O2 0.000000 0.055528 0.878152
O O3 0.243171 0.000973 0.909340
O O4 0.248378 0.046443 0.833686
O O5 0.231415 0.750000 0.966616
O O6 0.244732 0.620597 0.950438
O O7 0.000000 0.676100 0.980281
O O8 0.249076 0.668052 0.025944
O O9 0.815127 0.601996 0.872777
O O10 0.000000 0.561298 0.929304
O O11 0.250000 0.032631 0.750000
O O12 0.233859 0.937093 0.699473
O O13 0.000000 0.015713 0.706261
O O14 0.750000 0.750000 0.750000
O O15 0.754347 0.686719 0.682787
O O16 0.000000 0.750000 0.705134
O O17 0.500000 0.830491 0.071136
O O18 0.280149 0.750000 0.084082
O O19 0.000000 0.880677 0.811681
#
# Coordination Sequence:
#
# PCOD9537788 Si02
#       7
#    16  16  16  16   8  16  16
#     4  10  20  36  57  82 110 140 180 223 268 322
#     4   9  17  31  53  77 103 141 187 225 263 317
#     4   8  17  32  52  78 105 136 178 225 270 316
#     4  11  21  36  57  81 110 141 176 217 265 320
#     4  12  24  36  48  68  96 134 182 232 284 334
#     4  10  21  37  55  78 109 142 177 219 271 325
#     4  10  20  35  53  74 102 139 181 228 278 325
#
# _framework density 17.592860999999999
#
# number of rings (size 3 to 8) (size 9 to 14) (size 15 to 20)
#    0.000    2.154    0.000    4.846    1.077    1.538 
#    0.000    7.692    0.000    0.462    0.000    0.000 
#    0.000    0.000    0.000    0.000    0.000    0.000 
#
# Total GULP energy -290114.078545 kJ/mol
# GULP energy per Si atom -5579.116895 kJ/mol
# Density = 1.755282 g / cm^3
# Si number density = 17.592861 Si / 1000 Ang^3
#
#
#
# Elastic Constant Matrix: (Units=GPa)
#
#
# Indices 1 2 3 4 5 6 
#
# 1 79.7228 49.2033 35.1417 0.0000 0.0000 0.0000
# 2 49.2033 129.5910 77.3292 0.0000 0.0000 0.0000
# 3 35.1417 77.3292 86.1341 0.0000 0.0000 0.0000
# 4 0.0000 0.0000 0.0000 38.8429 0.0000 0.0000
# 5 0.0000 0.0000 0.0000 0.0000 25.8032 0.0000
# 6 0.0000 0.0000 0.0000 0.0000 0.0000 25.7366
#
#
#
# Elastic Compliance Matrix: (Units=1/GPa)
#
#
# Indices 1 2 3 4 5 6 
#
# 1 0.016610 -0.004874 -0.002401 0.000000 0.000000 0.000000
# 2 -0.004874 0.018051 -0.014217 0.000000 0.000000 0.000000
# 3 -0.002401 -0.014217 0.025353 0.000000 0.000000 0.000000
# 4 0.000000 0.000000 0.000000 0.025745 0.000000 0.000000
# 5 0.000000 0.000000 0.000000 0.000000 0.038755 0.000000
# 6 0.000000 0.000000 0.000000 0.000000 0.000000 0.038855
#
#
# Mechanical properties :
#
#
# Convention : Reuss Voigt Hill
#
# Bulk Modulus (GPa) = 58.72018 68.75514 63.73766
# Shear Modulus (GPa) = 23.58175 26.99479 25.28827
#
# Velocity S-wave (km/s) = 3.66514 3.92141 3.79544
# Velocity P-wave (km/s) = 7.16664 7.72460 7.45084
#
# Compressibility (1/GPa) = 0.01702992
#
# Stress axis : x y z
#
# Youngs Moduli (GPa) = 60.20554 55.40009 39.44281
#
# Poissons Ratio (x) = 0.27000 0.09471
# Poissons Ratio (y) = 0.29342 0.56076
# Poissons Ratio (z) = 0.14457 0.78762
#
# Static dielectric constant tensor:
#      x y z
#    x 1.594180 0.000000 0.000000 
#    y 0.000000 1.596340 0.000000 
#    z 0.000000 0.000000 1.579220 
# 
# From -- ./inp_files/70618.got.cif
#   From: 2010.05.17/outbox.cif.g08.bks.cpg/sg74_36_cif.got.tgz:70618.got - 2010.06.03 17:57:02.
