data_PCOD9537498
_publ_section_title
;
Structure prediction by ZEFSAII (Michael W. Deem and Ramdas Pophale) SiO2 
 PCOD9537498
Probable space group: I M M A
;
_chemical_formula_sum "Si O2"
_cell_formula_units_Z 120
_cell_length_a 7.898924
_cell_length_b 27.868887
_cell_length_c 28.668302
_cell_angle_alpha 90.000000
_cell_angle_beta 90.000000
_cell_angle_gamma 90.000000
_cell_volume 6310.874310
_symmetry_space_group_name_H-M "I M M A"
_symmetry_group_IT_number 74
_symmetry_cell_setting 'orthorhombic'
loop_
_space_group_symop_operation_xyz
x,y,z
-x,1/2-y,z
x,-y,-z
-x,1/2+y,-z
-x,-y,-z
x,1/2+y,-z
-x,y,z
x,1/2-y,z
1/2+x,1/2+y,1/2+z
1/2-x,-y,1/2+z
1/2+x,1/2-y,1/2-z
1/2-x,y,1/2-z
1/2-x,1/2-y,1/2-z
1/2+x,y,1/2-z
1/2-x,1/2+y,1/2+z
1/2+x,-y,1/2+z
loop_
_atom_site_type_symbol
_atom_site_label
_atom_site_fract_x
_atom_site_fract_y
_atom_site_fract_z
Si Si1 0.297377 0.339912 0.136363
Si Si2 0.202044 0.570054 0.802977
Si Si3 0.704217 0.696251 0.063413
Si Si4 0.205019 0.552769 0.013844
Si Si5 0.702571 0.149448 0.032648
Si Si6 0.795558 0.750000 0.696007
Si Si7 0.296269 0.400052 0.610230
Si Si8 0.704163 0.539215 0.302714
O O1 0.500000 0.334096 0.133364
O O2 0.264930 0.391012 0.160331
O O3 0.229827 0.337139 0.083555
O O4 0.232116 0.297416 0.169388
O O5 0.250000 0.583941 0.750000
O O6 0.265889 0.515565 0.810818
O O7 0.000000 0.569030 0.805969
O O8 0.500000 0.697316 0.061241
O O9 0.764277 0.750000 0.073925
O O10 0.750909 0.655025 0.100134
O O11 0.767567 0.678877 0.012289
O O12 0.263557 0.569800 0.065033
O O13 0.000000 0.552222 0.014237
O O14 0.264550 0.500000 0.000000
O O15 0.261466 0.593835 0.978168
O O16 0.500000 0.156437 0.033375
O O17 0.750000 0.750000 0.750000
O O18 0.000000 0.750000 0.693535
O O19 0.500000 0.402920 0.610632
O O20 0.233284 0.424358 0.657717
O O21 0.500000 0.537839 0.305479
O O22 0.750000 0.552960 0.250000
#
# Coordination Sequence:
#
# PCOD9537498 Si02
#       8
#    16  16  16  16  16   8  16  16
#     4  10  21  35  52  74  98 130 170 214 261 307
#     4  10  20  34  53  74 100 132 168 210 255 304
#     4   9  18  33  54  77 102 133 169 209 252 302
#     4   9  18  31  50  72 101 137 169 201 244 299
#     4   9  19  33  49  73 102 131 167 208 251 297
#     4  10  22  38  54  70  94 128 170 216 267 312
#     4   9  18  33  51  75 104 135 169 205 250 303
#     4   9  19  34  53  77 105 136 169 205 249 299
#
# _framework density 19.014797000000002
#
# number of rings (size 3 to 8) (size 9 to 14) (size 15 to 20)
#    0.000    2.667    0.000    0.800    2.800    3.733 
#    0.000    0.000    0.000    0.400    0.000    0.000 
#    0.000    0.000    0.000    0.000    0.000    0.000 
#
# Total GULP energy -334719.096711 kJ/mol
# GULP energy per Si atom -5578.651612 kJ/mol
# Density = 1.897152 g / cm^3
# Si number density = 19.014797 Si / 1000 Ang^3
#
#
#
# Elastic Constant Matrix: (Units=GPa)
#
#
# Indices 1 2 3 4 5 6 
#
# 1 17.0772 3.7723 6.2067 0.0000 0.0000 0.0000
# 2 3.7723 132.4699 86.2067 0.0000 0.0000 0.0000
# 3 6.2067 86.2067 141.9406 0.0000 0.0000 0.0000
# 4 0.0000 0.0000 0.0000 22.1792 0.0000 0.0000
# 5 0.0000 0.0000 0.0000 0.0000 20.1273 0.0000
# 6 0.0000 0.0000 0.0000 0.0000 0.0000 21.1269
#
#
#
# Elastic Compliance Matrix: (Units=1/GPa)
#
#
# Indices 1 2 3 4 5 6 
#
# 1 0.059503 -0.000002 -0.002601 0.000000 0.000000 0.000000
# 2 -0.000002 0.012482 -0.007581 0.000000 0.000000 0.000000
# 3 -0.002601 -0.007581 0.011763 0.000000 0.000000 0.000000
# 4 0.000000 0.000000 0.000000 0.045087 0.000000 0.000000
# 5 0.000000 0.000000 0.000000 0.000000 0.049684 0.000000
# 6 0.000000 0.000000 0.000000 0.000000 0.000000 0.047333
#
#
# Mechanical properties :
#
#
# Convention : Reuss Voigt Hill
#
# Bulk Modulus (GPa) = 15.77754 53.76214 34.76984
# Shear Modulus (GPa) = 18.70226 25.70681 22.20453
#
# Velocity S-wave (km/s) = 3.13958 3.68086 3.42094
# Velocity P-wave (km/s) = 4.63230 6.81177 5.82488
#
# Compressibility (1/GPa) = 0.06338125
#
# Stress axis : x y z
#
# Youngs Moduli (GPa) = 16.80585 80.11280 85.01083
#
# Poissons Ratio (x) = 0.00016 0.22109
# Poissons Ratio (y) = 0.00003 0.64447
# Poissons Ratio (z) = 0.04371 0.60734
#
# Static dielectric constant tensor:
#      x y z
#    x 1.693930 0.000000 0.000000 
#    y 0.000000 1.654590 0.000000 
#    z 0.000000 0.000000 1.648780 
# 
# From -- ./inp_files/65144.got.cif
#   From: 2010.05.17/outbox.cif.g08.bks.cpg/sg74_33_cif.got.tgz:65144.got - 2010.06.03 17:57:02.
