data_PCOD9537902
_publ_section_title
;
Structure prediction by ZEFSAII (Michael W. Deem and Ramdas Pophale) SiO2 
 PCOD9537902
Probable space group: I M M A
;
_chemical_formula_sum "Si O2"
_cell_formula_units_Z 116
_cell_length_a 9.178700
_cell_length_b 23.527782
_cell_length_c 29.696695
_cell_angle_alpha 90.000000
_cell_angle_beta 90.000000
_cell_angle_gamma 90.000000
_cell_volume 6413.133514
_symmetry_space_group_name_H-M "I M M A"
_symmetry_group_IT_number 74
_symmetry_cell_setting 'orthorhombic'
loop_
_space_group_symop_operation_xyz
x,y,z
-x,1/2-y,z
x,-y,-z
-x,1/2+y,-z
-x,-y,-z
x,1/2+y,-z
-x,y,z
x,1/2-y,z
1/2+x,1/2+y,1/2+z
1/2-x,-y,1/2+z
1/2+x,1/2-y,1/2-z
1/2-x,y,1/2-z
1/2-x,1/2-y,1/2-z
1/2+x,y,1/2-z
1/2-x,1/2+y,1/2+z
1/2+x,-y,1/2+z
loop_
_atom_site_type_symbol
_atom_site_label
_atom_site_fract_x
_atom_site_fract_y
_atom_site_fract_z
Si Si1 0.173029 0.901362 0.943316
Si Si2 0.326738 0.378741 0.621622
Si Si3 0.169378 0.181457 0.704142
Si Si4 0.828051 0.904490 0.702293
Si Si5 0.671737 0.683203 0.876834
Si Si6 0.660904 0.135304 0.971028
Si Si7 0.500000 0.750000 0.009182
Si Si8 0.827751 0.012276 0.134684
O O1 0.229892 0.848627 0.913266
O O2 0.206003 0.956315 0.912516
O O3 0.000000 0.898265 0.950343
O O4 0.256879 0.898943 0.990209
O O5 0.500000 0.368608 0.620807
O O6 0.251089 0.343720 0.661306
O O7 0.254294 0.363160 0.574200
O O8 0.301776 0.445561 0.630919
O O9 0.174299 0.250000 0.701919
O O10 0.250000 0.163664 0.750000
O O11 0.000000 0.164243 0.704775
O O12 0.750000 0.898818 0.750000
O O13 0.806611 0.849171 0.670482
O O14 0.762459 0.956667 0.673634
O O15 0.000000 0.912312 0.708773
O O16 0.500000 0.676449 0.889524
O O17 0.701630 0.750000 0.874008
O O18 0.500000 0.110282 0.961247
O O19 0.624467 0.199092 0.988149
O O20 0.000000 0.021768 0.143390
#
# Coordination Sequence:
#
# PCOD9537902 Si02
#       8
#    16  16  16  16  16  16   4  16
#     4  10  20  36  57  82 113 147 189 235 280 325
#     4  11  23  39  61  87 114 147 189 231 279 332
#     4  10  22  40  62  87 117 150 185 229 282 337
#     4  10  20  35  56  80 108 145 187 231 282 335
#     4   9  19  34  53  77 109 148 187 230 281 336
#     4  10  22  39  58  82 113 155 185 222 273 330
#     4   8  24  40  58  78 122 156 190 212 286 328
#     4   9  21  40  58  80 112 148 185 232 283 334
#
# _framework density 18.087883000000001
#
# number of rings (size 3 to 8) (size 9 to 14) (size 15 to 20)
#    0.414    1.793    0.000    2.069    1.931    4.690 
#    0.000    3.448    0.000    0.000    0.000    0.000 
#    0.000    0.000    0.000    0.000    0.000    0.000 
#
# Total GULP energy -323141.718038 kJ/mol
# GULP energy per Si atom -5571.408932 kJ/mol
# Density = 1.804671 g / cm^3
# Si number density = 18.087883 Si / 1000 Ang^3
#
#
#
# Elastic Constant Matrix: (Units=GPa)
#
#
# Indices 1 2 3 4 5 6 
#
# 1 100.2689 25.6523 63.4569 0.0000 0.0000 0.0000
# 2 25.6523 23.0460 4.0874 0.0000 0.0000 0.0000
# 3 63.4569 4.0874 114.5700 0.0000 0.0000 0.0000
# 4 0.0000 0.0000 0.0000 8.7927 0.0000 0.0000
# 5 0.0000 0.0000 0.0000 0.0000 32.9963 0.0000
# 6 0.0000 0.0000 0.0000 0.0000 0.0000 29.6699
#
#
#
# Elastic Compliance Matrix: (Units=1/GPa)
#
#
# Indices 1 2 3 4 5 6 
#
# 1 0.024251 -0.024768 -0.012548 0.000000 0.000000 0.000000
# 2 -0.024768 0.068964 0.011258 0.000000 0.000000 0.000000
# 3 -0.012548 0.011258 0.015277 0.000000 0.000000 0.000000
# 4 0.000000 0.000000 0.000000 0.113730 0.000000 0.000000
# 5 0.000000 0.000000 0.000000 0.000000 0.030306 0.000000
# 6 0.000000 0.000000 0.000000 0.000000 0.000000 0.033704
#
#
# Mechanical properties :
#
#
# Convention : Reuss Voigt Hill
#
# Bulk Modulus (GPa) = 17.73841 47.14202 32.44021
# Shear Modulus (GPa) = 14.00004 23.93768 18.96886
#
# Velocity S-wave (km/s) = 2.78511 3.64182 3.24189
# Velocity P-wave (km/s) = 4.49116 6.61839 5.65569
#
# Compressibility (1/GPa) = 0.05637485
#
# Stress axis : x y z
#
# Youngs Moduli (GPa) = 41.23502 14.50032 65.45861
#
# Poissons Ratio (x) = 0.35915 0.82140
# Poissons Ratio (y) = 1.02132 -0.73693
# Poissons Ratio (z) = 0.51743 -0.16325
#
# Static dielectric constant tensor:
#      x y z
#    x 1.610940 0.000000 0.000000 
#    y 0.000000 1.600000 0.000000 
#    z 0.000000 0.000000 1.602930 
# 
# From -- ./inp_files/64877.got.cif
#   From: 2010.05.17/outbox.cif.g08.bks.cpg/sg74_33_cif.got.tgz:64877.got - 2010.06.03 17:57:02.
