data_PCOD9537268
_publ_section_title
;
Structure prediction by ZEFSAII (Michael W. Deem and Ramdas Pophale) SiO2 
 PCOD9537268
Probable space group: I M M A
;
_chemical_formula_sum "Si O2"
_cell_formula_units_Z 96
_cell_length_a 8.400753
_cell_length_b 24.316159
_cell_length_c 26.168849
_cell_angle_alpha 90.000000
_cell_angle_beta 90.000000
_cell_angle_gamma 90.000000
_cell_volume 5345.616656
_symmetry_space_group_name_H-M "I M M A"
_symmetry_group_IT_number 74
_symmetry_cell_setting 'orthorhombic'
loop_
_space_group_symop_operation_xyz
x,y,z
-x,1/2-y,z
x,-y,-z
-x,1/2+y,-z
-x,-y,-z
x,1/2+y,-z
-x,y,z
x,1/2-y,z
1/2+x,1/2+y,1/2+z
1/2-x,-y,1/2+z
1/2+x,1/2-y,1/2-z
1/2-x,y,1/2-z
1/2-x,1/2-y,1/2-z
1/2+x,y,1/2-z
1/2-x,1/2+y,1/2+z
1/2+x,-y,1/2+z
loop_
_atom_site_type_symbol
_atom_site_label
_atom_site_fract_x
_atom_site_fract_y
_atom_site_fract_z
Si Si1 0.190339 0.750000 0.938421
Si Si2 0.308980 0.939106 0.806941
Si Si3 0.191003 0.562251 0.193110
Si Si4 0.192315 0.366806 0.402178
Si Si5 0.692088 0.132594 0.597514
Si Si6 0.194505 0.250000 0.942779
Si Si7 0.807406 0.563353 0.498875
O O1 0.248594 0.694799 0.911010
O O2 0.000000 0.750000 0.939344
O O3 0.246259 0.750000 0.997819
O O4 0.500000 0.940157 0.806571
O O5 0.250000 0.925632 0.750000
O O6 0.254505 0.896072 0.849905
O O7 0.250232 0.000699 0.819558
O O8 0.250000 0.575595 0.250000
O O9 0.247315 0.605331 0.150410
O O10 0.000000 0.561304 0.193514
O O11 0.244040 0.403893 0.450457
O O12 0.000000 0.366139 0.401930
O O13 0.500000 0.133964 0.598949
O O14 0.747790 0.194376 0.585196
O O15 0.743981 0.094187 0.550789
O O16 0.000000 0.250000 0.943110
O O17 0.755415 0.500000 0.500000
O O18 0.000000 0.564045 0.497462
#
# Coordination Sequence:
#
# PCOD9537268 Si02
#       7
#     8  16  16  16  16   8  16
#     4  11  21  35  58  79 104 144 184 222 263 316
#     4  10  20  36  58  81 109 143 177 220 268 319
#     4  10  20  34  55  80 108 142 178 221 268 319
#     4  10  21  36  54  78 110 142 175 218 269 320
#     4  10  20  35  54  77 105 139 179 220 265 313
#     4   9  18  35  54  75 105 140 177 219 266 307
#     4  10  20  33  51  77 108 139 170 211 266 323
#
# _framework density 17.958639999999999
#
# number of rings (size 3 to 8) (size 9 to 14) (size 15 to 20)
#    0.000    2.000    1.667    3.250    0.000    4.333 
#    0.000    1.250    0.000    0.000    0.000    0.000 
#    0.000    0.000    0.000    0.000    0.000    0.000 
#
# Total GULP energy -267993.538900 kJ/mol
# GULP energy per Si atom -5583.198727 kJ/mol
# Density = 1.791776 g / cm^3
# Si number density = 17.958640 Si / 1000 Ang^3
#
#
#
# Elastic Constant Matrix: (Units=GPa)
#
#
# Indices 1 2 3 4 5 6 
#
# 1 19.6675 20.8668 24.2394 0.0000 0.0000 0.0000
# 2 20.8668 191.2757 121.8390 0.0000 0.0000 0.0000
# 3 24.2394 121.8390 157.1323 0.0000 0.0000 0.0000
# 4 0.0000 0.0000 0.0000 31.4408 0.0000 0.0000
# 5 0.0000 0.0000 0.0000 0.0000 23.6566 0.0000
# 6 0.0000 0.0000 0.0000 0.0000 0.0000 2.9482
#
#
#
# Elastic Compliance Matrix: (Units=1/GPa)
#
#
# Indices 1 2 3 4 5 6 
#
# 1 0.062957 -0.001347 -0.008667 0.000000 0.000000 0.000000
# 2 -0.001347 0.010359 -0.007825 0.000000 0.000000 0.000000
# 3 -0.008667 -0.007825 0.013768 0.000000 0.000000 0.000000
# 4 0.000000 0.000000 0.000000 0.031806 0.000000 0.000000
# 5 0.000000 0.000000 0.000000 0.000000 0.042272 0.000000
# 6 0.000000 0.000000 0.000000 0.000000 0.000000 0.339192
#
#
# Mechanical properties :
#
#
# Convention : Reuss Voigt Hill
#
# Bulk Modulus (GPa) = 19.45299 77.99621 48.72460
# Shear Modulus (GPa) = 9.03887 25.01780 17.02834
#
# Velocity S-wave (km/s) = 2.24590 3.73645 3.08262
# Velocity P-wave (km/s) = 4.19298 7.88289 6.31352
#
# Compressibility (1/GPa) = 0.05140598
#
# Stress axis : x y z
#
# Youngs Moduli (GPa) = 15.88396 96.53332 72.63164
#
# Poissons Ratio (x) = 0.13007 0.62950
# Poissons Ratio (y) = 0.02140 0.56831
# Poissons Ratio (z) = 0.13767 0.75533
#
# Static dielectric constant tensor:
#      x y z
#    x 1.616330 0.000000 0.000000 
#    y 0.000000 1.594170 0.000000 
#    z 0.000000 0.000000 1.602380 
# 
# From -- ./inp_files/57372.got.cif
#   From: 2010.05.17/outbox.cif.g08.bks.cpg/sg74_29_cif.got.tgz:57372.got - 2010.06.03 17:57:02.
