data_PCOD9537629
_publ_section_title
;
Structure prediction by ZEFSAII (Michael W. Deem and Ramdas Pophale) SiO2 
 PCOD9537629
Probable space group: I M M A
;
_chemical_formula_sum "Si O2"
_cell_formula_units_Z 88
_cell_length_a 18.902203
_cell_length_b 8.369478
_cell_length_c 29.078825
_cell_angle_alpha 90.000000
_cell_angle_beta 90.000000
_cell_angle_gamma 90.000000
_cell_volume 4600.315832
_symmetry_space_group_name_H-M "I M M A"
_symmetry_group_IT_number 74
_symmetry_cell_setting 'orthorhombic'
loop_
_space_group_symop_operation_xyz
x,y,z
-x,1/2-y,z
x,-y,-z
-x,1/2+y,-z
-x,-y,-z
x,1/2+y,-z
-x,y,z
x,1/2-y,z
1/2+x,1/2+y,1/2+z
1/2-x,-y,1/2+z
1/2+x,1/2-y,1/2-z
1/2-x,y,1/2-z
1/2-x,1/2-y,1/2-z
1/2+x,y,1/2-z
1/2-x,1/2+y,1/2+z
1/2+x,-y,1/2+z
loop_
_atom_site_type_symbol
_atom_site_label
_atom_site_fract_x
_atom_site_fract_y
_atom_site_fract_z
Si Si1 0.500000 0.559733 0.947455
Si Si2 0.313402 0.442383 0.282487
Si Si3 0.921495 0.556987 0.947741
Si Si4 0.918649 0.057488 0.709831
Si Si5 0.634752 0.058412 0.889168
Si Si6 0.789498 0.556450 0.886859
O O1 0.500000 0.750000 0.947326
O O2 0.429773 0.500558 0.920741
O O3 0.500000 0.500000 0.000000
O O4 0.310892 0.250000 0.283515
O O5 0.250000 0.501853 0.250000
O O6 0.383797 0.493732 0.256178
O O7 0.302988 0.498913 0.334458
O O8 0.920717 0.750000 0.947074
O O9 0.855262 0.501026 0.917733
O O10 0.000000 0.505706 0.931214
O O11 0.914006 0.500000 0.000000
O O12 0.915610 0.250000 0.710485
O O13 0.878712 0.001895 0.663532
O O14 0.000000 0.008527 0.705766
O O15 0.632930 0.250000 0.889348
O O16 0.712663 0.001163 0.903295
O O17 0.788695 0.750000 0.887072
#
# Coordination Sequence:
#
# PCOD9537629 Si02
#       6
#     8  16  16  16  16  16
#     4  12  26  44  66  90 120 156 200 254 307 356
#     4  10  20  34  54  83 115 148 193 239 282 338
#     4   9  19  37  60  83 111 148 187 235 295 352
#     4  10  21  37  56  80 113 154 197 238 286 348
#     4  11  22  39  61  86 118 157 200 242 295 356
#     4  10  21  37  58  87 121 154 195 246 298 352
#
# _framework density 19.129123
#
# number of rings (size 3 to 8) (size 9 to 14) (size 15 to 20)
#    0.000    1.818    2.727    1.364    0.000    4.364 
#    0.000    3.636    0.000    2.182    0.000    0.000 
#    0.000    0.000    0.000    0.000    0.000    0.000 
#
# Total GULP energy -245661.822225 kJ/mol
# GULP energy per Si atom -5583.223232 kJ/mol
# Density = 1.908558 g / cm^3
# Si number density = 19.129123 Si / 1000 Ang^3
#
#
#
# Elastic Constant Matrix: (Units=GPa)
#
#
# Indices 1 2 3 4 5 6 
#
# 1 187.2883 25.8132 86.3126 0.0000 0.0000 0.0000
# 2 25.8132 23.0479 18.3947 0.0000 0.0000 0.0000
# 3 86.3126 18.3947 106.4844 0.0000 0.0000 0.0000
# 4 0.0000 0.0000 0.0000 23.7694 0.0000 0.0000
# 5 0.0000 0.0000 0.0000 0.0000 38.5975 0.0000
# 6 0.0000 0.0000 0.0000 0.0000 0.0000 24.5345
#
#
#
# Elastic Compliance Matrix: (Units=1/GPa)
#
#
# Indices 1 2 3 4 5 6 
#
# 1 0.008981 -0.004928 -0.006429 0.000000 0.000000 0.000000
# 2 -0.004928 0.053030 -0.005166 0.000000 0.000000 0.000000
# 3 -0.006429 -0.005166 0.015494 0.000000 0.000000 0.000000
# 4 0.000000 0.000000 0.000000 0.042071 0.000000 0.000000
# 5 0.000000 0.000000 0.000000 0.000000 0.025908 0.000000
# 6 0.000000 0.000000 0.000000 0.000000 0.000000 0.040759
#
#
# Mechanical properties :
#
#
# Convention : Reuss Voigt Hill
#
# Bulk Modulus (GPa) = 22.49205 64.20684 43.34944
# Shear Modulus (GPa) = 21.35749 29.80031 25.57890
#
# Velocity S-wave (km/s) = 3.34502 3.95124 3.66070
# Velocity P-wave (km/s) = 5.16744 7.37931 6.37011
#
# Compressibility (1/GPa) = 0.04446016
#
# Stress axis : x y z
#
# Youngs Moduli (GPa) = 111.34374 18.85708 64.54009
#
# Poissons Ratio (x) = 0.09293 0.41490
# Poissons Ratio (y) = 0.54871 0.33343
# Poissons Ratio (z) = 0.71578 0.09742
#
# Static dielectric constant tensor:
#      x y z
#    x 1.670230 0.000000 0.000000 
#    y 0.000000 1.662710 0.000000 
#    z 0.000000 0.000000 1.651930 
# 
# From -- ./inp_files/72964.got.cif
#   From: 2010.05.17/outbox.cif.g08.bks.cpg/sg74_37_cif.got.tgz:72964.got - 2010.06.03 17:57:02.
