data_PCOD9537163
_publ_section_title
;
Structure prediction by ZEFSAII (Michael W. Deem and Ramdas Pophale) SiO2 
 PCOD9537163
Probable space group: I M M A
;
_chemical_formula_sum "Si O2"
_cell_formula_units_Z 64
_cell_length_a 9.757652
_cell_length_b 12.383938
_cell_length_c 30.011923
_cell_angle_alpha 90.000000
_cell_angle_beta 90.000000
_cell_angle_gamma 90.000000
_cell_volume 3626.585475
_symmetry_space_group_name_H-M "I M M A"
_symmetry_group_IT_number 74
_symmetry_cell_setting 'orthorhombic'
loop_
_space_group_symop_operation_xyz
x,y,z
-x,1/2-y,z
x,-y,-z
-x,1/2+y,-z
-x,-y,-z
x,1/2+y,-z
-x,y,z
x,1/2-y,z
1/2+x,1/2+y,1/2+z
1/2-x,-y,1/2+z
1/2+x,1/2-y,1/2-z
1/2-x,y,1/2-z
1/2-x,1/2-y,1/2-z
1/2+x,y,1/2-z
1/2-x,1/2+y,1/2+z
1/2+x,-y,1/2+z
loop_
_atom_site_type_symbol
_atom_site_label
_atom_site_fract_x
_atom_site_fract_y
_atom_site_fract_z
Si Si1 0.000000 0.121406 0.950179
Si Si2 0.000000 0.623362 0.547115
Si Si3 0.000000 0.881187 0.653514
Si Si4 0.271519 0.473136 0.303445
Si Si5 0.000000 0.877868 0.155931
Si Si6 0.251362 0.500000 0.500000
Si Si7 0.639443 0.250000 0.287644
O O1 0.000000 0.102500 0.897092
O O2 0.000000 0.250000 0.958558
O O3 0.860055 0.070174 0.970774
O O4 0.000000 0.610351 0.600285
O O5 0.858521 0.571062 0.528298
O O6 0.000000 0.750000 0.535735
O O7 0.128027 0.945724 0.673899
O O8 0.000000 0.750000 0.662820
O O9 0.250000 0.485563 0.250000
O O10 0.365000 0.567872 0.322492
O O11 0.349818 0.360460 0.313422
O O12 0.000000 0.750000 0.163735
O O13 0.500000 0.250000 0.261352
O O14 0.750000 0.250000 0.250000
#
# Coordination Sequence:
#
# PCOD9537163 Si02
#       7
#     8   8   8  16   8   8   8
#     4  10  21  38  62  84 107 147 193 235 282 336
#     4  10  21  36  55  85 118 143 176 223 290 349
#     4  11  22  34  55  88 119 145 175 237 298 345
#     4  11  22  36  58  83 116 153 195 235 283 341
#     4  11  24  41  57  80 115 155 200 241 274 328
#     4  10  20  38  62  82 110 144 184 232 284 352
#     4  10  20  32  56  84 112 146 194 236 290 342
#
# _framework density 17.647452999999999
#
# number of rings (size 3 to 8) (size 9 to 14) (size 15 to 20)
#    0.000    1.500    2.500    3.000    5.250    0.500 
#    0.000    0.625    2.750    4.500    0.000    0.000 
#    0.000    0.000    0.000    0.000    0.000    0.000 
#
# Total GULP energy -178190.313591 kJ/mol
# GULP energy per Si atom -5568.447300 kJ/mol
# Density = 1.760729 g / cm^3
# Si number density = 17.647453 Si / 1000 Ang^3
#
#
#
# Elastic Constant Matrix: (Units=GPa)
#
#
# Indices 1 2 3 4 5 6 
#
# 1 206.3644 87.0660 80.1420 0.0000 0.0000 0.0000
# 2 87.0660 141.0272 82.9617 0.0000 0.0000 0.0000
# 3 80.1420 82.9617 123.2022 0.0000 0.0000 0.0000
# 4 0.0000 0.0000 0.0000 16.4713 0.0000 0.0000
# 5 0.0000 0.0000 0.0000 0.0000 26.1626 0.0000
# 6 0.0000 0.0000 0.0000 0.0000 0.0000 32.7587
#
#
#
# Elastic Compliance Matrix: (Units=1/GPa)
#
#
# Indices 1 2 3 4 5 6 
#
# 1 0.007074 -0.002749 -0.002750 0.000000 0.000000 0.000000
# 2 -0.002749 0.012811 -0.006838 0.000000 0.000000 0.000000
# 3 -0.002750 -0.006838 0.014510 0.000000 0.000000 0.000000
# 4 0.000000 0.000000 0.000000 0.060712 0.000000 0.000000
# 5 0.000000 0.000000 0.000000 0.000000 0.038223 0.000000
# 6 0.000000 0.000000 0.000000 0.000000 0.000000 0.030526
#
#
# Mechanical properties :
#
#
# Convention : Reuss Voigt Hill
#
# Bulk Modulus (GPa) = 102.88270 107.88146 105.38208
# Shear Modulus (GPa) = 26.07283 29.77344 27.92314
#
# Velocity S-wave (km/s) = 3.84790 4.11192 3.98210
# Velocity P-wave (km/s) = 8.84122 9.15467 8.99931
#
# Compressibility (1/GPa) = 0.00971981
#
# Stress axis : x y z
#
# Youngs Moduli (GPa) = 141.36767 78.05891 68.91669
#
# Poissons Ratio (x) = 0.21461 0.18953
# Poissons Ratio (y) = 0.38867 0.47126
# Poissons Ratio (z) = 0.38877 0.53378
#
# Static dielectric constant tensor:
#      x y z
#    x 1.704720 0.000000 0.000000 
#    y 0.000000 1.623450 0.000000 
#    z 0.000000 0.000000 1.593640 
# 
# From -- ./inp_files/69849.got.cif
#   From: 2010.05.17/outbox.cif.g08.bks.cpg/sg74_35_cif.got.tgz:69849.got - 2010.06.03 17:57:02.
