data_PCOD9537688
_publ_section_title
;
Structure prediction by ZEFSAII (Michael W. Deem and Ramdas Pophale) SiO2 
 PCOD9537688
Probable space group: I M M A
;
_chemical_formula_sum "Si O2"
_cell_formula_units_Z 116
_cell_length_a 26.735139
_cell_length_b 7.701676
_cell_length_c 26.579851
_cell_angle_alpha 90.000000
_cell_angle_beta 90.000000
_cell_angle_gamma 90.000000
_cell_volume 5472.934278
_symmetry_space_group_name_H-M "I M M A"
_symmetry_group_IT_number 74
_symmetry_cell_setting 'orthorhombic'
loop_
_space_group_symop_operation_xyz
x,y,z
-x,1/2-y,z
x,-y,-z
-x,1/2+y,-z
-x,-y,-z
x,1/2+y,-z
-x,y,z
x,1/2-y,z
1/2+x,1/2+y,1/2+z
1/2-x,-y,1/2+z
1/2+x,1/2-y,1/2-z
1/2-x,y,1/2-z
1/2-x,1/2-y,1/2-z
1/2+x,y,1/2-z
1/2-x,1/2+y,1/2+z
1/2+x,-y,1/2+z
loop_
_atom_site_type_symbol
_atom_site_label
_atom_site_fract_x
_atom_site_fract_y
_atom_site_fract_z
Si Si1 0.347002 0.950632 0.290486
Si Si2 0.859970 0.448595 0.321711
Si Si3 0.553090 0.452121 0.662767
Si Si4 0.000000 0.250000 0.550712
Si Si5 0.698469 0.543044 0.555680
Si Si6 0.749435 0.949472 0.156907
Si Si7 0.945403 0.952784 0.600557
Si Si8 0.082224 0.543369 0.944617
O O1 0.343677 0.750000 0.307748
O O2 0.395193 0.032189 0.317553
O O3 0.293060 0.024417 0.306719
O O4 0.357710 0.956183 0.231536
O O5 0.873686 0.250000 0.310575
O O6 0.803565 0.456966 0.342059
O O7 0.900694 0.507838 0.362671
O O8 0.500000 0.529194 0.679689
O O9 0.553290 0.250000 0.678749
O O10 0.555460 0.459892 0.602595
O O11 0.043175 0.405709 0.557528
O O12 0.717818 0.500000 0.500000
O O13 0.699654 0.750000 0.562852
O O14 0.728005 0.457736 0.601112
O O15 0.640426 0.485592 0.557198
O O16 0.739243 0.750000 0.172069
O O17 0.938290 0.750000 0.584266
O O18 0.000000 0.956780 0.628394
O O19 0.080280 0.750000 0.938157
O O20 0.062775 0.500000 0.000000
#
# Coordination Sequence:
#
# PCOD9537688 Si02
#       8
#    16  16  16   4  16  16  16  16
#     4  10  22  37  52  73 103 139 185 229 274 334
#     4  11  23  36  53  78 110 143 182 229 272 323
#     4  10  21  38  56  76 103 137 180 232 284 336
#     4   8  14  28  56  70  98 148 164 224 266 314
#     4  10  20  35  57  82 108 140 177 219 277 335
#     4  11  22  36  56  80 108 140 179 225 270 330
#     4   8  17  31  48  76 104 134 179 222 261 313
#     4  10  20  34  56  79 102 135 174 224 281 341
#
# _framework density 21.195212000000001
#
# number of rings (size 3 to 8) (size 9 to 14) (size 15 to 20)
#    0.414    1.655    1.379    2.069    1.931    5.517 
#    0.000    0.000    0.000    0.000    0.000    0.000 
#    0.000    0.552    0.000    3.034    0.000    5.655 
#
# Total GULP energy -322885.145494 kJ/mol
# GULP energy per Si atom -5566.985267 kJ/mol
# Density = 2.114697 g / cm^3
# Si number density = 21.195212 Si / 1000 Ang^3
#
#
#
# Elastic Constant Matrix: (Units=GPa)
#
#
# Indices 1 2 3 4 5 6 
#
# 1 108.9650 7.8419 15.5554 0.0000 0.0000 0.0000
# 2 7.8419 61.8277 4.5512 0.0000 0.0000 0.0000
# 3 15.5554 4.5512 42.8963 0.0000 0.0000 0.0000
# 4 0.0000 0.0000 0.0000 18.3402 0.0000 0.0000
# 5 0.0000 0.0000 0.0000 0.0000 -177.7911 0.0000
# 6 0.0000 0.0000 0.0000 0.0000 0.0000 -5.0921
#
#
#
# Elastic Compliance Matrix: (Units=1/GPa)
#
#
# Indices 1 2 3 4 5 6 
#
# 1 0.009737 -0.000983 -0.003427 0.000000 0.000000 0.000000
# 2 -0.000983 0.016400 -0.001384 0.000000 0.000000 0.000000
# 3 -0.003427 -0.001384 0.024701 0.000000 0.000000 0.000000
# 4 0.000000 0.000000 0.000000 0.054525 0.000000 0.000000
# 5 0.000000 0.000000 0.000000 0.000000 -0.005625 0.000000
# 6 0.000000 0.000000 0.000000 0.000000 0.000000 -0.196384
#
#
# Mechanical properties :
#
#
# Convention : Reuss Voigt Hill
#
# Bulk Modulus (GPa) = 25.47587 29.95399 27.71493
# Shear Modulus (GPa) = -69.46972 -20.52589 -44.99780
#
# Velocity S-wave (km/s) = -5.73126 -3.11532 -4.61262
# Velocity P-wave (km/s) = 5.63477 1.10580 3.90691
#
# Compressibility (1/GPa) = 0.03925283
#
# Stress axis : x y z
#
# Youngs Moduli (GPa) = 102.69926 60.97379 40.48341
#
# Poissons Ratio (x) = 0.05992 0.13872
# Poissons Ratio (y) = 0.10093 0.05602
# Poissons Ratio (z) = 0.35192 0.08437
#
# Static dielectric constant tensor:
#      x y z
#    x 1.804710 0.000000 0.000000 
#    y 0.000000 1.778810 0.000000 
#    z 0.000000 0.000000 1.756190 
# 
# From -- ./inp_files/68742.got.cif
#   From: 2010.05.17/outbox.cif.g08.bks.cpg/sg74_35_cif.got.tgz:68742.got - 2010.06.03 17:57:02.
