data_PCOD9537706
_publ_section_title
;
Structure prediction by ZEFSAII (Michael W. Deem and Ramdas Pophale) SiO2 
 PCOD9537706
Probable space group: I M M A
;
_chemical_formula_sum "Si O2"
_cell_formula_units_Z 116
_cell_length_a 7.831584
_cell_length_b 27.990622
_cell_length_c 25.512734
_cell_angle_alpha 90.000000
_cell_angle_beta 90.000000
_cell_angle_gamma 90.000000
_cell_volume 5592.669571
_symmetry_space_group_name_H-M "I M M A"
_symmetry_group_IT_number 74
_symmetry_cell_setting 'orthorhombic'
loop_
_space_group_symop_operation_xyz
x,y,z
-x,1/2-y,z
x,-y,-z
-x,1/2+y,-z
-x,-y,-z
x,1/2+y,-z
-x,y,z
x,1/2-y,z
1/2+x,1/2+y,1/2+z
1/2-x,-y,1/2+z
1/2+x,1/2-y,1/2-z
1/2-x,y,1/2-z
1/2-x,1/2-y,1/2-z
1/2+x,y,1/2-z
1/2-x,1/2+y,1/2+z
1/2+x,-y,1/2+z
loop_
_atom_site_type_symbol
_atom_site_label
_atom_site_fract_x
_atom_site_fract_y
_atom_site_fract_z
Si Si1 0.296220 0.028856 0.311053
Si Si2 0.704208 0.345744 0.953725
Si Si3 0.207978 0.802712 0.564627
Si Si4 0.795672 0.924626 0.188790
Si Si5 0.305866 0.553034 0.495359
Si Si6 0.198975 0.901065 0.601190
Si Si7 0.198344 0.321289 0.657332
Si Si8 0.250000 0.250000 0.750000
O O1 0.500000 0.030431 0.315475
O O2 0.250000 0.032616 0.250000
O O3 0.219459 0.070598 0.345528
O O4 0.241014 0.976517 0.332165
O O5 0.500000 0.340600 0.950975
O O6 0.770834 0.319357 0.901587
O O7 0.763620 0.320178 0.006866
O O8 0.737691 0.402735 0.960218
O O9 0.271814 0.750000 0.576954
O O10 0.254216 0.845903 0.603156
O O11 0.000000 0.800459 0.563652
O O12 0.750000 0.926288 0.250000
O O13 0.706703 0.877829 0.167387
O O14 0.000000 0.919472 0.182238
O O15 0.224496 0.500000 0.500000
O O16 0.500000 0.545827 0.476983
O O17 0.298981 0.573223 0.554445
O O18 0.000000 0.901973 0.584732
O O19 0.280998 0.291636 0.704488
O O20 0.000000 0.305347 0.658867
#
# Coordination Sequence:
#
# PCOD9537706 Si02
#       8
#    16  16  16  16  16  16  16   4
#     4  10  21  37  58  86 118 154 191 233 282 339
#     4   9  20  36  56  83 109 144 191 240 292 350
#     4   8  15  31  56  83 110 140 182 231 280 335
#     4  10  21  37  57  78 105 141 185 230 282 342
#     4  10  21  36  54  80 116 154 189 232 290 353
#     4  10  20  34  56  86 116 150 190 233 283 343
#     4  11  24  40  58  82 111 146 193 247 304 356
#     4  12  26  40  60  86 118 156 202 260 318 364
#
# _framework density 20.741436
#
# number of rings (size 3 to 8) (size 9 to 14) (size 15 to 20)
#    0.000    2.207    0.690    2.690    2.897    3.862 
#    0.000    0.000    0.000   10.759    0.000    0.000 
#    0.000    0.000    0.000    0.000    0.000    0.000 
#
# Total GULP energy -323005.440672 kJ/mol
# GULP energy per Si atom -5569.059322 kJ/mol
# Density = 2.069423 g / cm^3
# Si number density = 20.741436 Si / 1000 Ang^3
#
#
#
# Elastic Constant Matrix: (Units=GPa)
#
#
# Indices 1 2 3 4 5 6 
#
# 1 34.6192 8.2742 -2.7245 0.0000 0.0000 0.0000
# 2 8.2742 182.3278 52.9785 0.0000 0.0000 0.0000
# 3 -2.7245 52.9785 70.6436 0.0000 0.0000 0.0000
# 4 0.0000 0.0000 0.0000 14.4887 0.0000 0.0000
# 5 0.0000 0.0000 0.0000 0.0000 13.0255 0.0000
# 6 0.0000 0.0000 0.0000 0.0000 0.0000 19.7972
#
#
#
# Elastic Compliance Matrix: (Units=1/GPa)
#
#
# Indices 1 2 3 4 5 6 
#
# 1 0.029614 -0.002143 0.002749 0.000000 0.000000 0.000000
# 2 -0.002143 0.007168 -0.005458 0.000000 0.000000 0.000000
# 3 0.002749 -0.005458 0.018355 0.000000 0.000000 0.000000
# 4 0.000000 0.000000 0.000000 0.069019 0.000000 0.000000
# 5 0.000000 0.000000 0.000000 0.000000 0.076772 0.000000
# 6 0.000000 0.000000 0.000000 0.000000 0.000000 0.050512
#
#
# Mechanical properties :
#
#
# Convention : Reuss Voigt Hill
#
# Bulk Modulus (GPa) = 22.01028 44.96077 33.48552
# Shear Modulus (GPa) = 18.09703 24.73312 21.41507
#
# Velocity S-wave (km/s) = 2.95703 3.45693 3.21671
# Velocity P-wave (km/s) = 4.72159 6.13659 5.47499
#
# Compressibility (1/GPa) = 0.04543332
#
# Stress axis : x y z
#
# Youngs Moduli (GPa) = 33.76762 139.51282 54.48166
#
# Poissons Ratio (x) = 0.29893 -0.14977
# Poissons Ratio (y) = 0.07235 0.29736
# Poissons Ratio (z) = -0.09283 0.76147
#
# Static dielectric constant tensor:
#      x y z
#    x 1.806740 0.000000 0.000000 
#    y 0.000000 1.771380 0.000000 
#    z 0.000000 0.000000 1.719690 
# 
# From -- ./inp_files/57680.got.cif
#   From: 2010.05.17/outbox.cif.g08.bks.cpg/sg74_29_cif.got.tgz:57680.got - 2010.06.03 17:57:02.
