data_PCOD9537330
_publ_section_title
;
Structure prediction by ZEFSAII (Michael W. Deem and Ramdas Pophale) SiO2 
 PCOD9537330
Probable space group: I M M A
;
_chemical_formula_sum "Si O2"
_cell_formula_units_Z 96
_cell_length_a 26.070504
_cell_length_b 8.573067
_cell_length_c 23.899373
_cell_angle_alpha 90.000000
_cell_angle_beta 90.000000
_cell_angle_gamma 90.000000
_cell_volume 5341.609706
_symmetry_space_group_name_H-M "I M M A"
_symmetry_group_IT_number 74
_symmetry_cell_setting 'orthorhombic'
loop_
_space_group_symop_operation_xyz
x,y,z
-x,1/2-y,z
x,-y,-z
-x,1/2+y,-z
-x,-y,-z
x,1/2+y,-z
-x,y,z
x,1/2-y,z
1/2+x,1/2+y,1/2+z
1/2-x,-y,1/2+z
1/2+x,1/2-y,1/2-z
1/2-x,y,1/2-z
1/2-x,1/2-y,1/2-z
1/2+x,y,1/2-z
1/2-x,1/2+y,1/2+z
1/2+x,-y,1/2+z
loop_
_atom_site_type_symbol
_atom_site_label
_atom_site_fract_x
_atom_site_fract_y
_atom_site_fract_z
Si Si1 0.342625 0.064394 0.365900
Si Si2 0.250911 0.435585 0.937662
Si Si3 0.310539 0.576150 0.247998
Si Si4 0.940341 0.563312 0.178735
Si Si5 0.657434 0.069161 0.136725
Si Si6 0.558943 0.938600 0.804567
O O1 0.339174 0.250000 0.361894
O O2 0.301235 0.006751 0.411145
O O3 0.326338 0.981725 0.308432
O O4 0.402276 0.013320 0.366612
O O5 0.245958 0.250000 0.937526
O O6 0.301441 0.481211 0.901650
O O7 0.257271 0.500000 0.000000
O O8 0.331615 0.750000 0.234929
O O9 0.250000 0.590042 0.250000
O O10 0.323192 0.453059 0.200171
O O11 0.934749 0.750000 0.176893
O O12 0.928792 0.506672 0.242733
O O13 0.000000 0.523201 0.168826
O O14 0.657445 0.250000 0.119888
O O15 0.598704 0.013196 0.146572
O O16 0.500000 0.980421 0.816958
O O17 0.562594 0.750000 0.800087
#
# Coordination Sequence:
#
# PCOD9537330 Si02
#       6
#    16  16  16  16  16  16
#     4  12  23  36  57  83 114 151 188 231 281 339
#     4  12  26  44  62  82 109 144 188 239 288 341
#     4  11  21  32  50  79 114 151 187 228 279 336
#     4  10  20  33  52  81 118 156 191 228 274 331
#     4  11  21  34  56  84 115 151 188 230 281 340
#     4   9  18  32  51  79 117 156 190 226 273 332
#
# _framework density 17.972111000000002
#
# number of rings (size 3 to 8) (size 9 to 14) (size 15 to 20)
#    0.000    1.167    3.333    4.500    0.000    2.333 
#    0.000    0.000    0.000    1.000    0.000    0.000 
#    0.000    0.000    0.000    0.000    0.000    0.000 
#
# Total GULP energy -267711.534246 kJ/mol
# GULP energy per Si atom -5577.323630 kJ/mol
# Density = 1.793121 g / cm^3
# Si number density = 17.972111 Si / 1000 Ang^3
#
#
#
# Elastic Constant Matrix: (Units=GPa)
#
#
# Indices 1 2 3 4 5 6 
#
# 1 122.8430 25.6615 26.2082 0.0000 0.0000 0.0000
# 2 25.6615 65.6555 -3.5377 0.0000 0.0000 0.0000
# 3 26.2082 -3.5377 53.1755 0.0000 0.0000 0.0000
# 4 0.0000 0.0000 0.0000 40.5632 0.0000 0.0000
# 5 0.0000 0.0000 0.0000 0.0000 10.0061 0.0000
# 6 0.0000 0.0000 0.0000 0.0000 0.0000 35.5097
#
#
#
# Elastic Compliance Matrix: (Units=1/GPa)
#
#
# Indices 1 2 3 4 5 6 
#
# 1 0.010158 -0.004255 -0.005290 0.000000 0.000000 0.000000
# 2 -0.004255 0.017068 0.003233 0.000000 0.000000 0.000000
# 3 -0.005290 0.003233 0.021628 0.000000 0.000000 0.000000
# 4 0.000000 0.000000 0.000000 0.024653 0.000000 0.000000
# 5 0.000000 0.000000 0.000000 0.000000 0.099939 0.000000
# 6 0.000000 0.000000 0.000000 0.000000 0.000000 0.028161
#
#
# Mechanical properties :
#
#
# Convention : Reuss Voigt Hill
#
# Bulk Modulus (GPa) = 27.60142 37.59312 32.59727
# Shear Modulus (GPa) = 22.09376 30.10524 26.09950
#
# Velocity S-wave (km/s) = 3.50999 4.09725 3.81494
# Velocity P-wave (km/s) = 5.64074 6.58378 6.13042
#
# Compressibility (1/GPa) = 0.03623002
#
# Stress axis : x y z
#
# Youngs Moduli (GPa) = 98.44563 58.58790 46.23686
#
# Poissons Ratio (x) = 0.24931 0.24457
# Poissons Ratio (y) = 0.41891 -0.14947
# Poissons Ratio (z) = 0.52073 -0.18940
#
# Static dielectric constant tensor:
#      x y z
#    x 1.733860 0.000000 0.000000 
#    y 0.000000 1.617070 0.000000 
#    z 0.000000 0.000000 1.576070 
# 
# From -- ./inp_files/55067.got.cif
#   From: 2010.05.17/outbox.cif.g08.bks.cpg/sg74_28_cif.got.tgz:55067.got - 2010.06.03 17:57:02.
