data_PCOD9537708
_publ_section_title
;
Structure prediction by ZEFSAII (Michael W. Deem and Ramdas Pophale) SiO2 
 PCOD9537708
Probable space group: I M M A
;
_chemical_formula_sum "Si O2"
_cell_formula_units_Z 56
_cell_length_a 8.716247
_cell_length_b 22.133796
_cell_length_c 14.797696
_cell_angle_alpha 90.000000
_cell_angle_beta 90.000000
_cell_angle_gamma 90.000000
_cell_volume 2854.825272
_symmetry_space_group_name_H-M "I M M A"
_symmetry_group_IT_number 74
_symmetry_cell_setting 'orthorhombic'
loop_
_space_group_symop_operation_xyz
x,y,z
-x,1/2-y,z
x,-y,-z
-x,1/2+y,-z
-x,-y,-z
x,1/2+y,-z
-x,y,z
x,1/2-y,z
1/2+x,1/2+y,1/2+z
1/2-x,-y,1/2+z
1/2+x,1/2-y,1/2-z
1/2-x,y,1/2-z
1/2-x,1/2-y,1/2-z
1/2+x,y,1/2-z
1/2-x,1/2+y,1/2+z
1/2+x,-y,1/2+z
loop_
_atom_site_type_symbol
_atom_site_label
_atom_site_fract_x
_atom_site_fract_y
_atom_site_fract_z
Si Si1 0.316474 0.471870 0.154720
Si Si2 0.182933 0.106024 0.846793
Si Si3 0.316757 0.358320 0.031300
Si Si4 0.316895 0.750000 0.649282
O O1 0.500000 0.480201 0.162149
O O2 0.250000 0.448248 0.250000
O O3 0.239549 0.536793 0.139766
O O4 0.285802 0.423736 0.076454
O O5 0.250000 0.125692 0.750000
O O6 0.000000 0.107714 0.844496
O O7 0.247735 0.142971 0.931235
O O8 0.500000 0.350290 0.028106
O O9 0.242991 0.308151 0.095058
O O10 0.500000 0.750000 0.653223
O O11 0.250000 0.750000 0.750000
#
# Coordination Sequence:
#
# PCOD9537708 Si02
#       4
#    16  16  16   8
#     4  10  20  34  56  86 120 156 194 239 292 349
#     4  11  22  37  59  87 120 156 195 241 293 349
#     4  11  23  40  61  86 118 156 198 244 294 347
#     4  12  26  44  65  90 119 154 196 240 290 344
#
# _framework density 19.615912000000002
#
# number of rings (size 3 to 8) (size 9 to 14) (size 15 to 20)
#    0.000    1.143    0.000    9.000    0.000   10.286 
#    0.000    0.714    0.000    0.000    0.000    0.000 
#    0.000    0.000    0.000    0.000    0.000    0.000 
#
# Total GULP energy -156665.753236 kJ/mol
# GULP energy per Si atom -5595.205473 kJ/mol
# Density = 1.957127 g / cm^3
# Si number density = 19.615912 Si / 1000 Ang^3
#
#
#
# Elastic Constant Matrix: (Units=GPa)
#
#
# Indices 1 2 3 4 5 6 
#
# 1 134.4887 36.9966 89.5242 0.0000 0.0000 0.0000
# 2 36.9966 42.7767 63.1099 0.0000 0.0000 0.0000
# 3 89.5242 63.1099 205.0717 -0.0001 0.0000 0.0000
# 4 0.0000 0.0000 -0.0001 20.0952 0.0000 0.0000
# 5 0.0000 0.0000 0.0000 0.0000 37.5698 0.0000
# 6 0.0000 0.0000 0.0000 0.0000 0.0000 27.3443
#
#
#
# Elastic Compliance Matrix: (Units=1/GPa)
#
#
# Indices 1 2 3 4 5 6 
#
# 1 0.010919 -0.004416 -0.003408 0.000000 0.000000 0.000000
# 2 -0.004416 0.044604 -0.011799 0.000000 0.000000 0.000000
# 3 -0.003408 -0.011799 0.009995 0.000000 0.000000 0.000000
# 4 0.000000 0.000000 0.000000 0.049763 0.000000 0.000000
# 5 0.000000 0.000000 0.000000 0.000000 0.026617 0.000000
# 6 0.000000 0.000000 0.000000 0.000000 0.000000 0.036571
#
#
# Mechanical properties :
#
#
# Convention : Reuss Voigt Hill
#
# Bulk Modulus (GPa) = 38.06254 84.62206 61.34230
# Shear Modulus (GPa) = 22.07796 29.84895 25.96346
#
# Velocity S-wave (km/s) = 3.35851 3.90509 3.64207
# Velocity P-wave (km/s) = 5.87243 7.97284 7.00184
#
# Compressibility (1/GPa) = 0.02627255
#
# Stress axis : x y z
#
# Youngs Moduli (GPa) = 91.58645 22.41971 100.05095
#
# Poissons Ratio (x) = 0.09901 0.34093
# Poissons Ratio (y) = 0.40445 1.18047
# Poissons Ratio (z) = 0.31208 0.26452
#
# Static dielectric constant tensor:
#      x y z
#    x 1.648490 0.000000 0.000000 
#    y 0.000000 1.677550 0.000000 
#    z 0.000000 0.000000 1.690390 
# 
# From -- ./inp_files/28494.got.cif
#   From: 2010.05.17/outbox.cif.g08.bks.cpg/sg74_15_cif.got.tgz:28494.got - 2010.06.03 17:57:02.
