data_PCOD9537408
_publ_section_title
;
Structure prediction by ZEFSAII (Michael W. Deem and Ramdas Pophale) SiO2 
 PCOD9537408
Probable space group: I M M A
;
_chemical_formula_sum "Si O2"
_cell_formula_units_Z 96
_cell_length_a 8.667086
_cell_length_b 20.411248
_cell_length_c 30.678748
_cell_angle_alpha 90.000000
_cell_angle_beta 90.000000
_cell_angle_gamma 90.000000
_cell_volume 5427.255876
_symmetry_space_group_name_H-M "I M M A"
_symmetry_group_IT_number 74
_symmetry_cell_setting 'orthorhombic'
loop_
_space_group_symop_operation_xyz
x,y,z
-x,1/2-y,z
x,-y,-z
-x,1/2+y,-z
-x,-y,-z
x,1/2+y,-z
-x,y,z
x,1/2-y,z
1/2+x,1/2+y,1/2+z
1/2-x,-y,1/2+z
1/2+x,1/2-y,1/2-z
1/2-x,y,1/2-z
1/2-x,1/2-y,1/2-z
1/2+x,y,1/2-z
1/2-x,1/2+y,1/2+z
1/2+x,-y,1/2+z
loop_
_atom_site_type_symbol
_atom_site_label
_atom_site_fract_x
_atom_site_fract_y
_atom_site_fract_z
Si Si1 0.813690 0.820089 0.200613
Si Si2 0.815689 0.547049 0.625291
Si Si3 0.684965 0.536634 0.298879
Si Si4 0.685635 0.176147 0.414771
Si Si5 0.314108 0.676414 0.482904
Si Si6 0.813934 0.540168 0.456880
O O1 0.765088 0.750000 0.180285
O O2 0.750000 0.819621 0.250000
O O3 0.766620 0.891093 0.182682
O O4 0.000000 0.820050 0.201952
O O5 0.747352 0.519077 0.669696
O O6 0.761252 0.619642 0.613379
O O7 0.763325 0.499808 0.585636
O O8 0.000000 0.545041 0.627142
O O9 0.500000 0.534495 0.297168
O O10 0.750000 0.530959 0.250000
O O11 0.500000 0.170926 0.412338
O O12 0.729152 0.250000 0.401646
O O13 0.727933 0.168446 0.465895
O O14 0.500000 0.674556 0.480077
O O15 0.265021 0.750000 0.469211
O O16 0.246471 0.614259 0.458125
O O17 0.762271 0.500000 0.500000
O O18 0.000000 0.541672 0.457666
#
# Coordination Sequence:
#
# PCOD9537408 Si02
#       6
#    16  16  16  16  16  16
#     4   8  14  26  46  71  96 124 161 205 251 300
#     4  11  22  35  53  78 108 140 179 220 262 315
#     4  10  20  35  55  78 106 139 177 221 271 318
#     4   9  18  33  53  78 106 135 172 217 263 315
#     4   9  18  32  51  76 105 139 179 221 265 314
#     4  10  20  34  50  74 107 142 177 216 260 309
#
# _framework density 17.688496000000001
#
# number of rings (size 3 to 8) (size 9 to 14) (size 15 to 20)
#    0.000    2.500    1.667    2.000    0.000    3.000 
#    0.000    2.500    0.000    3.500    0.000    0.000 
#    0.000    0.000    0.000    0.000    0.000    0.000 
#
# Total GULP energy -267553.828590 kJ/mol
# GULP energy per Si atom -5574.038096 kJ/mol
# Density = 1.764824 g / cm^3
# Si number density = 17.688496 Si / 1000 Ang^3
#
#
#
# Elastic Constant Matrix: (Units=GPa)
#
#
# Indices 1 2 3 4 5 6 
#
# 1 22.0629 36.0266 22.5635 0.0000 0.0000 0.0000
# 2 36.0266 162.9695 57.4555 0.0000 0.0000 0.0000
# 3 22.5635 57.4555 62.4134 0.0000 0.0000 0.0000
# 4 0.0000 0.0000 0.0000 8.8616 0.0000 0.0000
# 5 0.0000 0.0000 0.0000 0.0000 17.0606 0.0000
# 6 0.0000 0.0000 0.0000 0.0000 0.0000 26.5182
#
#
#
# Elastic Compliance Matrix: (Units=1/GPa)
#
#
# Indices 1 2 3 4 5 6 
#
# 1 0.084806 -0.011753 -0.019839 0.000000 0.000000 0.000000
# 2 -0.011753 0.010713 -0.005613 0.000000 0.000000 0.000000
# 3 -0.019839 -0.005613 0.028362 0.000000 0.000000 0.000000
# 4 0.000000 0.000000 0.000000 0.112847 0.000000 0.000000
# 5 0.000000 0.000000 0.000000 0.000000 0.058614 0.000000
# 6 0.000000 0.000000 0.000000 0.000000 0.000000 0.037710
#
#
# Mechanical properties :
#
#
# Convention : Reuss Voigt Hill
#
# Bulk Modulus (GPa) = 20.21443 53.28189 36.74816
# Shear Modulus (GPa) = 11.79376 19.24811 15.52093
#
# Velocity S-wave (km/s) = 2.58495 3.30232 2.96541
# Velocity P-wave (km/s) = 4.51244 6.68791 5.70483
#
# Compressibility (1/GPa) = 0.04946961
#
# Stress axis : x y z
#
# Youngs Moduli (GPa) = 11.79164 93.34205 35.25861
#
# Poissons Ratio (x) = 1.09705 0.69951
# Poissons Ratio (y) = 0.13859 0.19792
# Poissons Ratio (z) = 0.23394 0.52396
#
# Static dielectric constant tensor:
#      x y z
#    x 1.592450 0.000000 0.000000 
#    y 0.000000 1.628020 0.000000 
#    z 0.000000 0.000000 1.671900 
# 
# From -- ./inp_files/64327.got.cif
#   From: 2010.05.17/outbox.cif.g08.bks.cpg/sg74_33_cif.got.tgz:64327.got - 2010.06.03 17:57:02.
