data_PCOD9537209
_publ_section_title
;
Structure prediction by ZEFSAII (Michael W. Deem and Ramdas Pophale) SiO2 
 PCOD9537209
Probable space group: I M M A
;
_chemical_formula_sum "Si O2"
_cell_formula_units_Z 112
_cell_length_a 7.672146
_cell_length_b 18.962459
_cell_length_c 38.039693
_cell_angle_alpha 90.000000
_cell_angle_beta 90.000000
_cell_angle_gamma 90.000000
_cell_volume 5534.119298
_symmetry_space_group_name_H-M "I M M A"
_symmetry_group_IT_number 74
_symmetry_cell_setting 'orthorhombic'
loop_
_space_group_symop_operation_xyz
x,y,z
-x,1/2-y,z
x,-y,-z
-x,1/2+y,-z
-x,-y,-z
x,1/2+y,-z
-x,y,z
x,1/2-y,z
1/2+x,1/2+y,1/2+z
1/2-x,-y,1/2+z
1/2+x,1/2-y,1/2-z
1/2-x,y,1/2-z
1/2-x,1/2-y,1/2-z
1/2+x,y,1/2-z
1/2-x,1/2+y,1/2+z
1/2+x,-y,1/2+z
loop_
_atom_site_type_symbol
_atom_site_label
_atom_site_fract_x
_atom_site_fract_y
_atom_site_fract_z
Si Si1 0.709406 0.830716 0.210804
Si Si2 0.709464 0.831831 0.998937
Si Si3 0.210373 0.918883 0.855922
Si Si4 0.707795 0.669339 0.577568
Si Si5 0.790686 0.330624 0.210648
Si Si6 0.212940 0.332517 0.575677
Si Si7 0.709118 0.583378 0.143668
O O1 0.500000 0.827828 0.208054
O O2 0.775082 0.750000 0.207876
O O3 0.750000 0.857065 0.250000
O O4 0.775690 0.878706 0.179020
O O5 0.500000 0.832043 0.999489
O O6 0.768657 0.750000 0.998072
O O7 0.761884 0.862223 0.961295
O O8 0.768767 0.859540 0.036964
O O9 0.275579 0.878068 0.890601
O O10 0.274540 0.879953 0.820661
O O11 0.000000 0.913879 0.855928
O O12 0.254705 0.000789 0.856439
O O13 0.500000 0.674473 0.581932
O O14 0.777806 0.750000 0.578881
O O15 0.724705 0.250000 0.207230
O O16 0.750000 0.355911 0.250000
O O17 0.000000 0.327610 0.207700
O O18 0.261957 0.250000 0.579318
O O19 0.275483 0.378097 0.608488
O O20 0.000000 0.333707 0.575859
O O21 0.500000 0.592394 0.143513
#
# Coordination Sequence:
#
# PCOD9537209 Si02
#       7
#    16  16  16  16  16  16  16
#     4   9  18  33  53  75  97 123 158 198 237 278
#     4   8  14  26  47  74  97 117 149 197 246 283
#     4  10  21  35  49  68  98 132 160 190 234 285
#     4   9  17  31  51  71  92 123 162 198 233 279
#     4   9  18  34  55  75  94 120 157 198 238 281
#     4   8  14  28  51  74  95 122 158 199 240 280
#     4  10  20  33  50  72  97 127 163 198 232 277
#
# _framework density 20.23809
#
# number of rings (size 3 to 8) (size 9 to 14) (size 15 to 20)
#    0.000    3.000    0.000    1.714    0.000    5.714 
#    0.000    4.286    0.000   10.714    0.000    0.000 
#    0.000    0.000    0.000    0.000    0.000    0.000 
#
# Total GULP energy -312216.017158 kJ/mol
# GULP energy per Si atom -5575.286021 kJ/mol
# Density = 2.019203 g / cm^3
# Si number density = 20.238090 Si / 1000 Ang^3
#
#
#
# Elastic Constant Matrix: (Units=GPa)
#
#
# Indices 1 2 3 4 5 6 
#
# 1 33.2225 0.6896 7.3844 0.0000 0.0000 0.0000
# 2 0.6896 95.6582 116.3574 0.0000 0.0000 0.0000
# 3 7.3844 116.3574 258.1848 0.0000 0.0000 0.0000
# 4 0.0000 0.0000 0.0000 -5.5751 0.0000 0.0000
# 5 0.0000 0.0000 0.0000 0.0000 21.8301 0.0000
# 6 0.0000 0.0000 0.0000 0.0000 0.0000 18.8499
#
#
#
# Elastic Compliance Matrix: (Units=1/GPa)
#
#
# Indices 1 2 3 4 5 6 
#
# 1 0.030441 0.001858 -0.001708 0.000000 0.000000 0.000000
# 2 0.001858 0.023252 -0.010532 0.000000 0.000000 0.000000
# 3 -0.001708 -0.010532 0.008669 0.000000 0.000000 0.000000
# 4 0.000000 0.000000 0.000000 -0.179369 0.000000 0.000000
# 5 0.000000 0.000000 0.000000 0.000000 0.045808 0.000000
# 6 0.000000 0.000000 0.000000 0.000000 0.000000 0.053051
#
#
# Mechanical properties :
#
#
# Convention : Reuss Voigt Hill
#
# Bulk Modulus (GPa) = 24.03989 70.65871 47.34930
# Shear Modulus (GPa) = 303.38499 24.52993 163.95746
#
# Velocity S-wave (km/s) = 12.25697 3.48525 9.01056
# Velocity P-wave (km/s) = 14.56762 7.15440 11.47608
#
# Compressibility (1/GPa) = 0.04159752
#
# Stress axis : x y z
#
# Youngs Moduli (GPa) = 32.85025 43.00796 115.35930
#
# Poissons Ratio (x) = -0.07992 0.19705
# Poissons Ratio (y) = -0.06105 1.21497
# Poissons Ratio (z) = 0.05611 0.45296
#
# Static dielectric constant tensor:
#      x y z
#    x 1.763850 0.000000 0.000000 
#    y 0.000000 1.672970 0.000000 
#    z 0.000000 0.000000 1.744440 
# 
# From -- ./inp_files/71887.got.cif
#   From: 2010.05.17/outbox.cif.g08.bks.cpg/sg74_36_cif.got.tgz:71887.got - 2010.06.03 17:57:02.
