data_PCOD9537925
_publ_section_title
;
Structure prediction by ZEFSAII (Michael W. Deem and Ramdas Pophale) SiO2 
 PCOD9537925
Probable space group: I M M A
;
_chemical_formula_sum "Si O2"
_cell_formula_units_Z 72
_cell_length_a 8.783546
_cell_length_b 14.881868
_cell_length_c 30.358944
_cell_angle_alpha 90.000000
_cell_angle_beta 90.000000
_cell_angle_gamma 90.000000
_cell_volume 3968.386735
_symmetry_space_group_name_H-M "I M M A"
_symmetry_group_IT_number 74
_symmetry_cell_setting 'orthorhombic'
loop_
_space_group_symop_operation_xyz
x,y,z
-x,1/2-y,z
x,-y,-z
-x,1/2+y,-z
-x,-y,-z
x,1/2+y,-z
-x,y,z
x,1/2-y,z
1/2+x,1/2+y,1/2+z
1/2-x,-y,1/2+z
1/2+x,1/2-y,1/2-z
1/2-x,y,1/2-z
1/2-x,1/2-y,1/2-z
1/2+x,y,1/2-z
1/2-x,1/2+y,1/2+z
1/2+x,-y,1/2+z
loop_
_atom_site_type_symbol
_atom_site_label
_atom_site_fract_x
_atom_site_fract_y
_atom_site_fract_z
Si Si1 0.316154 0.750000 0.585329
Si Si2 0.183808 0.750000 0.487050
Si Si3 0.683036 0.750000 0.200821
Si Si4 0.817397 0.553076 0.299131
Si Si5 0.318301 0.441000 0.375904
Si Si6 0.181876 0.054930 0.545205
O O1 0.500000 0.750000 0.582058
O O2 0.249600 0.750000 0.536227
O O3 0.269283 0.659448 0.610493
O O4 0.228218 0.841851 0.462633
O O5 0.000000 0.750000 0.490386
O O6 0.500000 0.750000 0.203033
O O7 0.750000 0.750000 0.250000
O O8 0.727056 0.652651 0.181902
O O9 0.750000 0.545719 0.250000
O O10 0.755227 0.477389 0.331301
O O11 0.000000 0.549137 0.296815
O O12 0.500000 0.441863 0.371620
O O13 0.267317 0.506530 0.415294
O O14 0.000000 0.052508 0.554052
O O15 0.208393 0.000000 0.500000
#
# Coordination Sequence:
#
# PCOD9537925 Si02
#       6
#     8   8   8  16  16  16
#     4  10  22  38  56  78 108 147 190 235 282 333
#     4  10  20  35  57  83 113 147 186 231 280 335
#     4   8  16  31  54  81 109 142 176 214 267 326
#     4  10  20  37  60  86 116 149 186 230 278 331
#     4  11  23  38  57  82 112 148 190 234 282 335
#     4  10  20  35  56  82 111 144 184 229 277 330
#
# _framework density 18.143391999999999
#
# number of rings (size 3 to 8) (size 9 to 14) (size 15 to 20)
#    0.000    2.000    2.222    1.333    0.000    4.000 
#    0.000    5.000    0.000    0.000    0.000    0.000 
#    0.000    0.000    0.000    0.000    0.000    0.000 
#
# Total GULP energy -200907.307066 kJ/mol
# GULP energy per Si atom -5580.758530 kJ/mol
# Density = 1.810210 g / cm^3
# Si number density = 18.143392 Si / 1000 Ang^3
#
#
#
# Elastic Constant Matrix: (Units=GPa)
#
#
# Indices 1 2 3 4 5 6 
#
# 1 32.7455 42.8894 38.0757 0.0000 0.0000 0.0000
# 2 42.8894 187.5878 74.5795 0.0000 0.0000 0.0000
# 3 38.0757 74.5795 89.4830 0.0000 0.0000 0.0000
# 4 0.0000 0.0000 0.0000 26.1004 0.0000 0.0000
# 5 0.0000 0.0000 0.0000 0.0000 33.7442 0.0000
# 6 0.0000 0.0000 0.0000 0.0000 0.0000 13.7967
#
#
#
# Elastic Compliance Matrix: (Units=1/GPa)
#
#
# Indices 1 2 3 4 5 6 
#
# 1 0.064301 -0.005719 -0.022594 0.000000 0.000000 0.000000
# 2 -0.005719 0.008481 -0.004635 0.000000 0.000000 0.000000
# 3 -0.022594 -0.004635 0.024653 0.000000 0.000000 0.000000
# 4 0.000000 0.000000 0.000000 0.038314 0.000000 0.000000
# 5 0.000000 0.000000 0.000000 0.000000 0.029635 0.000000
# 6 0.000000 0.000000 0.000000 0.000000 0.000000 0.072481
#
#
# Mechanical properties :
#
#
# Convention : Reuss Voigt Hill
#
# Bulk Modulus (GPa) = 31.70760 68.98951 50.34856
# Shear Modulus (GPa) = 15.90972 25.01304 20.46138
#
# Velocity S-wave (km/s) = 2.96444 3.71702 3.36186
# Velocity P-wave (km/s) = 5.40660 7.51856 6.54828
#
# Compressibility (1/GPa) = 0.03153818
#
# Stress axis : x y z
#
# Youngs Moduli (GPa) = 15.55189 117.90782 40.56368
#
# Poissons Ratio (x) = 0.67428 0.91651
# Poissons Ratio (y) = 0.08894 0.18802
# Poissons Ratio (z) = 0.35138 0.54654
#
# Static dielectric constant tensor:
#      x y z
#    x 1.612130 0.000000 0.000000 
#    y 0.000000 1.652970 0.000000 
#    z 0.000000 0.000000 1.581180 
# 
# From -- ./inp_files/63646.got.cif
#   From: 2010.05.17/outbox.cif.g08.bks.cpg/sg74_32_cif.got.tgz:63646.got - 2010.06.03 17:57:02.
