data_PCOD9537679
_publ_section_title
;
Structure prediction by ZEFSAII (Michael W. Deem and Ramdas Pophale) SiO2 
 PCOD9537679
Probable space group: I M M A
;
_chemical_formula_sum "Si O2"
_cell_formula_units_Z 96
_cell_length_a 14.803276
_cell_length_b 15.703671
_cell_length_c 16.809636
_cell_angle_alpha 90.000000
_cell_angle_beta 90.000000
_cell_angle_gamma 90.000000
_cell_volume 3907.665077
_symmetry_space_group_name_H-M "I M M A"
_symmetry_group_IT_number 74
_symmetry_cell_setting 'orthorhombic'
loop_
_space_group_symop_operation_xyz
x,y,z
-x,1/2-y,z
x,-y,-z
-x,1/2+y,-z
-x,-y,-z
x,1/2+y,-z
-x,y,z
x,1/2-y,z
1/2+x,1/2+y,1/2+z
1/2-x,-y,1/2+z
1/2+x,1/2-y,1/2-z
1/2-x,y,1/2-z
1/2-x,1/2-y,1/2-z
1/2+x,y,1/2-z
1/2-x,1/2+y,1/2+z
1/2+x,-y,1/2+z
loop_
_atom_site_type_symbol
_atom_site_label
_atom_site_fract_x
_atom_site_fract_y
_atom_site_fract_z
Si Si1 0.890333 0.032535 0.794533
Si Si2 0.390961 0.649265 0.142764
Si Si3 0.595703 0.846235 0.874639
Si Si4 0.600088 0.346328 0.560378
Si Si5 0.895252 0.843457 0.815685
Si Si6 0.232408 0.902896 0.508078
O O1 0.864407 0.081754 0.712781
O O2 0.870112 0.095661 0.866744
O O3 0.000000 0.024001 0.788814
O O4 0.855834 0.939178 0.821290
O O5 0.500000 0.640559 0.129377
O O6 0.375758 0.750000 0.164213
O O7 0.332886 0.628470 0.063813
O O8 0.500000 0.887116 0.897215
O O9 0.597504 0.750000 0.906843
O O10 0.599457 0.840337 0.780633
O O11 0.677537 0.893877 0.911845
O O12 0.500000 0.372611 0.534475
O O13 0.596054 0.250000 0.589310
O O14 0.674210 0.352530 0.492730
O O15 0.855085 0.750000 0.837879
O O16 0.000000 0.843894 0.845355
O O17 0.257122 0.000000 0.500000
#
# Coordination Sequence:
#
# PCOD9537679 Si02
#       6
#    16  16  16  16  16  16
#     4   9  17  32  55  83 114 144 180 229 281 334
#     4  10  20  34  55  86 122 154 183 221 273 335
#     4   9  17  31  52  80 116 152 181 212 258 324
#     4  10  22  41  62  80 102 140 191 244 291 329
#     4   8  14  26  49  82 117 150 178 210 266 342
#     4  12  24  35  52  79 111 149 188 230 276 328
#
# _framework density 24.567098999999999
#
# number of rings (size 3 to 8) (size 9 to 14) (size 15 to 20)
#    0.000    2.333    0.000    4.500    0.000    7.000 
#    0.000    1.667    0.000    3.000    0.000    5.833 
#    0.000    0.000    0.000    0.500    0.000    0.167 
#
# Total GULP energy -268254.458374 kJ/mol
# GULP energy per Si atom -5588.634549 kJ/mol
# Density = 2.451118 g / cm^3
# Si number density = 24.567099 Si / 1000 Ang^3
#
#
#
# Elastic Constant Matrix: (Units=GPa)
#
#
# Indices 1 2 3 4 5 6 
#
# 1 90.4997 25.7047 30.6152 0.0000 0.0000 0.0000
# 2 25.7047 163.4080 28.6886 0.0000 0.0000 0.0000
# 3 30.6152 28.6886 67.3488 0.0000 0.0000 0.0000
# 4 0.0000 0.0000 0.0000 30.0296 0.0000 0.0000
# 5 0.0000 0.0000 0.0000 0.0000 -11.9106 0.0000
# 6 0.0000 0.0000 0.0000 0.0000 0.0000 26.5974
#
#
#
# Elastic Compliance Matrix: (Units=1/GPa)
#
#
# Indices 1 2 3 4 5 6 
#
# 1 0.013241 -0.001109 -0.005547 0.000000 0.000000 0.000000
# 2 -0.001109 0.006707 -0.002353 0.000000 0.000000 0.000000
# 3 -0.005547 -0.002353 0.018372 0.000000 0.000000 0.000000
# 4 0.000000 0.000000 0.000000 0.033301 0.000000 0.000000
# 5 0.000000 0.000000 0.000000 0.000000 -0.083959 0.000000
# 6 0.000000 0.000000 0.000000 0.000000 0.000000 0.037598
#
#
# Mechanical properties :
#
#
# Convention : Reuss Voigt Hill
#
# Bulk Modulus (GPa) = 49.25443 54.58595 51.92019
# Shear Modulus (GPa) = 99.91094 24.69313 62.30203
#
# Velocity S-wave (km/s) = 6.38411 3.17382 5.04133
# Velocity P-wave (km/s) = 8.62757 5.97480 7.42069
#
# Compressibility (1/GPa) = 0.02030274
#
# Stress axis : x y z
#
# Youngs Moduli (GPa) = 75.52204 149.09347 54.43137
#
# Poissons Ratio (x) = 0.16536 0.30191
# Poissons Ratio (y) = 0.08376 0.12807
# Poissons Ratio (z) = 0.41890 0.35080
#
# Static dielectric constant tensor:
#      x y z
#    x 1.960990 0.000000 0.000000 
#    y 0.000000 1.984180 0.000000 
#    z 0.000000 0.000000 1.969820 
# 
# From -- ./inp_files/51914.got.cif
#   From: 2010.05.17/outbox.cif.g08.bks.cpg/sg74_26_cif.got.tgz:51914.got - 2010.06.03 17:57:02.
