data_PCOD9537236
_publ_section_title
;
Structure prediction by ZEFSAII (Michael W. Deem and Ramdas Pophale) SiO2 
 PCOD9537236
Probable space group: I M M A
;
_chemical_formula_sum "Si O2"
_cell_formula_units_Z 96
_cell_length_a 22.734619
_cell_length_b 23.058574
_cell_length_c 9.002684
_cell_angle_alpha 90.000000
_cell_angle_beta 90.000000
_cell_angle_gamma 90.000000
_cell_volume 4719.458079
_symmetry_space_group_name_H-M "I M M A"
_symmetry_group_IT_number 74
_symmetry_cell_setting 'orthorhombic'
loop_
_space_group_symop_operation_xyz
x,y,z
-x,1/2-y,z
x,-y,-z
-x,1/2+y,-z
-x,-y,-z
x,1/2+y,-z
-x,y,z
x,1/2-y,z
1/2+x,1/2+y,1/2+z
1/2-x,-y,1/2+z
1/2+x,1/2-y,1/2-z
1/2-x,y,1/2-z
1/2-x,1/2-y,1/2-z
1/2+x,y,1/2-z
1/2-x,1/2+y,1/2+z
1/2+x,-y,1/2+z
loop_
_atom_site_type_symbol
_atom_site_label
_atom_site_fract_x
_atom_site_fract_y
_atom_site_fract_z
Si Si1 0.069682 0.685454 0.706458
Si Si2 0.239038 0.180532 0.422818
Si Si3 0.928804 0.535144 0.237619
Si Si4 0.571329 0.083697 0.412730
Si Si5 0.126511 0.375985 0.560227
Si Si6 0.184891 0.684671 0.172875
O O1 0.096521 0.750000 0.710083
O O2 0.090914 0.643295 0.837298
O O3 0.080627 0.655385 0.547684
O O4 0.000000 0.690654 0.725809
O O5 0.226686 0.250000 0.460185
O O6 0.250000 0.178143 0.250000
O O7 0.186817 0.137290 0.470876
O O8 0.296864 0.161271 0.513115
O O9 0.912044 0.469169 0.197231
O O10 0.896599 0.562279 0.380732
O O11 0.000000 0.538819 0.257514
O O12 0.913207 0.568888 0.082890
O O13 0.500000 0.083554 0.413413
O O14 0.140001 0.344418 0.716062
O O15 0.164585 0.750000 0.152917
O O16 0.250000 0.684171 0.250000
#
# Coordination Sequence:
#
# PCOD9537236 Si02
#       6
#    16  16  16  16  16  16
#     4  10  20  33  50  78 116 149 176 213 265 324
#     4   9  18  33  51  72 103 144 187 227 268 320
#     4   9  18  34  56  80 106 141 184 225 267 322
#     4   8  17  36  56  74 104 145 188 227 258 310
#     4  11  19  29  49  79 110 137 173 221 272 318
#     4   8  15  29  47  68  97 133 174 219 264 312
#
# _framework density 20.341318000000001
#
# number of rings (size 3 to 8) (size 9 to 14) (size 15 to 20)
#    0.000    2.833    0.000    4.000    0.000    2.000 
#    0.000    6.667    0.000    5.000    0.000   56.000 
#    0.000    0.000    0.000    0.000    0.000    0.000 
#
# Total GULP energy -267259.958735 kJ/mol
# GULP energy per Si atom -5567.915807 kJ/mol
# Density = 2.029502 g / cm^3
# Si number density = 20.341318 Si / 1000 Ang^3
#
#
#
# Elastic Constant Matrix: (Units=GPa)
#
#
# Indices 1 2 3 4 5 6 
#
# 1 46.2569 23.1503 25.7669 0.0000 0.0000 0.0000
# 2 23.1503 92.7071 48.1586 0.0000 0.0000 0.0000
# 3 25.7669 48.1586 93.9714 0.0000 0.0000 0.0000
# 4 0.0000 0.0000 0.0000 39.4651 0.0000 0.0000
# 5 0.0000 0.0000 0.0000 0.0000 36.9744 0.0000
# 6 0.0000 0.0000 0.0000 0.0000 0.0000 9.7235
#
#
#
# Elastic Compliance Matrix: (Units=1/GPa)
#
#
# Indices 1 2 3 4 5 6 
#
# 1 0.026499 -0.003874 -0.005281 0.000000 0.000000 0.000000
# 2 -0.003874 0.015266 -0.006762 0.000000 0.000000 0.000000
# 3 -0.005281 -0.006762 0.015555 0.000000 0.000000 0.000000
# 4 0.000000 0.000000 0.000000 0.025339 0.000000 0.000000
# 5 0.000000 0.000000 0.000000 0.000000 0.027046 0.000000
# 6 0.000000 0.000000 0.000000 0.000000 0.000000 0.102843
#
#
# Mechanical properties :
#
#
# Convention : Reuss Voigt Hill
#
# Bulk Modulus (GPa) = 39.23479 47.45410 43.34444
# Shear Modulus (GPa) = 19.77255 26.28991 23.03123
#
# Velocity S-wave (km/s) = 3.12114 3.59895 3.36853
# Velocity P-wave (km/s) = 5.68496 6.37570 6.04021
#
# Compressibility (1/GPa) = 0.02548758
#
# Stress axis : x y z
#
# Youngs Moduli (GPa) = 37.73769 65.50306 64.28956
#
# Poissons Ratio (x) = 0.25376 0.33949
# Poissons Ratio (y) = 0.14620 0.43470
# Poissons Ratio (z) = 0.19928 0.44290
#
# Static dielectric constant tensor:
#      x y z
#    x 1.778580 0.000000 0.000000 
#    y 0.000000 1.761670 0.000000 
#    z 0.000000 0.000000 1.764480 
# 
# From -- ./inp_files/13885.got.cif
#   From: 2010.05.17/outbox.cif.g08.bks.cpg/sg74_7_cif.got.tgz:13885.got - 2010.06.03 17:57:02.
