data_PCOD9537658
_publ_section_title
;
Structure prediction by ZEFSAII (Michael W. Deem and Ramdas Pophale) SiO2 
 PCOD9537658
Probable space group: I M M A
;
_chemical_formula_sum "Si O2"
_cell_formula_units_Z 120
_cell_length_a 24.422278
_cell_length_b 9.208672
_cell_length_c 28.552971
_cell_angle_alpha 90.000000
_cell_angle_beta 90.000000
_cell_angle_gamma 90.000000
_cell_volume 6421.470312
_symmetry_space_group_name_H-M "I M M A"
_symmetry_group_IT_number 74
_symmetry_cell_setting 'orthorhombic'
loop_
_space_group_symop_operation_xyz
x,y,z
-x,1/2-y,z
x,-y,-z
-x,1/2+y,-z
-x,-y,-z
x,1/2+y,-z
-x,y,z
x,1/2-y,z
1/2+x,1/2+y,1/2+z
1/2-x,-y,1/2+z
1/2+x,1/2-y,1/2-z
1/2-x,y,1/2-z
1/2-x,1/2-y,1/2-z
1/2+x,y,1/2-z
1/2-x,1/2+y,1/2+z
1/2+x,-y,1/2+z
loop_
_atom_site_type_symbol
_atom_site_label
_atom_site_fract_x
_atom_site_fract_y
_atom_site_fract_z
Si Si1 0.434487 0.585547 0.139021
Si Si2 0.500000 0.924719 0.550575
Si Si3 0.134598 0.075976 0.292410
Si Si4 0.221865 0.577973 0.049620
Si Si5 0.603084 0.578022 0.402610
Si Si6 0.768516 0.580525 0.637000
Si Si7 0.850387 0.919748 0.815943
Si Si8 0.933017 0.583608 0.546645
O O1 0.500000 0.590123 0.135790
O O2 0.413656 0.750000 0.137969
O O3 0.417119 0.504630 0.185976
O O4 0.414669 0.496532 0.093687
O O5 0.500000 0.750000 0.547351
O O6 0.500000 0.000000 0.500000
O O7 0.446054 0.983938 0.576533
O O8 0.128223 0.250000 0.295140
O O9 0.183842 0.034771 0.327520
O O10 0.145765 0.039919 0.238497
O O11 0.230252 0.750000 0.045192
O O12 0.159206 0.554260 0.067854
O O13 0.260420 0.511946 0.090122
O O14 0.229484 0.500000 0.000000
O O15 0.590708 0.750000 0.403838
O O16 0.615302 0.522152 0.350230
O O17 0.776964 0.750000 0.624491
O O18 0.711960 0.571408 0.666108
O O19 0.867357 0.750000 0.821027
O O20 0.915398 0.500000 0.500000
O O21 0.915005 0.750000 0.546223
O O22 0.000000 0.583563 0.546515
#
# Coordination Sequence:
#
# PCOD9537658 Si02
#       8
#    16   8  16  16  16  16  16  16
#     4  10  21  36  52  73 104 141 180 219 264 320
#     4  12  24  38  58  84 116 154 196 240 287 334
#     4  10  20  35  57  83 108 140 181 226 276 329
#     4  10  20  34  55  82 113 149 186 224 275 334
#     4  10  21  37  56  82 114 150 192 236 280 332
#     4   9  18  34  57  83 111 140 176 224 275 328
#     4   9  18  35  58  83 110 142 181 226 277 332
#     4   9  16  28  49  74  98 126 162 206 254 304
#
# _framework density 18.687308999999999
#
# number of rings (size 3 to 8) (size 9 to 14) (size 15 to 20)
#    0.000    2.267    0.000    3.000    0.000    7.733 
#    1.200    0.667    0.000    7.200    0.000    0.000 
#    0.000    0.000    0.000    0.000    0.000    0.000 
#
# Total GULP energy -334956.497192 kJ/mol
# GULP energy per Si atom -5582.608287 kJ/mol
# Density = 1.864478 g / cm^3
# Si number density = 18.687309 Si / 1000 Ang^3
#
#
#
# Elastic Constant Matrix: (Units=GPa)
#
#
# Indices 1 2 3 4 5 6 
#
# 1 27.3488 33.4591 24.4331 0.0000 0.0000 0.0000
# 2 33.4591 98.1513 82.8109 0.0000 0.0000 0.0000
# 3 24.4331 82.8109 163.6257 0.0000 0.0000 0.0000
# 4 0.0000 0.0000 0.0000 33.8306 0.0000 0.0000
# 5 0.0000 0.0000 0.0000 0.0000 15.8727 0.0000
# 6 0.0000 0.0000 0.0000 0.0000 0.0000 16.6827
#
#
#
# Elastic Compliance Matrix: (Units=1/GPa)
#
#
# Indices 1 2 3 4 5 6 
#
# 1 0.063335 -0.023754 0.002565 0.000000 0.000000 0.000000
# 2 -0.023754 0.026690 -0.009961 0.000000 0.000000 0.000000
# 3 0.002565 -0.009961 0.010770 0.000000 0.000000 0.000000
# 4 0.000000 0.000000 0.000000 0.029559 0.000000 0.000000
# 5 0.000000 0.000000 0.000000 0.000000 0.063001 0.000000
# 6 0.000000 0.000000 0.000000 0.000000 0.000000 0.059942
#
#
# Mechanical properties :
#
#
# Convention : Reuss Voigt Hill
#
# Bulk Modulus (GPa) = 25.97815 63.39245 44.68530
# Shear Modulus (GPa) = 15.22397 23.17204 19.19801
#
# Velocity S-wave (km/s) = 2.85734 3.52517 3.20867
# Velocity P-wave (km/s) = 4.98172 7.11094 6.13934
#
# Compressibility (1/GPa) = 0.03849388
#
# Stress axis : x y z
#
# Youngs Moduli (GPa) = 15.78908 37.46730 92.85350
#
# Poissons Ratio (x) = 0.89001 -0.23814
# Poissons Ratio (y) = 0.37506 0.92489
# Poissons Ratio (z) = -0.04049 0.37320
#
# Static dielectric constant tensor:
#      x y z
#    x 1.662090 0.000000 0.000000 
#    y 0.000000 1.631700 0.000000 
#    z 0.000000 0.000000 1.614590 
# 
# From -- ./inp_files/69022.got.cif
#   From: 2010.05.17/outbox.cif.g08.bks.cpg/sg74_35_cif.got.tgz:69022.got - 2010.06.03 17:57:02.
