data_PCOD9537058
_publ_section_title
;
Structure prediction by ZEFSAII (Michael W. Deem and Ramdas Pophale) SiO2 
 PCOD9537058
Probable space group: I M M A
;
_chemical_formula_sum "Si O2"
_cell_formula_units_Z 56
_cell_length_a 7.311585
_cell_length_b 8.008403
_cell_length_c 42.201318
_cell_angle_alpha 90.000000
_cell_angle_beta 90.000000
_cell_angle_gamma 90.000000
_cell_volume 2471.061007
_symmetry_space_group_name_H-M "I M M A"
_symmetry_group_IT_number 74
_symmetry_cell_setting 'orthorhombic'
loop_
_space_group_symop_operation_xyz
x,y,z
-x,1/2-y,z
x,-y,-z
-x,1/2+y,-z
-x,-y,-z
x,1/2+y,-z
-x,y,z
x,1/2-y,z
1/2+x,1/2+y,1/2+z
1/2-x,-y,1/2+z
1/2+x,1/2-y,1/2-z
1/2-x,y,1/2-z
1/2-x,1/2-y,1/2-z
1/2+x,y,1/2-z
1/2-x,1/2+y,1/2+z
1/2+x,-y,1/2+z
loop_
_atom_site_type_symbol
_atom_site_label
_atom_site_fract_x
_atom_site_fract_y
_atom_site_fract_z
Si Si1 0.291286 0.950348 0.399261
Si Si2 0.282363 0.750000 0.712675
Si Si3 0.290645 0.448165 0.466384
Si Si4 0.223911 0.442845 0.829571
O O1 0.500000 0.017770 0.400133
O O2 0.298405 0.750000 0.398333
O O3 0.215141 0.997580 0.364928
O O4 0.206652 0.998413 0.432888
O O5 0.500000 0.750000 0.707750
O O6 0.250000 0.750000 0.750000
O O7 0.215868 0.580384 0.695753
O O8 0.207640 0.500000 0.500000
O O9 0.500000 0.519172 0.466518
O O10 0.299144 0.250000 0.466194
O O11 0.279616 0.250000 0.823477
O O12 0.000000 0.439880 0.830357
#
# Coordination Sequence:
#
# PCOD9537058 Si02
#       4
#    16   8  16  16
#     4   8  13  21  32  45  63  89 124 167 206 239
#     4  10  20  32  48  68  90 114 144 180 220 264
#     4   9  15  19  24  36  57  87 123 164 204 239
#     4   8  15  27  42  60  81 106 138 177 215 254
#
# _framework density 22.662330000000001
#
# number of rings (size 3 to 8) (size 9 to 14) (size 15 to 20)
#    0.000    3.429    0.000    2.571    2.000    4.000 
#    0.000    0.000    0.000    0.000    0.000    0.000 
#    0.000    0.000    0.000    0.000    0.000    1.429 
#
# Total GULP energy -156103.614331 kJ/mol
# GULP energy per Si atom -5575.129083 kJ/mol
# Density = 2.261075 g / cm^3
# Si number density = 22.662330 Si / 1000 Ang^3
#
#
#
# Elastic Constant Matrix: (Units=GPa)
#
#
# Indices 1 2 3 4 5 6 
#
# 1 88.6879 5.7898 9.3719 0.0000 0.0000 0.0000
# 2 5.7898 98.0261 108.3314 0.0000 0.0000 0.0000
# 3 9.3719 108.3314 268.1606 0.0000 0.0000 0.0000
# 4 0.0000 0.0000 0.0000 49.4911 0.0000 0.0000
# 5 0.0000 0.0000 0.0000 0.0000 -15.1665 0.0000
# 6 0.0000 0.0000 0.0000 0.0000 0.0000 -19.2517
#
#
#
# Elastic Compliance Matrix: (Units=1/GPa)
#
#
# Indices 1 2 3 4 5 6 
#
# 1 0.011327 -0.000418 -0.000227 0.000000 0.000000 0.000000
# 2 -0.000418 0.018444 -0.007437 0.000000 0.000000 0.000000
# 3 -0.000227 -0.007437 0.006741 0.000000 0.000000 0.000000
# 4 0.000000 0.000000 0.000000 0.020206 0.000000 0.000000
# 5 0.000000 0.000000 0.000000 0.000000 -0.065935 0.000000
# 6 0.000000 0.000000 0.000000 0.000000 0.000000 -0.051943
#
#
# Mechanical properties :
#
#
# Convention : Reuss Voigt Hill
#
# Bulk Modulus (GPa) = 49.14239 77.98452 63.56345
# Shear Modulus (GPa) = -130.84385 25.10666 -52.86859
#
# Velocity S-wave (km/s) = -7.60668 3.33206 -4.83523
# Velocity P-wave (km/s) = 7.44427 7.02067 1.75034
#
# Compressibility (1/GPa) = 0.02034903
#
# Stress axis : x y z
#
# Youngs Moduli (GPa) = 88.28638 54.21699 148.34048
#
# Poissons Ratio (x) = 0.02268 0.03366
# Poissons Ratio (y) = 0.03693 1.10314
# Poissons Ratio (z) = 0.02003 0.40319
#
# Static dielectric constant tensor:
#      x y z
#    x -4.056970 0.000000 0.000000 
#    y 0.000000 1.752220 0.000000 
#    z 0.000000 0.000000 1.859600 
# 
# From -- ./inp_files/63434.got.cif
#   From: 2010.05.17/outbox.cif.g08.bks.cpg/sg74_32_cif.got.tgz:63434.got - 2010.06.03 17:57:02.
