data_PCOD9537231
_publ_section_title
;
Structure prediction by ZEFSAII (Michael W. Deem and Ramdas Pophale) SiO2 
 PCOD9537231
Probable space group: I M M A
;
_chemical_formula_sum "Si O2"
_cell_formula_units_Z 112
_cell_length_a 21.674366
_cell_length_b 15.000401
_cell_length_c 15.481368
_cell_angle_alpha 90.000000
_cell_angle_beta 90.000000
_cell_angle_gamma 90.000000
_cell_volume 5033.367098
_symmetry_space_group_name_H-M "I M M A"
_symmetry_group_IT_number 74
_symmetry_cell_setting 'orthorhombic'
loop_
_space_group_symop_operation_xyz
x,y,z
-x,1/2-y,z
x,-y,-z
-x,1/2+y,-z
-x,-y,-z
x,1/2+y,-z
-x,y,z
x,1/2-y,z
1/2+x,1/2+y,1/2+z
1/2-x,-y,1/2+z
1/2+x,1/2-y,1/2-z
1/2-x,y,1/2-z
1/2-x,1/2-y,1/2-z
1/2+x,y,1/2-z
1/2-x,1/2+y,1/2+z
1/2+x,-y,1/2+z
loop_
_atom_site_type_symbol
_atom_site_label
_atom_site_fract_x
_atom_site_fract_y
_atom_site_fract_z
Si Si1 0.695712 0.121320 0.814380
Si Si2 0.933116 0.895224 0.251684
Si Si3 0.880714 0.858311 0.076958
Si Si4 0.927839 0.903275 0.702562
Si Si5 0.753360 0.352086 0.985505
Si Si6 0.292684 0.409436 0.169139
Si Si7 0.430878 0.642777 0.605743
O O1 0.750000 0.153479 0.750000
O O2 0.629462 0.151351 0.780008
O O3 0.699618 0.146394 0.915087
O O4 0.698549 0.013846 0.811278
O O5 0.921609 0.905350 0.148882
O O6 0.000000 0.853230 0.264825
O O7 0.933983 0.990059 0.300332
O O8 0.888355 0.750000 0.087320
O O9 0.809126 0.884493 0.076503
O O10 0.897485 0.885110 0.980085
O O11 0.863848 0.873258 0.656178
O O12 0.907931 0.883696 0.801106
O O13 0.000000 0.868824 0.688220
O O14 0.768966 0.250000 0.008857
O O15 0.740638 0.399046 0.076183
O O16 0.250000 0.373984 0.250000
O O17 0.500000 0.608262 0.600694
O O18 0.431926 0.750000 0.604128
#
# Coordination Sequence:
#
# PCOD9537231 Si02
#       7
#    16  16  16  16  16  16  16
#     4  10  20  39  59  82 111 150 190 232 282 336
#     4  10  20  35  56  81 110 144 187 234 281 335
#     4  10  20  33  50  77 112 146 180 224 282 343
#     4   9  19  35  54  79 109 145 188 235 286 331
#     4  11  23  37  57  84 113 148 188 235 288 341
#     4  10  21  37  59  85 112 148 192 239 281 338
#     4   9  17  30  48  73 109 148 182 219 272 337
#
# _framework density 22.251505999999999
#
# number of rings (size 3 to 8) (size 9 to 14) (size 15 to 20)
#    0.000    2.143    1.429    1.714    0.000    3.143 
#    2.571    2.857    0.000    4.286    0.000    0.000 
#    0.000    0.000    0.000    0.000    0.000    0.000 
#
# Total GULP energy -311903.644536 kJ/mol
# GULP energy per Si atom -5569.707938 kJ/mol
# Density = 2.220086 g / cm^3
# Si number density = 22.251506 Si / 1000 Ang^3
#
#
#
# Elastic Constant Matrix: (Units=GPa)
#
#
# Indices 1 2 3 4 5 6 
#
# 1 116.9166 15.4522 36.8189 0.0000 0.0000 0.0000
# 2 15.4522 29.8595 0.6849 0.0000 0.0000 0.0000
# 3 36.8189 0.6849 73.2279 0.0000 0.0000 0.0000
# 4 0.0000 0.0000 0.0000 26.7322 0.0000 0.0000
# 5 0.0000 0.0000 0.0000 0.0000 22.8825 0.0000
# 6 0.0000 0.0000 0.0000 0.0000 0.0000 6.1868
#
#
#
# Elastic Compliance Matrix: (Units=1/GPa)
#
#
# Indices 1 2 3 4 5 6 
#
# 1 0.011018 -0.005576 -0.005488 0.000000 0.000000 0.000000
# 2 -0.005576 0.036319 0.002464 0.000000 0.000000 0.000000
# 3 -0.005488 0.002464 0.016392 0.000000 0.000000 0.000000
# 4 0.000000 0.000000 0.000000 0.037408 0.000000 0.000000
# 5 0.000000 0.000000 0.000000 0.000000 0.043701 0.000000
# 6 0.000000 0.000000 0.000000 0.000000 0.000000 0.161634
#
#
# Mechanical properties :
#
#
# Convention : Reuss Voigt Hill
#
# Bulk Modulus (GPa) = 21.49155 36.21289 28.85222
# Shear Modulus (GPa) = 14.74131 22.29683 18.51907
#
# Velocity S-wave (km/s) = 2.57667 3.16893 2.88802
# Velocity P-wave (km/s) = 4.30485 5.44970 4.91075
#
# Compressibility (1/GPa) = 0.04652992
#
# Stress axis : x y z
#
# Youngs Moduli (GPa) = 90.75835 27.53356 61.00452
#
# Poissons Ratio (x) = 0.15353 0.33478
# Poissons Ratio (y) = 0.50607 -0.15031
# Poissons Ratio (z) = 0.49807 -0.06784
#
# Static dielectric constant tensor:
#      x y z
#    x 1.973710 0.000000 0.000000 
#    y 0.000000 1.856700 0.000000 
#    z 0.000000 0.000000 2.111400 
# 
# From -- ./inp_files/36515.got.cif
#   From: 2010.05.17/outbox.cif.g08.bks.cpg/sg74_19_cif.got.tgz:36515.got - 2010.06.03 17:57:02.
