data_PCOD9537243
_publ_section_title
;
Structure prediction by ZEFSAII (Michael W. Deem and Ramdas Pophale) SiO2 
 PCOD9537243
Probable space group: I M M A
;
_chemical_formula_sum "Si O2"
_cell_formula_units_Z 96
_cell_length_a 8.587597
_cell_length_b 24.406688
_cell_length_c 24.923956
_cell_angle_alpha 90.000000
_cell_angle_beta 90.000000
_cell_angle_gamma 90.000000
_cell_volume 5223.931589
_symmetry_space_group_name_H-M "I M M A"
_symmetry_group_IT_number 74
_symmetry_cell_setting 'orthorhombic'
loop_
_space_group_symop_operation_xyz
x,y,z
-x,1/2-y,z
x,-y,-z
-x,1/2+y,-z
-x,-y,-z
x,1/2+y,-z
-x,y,z
x,1/2-y,z
1/2+x,1/2+y,1/2+z
1/2-x,-y,1/2+z
1/2+x,1/2-y,1/2-z
1/2-x,y,1/2-z
1/2-x,1/2-y,1/2-z
1/2+x,y,1/2-z
1/2-x,1/2+y,1/2+z
1/2+x,-y,1/2+z
loop_
_atom_site_type_symbol
_atom_site_label
_atom_site_fract_x
_atom_site_fract_y
_atom_site_fract_z
Si Si1 0.313953 0.688712 0.196315
Si Si2 0.814030 0.187219 0.393673
Si Si3 0.312806 0.980298 0.190311
Si Si4 0.812967 0.108589 0.602403
Si Si5 0.314408 0.102643 0.307770
Si Si6 0.313346 0.687456 0.485625
O O1 0.500000 0.690394 0.199919
O O2 0.250046 0.750000 0.193435
O O3 0.250000 0.662120 0.250000
O O4 0.272657 0.656450 0.144070
O O5 0.782805 0.250000 0.376498
O O6 0.735442 0.144528 0.353740
O O7 0.749654 0.181736 0.453968
O O8 0.000000 0.178931 0.394083
O O9 0.500000 0.976178 0.193087
O O10 0.250000 0.964187 0.250000
O O11 0.263130 0.944530 0.137861
O O12 0.259338 0.042756 0.182296
O O13 0.743950 0.134584 0.548217
O O14 0.000000 0.104288 0.595415
O O15 0.500000 0.097236 0.304991
O O16 0.250000 0.121531 0.250000
O O17 0.500000 0.687431 0.485258
O O18 0.262983 0.750000 0.466996
#
# Coordination Sequence:
#
# PCOD9537243 Si02
#       6
#    16  16  16  16  16  16
#     4   9  17  28  42  63  93 128 169 220 276 327
#     4  10  21  39  63  88 115 146 178 217 269 327
#     4  10  20  35  55  80 111 147 189 234 281 331
#     4  10  20  33  51  74 102 142 188 231 275 326
#     4  11  22  38  61  87 117 149 181 220 267 323
#     4  10  21  36  55  81 112 146 185 230 278 328
#
# _framework density 18.376963
#
# number of rings (size 3 to 8) (size 9 to 14) (size 15 to 20)
#    0.000    2.000    0.000    5.000    0.000    5.000 
#    0.000    2.500    0.000    5.000    0.000    0.000 
#    0.000    0.000    0.000    0.000    0.000    0.000 
#
# Total GULP energy -267508.056980 kJ/mol
# GULP energy per Si atom -5573.084520 kJ/mol
# Density = 1.833514 g / cm^3
# Si number density = 18.376963 Si / 1000 Ang^3
#
#
#
# Elastic Constant Matrix: (Units=GPa)
#
#
# Indices 1 2 3 4 5 6 
#
# 1 52.1034 36.3558 31.0125 0.0000 0.0000 0.0000
# 2 36.3558 92.9333 62.1906 0.0000 0.0000 0.0000
# 3 31.0125 62.1906 95.1492 0.0000 0.0000 0.0000
# 4 0.0000 0.0000 0.0000 40.6941 0.0000 0.0000
# 5 0.0000 0.0000 0.0000 0.0000 34.5350 0.0000
# 6 0.0000 0.0000 0.0000 0.0000 0.0000 24.7797
#
#
#
# Elastic Compliance Matrix: (Units=1/GPa)
#
#
# Indices 1 2 3 4 5 6 
#
# 1 0.026993 -0.008305 -0.003370 0.000000 0.000000 0.000000
# 2 -0.008305 0.021681 -0.011464 0.000000 0.000000 0.000000
# 3 -0.003370 -0.011464 0.019101 0.000000 0.000000 0.000000
# 4 0.000000 0.000000 0.000000 0.024574 0.000000 0.000000
# 5 0.000000 0.000000 0.000000 0.000000 0.028956 0.000000
# 6 0.000000 0.000000 0.000000 0.000000 0.000000 0.040356
#
#
# Mechanical properties :
#
#
# Convention : Reuss Voigt Hill
#
# Bulk Modulus (GPa) = 46.51630 55.47817 50.99723
# Shear Modulus (GPa) = 23.24453 27.37688 25.31071
#
# Velocity S-wave (km/s) = 3.56036 3.86390 3.71523
# Velocity P-wave (km/s) = 6.50145 7.08243 6.79815
#
# Compressibility (1/GPa) = 0.02149784
#
# Stress axis : x y z
#
# Youngs Moduli (GPa) = 37.04651 46.12338 52.35228
#
# Poissons Ratio (x) = 0.38303 0.17643
# Poissons Ratio (y) = 0.30765 0.60018
# Poissons Ratio (z) = 0.12485 0.52877
#
# Static dielectric constant tensor:
#      x y z
#    x 1.623190 0.000000 0.000000 
#    y 0.000000 1.657390 0.000000 
#    z 0.000000 0.000000 1.629640 
# 
# From -- ./inp_files/57231.got.cif
#   From: 2010.05.17/outbox.cif.g08.bks.cpg/sg74_29_cif.got.tgz:57231.got - 2010.06.03 17:57:02.
