data_PCOD9537624
_publ_section_title
;
Structure prediction by ZEFSAII (Michael W. Deem and Ramdas Pophale) SiO2 
 PCOD9537624
Probable space group: I M M A
;
_chemical_formula_sum "Si O2"
_cell_formula_units_Z 104
_cell_length_a 22.006586
_cell_length_b 8.698617
_cell_length_c 27.097532
_cell_angle_alpha 90.000000
_cell_angle_beta 90.000000
_cell_angle_gamma 90.000000
_cell_volume 5187.195548
_symmetry_space_group_name_H-M "I M M A"
_symmetry_group_IT_number 74
_symmetry_cell_setting 'orthorhombic'
loop_
_space_group_symop_operation_xyz
x,y,z
-x,1/2-y,z
x,-y,-z
-x,1/2+y,-z
-x,-y,-z
x,1/2+y,-z
-x,y,z
x,1/2-y,z
1/2+x,1/2+y,1/2+z
1/2-x,-y,1/2+z
1/2+x,1/2-y,1/2-z
1/2-x,y,1/2-z
1/2-x,1/2-y,1/2-z
1/2+x,y,1/2-z
1/2-x,1/2+y,1/2+z
1/2+x,-y,1/2+z
loop_
_atom_site_type_symbol
_atom_site_label
_atom_site_fract_x
_atom_site_fract_y
_atom_site_fract_z
Si Si1 0.387320 0.565029 0.378157
Si Si2 0.500000 0.066483 0.553959
Si Si3 0.191962 0.565881 0.716787
Si Si4 0.183858 0.066184 0.610017
Si Si5 0.929069 0.435555 0.766778
Si Si6 0.289172 0.067757 0.448061
Si Si7 0.568671 0.065065 0.946841
O O1 0.377119 0.750000 0.380011
O O2 0.441458 0.522007 0.414929
O O3 0.408916 0.527298 0.323038
O O4 0.330055 0.479869 0.401220
O O5 0.500000 0.250000 0.550702
O O6 0.500000 0.000000 0.500000
O O7 0.189709 0.750000 0.719325
O O8 0.250000 0.514031 0.750000
O O9 0.202610 0.510808 0.661077
O O10 0.126233 0.501481 0.734171
O O11 0.188996 0.250000 0.614475
O O12 0.115209 0.022503 0.595849
O O13 0.224958 0.008407 0.564938
O O14 0.928822 0.250000 0.761775
O O15 0.000000 0.484584 0.758130
O O16 0.284988 0.250000 0.452162
O O17 0.312953 0.000000 0.500000
O O18 0.500000 0.012714 0.936909
O O19 0.568954 0.250000 0.950226
O O20 0.587171 0.000000 0.000000
#
# Coordination Sequence:
#
# PCOD9537624 Si02
#       7
#    16   8  16  16  16  16  16
#     4  10  20  38  61  86 119 157 201 249 302 359
#     4  10  20  34  54  82 116 152 194 244 293 348
#     4  11  25  43  62  89 125 161 204 259 315 374
#     4  11  23  40  63  89 118 156 200 249 306 365
#     4  10  21  40  66  93 122 161 208 259 314 374
#     4  12  25  40  59  87 123 162 205 252 303 362
#     4   9  19  36  59  88 120 152 188 231 283 348
#
# _framework density 20.049368999999999
#
# number of rings (size 3 to 8) (size 9 to 14) (size 15 to 20)
#    0.000    1.538    0.769    4.154    0.000    9.538 
#    0.000    1.538    0.000    0.000    0.000    0.000 
#    0.000    0.000    0.000    0.000    0.000    0.000 
#
# Total GULP energy -290432.097623 kJ/mol
# GULP energy per Si atom -5585.232647 kJ/mol
# Density = 2.000374 g / cm^3
# Si number density = 20.049369 Si / 1000 Ang^3
#
#
#
# Elastic Constant Matrix: (Units=GPa)
#
#
# Indices 1 2 3 4 5 6 
#
# 1 105.9494 28.0812 31.5771 0.0000 0.0000 0.0000
# 2 28.0812 22.7974 16.5416 0.0000 0.0000 0.0000
# 3 31.5771 16.5416 64.2144 0.0000 0.0000 0.0000
# 4 0.0000 0.0000 0.0000 28.1335 0.0000 0.0000
# 5 0.0000 0.0000 0.0000 0.0000 467.7219 0.0000
# 6 0.0000 0.0000 0.0000 0.0000 0.0000 18.7956
#
#
#
# Elastic Compliance Matrix: (Units=1/GPa)
#
#
# Indices 1 2 3 4 5 6 
#
# 1 0.014502 -0.015606 -0.003111 0.000000 0.000000 0.000000
# 2 -0.015606 0.070742 -0.010549 0.000000 0.000000 0.000000
# 3 -0.003111 -0.010549 0.019820 0.000000 0.000000 0.000000
# 4 0.000000 0.000000 0.000000 0.035545 0.000000 0.000000
# 5 0.000000 0.000000 0.000000 0.000000 0.002138 0.000000
# 6 0.000000 0.000000 0.000000 0.000000 0.000000 0.053204
#
#
# Mechanical properties :
#
#
# Convention : Reuss Voigt Hill
#
# Bulk Modulus (GPa) = 21.49061 38.37344 29.93203
# Shear Modulus (GPa) = 18.51902 110.71429 64.61666
#
# Velocity S-wave (km/s) = 3.04249 7.43913 5.68320
# Velocity P-wave (km/s) = 4.80463 9.64202 7.61752
#
# Compressibility (1/GPa) = 0.04653194
#
# Stress axis : x y z
#
# Youngs Moduli (GPa) = 68.95659 14.13597 50.45358
#
# Poissons Ratio (x) = 0.22060 0.15697
# Poissons Ratio (y) = 1.07610 0.53224
# Poissons Ratio (z) = 0.21454 0.14912
#
# Static dielectric constant tensor:
#      x y z
#    x 1.563640 0.000000 0.000000 
#    y 0.000000 1.674750 0.000000 
#    z 0.000000 0.000000 1.706550 
# 
# From -- ./inp_files/68270.got.cif
#   From: 2010.05.17/outbox.cif.g08.bks.cpg/sg74_35_cif.got.tgz:68270.got - 2010.06.03 17:57:02.
