data_PCOD9537685
_publ_section_title
;
Structure prediction by ZEFSAII (Michael W. Deem and Ramdas Pophale) SiO2 
 PCOD9537685
Probable space group: I M M A
;
_chemical_formula_sum "Si O2"
_cell_formula_units_Z 96
_cell_length_a 8.789444
_cell_length_b 23.873803
_cell_length_c 21.800764
_cell_angle_alpha 90.000000
_cell_angle_beta 90.000000
_cell_angle_gamma 90.000000
_cell_volume 4574.616825
_symmetry_space_group_name_H-M "I M M A"
_symmetry_group_IT_number 74
_symmetry_cell_setting 'orthorhombic'
loop_
_space_group_symop_operation_xyz
x,y,z
-x,1/2-y,z
x,-y,-z
-x,1/2+y,-z
-x,-y,-z
x,1/2+y,-z
-x,y,z
x,1/2-y,z
1/2+x,1/2+y,1/2+z
1/2-x,-y,1/2+z
1/2+x,1/2-y,1/2-z
1/2-x,y,1/2-z
1/2-x,1/2-y,1/2-z
1/2+x,y,1/2-z
1/2-x,1/2+y,1/2+z
1/2+x,-y,1/2+z
loop_
_atom_site_type_symbol
_atom_site_label
_atom_site_fract_x
_atom_site_fract_y
_atom_site_fract_z
Si Si1 0.325551 0.875783 0.574574
Si Si2 0.825460 0.186993 0.531117
Si Si3 0.825762 0.682636 0.686817
Si Si4 0.321218 0.686746 0.339233
Si Si5 0.320269 0.069502 0.813736
Si Si6 0.322050 0.495322 0.571092
O O1 0.500000 0.864691 0.556845
O O2 0.219456 0.859131 0.517938
O O3 0.274245 0.838498 0.631054
O O4 0.313273 0.940471 0.592690
O O5 0.815831 0.250000 0.503570
O O6 0.711942 0.185142 0.588001
O O7 0.000000 0.179580 0.552432
O O8 0.828008 0.750000 0.686969
O O9 0.750000 0.663541 0.750000
O O10 0.000000 0.662983 0.680968
O O11 0.500000 0.678315 0.326636
O O12 0.277813 0.750000 0.319578
O O13 0.224186 0.635193 0.314661
O O14 0.500000 0.062511 0.812109
O O15 0.250000 0.045917 0.750000
O O16 0.257339 0.042618 0.877258
O O17 0.265883 0.500000 0.500000
O O18 0.500000 0.477558 0.567322
#
# Coordination Sequence:
#
# PCOD9537685 Si02
#       6
#    16  16  16  16  16  16
#     4  11  22  35  57  86 115 153 199 249 304 363
#     4  10  20  34  55  87 126 163 201 249 302 358
#     4  10  21  37  56  79 111 151 194 244 301 362
#     4  10  21  39  64  93 126 163 201 244 298 361
#     4  12  26  44  68  95 127 166 208 258 313 371
#     4  10  23  44  67  91 123 163 209 261 314 369
#
# _framework density 20.985365000000002
#
# number of rings (size 3 to 8) (size 9 to 14) (size 15 to 20)
#    0.000    1.500    0.000    5.000    0.000    9.000 
#    0.000    0.000    0.000    0.000    0.000    0.000 
#    0.000    0.000    0.000    0.000    0.000    0.000 
#
# Total GULP energy -268182.396844 kJ/mol
# GULP energy per Si atom -5587.133268 kJ/mol
# Density = 2.093760 g / cm^3
# Si number density = 20.985365 Si / 1000 Ang^3
#
#
#
# Elastic Constant Matrix: (Units=GPa)
#
#
# Indices 1 2 3 4 5 6 
#
# 1 93.4329 37.6034 32.2378 0.0000 0.0000 0.0000
# 2 37.6034 48.2891 34.2415 0.0000 0.0000 0.0000
# 3 32.2378 34.2415 119.3345 0.0000 0.0000 0.0000
# 4 0.0000 0.0000 0.0000 -44.6510 0.0000 0.0000
# 5 0.0000 0.0000 0.0000 0.0000 31.6859 0.0000
# 6 0.0000 0.0000 0.0000 0.0000 0.0000 21.0101
#
#
#
# Elastic Compliance Matrix: (Units=1/GPa)
#
#
# Indices 1 2 3 4 5 6 
#
# 1 0.015668 -0.011550 -0.000919 0.000000 0.000000 0.000000
# 2 -0.011550 0.034512 -0.006783 0.000000 0.000000 0.000000
# 3 -0.000919 -0.006783 0.010574 0.000000 0.000000 0.000000
# 4 0.000000 0.000000 0.000000 -0.022396 0.000000 0.000000
# 5 0.000000 0.000000 0.000000 0.000000 0.031560 0.000000
# 6 0.000000 0.000000 0.000000 0.000000 0.000000 0.047596
#
#
# Mechanical properties :
#
#
# Convention : Reuss Voigt Hill
#
# Bulk Modulus (GPa) = 44.93895 52.13577 48.53736
# Shear Modulus (GPa) = 30.59341 12.07391 21.33366
#
# Velocity S-wave (km/s) = 3.82232 2.40125 3.19187
# Velocity P-wave (km/s) = 6.39852 5.70840 6.06328
#
# Compressibility (1/GPa) = 0.02225241
#
# Stress axis : x y z
#
# Youngs Moduli (GPa) = 63.82371 28.97540 94.56985
#
# Poissons Ratio (x) = 0.33465 0.08688
# Poissons Ratio (y) = 0.73714 0.64144
# Poissons Ratio (z) = 0.05863 0.19653
#
# Static dielectric constant tensor:
#      x y z
#    x 1.730210 0.000000 0.000000 
#    y 0.000000 1.758370 0.000000 
#    z 0.000000 0.000000 1.649140 
# 
# From -- ./inp_files/49122.got.cif
#   From: 2010.05.17/outbox.cif.g08.bks.cpg/sg74_25_cif.got.tgz:49122.got - 2010.06.03 17:57:02.
