data_PCOD9537139
_publ_section_title
;
Structure prediction by ZEFSAII (Michael W. Deem and Ramdas Pophale) SiO2 
 PCOD9537139
Probable space group: I M M A
;
_chemical_formula_sum "Si O2"
_cell_formula_units_Z 72
_cell_length_a 21.963631
_cell_length_b 9.172295
_cell_length_c 18.532274
_cell_angle_alpha 90.000000
_cell_angle_beta 90.000000
_cell_angle_gamma 90.000000
_cell_volume 3733.454522
_symmetry_space_group_name_H-M "I M M A"
_symmetry_group_IT_number 74
_symmetry_cell_setting 'orthorhombic'
loop_
_space_group_symop_operation_xyz
x,y,z
-x,1/2-y,z
x,-y,-z
-x,1/2+y,-z
-x,-y,-z
x,1/2+y,-z
-x,y,z
x,1/2-y,z
1/2+x,1/2+y,1/2+z
1/2-x,-y,1/2+z
1/2+x,1/2-y,1/2-z
1/2-x,y,1/2-z
1/2-x,1/2-y,1/2-z
1/2+x,y,1/2-z
1/2-x,1/2+y,1/2+z
1/2+x,-y,1/2+z
loop_
_atom_site_type_symbol
_atom_site_label
_atom_site_fract_x
_atom_site_fract_y
_atom_site_fract_z
Si Si1 0.361950 0.502793 0.654694
Si Si2 0.339665 0.250000 0.557503
Si Si3 0.677505 0.750000 0.243927
Si Si4 0.130117 0.250000 0.395509
Si Si5 0.356056 0.000000 0.000000
Si Si6 0.722137 0.250000 0.399103
Si Si7 0.929459 0.250000 0.235886
Si Si8 0.704435 0.250000 0.911182
O O1 0.372663 0.397413 0.585076
O O2 0.348880 0.391865 0.718835
O O3 0.303655 0.605442 0.639206
O O4 0.412451 0.612524 0.684956
O O5 0.313800 0.250000 0.476321
O O6 0.276132 0.250000 0.601915
O O7 0.750000 0.750000 0.250000
O O8 0.664608 0.750000 0.159833
O O9 0.110727 0.393178 0.442485
O O10 0.204744 0.250000 0.398181
O O11 0.107804 0.250000 0.312346
O O12 0.313143 0.892448 0.044821
O O13 0.000000 0.250000 0.254555
#
# Coordination Sequence:
#
# PCOD9537139 Si02
#       8
#    16   8   8   8   8   8   8   8
#     4  10  23  36  58  89 121 161 200 248 318 367
#     4  11  19  32  55  89 128 152 181 237 310 394
#     4  11  21  32  54  87 131 155 188 243 313 392
#     4  11  22  34  62  87 125 164 202 239 323 362
#     4  10  20  32  51  88 118 164 193 234 286 388
#     4  11  21  32  59  94 134 154 191 235 322 406
#     4  11  26  47  63  80 118 170 233 270 282 331
#     4  11  19  29  49  78 133 162 182 216 303 372
#
# _framework density 19.285088999999999
#
# number of rings (size 3 to 8) (size 9 to 14) (size 15 to 20)
#    0.000    1.333    4.444    3.333    3.111    0.889 
#    0.000    2.778    0.000   10.667    0.000    0.000 
#    0.000    0.000    0.000    0.000    0.000    0.000 
#
# Total GULP energy -200666.869747 kJ/mol
# GULP energy per Si atom -5574.079715 kJ/mol
# Density = 1.924120 g / cm^3
# Si number density = 19.285089 Si / 1000 Ang^3
#
#
#
# Elastic Constant Matrix: (Units=GPa)
#
#
# Indices 1 2 3 4 5 6 
#
# 1 49.3146 26.8581 32.3812 0.0000 0.0000 0.0000
# 2 26.8581 153.5927 50.5205 0.0000 0.0000 0.0000
# 3 32.3812 50.5205 116.9679 0.0000 0.0000 0.0000
# 4 0.0000 0.0000 0.0000 26.4653 0.0000 0.0000
# 5 0.0000 0.0000 0.0000 0.0000 11.6733 0.0000
# 6 0.0000 0.0000 0.0000 0.0000 0.0000 -28.8265
#
#
#
# Elastic Compliance Matrix: (Units=1/GPa)
#
#
# Indices 1 2 3 4 5 6 
#
# 1 0.025580 -0.002499 -0.006002 0.000000 0.000000 0.000000
# 2 -0.002499 0.007833 -0.002691 0.000000 0.000000 0.000000
# 3 -0.006002 -0.002691 0.011374 0.000000 0.000000 0.000000
# 4 0.000000 0.000000 0.000000 0.037785 0.000000 0.000000
# 5 0.000000 0.000000 0.000000 0.000000 0.085665 0.000000
# 6 0.000000 0.000000 0.000000 0.000000 0.000000 -0.034690
#
#
# Mechanical properties :
#
#
# Convention : Reuss Voigt Hill
#
# Bulk Modulus (GPa) = 44.63971 59.93274 52.28622
# Shear Modulus (GPa) = 30.59990 15.87011 23.23501
#
# Velocity S-wave (km/s) = 3.98768 2.87177 3.47481
# Velocity P-wave (km/s) = 6.66330 6.49160 6.57801
#
# Compressibility (1/GPa) = 0.02240158
#
# Stress axis : x y z
#
# Youngs Moduli (GPa) = 39.09278 127.66569 87.92362
#
# Poissons Ratio (x) = 0.31901 0.52775
# Poissons Ratio (y) = 0.09768 0.23664
# Poissons Ratio (z) = 0.23465 0.34360
#
# Static dielectric constant tensor:
#      x y z
#    x 1.613830 0.000000 0.000000 
#    y 0.000000 1.701580 0.000000 
#    z 0.000000 0.000000 1.769830 
# 
# From -- ./inp_files/53723.got.cif
#   From: 2010.05.17/outbox.cif.g08.bks.cpg/sg74_27_cif.got.tgz:53723.got - 2010.06.03 17:57:02.
