data_PCOD9537132
_publ_section_title
;
Structure prediction by ZEFSAII (Michael W. Deem and Ramdas Pophale) SiO2 
 PCOD9537132
Probable space group: I M M A
;
_chemical_formula_sum "Si O2"
_cell_formula_units_Z 84
_cell_length_a 20.336910
_cell_length_b 7.626124
_cell_length_c 25.572528
_cell_angle_alpha 90.000000
_cell_angle_beta 90.000000
_cell_angle_gamma 90.000000
_cell_volume 3966.089333
_symmetry_space_group_name_H-M "I M M A"
_symmetry_group_IT_number 74
_symmetry_cell_setting 'orthorhombic'
loop_
_space_group_symop_operation_xyz
x,y,z
-x,1/2-y,z
x,-y,-z
-x,1/2+y,-z
-x,-y,-z
x,1/2+y,-z
-x,y,z
x,1/2-y,z
1/2+x,1/2+y,1/2+z
1/2-x,-y,1/2+z
1/2+x,1/2-y,1/2-z
1/2-x,y,1/2-z
1/2-x,1/2-y,1/2-z
1/2+x,y,1/2-z
1/2-x,1/2+y,1/2+z
1/2+x,-y,1/2+z
loop_
_atom_site_type_symbol
_atom_site_label
_atom_site_fract_x
_atom_site_fract_y
_atom_site_fract_z
Si Si1 0.760595 0.953418 0.416862
Si Si2 0.093501 0.949688 0.559916
Si Si3 0.883628 0.958944 0.057035
Si Si4 0.000000 0.750000 0.401225
Si Si5 0.070676 0.545108 0.830072
Si Si6 0.714053 0.963514 0.696989
O O1 0.765557 0.750000 0.432042
O O2 0.692006 0.025751 0.439936
O O3 0.827843 0.041273 0.433807
O O4 0.750833 0.969903 0.354542
O O5 0.073360 0.750000 0.570203
O O6 0.077224 0.000000 0.500000
O O7 0.057207 0.094690 0.594564
O O8 0.882167 0.750000 0.064171
O O9 0.920846 0.033248 0.107183
O O10 0.911191 0.000000 0.000000
O O11 0.069136 0.750000 0.815748
O O12 0.138391 0.473043 0.806387
O O13 0.000000 0.466617 0.815281
O O14 0.713763 0.750000 0.694175
O O15 0.750000 0.015522 0.750000
#
# Coordination Sequence:
#
# PCOD9537132 Si02
#       6
#    16  16  16   4  16  16
#     4  10  20  36  54  81 110 141 187 238 286 336
#     4  12  23  36  58  81 112 155 195 240 291 345
#     4  10  20  32  51  76 110 144 180 224 267 323
#     4  12  24  40  54  82 114 154 198 248 274 366
#     4   9  18  33  53  77 106 144 181 223 276 333
#     4   9  18  34  58  83 108 140 186 238 289 348
#
# _framework density 21.179554
#
# number of rings (size 3 to 8) (size 9 to 14) (size 15 to 20)
#    0.000    1.905    1.905    2.286    0.000    4.952 
#    0.000    0.000    2.095    0.000    0.000    0.000 
#    0.000    0.000    0.000    0.000    0.000    0.000 
#
# Total GULP energy -234071.047586 kJ/mol
# GULP energy per Si atom -5573.120181 kJ/mol
# Density = 2.113135 g / cm^3
# Si number density = 21.179554 Si / 1000 Ang^3
#
#
#
# Elastic Constant Matrix: (Units=GPa)
#
#
# Indices 1 2 3 4 5 6 
#
# 1 137.1263 19.7899 20.1313 0.0000 0.0000 0.0000
# 2 19.7899 114.6823 -14.0258 0.0000 0.0000 0.0000
# 3 20.1313 -14.0258 69.2544 0.0000 0.0000 0.0000
# 4 0.0000 0.0000 0.0000 16.2605 0.0000 0.0000
# 5 0.0000 0.0000 0.0000 0.0000 -29.2508 0.0000
# 6 0.0000 0.0000 0.0000 0.0000 0.0000 -21.2561
#
#
#
# Elastic Compliance Matrix: (Units=1/GPa)
#
#
# Indices 1 2 3 4 5 6 
#
# 1 0.007925 -0.001691 -0.002646 0.000000 0.000000 0.000000
# 2 -0.001691 0.009302 0.002376 0.000000 0.000000 0.000000
# 3 -0.002646 0.002376 0.015690 0.000000 0.000000 0.000000
# 4 0.000000 0.000000 0.000000 0.061499 0.000000 0.000000
# 5 0.000000 0.000000 0.000000 0.000000 -0.034187 0.000000
# 6 0.000000 0.000000 0.000000 0.000000 0.000000 -0.047045
#
#
# Mechanical properties :
#
#
# Convention : Reuss Voigt Hill
#
# Bulk Modulus (GPa) = 34.49083 41.42821 37.95952
# Shear Modulus (GPa) = 186.76479 12.82856 99.79668
#
# Velocity S-wave (km/s) = 9.40070 2.46378 6.87180
# Velocity P-wave (km/s) = 11.58236 5.26275 8.99577
#
# Compressibility (1/GPa) = 0.02899321
#
# Stress axis : x y z
#
# Youngs Moduli (GPa) = 126.18116 107.50250 63.73550
#
# Poissons Ratio (x) = 0.18181 0.16866
# Poissons Ratio (y) = 0.21340 -0.15141
# Poissons Ratio (z) = 0.33391 -0.25538
#
# Static dielectric constant tensor:
#      x y z
#    x 1.800150 0.000000 0.000000 
#    y 0.000000 1.796760 0.000000 
#    z 0.000000 0.000000 1.732140 
# 
# From -- ./inp_files/61356.got.cif
#   From: 2010.05.17/outbox.cif.g08.bks.cpg/sg74_31_cif.got.tgz:61356.got - 2010.06.03 17:57:02.
