data_PCOD9537070
_publ_section_title
;
Structure prediction by ZEFSAII (Michael W. Deem and Ramdas Pophale) SiO2 
 PCOD9537070
Probable space group: I M M A
;
_chemical_formula_sum "Si O2"
_cell_formula_units_Z 72
_cell_length_a 16.864402
_cell_length_b 7.789043
_cell_length_c 28.273238
_cell_angle_alpha 90.000000
_cell_angle_beta 90.000000
_cell_angle_gamma 90.000000
_cell_volume 3713.903341
_symmetry_space_group_name_H-M "I M M A"
_symmetry_group_IT_number 74
_symmetry_cell_setting 'orthorhombic'
loop_
_space_group_symop_operation_xyz
x,y,z
-x,1/2-y,z
x,-y,-z
-x,1/2+y,-z
-x,-y,-z
x,1/2+y,-z
-x,y,z
x,1/2-y,z
1/2+x,1/2+y,1/2+z
1/2-x,-y,1/2+z
1/2+x,1/2-y,1/2-z
1/2-x,y,1/2-z
1/2-x,1/2-y,1/2-z
1/2+x,y,1/2-z
1/2-x,1/2+y,1/2+z
1/2+x,-y,1/2+z
loop_
_atom_site_type_symbol
_atom_site_label
_atom_site_fract_x
_atom_site_fract_y
_atom_site_fract_z
Si Si1 0.655765 0.549725 0.609378
Si Si2 0.500000 0.042035 0.444300
Si Si3 0.188950 0.547637 0.445945
Si Si4 0.757077 0.039184 0.304199
Si Si5 0.912244 0.455797 0.359387
O O1 0.638165 0.750000 0.617939
O O2 0.578603 0.477186 0.583078
O O3 0.731340 0.537839 0.574625
O O4 0.688198 0.479492 0.659560
O O5 0.500000 0.250000 0.442433
O O6 0.500000 0.000000 0.500000
O O7 0.176150 0.500000 0.500000
O O8 0.200435 0.750000 0.441701
O O9 0.116642 0.493711 0.412431
O O10 0.755933 0.250000 0.305282
O O11 0.750000 0.985876 0.250000
O O12 0.841153 0.981750 0.325925
O O13 0.914822 0.250000 0.353834
O O14 0.000000 0.524409 0.349881
#
# Coordination Sequence:
#
# PCOD9537070 Si02
#       5
#    16   8  16  16  16
#     4   9  18  33  50  72 104 135 170 209 251 302
#     4  10  20  32  48  72 102 138 170 210 255 298
#     4  11  21  33  51  73  98 132 169 206 251 300
#     4   8  14  28  50  74 101 131 162 203 251 298
#     4   9  18  33  51  73 102 133 166 205 246 294
#
# _framework density 19.386610000000001
#
# number of rings (size 3 to 8) (size 9 to 14) (size 15 to 20)
#    0.000    2.667    0.000    4.000    0.000    3.556 
#    2.000    0.000    0.000   10.667    0.000    0.000 
#    0.000    0.000    0.000    0.000    0.000    0.000 
#
# Total GULP energy -200726.330675 kJ/mol
# GULP energy per Si atom -5575.731408 kJ/mol
# Density = 1.934249 g / cm^3
# Si number density = 19.386610 Si / 1000 Ang^3
#
#
#
# Elastic Constant Matrix: (Units=GPa)
#
#
# Indices 1 2 3 4 5 6 
#
# 1 145.1599 5.1201 95.7754 0.0000 0.0000 0.0000
# 2 5.1201 27.3537 -2.9703 0.0000 0.0000 0.0000
# 3 95.7754 -2.9703 186.3505 0.0000 0.0000 0.0000
# 4 0.0000 0.0000 0.0000 15.6598 0.0000 0.0000
# 5 0.0000 0.0000 0.0000 0.0000 11.8923 0.0000
# 6 0.0000 0.0000 0.0000 0.0000 0.0000 3.4717
#
#
#
# Elastic Compliance Matrix: (Units=1/GPa)
#
#
# Indices 1 2 3 4 5 6 
#
# 1 0.010602 -0.002581 -0.005490 0.000000 0.000000 0.000000
# 2 -0.002581 0.037250 0.001920 0.000000 0.000000 0.000000
# 3 -0.005490 0.001920 0.008219 0.000000 0.000000 0.000000
# 4 0.000000 0.000000 0.000000 0.063858 0.000000 0.000000
# 5 0.000000 0.000000 0.000000 0.000000 0.084088 0.000000
# 6 0.000000 0.000000 0.000000 0.000000 0.000000 0.288041
#
#
# Mechanical properties :
#
#
# Convention : Reuss Voigt Hill
#
# Bulk Modulus (GPa) = 22.84731 61.63496 42.24114
# Shear Modulus (GPa) = 9.63486 23.60069 16.61778
#
# Velocity S-wave (km/s) = 2.23174 3.49287 2.93094
# Velocity P-wave (km/s) = 4.29553 6.93746 5.76975
#
# Compressibility (1/GPa) = 0.04376883
#
# Stress axis : x y z
#
# Youngs Moduli (GPa) = 94.31799 26.84589 121.67542
#
# Poissons Ratio (x) = 0.06928 0.66803
# Poissons Ratio (y) = 0.24341 -0.23363
# Poissons Ratio (z) = 0.51783 -0.05155
#
# Static dielectric constant tensor:
#      x y z
#    x 1.669910 0.000000 0.000000 
#    y 0.000000 1.724140 0.000000 
#    z 0.000000 0.000000 1.652910 
# 
# From -- ./inp_files/56694.got.cif
#   From: 2010.05.17/outbox.cif.g08.bks.cpg/sg74_29_cif.got.tgz:56694.got - 2010.06.03 17:57:02.
