data_PCOD9537701
_publ_section_title
;
Structure prediction by ZEFSAII (Michael W. Deem and Ramdas Pophale) SiO2 
 PCOD9537701
Probable space group: I M M A
;
_chemical_formula_sum "Si O2"
_cell_formula_units_Z 120
_cell_length_a 25.275589
_cell_length_b 9.395525
_cell_length_c 28.348283
_cell_angle_alpha 90.000000
_cell_angle_beta 90.000000
_cell_angle_gamma 90.000000
_cell_volume 6732.077345
_symmetry_space_group_name_H-M "I M M A"
_symmetry_group_IT_number 74
_symmetry_cell_setting 'orthorhombic'
loop_
_space_group_symop_operation_xyz
x,y,z
-x,1/2-y,z
x,-y,-z
-x,1/2+y,-z
-x,-y,-z
x,1/2+y,-z
-x,y,z
x,1/2-y,z
1/2+x,1/2+y,1/2+z
1/2-x,-y,1/2+z
1/2+x,1/2-y,1/2-z
1/2-x,y,1/2-z
1/2-x,1/2-y,1/2-z
1/2+x,y,1/2-z
1/2-x,1/2+y,1/2+z
1/2+x,-y,1/2+z
loop_
_atom_site_type_symbol
_atom_site_label
_atom_site_fract_x
_atom_site_fract_y
_atom_site_fract_z
Si Si1 0.436762 0.586890 0.135905
Si Si2 0.500000 0.080013 0.549463
Si Si3 0.140860 0.916790 0.284608
Si Si4 0.218351 0.581745 0.048329
Si Si5 0.608926 0.579939 0.397022
Si Si6 0.758382 0.417918 0.648429
Si Si7 0.841986 0.920397 0.811677
Si Si8 0.935296 0.587720 0.545568
O O1 0.500000 0.580500 0.137760
O O2 0.421291 0.750000 0.124685
O O3 0.412094 0.552369 0.186215
O O4 0.418168 0.485967 0.093912
O O5 0.500000 0.250000 0.541338
O O6 0.446548 0.046052 0.578187
O O7 0.500000 0.000000 0.500000
O O8 0.141550 0.750000 0.269709
O O9 0.187531 0.934478 0.323103
O O10 0.147313 0.017438 0.240069
O O11 0.221036 0.750000 0.039135
O O12 0.159163 0.550558 0.068643
O O13 0.257220 0.549661 0.092525
O O14 0.228519 0.500000 0.000000
O O15 0.610217 0.750000 0.386640
O O16 0.618189 0.489649 0.349811
O O17 0.742512 0.250000 0.652524
O O18 0.714801 0.517281 0.672502
O O19 0.843184 0.750000 0.812849
O O20 0.917902 0.500000 0.500000
O O21 0.918094 0.750000 0.542657
O O22 0.000000 0.586187 0.545401
#
# Coordination Sequence:
#
# PCOD9537701 Si02
#       8
#    16   8  16  16  16  16  16  16
#     4   9  18  33  52  75 101 130 170 213 253 309
#     4  10  20  34  56  84 114 150 190 232 271 314
#     4  10  20  36  57  76 101 139 176 214 267 326
#     4   9  17  30  50  75 104 136 171 209 257 315
#     4   9  19  36  54  76 107 145 186 222 261 319
#     4   9  19  36  56  77 103 137 175 214 260 322
#     4  11  22  35  54  80 106 133 172 225 275 315
#     4   9  16  27  46  70  95 126 163 204 248 292
#
# _framework density 17.825106000000002
#
# number of rings (size 3 to 8) (size 9 to 14) (size 15 to 20)
#    0.000    2.533    0.000    3.200    0.000    6.933 
#    1.200    0.667    0.000    1.600    0.000    0.000 
#    0.000    0.000    0.000    0.000    0.000    0.000 
#
# Total GULP energy -334656.444257 kJ/mol
# GULP energy per Si atom -5577.607404 kJ/mol
# Density = 1.778454 g / cm^3
# Si number density = 17.825106 Si / 1000 Ang^3
#
#
#
# Elastic Constant Matrix: (Units=GPa)
#
#
# Indices 1 2 3 4 5 6 
#
# 1 21.8878 22.2518 26.3631 0.0000 0.0000 0.0000
# 2 22.2518 96.5377 87.7880 0.0000 0.0000 0.0000
# 3 26.3631 87.7880 144.4830 0.0000 0.0000 0.0000
# 4 0.0000 0.0000 0.0000 38.3435 0.0000 0.0000
# 5 0.0000 0.0000 0.0000 0.0000 14.6785 0.0000
# 6 0.0000 0.0000 0.0000 0.0000 0.0000 10.2098
#
#
#
# Elastic Compliance Matrix: (Units=1/GPa)
#
#
# Indices 1 2 3 4 5 6 
#
# 1 0.061813 -0.008920 -0.005859 0.000000 0.000000 0.000000
# 2 -0.008920 0.024437 -0.013220 0.000000 0.000000 0.000000
# 3 -0.005859 -0.013220 0.016023 0.000000 0.000000 0.000000
# 4 0.000000 0.000000 0.000000 0.026080 0.000000 0.000000
# 5 0.000000 0.000000 0.000000 0.000000 0.068127 0.000000
# 6 0.000000 0.000000 0.000000 0.000000 0.000000 0.097945
#
#
# Mechanical properties :
#
#
# Convention : Reuss Voigt Hill
#
# Bulk Modulus (GPa) = 21.61027 59.52382 40.56705
# Shear Modulus (GPa) = 13.66696 21.08009 17.37352
#
# Velocity S-wave (km/s) = 2.77198 3.44264 3.12535
# Velocity P-wave (km/s) = 4.73234 7.01912 5.98595
#
# Compressibility (1/GPa) = 0.04627428
#
# Stress axis : x y z
#
# Youngs Moduli (GPa) = 16.17794 40.92231 62.41081
#
# Poissons Ratio (x) = 0.36501 0.36567
# Poissons Ratio (y) = 0.14430 0.82508
# Poissons Ratio (z) = 0.09479 0.54100
#
# Static dielectric constant tensor:
#      x y z
#    x 1.623130 0.000000 0.000000 
#    y 0.000000 1.595230 0.000000 
#    z 0.000000 0.000000 1.592860 
# 
# From -- ./inp_files/69018.got.cif
#   From: 2010.05.17/outbox.cif.g08.bks.cpg/sg74_35_cif.got.tgz:69018.got - 2010.06.03 17:57:02.
