data_PCOD9537429
_publ_section_title
;
Structure prediction by ZEFSAII (Michael W. Deem and Ramdas Pophale) SiO2 
 PCOD9537429
Probable space group: I M M A
;
_chemical_formula_sum "Si O2"
_cell_formula_units_Z 100
_cell_length_a 21.363767
_cell_length_b 7.900713
_cell_length_c 31.936888
_cell_angle_alpha 90.000000
_cell_angle_beta 90.000000
_cell_angle_gamma 90.000000
_cell_volume 5390.595122
_symmetry_space_group_name_H-M "I M M A"
_symmetry_group_IT_number 74
_symmetry_cell_setting 'orthorhombic'
loop_
_space_group_symop_operation_xyz
x,y,z
-x,1/2-y,z
x,-y,-z
-x,1/2+y,-z
-x,-y,-z
x,1/2+y,-z
-x,y,z
x,1/2-y,z
1/2+x,1/2+y,1/2+z
1/2-x,-y,1/2+z
1/2+x,1/2-y,1/2-z
1/2-x,y,1/2-z
1/2-x,1/2-y,1/2-z
1/2+x,y,1/2-z
1/2-x,1/2+y,1/2+z
1/2+x,-y,1/2+z
loop_
_atom_site_type_symbol
_atom_site_label
_atom_site_fract_x
_atom_site_fract_y
_atom_site_fract_z
Si Si1 0.430174 0.052280 0.591762
Si Si2 0.093274 0.551276 0.349754
Si Si3 0.000000 0.750000 0.625459
Si Si4 0.194866 0.052968 0.047486
Si Si5 0.429730 0.547602 0.248376
Si Si6 0.641833 0.448123 0.328072
Si Si7 0.767287 0.043682 0.371692
O O1 0.500000 0.979691 0.587247
O O2 0.432844 0.250000 0.581684
O O3 0.376242 0.976802 0.562575
O O4 0.405861 0.034207 0.639416
O O5 0.074502 0.750000 0.356661
O O6 0.053985 0.403382 0.372385
O O7 0.084157 0.514185 0.300177
O O8 0.165932 0.532444 0.361182
O O9 0.206657 0.250000 0.048996
O O10 0.240287 0.980797 0.083504
O O11 0.204673 0.000000 0.000000
O O12 0.500000 0.483687 0.257832
O O13 0.429733 0.750000 0.253678
O O14 0.380266 0.475368 0.280979
O O15 0.638928 0.250000 0.338506
O O16 0.712435 0.503238 0.338740
O O17 0.772861 0.250000 0.371444
#
# Coordination Sequence:
#
# PCOD9537429 Si02
#       7
#    16  16   4  16  16  16  16
#     4  10  20  34  51  74 108 150 195 241 289 330
#     4  11  23  38  61  88 115 152 192 231 287 344
#     4  12  22  40  64  84 126 144 186 244 284 330
#     4  10  21  37  59  84 113 144 184 231 280 339
#     4  10  21  35  50  76 111 147 200 245 281 335
#     4  10  21  33  52  77 109 153 195 239 288 333
#     4   9  20  39  56  81 116 147 185 233 282 340
#
# _framework density 18.550827000000002
#
# number of rings (size 3 to 8) (size 9 to 14) (size 15 to 20)
#    0.000    1.920    1.600    3.120    1.120    8.320 
#    0.000    3.200    0.000    0.000    0.000    0.560 
#    0.000    0.000    0.000    0.000    0.000    0.000 
#
# Total GULP energy -278371.185221 kJ/mol
# GULP energy per Si atom -5567.423704 kJ/mol
# Density = 1.850860 g / cm^3
# Si number density = 18.550827 Si / 1000 Ang^3
#
#
#
# Elastic Constant Matrix: (Units=GPa)
#
#
# Indices 1 2 3 4 5 6 
#
# 1 145.3563 20.9950 31.0611 0.0000 0.0000 0.0000
# 2 20.9950 51.6524 8.9125 0.0000 0.0000 0.0000
# 3 31.0611 8.9125 21.1230 0.0000 0.0000 0.0000
# 4 0.0000 0.0000 0.0000 9.9161 0.0000 0.0000
# 5 0.0000 0.0000 0.0000 0.0000 3.9695 0.0000
# 6 0.0000 0.0000 0.0000 0.0000 0.0000 25.2554
#
#
#
# Elastic Compliance Matrix: (Units=1/GPa)
#
#
# Indices 1 2 3 4 5 6 
#
# 1 0.010164 -0.001674 -0.014240 0.000000 0.000000 0.000000
# 2 -0.001674 0.021156 -0.006464 0.000000 0.000000 0.000000
# 3 -0.014240 -0.006464 0.071009 0.000000 0.000000 0.000000
# 4 0.000000 0.000000 0.000000 0.100846 0.000000 0.000000
# 5 0.000000 0.000000 0.000000 0.000000 0.251922 0.000000
# 6 0.000000 0.000000 0.000000 0.000000 0.000000 0.039595
#
#
# Mechanical properties :
#
#
# Convention : Reuss Voigt Hill
#
# Bulk Modulus (GPa) = 17.36952 37.78543 27.57748
# Shear Modulus (GPa) = 8.95028 18.30574 13.62801
#
# Velocity S-wave (km/s) = 2.19891 3.14473 2.71335
# Velocity P-wave (km/s) = 3.97875 5.79643 4.97137
#
# Compressibility (1/GPa) = 0.05757212
#
# Stress axis : x y z
#
# Youngs Moduli (GPa) = 98.38175 47.26754 14.08267
#
# Poissons Ratio (x) = 0.07915 0.20054
# Poissons Ratio (y) = 0.16473 0.09103
# Poissons Ratio (z) = 1.40098 0.30555
#
# Static dielectric constant tensor:
#      x y z
#    x 1.650590 0.000000 0.000000 
#    y 0.000000 1.673530 0.000000 
#    z 0.000000 0.000000 1.658590 
# 
# From -- ./inp_files/70594.got.cif
#   From: 2010.05.17/outbox.cif.g08.bks.cpg/sg74_36_cif.got.tgz:70594.got - 2010.06.03 17:57:02.
