data_PCOD9537384
_publ_section_title
;
Structure prediction by ZEFSAII (Michael W. Deem and Ramdas Pophale) SiO2 
 PCOD9537384
Probable space group: I M M A
;
_chemical_formula_sum "Si O2"
_cell_formula_units_Z 72
_cell_length_a 8.169538
_cell_length_b 17.528536
_cell_length_c 25.169659
_cell_angle_alpha 90.000000
_cell_angle_beta 90.000000
_cell_angle_gamma 90.000000
_cell_volume 3604.296199
_symmetry_space_group_name_H-M "I M M A"
_symmetry_group_IT_number 74
_symmetry_cell_setting 'orthorhombic'
loop_
_space_group_symop_operation_xyz
x,y,z
-x,1/2-y,z
x,-y,-z
-x,1/2+y,-z
-x,-y,-z
x,1/2+y,-z
-x,y,z
x,1/2-y,z
1/2+x,1/2+y,1/2+z
1/2-x,-y,1/2+z
1/2+x,1/2-y,1/2-z
1/2-x,y,1/2-z
1/2-x,1/2-y,1/2-z
1/2+x,y,1/2-z
1/2-x,1/2+y,1/2+z
1/2+x,-y,1/2+z
loop_
_atom_site_type_symbol
_atom_site_label
_atom_site_fract_x
_atom_site_fract_y
_atom_site_fract_z
Si Si1 0.804943 0.949775 0.900909
Si Si2 0.800047 0.334070 0.010871
Si Si3 0.196171 0.663069 0.689792
Si Si4 0.806873 0.750000 0.310944
Si Si5 0.802193 0.622344 0.107524
O O1 0.741027 0.903103 0.952069
O O2 0.772197 0.896474 0.850671
O O3 0.000000 0.957676 0.908903
O O4 0.741398 0.035031 0.891223
O O5 0.748559 0.250000 0.030282
O O6 0.000000 0.335451 0.012112
O O7 0.750975 0.344256 0.949688
O O8 0.248835 0.750000 0.677168
O O9 0.250000 0.647225 0.750000
O O10 0.000000 0.659554 0.686395
O O11 0.750000 0.750000 0.250000
O O12 0.750005 0.675941 0.344178
O O13 0.000000 0.750000 0.310639
O O14 0.000000 0.622011 0.108012
#
# Coordination Sequence:
#
# PCOD9537384 Si02
#       5
#    16  16  16   8  16
#     4  10  20  33  57  91 120 151 193 238 288 348
#     4   9  16  30  57  89 121 155 191 232 280 338
#     4  10  21  37  56  78 110 152 193 238 289 343
#     4  12  26  44  66  88 112 152 203 250 303 358
#     4  10  20  38  61  87 120 153 190 241 294 345
#
# _framework density 19.976161999999999
#
# number of rings (size 3 to 8) (size 9 to 14) (size 15 to 20)
#    0.000    2.000    1.111    3.000    0.000    6.667 
#    0.000    1.111    0.000    2.667    0.000    0.000 
#    0.000    0.000    0.000    0.000    0.000    0.000 
#
# Total GULP energy -201034.687058 kJ/mol
# GULP energy per Si atom -5584.296863 kJ/mol
# Density = 1.993070 g / cm^3
# Si number density = 19.976162 Si / 1000 Ang^3
#
#
#
# Elastic Constant Matrix: (Units=GPa)
#
#
# Indices 1 2 3 4 5 6 
#
# 1 20.0058 19.0489 8.1333 0.0000 0.0000 0.0000
# 2 19.0489 176.7419 107.0602 0.0000 0.0000 0.0000
# 3 8.1333 107.0602 141.0425 0.0000 0.0000 0.0000
# 4 0.0000 0.0000 0.0000 27.4692 0.0000 0.0000
# 5 0.0000 0.0000 0.0000 0.0000 22.0875 0.0000
# 6 0.0000 0.0000 0.0000 0.0000 0.0000 17.5068
#
#
#
# Elastic Compliance Matrix: (Units=1/GPa)
#
#
# Indices 1 2 3 4 5 6 
#
# 1 0.056178 -0.007576 0.002511 0.000000 0.000000 0.000000
# 2 -0.007576 0.011495 -0.008289 0.000000 0.000000 0.000000
# 3 0.002511 -0.008289 0.013237 0.000000 0.000000 0.000000
# 4 0.000000 0.000000 0.000000 0.036404 0.000000 0.000000
# 5 0.000000 0.000000 0.000000 0.000000 0.045275 0.000000
# 6 0.000000 0.000000 0.000000 0.000000 0.000000 0.057121
#
#
# Mechanical properties :
#
#
# Convention : Reuss Voigt Hill
#
# Bulk Modulus (GPa) = 18.44909 67.36387 42.90648
# Shear Modulus (GPa) = 18.90464 26.98255 22.94360
#
# Velocity S-wave (km/s) = 3.07963 3.67923 3.39270
# Velocity P-wave (km/s) = 4.67986 7.20030 6.07229
#
# Compressibility (1/GPa) = 0.05420323
#
# Stress axis : x y z
#
# Youngs Moduli (GPa) = 17.80051 86.99129 75.54552
#
# Poissons Ratio (x) = 0.65903 -0.18969
# Poissons Ratio (y) = 0.13485 0.62619
# Poissons Ratio (z) = -0.04470 0.72106
#
# Static dielectric constant tensor:
#      x y z
#    x 1.713480 0.000000 0.000000 
#    y 0.000000 1.722940 0.000000 
#    z 0.000000 0.000000 4.022950 
# 
# From -- ./inp_files/56661.got.cif
#   From: 2010.05.17/outbox.cif.g08.bks.cpg/sg74_29_cif.got.tgz:56661.got - 2010.06.03 17:57:02.
