data_PCOD9537475
_publ_section_title
;
Structure prediction by ZEFSAII (Michael W. Deem and Ramdas Pophale) SiO2 
 PCOD9537475
Probable space group: I M M A
;
_chemical_formula_sum "Si O2"
_cell_formula_units_Z 80
_cell_length_a 27.879181
_cell_length_b 16.339391
_cell_length_c 9.440522
_cell_angle_alpha 90.000000
_cell_angle_beta 90.000000
_cell_angle_gamma 90.000000
_cell_volume 4300.430027
_symmetry_space_group_name_H-M "I M M A"
_symmetry_group_IT_number 74
_symmetry_cell_setting 'orthorhombic'
loop_
_space_group_symop_operation_xyz
x,y,z
-x,1/2-y,z
x,-y,-z
-x,1/2+y,-z
-x,-y,-z
x,1/2+y,-z
-x,y,z
x,1/2-y,z
1/2+x,1/2+y,1/2+z
1/2-x,-y,1/2+z
1/2+x,1/2-y,1/2-z
1/2-x,y,1/2-z
1/2-x,1/2-y,1/2-z
1/2+x,y,1/2-z
1/2-x,1/2+y,1/2+z
1/2+x,-y,1/2+z
loop_
_atom_site_type_symbol
_atom_site_label
_atom_site_fract_x
_atom_site_fract_y
_atom_site_fract_z
Si Si1 0.782398 0.934565 0.614148
Si Si2 0.375150 0.846315 0.363252
Si Si3 0.889536 0.001893 0.337140
Si Si4 0.445636 0.915190 0.588329
Si Si5 0.767770 0.154234 0.898322
O O1 0.750000 0.928943 0.750000
O O2 0.772208 0.855680 0.518784
O O3 0.762801 0.000000 0.500000
O O4 0.835971 0.960082 0.652116
O O5 0.374980 0.750000 0.319139
O O6 0.386324 0.911816 0.237345
O O7 0.413014 0.857687 0.490199
O O8 0.322627 0.872790 0.423694
O O9 0.907138 0.000000 0.500000
O O10 0.921072 0.059606 0.235961
O O11 0.500000 0.885129 0.606615
O O12 0.447502 0.000000 0.500000
O O13 0.773433 0.250000 0.876213
O O14 0.750000 0.116743 0.750000
#
# Coordination Sequence:
#
# PCOD9537475 Si02
#       5
#    16  16  16  16  16
#     4  11  20  31  49  73 105 143 183 220 261 321
#     4  10  20  36  58  82 111 149 193 236 276 327
#     4  10  20  34  54  83 114 147 184 227 283 338
#     4   9  19  37  59  80 104 139 186 234 277 328
#     4  10  20  34  52  76 108 144 180 223 276 329
#
# _framework density 18.602791
#
# number of rings (size 3 to 8) (size 9 to 14) (size 15 to 20)
#    0.000    2.000    0.000    5.400    0.000    2.800 
#    0.000    2.000    0.000    0.000    0.000    0.000 
#    0.000    0.000    0.000    0.000    0.000    0.000 
#
# Total GULP energy -222753.734072 kJ/mol
# GULP energy per Si atom -5568.843352 kJ/mol
# Density = 1.856045 g / cm^3
# Si number density = 18.602791 Si / 1000 Ang^3
#
#
#
# Elastic Constant Matrix: (Units=GPa)
#
#
# Indices 1 2 3 4 5 6 
#
# 1 115.8977 35.3698 72.1488 0.0000 0.0000 0.0000
# 2 35.3698 57.6869 26.3682 0.0000 0.0000 0.0000
# 3 72.1488 26.3682 151.9122 0.0000 0.0000 0.0000
# 4 0.0000 0.0000 0.0000 21.3231 0.0000 0.0000
# 5 0.0000 0.0000 0.0000 0.0000 21.3794 0.0000
# 6 0.0000 0.0000 0.0000 0.0000 0.0000 17.9318
#
#
#
# Elastic Compliance Matrix: (Units=1/GPa)
#
#
# Indices 1 2 3 4 5 6 
#
# 1 0.013927 -0.005991 -0.005575 0.000000 0.000000 0.000000
# 2 -0.005991 0.021406 -0.000870 0.000000 0.000000 0.000000
# 3 -0.005575 -0.000870 0.009381 0.000000 0.000000 0.000000
# 4 0.000000 0.000000 0.000000 0.046898 0.000000 0.000000
# 5 0.000000 0.000000 0.000000 0.000000 0.046774 0.000000
# 6 0.000000 0.000000 0.000000 0.000000 0.000000 0.055767
#
#
# Mechanical properties :
#
#
# Convention : Reuss Voigt Hill
#
# Bulk Modulus (GPa) = 50.39610 65.91894 58.15752
# Shear Modulus (GPa) = 22.15937 24.90087 23.53012
#
# Velocity S-wave (km/s) = 3.45510 3.66260 3.56036
# Velocity P-wave (km/s) = 6.56250 7.30740 6.94494
#
# Compressibility (1/GPa) = 0.01984281
#
# Stress axis : x y z
#
# Youngs Moduli (GPa) = 71.80354 46.71594 106.59452
#
# Poissons Ratio (x) = 0.27987 0.59421
# Poissons Ratio (y) = 0.43017 0.09276
# Poissons Ratio (z) = 0.40027 0.04065
#
# Static dielectric constant tensor:
#      x y z
#    x 1.663560 0.000000 0.000000 
#    y 0.000000 1.766310 0.000000 
#    z 0.000000 0.000000 1.674360 
# 
# From -- ./inp_files/11180.got.cif
#   From: 2010.05.17/outbox.cif.g08.bks.cpg/sg74_6_cif.got.tgz:11180.got - 2010.06.03 17:57:02.
