data_PCOD9537899
_publ_section_title
;
Structure prediction by ZEFSAII (Michael W. Deem and Ramdas Pophale) SiO2 
 PCOD9537899
Probable space group: I M M A
;
_chemical_formula_sum "Si O2"
_cell_formula_units_Z 96
_cell_length_a 15.157191
_cell_length_b 21.344397
_cell_length_c 17.488054
_cell_angle_alpha 90.000000
_cell_angle_beta 90.000000
_cell_angle_gamma 90.000000
_cell_volume 5657.754504
_symmetry_space_group_name_H-M "I M M A"
_symmetry_group_IT_number 74
_symmetry_cell_setting 'orthorhombic'
loop_
_space_group_symop_operation_xyz
x,y,z
-x,1/2-y,z
x,-y,-z
-x,1/2+y,-z
-x,-y,-z
x,1/2+y,-z
-x,y,z
x,1/2-y,z
1/2+x,1/2+y,1/2+z
1/2-x,-y,1/2+z
1/2+x,1/2-y,1/2-z
1/2-x,y,1/2-z
1/2-x,1/2-y,1/2-z
1/2+x,y,1/2-z
1/2-x,1/2+y,1/2+z
1/2+x,-y,1/2+z
loop_
_atom_site_type_symbol
_atom_site_label
_atom_site_fract_x
_atom_site_fract_y
_atom_site_fract_z
Si Si1 0.395375 0.318043 0.888358
Si Si2 0.893424 0.635335 0.557643
Si Si3 0.247157 0.474526 0.420744
Si Si4 0.852428 0.180844 0.276474
Si Si5 0.401640 0.948567 0.697719
Si Si6 0.334410 0.563306 0.199395
O O1 0.500000 0.312839 0.892291
O O2 0.357480 0.250000 0.866782
O O3 0.378597 0.373095 0.828014
O O4 0.369708 0.334586 0.975776
O O5 0.831145 0.574736 0.565259
O O6 0.868015 0.675698 0.632397
O O7 0.000000 0.623135 0.559406
O O8 0.284669 0.500000 0.500000
O O9 0.323796 0.449605 0.364867
O O10 0.201084 0.531261 0.377085
O O11 0.885426 0.250000 0.251545
O O12 0.750000 0.177857 0.250000
O O13 0.894667 0.117630 0.242066
O O14 0.500000 0.954318 0.665158
O O15 0.385420 0.008022 0.754525
O O16 0.250000 0.579306 0.250000
#
# Coordination Sequence:
#
# PCOD9537899 Si02
#       6
#    16  16  16  16  16  16
#     4  10  21  35  53  80 109 139 178 218 266 327
#     4  11  21  34  54  81 111 144 177 217 268 323
#     4  11  21  37  56  79 109 140 185 226 267 320
#     4  11  21  35  55  81 116 151 181 218 267 322
#     4  11  22  37  57  81 109 142 185 226 268 319
#     4  10  20  35  56  80 108 139 174 226 273 318
#
# _framework density 16.967862
#
# number of rings (size 3 to 8) (size 9 to 14) (size 15 to 20)
#    0.000    1.333    5.000    2.000    0.000    3.667 
#    0.000    0.000    0.000    0.000    0.000    0.000 
#    0.000    0.000    0.000    0.000    0.000    0.000 
#
# Total GULP energy -267398.349279 kJ/mol
# GULP energy per Si atom -5570.798943 kJ/mol
# Density = 1.692924 g / cm^3
# Si number density = 16.967862 Si / 1000 Ang^3
#
#
#
# Elastic Constant Matrix: (Units=GPa)
#
#
# Indices 1 2 3 4 5 6 
#
# 1 65.8661 37.1516 19.3909 0.0000 0.0000 0.0000
# 2 37.1516 129.2000 61.5479 0.0001 0.0000 0.0000
# 3 19.3909 61.5479 58.8992 0.0001 0.0000 0.0000
# 4 0.0000 0.0001 0.0001 32.4975 0.0000 0.0000
# 5 0.0000 0.0000 0.0000 0.0000 17.6954 0.0000
# 6 0.0000 0.0000 0.0000 0.0000 0.0000 6.0016
#
#
#
# Elastic Compliance Matrix: (Units=1/GPa)
#
#
# Indices 1 2 3 4 5 6 
#
# 1 0.018153 -0.004725 -0.001039 0.000000 0.000000 0.000000
# 2 -0.004725 0.016642 -0.015835 0.000000 0.000000 0.000000
# 3 -0.001039 -0.015835 0.033867 0.000000 0.000000 0.000000
# 4 0.000000 0.000000 0.000000 0.030772 0.000000 0.000000
# 5 0.000000 0.000000 0.000000 0.000000 0.056512 0.000000
# 6 0.000000 0.000000 0.000000 0.000000 0.000000 0.166623
#
#
# Mechanical properties :
#
#
# Convention : Reuss Voigt Hill
#
# Bulk Modulus (GPa) = 39.26975 54.46066 46.86521
# Shear Modulus (GPa) = 13.35990 20.29721 16.82855
#
# Velocity S-wave (km/s) = 2.80905 3.46239 3.15269
# Velocity P-wave (km/s) = 5.80645 6.93903 6.39785
#
# Compressibility (1/GPa) = 0.02546489
#
# Stress axis : x y z
#
# Youngs Moduli (GPa) = 55.08621 60.08914 29.52728
#
# Poissons Ratio (x) = 0.28393 0.03067
# Poissons Ratio (y) = 0.26029 0.46756
# Poissons Ratio (z) = 0.05723 0.95149
#
# Static dielectric constant tensor:
#      x y z
#    x 1.578360 0.000000 0.000000 
#    y 0.000000 1.625910 0.000000 
#    z 0.000000 0.000000 1.611050 
# 
# From -- ./inp_files/32337.got.cif
#   From: 2010.05.17/outbox.cif.g08.bks.cpg/sg74_17_cif.got.tgz:32337.got - 2010.06.03 17:57:02.
