data_PCOD9537557
_publ_section_title
;
Structure prediction by ZEFSAII (Michael W. Deem and Ramdas Pophale) SiO2 
 PCOD9537557
Probable space group: I M M A
;
_chemical_formula_sum "Si O2"
_cell_formula_units_Z 104
_cell_length_a 8.643319
_cell_length_b 22.854674
_cell_length_c 30.795674
_cell_angle_alpha 90.000000
_cell_angle_beta 90.000000
_cell_angle_gamma 90.000000
_cell_volume 6083.384772
_symmetry_space_group_name_H-M "I M M A"
_symmetry_group_IT_number 74
_symmetry_cell_setting 'orthorhombic'
loop_
_space_group_symop_operation_xyz
x,y,z
-x,1/2-y,z
x,-y,-z
-x,1/2+y,-z
-x,-y,-z
x,1/2+y,-z
-x,y,z
x,1/2-y,z
1/2+x,1/2+y,1/2+z
1/2-x,-y,1/2+z
1/2+x,1/2-y,1/2-z
1/2-x,y,1/2-z
1/2-x,1/2-y,1/2-z
1/2+x,y,1/2-z
1/2-x,1/2+y,1/2+z
1/2+x,-y,1/2+z
loop_
_atom_site_type_symbol
_atom_site_label
_atom_site_fract_x
_atom_site_fract_y
_atom_site_fract_z
Si Si1 0.183594 0.596496 0.296956
Si Si2 0.179160 0.321069 0.539591
Si Si3 0.315161 0.032202 0.297828
Si Si4 0.685648 0.750000 0.701043
Si Si5 0.683051 0.818951 0.368763
Si Si6 0.188404 0.317691 0.444757
Si Si7 0.186517 0.361435 0.351661
O O1 0.250000 0.614745 0.250000
O O2 0.258461 0.533517 0.307439
O O3 0.227676 0.642924 0.333570
O O4 0.000000 0.589514 0.293515
O O5 0.180134 0.250000 0.537329
O O6 0.273283 0.337708 0.582249
O O7 0.238929 0.340221 0.492160
O O8 0.000000 0.339136 0.544997
O O9 0.500000 0.034160 0.296875
O O10 0.250000 0.047184 0.250000
O O11 0.249038 0.078884 0.331489
O O12 0.500000 0.750000 0.701857
O O13 0.750000 0.750000 0.750000
O O14 0.746990 0.807139 0.675825
O O15 0.500000 0.825183 0.361981
O O16 0.722956 0.750000 0.364717
O O17 0.238008 0.250000 0.439208
O O18 0.233289 0.352852 0.401974
O O19 0.000000 0.316938 0.446549
O O20 0.000000 0.359737 0.349179
#
# Coordination Sequence:
#
# PCOD9537557 Si02
#       7
#    16  16  16   8  16  16  16
#     4  11  22  38  59  81 105 137 176 215 257 305
#     4   8  14  27  49  75 103 137 176 212 250 304
#     4  11  22  38  56  76 102 135 177 219 262 313
#     4  12  24  36  48  70 102 138 176 222 277 326
#     4  10  20  34  53  81 115 145 172 206 255 307
#     4   8  14  27  49  75 102 135 174 216 262 311
#     4  11  20  34  54  76 103 137 177 221 269 318
#
# _framework density 17.095745000000001
#
# number of rings (size 3 to 8) (size 9 to 14) (size 15 to 20)
#    0.000    2.000    0.769    6.692    0.000    1.231 
#    0.000    1.538    0.000    0.923    0.000    6.462 
#    0.000    0.000    0.000    0.000    0.000    0.000 
#
# Total GULP energy -290180.007046 kJ/mol
# GULP energy per Si atom -5580.384751 kJ/mol
# Density = 1.705683 g / cm^3
# Si number density = 17.095745 Si / 1000 Ang^3
#
#
#
# Elastic Constant Matrix: (Units=GPa)
#
#
# Indices 1 2 3 4 5 6 
#
# 1 97.4550 30.1820 47.4621 0.0000 0.0000 0.0000
# 2 30.1820 47.0622 61.8429 0.0000 0.0000 0.0000
# 3 47.4621 61.8429 139.2786 0.0000 0.0000 0.0000
# 4 0.0000 0.0000 0.0000 3.4783 0.0000 0.0000
# 5 0.0000 0.0000 0.0000 0.0000 25.3726 0.0000
# 6 0.0000 0.0000 0.0000 0.0000 0.0000 24.8430
#
#
#
# Elastic Compliance Matrix: (Units=1/GPa)
#
#
# Indices 1 2 3 4 5 6 
#
# 1 0.012979 -0.006030 -0.001745 0.000000 0.000000 0.000000
# 2 -0.006030 0.053816 -0.021840 0.000000 0.000000 0.000000
# 3 -0.001745 -0.021840 0.017472 0.000000 0.000000 0.000000
# 4 0.000000 0.000000 0.000000 0.287496 0.000000 0.000000
# 5 0.000000 0.000000 0.000000 0.000000 0.039413 0.000000
# 6 0.000000 0.000000 0.000000 0.000000 0.000000 0.040253
#
#
# Mechanical properties :
#
#
# Convention : Reuss Voigt Hill
#
# Bulk Modulus (GPa) = 39.94440 62.52998 51.23719
# Shear Modulus (GPa) = 9.63384 20.35938 14.99661
#
# Velocity S-wave (km/s) = 2.37644 3.45469 2.96499
# Velocity P-wave (km/s) = 5.56289 7.25044 6.46199
#
# Compressibility (1/GPa) = 0.02503480
#
# Stress axis : x y z
#
# Youngs Moduli (GPa) = 77.04966 18.58198 57.23368
#
# Poissons Ratio (x) = 0.11205 0.09988
# Poissons Ratio (y) = 0.46462 1.25001
# Poissons Ratio (z) = 0.13447 0.40584
#
# Static dielectric constant tensor:
#      x y z
#    x 1.578120 0.000000 0.000000 
#    y 0.000000 1.550020 0.000000 
#    z 0.000000 0.000000 1.590750 
# 
# From -- ./inp_files/64462.got.cif
#   From: 2010.05.17/outbox.cif.g08.bks.cpg/sg74_33_cif.got.tgz:64462.got - 2010.06.03 17:57:02.
