data_PCOD9537334
_publ_section_title
;
Structure prediction by ZEFSAII (Michael W. Deem and Ramdas Pophale) SiO2 
 PCOD9537334
Probable space group: I M M A
;
_chemical_formula_sum "Si O2"
_cell_formula_units_Z 96
_cell_length_a 18.624660
_cell_length_b 11.132582
_cell_length_c 25.635285
_cell_angle_alpha 90.000000
_cell_angle_beta 90.000000
_cell_angle_gamma 90.000000
_cell_volume 5315.234211
_symmetry_space_group_name_H-M "I M M A"
_symmetry_group_IT_number 74
_symmetry_cell_setting 'orthorhombic'
loop_
_space_group_symop_operation_xyz
x,y,z
-x,1/2-y,z
x,-y,-z
-x,1/2+y,-z
-x,-y,-z
x,1/2+y,-z
-x,y,z
x,1/2-y,z
1/2+x,1/2+y,1/2+z
1/2-x,-y,1/2+z
1/2+x,1/2-y,1/2-z
1/2-x,y,1/2-z
1/2-x,1/2-y,1/2-z
1/2+x,y,1/2-z
1/2-x,1/2+y,1/2+z
1/2+x,-y,1/2+z
loop_
_atom_site_type_symbol
_atom_site_label
_atom_site_fract_x
_atom_site_fract_y
_atom_site_fract_z
Si Si1 0.915503 0.250000 0.812626
Si Si2 0.702860 0.980530 0.147814
Si Si3 0.915262 0.539469 0.108735
Si Si4 0.218471 0.396612 0.956873
Si Si5 0.417897 0.605731 0.798563
Si Si6 0.821014 0.250000 0.715345
Si Si7 0.655482 0.391121 0.310908
O O1 0.893888 0.364477 0.846526
O O2 0.884826 0.250000 0.755803
O O3 0.000000 0.250000 0.810389
O O4 0.731491 0.934811 0.092134
O O5 0.680060 0.864766 0.179613
O O6 0.633792 0.065844 0.154273
O O7 0.769514 0.044120 0.177120
O O8 0.863548 0.574772 0.061392
O O9 0.894211 0.417075 0.138362
O O10 0.000000 0.547101 0.097466
O O11 0.224939 0.250000 0.967814
O O12 0.234480 0.500000 0.000000
O O13 0.500000 0.560950 0.802175
O O14 0.420346 0.750000 0.797403
O O15 0.382659 0.567953 0.742829
O O16 0.750000 0.250000 0.750000
O O17 0.668976 0.250000 0.305862
#
# Coordination Sequence:
#
# PCOD9537334 Si02
#       7
#     8  16  16  16  16   8  16
#     4  10  20  34  56  86 122 158 184 214 282 362
#     4  11  22  37  57  81 116 152 199 245 301 353
#     4  10  20  36  58  84 120 158 193 235 291 353
#     4  11  24  43  63  85 113 153 206 266 319 361
#     4  10  20  34  54  84 123 160 192 232 286 357
#     4  12  20  30  54  84 114 150 188 230 282 350
#     4  10  20  33  52  82 122 164 199 231 277 354
#
# _framework density 18.061292999999999
#
# number of rings (size 3 to 8) (size 9 to 14) (size 15 to 20)
#    0.000    1.500    1.667    5.500    0.000    8.000 
#    0.000    0.000    0.000    0.500    0.000    0.000 
#    0.000    0.000    0.000    0.000    0.000    0.000 
#
# Total GULP energy -267685.457775 kJ/mol
# GULP energy per Si atom -5576.780370 kJ/mol
# Density = 1.802018 g / cm^3
# Si number density = 18.061293 Si / 1000 Ang^3
#
#
#
# Elastic Constant Matrix: (Units=GPa)
#
#
# Indices 1 2 3 4 5 6 
#
# 1 88.6498 30.6560 31.2789 0.0000 0.0000 0.0000
# 2 30.6560 81.4990 35.8246 0.0000 0.0000 0.0000
# 3 31.2789 35.8246 72.0345 0.0000 0.0000 0.0000
# 4 0.0000 0.0000 0.0000 -9.9046 0.0000 0.0000
# 5 0.0000 0.0000 0.0000 0.0000 20.2331 0.0000
# 6 0.0000 0.0000 0.0000 0.0000 0.0000 21.1797
#
#
#
# Elastic Compliance Matrix: (Units=1/GPa)
#
#
# Indices 1 2 3 4 5 6 
#
# 1 0.013988 -0.003317 -0.004425 0.000000 0.000000 0.000000
# 2 -0.003317 0.016489 -0.006760 0.000000 0.000000 0.000000
# 3 -0.004425 -0.006760 0.019166 0.000000 0.000000 0.000000
# 4 0.000000 0.000000 0.000000 -0.100964 0.000000 0.000000
# 5 0.000000 0.000000 0.000000 0.000000 0.049424 0.000000
# 6 0.000000 0.000000 0.000000 0.000000 0.000000 0.047215
#
#
# Mechanical properties :
#
#
# Convention : Reuss Voigt Hill
#
# Bulk Modulus (GPa) = 48.44979 48.63359 48.54169
# Shear Modulus (GPa) = 61.57472 15.92991 38.75232
#
# Velocity S-wave (km/s) = 5.84518 2.97306 4.63709
# Velocity P-wave (km/s) = 8.51107 6.22662 7.45685
#
# Compressibility (1/GPa) = 0.02063992
#
# Stress axis : x y z
#
# Youngs Moduli (GPa) = 71.48738 60.64507 52.17695
#
# Poissons Ratio (x) = 0.20115 0.23086
# Poissons Ratio (y) = 0.23712 0.35273
# Poissons Ratio (z) = 0.31630 0.40998
#
# Static dielectric constant tensor:
#      x y z
#    x 1.632300 0.000000 0.000000 
#    y 0.000000 1.753900 0.000000 
#    z 0.000000 0.000000 1.585740 
# 
# From -- ./inp_files/60820.got.cif
#   From: 2010.05.17/outbox.cif.g08.bks.cpg/sg74_31_cif.got.tgz:60820.got - 2010.06.03 17:57:02.
