data_PCOD9537289
_publ_section_title
;
Structure prediction by ZEFSAII (Michael W. Deem and Ramdas Pophale) SiO2 
 PCOD9537289
Probable space group: I M M A
;
_chemical_formula_sum "Si O2"
_cell_formula_units_Z 60
_cell_length_a 7.555594
_cell_length_b 15.330498
_cell_length_c 21.008198
_cell_angle_alpha 90.000000
_cell_angle_beta 90.000000
_cell_angle_gamma 90.000000
_cell_volume 2433.400976
_symmetry_space_group_name_H-M "I M M A"
_symmetry_group_IT_number 74
_symmetry_cell_setting 'orthorhombic'
loop_
_space_group_symop_operation_xyz
x,y,z
-x,1/2-y,z
x,-y,-z
-x,1/2+y,-z
-x,-y,-z
x,1/2+y,-z
-x,y,z
x,1/2-y,z
1/2+x,1/2+y,1/2+z
1/2-x,-y,1/2+z
1/2+x,1/2-y,1/2-z
1/2-x,y,1/2-z
1/2-x,1/2-y,1/2-z
1/2+x,y,1/2-z
1/2-x,1/2+y,1/2+z
1/2+x,-y,1/2+z
loop_
_atom_site_type_symbol
_atom_site_label
_atom_site_fract_x
_atom_site_fract_y
_atom_site_fract_z
Si Si1 0.205404 0.931807 0.875504
Si Si2 0.212700 0.152191 0.500660
Si Si3 0.211809 0.250000 0.176113
Si Si4 0.500000 0.250000 0.696670
Si Si5 0.202623 0.122073 0.648853
O O1 0.218705 0.919758 0.951764
O O2 0.283481 0.840465 0.851319
O O3 0.000000 0.937342 0.857764
O O4 0.292691 0.017632 0.847242
O O5 0.274825 0.250000 0.482275
O O6 0.255543 0.139641 0.574735
O O7 0.000000 0.149947 0.496922
O O8 0.250000 0.250000 0.250000
O O9 0.000000 0.250000 0.163985
O O10 0.344715 0.173980 0.689280
O O11 0.000000 0.151911 0.659453
#
# Coordination Sequence:
#
# PCOD9537289 Si02
#       5
#    16  16   8   4  16
#     4  11  22  37  58  87 119 161 209 257 311 377
#     4  10  20  33  51  80 122 167 209 252 298 367
#     4  10  24  43  64  92 127 158 208 265 317 381
#     4  12  22  38  58  84 120 164 206 256 300 342
#     4  11  23  38  57  86 125 167 215 250 302 371
#
# _framework density 24.656848
#
# number of rings (size 3 to 8) (size 9 to 14) (size 15 to 20)
#    0.000    1.333    4.000    2.000    1.867    5.333 
#    0.000    0.000    0.000    0.000    0.000    0.933 
#    0.000    0.000    0.000    0.000    0.000    0.000 
#
# Total GULP energy -167479.087097 kJ/mol
# GULP energy per Si atom -5582.636237 kJ/mol
# Density = 2.460073 g / cm^3
# Si number density = 24.656848 Si / 1000 Ang^3
#
#
#
# Elastic Constant Matrix: (Units=GPa)
#
#
# Indices 1 2 3 4 5 6 
#
# 1 130.6782 50.0061 22.6982 0.0000 0.0000 0.0000
# 2 50.0061 208.2889 26.3142 0.0000 0.0000 0.0000
# 3 22.6982 26.3142 71.7418 0.0000 0.0000 0.0000
# 4 0.0000 0.0000 0.0000 19.1309 0.0000 0.0000
# 5 0.0000 0.0000 0.0000 0.0000 0.5564 0.0000
# 6 0.0000 0.0000 0.0000 0.0000 0.0000 14.2820
#
#
#
# Elastic Compliance Matrix: (Units=1/GPa)
#
#
# Indices 1 2 3 4 5 6 
#
# 1 0.008715 -0.001829 -0.002086 0.000000 0.000000 0.000000
# 2 -0.001829 0.005418 -0.001409 0.000000 0.000000 0.000000
# 3 -0.002086 -0.001409 0.015116 0.000000 0.000000 0.000000
# 4 0.000000 0.000000 0.000000 0.052272 0.000000 0.000000
# 5 0.000000 0.000000 0.000000 0.000000 1.797337 0.000000
# 6 0.000000 0.000000 0.000000 0.000000 0.000000 0.070018
#
#
# Mechanical properties :
#
#
# Convention : Reuss Voigt Hill
#
# Bulk Modulus (GPa) = 53.76145 67.63843 60.69994
# Shear Modulus (GPa) = 2.54359 27.57322 15.05841
#
# Velocity S-wave (km/s) = 1.01678 3.34769 2.47395
# Velocity P-wave (km/s) = 4.81971 6.51415 5.72991
#
# Compressibility (1/GPa) = 0.01860069
#
# Stress axis : x y z
#
# Youngs Moduli (GPa) = 114.75084 184.56978 66.15636
#
# Poissons Ratio (x) = 0.33750 0.13803
# Poissons Ratio (y) = 0.20983 0.09320
# Poissons Ratio (z) = 0.23942 0.26001
#
# Static dielectric constant tensor:
#      x y z
#    x 1.892520 0.000000 0.000000 
#    y 0.000000 1.962690 0.000000 
#    z 0.000000 0.000000 2.040390 
# 
# From -- ./inp_files/56324.got.cif
#   From: 2010.05.17/outbox.cif.g08.bks.cpg/sg74_29_cif.got.tgz:56324.got - 2010.06.03 17:57:02.
