data_PCOD9537426
_publ_section_title
;
Structure prediction by ZEFSAII (Michael W. Deem and Ramdas Pophale) SiO2 
 PCOD9537426
Probable space group: I M M A
;
_chemical_formula_sum "Si O2"
_cell_formula_units_Z 104
_cell_length_a 27.129611
_cell_length_b 7.450448
_cell_length_c 19.879223
_cell_angle_alpha 90.000000
_cell_angle_beta 90.000000
_cell_angle_gamma 90.000000
_cell_volume 4018.142736
_symmetry_space_group_name_H-M "I M M A"
_symmetry_group_IT_number 74
_symmetry_cell_setting 'orthorhombic'
loop_
_space_group_symop_operation_xyz
x,y,z
-x,1/2-y,z
x,-y,-z
-x,1/2+y,-z
-x,-y,-z
x,1/2+y,-z
-x,y,z
x,1/2-y,z
1/2+x,1/2+y,1/2+z
1/2-x,-y,1/2+z
1/2+x,1/2-y,1/2-z
1/2-x,y,1/2-z
1/2-x,1/2-y,1/2-z
1/2+x,y,1/2-z
1/2-x,1/2+y,1/2+z
1/2+x,-y,1/2+z
loop_
_atom_site_type_symbol
_atom_site_label
_atom_site_fract_x
_atom_site_fract_y
_atom_site_fract_z
Si Si1 0.663915 0.465062 0.759431
Si Si2 0.188737 0.952939 0.591621
Si Si3 0.500000 0.965210 0.580867
Si Si4 0.208196 0.464181 0.121278
Si Si5 0.053781 0.540852 0.274914
Si Si6 0.581248 0.963889 0.926977
Si Si7 0.896578 0.035860 0.078789
O O1 0.662191 0.250000 0.768855
O O2 0.681591 0.552518 0.828077
O O3 0.702106 0.507235 0.700676
O O4 0.606890 0.528831 0.747610
O O5 0.190236 0.750000 0.564102
O O6 0.242864 0.037471 0.585460
O O7 0.137380 0.039195 0.569302
O O8 0.500000 0.750000 0.588407
O O9 0.551910 0.034493 0.608860
O O10 0.500000 0.000000 0.500000
O O11 0.209373 0.250000 0.109124
O O12 0.155931 0.541442 0.098179
O O13 0.052560 0.750000 0.257499
O O14 0.058245 0.530268 0.357027
O O15 0.000000 0.461194 0.256274
O O16 0.583887 0.750000 0.918696
O O17 0.557910 0.000000 0.000000
O O18 0.895020 0.250000 0.090937
O O19 0.900513 0.000000 0.000000
#
# Coordination Sequence:
#
# PCOD9537426 Si02
#       7
#    16  16   8  16  16  16  16
#     4  10  20  34  53  77 101 128 168 213 254 298
#     4   9  19  35  53  71  99 138 172 204 249 302
#     4   8  14  28  48  66  88 120 156 192 231 276
#     4  10  20  34  51  74 103 135 168 205 252 305
#     4   9  19  37  57  75 102 138 172 212 261 307
#     4  10  20  34  53  78 106 137 175 214 255 306
#     4   9  18  32  50  71  97 128 163 202 245 291
#
# _framework density 25.882603
#
# number of rings (size 3 to 8) (size 9 to 14) (size 15 to 20)
#    0.000    2.615    0.000    1.385    0.000    5.538 
#    1.385    0.000    0.000    0.000    0.000    0.000 
#    0.000    0.000    0.000    0.000    0.000    0.000 
#
# Total GULP energy -290334.840866 kJ/mol
# GULP energy per Si atom -5583.362324 kJ/mol
# Density = 2.582369 g / cm^3
# Si number density = 25.882603 Si / 1000 Ang^3
#
#
#
# Elastic Constant Matrix: (Units=GPa)
#
#
# Indices 1 2 3 4 5 6 
#
# 1 199.3540 15.3025 10.8375 0.0000 0.0000 0.0000
# 2 15.3025 108.4038 -9.0598 0.0000 0.0000 0.0000
# 3 10.8375 -9.0598 58.3202 0.0000 0.0000 0.0000
# 4 0.0000 0.0000 0.0000 14.2720 0.0000 0.0000
# 5 0.0000 0.0000 0.0000 0.0000 12.9280 0.0000
# 6 0.0000 0.0000 0.0000 0.0000 0.0000 10.0579
#
#
#
# Elastic Compliance Matrix: (Units=1/GPa)
#
#
# Indices 1 2 3 4 5 6 
#
# 1 0.005138 -0.000816 -0.001081 0.000000 0.000000 0.000000
# 2 -0.000816 0.009476 0.001624 0.000000 0.000000 0.000000
# 3 -0.001081 0.001624 0.017600 0.000000 0.000000 0.000000
# 4 0.000000 0.000000 0.000000 0.070067 0.000000 0.000000
# 5 0.000000 0.000000 0.000000 0.000000 0.077352 0.000000
# 6 0.000000 0.000000 0.000000 0.000000 0.000000 0.099425
#
#
# Mechanical properties :
#
#
# Convention : Reuss Voigt Hill
#
# Bulk Modulus (GPa) = 31.57947 44.47093 38.02520
# Shear Modulus (GPa) = 17.23194 30.71809 23.97501
#
# Velocity S-wave (km/s) = 2.58306 3.44877 3.04682
# Velocity P-wave (km/s) = 4.59606 5.75133 5.20584
#
# Compressibility (1/GPa) = 0.03166614
#
# Stress axis : x y z
#
# Youngs Moduli (GPa) = 194.64347 105.53434 56.81852
#
# Poissons Ratio (x) = 0.08607 0.06144
# Poissons Ratio (y) = 0.15875 -0.09225
# Poissons Ratio (z) = 0.21049 -0.17134
#
# Static dielectric constant tensor:
#      x y z
#    x 2.132750 0.000000 0.000000 
#    y 0.000000 1.937950 0.000000 
#    z 0.000000 0.000000 2.063470 
# 
# From -- ./inp_files/62324.got.cif
#   From: 2010.05.17/outbox.cif.g08.bks.cpg/sg74_32_cif.got.tgz:62324.got - 2010.06.03 17:57:02.
