data_PCOD9537922
_publ_section_title
;
Structure prediction by ZEFSAII (Michael W. Deem and Ramdas Pophale) SiO2 
 PCOD9537922
Probable space group: I M M A
;
_chemical_formula_sum "Si O2"
_cell_formula_units_Z 116
_cell_length_a 7.696732
_cell_length_b 27.625881
_cell_length_c 27.774908
_cell_angle_alpha 90.000000
_cell_angle_beta 90.000000
_cell_angle_gamma 90.000000
_cell_volume 5905.750978
_symmetry_space_group_name_H-M "I M M A"
_symmetry_group_IT_number 74
_symmetry_cell_setting 'orthorhombic'
loop_
_space_group_symop_operation_xyz
x,y,z
-x,1/2-y,z
x,-y,-z
-x,1/2+y,-z
-x,-y,-z
x,1/2+y,-z
-x,y,z
x,1/2-y,z
1/2+x,1/2+y,1/2+z
1/2-x,-y,1/2+z
1/2+x,1/2-y,1/2-z
1/2-x,y,1/2-z
1/2-x,1/2-y,1/2-z
1/2+x,y,1/2-z
1/2-x,1/2+y,1/2+z
1/2+x,-y,1/2+z
loop_
_atom_site_type_symbol
_atom_site_label
_atom_site_fract_x
_atom_site_fract_y
_atom_site_fract_z
Si Si1 0.789701 0.401785 0.610524
Si Si2 0.212412 0.695894 0.433080
Si Si3 0.000000 0.250000 0.336299
Si Si4 0.190943 0.824819 0.858102
Si Si5 0.797411 0.154632 0.463930
Si Si6 0.791176 0.029965 0.694584
Si Si7 0.792312 0.079045 0.305992
Si Si8 0.705886 0.554462 0.493025
O O1 0.730594 0.346511 0.602897
O O2 0.724868 0.430482 0.656966
O O3 0.739297 0.429677 0.561839
O O4 0.000000 0.400864 0.612330
O O5 0.270252 0.750000 0.421811
O O6 0.265981 0.680109 0.487024
O O7 0.000000 0.695677 0.433469
O O8 0.153441 0.207986 0.338793
O O9 0.204877 0.827924 0.915972
O O10 0.213155 0.879150 0.838269
O O11 0.000000 0.807158 0.843940
O O12 0.782871 0.097051 0.473716
O O13 0.000000 0.167183 0.457767
O O14 0.750000 0.040838 0.750000
O O15 0.000000 0.028615 0.690435
O O16 0.728293 0.975480 0.683218
O O17 0.750000 0.088373 0.250000
O O18 0.000000 0.079989 0.312292
O O19 0.773658 0.500000 0.500000
O O20 0.500000 0.554197 0.502373
#
# Coordination Sequence:
#
# PCOD9537922 Si02
#       8
#    16  16   4  16  16  16  16  16
#     4   9  18  33  51  78 110 144 190 237 289 356
#     4   8  15  28  52  78 106 148 194 242 289 334
#     4  12  26  48  62  90 120 152 200 248 308 346
#     4  12  25  42  66  90 118 154 197 248 302 360
#     4  10  20  35  56  81 114 152 197 246 295 348
#     4   9  19  34  57  86 114 148 189 234 294 356
#     4  10  20  39  62  87 116 147 188 240 295 362
#     4  10  21  34  48  76 114 151 193 236 287 356
#
# _framework density 19.641870999999998
#
# number of rings (size 3 to 8) (size 9 to 14) (size 15 to 20)
#    0.000    2.207    1.379    2.276    2.897    2.207 
#    0.000    0.345    0.000    4.138    0.000    0.000 
#    0.000    0.000    0.000    0.000    0.000    0.000 
#
# Total GULP energy -323304.008595 kJ/mol
# GULP energy per Si atom -5574.207045 kJ/mol
# Density = 1.959716 g / cm^3
# Si number density = 19.641871 Si / 1000 Ang^3
#
#
#
# Elastic Constant Matrix: (Units=GPa)
#
#
# Indices 1 2 3 4 5 6 
#
# 1 85.0585 15.8966 6.8702 0.0000 0.0000 0.0000
# 2 15.8966 138.4464 47.1670 0.0000 0.0000 0.0000
# 3 6.8702 47.1670 42.4777 0.0000 0.0000 0.0000
# 4 0.0000 0.0000 0.0000 4.7094 0.0000 0.0000
# 5 0.0000 0.0000 0.0000 0.0000 20.5511 0.0000
# 6 0.0000 0.0000 0.0000 0.0000 0.0000 -17.5468
#
#
#
# Elastic Compliance Matrix: (Units=1/GPa)
#
#
# Indices 1 2 3 4 5 6 
#
# 1 0.012026 -0.001155 -0.000662 0.000000 0.000000 0.000000
# 2 -0.001155 0.011729 -0.012837 0.000000 0.000000 0.000000
# 3 -0.000662 -0.012837 0.037903 0.000000 0.000000 0.000000
# 4 0.000000 0.000000 0.000000 0.212342 0.000000 0.000000
# 5 0.000000 0.000000 0.000000 0.000000 0.048659 0.000000
# 6 0.000000 0.000000 0.000000 0.000000 0.000000 -0.056990
#
#
# Mechanical properties :
#
#
# Convention : Reuss Voigt Hill
#
# Bulk Modulus (GPa) = 30.91284 45.09446 38.00365
# Shear Modulus (GPa) = 16.35265 14.61266 15.48265
#
# Velocity S-wave (km/s) = 2.88851 2.73051 2.81062
# Velocity P-wave (km/s) = 5.18624 5.74013 5.47020
#
# Compressibility (1/GPa) = 0.03234901
#
# Stress axis : x y z
#
# Youngs Moduli (GPa) = 83.15309 85.25806 26.38303
#
# Poissons Ratio (x) = 0.09849 0.01747
# Poissons Ratio (y) = 0.09606 0.33868
# Poissons Ratio (z) = 0.05508 1.09447
#
# Static dielectric constant tensor:
#      x y z
#    x 1.736660 0.000000 0.000000 
#    y 0.000000 1.702210 0.000000 
#    z 0.000000 0.000000 1.655000 
# 
# From -- ./inp_files/71038.got.cif
#   From: 2010.05.17/outbox.cif.g08.bks.cpg/sg74_36_cif.got.tgz:71038.got - 2010.06.03 17:57:02.
