data_PCOD9537248
_publ_section_title
;
Structure prediction by ZEFSAII (Michael W. Deem and Ramdas Pophale) SiO2 
 PCOD9537248
Probable space group: I M M A
;
_chemical_formula_sum "Si O2"
_cell_formula_units_Z 104
_cell_length_a 21.053741
_cell_length_b 8.125228
_cell_length_c 33.198188
_cell_angle_alpha 90.000000
_cell_angle_beta 90.000000
_cell_angle_gamma 90.000000
_cell_volume 5679.096031
_symmetry_space_group_name_H-M "I M M A"
_symmetry_group_IT_number 74
_symmetry_cell_setting 'orthorhombic'
loop_
_space_group_symop_operation_xyz
x,y,z
-x,1/2-y,z
x,-y,-z
-x,1/2+y,-z
-x,-y,-z
x,1/2+y,-z
-x,y,z
x,1/2-y,z
1/2+x,1/2+y,1/2+z
1/2-x,-y,1/2+z
1/2+x,1/2-y,1/2-z
1/2-x,y,1/2-z
1/2-x,1/2-y,1/2-z
1/2+x,y,1/2-z
1/2-x,1/2+y,1/2+z
1/2+x,-y,1/2+z
loop_
_atom_site_type_symbol
_atom_site_label
_atom_site_fract_x
_atom_site_fract_y
_atom_site_fract_z
Si Si1 0.760916 0.947261 0.955703
Si Si2 0.500000 0.553622 0.046073
Si Si3 0.928399 0.448275 0.726829
Si Si4 0.631397 0.554936 0.916867
Si Si5 0.190500 0.446852 0.130313
Si Si6 0.428699 0.949460 0.680764
Si Si7 0.679234 0.441045 0.833090
O O1 0.764540 0.750000 0.954979
O O2 0.687197 0.993953 0.947931
O O3 0.796483 0.009708 0.915237
O O4 0.782406 0.000000 0.000000
O O5 0.500000 0.750000 0.049380
O O6 0.562835 0.482531 0.066280
O O7 0.500000 0.500000 0.000000
O O8 0.929111 0.250000 0.722356
O O9 0.918819 0.491456 0.773531
O O10 0.869415 0.511319 0.700180
O O11 0.000000 0.507251 0.715271
O O12 0.639002 0.750000 0.908816
O O13 0.643277 0.459867 0.875544
O O14 0.184532 0.250000 0.126985
O O15 0.126997 0.510511 0.151610
O O16 0.252158 0.480180 0.158125
O O17 0.500000 0.999930 0.668398
O O18 0.426950 0.750000 0.681175
O O19 0.690614 0.250000 0.823624
#
# Coordination Sequence:
#
# PCOD9537248 Si02
#       7
#    16   8  16  16  16  16  16
#     4   9  18  32  51  72  97 127 161 202 250 302
#     4  12  24  36  50  70  98 134 178 224 270 318
#     4   9  19  34  50  71 103 138 170 210 258 302
#     4  10  21  36  51  71  99 133 173 219 267 308
#     4   9  19  35  52  74 105 133 163 212 262 304
#     4   9  18  34  56  78  98 129 173 211 251 308
#     4  10  20  33  51  75 102 136 175 212 256 311
#
# _framework density 18.312774000000001
#
# number of rings (size 3 to 8) (size 9 to 14) (size 15 to 20)
#    0.000    2.462    0.000    3.000    1.077    6.769 
#    0.000    3.077    0.000    0.462    0.000    0.000 
#    0.000    0.000    0.000    0.000    0.000    0.308 
#
# Total GULP energy -289909.490443 kJ/mol
# GULP energy per Si atom -5575.182509 kJ/mol
# Density = 1.827109 g / cm^3
# Si number density = 18.312774 Si / 1000 Ang^3
#
#
#
# Elastic Constant Matrix: (Units=GPa)
#
#
# Indices 1 2 3 4 5 6 
#
# 1 140.4131 -1.8725 91.3212 0.0000 0.0000 0.0000
# 2 -1.8725 11.3316 1.1573 0.0000 0.0000 0.0000
# 3 91.3212 1.1573 101.6364 0.0000 0.0000 0.0000
# 4 0.0000 0.0000 0.0000 25.2877 0.0000 0.0000
# 5 0.0000 0.0000 0.0000 0.0000 23.4831 0.0000
# 6 0.0000 0.0000 0.0000 0.0000 0.0000 15.8948
#
#
#
# Elastic Compliance Matrix: (Units=1/GPa)
#
#
# Indices 1 2 3 4 5 6 
#
# 1 0.017358 0.004466 -0.015647 0.000000 0.000000 0.000000
# 2 0.004466 0.089501 -0.005032 0.000000 0.000000 0.000000
# 3 -0.015647 -0.005032 0.023955 0.000000 0.000000 0.000000
# 4 0.000000 0.000000 0.000000 0.039545 0.000000 0.000000
# 5 0.000000 0.000000 0.000000 0.000000 0.042584 0.000000
# 6 0.000000 0.000000 0.000000 0.000000 0.000000 0.062914
#
#
# Mechanical properties :
#
#
# Convention : Reuss Voigt Hill
#
# Bulk Modulus (GPa) = 10.16383 48.28812 29.22598
# Shear Modulus (GPa) = 14.65940 23.78479 19.22209
#
# Velocity S-wave (km/s) = 2.83238 3.60781 3.24335
# Velocity P-wave (km/s) = 4.03221 6.61671 5.47903
#
# Compressibility (1/GPa) = 0.09838812
#
# Stress axis : x y z
#
# Youngs Moduli (GPa) = 57.61074 11.17310 41.74436
#
# Poissons Ratio (x) = -0.04990 0.65318
# Poissons Ratio (y) = -0.25730 0.21006
# Poissons Ratio (z) = 0.90144 0.05622
#
# Static dielectric constant tensor:
#      x y z
#    x 1.635740 0.000000 0.000000 
#    y 0.000000 1.656970 0.000000 
#    z 0.000000 0.000000 1.617620 
# 
# From -- ./inp_files/73432.got.cif
#   From: 2010.05.17/outbox.cif.g08.bks.cpg/sg74_37_cif.got.tgz:73432.got - 2010.06.03 17:57:02.
