data_PCOD9537749
_publ_section_title
;
Structure prediction by ZEFSAII (Michael W. Deem and Ramdas Pophale) SiO2 
 PCOD9537749
Probable space group: I M M A
;
_chemical_formula_sum "Si O2"
_cell_formula_units_Z 116
_cell_length_a 24.722339
_cell_length_b 27.792708
_cell_length_c 9.319612
_cell_angle_alpha 90.000000
_cell_angle_beta 90.000000
_cell_angle_gamma 90.000000
_cell_volume 6403.512385
_symmetry_space_group_name_H-M "I M M A"
_symmetry_group_IT_number 74
_symmetry_cell_setting 'orthorhombic'
loop_
_space_group_symop_operation_xyz
x,y,z
-x,1/2-y,z
x,-y,-z
-x,1/2+y,-z
-x,-y,-z
x,1/2+y,-z
-x,y,z
x,1/2-y,z
1/2+x,1/2+y,1/2+z
1/2-x,-y,1/2+z
1/2+x,1/2-y,1/2-z
1/2-x,y,1/2-z
1/2-x,1/2-y,1/2-z
1/2+x,y,1/2-z
1/2-x,1/2+y,1/2+z
1/2+x,-y,1/2+z
loop_
_atom_site_type_symbol
_atom_site_label
_atom_site_fract_x
_atom_site_fract_y
_atom_site_fract_z
Si Si1 0.062718 0.081393 0.838200
Si Si2 0.136737 0.106925 0.351672
Si Si3 0.937095 0.015174 0.333359
Si Si4 0.690045 0.193858 0.695556
Si Si5 0.658484 0.115109 0.467038
Si Si6 0.759374 0.049484 0.419055
Si Si7 0.000000 0.750000 0.401114
Si Si8 0.409735 0.335103 0.889364
O O1 0.069311 0.122207 0.715468
O O2 0.000000 0.079882 0.883433
O O3 0.077026 0.030278 0.765944
O O4 0.103250 0.094327 0.965941
O O5 0.100929 0.060476 0.311906
O O6 0.152720 0.129297 0.199194
O O7 0.190348 0.086185 0.428814
O O8 0.104221 0.141489 0.457353
O O9 0.000000 0.027317 0.307535
O O10 0.932157 0.000000 0.500000
O O11 0.688387 0.250000 0.657035
O O12 0.750000 0.182051 0.750000
O O13 0.675152 0.160333 0.562527
O O14 0.645686 0.183723 0.817916
O O15 0.705368 0.074969 0.476647
O O16 0.750000 0.039834 0.250000
O O17 0.771029 0.000000 0.500000
O O18 0.952794 0.792491 0.398590
#
# Coordination Sequence:
#
# PCOD9537749 Si02
#       8
#    16  16  16  16  16  16   4  16
#     4  10  21  38  61  87 117 163 209 254 301 358
#     4  11  23  39  60  90 127 161 198 248 313 371
#     4  10  20  34  59  89 116 158 209 250 289 357
#     4  10  21  42  68  92 113 154 212 262 310 368
#     4  10  24  40  60  89 128 160 202 256 317 366
#     4  10  23  38  60  89 126 164 201 247 303 367
#     4  12  24  40  62  96 122 156 212 264 312 362
#     4  11  22  39  66  88 123 155 204 258 308 367
#
# _framework density 18.115058000000001
#
# number of rings (size 3 to 8) (size 9 to 14) (size 15 to 20)
#    0.000    1.655    2.759    1.241    4.828    2.207 
#    1.241    1.379    0.000    6.207    0.000    0.000 
#    0.000    0.000    0.000    0.000    0.000    0.000 
#
# Total GULP energy -323497.046278 kJ/mol
# GULP energy per Si atom -5577.535281 kJ/mol
# Density = 1.807383 g / cm^3
# Si number density = 18.115058 Si / 1000 Ang^3
#
#
#
# Elastic Constant Matrix: (Units=GPa)
#
#
# Indices 1 2 3 4 5 6 
#
# 1 125.5222 65.3788 49.3081 0.0000 0.0000 0.0000
# 2 65.3788 96.5081 51.5075 0.0000 0.0000 0.0000
# 3 49.3081 51.5075 69.1109 0.0000 0.0000 0.0000
# 4 0.0000 0.0000 0.0000 12.3495 0.0000 0.0000
# 5 0.0000 0.0000 0.0000 0.0000 15.6572 0.0000
# 6 0.0000 0.0000 0.0000 0.0000 0.0000 37.3360
#
#
#
# Elastic Compliance Matrix: (Units=1/GPa)
#
#
# Indices 1 2 3 4 5 6 
#
# 1 0.013117 -0.006461 -0.004543 0.000000 0.000000 0.000000
# 2 -0.006461 0.020389 -0.010585 0.000000 0.000000 0.000000
# 3 -0.004543 -0.010585 0.025600 0.000000 0.000000 0.000000
# 4 0.000000 0.000000 0.000000 0.080975 0.000000 0.000000
# 5 0.000000 0.000000 0.000000 0.000000 0.063869 0.000000
# 6 0.000000 0.000000 0.000000 0.000000 0.000000 0.026784
#
#
# Mechanical properties :
#
#
# Convention : Reuss Voigt Hill
#
# Bulk Modulus (GPa) = 62.79023 69.28111 66.03567
# Shear Modulus (GPa) = 17.90703 21.39831 19.65267
#
# Velocity S-wave (km/s) = 3.14748 3.44065 3.29733
# Velocity P-wave (km/s) = 6.92430 7.35610 7.14346
#
# Compressibility (1/GPa) = 0.01592604
#
# Stress axis : x y z
#
# Youngs Moduli (GPa) = 76.23940 49.04710 39.06288
#
# Poissons Ratio (x) = 0.31691 0.17745
# Poissons Ratio (y) = 0.49260 0.41350
# Poissons Ratio (z) = 0.34633 0.51919
#
# Static dielectric constant tensor:
#      x y z
#    x 1.626170 0.000000 0.000000 
#    y 0.000000 1.590600 0.000000 
#    z 0.000000 0.000000 1.614370 
# 
# From -- ./inp_files/14191.got.cif
#   From: 2010.05.17/outbox.cif.g08.bks.cpg/sg74_8_cif.got.tgz:14191.got - 2010.06.03 17:57:02.
