data_PCOD9537469
_publ_section_title
;
Structure prediction by ZEFSAII (Michael W. Deem and Ramdas Pophale) SiO2 
 PCOD9537469
Probable space group: I M M A
;
_chemical_formula_sum "Si O2"
_cell_formula_units_Z 104
_cell_length_a 9.278305
_cell_length_b 21.407123
_cell_length_c 27.513903
_cell_angle_alpha 90.000000
_cell_angle_beta 90.000000
_cell_angle_gamma 90.000000
_cell_volume 5464.861389
_symmetry_space_group_name_H-M "I M M A"
_symmetry_group_IT_number 74
_symmetry_cell_setting 'orthorhombic'
loop_
_space_group_symop_operation_xyz
x,y,z
-x,1/2-y,z
x,-y,-z
-x,1/2+y,-z
-x,-y,-z
x,1/2+y,-z
-x,y,z
x,1/2-y,z
1/2+x,1/2+y,1/2+z
1/2-x,-y,1/2+z
1/2+x,1/2-y,1/2-z
1/2-x,y,1/2-z
1/2-x,1/2-y,1/2-z
1/2+x,y,1/2-z
1/2-x,1/2+y,1/2+z
1/2+x,-y,1/2+z
loop_
_atom_site_type_symbol
_atom_site_label
_atom_site_fract_x
_atom_site_fract_y
_atom_site_fract_z
Si Si1 0.168918 0.321994 0.357236
Si Si2 0.830307 0.651660 0.130355
Si Si3 0.331417 0.911332 0.951155
Si Si4 0.330966 0.818846 0.482005
Si Si5 0.832552 0.080167 0.202472
Si Si6 0.326345 0.250000 0.802466
Si Si7 0.668769 0.509699 0.390702
O O1 0.208842 0.250000 0.364665
O O2 0.185348 0.362017 0.406493
O O3 0.262525 0.355669 0.316329
O O4 0.000000 0.325067 0.343911
O O5 0.820953 0.679457 0.076173
O O6 0.732524 0.690340 0.167252
O O7 0.787261 0.579490 0.123561
O O8 0.000000 0.654752 0.145281
O O9 0.500000 0.920894 0.960362
O O10 0.257858 0.975012 0.932688
O O11 0.254381 0.876484 0.995407
O O12 0.500000 0.824864 0.494971
O O13 0.279851 0.750000 0.498939
O O14 0.750000 0.057562 0.250000
O O15 0.818270 0.032187 0.157752
O O16 0.000000 0.088355 0.213340
O O17 0.500000 0.250000 0.798822
O O18 0.250000 0.250000 0.750000
O O19 0.500000 0.511849 0.405029
#
# Coordination Sequence:
#
# PCOD9537469 Si02
#       7
#    16  16  16  16  16   8  16
#     4   9  18  33  51  72 102 142 186 231 279 327
#     4  10  21  42  66  89 119 153 194 241 293 350
#     4  10  20  34  54  82 118 156 194 239 287 342
#     4  10  20  35  58  85 116 156 198 240 289 350
#     4  10  20  34  52  76 103 136 179 227 283 338
#     4  12  26  44  68  96 126 158 196 246 303 366
#     4   9  20  38  60  83 112 151 194 241 289 348
#
# _framework density 19.030676
#
# number of rings (size 3 to 8) (size 9 to 14) (size 15 to 20)
#    0.000    2.154    0.769    2.077    0.000    5.231 
#    0.000    4.615    0.000    0.000    0.000    0.000 
#    0.000    0.000    0.000    0.000    0.000    0.000 
#
# Total GULP energy -290336.429533 kJ/mol
# GULP energy per Si atom -5583.392876 kJ/mol
# Density = 1.898736 g / cm^3
# Si number density = 19.030676 Si / 1000 Ang^3
#
#
#
# Elastic Constant Matrix: (Units=GPa)
#
#
# Indices 1 2 3 4 5 6 
#
# 1 90.2231 62.0559 54.8434 0.0000 0.0000 0.0000
# 2 62.0559 146.1721 29.5572 0.0000 0.0000 0.0000
# 3 54.8434 29.5572 62.3035 0.0000 0.0000 0.0000
# 4 0.0000 0.0000 0.0000 1.4425 0.0000 0.0000
# 5 0.0000 0.0000 0.0000 0.0000 28.0804 0.0000
# 6 0.0000 0.0000 0.0000 0.0000 0.0000 26.5370
#
#
#
# Elastic Compliance Matrix: (Units=1/GPa)
#
#
# Indices 1 2 3 4 5 6 
#
# 1 0.031134 -0.008490 -0.023378 0.000000 0.000000 0.000000
# 2 -0.008490 0.009883 0.002785 0.000000 0.000000 0.000000
# 3 -0.023378 0.002785 0.035308 0.000000 0.000000 0.000000
# 4 0.000000 0.000000 0.000000 0.693251 0.000000 0.000000
# 5 0.000000 0.000000 0.000000 0.000000 0.035612 0.000000
# 6 0.000000 0.000000 0.000000 0.000000 0.000000 0.037683
#
#
# Mechanical properties :
#
#
# Convention : Reuss Voigt Hill
#
# Bulk Modulus (GPa) = 55.07154 65.73464 60.40309
# Shear Modulus (GPa) = 5.51213 21.36145 13.43679
#
# Velocity S-wave (km/s) = 1.70374 3.35397 2.66006
# Velocity P-wave (km/s) = 5.73336 7.04381 6.42210
#
# Compressibility (1/GPa) = 0.01815820
#
# Stress axis : x y z
#
# Youngs Moduli (GPa) = 32.11886 101.18858 28.32205
#
# Poissons Ratio (x) = 0.85914 0.66213
# Poissons Ratio (y) = 0.27270 -0.07889
# Poissons Ratio (z) = 0.75089 -0.28186
#
# Static dielectric constant tensor:
#      x y z
#    x 1.639620 0.000000 0.000000 
#    y 0.000000 1.671890 0.000000 
#    z 0.000000 0.000000 1.650610 
# 
# From -- ./inp_files/64441.got.cif
#   From: 2010.05.17/outbox.cif.g08.bks.cpg/sg74_33_cif.got.tgz:64441.got - 2010.06.03 17:57:02.
