data_PCOD9537579
_publ_section_title
;
Structure prediction by ZEFSAII (Michael W. Deem and Ramdas Pophale) SiO2 
 PCOD9537579
Probable space group: I M M A
;
_chemical_formula_sum "Si O2"
_cell_formula_units_Z 80
_cell_length_a 15.406252
_cell_length_b 9.385934
_cell_length_c 26.812202
_cell_angle_alpha 90.000000
_cell_angle_beta 90.000000
_cell_angle_gamma 90.000000
_cell_volume 3877.099762
_symmetry_space_group_name_H-M "I M M A"
_symmetry_group_IT_number 74
_symmetry_cell_setting 'orthorhombic'
loop_
_space_group_symop_operation_xyz
x,y,z
-x,1/2-y,z
x,-y,-z
-x,1/2+y,-z
-x,-y,-z
x,1/2+y,-z
-x,y,z
x,1/2-y,z
1/2+x,1/2+y,1/2+z
1/2-x,-y,1/2+z
1/2+x,1/2-y,1/2-z
1/2-x,y,1/2-z
1/2-x,1/2-y,1/2-z
1/2+x,y,1/2-z
1/2-x,1/2+y,1/2+z
1/2+x,-y,1/2+z
loop_
_atom_site_type_symbol
_atom_site_label
_atom_site_fract_x
_atom_site_fract_y
_atom_site_fract_z
Si Si1 0.603655 0.411363 0.842712
Si Si2 0.852916 0.589696 0.754224
Si Si3 0.606205 0.914539 0.549524
Si Si4 0.894604 0.417630 0.548060
Si Si5 0.395506 0.087372 0.646957
O O1 0.500000 0.399606 0.847773
O O2 0.636790 0.250000 0.833229
O O3 0.619099 0.513479 0.796565
O O4 0.636356 0.463630 0.896837
O O5 0.889014 0.750000 0.759320
O O6 0.750000 0.599679 0.750000
O O7 0.875070 0.494224 0.802020
O O8 0.500000 0.912941 0.549990
O O9 0.634622 0.750000 0.548900
O O10 0.632325 0.000000 0.500000
O O11 0.635144 0.997917 0.599074
O O12 0.860113 0.500000 0.500000
O O13 0.876600 0.250000 0.543684
O O14 0.000000 0.433970 0.547540
O O15 0.500000 0.094759 0.643241
O O16 0.362462 0.250000 0.646971
#
# Coordination Sequence:
#
# PCOD9537579 Si02
#       5
#    16  16  16  16  16
#     4   9  18  33  53  77 103 131 166 207 248 295
#     4  11  24  38  51  71 100 133 170 213 258 304
#     4   9  16  27  46  74 107 138 167 203 248 297
#     4   8  14  25  43  70 102 130 157 193 237 285
#     4  10  20  34  54  79 104 132 169 211 255 305
#
# _framework density 20.633980000000001
#
# number of rings (size 3 to 8) (size 9 to 14) (size 15 to 20)
#    0.000    2.600    0.000    3.600    0.000    8.800 
#    0.000    2.000    0.000    1.200    0.000    2.800 
#    0.000    0.000    0.000    0.000    0.000    0.000 
#
# Total GULP energy -223246.964075 kJ/mol
# GULP energy per Si atom -5581.174102 kJ/mol
# Density = 2.058702 g / cm^3
# Si number density = 20.633980 Si / 1000 Ang^3
#
#
#
# Elastic Constant Matrix: (Units=GPa)
#
#
# Indices 1 2 3 4 5 6 
#
# 1 27.2020 7.6049 3.9038 0.0000 0.0000 0.0000
# 2 7.6049 182.0248 139.9012 0.0000 0.0000 0.0000
# 3 3.9038 139.9012 242.1447 0.0000 0.0000 0.0000
# 4 0.0000 0.0000 0.0000 45.3042 0.0000 0.0000
# 5 0.0000 0.0000 0.0000 0.0000 -51.4781 0.0000
# 6 0.0000 0.0000 0.0000 0.0000 0.0000 -18.2552
#
#
#
# Elastic Compliance Matrix: (Units=1/GPa)
#
#
# Indices 1 2 3 4 5 6 
#
# 1 0.037235 -0.001968 0.000537 0.000000 0.000000 0.000000
# 2 -0.001968 0.009986 -0.005738 0.000000 0.000000 0.000000
# 3 0.000537 -0.005738 0.007436 0.000000 0.000000 0.000000
# 4 0.000000 0.000000 0.000000 0.022073 0.000000 0.000000
# 5 0.000000 0.000000 0.000000 0.000000 -0.019426 0.000000
# 6 0.000000 0.000000 0.000000 0.000000 0.000000 -0.054779
#
#
# Mechanical properties :
#
#
# Convention : Reuss Voigt Hill
#
# Bulk Modulus (GPa) = 24.80220 83.79904 54.30062
# Shear Modulus (GPa) = 164.99799 15.11163 90.05481
#
# Velocity S-wave (km/s) = 8.95197 2.70916 6.61352
# Velocity P-wave (km/s) = 10.90397 7.10538 9.20280
#
# Compressibility (1/GPa) = 0.04031901
#
# Stress axis : x y z
#
# Youngs Moduli (GPa) = 26.85628 100.14125 134.47886
#
# Poissons Ratio (x) = 0.19711 -0.07220
# Poissons Ratio (y) = 0.05286 0.77160
# Poissons Ratio (z) = -0.01442 0.57458
#
# Static dielectric constant tensor:
#      x y z
#    x 1.749270 0.000000 0.000000 
#    y 0.000000 1.725940 0.000000 
#    z 0.000000 0.000000 1.738680 
# 
# From -- ./inp_files/67527.got.cif
#   From: 2010.05.17/outbox.cif.g08.bks.cpg/sg74_34_cif.got.tgz:67527.got - 2010.06.03 17:57:02.
