data_PCOD9537175
_publ_section_title
;
Structure prediction by ZEFSAII (Michael W. Deem and Ramdas Pophale) SiO2 
 PCOD9537175
Probable space group: I M M A
;
_chemical_formula_sum "Si O2"
_cell_formula_units_Z 80
_cell_length_a 8.679029
_cell_length_b 19.977710
_cell_length_c 33.808710
_cell_angle_alpha 90.000000
_cell_angle_beta 90.000000
_cell_angle_gamma 90.000000
_cell_volume 5861.995008
_symmetry_space_group_name_H-M "I M M A"
_symmetry_group_IT_number 74
_symmetry_cell_setting 'orthorhombic'
loop_
_space_group_symop_operation_xyz
x,y,z
-x,1/2-y,z
x,-y,-z
-x,1/2+y,-z
-x,-y,-z
x,1/2+y,-z
-x,y,z
x,1/2-y,z
1/2+x,1/2+y,1/2+z
1/2-x,-y,1/2+z
1/2+x,1/2-y,1/2-z
1/2-x,y,1/2-z
1/2-x,1/2-y,1/2-z
1/2+x,y,1/2-z
1/2-x,1/2+y,1/2+z
1/2+x,-y,1/2+z
loop_
_atom_site_type_symbol
_atom_site_label
_atom_site_fract_x
_atom_site_fract_y
_atom_site_fract_z
Si Si1 0.314916 0.250000 0.508832
Si Si2 0.683104 0.380957 0.128008
Si Si3 0.683458 0.250000 0.414540
Si Si4 0.684425 0.671879 0.706828
Si Si5 0.313798 0.028055 0.437168
Si Si6 0.812316 0.896801 0.018043
O O1 0.500000 0.250000 0.515352
O O2 0.292040 0.250000 0.461544
O O3 0.255564 0.321293 0.524525
O O4 0.500000 0.379937 0.129222
O O5 0.745127 0.315822 0.104725
O O6 0.749402 0.373794 0.172077
O O7 0.741988 0.443968 0.102777
O O8 0.500000 0.250000 0.407145
O O9 0.500000 0.668267 0.707209
O O10 0.727669 0.750000 0.698621
O O11 0.750000 0.655219 0.750000
O O12 0.500000 0.030471 0.434175
O O13 0.269894 0.075848 0.474363
O O14 0.266930 0.953353 0.450426
O O15 0.000000 0.895592 0.018100
#
# Coordination Sequence:
#
# PCOD9537175 Si02
#       6
#     8  16   8  16  16  16
#     4   9  14  23  43  64  78 101 142 188 221 248
#     4  12  22  30  42  61  86 111 141 178 214 252
#     4  11  19  29  44  60  79 107 145 182 215 250
#     4  10  20  33  48  63  83 109 138 172 211 249
#     4   9  16  28  43  59  80 109 143 177 214 254
#     4   8  14  24  41  62  81 104 142 184 216 250
#
# _framework density 13.647231
#
# number of rings (size 3 to 8) (size 9 to 14) (size 15 to 20)
#    0.000    2.200    3.000    3.900    0.000    0.800 
#    0.000    2.000    0.000    0.000    0.000    0.000 
#    0.000    0.000    0.000    0.900    0.000    9.000 
#
# Total GULP energy -223008.566923 kJ/mol
# GULP energy per Si atom -5575.214173 kJ/mol
# Density = 1.361617 g / cm^3
# Si number density = 13.647231 Si / 1000 Ang^3
#
#
#
# Elastic Constant Matrix: (Units=GPa)
#
#
# Indices 1 2 3 4 5 6 
#
# 1 41.7169 22.1490 38.6984 0.0000 0.0000 0.0000
# 2 22.1490 108.7051 55.7616 0.0000 0.0000 0.0000
# 3 38.6984 55.7616 94.1148 0.0000 0.0000 0.0000
# 4 0.0000 0.0000 0.0000 24.0177 0.0000 0.0000
# 5 0.0000 0.0000 0.0000 0.0000 17.8905 0.0000
# 6 0.0000 0.0000 0.0000 0.0000 0.0000 10.3608
#
#
#
# Elastic Compliance Matrix: (Units=1/GPa)
#
#
# Indices 1 2 3 4 5 6 
#
# 1 0.038765 0.000399 -0.016176 0.000000 0.000000 0.000000
# 2 0.000399 0.013220 -0.007997 0.000000 0.000000 0.000000
# 3 -0.016176 -0.007997 0.022014 0.000000 0.000000 0.000000
# 4 0.000000 0.000000 0.000000 0.041636 0.000000 0.000000
# 5 0.000000 0.000000 0.000000 0.000000 0.055896 0.000000
# 6 0.000000 0.000000 0.000000 0.000000 0.000000 0.096517
#
#
# Mechanical properties :
#
#
# Convention : Reuss Voigt Hill
#
# Bulk Modulus (GPa) = 37.80403 53.08387 45.44395
# Shear Modulus (GPa) = 15.41250 18.98234 17.19742
#
# Velocity S-wave (km/s) = 3.36423 3.73356 3.55370
# Velocity P-wave (km/s) = 6.54612 7.58733 7.08588
#
# Compressibility (1/GPa) = 0.02645221
#
# Stress axis : x y z
#
# Youngs Moduli (GPa) = 25.79672 75.64372 45.42464
#
# Poissons Ratio (x) = -0.03020 0.73478
# Poissons Ratio (y) = -0.01030 0.36325
# Poissons Ratio (z) = 0.41728 0.60490
#
# Static dielectric constant tensor:
#      x y z
#    x 1.452500 0.000000 0.000000 
#    y 0.000000 1.464700 0.000000 
#    z 0.000000 0.000000 1.433600 
# 
# From -- ./inp_files/70398.got.cif
#   From: 2010.05.17/outbox.cif.g08.bks.cpg/sg74_36_cif.got.tgz:70398.got - 2010.06.03 17:57:02.
