data_PCOD9537571
_publ_section_title
;
Structure prediction by ZEFSAII (Michael W. Deem and Ramdas Pophale) SiO2 
 PCOD9537571
Probable space group: I M M A
;
_chemical_formula_sum "Si O2"
_cell_formula_units_Z 104
_cell_length_a 20.521400
_cell_length_b 9.157537
_cell_length_c 32.635774
_cell_angle_alpha 90.000000
_cell_angle_beta 90.000000
_cell_angle_gamma 90.000000
_cell_volume 6133.093487
_symmetry_space_group_name_H-M "I M M A"
_symmetry_group_IT_number 74
_symmetry_cell_setting 'orthorhombic'
loop_
_space_group_symop_operation_xyz
x,y,z
-x,1/2-y,z
x,-y,-z
-x,1/2+y,-z
-x,-y,-z
x,1/2+y,-z
-x,y,z
x,1/2-y,z
1/2+x,1/2+y,1/2+z
1/2-x,-y,1/2+z
1/2+x,1/2-y,1/2-z
1/2-x,y,1/2-z
1/2-x,1/2-y,1/2-z
1/2+x,y,1/2-z
1/2-x,1/2+y,1/2+z
1/2+x,-y,1/2+z
loop_
_atom_site_type_symbol
_atom_site_label
_atom_site_fract_x
_atom_site_fract_y
_atom_site_fract_z
Si Si1 0.818630 0.080188 0.834491
Si Si2 0.120079 0.085383 0.924387
Si Si3 0.736927 0.923498 0.042477
Si Si4 0.697719 0.424890 0.126749
Si Si5 0.074357 0.926223 0.231671
Si Si6 0.425949 0.924150 0.819081
Si Si7 0.000000 0.420282 0.043279
O O1 0.800088 0.250000 0.826347
O O2 0.857631 0.079723 0.877341
O O3 0.868467 0.028790 0.799456
O O4 0.754657 0.985166 0.843352
O O5 0.096232 0.250000 0.933242
O O6 0.185080 0.059375 0.950849
O O7 0.064214 0.971631 0.933243
O O8 0.723454 0.750000 0.041932
O O9 0.705929 0.997851 0.082713
O O10 0.717789 0.000000 0.000000
O O11 0.704047 0.250000 0.122139
O O12 0.628612 0.459834 0.147566
O O13 0.075924 0.750000 0.233519
O O14 0.000000 0.967441 0.218773
O O15 0.085533 0.992719 0.276469
O O16 0.500000 0.957339 0.832578
O O17 0.422046 0.750000 0.811377
O O18 0.000000 0.250000 0.037074
O O19 0.000000 0.500000 0.000000
#
# Coordination Sequence:
#
# PCOD9537571 Si02
#       7
#    16  16  16  16  16  16   8
#     4   9  19  34  52  74 102 136 173 216 262 306
#     4   9  19  34  51  69  94 131 168 208 256 301
#     4  10  20  35  56  79 103 132 166 207 254 306
#     4  10  20  34  54  78 105 136 171 212 256 307
#     4   9  18  32  52  76 101 136 180 220 258 303
#     4   9  19  36  55  76 104 138 172 208 256 310
#     4  12  24  34  46  66  92 126 170 216 260 304
#
# _framework density 16.957186
#
# number of rings (size 3 to 8) (size 9 to 14) (size 15 to 20)
#    0.000    2.462    0.000    3.000    1.077    6.769 
#    0.000    3.077    0.000    0.462    0.000    0.000 
#    0.000    0.000    0.000    0.000    0.000    0.000 
#
# Total GULP energy -290005.250984 kJ/mol
# GULP energy per Si atom -5577.024057 kJ/mol
# Density = 1.691859 g / cm^3
# Si number density = 16.957186 Si / 1000 Ang^3
#
#
#
# Elastic Constant Matrix: (Units=GPa)
#
#
# Indices 1 2 3 4 5 6 
#
# 1 108.7330 63.6948 76.5919 0.0000 0.0000 0.0000
# 2 63.6948 74.6724 50.8873 0.0000 0.0000 0.0000
# 3 76.5919 50.8873 94.9869 0.0000 0.0000 0.0000
# 4 0.0000 0.0000 0.0000 29.3714 0.0000 0.0000
# 5 0.0000 0.0000 0.0000 0.0000 9.7461 0.0000
# 6 0.0000 0.0000 0.0000 0.0000 0.0000 23.9418
#
#
#
# Elastic Compliance Matrix: (Units=1/GPa)
#
#
# Indices 1 2 3 4 5 6 
#
# 1 0.027669 -0.013226 -0.015225 0.000000 0.000000 0.000000
# 2 -0.013226 0.027414 -0.004022 0.000000 0.000000 0.000000
# 3 -0.015225 -0.004022 0.024959 0.000000 0.000000 0.000000
# 4 0.000000 0.000000 0.000000 0.034047 0.000000 0.000000
# 5 0.000000 0.000000 0.000000 0.000000 0.102606 0.000000
# 6 0.000000 0.000000 0.000000 0.000000 0.000000 0.041768
#
#
# Mechanical properties :
#
#
# Convention : Reuss Voigt Hill
#
# Bulk Modulus (GPa) = 66.24155 73.41558 69.82856
# Shear Modulus (GPa) = 15.22339 18.42642 16.82491
#
# Velocity S-wave (km/s) = 2.99951 3.30000 3.15334
# Velocity P-wave (km/s) = 7.15156 7.60978 7.38422
#
# Compressibility (1/GPa) = 0.01509627
#
# Stress axis : x y z
#
# Youngs Moduli (GPa) = 36.14120 36.47729 40.06513
#
# Poissons Ratio (x) = 0.48244 0.61001
# Poissons Ratio (y) = 0.47800 0.16114
# Poissons Ratio (z) = 0.55026 0.14671
#
# Static dielectric constant tensor:
#      x y z
#    x 1.562350 0.000000 0.000000 
#    y 0.000000 1.574670 0.000000 
#    z 0.000000 0.000000 1.555180 
# 
# From -- ./inp_files/73412.got.cif
#   From: 2010.05.17/outbox.cif.g08.bks.cpg/sg74_37_cif.got.tgz:73412.got - 2010.06.03 17:57:02.
