data_PCOD9537119
_publ_section_title
;
Structure prediction by ZEFSAII (Michael W. Deem and Ramdas Pophale) SiO2 
 PCOD9537119
Probable space group: I M M A
;
_chemical_formula_sum "Si O2"
_cell_formula_units_Z 68
_cell_length_a 13.758146
_cell_length_b 12.180831
_cell_length_c 21.949234
_cell_angle_alpha 90.000000
_cell_angle_beta 90.000000
_cell_angle_gamma 90.000000
_cell_volume 3678.376675
_symmetry_space_group_name_H-M "I M M A"
_symmetry_group_IT_number 74
_symmetry_cell_setting 'orthorhombic'
loop_
_space_group_symop_operation_xyz
x,y,z
-x,1/2-y,z
x,-y,-z
-x,1/2+y,-z
-x,-y,-z
x,1/2+y,-z
-x,y,z
x,1/2-y,z
1/2+x,1/2+y,1/2+z
1/2-x,-y,1/2+z
1/2+x,1/2-y,1/2-z
1/2-x,y,1/2-z
1/2-x,1/2-y,1/2-z
1/2+x,y,1/2-z
1/2-x,1/2+y,1/2+z
1/2+x,-y,1/2+z
loop_
_atom_site_type_symbol
_atom_site_label
_atom_site_fract_x
_atom_site_fract_y
_atom_site_fract_z
Si Si1 0.206934 0.510345 0.631127
Si Si2 0.387893 0.375809 0.767253
Si Si3 0.500000 0.477471 0.071113
Si Si4 0.000000 0.250000 0.359789
Si Si5 0.609463 0.878417 0.379573
Si Si6 0.790377 0.250000 0.318701
O O1 0.180890 0.457279 0.696717
O O2 0.106344 0.485415 0.595448
O O3 0.299289 0.451179 0.600899
O O4 0.231776 0.637949 0.644213
O O5 0.500000 0.394382 0.786505
O O6 0.361152 0.250000 0.782679
O O7 0.388281 0.385484 0.694414
O O8 0.500000 0.353296 0.095846
O O9 0.500000 0.500000 0.000000
O O10 0.092933 0.250000 0.316892
O O11 0.500000 0.911799 0.398744
O O12 0.622377 0.750000 0.395258
O O13 0.750000 0.250000 0.250000
#
# Coordination Sequence:
#
# PCOD9537119 Si02
#       6
#    16  16   8   4  16   8
#     4  11  19  34  51  72 107 140 183 230 259 321
#     4   9  16  27  45  74 108 138 165 207 262 320
#     4  10  22  40  56  76 102 144 186 238 288 306
#     4   8  20  40  56  72 124 144 172 248 276 322
#     4   9  18  31  49  76 114 145 163 202 270 326
#     4  10  20  32  50  78 104 152 184 208 276 336
#
# _framework density 18.486416999999999
#
# number of rings (size 3 to 8) (size 9 to 14) (size 15 to 20)
#    0.000    2.353    1.176    4.235    0.000    1.882 
#    6.353    0.000    0.000    0.706    0.000    0.000 
#    0.000    0.000    0.000    0.000    0.000    0.000 
#
# Total GULP energy -189342.130801 kJ/mol
# GULP energy per Si atom -5568.886200 kJ/mol
# Density = 1.844434 g / cm^3
# Si number density = 18.486417 Si / 1000 Ang^3
#
#
#
# Elastic Constant Matrix: (Units=GPa)
#
#
# Indices 1 2 3 4 5 6 
#
# 1 173.6080 67.7442 33.5795 0.0000 0.0000 0.0000
# 2 67.7442 65.3945 4.6267 0.0000 0.0000 0.0000
# 3 33.5795 4.6267 53.6345 0.0000 0.0000 0.0000
# 4 0.0000 0.0000 0.0000 -9.8453 0.0000 0.0000
# 5 0.0000 0.0000 0.0000 0.0000 16.4053 0.0000
# 6 0.0000 0.0000 0.0000 0.0000 0.0000 27.3441
#
#
#
# Elastic Compliance Matrix: (Units=1/GPa)
#
#
# Indices 1 2 3 4 5 6 
#
# 1 0.011379 -0.011353 -0.006145 0.000000 0.000000 0.000000
# 2 -0.011353 0.026713 0.004803 0.000000 0.000000 0.000000
# 3 -0.006145 0.004803 0.022077 0.000000 0.000000 0.000000
# 4 0.000000 0.000000 0.000000 -0.101571 0.000000 0.000000
# 5 0.000000 0.000000 0.000000 0.000000 0.060956 0.000000
# 6 0.000000 0.000000 0.000000 0.000000 0.000000 0.036571
#
#
# Mechanical properties :
#
#
# Convention : Reuss Voigt Hill
#
# Bulk Modulus (GPa) = 28.75154 56.05976 42.40565
# Shear Modulus (GPa) = 53.70263 19.22659 36.46461
#
# Velocity S-wave (km/s) = 5.39563 3.22846 4.44611
# Velocity P-wave (km/s) = 7.37588 6.65492 7.02466
#
# Compressibility (1/GPa) = 0.03478075
#
# Stress axis : x y z
#
# Youngs Moduli (GPa) = 87.88437 37.43549 45.29527
#
# Poissons Ratio (x) = 0.42499 0.27832
# Poissons Ratio (y) = 0.99773 -0.21757
# Poissons Ratio (z) = 0.54001 -0.17982
#
# Static dielectric constant tensor:
#      x y z
#    x 1.710460 0.000000 0.000000 
#    y 0.000000 1.812720 0.000000 
#    z 0.000000 0.000000 1.608730 
# 
# From -- ./inp_files/51546.got.cif
#   From: 2010.05.17/outbox.cif.g08.bks.cpg/sg74_26_cif.got.tgz:51546.got - 2010.06.03 17:57:02.
