data_PCOD9537988
_publ_section_title
;
Structure prediction by ZEFSAII (Michael W. Deem and Ramdas Pophale) SiO2 
 PCOD9537988
Probable space group: I M M A
;
_chemical_formula_sum "Si O2"
_cell_formula_units_Z 64
_cell_length_a 9.251227
_cell_length_b 24.902334
_cell_length_c 14.672347
_cell_angle_alpha 90.000000
_cell_angle_beta 90.000000
_cell_angle_gamma 90.000000
_cell_volume 3380.173407
_symmetry_space_group_name_H-M "I M M A"
_symmetry_group_IT_number 74
_symmetry_cell_setting 'orthorhombic'
loop_
_space_group_symop_operation_xyz
x,y,z
-x,1/2-y,z
x,-y,-z
-x,1/2+y,-z
-x,-y,-z
x,1/2+y,-z
-x,y,z
x,1/2-y,z
1/2+x,1/2+y,1/2+z
1/2-x,-y,1/2+z
1/2+x,1/2-y,1/2-z
1/2-x,y,1/2-z
1/2-x,1/2-y,1/2-z
1/2+x,y,1/2-z
1/2-x,1/2+y,1/2+z
1/2+x,-y,1/2+z
loop_
_atom_site_type_symbol
_atom_site_label
_atom_site_fract_x
_atom_site_fract_y
_atom_site_fract_z
Si Si1 0.333832 0.750000 0.447333
Si Si2 0.675672 0.651316 0.151330
Si Si3 0.175689 0.438980 0.511194
Si Si4 0.721577 0.250000 0.140854
Si Si5 0.838814 0.629567 0.657792
O O1 0.500000 0.750000 0.414461
O O2 0.246594 0.801397 0.409229
O O3 0.335426 0.750000 0.557853
O O4 0.500000 0.657388 0.155859
O O5 0.750000 0.653790 0.250000
O O6 0.710840 0.594684 0.101702
O O7 0.226400 0.500000 0.500000
O O8 0.226091 0.404328 0.424657
O O9 0.000000 0.439664 0.508232
O O10 0.750000 0.250000 0.250000
O O11 0.651084 0.308160 0.128600
O O12 0.750000 0.625950 0.750000
O O13 0.000000 0.609438 0.675937
#
# Coordination Sequence:
#
# PCOD9537988 Si02
#       5
#     8  16  16   8  16
#     4  12  24  40  64  93 123 157 199 251 302 361
#     4  11  23  41  63  89 122 161 203 250 302 361
#     4   9  19  37  60  85 116 157 200 243 294 349
#     4  10  21  36  56  89 120 155 184 233 291 359
#     4  10  20  35  57  85 117 152 190 234 289 352
#
# _framework density 18.93394
#
# number of rings (size 3 to 8) (size 9 to 14) (size 15 to 20)
#    0.000    1.750    2.500    1.875    0.000    6.000 
#    0.000    0.000    0.000    5.250    0.000    0.000 
#    0.000    0.000    0.000    0.000    0.000    0.000 
#
# Total GULP energy -178213.676990 kJ/mol
# GULP energy per Si atom -5569.177406 kJ/mol
# Density = 1.889085 g / cm^3
# Si number density = 18.933940 Si / 1000 Ang^3
#
#
#
# Elastic Constant Matrix: (Units=GPa)
#
#
# Indices 1 2 3 4 5 6 
#
# 1 79.7305 24.4075 45.6949 0.0000 0.0000 0.0000
# 2 24.4075 141.1667 59.9463 0.0000 0.0000 0.0000
# 3 45.6949 59.9463 137.9759 -0.0001 0.0000 0.0000
# 4 0.0000 0.0000 -0.0001 20.5906 0.0000 0.0000
# 5 0.0000 0.0000 0.0000 0.0000 23.7100 0.0000
# 6 0.0000 0.0000 0.0000 0.0000 0.0000 15.8503
#
#
#
# Elastic Compliance Matrix: (Units=1/GPa)
#
#
# Indices 1 2 3 4 5 6 
#
# 1 0.015524 -0.000614 -0.004874 0.000000 0.000000 0.000000
# 2 -0.000614 0.008711 -0.003581 0.000000 0.000000 0.000000
# 3 -0.004874 -0.003581 0.010418 0.000000 0.000000 0.000000
# 4 0.000000 0.000000 0.000000 0.048566 0.000000 0.000000
# 5 0.000000 0.000000 0.000000 0.000000 0.042176 0.000000
# 6 0.000000 0.000000 0.000000 0.000000 0.000000 0.063090
#
#
# Mechanical properties :
#
#
# Convention : Reuss Voigt Hill
#
# Bulk Modulus (GPa) = 60.55805 68.77450 64.66628
# Shear Modulus (GPa) = 23.57061 27.28514 25.42788
#
# Velocity S-wave (km/s) = 3.53212 3.80026 3.66864
# Velocity P-wave (km/s) = 6.97767 7.46044 7.22309
#
# Compressibility (1/GPa) = 0.01651308
#
# Stress axis : x y z
#
# Youngs Moduli (GPa) = 64.41706 114.80071 95.98915
#
# Poissons Ratio (x) = 0.07050 0.46789
# Poissons Ratio (y) = 0.03956 0.34375
# Poissons Ratio (z) = 0.31399 0.41112
#
# Static dielectric constant tensor:
#      x y z
#    x 1.678840 0.000000 0.000000 
#    y 0.000000 1.657560 0.000000 
#    z 0.000000 0.000000 1.671390 
# 
# From -- ./inp_files/28836.got.cif
#   From: 2010.05.17/outbox.cif.g08.bks.cpg/sg74_15_cif.got.tgz:28836.got - 2010.06.03 17:57:02.
