data_PCOD9537633
_publ_section_title
;
Structure prediction by ZEFSAII (Michael W. Deem and Ramdas Pophale) SiO2 
 PCOD9537633
Probable space group: I M M A
;
_chemical_formula_sum "Si O2"
_cell_formula_units_Z 64
_cell_length_a 12.138493
_cell_length_b 25.653799
_cell_length_c 11.546001
_cell_angle_alpha 90.000000
_cell_angle_beta 90.000000
_cell_angle_gamma 90.000000
_cell_volume 3595.406926
_symmetry_space_group_name_H-M "I M M A"
_symmetry_group_IT_number 74
_symmetry_cell_setting 'orthorhombic'
loop_
_space_group_symop_operation_xyz
x,y,z
-x,1/2-y,z
x,-y,-z
-x,1/2+y,-z
-x,-y,-z
x,1/2+y,-z
-x,y,z
x,1/2-y,z
1/2+x,1/2+y,1/2+z
1/2-x,-y,1/2+z
1/2+x,1/2-y,1/2-z
1/2-x,y,1/2-z
1/2-x,1/2-y,1/2-z
1/2+x,y,1/2-z
1/2-x,1/2+y,1/2+z
1/2+x,-y,1/2+z
loop_
_atom_site_type_symbol
_atom_site_label
_atom_site_fract_x
_atom_site_fract_y
_atom_site_fract_z
Si Si1 0.708875 0.147260 0.378910
Si Si2 0.250000 0.885199 0.250000
Si Si3 0.121238 0.750000 0.800442
Si Si4 0.369332 0.689253 0.072215
Si Si5 0.630223 0.443313 0.542236
O O1 0.750000 0.134334 0.250000
O O2 0.626346 0.196234 0.370162
O O3 0.809925 0.167508 0.457595
O O4 0.655172 0.098457 0.441983
O O5 0.330067 0.846907 0.177968
O O6 0.311611 0.921222 0.343137
O O7 0.250000 0.750000 0.750000
O O8 0.000000 0.750000 0.736501
O O9 0.500000 0.686612 0.060008
O O10 0.337771 0.750000 0.088934
O O11 0.669852 0.500000 0.500000
O O12 0.500000 0.446574 0.563341
#
# Coordination Sequence:
#
# PCOD9537633 Si02
#       5
#    16   8   8  16  16
#     4  10  21  36  57  85 120 152 192 236 288 344
#     4  10  21  38  60  80 114 145 190 236 288 340
#     4  10  20  34  54  83 118 155 192 237 289 347
#     4  10  20  35  57  86 119 153 190 232 287 349
#     4  10  22  39  60  82 108 147 191 237 286 339
#
# _framework density 17.800488999999999
#
# number of rings (size 3 to 8) (size 9 to 14) (size 15 to 20)
#    0.000    2.000    1.250    1.875    1.750    5.000 
#    0.000    0.000    0.000    3.750    0.000    0.000 
#    0.000    0.000    0.000    0.000    0.000    0.000 
#
# Total GULP energy -178372.100949 kJ/mol
# GULP energy per Si atom -5574.128155 kJ/mol
# Density = 1.775997 g / cm^3
# Si number density = 17.800489 Si / 1000 Ang^3
#
#
#
# Elastic Constant Matrix: (Units=GPa)
#
#
# Indices 1 2 3 4 5 6 
#
# 1 85.6101 38.4384 29.5428 0.0000 0.0000 -0.0001
# 2 38.4384 145.2256 55.2106 -0.0001 0.0000 -0.0001
# 3 29.5428 55.2106 110.2070 -0.0001 0.0000 0.0000
# 4 0.0000 -0.0001 -0.0001 25.6869 0.0000 0.0000
# 5 0.0000 0.0000 0.0000 0.0000 11.8184 0.0000
# 6 -0.0001 -0.0001 0.0000 0.0000 0.0000 2.7948
#
#
#
# Elastic Compliance Matrix: (Units=1/GPa)
#
#
# Indices 1 2 3 4 5 6 
#
# 1 0.013710 -0.002757 -0.002294 0.000000 0.000000 0.000000
# 2 -0.002757 0.009060 -0.003800 0.000000 0.000000 0.000000
# 3 -0.002294 -0.003800 0.011592 0.000000 0.000000 0.000000
# 4 0.000000 0.000000 0.000000 0.038930 0.000000 0.000000
# 5 0.000000 0.000000 0.000000 0.000000 0.084614 0.000000
# 6 0.000000 0.000000 0.000000 0.000000 0.000000 0.357803
#
#
# Mechanical properties :
#
#
# Convention : Reuss Voigt Hill
#
# Bulk Modulus (GPa) = 60.01941 65.26959 62.64450
# Shear Modulus (GPa) = 9.27704 22.58343 15.93024
#
# Velocity S-wave (km/s) = 2.28539 3.56574 2.99479
# Velocity P-wave (km/s) = 6.38397 7.32800 6.87221
#
# Compressibility (1/GPa) = 0.01666128
#
# Stress axis : x y z
#
# Youngs Moduli (GPa) = 72.93794 110.37449 86.26279
#
# Poissons Ratio (x) = 0.30426 0.19791
# Poissons Ratio (y) = 0.20106 0.32779
# Poissons Ratio (z) = 0.16734 0.41941
#
# Static dielectric constant tensor:
#      x y z
#    x 1.615690 0.000000 0.000000 
#    y 0.000000 1.604800 0.000000 
#    z 0.000000 0.000000 1.611500 
# 
# From -- ./inp_files/18643.got.cif
#   From: 2010.05.17/outbox.cif.g08.bks.cpg/sg74_10_cif.got.tgz:18643.got - 2010.06.03 17:57:02.
