data_PCOD9537296
_publ_section_title
;
Structure prediction by ZEFSAII (Michael W. Deem and Ramdas Pophale) SiO2 
 PCOD9537296
Probable space group: I M M A
;
_chemical_formula_sum "Si O2"
_cell_formula_units_Z 72
_cell_length_a 8.689857
_cell_length_b 16.520013
_cell_length_c 28.029141
_cell_angle_alpha 90.000000
_cell_angle_beta 90.000000
_cell_angle_gamma 90.000000
_cell_volume 4023.766798
_symmetry_space_group_name_H-M "I M M A"
_symmetry_group_IT_number 74
_symmetry_cell_setting 'orthorhombic'
loop_
_space_group_symop_operation_xyz
x,y,z
-x,1/2-y,z
x,-y,-z
-x,1/2+y,-z
-x,-y,-z
x,1/2+y,-z
-x,y,z
x,1/2-y,z
1/2+x,1/2+y,1/2+z
1/2-x,-y,1/2+z
1/2+x,1/2-y,1/2-z
1/2-x,y,1/2-z
1/2-x,1/2-y,1/2-z
1/2+x,y,1/2-z
1/2-x,1/2+y,1/2+z
1/2+x,-y,1/2+z
loop_
_atom_site_type_symbol
_atom_site_label
_atom_site_fract_x
_atom_site_fract_y
_atom_site_fract_z
Si Si1 0.685355 0.660944 0.389820
Si Si2 0.315770 0.592879 0.857523
Si Si3 0.186205 0.999791 0.944659
Si Si4 0.316619 0.426582 0.802462
Si Si5 0.184115 0.250000 0.195854
O O1 0.500000 0.660072 0.389073
O O2 0.736408 0.750000 0.405534
O O3 0.735088 0.586415 0.422858
O O4 0.746522 0.640248 0.337462
O O5 0.500000 0.602392 0.858526
O O6 0.255640 0.569281 0.910328
O O7 0.277192 0.514257 0.825160
O O8 0.241236 0.671182 0.833193
O O9 0.000000 0.993485 0.942059
O O10 0.230945 0.000000 0.000000
O O11 0.500000 0.419603 0.801767
O O12 0.250000 0.420434 0.750000
O O13 0.250000 0.250000 0.250000
O O14 0.000000 0.250000 0.198698
#
# Coordination Sequence:
#
# PCOD9537296 Si02
#       5
#    16  16  16  16   8
#     4   9  18  33  52  74 103 138 175 218 262 311
#     4  10  21  37  56  80 111 145 186 230 275 330
#     4   9  18  35  57  81 109 143 184 229 278 329
#     4  10  20  33  52  76 103 139 176 216 262 316
#     4  12  24  38  58  84 116 152 188 232 285 340
#
# _framework density 17.893681999999998
#
# number of rings (size 3 to 8) (size 9 to 14) (size 15 to 20)
#    0.000    2.222    0.000    3.000    0.000    5.778 
#    2.000    0.000    0.000    0.000    0.000    0.000 
#    0.000    0.000    0.000    0.000    0.000    0.000 
#
# Total GULP energy -200878.727829 kJ/mol
# GULP energy per Si atom -5579.964662 kJ/mol
# Density = 1.785295 g / cm^3
# Si number density = 17.893682 Si / 1000 Ang^3
#
#
#
# Elastic Constant Matrix: (Units=GPa)
#
#
# Indices 1 2 3 4 5 6 
#
# 1 34.4941 37.3581 33.7955 0.0000 0.0000 0.0000
# 2 37.3581 117.6064 60.7833 0.0000 0.0000 0.0000
# 3 33.7955 60.7833 160.6837 0.0000 0.0000 0.0000
# 4 0.0000 0.0000 0.0000 88.9233 0.0000 0.0000
# 5 0.0000 0.0000 0.0000 0.0000 25.7986 0.0000
# 6 0.0000 0.0000 0.0000 0.0000 0.0000 21.0776
#
#
#
# Elastic Compliance Matrix: (Units=1/GPa)
#
#
# Indices 1 2 3 4 5 6 
#
# 1 0.047611 -0.012366 -0.005336 0.000000 0.000000 0.000000
# 2 -0.012366 0.013781 -0.002612 0.000000 0.000000 0.000000
# 3 -0.005336 -0.002612 0.008334 0.000000 0.000000 0.000000
# 4 0.000000 0.000000 0.000000 0.011246 0.000000 0.000000
# 5 0.000000 0.000000 0.000000 0.000000 0.038762 0.000000
# 6 0.000000 0.000000 0.000000 0.000000 0.000000 0.047444
#
#
# Mechanical properties :
#
#
# Convention : Reuss Voigt Hill
#
# Bulk Modulus (GPa) = 34.36697 64.07311 49.22004
# Shear Modulus (GPa) = 22.98798 39.21639 31.10219
#
# Velocity S-wave (km/s) = 3.58816 4.68657 4.17365
# Velocity P-wave (km/s) = 6.03443 8.07283 7.12689
#
# Compressibility (1/GPa) = 0.02909771
#
# Stress axis : x y z
#
# Youngs Moduli (GPa) = 21.00348 72.56269 119.99289
#
# Poissons Ratio (x) = 0.89732 0.64027
# Poissons Ratio (y) = 0.25973 0.31345
# Poissons Ratio (z) = 0.11207 0.18955
#
# Static dielectric constant tensor:
#      x y z
#    x 1.598500 0.000000 0.000000 
#    y 0.000000 1.614170 0.000000 
#    z 0.000000 0.000000 1.582160 
# 
# From -- ./inp_files/63594.got.cif
#   From: 2010.05.17/outbox.cif.g08.bks.cpg/sg74_32_cif.got.tgz:63594.got - 2010.06.03 17:57:02.
