data_PCOD9537577
_publ_section_title
;
Structure prediction by ZEFSAII (Michael W. Deem and Ramdas Pophale) SiO2 
 PCOD9537577
Probable space group: I M M A
;
_chemical_formula_sum "Si O2"
_cell_formula_units_Z 72
_cell_length_a 14.595784
_cell_length_b 9.283606
_cell_length_c 29.443085
_cell_angle_alpha 90.000000
_cell_angle_beta 90.000000
_cell_angle_gamma 90.000000
_cell_volume 3989.582415
_symmetry_space_group_name_H-M "I M M A"
_symmetry_group_IT_number 74
_symmetry_cell_setting 'orthorhombic'
loop_
_space_group_symop_operation_xyz
x,y,z
-x,1/2-y,z
x,-y,-z
-x,1/2+y,-z
-x,-y,-z
x,1/2+y,-z
-x,y,z
x,1/2-y,z
1/2+x,1/2+y,1/2+z
1/2-x,-y,1/2+z
1/2+x,1/2-y,1/2-z
1/2-x,y,1/2-z
1/2-x,1/2-y,1/2-z
1/2+x,y,1/2-z
1/2-x,1/2+y,1/2+z
1/2+x,-y,1/2+z
loop_
_atom_site_type_symbol
_atom_site_label
_atom_site_fract_x
_atom_site_fract_y
_atom_site_fract_z
Si Si1 0.850749 0.078414 0.374062
Si Si2 0.000000 0.081432 0.297041
Si Si3 0.500000 0.922628 0.298043
Si Si4 0.500000 0.576415 0.950841
Si Si5 0.391907 0.411393 0.458412
Si Si6 0.342168 0.422966 0.631429
O O1 0.830713 0.250000 0.376777
O O2 0.911409 0.041255 0.418907
O O3 0.913992 0.054874 0.329984
O O4 0.759582 0.987012 0.367072
O O5 0.000000 0.250000 0.284834
O O6 0.000000 0.990900 0.251435
O O7 0.500000 0.750000 0.294312
O O8 0.590701 0.963099 0.326926
O O9 0.500000 0.750000 0.956871
O O10 0.500000 0.500000 0.000000
O O11 0.349293 0.500000 0.500000
O O12 0.500000 0.395372 0.467619
O O13 0.353175 0.250000 0.453524
O O14 0.383020 0.505020 0.413536
O O15 0.341166 0.250000 0.627966
#
# Coordination Sequence:
#
# PCOD9537577 Si02
#       6
#    16   8   8   8  16  16
#     4   9  20  39  59  83 114 147 185 234 284 336
#     4   9  20  40  63  82 106 144 189 237 291 344
#     4  10  23  39  56  80 115 149 185 234 285 340
#     4   9  19  37  61  86 116 147 182 229 279 328
#     4  10  20  34  54  78 107 146 187 228 272 323
#     4  11  22  37  56  82 116 153 189 231 281 337
#
# _framework density 18.047001000000002
#
# number of rings (size 3 to 8) (size 9 to 14) (size 15 to 20)
#    0.000    2.222    1.111    2.667    0.000    6.222 
#    0.000    8.889    0.000    0.000    0.000    0.000 
#    0.000    0.000    0.000    0.000    0.000    0.000 
#
# Total GULP energy -200740.971421 kJ/mol
# GULP energy per Si atom -5576.138095 kJ/mol
# Density = 1.800593 g / cm^3
# Si number density = 18.047001 Si / 1000 Ang^3
#
#
#
# Elastic Constant Matrix: (Units=GPa)
#
#
# Indices 1 2 3 4 5 6 
#
# 1 96.3718 58.1506 49.4616 0.0000 0.0000 0.0000
# 2 58.1506 82.4514 70.7400 0.0000 0.0000 0.0000
# 3 49.4616 70.7400 158.9624 0.0000 0.0000 0.0000
# 4 0.0000 0.0000 0.0000 35.6784 0.0000 0.0000
# 5 0.0000 0.0000 0.0000 0.0000 5.0199 0.0000
# 6 0.0000 0.0000 0.0000 0.0000 0.0000 29.0718
#
#
#
# Elastic Compliance Matrix: (Units=1/GPa)
#
#
# Indices 1 2 3 4 5 6 
#
# 1 0.018064 -0.012808 0.000079 0.000000 0.000000 0.000000
# 2 -0.012808 0.028700 -0.008787 0.000000 0.000000 0.000000
# 3 0.000079 -0.008787 0.010176 0.000000 0.000000 0.000000
# 4 0.000000 0.000000 0.000000 0.028028 0.000000 0.000000
# 5 0.000000 0.000000 0.000000 0.000000 0.199205 0.000000
# 6 0.000000 0.000000 0.000000 0.000000 0.000000 0.034398
#
#
# Mechanical properties :
#
#
# Convention : Reuss Voigt Hill
#
# Bulk Modulus (GPa) = 71.89370 77.16557 74.52964
# Shear Modulus (GPa) = 13.65228 24.58293 19.11760
#
# Velocity S-wave (km/s) = 2.75341 3.69475 3.25826
# Velocity P-wave (km/s) = 7.07331 7.81361 7.45266
#
# Compressibility (1/GPa) = 0.01390942
#
# Stress axis : x y z
#
# Youngs Moduli (GPa) = 55.35806 34.84337 98.26705
#
# Poissons Ratio (x) = 0.44627 -0.00775
# Poissons Ratio (y) = 0.70902 0.86343
# Poissons Ratio (z) = -0.00437 0.30615
#
# Static dielectric constant tensor:
#      x y z
#    x 1.381510 0.000000 0.000000 
#    y 0.000000 1.622260 0.000000 
#    z 0.000000 0.000000 1.604390 
# 
# From -- ./inp_files/66768.got.cif
#   From: 2010.05.17/outbox.cif.g08.bks.cpg/sg74_34_cif.got.tgz:66768.got - 2010.06.03 17:57:02.
