data_PCOD9537863
_publ_section_title
;
Structure prediction by ZEFSAII (Michael W. Deem and Ramdas Pophale) SiO2 
 PCOD9537863
Probable space group: I M M A
;
_chemical_formula_sum "Si O2"
_cell_formula_units_Z 96
_cell_length_a 12.966376
_cell_length_b 23.123725
_cell_length_c 15.323504
_cell_angle_alpha 90.000000
_cell_angle_beta 90.000000
_cell_angle_gamma 90.000000
_cell_volume 4594.460193
_symmetry_space_group_name_H-M "I M M A"
_symmetry_group_IT_number 74
_symmetry_cell_setting 'orthorhombic'
loop_
_space_group_symop_operation_xyz
x,y,z
-x,1/2-y,z
x,-y,-z
-x,1/2+y,-z
-x,-y,-z
x,1/2+y,-z
-x,y,z
x,1/2-y,z
1/2+x,1/2+y,1/2+z
1/2-x,-y,1/2+z
1/2+x,1/2-y,1/2-z
1/2-x,y,1/2-z
1/2-x,1/2-y,1/2-z
1/2+x,y,1/2-z
1/2-x,1/2+y,1/2+z
1/2+x,-y,1/2+z
loop_
_atom_site_type_symbol
_atom_site_label
_atom_site_fract_x
_atom_site_fract_y
_atom_site_fract_z
Si Si1 0.826715 0.683657 0.037227
Si Si2 0.624890 0.499023 0.601671
Si Si3 0.173953 0.126487 0.136659
Si Si4 0.879720 0.114083 0.797747
Si Si5 0.620023 0.682985 0.127580
Si Si6 0.115369 0.318463 0.315065
O O1 0.850185 0.750000 0.018144
O O2 0.872132 0.663679 0.129111
O O3 0.702941 0.677694 0.050802
O O4 0.865213 0.644326 0.958657
O O5 0.659833 0.500000 0.500000
O O6 0.500000 0.497094 0.599543
O O7 0.658120 0.558545 0.646850
O O8 0.663789 0.443697 0.656425
O O9 0.120660 0.162707 0.213508
O O10 0.293571 0.144923 0.142133
O O11 0.845967 0.139826 0.704770
O O12 0.000000 0.101248 0.782709
O O13 0.500000 0.673220 0.104299
O O14 0.627489 0.750000 0.158670
O O15 0.137564 0.250000 0.323187
O O16 0.000000 0.329123 0.348607
#
# Coordination Sequence:
#
# PCOD9537863 Si02
#       6
#    16  16  16  16  16  16
#     4  11  21  33  55  85 115 146 189 240 290 345
#     4  10  20  37  58  82 116 155 196 244 288 333
#     4  11  21  38  60  85 115 150 195 237 293 354
#     4  10  20  35  55  80 113 153 193 230 280 334
#     4   9  19  36  55  80 117 153 188 234 285 343
#     4  10  22  41  63  88 118 147 184 242 304 359
#
# _framework density 20.894729000000002
#
# number of rings (size 3 to 8) (size 9 to 14) (size 15 to 20)
#    0.000    1.833    1.667    3.500    0.000    3.667 
#    6.000    1.667    0.000    0.500    0.000    0.000 
#    0.000    0.000    0.000    0.000    0.000    0.000 
#
# Total GULP energy -268041.828396 kJ/mol
# GULP energy per Si atom -5584.204758 kJ/mol
# Density = 2.084717 g / cm^3
# Si number density = 20.894729 Si / 1000 Ang^3
#
#
#
# Elastic Constant Matrix: (Units=GPa)
#
#
# Indices 1 2 3 4 5 6 
#
# 1 46.9381 20.5367 -7.9559 0.0000 0.0000 0.0000
# 2 20.5367 81.3219 12.8672 0.0000 0.0000 0.0000
# 3 -7.9559 12.8672 60.7221 0.0001 0.0000 0.0000
# 4 0.0000 0.0000 0.0001 21.7969 0.0000 0.0000
# 5 0.0000 0.0000 0.0000 0.0000 6.2766 0.0000
# 6 0.0000 0.0000 0.0000 0.0000 0.0000 9.4597
#
#
#
# Elastic Compliance Matrix: (Units=1/GPa)
#
#
# Indices 1 2 3 4 5 6 
#
# 1 0.025245 -0.007138 0.004820 0.000000 0.000000 0.000000
# 2 -0.007138 0.014742 -0.004059 0.000000 0.000000 0.000000
# 3 0.004820 -0.004059 0.017960 0.000000 0.000000 0.000000
# 4 0.000000 0.000000 0.000000 0.045878 0.000000 0.000000
# 5 0.000000 0.000000 0.000000 0.000000 0.159321 0.000000
# 6 0.000000 0.000000 0.000000 0.000000 0.000000 0.105711
#
#
# Mechanical properties :
#
#
# Convention : Reuss Voigt Hill
#
# Bulk Modulus (GPa) = 22.12735 26.65312 24.39023
# Shear Modulus (GPa) = 12.60478 18.40891 15.50685
#
# Velocity S-wave (km/s) = 2.45878 2.97144 2.72718
# Velocity P-wave (km/s) = 4.32131 4.95542 4.64919
#
# Compressibility (1/GPa) = 0.04519294
#
# Stress axis : x y z
#
# Youngs Moduli (GPa) = 39.61231 67.83516 55.67893
#
# Poissons Ratio (x) = 0.48420 -0.26838
# Poissons Ratio (y) = 0.28275 0.22600
# Poissons Ratio (z) = -0.19094 0.27534
#
# Static dielectric constant tensor:
#      x y z
#    x 1.802810 0.000000 0.000000 
#    y 0.000000 1.712110 0.000000 
#    z 0.000000 0.000000 1.745410 
# 
# From -- ./inp_files/32346.got.cif
#   From: 2010.05.17/outbox.cif.g08.bks.cpg/sg74_17_cif.got.tgz:32346.got - 2010.06.03 17:57:02.
