data_PCOD9537533
_publ_section_title
;
Structure prediction by ZEFSAII (Michael W. Deem and Ramdas Pophale) SiO2 
 PCOD9537533
Probable space group: I M M A
;
_chemical_formula_sum "Si O2"
_cell_formula_units_Z 104
_cell_length_a 9.022391
_cell_length_b 26.421885
_cell_length_c 24.039988
_cell_angle_alpha 90.000000
_cell_angle_beta 90.000000
_cell_angle_gamma 90.000000
_cell_volume 5730.858541
_symmetry_space_group_name_H-M "I M M A"
_symmetry_group_IT_number 74
_symmetry_cell_setting 'orthorhombic'
loop_
_space_group_symop_operation_xyz
x,y,z
-x,1/2-y,z
x,-y,-z
-x,1/2+y,-z
-x,-y,-z
x,1/2+y,-z
-x,y,z
x,1/2-y,z
1/2+x,1/2+y,1/2+z
1/2-x,-y,1/2+z
1/2+x,1/2-y,1/2-z
1/2-x,y,1/2-z
1/2-x,1/2-y,1/2-z
1/2+x,y,1/2-z
1/2-x,1/2+y,1/2+z
1/2+x,-y,1/2+z
loop_
_atom_site_type_symbol
_atom_site_label
_atom_site_fract_x
_atom_site_fract_y
_atom_site_fract_z
Si Si1 0.176891 0.191102 0.492416
Si Si2 0.675314 0.922606 0.309604
Si Si3 0.328970 0.193843 0.301494
Si Si4 0.175237 0.456683 0.190244
Si Si5 0.322957 0.660573 0.120568
Si Si6 0.672298 0.379924 0.403413
Si Si7 0.177087 0.250000 0.810112
O O1 0.229569 0.250000 0.482563
O O2 0.203135 0.175807 0.556564
O O3 0.245527 0.146153 0.455042
O O4 0.000000 0.191779 0.483031
O O5 0.500000 0.910325 0.308087
O O6 0.750000 0.909508 0.250000
O O7 0.757499 0.892675 0.358666
O O8 0.690209 0.983021 0.317416
O O9 0.500000 0.197653 0.286409
O O10 0.264546 0.250000 0.308593
O O11 0.250000 0.168054 0.250000
O O12 0.320405 0.164371 0.357917
O O13 0.250000 0.445041 0.250000
O O14 0.229092 0.427176 0.134496
O O15 0.000000 0.443805 0.195068
O O16 0.500000 0.662490 0.130267
O O17 0.238031 0.701478 0.157550
O O18 0.500000 0.390056 0.418381
O O19 0.250000 0.250000 0.750000
O O20 0.000000 0.250000 0.807083
#
# Coordination Sequence:
#
# PCOD9537533 Si02
#       7
#    16  16  16  16  16  16   8
#     4  10  22  40  58  78 108 147 188 234 283 331
#     4  10  20  36  58  86 116 149 186 226 279 341
#     4   9  17  28  43  67  99 131 168 218 274 330
#     4   9  19  35  56  83 116 148 185 235 286 335
#     4  11  22  40  60  82 115 150 186 233 279 328
#     4  10  20  34  53  78 106 142 187 233 279 331
#     4  12  24  38  60  90 120 150 183 222 275 338
#
# _framework density 18.147369000000001
#
# number of rings (size 3 to 8) (size 9 to 14) (size 15 to 20)
#    0.000    2.000    0.769    3.000    0.000    4.000 
#    0.000    2.308    0.000    4.615    0.000    0.000 
#    0.000    0.000    0.000    0.000    0.000    0.000 
#
# Total GULP energy -289794.224374 kJ/mol
# GULP energy per Si atom -5572.965853 kJ/mol
# Density = 1.810606 g / cm^3
# Si number density = 18.147369 Si / 1000 Ang^3
#
#
#
# Elastic Constant Matrix: (Units=GPa)
#
#
# Indices 1 2 3 4 5 6 
#
# 1 78.3136 39.4245 66.0577 0.0000 0.0000 0.0000
# 2 39.4245 84.1694 40.7464 0.0000 0.0000 0.0000
# 3 66.0577 40.7464 108.1190 0.0000 0.0000 0.0000
# 4 0.0000 0.0000 0.0000 34.1579 0.0000 0.0000
# 5 0.0000 0.0000 0.0000 0.0000 32.3741 0.0000
# 6 0.0000 0.0000 0.0000 0.0000 0.0000 23.7111
#
#
#
# Elastic Compliance Matrix: (Units=1/GPa)
#
#
# Indices 1 2 3 4 5 6 
#
# 1 0.028664 -0.006052 -0.015232 0.000000 0.000000 0.000000
# 2 -0.006052 0.015810 -0.002260 0.000000 0.000000 0.000000
# 3 -0.015232 -0.002260 0.019407 0.000000 0.000000 0.000000
# 4 0.000000 0.000000 0.000000 0.029276 0.000000 0.000000
# 5 0.000000 0.000000 0.000000 0.000000 0.030889 0.000000
# 6 0.000000 0.000000 0.000000 0.000000 0.000000 0.042174
#
#
# Mechanical properties :
#
#
# Convention : Reuss Voigt Hill
#
# Bulk Modulus (GPa) = 59.55291 62.56213 61.05752
# Shear Modulus (GPa) = 22.84063 26.34019 24.59041
#
# Velocity S-wave (km/s) = 3.55155 3.81394 3.68508
# Velocity P-wave (km/s) = 7.05022 7.34467 7.19895
#
# Compressibility (1/GPa) = 0.01679179
#
# Stress axis : x y z
#
# Youngs Moduli (GPa) = 34.88642 63.25128 51.52668
#
# Poissons Ratio (x) = 0.38282 0.78487
# Poissons Ratio (y) = 0.21114 0.11647
# Poissons Ratio (z) = 0.53140 0.14297
#
# Static dielectric constant tensor:
#      x y z
#    x 1.624250 0.000000 0.000000 
#    y 0.000000 1.677070 0.000000 
#    z 0.000000 0.000000 1.638160 
# 
# From -- ./inp_files/57584.got.cif
#   From: 2010.05.17/outbox.cif.g08.bks.cpg/sg74_29_cif.got.tgz:57584.got - 2010.06.03 17:57:02.
