data_PCOD9537073
_publ_section_title
;
Structure prediction by ZEFSAII (Michael W. Deem and Ramdas Pophale) SiO2 
 PCOD9537073
Probable space group: I M M A
;
_chemical_formula_sum "Si O2"
_cell_formula_units_Z 104
_cell_length_a 7.602668
_cell_length_b 26.853820
_cell_length_c 24.211606
_cell_angle_alpha 90.000000
_cell_angle_beta 90.000000
_cell_angle_gamma 90.000000
_cell_volume 4943.057896
_symmetry_space_group_name_H-M "I M M A"
_symmetry_group_IT_number 74
_symmetry_cell_setting 'orthorhombic'
loop_
_space_group_symop_operation_xyz
x,y,z
-x,1/2-y,z
x,-y,-z
-x,1/2+y,-z
-x,-y,-z
x,1/2+y,-z
-x,y,z
x,1/2-y,z
1/2+x,1/2+y,1/2+z
1/2-x,-y,1/2+z
1/2+x,1/2-y,1/2-z
1/2-x,y,1/2-z
1/2-x,1/2-y,1/2-z
1/2+x,y,1/2-z
1/2-x,1/2+y,1/2+z
1/2+x,-y,1/2+z
loop_
_atom_site_type_symbol
_atom_site_label
_atom_site_fract_x
_atom_site_fract_y
_atom_site_fract_z
Si Si1 0.213717 0.354655 0.144058
Si Si2 0.198647 0.544549 0.689667
Si Si3 0.210661 0.750000 0.814268
Si Si4 0.800850 0.498265 0.920798
Si Si5 0.286308 0.900493 0.529098
Si Si6 0.711447 0.307408 0.685738
Si Si7 0.214646 0.386094 0.907806
O O1 0.282676 0.396056 0.186094
O O2 0.278112 0.300379 0.159053
O O3 0.270637 0.370684 0.082926
O O4 0.000000 0.356058 0.146312
O O5 0.250000 0.526534 0.750000
O O6 0.309280 0.524478 0.638834
O O7 0.000000 0.530032 0.677813
O O8 0.250000 0.750000 0.750000
O O9 0.000000 0.750000 0.821733
O O10 0.726072 0.541901 0.960873
O O11 0.723139 0.443926 0.907206
O O12 0.000000 0.488263 0.939985
O O13 0.500000 0.902599 0.530445
O O14 0.238486 0.874315 0.471614
O O15 0.500000 0.305979 0.680606
O O16 0.775151 0.250000 0.676795
O O17 0.750000 0.320720 0.750000
O O18 0.775479 0.347970 0.640131
O O19 0.000000 0.386388 0.903167
#
# Coordination Sequence:
#
# PCOD9537073 Si02
#       7
#    16  16   8  16  16  16  16
#     4   9  18  33  50  71  99 130 166 205 248 294
#     4  11  21  33  49  69  96 130 167 206 251 298
#     4  10  20  32  48  72  98 128 167 208 246 286
#     4   9  17  30  49  72 100 131 163 201 243 297
#     4   8  14  27  48  73 100 129 159 197 245 293
#     4   9  18  33  51  72  99 129 163 205 250 298
#     4   9  16  28  50  78 100 126 165 202 242 294
#
# _framework density 21.039605999999999
#
# number of rings (size 3 to 8) (size 9 to 14) (size 15 to 20)
#    0.000    2.769    0.000    3.231    0.000    4.308 
#    1.385    2.308    0.000   11.077    0.000    0.000 
#    0.000    0.000    0.000    0.000    0.000    0.000 
#
# Total GULP energy -289774.440757 kJ/mol
# GULP energy per Si atom -5572.585399 kJ/mol
# Density = 2.099172 g / cm^3
# Si number density = 21.039606 Si / 1000 Ang^3
#
#
#
# Elastic Constant Matrix: (Units=GPa)
#
#
# Indices 1 2 3 4 5 6 
#
# 1 55.6357 2.5354 3.0228 0.0000 0.0000 0.0000
# 2 2.5354 122.8604 78.8017 0.0000 0.0000 0.0000
# 3 3.0228 78.8017 162.6571 0.0000 0.0000 0.0000
# 4 0.0000 0.0000 0.0000 34.5159 0.0000 0.0000
# 5 0.0000 0.0000 0.0000 0.0000 11.7951 0.0000
# 6 0.0000 0.0000 0.0000 0.0000 0.0000 -3.4305
#
#
#
# Elastic Compliance Matrix: (Units=1/GPa)
#
#
# Indices 1 2 3 4 5 6 
#
# 1 0.017997 -0.000228 -0.000224 0.000000 0.000000 0.000000
# 2 -0.000228 0.011812 -0.005718 0.000000 0.000000 0.000000
# 3 -0.000224 -0.005718 0.008922 0.000000 0.000000 0.000000
# 4 0.000000 0.000000 0.000000 0.028972 0.000000 0.000000
# 5 0.000000 0.000000 0.000000 0.000000 0.084781 0.000000
# 6 0.000000 0.000000 0.000000 0.000000 0.000000 -0.291500
#
#
# Mechanical properties :
#
#
# Convention : Reuss Voigt Hill
#
# Bulk Modulus (GPa) = 37.89203 56.65254 47.27229
# Shear Modulus (GPa) = -42.41594 25.69564 -8.36015
#
# Velocity S-wave (km/s) = -4.49486 3.49850 -1.99553
# Velocity P-wave (km/s) = 2.98152 6.58061 4.14819
#
# Compressibility (1/GPa) = 0.02639077
#
# Stress axis : x y z
#
# Youngs Moduli (GPa) = 55.56597 84.66303 112.07916
#
# Poissons Ratio (x) = 0.01927 0.02513
# Poissons Ratio (y) = 0.01265 0.64087
# Poissons Ratio (z) = 0.01246 0.48411
#
# Static dielectric constant tensor:
#      x y z
#    x 1.775470 0.000000 0.000000 
#    y 0.000000 1.780150 0.000000 
#    z 0.000000 0.000000 1.752740 
# 
# From -- ./inp_files/57616.got.cif
#   From: 2010.05.17/outbox.cif.g08.bks.cpg/sg74_29_cif.got.tgz:57616.got - 2010.06.03 17:57:02.
