data_PCOD9537834
_publ_section_title
;
Structure prediction by ZEFSAII (Michael W. Deem and Ramdas Pophale) SiO2 
 PCOD9537834
Probable space group: I M M A
;
_chemical_formula_sum "Si O2"
_cell_formula_units_Z 64
_cell_length_a 11.884342
_cell_length_b 7.983768
_cell_length_c 28.644622
_cell_angle_alpha 90.000000
_cell_angle_beta 90.000000
_cell_angle_gamma 90.000000
_cell_volume 2717.854137
_symmetry_space_group_name_H-M "I M M A"
_symmetry_group_IT_number 74
_symmetry_cell_setting 'orthorhombic'
loop_
_space_group_symop_operation_xyz
x,y,z
-x,1/2-y,z
x,-y,-z
-x,1/2+y,-z
-x,-y,-z
x,1/2+y,-z
-x,y,z
x,1/2-y,z
1/2+x,1/2+y,1/2+z
1/2-x,-y,1/2+z
1/2+x,1/2-y,1/2-z
1/2-x,y,1/2-z
1/2-x,1/2-y,1/2-z
1/2+x,y,1/2-z
1/2-x,1/2+y,1/2+z
1/2+x,-y,1/2+z
loop_
_atom_site_type_symbol
_atom_site_label
_atom_site_fract_x
_atom_site_fract_y
_atom_site_fract_z
Si Si1 0.123228 0.444633 0.082393
Si Si2 0.623755 0.558176 0.788570
Si Si3 0.154377 0.440224 0.816531
Si Si4 0.125605 0.047703 0.445576
O O1 0.124418 0.250000 0.067912
O O2 0.118982 0.458605 0.138470
O O3 0.248838 0.514726 0.070454
O O4 0.000000 0.515455 0.065785
O O5 0.500000 0.539585 0.807424
O O6 0.660420 0.750000 0.794763
O O7 0.711107 0.442565 0.813972
O O8 0.622211 0.517664 0.733433
O O9 0.116418 0.250000 0.819630
O O10 0.127583 0.250000 0.438987
O O11 0.000000 0.992458 0.426997
O O12 0.123000 0.000000 0.500000
#
# Coordination Sequence:
#
# PCOD9537834 Si02
#       4
#    16  16  16  16
#     4  10  21  37  56  79 110 148 187 225 269 327
#     4  10  20  35  55  75 100 141 189 232 276 331
#     4  11  22  34  51  77 109 142 179 229 283 329
#     4   9  19  37  60  84 110 141 177 219 270 327
#
# _framework density 23.547989999999999
#
# number of rings (size 3 to 8) (size 9 to 14) (size 15 to 20)
#    0.000    2.000    0.000    5.250    0.000    8.000 
#    0.000    2.500    0.000    0.000    0.000    0.000 
#    0.000    0.000    0.000    0.000    0.000    0.000 
#
# Total GULP energy -178323.319630 kJ/mol
# GULP energy per Si atom -5572.603738 kJ/mol
# Density = 2.349439 g / cm^3
# Si number density = 23.547990 Si / 1000 Ang^3
#
#
#
# Elastic Constant Matrix: (Units=GPa)
#
#
# Indices 1 2 3 4 5 6 
#
# 1 260.7406 28.2058 35.0621 0.0000 0.0000 0.0000
# 2 28.2058 51.7519 -14.1180 0.0000 0.0000 0.0000
# 3 35.0621 -14.1180 47.5636 0.0000 0.0000 0.0000
# 4 0.0000 0.0000 0.0000 13.9167 0.0000 0.0000
# 5 0.0000 0.0000 0.0000 0.0000 13.1194 0.0000
# 6 0.0000 0.0000 0.0000 0.0000 0.0000 -29.5767
#
#
#
# Elastic Compliance Matrix: (Units=1/GPa)
#
#
# Indices 1 2 3 4 5 6 
#
# 1 0.004913 -0.003989 -0.004806 0.000000 0.000000 0.000000
# 2 -0.003989 0.024264 0.010142 0.000000 0.000000 0.000000
# 3 -0.004806 0.010142 0.027577 0.000000 0.000000 0.000000
# 4 0.000000 0.000000 0.000000 0.071856 0.000000 0.000000
# 5 0.000000 0.000000 0.000000 0.000000 0.076223 0.000000
# 6 0.000000 0.000000 0.000000 0.000000 0.000000 -0.033810
#
#
# Mechanical properties :
#
#
# Convention : Reuss Voigt Hill
#
# Bulk Modulus (GPa) = 16.82079 50.92843 33.87461
# Shear Modulus (GPa) = 26.57549 20.21895 23.39722
#
# Velocity S-wave (km/s) = 3.36306 2.93341 3.15556
# Velocity P-wave (km/s) = 4.71582 5.75740 5.26244
#
# Compressibility (1/GPa) = 0.05945025
#
# Stress axis : x y z
#
# Youngs Moduli (GPa) = 203.54583 41.21396 36.26159
#
# Poissons Ratio (x) = 0.16439 0.17426
# Poissons Ratio (y) = 0.81186 -0.36777
# Poissons Ratio (z) = 0.97814 -0.41800
#
# Static dielectric constant tensor:
#      x y z
#    x 2.043620 0.000000 0.000000 
#    y 0.000000 1.833900 0.000000 
#    z 0.000000 0.000000 1.834990 
# 
# From -- ./inp_files/71290.got.cif
#   From: 2010.05.17/outbox.cif.g08.bks.cpg/sg74_36_cif.got.tgz:71290.got - 2010.06.03 17:57:02.
