data_PCOD9537226
_publ_section_title
;
Structure prediction by ZEFSAII (Michael W. Deem and Ramdas Pophale) SiO2 
 PCOD9537226
Probable space group: I M M A
;
_chemical_formula_sum "Si O2"
_cell_formula_units_Z 104
_cell_length_a 27.711792
_cell_length_b 8.046647
_cell_length_c 24.401768
_cell_angle_alpha 90.000000
_cell_angle_beta 90.000000
_cell_angle_gamma 90.000000
_cell_volume 5441.277235
_symmetry_space_group_name_H-M "I M M A"
_symmetry_group_IT_number 74
_symmetry_cell_setting 'orthorhombic'
loop_
_space_group_symop_operation_xyz
x,y,z
-x,1/2-y,z
x,-y,-z
-x,1/2+y,-z
-x,-y,-z
x,1/2+y,-z
-x,y,z
x,1/2-y,z
1/2+x,1/2+y,1/2+z
1/2-x,-y,1/2+z
1/2+x,1/2-y,1/2-z
1/2-x,y,1/2-z
1/2-x,1/2-y,1/2-z
1/2+x,y,1/2-z
1/2-x,1/2+y,1/2+z
1/2+x,-y,1/2+z
loop_
_atom_site_type_symbol
_atom_site_label
_atom_site_fract_x
_atom_site_fract_y
_atom_site_fract_z
Si Si1 0.641534 0.446568 0.761693
Si Si2 0.205390 0.948340 0.638036
Si Si3 0.500000 0.049776 0.563975
Si Si4 0.184435 0.548146 0.146783
Si Si5 0.054919 0.549868 0.335549
Si Si6 0.619307 0.051796 0.062647
Si Si7 0.895875 0.950578 0.063240
O O1 0.633708 0.250000 0.753302
O O2 0.681842 0.471640 0.808114
O O3 0.662383 0.512843 0.704616
O O4 0.591968 0.514279 0.788673
O O5 0.200730 0.750000 0.642995
O O6 0.171443 0.002910 0.587199
O O7 0.261261 0.992714 0.635369
O O8 0.500000 0.250000 0.567996
O O9 0.551758 0.990380 0.585470
O O10 0.500000 0.000000 0.500000
O O11 0.184889 0.750000 0.148057
O O12 0.148373 0.490069 0.099361
O O13 0.053440 0.750000 0.330530
O O14 0.079394 0.511707 0.394220
O O15 0.000000 0.487481 0.331655
O O16 0.617801 0.250000 0.064592
O O17 0.612255 0.000000 0.000000
O O18 0.896157 0.750000 0.065635
O O19 0.891366 0.000000 0.000000
#
# Coordination Sequence:
#
# PCOD9537226 Si02
#       7
#    16  16   8  16  16  16  16
#     4   9  18  34  53  74 101 133 168 206 251 301
#     4  10  21  35  52  74 100 132 169 209 252 297
#     4   8  14  28  48  66  88 122 158 192 231 278
#     4  10  20  33  50  75 103 132 167 207 253 302
#     4   9  18  34  55  78 105 137 171 210 256 304
#     4  10  21  36  54  77 104 136 174 213 255 305
#     4   9  18  32  49  71  98 129 164 202 246 293
#
# _framework density 19.113160000000001
#
# number of rings (size 3 to 8) (size 9 to 14) (size 15 to 20)
#    0.000    2.615    0.000    1.385    0.000    6.154 
#    1.385    3.077    0.000    0.000    0.000    0.000 
#    0.000    0.000    0.000    0.000    0.000    0.000 
#
# Total GULP energy -289855.998492 kJ/mol
# GULP energy per Si atom -5574.153817 kJ/mol
# Density = 1.906966 g / cm^3
# Si number density = 19.113160 Si / 1000 Ang^3
#
#
#
# Elastic Constant Matrix: (Units=GPa)
#
#
# Indices 1 2 3 4 5 6 
#
# 1 180.5342 1.1505 40.4278 0.0000 0.0000 0.0000
# 2 1.1505 14.2640 -0.9602 0.0000 0.0000 0.0000
# 3 40.4278 -0.9602 20.3689 0.0000 0.0000 0.0000
# 4 0.0000 0.0000 0.0000 16.1405 0.0000 0.0000
# 5 0.0000 0.0000 0.0000 0.0000 0.4443 0.0000
# 6 0.0000 0.0000 0.0000 0.0000 0.0000 -24.0024
#
#
#
# Elastic Compliance Matrix: (Units=1/GPa)
#
#
# Indices 1 2 3 4 5 6 
#
# 1 0.010036 -0.002157 -0.020022 0.000000 0.000000 0.000000
# 2 -0.002157 0.070794 0.007619 0.000000 0.000000 0.000000
# 3 -0.020022 0.007619 0.089192 0.000000 0.000000 0.000000
# 4 0.000000 0.000000 0.000000 0.061956 0.000000 0.000000
# 5 0.000000 0.000000 0.000000 0.000000 2.250975 0.000000
# 6 0.000000 0.000000 0.000000 0.000000 0.000000 -0.041663
#
#
# Mechanical properties :
#
#
# Convention : Reuss Voigt Hill
#
# Bulk Modulus (GPa) = 7.09709 32.93370 20.01540
# Shear Modulus (GPa) = 1.98619 10.15307 6.06963
#
# Velocity S-wave (km/s) = 1.02051 2.30730 1.78396
# Velocity P-wave (km/s) = 2.26049 4.93624 3.83903
#
# Compressibility (1/GPa) = 0.14090273
#
# Stress axis : x y z
#
# Youngs Moduli (GPa) = 99.63701 14.12554 11.21173
#
# Poissons Ratio (x) = 0.03047 0.22448
# Poissons Ratio (y) = 0.21495 -0.08543
# Poissons Ratio (z) = 1.99491 -0.10763
#
# Static dielectric constant tensor:
#      x y z
#    x 1.681670 0.000000 0.000000 
#    y 0.000000 1.683830 0.000000 
#    z 0.000000 0.000000 1.649030 
# 
# From -- ./inp_files/62322.got.cif
#   From: 2010.05.17/outbox.cif.g08.bks.cpg/sg74_32_cif.got.tgz:62322.got - 2010.06.03 17:57:02.
