data_PCOD9537293
_publ_section_title
;
Structure prediction by ZEFSAII (Michael W. Deem and Ramdas Pophale) SiO2 
 PCOD9537293
Probable space group: I M M A
;
_chemical_formula_sum "Si O2"
_cell_formula_units_Z 104
_cell_length_a 17.843321
_cell_length_b 20.237299
_cell_length_c 15.493270
_cell_angle_alpha 90.000000
_cell_angle_beta 90.000000
_cell_angle_gamma 90.000000
_cell_volume 5594.629437
_symmetry_space_group_name_H-M "I M M A"
_symmetry_group_IT_number 74
_symmetry_cell_setting 'orthorhombic'
loop_
_space_group_symop_operation_xyz
x,y,z
-x,1/2-y,z
x,-y,-z
-x,1/2+y,-z
-x,-y,-z
x,1/2+y,-z
-x,y,z
x,1/2-y,z
1/2+x,1/2+y,1/2+z
1/2-x,-y,1/2+z
1/2+x,1/2-y,1/2-z
1/2-x,y,1/2-z
1/2-x,1/2-y,1/2-z
1/2+x,y,1/2-z
1/2-x,1/2+y,1/2+z
1/2+x,-y,1/2+z
loop_
_atom_site_type_symbol
_atom_site_label
_atom_site_fract_x
_atom_site_fract_y
_atom_site_fract_z
Si Si1 0.316072 0.500000 0.500000
Si Si2 0.587898 0.171899 0.072964
Si Si3 0.735984 0.138964 0.998141
Si Si4 0.589815 0.954584 0.332117
Si Si5 0.814960 0.324973 0.820554
Si Si6 0.411722 0.417225 0.240910
Si Si7 0.809646 0.178785 0.172868
O O1 0.262283 0.563422 0.509981
O O2 0.368491 0.516490 0.417289
O O3 0.500000 0.163773 0.050926
O O4 0.598384 0.250000 0.095521
O O5 0.647097 0.151843 0.999667
O O6 0.605329 0.122246 0.152726
O O7 0.767402 0.174840 0.082982
O O8 0.775295 0.166660 0.913306
O O9 0.500000 0.952518 0.344829
O O10 0.623441 0.882435 0.314033
O O11 0.606849 0.005684 0.253410
O O12 0.844091 0.250000 0.811761
O O13 0.750000 0.335177 0.750000
O O14 0.500000 0.410778 0.253296
O O15 0.368620 0.378844 0.315798
O O16 0.847414 0.250000 0.182231
O O17 0.750000 0.172196 0.250000
#
# Coordination Sequence:
#
# PCOD9537293 Si02
#       7
#     8  16  16  16  16  16  16
#     4  10  21  36  57  84 114 154 190 246 291 338
#     4  10  20  35  57  87 125 160 186 222 278 352
#     4  11  21  37  59  85 114 152 198 237 289 347
#     4  10  21  38  60  84 114 153 192 236 294 353
#     4  10  23  42  62  83 109 146 200 262 304 334
#     4  10  20  33  51  82 122 157 183 216 270 342
#     4  11  20  31  53  85 118 151 187 224 269 344
#
# _framework density 18.589255999999999
#
# number of rings (size 3 to 8) (size 9 to 14) (size 15 to 20)
#    0.000    1.692    3.077    2.077    0.000    4.308 
#    0.000    1.154    0.000    2.769    0.000    0.000 
#    0.000    0.000    0.000    0.000    0.000    0.000 
#
# Total GULP energy -290008.298725 kJ/mol
# GULP energy per Si atom -5577.082668 kJ/mol
# Density = 1.854695 g / cm^3
# Si number density = 18.589256 Si / 1000 Ang^3
#
#
#
# Elastic Constant Matrix: (Units=GPa)
#
#
# Indices 1 2 3 4 5 6 
#
# 1 65.2696 56.3077 10.6759 0.0000 0.0000 0.0000
# 2 56.3077 158.7390 24.8285 0.0000 0.0000 0.0000
# 3 10.6759 24.8285 53.7281 0.0000 0.0000 0.0000
# 4 0.0000 0.0000 0.0000 15.3914 0.0000 0.0000
# 5 0.0000 0.0000 0.0000 0.0000 20.2038 0.0000
# 6 0.0000 0.0000 0.0000 0.0000 0.0000 29.1934
#
#
#
# Elastic Compliance Matrix: (Units=1/GPa)
#
#
# Indices 1 2 3 4 5 6 
#
# 1 0.022111 -0.007714 -0.000829 0.000000 0.000000 0.000000
# 2 -0.007714 0.009481 -0.002849 0.000000 0.000000 0.000000
# 3 -0.000829 -0.002849 0.020093 0.000000 0.000000 0.000000
# 4 0.000000 0.000000 0.000000 0.064971 0.000000 0.000000
# 5 0.000000 0.000000 0.000000 0.000000 0.049496 0.000000
# 6 0.000000 0.000000 0.000000 0.000000 0.000000 0.034254
#
#
# Mechanical properties :
#
#
# Convention : Reuss Voigt Hill
#
# Bulk Modulus (GPa) = 34.59816 51.26232 42.93024
# Shear Modulus (GPa) = 21.47541 25.35269 23.41405
#
# Velocity S-wave (km/s) = 3.40260 3.69702 3.55286
# Velocity P-wave (km/s) = 5.83860 6.77201 6.32255
#
# Compressibility (1/GPa) = 0.02890327
#
# Stress axis : x y z
#
# Youngs Moduli (GPa) = 45.22613 105.46990 49.76754
#
# Poissons Ratio (x) = 0.81355 0.04126
# Poissons Ratio (y) = 0.34885 0.14178
# Poissons Ratio (z) = 0.03749 0.30046
#
# Static dielectric constant tensor:
#      x y z
#    x 1.631390 0.000000 0.000000 
#    y 0.000000 1.671010 0.000000 
#    z 0.000000 0.000000 1.642860 
# 
# From -- ./inp_files/34330.got.cif
#   From: 2010.05.17/outbox.cif.g08.bks.cpg/sg74_18_cif.got.tgz:34330.got - 2010.06.03 17:57:02.
