data_PCOD9537540
_publ_section_title
;
Structure prediction by ZEFSAII (Michael W. Deem and Ramdas Pophale) SiO2 
 PCOD9537540
Probable space group: I M M A
;
_chemical_formula_sum "Si O2"
_cell_formula_units_Z 72
_cell_length_a 7.610624
_cell_length_b 18.263742
_cell_length_c 24.640560
_cell_angle_alpha 90.000000
_cell_angle_beta 90.000000
_cell_angle_gamma 90.000000
_cell_volume 3425.000219
_symmetry_space_group_name_H-M "I M M A"
_symmetry_group_IT_number 74
_symmetry_cell_setting 'orthorhombic'
loop_
_space_group_symop_operation_xyz
x,y,z
-x,1/2-y,z
x,-y,-z
-x,1/2+y,-z
-x,-y,-z
x,1/2+y,-z
-x,y,z
x,1/2-y,z
1/2+x,1/2+y,1/2+z
1/2-x,-y,1/2+z
1/2+x,1/2-y,1/2-z
1/2-x,y,1/2-z
1/2-x,1/2-y,1/2-z
1/2+x,y,1/2-z
1/2-x,1/2+y,1/2+z
1/2+x,-y,1/2+z
loop_
_atom_site_type_symbol
_atom_site_label
_atom_site_fract_x
_atom_site_fract_y
_atom_site_fract_z
Si Si1 0.292980 0.750000 0.313326
Si Si2 0.211140 0.540905 0.686348
Si Si3 0.785869 0.585378 0.495553
Si Si4 0.793031 0.896921 0.375434
Si Si5 0.215176 0.833776 0.604942
O O1 0.500000 0.750000 0.320008
O O2 0.250000 0.750000 0.250000
O O3 0.224413 0.676721 0.341458
O O4 0.250000 0.542215 0.750000
O O5 0.279480 0.467011 0.657106
O O6 0.272811 0.611913 0.653000
O O7 0.000000 0.540052 0.681706
O O8 0.737855 0.500000 0.500000
O O9 0.723409 0.611877 0.436568
O O10 0.727051 0.631786 0.547417
O O11 0.000000 0.588779 0.497158
O O12 0.000000 0.911962 0.382307
O O13 0.272234 0.750000 0.611286
O O14 0.000000 0.833511 0.604896
#
# Coordination Sequence:
#
# PCOD9537540 Si02
#       5
#     8  16  16  16  16
#     4  12  26  42  58  80 114 150 187 232 281 336
#     4  10  20  34  53  78 108 142 183 228 272 323
#     4   9  15  28  52  83 113 139 176 225 274 322
#     4  10  20  35  58  86 112 142 183 231 280 331
#     4   9  17  29  48  79 113 142 177 227 274 314
#
# _framework density 21.021896000000002
#
# number of rings (size 3 to 8) (size 9 to 14) (size 15 to 20)
#    0.000    2.222    2.222    1.667    1.556    3.111 
#    0.000    0.000    0.000    2.000    0.000    0.000 
#    0.000    0.000    0.000    0.000    0.000    0.000 
#
# Total GULP energy -201062.104359 kJ/mol
# GULP energy per Si atom -5585.058454 kJ/mol
# Density = 2.097405 g / cm^3
# Si number density = 21.021896 Si / 1000 Ang^3
#
#
#
# Elastic Constant Matrix: (Units=GPa)
#
#
# Indices 1 2 3 4 5 6 
#
# 1 40.8492 -5.9464 -2.5004 0.0000 0.0000 0.0000
# 2 -5.9464 177.8009 94.5869 0.0000 0.0000 0.0000
# 3 -2.5004 94.5869 189.6835 0.0000 0.0000 0.0000
# 4 0.0000 0.0000 0.0000 46.9019 0.0000 0.0000
# 5 0.0000 0.0000 0.0000 0.0000 17.8593 0.0000
# 6 0.0000 0.0000 0.0000 0.0000 0.0000 -0.2985
#
#
#
# Elastic Compliance Matrix: (Units=1/GPa)
#
#
# Indices 1 2 3 4 5 6 
#
# 1 0.024602 0.000885 -0.000117 0.000000 0.000000 0.000000
# 2 0.000885 0.007687 -0.003821 0.000000 0.000000 0.000000
# 3 -0.000117 -0.003821 0.007176 0.000000 0.000000 0.000000
# 4 0.000000 0.000000 0.000000 0.021321 0.000000 0.000000
# 5 0.000000 0.000000 0.000000 0.000000 0.055993 0.000000
# 6 0.000000 0.000000 0.000000 0.000000 0.000000 -3.350008
#
#
# Mechanical properties :
#
#
# Convention : Reuss Voigt Hill
#
# Bulk Modulus (GPa) = 29.97787 64.51266 47.24526
# Shear Modulus (GPa) = -1.55472 34.37209 16.40868
#
# Velocity S-wave (km/s) = -0.86092 4.04798 2.79687
# Velocity P-wave (km/s) = 3.64733 7.25280 5.74048
#
# Compressibility (1/GPa) = 0.03335794
#
# Stress axis : x y z
#
# Youngs Moduli (GPa) = 40.64717 130.09337 139.35408
#
# Poissons Ratio (x) = -0.11514 0.01631
# Poissons Ratio (y) = -0.03597 0.53253
# Poissons Ratio (z) = 0.00476 0.49714
#
# Static dielectric constant tensor:
#      x y z
#    x 1.816700 0.000000 0.000000 
#    y 0.000000 1.676480 0.000000 
#    z 0.000000 0.000000 1.725210 
# 
# From -- ./inp_files/56633.got.cif
#   From: 2010.05.17/outbox.cif.g08.bks.cpg/sg74_29_cif.got.tgz:56633.got - 2010.06.03 17:57:02.
