data_PCOD9537160
_publ_section_title
;
Structure prediction by ZEFSAII (Michael W. Deem and Ramdas Pophale) SiO2 
 PCOD9537160
Probable space group: I M M A
;
_chemical_formula_sum "Si O2"
_cell_formula_units_Z 88
_cell_length_a 21.242917
_cell_length_b 11.233346
_cell_length_c 19.799010
_cell_angle_alpha 90.000000
_cell_angle_beta 90.000000
_cell_angle_gamma 90.000000
_cell_volume 4724.618684
_symmetry_space_group_name_H-M "I M M A"
_symmetry_group_IT_number 74
_symmetry_cell_setting 'orthorhombic'
loop_
_space_group_symop_operation_xyz
x,y,z
-x,1/2-y,z
x,-y,-z
-x,1/2+y,-z
-x,-y,-z
x,1/2+y,-z
-x,y,z
x,1/2-y,z
1/2+x,1/2+y,1/2+z
1/2-x,-y,1/2+z
1/2+x,1/2-y,1/2-z
1/2-x,y,1/2-z
1/2-x,1/2-y,1/2-z
1/2+x,y,1/2-z
1/2-x,1/2+y,1/2+z
1/2+x,-y,1/2+z
loop_
_atom_site_type_symbol
_atom_site_label
_atom_site_fract_x
_atom_site_fract_y
_atom_site_fract_z
Si Si1 0.133230 0.545288 0.923962
Si Si2 0.573379 0.018978 0.177697
Si Si3 0.654818 0.750000 0.801314
Si Si4 0.297560 0.750000 0.649314
Si Si5 0.427558 0.611906 0.319893
Si Si6 0.000000 0.877215 0.959267
Si Si7 0.576024 0.884842 0.042790
O O1 0.184424 0.633832 0.893918
O O2 0.120509 0.433448 0.875887
O O3 0.066197 0.615730 0.920955
O O4 0.144503 0.500000 0.000000
O O5 0.500000 0.053478 0.167692
O O6 0.617094 0.133891 0.174903
O O7 0.579677 0.962143 0.251549
O O8 0.588224 0.921577 0.120376
O O9 0.662705 0.750000 0.719535
O O10 0.724828 0.750000 0.830828
O O11 0.500000 0.595546 0.343939
O O12 0.419125 0.750000 0.305137
O O13 0.000000 0.750000 0.997612
O O14 0.000000 0.000000 0.000000
O O15 0.500000 0.880616 0.033704
O O16 0.599133 0.750000 0.027088
O O17 0.598727 0.000000 0.000000
#
# Coordination Sequence:
#
# PCOD9537160 Si02
#       7
#    16  16   8   8  16   8  16
#     4  11  22  36  58  85 122 162 201 250 299 360
#     4  10  20  36  60  91 122 153 194 258 317 372
#     4  11  23  40  65  84 114 157 212 259 303 373
#     4  11  24  43  60  83 114 165 212 253 299 357
#     4  10  20  33  53  88 126 158 195 242 306 371
#     4  10  20  32  54  88 124 160 197 248 297 360
#     4   9  18  32  54  86 123 156 189 236 307 381
#
# _framework density 18.625841999999999
#
# number of rings (size 3 to 8) (size 9 to 14) (size 15 to 20)
#    0.000    1.818    3.636    0.818    2.545    2.909 
#    1.636    0.909    0.000    3.273    0.000    0.000 
#    0.000    0.000    0.000    0.000    0.000    0.000 
#
# Total GULP energy -245407.318571 kJ/mol
# GULP energy per Si atom -5577.439058 kJ/mol
# Density = 1.858345 g / cm^3
# Si number density = 18.625842 Si / 1000 Ang^3
#
#
#
# Elastic Constant Matrix: (Units=GPa)
#
#
# Indices 1 2 3 4 5 6 
#
# 1 46.2450 40.6966 28.9823 0.0000 0.0000 0.0000
# 2 40.6966 140.8902 27.9184 0.0000 0.0000 0.0000
# 3 28.9823 27.9184 75.5446 0.0000 0.0000 0.0000
# 4 0.0000 0.0000 0.0000 28.1046 0.0000 0.0000
# 5 0.0000 0.0000 0.0000 0.0000 15.3143 0.0000
# 6 0.0000 0.0000 0.0000 0.0000 0.0000 9.3604
#
#
#
# Elastic Compliance Matrix: (Units=1/GPa)
#
#
# Indices 1 2 3 4 5 6 
#
# 1 0.035411 -0.008132 -0.010580 0.000000 0.000000 0.000000
# 2 -0.008132 0.009526 -0.000401 0.000000 0.000000 0.000000
# 3 -0.010580 -0.000401 0.017444 0.000000 0.000000 0.000000
# 4 0.000000 0.000000 0.000000 0.035581 0.000000 0.000000
# 5 0.000000 0.000000 0.000000 0.000000 0.065298 0.000000
# 6 0.000000 0.000000 0.000000 0.000000 0.000000 0.106833
#
#
# Mechanical properties :
#
#
# Convention : Reuss Voigt Hill
#
# Bulk Modulus (GPa) = 41.39767 50.87491 46.13629
# Shear Modulus (GPa) = 15.80425 21.56138 18.68282
#
# Velocity S-wave (km/s) = 2.91608 3.40605 3.17055
# Velocity P-wave (km/s) = 5.79761 6.54536 6.18280
#
# Compressibility (1/GPa) = 0.02415595
#
# Stress axis : x y z
#
# Youngs Moduli (GPa) = 28.23992 104.97485 57.32568
#
# Poissons Ratio (x) = 0.85366 0.60650
# Poissons Ratio (y) = 0.22965 0.02297
# Poissons Ratio (z) = 0.29877 0.04206
#
# Static dielectric constant tensor:
#      x y z
#    x 1.626280 0.000000 0.000000 
#    y 0.000000 1.654780 0.000000 
#    z 0.000000 0.000000 1.675260 
# 
# From -- ./inp_files/45151.got.cif
#   From: 2010.05.17/outbox.cif.g08.bks.cpg/sg74_23_cif.got.tgz:45151.got - 2010.06.03 17:57:02.
