data_PCOD9537513
_publ_section_title
;
Structure prediction by ZEFSAII (Michael W. Deem and Ramdas Pophale) SiO2 
 PCOD9537513
Probable space group: I M M A
;
_chemical_formula_sum "Si O2"
_cell_formula_units_Z 88
_cell_length_a 9.440563
_cell_length_b 23.534413
_cell_length_c 22.366693
_cell_angle_alpha 90.000000
_cell_angle_beta 90.000000
_cell_angle_gamma 90.000000
_cell_volume 4969.389546
_symmetry_space_group_name_H-M "I M M A"
_symmetry_group_IT_number 74
_symmetry_cell_setting 'orthorhombic'
loop_
_space_group_symop_operation_xyz
x,y,z
-x,1/2-y,z
x,-y,-z
-x,1/2+y,-z
-x,-y,-z
x,1/2+y,-z
-x,y,z
x,1/2-y,z
1/2+x,1/2+y,1/2+z
1/2-x,-y,1/2+z
1/2+x,1/2-y,1/2-z
1/2-x,y,1/2-z
1/2-x,1/2-y,1/2-z
1/2+x,y,1/2-z
1/2-x,1/2+y,1/2+z
1/2+x,-y,1/2+z
loop_
_atom_site_type_symbol
_atom_site_label
_atom_site_fract_x
_atom_site_fract_y
_atom_site_fract_z
Si Si1 0.834448 0.527652 0.810145
Si Si2 0.671854 0.473459 0.564439
Si Si3 0.159075 0.250000 0.379300
Si Si4 0.335104 0.836103 0.690803
Si Si5 0.342688 0.750000 0.019437
Si Si6 0.331676 0.250000 0.687933
Si Si7 0.669354 0.341182 0.586501
O O1 0.750000 0.510146 0.750000
O O2 0.781237 0.504983 0.874414
O O3 0.828543 0.595958 0.813836
O O4 0.000000 0.510801 0.803504
O O5 0.720258 0.500000 0.500000
O O6 0.500000 0.478042 0.563062
O O7 0.705933 0.407176 0.576739
O O8 0.250175 0.195536 0.360547
O O9 0.144524 0.250000 0.449355
O O10 0.000000 0.250000 0.352380
O O11 0.500000 0.819838 0.692819
O O12 0.250000 0.819209 0.750000
O O13 0.500000 0.750000 0.047067
O O14 0.255233 0.804675 0.039145
O O15 0.500000 0.250000 0.698519
O O16 0.250000 0.250000 0.750000
O O17 0.299463 0.193207 0.648363
O O18 0.500000 0.335826 0.577909
#
# Coordination Sequence:
#
# PCOD9537513 Si02
#       7
#    16  16   8  16   8   8  16
#     4   9  19  35  55  81 110 144 182 222 272 325
#     4   9  18  33  57  85 111 141 184 235 276 323
#     4  11  23  35  50  73 102 136 175 221 269 319
#     4  10  20  34  53  76 104 137 176 218 263 316
#     4  10  22  37  53  76 108 141 174 217 274 327
#     4   9  18  32  51  81 110 141 177 220 274 328
#     4   9  19  36  57  80 109 140 180 227 270 324
#
# _framework density 17.708411999999999
#
# number of rings (size 3 to 8) (size 9 to 14) (size 15 to 20)
#    0.000    2.545    0.000    1.909    2.545    4.364 
#    0.000    0.909    0.000    1.091    0.000    0.000 
#    0.000    0.000    0.000    0.000    0.000    0.000 
#
# Total GULP energy -244981.674515 kJ/mol
# GULP energy per Si atom -5567.765330 kJ/mol
# Density = 1.766811 g / cm^3
# Si number density = 17.708412 Si / 1000 Ang^3
#
#
#
# Elastic Constant Matrix: (Units=GPa)
#
#
# Indices 1 2 3 4 5 6 
#
# 1 74.2171 40.5958 55.7713 0.0000 0.0000 0.0000
# 2 40.5958 96.1023 65.0035 0.0000 0.0000 0.0000
# 3 55.7713 65.0035 154.1786 0.0000 0.0000 0.0000
# 4 0.0000 0.0000 0.0000 3.8962 0.0000 0.0000
# 5 0.0000 0.0000 0.0000 0.0000 30.4274 0.0000
# 6 0.0000 0.0000 0.0000 0.0000 0.0000 16.9274
#
#
#
# Elastic Compliance Matrix: (Units=1/GPa)
#
#
# Indices 1 2 3 4 5 6 
#
# 1 0.020082 -0.004994 -0.005159 0.000000 0.000000 0.000000
# 2 -0.004994 0.015799 -0.004855 0.000000 0.000000 0.000000
# 3 -0.005159 -0.004855 0.010399 0.000000 0.000000 0.000000
# 4 0.000000 0.000000 0.000000 0.256658 0.000000 0.000000
# 5 0.000000 0.000000 0.000000 0.000000 0.032865 0.000000
# 6 0.000000 0.000000 0.000000 0.000000 0.000000 0.059076
#
#
# Mechanical properties :
#
#
# Convention : Reuss Voigt Hill
#
# Bulk Modulus (GPa) = 61.48025 71.91546 66.69785
# Shear Modulus (GPa) = 11.61941 21.12536 16.37238
#
# Velocity S-wave (km/s) = 2.56432 3.45767 3.04395
# Velocity P-wave (km/s) = 6.60009 7.52593 7.07816
#
# Compressibility (1/GPa) = 0.01626539
#
# Stress axis : x y z
#
# Youngs Moduli (GPa) = 49.79528 63.29681 96.16427
#
# Poissons Ratio (x) = 0.31608 0.49611
# Poissons Ratio (y) = 0.24866 0.46683
# Poissons Ratio (z) = 0.25689 0.30727
#
# Static dielectric constant tensor:
#      x y z
#    x 1.621930 0.000000 0.000000 
#    y 0.000000 1.613370 0.000000 
#    z 0.000000 0.000000 1.612260 
# 
# From -- ./inp_files/48811.got.cif
#   From: 2010.05.17/outbox.cif.g08.bks.cpg/sg74_25_cif.got.tgz:48811.got - 2010.06.03 17:57:02.
