data_PCOD9537434
_publ_section_title
;
Structure prediction by ZEFSAII (Michael W. Deem and Ramdas Pophale) SiO2 
 PCOD9537434
Probable space group: I M M A
;
_chemical_formula_sum "Si O2"
_cell_formula_units_Z 116
_cell_length_a 25.565226
_cell_length_b 9.030819
_cell_length_c 29.645132
_cell_angle_alpha 90.000000
_cell_angle_beta 90.000000
_cell_angle_gamma 90.000000
_cell_volume 6844.317737
_symmetry_space_group_name_H-M "I M M A"
_symmetry_group_IT_number 74
_symmetry_cell_setting 'orthorhombic'
loop_
_space_group_symop_operation_xyz
x,y,z
-x,1/2-y,z
x,-y,-z
-x,1/2+y,-z
-x,-y,-z
x,1/2+y,-z
-x,y,z
x,1/2-y,z
1/2+x,1/2+y,1/2+z
1/2-x,-y,1/2+z
1/2+x,1/2-y,1/2-z
1/2-x,y,1/2-z
1/2-x,1/2-y,1/2-z
1/2+x,y,1/2-z
1/2-x,1/2+y,1/2+z
1/2+x,-y,1/2+z
loop_
_atom_site_type_symbol
_atom_site_label
_atom_site_fract_x
_atom_site_fract_y
_atom_site_fract_z
Si Si1 0.687798 0.577295 0.369712
Si Si2 0.104291 0.413598 0.189385
Si Si3 0.862609 0.072311 0.451008
Si Si4 0.611255 0.426558 0.206735
Si Si5 0.000000 0.250000 0.168501
Si Si6 0.560961 0.073701 0.878031
Si Si7 0.779321 0.576884 0.296854
Si Si8 0.758837 0.426082 0.048279
O O1 0.681379 0.750000 0.380215
O O2 0.637993 0.516234 0.342785
O O3 0.737260 0.561351 0.336272
O O4 0.702050 0.487895 0.414413
O O5 0.131451 0.250000 0.191614
O O6 0.101112 0.467619 0.241026
O O7 0.046645 0.376465 0.171603
O O8 0.868514 0.250000 0.453451
O O9 0.801821 0.039197 0.439174
O O10 0.872581 0.000000 0.500000
O O11 0.901309 0.004671 0.414093
O O12 0.604080 0.250000 0.202332
O O13 0.574695 0.509157 0.171116
O O14 0.670617 0.474573 0.196496
O O15 0.500000 0.046321 0.888508
O O16 0.570138 0.250000 0.878697
O O17 0.796135 0.750000 0.294749
O O18 0.750000 0.542287 0.250000
O O19 0.763204 0.250000 0.044598
O O20 0.768566 0.500000 0.000000
#
# Coordination Sequence:
#
# PCOD9537434 Si02
#       8
#    16  16  16  16   4  16  16  16
#     4  11  21  34  56  85 118 151 190 231 276 334
#     4   9  20  36  57  77 106 148 188 231 277 333
#     4  10  21  39  62  85 110 147 187 233 289 347
#     4  11  22  34  55  79 109 148 191 239 289 341
#     4   8  20  40  58  74 110 148 194 228 294 320
#     4  11  25  40  55  77 106 147 198 251 298 341
#     4  10  20  34  51  77 117 156 186 227 282 343
#     4  10  21  37  59  88 122 151 183 221 278 341
#
# _framework density 16.948366
#
# number of rings (size 3 to 8) (size 9 to 14) (size 15 to 20)
#    0.414    1.379    1.379    2.897    0.966    7.172 
#    0.000    0.345    0.000    0.000    0.000    0.483 
#    0.000    0.000    0.000    0.000    0.000    0.000 
#
# Total GULP energy -323166.888372 kJ/mol
# GULP energy per Si atom -5571.842903 kJ/mol
# Density = 1.690979 g / cm^3
# Si number density = 16.948366 Si / 1000 Ang^3
#
#
#
# Elastic Constant Matrix: (Units=GPa)
#
#
# Indices 1 2 3 4 5 6 
#
# 1 51.9035 38.7353 40.0347 0.0000 0.0000 0.0000
# 2 38.7353 67.6489 51.3077 0.0000 0.0000 0.0000
# 3 40.0347 51.3077 98.7690 0.0000 0.0000 0.0000
# 4 0.0000 0.0000 0.0000 28.7668 0.0000 0.0000
# 5 0.0000 0.0000 0.0000 0.0000 17.1945 0.0000
# 6 0.0000 0.0000 0.0000 0.0000 0.0000 -79.9239
#
#
#
# Elastic Compliance Matrix: (Units=1/GPa)
#
#
# Indices 1 2 3 4 5 6 
#
# 1 0.035937 -0.015725 -0.006398 0.000000 0.000000 0.000000
# 2 -0.015725 0.031273 -0.009872 0.000000 0.000000 0.000000
# 3 -0.006398 -0.009872 0.017846 0.000000 0.000000 0.000000
# 4 0.000000 0.000000 0.000000 0.034762 0.000000 0.000000
# 5 0.000000 0.000000 0.000000 0.000000 0.058158 0.000000
# 6 0.000000 0.000000 0.000000 0.000000 0.000000 -0.012512
#
#
# Mechanical properties :
#
#
# Convention : Reuss Voigt Hill
#
# Bulk Modulus (GPa) = 47.46708 53.16408 50.31558
# Shear Modulus (GPa) = 21.14382 -0.90963 10.11709
#
# Velocity S-wave (km/s) = 3.53589 -0.73340 2.44588
# Velocity P-wave (km/s) = 6.68862 5.54249 6.14235
#
# Compressibility (1/GPa) = 0.02106723
#
# Stress axis : x y z
#
# Youngs Moduli (GPa) = 27.82674 31.97628 56.03479
#
# Poissons Ratio (x) = 0.50281 0.35851
# Poissons Ratio (y) = 0.43756 0.55316
# Poissons Ratio (z) = 0.17803 0.31566
#
# Static dielectric constant tensor:
#      x y z
#    x 1.552840 0.000000 0.000000 
#    y 0.000000 1.581120 0.000000 
#    z 0.000000 0.000000 1.563610 
# 
# From -- ./inp_files/73765.got.cif
#   From: 2010.05.17/outbox.cif.g08.bks.cpg/sg74_37_cif.got.tgz:73765.got - 2010.06.03 17:57:02.
