data_PCOD9537321
_publ_section_title
;
Structure prediction by ZEFSAII (Michael W. Deem and Ramdas Pophale) SiO2 
 PCOD9537321
Probable space group: I M M A
;
_chemical_formula_sum "Si O2"
_cell_formula_units_Z 100
_cell_length_a 7.520492
_cell_length_b 28.071900
_cell_length_c 23.519852
_cell_angle_alpha 90.000000
_cell_angle_beta 90.000000
_cell_angle_gamma 90.000000
_cell_volume 4965.381780
_symmetry_space_group_name_H-M "I M M A"
_symmetry_group_IT_number 74
_symmetry_cell_setting 'orthorhombic'
loop_
_space_group_symop_operation_xyz
x,y,z
-x,1/2-y,z
x,-y,-z
-x,1/2+y,-z
-x,-y,-z
x,1/2+y,-z
-x,y,z
x,1/2-y,z
1/2+x,1/2+y,1/2+z
1/2-x,-y,1/2+z
1/2+x,1/2-y,1/2-z
1/2-x,y,1/2-z
1/2-x,1/2-y,1/2-z
1/2+x,y,1/2-z
1/2-x,1/2+y,1/2+z
1/2+x,-y,1/2+z
loop_
_atom_site_type_symbol
_atom_site_label
_atom_site_fract_x
_atom_site_fract_y
_atom_site_fract_z
Si Si1 0.796473 0.948614 0.018260
Si Si2 0.289352 0.164628 0.188809
Si Si3 0.286712 0.803071 0.183001
Si Si4 0.000000 0.250000 0.185204
Si Si5 0.713630 0.419069 0.102563
Si Si6 0.792808 0.098385 0.635883
Si Si7 0.213309 0.998001 0.314331
O O1 0.788886 0.918673 0.960522
O O2 0.000000 0.957890 0.034982
O O3 0.715566 0.920540 0.071214
O O4 0.715850 0.000000 0.000000
O O5 0.500000 0.177724 0.186885
O O6 0.250000 0.140912 0.250000
O O7 0.342951 0.208795 0.314263
O O8 0.249952 0.127798 0.138841
O O9 0.500000 0.800871 0.175383
O O10 0.217349 0.750000 0.167888
O O11 0.250000 0.810609 0.250000
O O12 0.217840 0.849101 0.148515
O O13 0.500000 0.422948 0.097382
O O14 0.779134 0.464524 0.138790
O O15 0.715679 0.055006 0.673131
O O16 0.000000 0.101955 0.651752
O O17 0.250000 0.012719 0.250000
O O18 0.000000 0.996742 0.321204
#
# Coordination Sequence:
#
# PCOD9537321 Si02
#       7
#    16  16  16   4  16  16  16
#     4  11  23  37  58  85 111 149 197 246 293 349
#     4  11  23  38  62  93 121 158 202 245 312 368
#     4   9  18  33  55  84 115 149 189 235 283 338
#     4  12  24  40  66  90 122 162 192 268 294 364
#     4  10  22  39  58  83 116 153 194 237 291 364
#     4  10  20  35  56  80 110 153 194 232 287 349
#     4  10  20  33  52  80 115 149 182 227 287 350
#
# _framework density 20.139437999999998
#
# number of rings (size 3 to 8) (size 9 to 14) (size 15 to 20)
#    0.000    1.760    2.400    1.920    1.120    2.560 
#    0.000    0.000    1.760    0.000    0.000    0.000 
#    0.000    0.000    0.000    0.000    0.000    0.000 
#
# Total GULP energy -278586.925853 kJ/mol
# GULP energy per Si atom -5571.738517 kJ/mol
# Density = 2.009360 g / cm^3
# Si number density = 20.139438 Si / 1000 Ang^3
#
#
#
# Elastic Constant Matrix: (Units=GPa)
#
#
# Indices 1 2 3 4 5 6 
#
# 1 70.8942 24.3986 -5.3552 0.0000 0.0000 0.0000
# 2 24.3986 124.5864 37.2077 0.0000 0.0000 0.0000
# 3 -5.3552 37.2077 73.2335 0.0000 0.0000 0.0000
# 4 0.0000 0.0000 0.0000 15.7219 0.0000 0.0000
# 5 0.0000 0.0000 0.0000 0.0000 23.1304 0.0000
# 6 0.0000 0.0000 0.0000 0.0000 0.0000 -13.2877
#
#
#
# Elastic Compliance Matrix: (Units=1/GPa)
#
#
# Indices 1 2 3 4 5 6 
#
# 1 0.015737 -0.004038 0.003203 0.000000 0.000000 0.000000
# 2 -0.004038 0.010499 -0.005629 0.000000 0.000000 0.000000
# 3 0.003203 -0.005629 0.016749 0.000000 0.000000 0.000000
# 4 0.000000 0.000000 0.000000 0.063606 0.000000 0.000000
# 5 0.000000 0.000000 0.000000 0.000000 0.043233 0.000000
# 6 0.000000 0.000000 0.000000 0.000000 0.000000 -0.075258
#
#
# Mechanical properties :
#
#
# Convention : Reuss Voigt Hill
#
# Bulk Modulus (GPa) = 33.27250 42.35736 37.81493
# Shear Modulus (GPa) = 51.27424 19.27712 35.27568
#
# Velocity S-wave (km/s) = 5.05123 3.09719 4.18972
# Velocity P-wave (km/s) = 7.11174 5.81961 6.49787
#
# Compressibility (1/GPa) = 0.03005485
#
# Stress axis : x y z
#
# Youngs Moduli (GPa) = 63.54340 95.25062 59.70418
#
# Poissons Ratio (x) = 0.38466 -0.19121
# Poissons Ratio (y) = 0.25661 0.33610
# Poissons Ratio (z) = -0.20350 0.53620
#
# Static dielectric constant tensor:
#      x y z
#    x 1.765130 0.000000 0.000000 
#    y 0.000000 1.743710 0.000000 
#    z 0.000000 0.000000 1.689650 
# 
# From -- ./inp_files/49312.got.cif
#   From: 2010.05.17/outbox.cif.g08.bks.cpg/sg74_25_cif.got.tgz:49312.got - 2010.06.03 17:57:02.
