data_PCOD9537879
_publ_section_title
;
Structure prediction by ZEFSAII (Michael W. Deem and Ramdas Pophale) SiO2 
 PCOD9537879
Probable space group: I M M A
;
_chemical_formula_sum "Si O2"
_cell_formula_units_Z 96
_cell_length_a 20.891011
_cell_length_b 14.374157
_cell_length_c 16.023457
_cell_angle_alpha 90.000000
_cell_angle_beta 90.000000
_cell_angle_gamma 90.000000
_cell_volume 4811.694670
_symmetry_space_group_name_H-M "I M M A"
_symmetry_group_IT_number 74
_symmetry_cell_setting 'orthorhombic'
loop_
_space_group_symop_operation_xyz
x,y,z
-x,1/2-y,z
x,-y,-z
-x,1/2+y,-z
-x,-y,-z
x,1/2+y,-z
-x,y,z
x,1/2-y,z
1/2+x,1/2+y,1/2+z
1/2-x,-y,1/2+z
1/2+x,1/2-y,1/2-z
1/2-x,y,1/2-z
1/2-x,1/2-y,1/2-z
1/2+x,y,1/2-z
1/2-x,1/2+y,1/2+z
1/2+x,-y,1/2+z
loop_
_atom_site_type_symbol
_atom_site_label
_atom_site_fract_x
_atom_site_fract_y
_atom_site_fract_z
Si Si1 0.873585 0.638354 0.759650
Si Si2 0.572968 0.438265 0.782998
Si Si3 0.814026 0.532407 0.917449
Si Si4 0.806344 0.351159 0.414292
Si Si5 0.928759 0.393059 0.524615
Si Si6 0.691213 0.852626 0.314071
O O1 0.893572 0.750000 0.764329
O O2 0.918606 0.551106 0.728705
O O3 0.847444 0.600111 0.848802
O O4 0.822210 0.636024 0.683929
O O5 0.500000 0.416275 0.760428
O O6 0.584137 0.399794 0.876747
O O7 0.625429 0.384907 0.729104
O O8 0.747409 0.578949 0.942259
O O9 0.795125 0.436187 0.875015
O O10 0.852351 0.500000 0.000000
O O11 0.777581 0.250000 0.424625
O O12 0.871497 0.354755 0.468144
O O13 0.932756 0.500000 0.500000
O O14 0.000000 0.352528 0.510203
O O15 0.684743 0.750000 0.351483
O O16 0.750000 0.850077 0.250000
#
# Coordination Sequence:
#
# PCOD9537879 Si02
#       6
#    16  16  16  16  16  16
#     4  10  21  38  59  87 122 158 204 257 309 365
#     4  10  21  39  64  92 128 169 205 248 306 367
#     4  11  23  38  60  84 116 155 201 262 318 367
#     4  11  22  35  57  86 120 165 209 248 299 364
#     4  10  20  35  55  86 129 169 202 238 285 355
#     4  10  23  41  61  87 120 160 209 256 304 366
#
# _framework density 19.95139
#
# number of rings (size 3 to 8) (size 9 to 14) (size 15 to 20)
#    0.000    1.667    1.667    3.500    2.333    4.333 
#    0.000    3.333    0.000    8.000    0.000    9.333 
#    0.000    0.000    0.000    0.000    0.000    0.000 
#
# Total GULP energy -267314.160784 kJ/mol
# GULP energy per Si atom -5569.045016 kJ/mol
# Density = 1.990598 g / cm^3
# Si number density = 19.951390 Si / 1000 Ang^3
#
#
#
# Elastic Constant Matrix: (Units=GPa)
#
#
# Indices 1 2 3 4 5 6 
#
# 1 75.1089 21.2970 36.7195 0.0000 0.0000 0.0000
# 2 21.2970 115.0231 23.3496 0.0000 0.0000 0.0000
# 3 36.7195 23.3496 89.5411 0.0000 0.0000 0.0000
# 4 0.0000 0.0000 0.0000 -15.9849 0.0000 0.0000
# 5 0.0000 0.0000 0.0000 0.0000 12.1839 0.0000
# 6 0.0000 0.0000 0.0000 0.0000 0.0000 -2.5372
#
#
#
# Elastic Compliance Matrix: (Units=1/GPa)
#
#
# Indices 1 2 3 4 5 6 
#
# 1 0.017010 -0.001830 -0.006498 0.000000 0.000000 0.000000
# 2 -0.001830 0.009377 -0.001695 0.000000 0.000000 0.000000
# 3 -0.006498 -0.001695 0.014275 0.000000 0.000000 0.000000
# 4 0.000000 0.000000 0.000000 -0.062559 0.000000 0.000000
# 5 0.000000 0.000000 0.000000 0.000000 0.082076 0.000000
# 6 0.000000 0.000000 0.000000 0.000000 0.000000 -0.394137
#
#
# Mechanical properties :
#
#
# Convention : Reuss Voigt Hill
#
# Bulk Modulus (GPa) = 48.50793 49.15616 48.83205
# Shear Modulus (GPa) = -16.28447 11.95282 -2.16582
#
# Velocity S-wave (km/s) = -2.86003 2.45030 -1.04303
# Velocity P-wave (km/s) = 3.66871 5.71811 4.80397
#
# Compressibility (1/GPa) = 0.02061519
#
# Stress axis : x y z
#
# Youngs Moduli (GPa) = 58.78944 106.64623 70.05363
#
# Poissons Ratio (x) = 0.19520 0.45522
# Poissons Ratio (y) = 0.10760 0.11871
# Poissons Ratio (z) = 0.38203 0.18072
#
# Static dielectric constant tensor:
#      x y z
#    x 1.705400 0.000000 0.000000 
#    y 0.000000 1.696830 0.000000 
#    z 0.000000 0.000000 1.937100 
# 
# From -- ./inp_files/32373.got.cif
#   From: 2010.05.17/outbox.cif.g08.bks.cpg/sg74_17_cif.got.tgz:32373.got - 2010.06.03 17:57:02.
