data_PCOD9537277
_publ_section_title
;
Structure prediction by ZEFSAII (Michael W. Deem and Ramdas Pophale) SiO2 
 PCOD9537277
Probable space group: I M M A
;
_chemical_formula_sum "Si O2"
_cell_formula_units_Z 112
_cell_length_a 23.167930
_cell_length_b 14.377267
_cell_length_c 15.340922
_cell_angle_alpha 90.000000
_cell_angle_beta 90.000000
_cell_angle_gamma 90.000000
_cell_volume 5109.930957
_symmetry_space_group_name_H-M "I M M A"
_symmetry_group_IT_number 74
_symmetry_cell_setting 'orthorhombic'
loop_
_space_group_symop_operation_xyz
x,y,z
-x,1/2-y,z
x,-y,-z
-x,1/2+y,-z
-x,-y,-z
x,1/2+y,-z
-x,y,z
x,1/2-y,z
1/2+x,1/2+y,1/2+z
1/2-x,-y,1/2+z
1/2+x,1/2-y,1/2-z
1/2-x,y,1/2-z
1/2-x,1/2-y,1/2-z
1/2+x,y,1/2-z
1/2-x,1/2+y,1/2+z
1/2+x,-y,1/2+z
loop_
_atom_site_type_symbol
_atom_site_label
_atom_site_fract_x
_atom_site_fract_y
_atom_site_fract_z
Si Si1 0.329210 0.356779 0.116800
Si Si2 0.933741 0.863463 0.061513
Si Si3 0.726965 0.511221 0.668811
Si Si4 0.250791 0.850542 0.037367
Si Si5 0.432342 0.986943 0.895481
Si Si6 0.929557 0.856921 0.255792
Si Si7 0.145418 0.645091 0.902997
O O1 0.327472 0.250000 0.143185
O O2 0.278976 0.413947 0.163710
O O3 0.390731 0.402921 0.129598
O O4 0.310643 0.362290 0.014444
O O5 0.932078 0.750000 0.061055
O O6 0.909870 0.887577 0.158164
O O7 0.000000 0.893573 0.057191
O O8 0.901460 0.890524 0.972744
O O9 0.750000 0.452234 0.750000
O O10 0.732981 0.440235 0.590157
O O11 0.667077 0.567981 0.665062
O O12 0.250569 0.750000 0.083559
O O13 0.202291 0.844202 0.962656
O O14 0.500000 0.969289 0.877660
O O15 0.414281 0.074921 0.835208
O O16 0.426892 0.000000 0.000000
O O17 0.910922 0.750000 0.270645
O O18 0.000000 0.855491 0.251240
O O19 0.130754 0.750000 0.870538
#
# Coordination Sequence:
#
# PCOD9537277 Si02
#       7
#    16  16  16  16  16  16  16
#     4  10  21  38  57  76 105 145 188 232 276 326
#     4   8  14  27  51  83 117 152 189 233 285 335
#     4  11  22  36  58  84 111 144 183 229 283 345
#     4   9  19  37  58  78 104 139 178 226 282 335
#     4  10  20  33  51  78 112 149 189 231 279 341
#     4   8  15  29  49  77 115 154 191 235 288 340
#     4   9  17  31  54  83 114 148 188 230 272 329
#
# _framework density 21.918102999999999
#
# number of rings (size 3 to 8) (size 9 to 14) (size 15 to 20)
#    0.000    2.714    0.000    4.714    0.000    3.429 
#    0.000    2.143    0.000    2.571    0.000    2.000 
#    0.000    1.143    0.000    2.714    0.000    0.000 
#
# Total GULP energy -312197.935492 kJ/mol
# GULP energy per Si atom -5574.963134 kJ/mol
# Density = 2.186822 g / cm^3
# Si number density = 21.918103 Si / 1000 Ang^3
#
#
#
# Elastic Constant Matrix: (Units=GPa)
#
#
# Indices 1 2 3 4 5 6 
#
# 1 58.7600 15.6904 3.4521 0.0000 0.0000 0.0000
# 2 15.6904 54.6335 -12.0296 0.0000 0.0000 0.0000
# 3 3.4521 -12.0296 57.9375 0.0000 0.0000 0.0000
# 4 0.0000 0.0000 0.0000 -0.4288 0.0000 0.0000
# 5 0.0000 0.0000 0.0000 0.0000 17.3541 0.0000
# 6 0.0000 0.0000 0.0000 0.0000 0.0000 18.1309
#
#
#
# Elastic Compliance Matrix: (Units=1/GPa)
#
#
# Indices 1 2 3 4 5 6 
#
# 1 0.018730 -0.005894 -0.002340 0.000000 0.000000 0.000000
# 2 -0.005894 0.021036 0.004719 0.000000 0.000000 0.000000
# 3 -0.002340 0.004719 0.018379 0.000000 0.000000 0.000000
# 4 0.000000 0.000000 0.000000 -2.332193 0.000000 0.000000
# 5 0.000000 0.000000 0.000000 0.000000 0.057623 0.000000
# 6 0.000000 0.000000 0.000000 0.000000 0.000000 0.055154
#
#
# Mechanical properties :
#
#
# Convention : Reuss Voigt Hill
#
# Bulk Modulus (GPa) = 19.56409 20.61743 20.09076
# Shear Modulus (GPa) = -2.33951 17.95913 7.80981
#
# Velocity S-wave (km/s) = -1.03426 2.86558 1.88969
# Velocity P-wave (km/s) = 2.74210 4.51395 3.73462
#
# Compressibility (1/GPa) = 0.05111405
#
# Stress axis : x y z
#
# Youngs Moduli (GPa) = 53.39100 47.53842 54.40946
#
# Poissons Ratio (x) = 0.28020 0.12731
# Poissons Ratio (y) = 0.31470 -0.25675
# Poissons Ratio (z) = 0.12493 -0.22433
#
# Static dielectric constant tensor:
#      x y z
#    x 1.807910 0.000000 0.000000 
#    y 0.000000 1.822370 0.000000 
#    z 0.000000 0.000000 1.927920 
# 
# From -- ./inp_files/36491.got.cif
#   From: 2010.05.17/outbox.cif.g08.bks.cpg/sg74_19_cif.got.tgz:36491.got - 2010.06.03 17:57:02.
