data_PCOD9537047
_publ_section_title
;
Structure prediction by ZEFSAII (Michael W. Deem and Ramdas Pophale) SiO2 
 PCOD9537047
Probable space group: I M M A
;
_chemical_formula_sum "Si O2"
_cell_formula_units_Z 112
_cell_length_a 20.665724
_cell_length_b 14.498307
_cell_length_c 17.154537
_cell_angle_alpha 90.000000
_cell_angle_beta 90.000000
_cell_angle_gamma 90.000000
_cell_volume 5139.808254
_symmetry_space_group_name_H-M "I M M A"
_symmetry_group_IT_number 74
_symmetry_cell_setting 'orthorhombic'
loop_
_space_group_symop_operation_xyz
x,y,z
-x,1/2-y,z
x,-y,-z
-x,1/2+y,-z
-x,-y,-z
x,1/2+y,-z
-x,y,z
x,1/2-y,z
1/2+x,1/2+y,1/2+z
1/2-x,-y,1/2+z
1/2+x,1/2-y,1/2-z
1/2-x,y,1/2-z
1/2-x,1/2-y,1/2-z
1/2+x,y,1/2-z
1/2-x,1/2+y,1/2+z
1/2+x,-y,1/2+z
loop_
_atom_site_type_symbol
_atom_site_label
_atom_site_fract_x
_atom_site_fract_y
_atom_site_fract_z
Si Si1 0.388654 0.858440 0.449875
Si Si2 0.606455 0.856982 0.977906
Si Si3 0.894124 0.529835 0.372486
Si Si4 0.075909 0.145346 0.127017
Si Si5 0.760916 0.144499 0.030504
Si Si6 0.388999 0.461544 0.699997
Si Si7 0.754471 0.492335 0.168163
O O1 0.399450 0.750000 0.437818
O O2 0.415095 0.881530 0.535863
O O3 0.311210 0.874808 0.461347
O O4 0.417002 0.912126 0.376374
O O5 0.588288 0.750000 0.965730
O O6 0.684878 0.862150 0.985560
O O7 0.584243 0.899434 0.060428
O O8 0.589269 0.928412 0.908226
O O9 0.917327 0.554481 0.285547
O O10 0.815593 0.528626 0.359435
O O11 0.100037 0.250000 0.136803
O O12 0.105700 0.070350 0.183998
O O13 0.000000 0.145697 0.142659
O O14 0.772913 0.250000 0.053908
O O15 0.775899 0.073731 0.098667
O O16 0.312077 0.438600 0.693628
O O17 0.750000 0.436749 0.250000
#
# Coordination Sequence:
#
# PCOD9537047 Si02
#       7
#    16  16  16  16  16  16  16
#     4  10  20  32  47  70  97 130 173 209 244 293
#     4   9  17  31  49  67  97 136 167 202 247 290
#     4   9  19  31  45  73 102 128 170 206 240 300
#     4  10  22  38  54  74 100 130 168 211 252 298
#     4   9  16  27  43  64  92 132 174 205 240 292
#     4  11  20  31  51  72  98 133 164 207 257 295
#     4   9  17  27  41  66  99 131 166 210 249 285
#
# _framework density 21.790697000000002
#
# number of rings (size 3 to 8) (size 9 to 14) (size 15 to 20)
#    0.000    2.429    1.429    1.286    0.000    3.714 
#    0.000    2.857    0.000    5.143    0.000    2.000 
#    0.000    1.143    0.000    0.000    0.000    0.000 
#
# Total GULP energy -312063.462678 kJ/mol
# GULP energy per Si atom -5572.561834 kJ/mol
# Density = 2.174110 g / cm^3
# Si number density = 21.790697 Si / 1000 Ang^3
#
#
#
# Elastic Constant Matrix: (Units=GPa)
#
#
# Indices 1 2 3 4 5 6 
#
# 1 40.1801 -7.1106 -12.2152 0.0000 0.0000 0.0000
# 2 -7.1106 48.6371 16.8073 0.0000 0.0000 0.0000
# 3 -12.2152 16.8073 94.2016 0.0000 0.0000 0.0000
# 4 0.0000 0.0000 0.0000 3.1835 0.0000 0.0000
# 5 0.0000 0.0000 0.0000 0.0000 -2.2273 0.0000
# 6 0.0000 0.0000 0.0000 0.0000 0.0000 -3.6161
#
#
#
# Elastic Compliance Matrix: (Units=1/GPa)
#
#
# Indices 1 2 3 4 5 6 
#
# 1 0.026272 0.002839 0.002900 0.000000 0.000000 0.000000
# 2 0.002839 0.022218 -0.003596 0.000000 0.000000 0.000000
# 3 0.002900 -0.003596 0.011633 0.000000 0.000000 0.000000
# 4 0.000000 0.000000 0.000000 0.314121 0.000000 0.000000
# 5 0.000000 0.000000 0.000000 0.000000 -0.448976 0.000000
# 6 0.000000 0.000000 0.000000 0.000000 0.000000 -0.276545
#
#
# Mechanical properties :
#
#
# Convention : Reuss Voigt Hill
#
# Bulk Modulus (GPa) = 15.52579 19.77578 17.65079
# Shear Modulus (GPa) = -14.96593 11.83718 -1.56437
#
# Velocity S-wave (km/s) = -2.62354 2.33324 -0.84821
# Velocity P-wave (km/s) = 1.42718 4.04397 2.67553
#
# Compressibility (1/GPa) = 0.06440896
#
# Stress axis : x y z
#
# Youngs Moduli (GPa) = 38.06338 45.00834 85.96083
#
# Poissons Ratio (x) = -0.12776 -0.24931
# Poissons Ratio (y) = -0.10805 0.30912
# Poissons Ratio (z) = -0.11039 0.16185
#
# Static dielectric constant tensor:
#      x y z
#    x 1.884970 0.000000 0.000000 
#    y 0.000000 1.789770 0.000000 
#    z 0.000000 0.000000 1.814000 
# 
# From -- ./inp_files/37400.got.cif
#   From: 2010.05.17/outbox.cif.g08.bks.cpg/sg74_19_cif.got.tgz:37400.got - 2010.06.03 17:57:02.
