data_PCOD9537133
_publ_section_title
;
Structure prediction by ZEFSAII (Michael W. Deem and Ramdas Pophale) SiO2 
 PCOD9537133
Probable space group: I M M A
;
_chemical_formula_sum "Si O2"
_cell_formula_units_Z 104
_cell_length_a 9.585686
_cell_length_b 27.429904
_cell_length_c 21.324170
_cell_angle_alpha 90.000000
_cell_angle_beta 90.000000
_cell_angle_gamma 90.000000
_cell_volume 5606.858841
_symmetry_space_group_name_H-M "I M M A"
_symmetry_group_IT_number 74
_symmetry_cell_setting 'orthorhombic'
loop_
_space_group_symop_operation_xyz
x,y,z
-x,1/2-y,z
x,-y,-z
-x,1/2+y,-z
-x,-y,-z
x,1/2+y,-z
-x,y,z
x,1/2-y,z
1/2+x,1/2+y,1/2+z
1/2-x,-y,1/2+z
1/2+x,1/2-y,1/2-z
1/2-x,y,1/2-z
1/2-x,1/2-y,1/2-z
1/2+x,y,1/2-z
1/2-x,1/2+y,1/2+z
1/2+x,-y,1/2+z
loop_
_atom_site_type_symbol
_atom_site_label
_atom_site_fract_x
_atom_site_fract_y
_atom_site_fract_z
Si Si1 0.166697 0.584866 0.191157
Si Si2 0.155425 0.448894 0.054684
Si Si3 0.336380 0.380051 0.552420
Si Si4 0.663043 0.693049 0.966770
Si Si5 0.750000 0.094321 0.250000
Si Si6 0.159718 0.509883 0.657773
Si Si7 0.649813 0.151234 0.366258
O O1 0.250000 0.606972 0.250000
O O2 0.190442 0.613016 0.125854
O O3 0.235153 0.531558 0.181822
O O4 0.000000 0.581324 0.201997
O O5 0.279700 0.475692 0.089874
O O6 0.146354 0.397625 0.091555
O O7 0.000000 0.471658 0.061289
O O8 0.182397 0.431855 0.983803
O O9 0.500000 0.367575 0.543951
O O10 0.242331 0.340273 0.517650
O O11 0.500000 0.680456 0.966035
O O12 0.679130 0.750000 0.981563
O O13 0.729430 0.682387 0.898365
O O14 0.669111 0.130204 0.296806
O O15 0.831110 0.057056 0.296358
O O16 0.000000 0.492997 0.655837
O O17 0.500000 0.176391 0.372192
#
# Coordination Sequence:
#
# PCOD9537133 Si02
#       7
#    16  16  16  16   8  16  16
#     4  11  23  38  55  78 109 143 184 225 268 322
#     4   8  16  32  51  73 103 137 179 227 271 312
#     4   9  20  38  59  81 106 141 179 220 271 328
#     4  10  21  37  59  87 113 136 170 223 283 339
#     4  10  20  32  51  76 110 150 199 236 264 306
#     4  11  21  32  50  75 106 147 191 229 269 314
#     4   9  18  32  52  78 108 147 189 228 273 325
#
# _framework density 18.548711000000001
#
# number of rings (size 3 to 8) (size 9 to 14) (size 15 to 20)
#    0.000    2.308    0.769    2.769    0.000   10.462 
#    0.000    3.462    0.000    0.462    0.000    0.000 
#    0.000    0.000    0.000    0.000    0.000    0.000 
#
# Total GULP energy -289858.442486 kJ/mol
# GULP energy per Si atom -5574.200817 kJ/mol
# Density = 1.850649 g / cm^3
# Si number density = 18.548711 Si / 1000 Ang^3
#
#
#
# Elastic Constant Matrix: (Units=GPa)
#
#
# Indices 1 2 3 4 5 6 
#
# 1 134.9702 48.4932 71.0596 0.0000 0.0000 0.0000
# 2 48.4932 39.6620 38.5818 0.0000 0.0000 0.0000
# 3 71.0596 38.5818 122.6487 0.0000 0.0000 0.0000
# 4 0.0000 0.0000 0.0000 19.0768 0.0000 0.0000
# 5 0.0000 0.0000 0.0000 0.0000 16.4145 0.0000
# 6 0.0000 0.0000 0.0000 0.0000 0.0000 20.9368
#
#
#
# Elastic Compliance Matrix: (Units=1/GPa)
#
#
# Indices 1 2 3 4 5 6 
#
# 1 0.014498 -0.013768 -0.004069 0.000000 0.000000 0.000000
# 2 -0.013768 0.049405 -0.007565 0.000000 0.000000 0.000000
# 3 -0.004069 -0.007565 0.012890 0.000000 0.000000 0.000000
# 4 0.000000 0.000000 0.000000 0.052420 0.000000 0.000000
# 5 0.000000 0.000000 0.000000 0.000000 0.060922 0.000000
# 6 0.000000 0.000000 0.000000 0.000000 0.000000 0.047763
#
#
# Mechanical properties :
#
#
# Convention : Reuss Voigt Hill
#
# Bulk Modulus (GPa) = 38.47524 68.17224 53.32374
# Shear Modulus (GPa) = 16.81442 20.56205 18.68823
#
# Velocity S-wave (km/s) = 3.01408 3.33309 3.17759
# Velocity P-wave (km/s) = 5.73592 7.18648 6.50178
#
# Compressibility (1/GPa) = 0.02599074
#
# Stress axis : x y z
#
# Youngs Moduli (GPa) = 68.97587 20.24070 77.57801
#
# Poissons Ratio (x) = 0.27868 0.31564
# Poissons Ratio (y) = 0.94967 0.58685
# Poissons Ratio (z) = 0.28064 0.15311
#
# Static dielectric constant tensor:
#      x y z
#    x 1.648900 0.000000 0.000000 
#    y 0.000000 1.635500 0.000000 
#    z 0.000000 0.000000 1.692930 
# 
# From -- ./inp_files/49571.got.cif
#   From: 2010.05.17/outbox.cif.g08.bks.cpg/sg74_25_cif.got.tgz:49571.got - 2010.06.03 17:57:02.
