data_PCOD9537500
_publ_section_title
;
Structure prediction by ZEFSAII (Michael W. Deem and Ramdas Pophale) SiO2 
 PCOD9537500
Probable space group: I M M A
;
_chemical_formula_sum "Si O2"
_cell_formula_units_Z 88
_cell_length_a 17.261021
_cell_length_b 15.094621
_cell_length_c 18.999033
_cell_angle_alpha 90.000000
_cell_angle_beta 90.000000
_cell_angle_gamma 90.000000
_cell_volume 4950.170881
_symmetry_space_group_name_H-M "I M M A"
_symmetry_group_IT_number 74
_symmetry_cell_setting 'orthorhombic'
loop_
_space_group_symop_operation_xyz
x,y,z
-x,1/2-y,z
x,-y,-z
-x,1/2+y,-z
-x,-y,-z
x,1/2+y,-z
-x,y,z
x,1/2-y,z
1/2+x,1/2+y,1/2+z
1/2-x,-y,1/2+z
1/2+x,1/2-y,1/2-z
1/2-x,y,1/2-z
1/2-x,1/2-y,1/2-z
1/2+x,y,1/2-z
1/2-x,1/2+y,1/2+z
1/2+x,-y,1/2+z
loop_
_atom_site_type_symbol
_atom_site_label
_atom_site_fract_x
_atom_site_fract_y
_atom_site_fract_z
Si Si1 0.646158 0.000000 0.000000
Si Si2 0.588692 0.857895 0.422453
Si Si3 0.094174 0.148959 0.764693
Si Si4 0.214497 0.649606 0.673283
Si Si5 0.410698 0.000614 0.846155
Si Si6 0.224514 0.144840 0.027048
O O1 0.597255 0.015000 0.929617
O O2 0.702487 0.914856 0.994164
O O3 0.500000 0.888442 0.434006
O O4 0.586051 0.750000 0.421570
O O5 0.615944 0.883138 0.343440
O O6 0.649250 0.883808 0.482796
O O7 0.122037 0.250000 0.754196
O O8 0.000000 0.152579 0.765734
O O9 0.116352 0.083233 0.701969
O O10 0.186265 0.750000 0.661688
O O11 0.250000 0.643500 0.750000
O O12 0.144910 0.581427 0.668250
O O13 0.277522 0.632891 0.611579
O O14 0.500000 0.983003 0.828076
O O15 0.235987 0.250000 0.013154
#
# Coordination Sequence:
#
# PCOD9537500 Si02
#       6
#     8  16  16  16  16  16
#     4  10  21  34  49  70  98 130 168 210 249 290
#     4   8  14  28  51  76 102 130 158 193 243 306
#     4   8  15  28  47  74 105 130 152 187 241 302
#     4   9  19  36  54  71  96 131 169 210 253 292
#     4  10  20  34  53  74  97 129 169 210 249 291
#     4   9  18  33  51  72 100 132 164 200 247 299
#
# _framework density 17.777163000000002
#
# number of rings (size 3 to 8) (size 9 to 14) (size 15 to 20)
#    0.000    3.091    0.000    1.364    0.000    4.000 
#    0.000    1.364    0.000   10.364    0.000    0.000 
#    0.000    0.000    0.000    0.000    0.000    0.000 
#
# Total GULP energy -244988.531644 kJ/mol
# GULP energy per Si atom -5567.921174 kJ/mol
# Density = 1.773670 g / cm^3
# Si number density = 17.777163 Si / 1000 Ang^3
#
#
#
# Elastic Constant Matrix: (Units=GPa)
#
#
# Indices 1 2 3 4 5 6 
#
# 1 55.1176 36.6176 50.5387 0.0000 0.0000 0.0000
# 2 36.6176 63.5730 66.5617 0.0000 0.0000 0.0000
# 3 50.5387 66.5617 133.7229 0.0000 0.0000 0.0000
# 4 0.0000 0.0000 0.0000 22.7877 0.0000 0.0000
# 5 0.0000 0.0000 0.0000 0.0000 18.7450 0.0000
# 6 0.0000 0.0000 0.0000 0.0000 0.0000 11.8113
#
#
#
# Elastic Compliance Matrix: (Units=1/GPa)
#
#
# Indices 1 2 3 4 5 6 
#
# 1 0.031544 -0.011877 -0.006010 0.000000 0.000000 0.000000
# 2 -0.011877 0.037322 -0.014089 0.000000 0.000000 0.000000
# 3 -0.006010 -0.014089 0.016762 0.000000 0.000000 0.000000
# 4 0.000000 0.000000 0.000000 0.043883 0.000000 0.000000
# 5 0.000000 0.000000 0.000000 0.000000 0.053348 0.000000
# 6 0.000000 0.000000 0.000000 0.000000 0.000000 0.084665
#
#
# Mechanical properties :
#
#
# Convention : Reuss Voigt Hill
#
# Bulk Modulus (GPa) = 46.13052 62.20548 54.16800
# Shear Modulus (GPa) = 14.76234 17.24850 16.00542
#
# Velocity S-wave (km/s) = 2.88481 3.11828 3.00382
# Velocity P-wave (km/s) = 6.09113 6.93056 6.52436
#
# Compressibility (1/GPa) = 0.02167762
#
# Stress axis : x y z
#
# Youngs Moduli (GPa) = 31.70186 26.79403 59.65807
#
# Poissons Ratio (x) = 0.31822 0.35854
# Poissons Ratio (y) = 0.37651 0.84050
# Poissons Ratio (z) = 0.19052 0.37749
#
# Static dielectric constant tensor:
#      x y z
#    x 1.583060 0.000000 0.000000 
#    y 0.000000 1.616620 0.000000 
#    z 0.000000 0.000000 1.634710 
# 
# From -- ./inp_files/42777.got.cif
#   From: 2010.05.17/outbox.cif.g08.bks.cpg/sg74_22_cif.got.tgz:42777.got - 2010.06.03 17:57:02.
