data_PCOD9537687
_publ_section_title
;
Structure prediction by ZEFSAII (Michael W. Deem and Ramdas Pophale) SiO2 
 PCOD9537687
Probable space group: I M M A
;
_chemical_formula_sum "Si O2"
_cell_formula_units_Z 104
_cell_length_a 27.430392
_cell_length_b 16.962998
_cell_length_c 13.563965
_cell_angle_alpha 90.000000
_cell_angle_beta 90.000000
_cell_angle_gamma 90.000000
_cell_volume 6311.335765
_symmetry_space_group_name_H-M "I M M A"
_symmetry_group_IT_number 74
_symmetry_cell_setting 'orthorhombic'
loop_
_space_group_symop_operation_xyz
x,y,z
-x,1/2-y,z
x,-y,-z
-x,1/2+y,-z
-x,-y,-z
x,1/2+y,-z
-x,y,z
x,1/2-y,z
1/2+x,1/2+y,1/2+z
1/2-x,-y,1/2+z
1/2+x,1/2-y,1/2-z
1/2-x,y,1/2-z
1/2-x,1/2-y,1/2-z
1/2+x,y,1/2-z
1/2-x,1/2+y,1/2+z
1/2+x,-y,1/2+z
loop_
_atom_site_type_symbol
_atom_site_label
_atom_site_fract_x
_atom_site_fract_y
_atom_site_fract_z
Si Si1 0.797633 0.458333 0.597104
Si Si2 0.750000 0.579379 0.750000
Si Si3 0.054515 0.655034 0.895818
Si Si4 0.852421 0.081527 0.787949
Si Si5 0.789463 0.657739 0.053573
Si Si6 0.341472 0.096244 0.358819
Si Si7 0.556000 0.656647 0.373482
O O1 0.818148 0.500000 0.500000
O O2 0.766690 0.522694 0.660140
O O3 0.836779 0.426842 0.674975
O O4 0.760506 0.390658 0.562288
O O5 0.701852 0.625034 0.714175
O O6 0.054159 0.750000 0.892444
O O7 0.103496 0.626252 0.842704
O O8 0.000000 0.628196 0.863506
O O9 0.060100 0.632563 0.011399
O O10 0.817736 0.143152 0.844169
O O11 0.907026 0.108486 0.807467
O O12 0.843489 0.997472 0.840951
O O13 0.782238 0.750000 0.035373
O O14 0.823013 0.621614 0.966756
O O15 0.500000 0.646120 0.344481
O O16 0.567474 0.750000 0.369234
#
# Coordination Sequence:
#
# PCOD9537687 Si02
#       7
#    16   8  16  16  16  16  16
#     4  11  20  37  53  71 102 137 173 217 261 302
#     4  10  20  34  56  72 102 144 180 208 260 314
#     4   9  18  32  50  74 106 141 170 207 260 310
#     4  11  21  32  53  76 101 138 177 211 256 313
#     4  12  21  31  50  77 106 136 172 212 257 312
#     4  11  20  33  51  76 106 143 175 213 253 307
#     4   9  18  32  50  78 111 135 164 212 268 318
#
# _framework density 16.478287000000002
#
# number of rings (size 3 to 8) (size 9 to 14) (size 15 to 20)
#    0.000    1.538    6.154    2.308    0.000    2.462 
#    0.000    3.077    0.000    0.462    0.000    0.000 
#    0.000    9.846    0.000    0.000    0.000    0.000 
#
# Total GULP energy -289930.064952 kJ/mol
# GULP energy per Si atom -5575.578172 kJ/mol
# Density = 1.644078 g / cm^3
# Si number density = 16.478287 Si / 1000 Ang^3
#
#
#
# Elastic Constant Matrix: (Units=GPa)
#
#
# Indices 1 2 3 4 5 6 
#
# 1 127.6649 30.4091 38.4208 0.0000 0.0000 0.0000
# 2 30.4091 35.8040 30.3856 0.0000 0.0000 0.0000
# 3 38.4208 30.3856 65.7747 0.0000 0.0000 0.0000
# 4 0.0000 0.0000 0.0000 8.4575 0.0000 0.0000
# 5 0.0000 0.0000 0.0000 0.0000 28.9021 0.0000
# 6 0.0000 0.0000 0.0000 0.0000 0.0000 29.3397
#
#
#
# Elastic Compliance Matrix: (Units=1/GPa)
#
#
# Indices 1 2 3 4 5 6 
#
# 1 0.010219 -0.005943 -0.003223 0.000000 0.000000 0.000000
# 2 -0.005943 0.049398 -0.019348 0.000000 0.000000 0.000000
# 3 -0.003223 -0.019348 0.026025 0.000000 0.000000 0.000000
# 4 0.000000 0.000000 0.000000 0.118238 0.000000 0.000000
# 5 0.000000 0.000000 0.000000 0.000000 0.034600 0.000000
# 6 0.000000 0.000000 0.000000 0.000000 0.000000 0.034084
#
#
# Mechanical properties :
#
#
# Convention : Reuss Voigt Hill
#
# Bulk Modulus (GPa) = 34.95179 47.51941 41.23560
# Shear Modulus (GPa) = 14.74360 22.00840 18.37600
#
# Velocity S-wave (km/s) = 2.99445 3.65855 3.34303
# Velocity P-wave (km/s) = 5.76303 6.83717 6.32295
#
# Compressibility (1/GPa) = 0.02861084
#
# Stress axis : x y z
#
# Youngs Moduli (GPa) = 97.85896 20.24371 38.42516
#
# Poissons Ratio (x) = 0.12032 0.12386
# Poissons Ratio (y) = 0.58162 0.74347
# Poissons Ratio (z) = 0.31544 0.39168
#
# Static dielectric constant tensor:
#      x y z
#    x 1.591790 0.000000 0.000000 
#    y 0.000000 1.569850 0.000000 
#    z 0.000000 0.000000 1.549760 
# 
# From -- ./inp_files/26352.got.cif
#   From: 2010.05.17/outbox.cif.g08.bks.cpg/sg74_14_cif.got.tgz:26352.got - 2010.06.03 17:57:02.
