data_PCOD9537519
_publ_section_title
;
Structure prediction by ZEFSAII (Michael W. Deem and Ramdas Pophale) SiO2 
 PCOD9537519
Probable space group: I M M A
;
_chemical_formula_sum "Si O2"
_cell_formula_units_Z 48
_cell_length_a 19.973194
_cell_length_b 16.382232
_cell_length_c 6.657789
_cell_angle_alpha 90.000000
_cell_angle_beta 90.000000
_cell_angle_gamma 90.000000
_cell_volume 2178.465165
_symmetry_space_group_name_H-M "I M M A"
_symmetry_group_IT_number 74
_symmetry_cell_setting 'orthorhombic'
loop_
_space_group_symop_operation_xyz
x,y,z
-x,1/2-y,z
x,-y,-z
-x,1/2+y,-z
-x,-y,-z
x,1/2+y,-z
-x,y,z
x,1/2-y,z
1/2+x,1/2+y,1/2+z
1/2-x,-y,1/2+z
1/2+x,1/2-y,1/2-z
1/2-x,y,1/2-z
1/2-x,1/2-y,1/2-z
1/2+x,y,1/2-z
1/2-x,1/2+y,1/2+z
1/2+x,-y,1/2+z
loop_
_atom_site_type_symbol
_atom_site_label
_atom_site_fract_x
_atom_site_fract_y
_atom_site_fract_z
Si Si1 0.205168 0.750000 0.963841
Si Si2 0.198075 0.914818 0.074946
Si Si3 0.422032 0.419649 0.863513
Si Si4 0.143756 0.750000 0.418933
O O1 0.189502 0.843862 0.910104
O O2 0.166154 0.750000 0.182953
O O3 0.286108 0.750000 0.964149
O O4 0.250000 0.886775 0.250000
O O5 0.126864 0.931416 0.175506
O O6 0.226679 0.000000 0.000000
O O7 0.500000 0.412010 0.810562
O O8 0.397232 0.333103 0.956766
O O9 0.414046 0.500000 0.000000
#
# Coordination Sequence:
#
# PCOD9537519 Si02
#       4
#     8  16  16   8
#     4   9  16  32  52  75 100 128 173 209 237 305
#     4  11  20  34  55  76 104 133 169 209 254 297
#     4  10  20  34  53  77 103 134 171 208 249 299
#     4   9  15  30  53  74  98 134 171 203 244 299
#
# _framework density 22.033861999999999
#
# number of rings (size 3 to 8) (size 9 to 14) (size 15 to 20)
#    0.000    2.000    6.667    1.500    0.000    0.667 
#    0.000    2.500    0.000    0.000    0.000    0.000 
#    0.000    0.000    0.000    0.000    0.000    0.000 
#
# Total GULP energy -133703.509962 kJ/mol
# GULP energy per Si atom -5570.979582 kJ/mol
# Density = 2.198371 g / cm^3
# Si number density = 22.033862 Si / 1000 Ang^3
#
#
#
# Elastic Constant Matrix: (Units=GPa)
#
#
# Indices 1 2 3 4 5 6 
#
# 1 137.1655 21.9464 20.1864 0.0000 0.0000 0.0000
# 2 21.9464 180.1068 19.4863 0.0000 0.0000 0.0000
# 3 20.1864 19.4863 33.3122 0.0000 0.0000 0.0000
# 4 0.0000 0.0000 0.0000 30.4235 0.0000 0.0000
# 5 0.0000 0.0000 0.0000 0.0000 26.0290 0.0000
# 6 0.0000 0.0000 0.0000 0.0000 0.0000 32.3098
#
#
#
# Elastic Compliance Matrix: (Units=1/GPa)
#
#
# Indices 1 2 3 4 5 6 
#
# 1 0.008044 -0.000483 -0.004591 0.000000 0.000000 0.000000
# 2 -0.000483 0.005956 -0.003191 0.000000 0.000000 0.000000
# 3 -0.004591 -0.003191 0.034668 0.000000 0.000000 0.000000
# 4 0.000000 0.000000 0.000000 0.032869 0.000000 0.000000
# 5 0.000000 0.000000 0.000000 0.000000 0.038419 0.000000
# 6 0.000000 0.000000 0.000000 0.000000 0.000000 0.030950
#
#
# Mechanical properties :
#
#
# Convention : Reuss Voigt Hill
#
# Bulk Modulus (GPa) = 31.11797 52.64695 41.88246
# Shear Modulus (GPa) = 28.06613 37.01683 32.54148
#
# Velocity S-wave (km/s) = 3.57287 4.10322 3.84720
# Velocity P-wave (km/s) = 5.58336 6.81132 6.22768
#
# Compressibility (1/GPa) = 0.03213577
#
# Stress axis : x y z
#
# Youngs Moduli (GPa) = 124.32374 167.88548 28.84492
#
# Poissons Ratio (x) = 0.08115 0.13244
# Poissons Ratio (y) = 0.06009 0.09205
# Poissons Ratio (z) = 0.57082 0.53578
#
# Static dielectric constant tensor:
#      x y z
#    x 1.745110 0.000000 0.000000 
#    y 0.000000 1.920720 0.000000 
#    z 0.000000 0.000000 1.971780 
# 
# From -- ./inp_files/9857.got.cif
#   From: 2010.05.17/outbox.cif.g08.bks.cpg/sg74_5_cif.got.tgz:9857.got - 2010.06.03 17:57:02.
