data_PCOD9537279
_publ_section_title
;
Structure prediction by ZEFSAII (Michael W. Deem and Ramdas Pophale) SiO2 
 PCOD9537279
Probable space group: I M M A
;
_chemical_formula_sum "Si O2"
_cell_formula_units_Z 88
_cell_length_a 17.121070
_cell_length_b 26.589480
_cell_length_c 10.439274
_cell_angle_alpha 90.000000
_cell_angle_beta 90.000000
_cell_angle_gamma 90.000000
_cell_volume 4752.378732
_symmetry_space_group_name_H-M "I M M A"
_symmetry_group_IT_number 74
_symmetry_cell_setting 'orthorhombic'
loop_
_space_group_symop_operation_xyz
x,y,z
-x,1/2-y,z
x,-y,-z
-x,1/2+y,-z
-x,-y,-z
x,1/2+y,-z
-x,y,z
x,1/2-y,z
1/2+x,1/2+y,1/2+z
1/2-x,-y,1/2+z
1/2+x,1/2-y,1/2-z
1/2-x,y,1/2-z
1/2-x,1/2-y,1/2-z
1/2+x,y,1/2-z
1/2-x,1/2+y,1/2+z
1/2+x,-y,1/2+z
loop_
_atom_site_type_symbol
_atom_site_label
_atom_site_fract_x
_atom_site_fract_y
_atom_site_fract_z
Si Si1 0.589747 0.094377 0.674695
Si Si2 0.417309 0.806749 0.826414
Si Si3 0.250000 0.349066 0.750000
Si Si4 0.870106 0.118409 0.113880
Si Si5 0.679819 0.993839 0.649623
Si Si6 0.759316 0.693301 0.527447
O O1 0.500000 0.102314 0.722586
O O2 0.667459 0.119796 0.739847
O O3 0.592227 0.113138 0.526748
O O4 0.612801 0.035395 0.672108
O O5 0.500000 0.810261 0.895750
O O6 0.411510 0.750000 0.771247
O O7 0.414687 0.848128 0.716351
O O8 0.346494 0.812729 0.922420
O O9 0.245947 0.315969 0.622993
O O10 0.852095 0.062588 0.162682
O O11 0.791211 0.150177 0.093194
O O12 0.750000 0.001961 0.750000
O O13 0.705804 0.000000 0.500000
O O14 0.732878 0.750000 0.560025
#
# Coordination Sequence:
#
# PCOD9537279 Si02
#       6
#    16  16   8  16  16  16
#     4  10  21  37  58  83 112 149 192 237 285 341
#     4  10  20  33  51  78 113 144 177 230 287 338
#     4  10  21  38  58  80 112 152 191 238 286 336
#     4  10  20  34  56  83 109 143 186 232 284 339
#     4  10  20  35  57  83 115 151 190 236 288 343
#     4  10  20  35  56  80 107 147 193 231 282 346
#
# _framework density 18.517042
#
# number of rings (size 3 to 8) (size 9 to 14) (size 15 to 20)
#    0.000    2.000    0.909    3.000    0.000    6.182 
#    0.000    0.000    0.000   10.909    0.000    0.000 
#    0.000    0.000    0.000    0.000    0.000    0.000 
#
# Total GULP energy -245185.762930 kJ/mol
# GULP energy per Si atom -5572.403703 kJ/mol
# Density = 1.847490 g / cm^3
# Si number density = 18.517042 Si / 1000 Ang^3
#
#
#
# Elastic Constant Matrix: (Units=GPa)
#
#
# Indices 1 2 3 4 5 6 
#
# 1 140.4945 41.1734 23.2257 0.0000 0.0000 0.0000
# 2 41.1734 104.3511 5.8674 -0.0001 0.0000 0.0000
# 3 23.2257 5.8674 34.6867 0.0000 -0.0001 0.0000
# 4 0.0000 -0.0001 0.0000 16.3908 -0.0001 0.0000
# 5 0.0000 0.0000 -0.0001 -0.0001 15.0350 0.0000
# 6 0.0000 0.0000 0.0000 0.0000 0.0000 21.7577
#
#
#
# Elastic Compliance Matrix: (Units=1/GPa)
#
#
# Indices 1 2 3 4 5 6 
#
# 1 0.008967 -0.003231 -0.005457 0.000000 0.000000 0.000000
# 2 -0.003231 0.010839 0.000330 0.000000 0.000000 0.000000
# 3 -0.005457 0.000330 0.032428 0.000000 0.000000 0.000000
# 4 0.000000 0.000000 0.000000 0.061010 0.000000 0.000000
# 5 0.000000 0.000000 0.000000 0.000000 0.066512 0.000000
# 6 0.000000 0.000000 0.000000 0.000000 0.000000 0.045961
#
#
# Mechanical properties :
#
#
# Convention : Reuss Voigt Hill
#
# Bulk Modulus (GPa) = 28.15567 46.67392 37.41479
# Shear Modulus (GPa) = 19.66396 24.58776 22.12586
#
# Velocity S-wave (km/s) = 3.26228 3.64791 3.46047
# Velocity P-wave (km/s) = 5.42478 6.55772 6.01797
#
# Compressibility (1/GPa) = 0.03551682
#
# Stress axis : x y z
#
# Youngs Moduli (GPa) = 111.52207 92.25627 30.83765
#
# Poissons Ratio (x) = 0.29809 0.16830
# Poissons Ratio (y) = 0.36034 -0.01018
# Poissons Ratio (z) = 0.60863 -0.03044
#
# Static dielectric constant tensor:
#      x y z
#    x 1.666290 0.000000 0.000000 
#    y 0.000000 1.639970 0.000000 
#    z 0.000000 0.000000 1.626050 
# 
# From -- ./inp_files/20637.got.cif
#   From: 2010.05.17/outbox.cif.g08.bks.cpg/sg74_11_cif.got.tgz:20637.got - 2010.06.03 17:57:02.
