data_PCOD9537821
_publ_section_title
;
Structure prediction by ZEFSAII (Michael W. Deem and Ramdas Pophale) SiO2 
 PCOD9537821
Probable space group: I M M A
;
_chemical_formula_sum "Si O2"
_cell_formula_units_Z 120
_cell_length_a 28.340247
_cell_length_b 8.727846
_cell_length_c 28.538515
_cell_angle_alpha 90.000000
_cell_angle_beta 90.000000
_cell_angle_gamma 90.000000
_cell_volume 7058.982034
_symmetry_space_group_name_H-M "I M M A"
_symmetry_group_IT_number 74
_symmetry_cell_setting 'orthorhombic'
loop_
_space_group_symop_operation_xyz
x,y,z
-x,1/2-y,z
x,-y,-z
-x,1/2+y,-z
-x,-y,-z
x,1/2+y,-z
-x,y,z
x,1/2-y,z
1/2+x,1/2+y,1/2+z
1/2-x,-y,1/2+z
1/2+x,1/2-y,1/2-z
1/2-x,y,1/2-z
1/2-x,1/2-y,1/2-z
1/2+x,y,1/2-z
1/2-x,1/2+y,1/2+z
1/2+x,-y,1/2+z
loop_
_atom_site_type_symbol
_atom_site_label
_atom_site_fract_x
_atom_site_fract_y
_atom_site_fract_z
Si Si1 0.224615 0.066120 0.951437
Si Si2 0.669823 0.433836 0.050152
Si Si3 0.000000 0.434197 0.447681
Si Si4 0.213940 0.423046 0.706023
Si Si5 0.445651 0.934273 0.214750
Si Si6 0.300756 0.434607 0.649307
Si Si7 0.137091 0.069551 0.231674
Si Si8 0.587970 0.934612 0.110625
O O1 0.229467 0.250000 0.954445
O O2 0.276748 0.994484 0.945385
O O3 0.194478 0.028678 0.905250
O O4 0.205233 0.000000 0.000000
O O5 0.668949 0.750000 0.950913
O O6 0.636772 0.498464 0.091104
O O7 0.652098 0.500000 0.000000
O O8 0.000000 0.500000 0.500000
O O9 0.045942 0.496807 0.420767
O O10 0.000000 0.250000 0.448294
O O11 0.197262 0.250000 0.694801
O O12 0.250000 0.412406 0.750000
O O13 0.247928 0.484183 0.665440
O O14 0.171232 0.522033 0.725055
O O15 0.500000 0.984864 0.216467
O O16 0.444796 0.750000 0.217544
O O17 0.423504 0.976087 0.164317
O O18 0.413505 0.001015 0.255751
O O19 0.301186 0.250000 0.655087
O O20 0.338681 0.502539 0.684922
O O21 0.135012 0.250000 0.227835
O O22 0.588233 0.750000 0.106762
#
# Coordination Sequence:
#
# PCOD9537821 Si02
#       8
#    16  16   8  16  16  16  16  16
#     4  10  20  35  54  78 106 142 179 215 257 303
#     4  11  22  36  52  74 101 134 173 217 266 313
#     4  12  24  38  56  76  98 124 162 220 279 328
#     4   8  15  30  49  70  97 134 173 208 246 297
#     4  10  22  41  60  75  97 135 176 213 263 328
#     4   9  19  35  54  74 102 142 181 211 250 310
#     4  11  22  33  51  80 108 133 166 217 270 309
#     4  11  22  39  57  74  95 127 173 218 266 321
#
# _framework density 16.999617000000001
#
# number of rings (size 3 to 8) (size 9 to 14) (size 15 to 20)
#    0.000    1.867    0.667    5.800    1.867    4.800 
#    0.000    0.000    0.000    0.000    0.000    0.000 
#    0.000    0.533    0.000    1.733    0.000    2.133 
#
# Total GULP energy -335068.978120 kJ/mol
# GULP energy per Si atom -5584.482969 kJ/mol
# Density = 1.696093 g / cm^3
# Si number density = 16.999617 Si / 1000 Ang^3
#
#
#
# Elastic Constant Matrix: (Units=GPa)
#
#
# Indices 1 2 3 4 5 6 
#
# 1 70.8175 32.1896 54.6810 0.0000 0.0000 0.0000
# 2 32.1896 73.9268 44.5936 0.0000 0.0000 0.0000
# 3 54.6810 44.5936 127.1503 0.0000 0.0000 0.0000
# 4 0.0000 0.0000 0.0000 21.2013 0.0000 0.0000
# 5 0.0000 0.0000 0.0000 0.0000 27.3590 0.0000
# 6 0.0000 0.0000 0.0000 0.0000 0.0000 18.4358
#
#
#
# Elastic Compliance Matrix: (Units=1/GPa)
#
#
# Indices 1 2 3 4 5 6 
#
# 1 0.022524 -0.005028 -0.007923 0.000000 0.000000 0.000000
# 2 -0.005028 0.018279 -0.004248 0.000000 0.000000 0.000000
# 3 -0.007923 -0.004248 0.012762 0.000000 0.000000 0.000000
# 4 0.000000 0.000000 0.000000 0.047167 0.000000 0.000000
# 5 0.000000 0.000000 0.000000 0.000000 0.036551 0.000000
# 6 0.000000 0.000000 0.000000 0.000000 0.000000 0.054242
#
#
# Mechanical properties :
#
#
# Convention : Reuss Voigt Hill
#
# Bulk Modulus (GPa) = 52.17627 59.42477 55.80052
# Shear Modulus (GPa) = 21.52271 22.76125 22.14198
#
# Velocity S-wave (km/s) = 3.56205 3.66311 3.61293
# Velocity P-wave (km/s) = 6.90484 7.27486 7.09226
#
# Compressibility (1/GPa) = 0.01916580
#
# Stress axis : x y z
#
# Youngs Moduli (GPa) = 44.39712 54.70769 78.35824
#
# Poissons Ratio (x) = 0.27509 0.62083
# Poissons Ratio (y) = 0.22324 0.33289
# Poissons Ratio (z) = 0.35176 0.23241
#
# Static dielectric constant tensor:
#      x y z
#    x 1.567370 0.000000 0.000000 
#    y 0.000000 1.568580 0.000000 
#    z 0.000000 0.000000 1.602540 
# 
# From -- ./inp_files/69028.got.cif
#   From: 2010.05.17/outbox.cif.g08.bks.cpg/sg74_35_cif.got.tgz:69028.got - 2010.06.03 17:57:02.
