data_PCOD9537264
_publ_section_title
;
Structure prediction by ZEFSAII (Michael W. Deem and Ramdas Pophale) SiO2 
 PCOD9537264
Probable space group: I M M A
;
_chemical_formula_sum "Si O2"
_cell_formula_units_Z 88
_cell_length_a 15.466041
_cell_length_b 12.105141
_cell_length_c 27.178842
_cell_angle_alpha 90.000000
_cell_angle_beta 90.000000
_cell_angle_gamma 90.000000
_cell_volume 5088.384940
_symmetry_space_group_name_H-M "I M M A"
_symmetry_group_IT_number 74
_symmetry_cell_setting 'orthorhombic'
loop_
_space_group_symop_operation_xyz
x,y,z
-x,1/2-y,z
x,-y,-z
-x,1/2+y,-z
-x,-y,-z
x,1/2+y,-z
-x,y,z
x,1/2-y,z
1/2+x,1/2+y,1/2+z
1/2-x,-y,1/2+z
1/2+x,1/2-y,1/2-z
1/2-x,y,1/2-z
1/2-x,1/2-y,1/2-z
1/2+x,y,1/2-z
1/2-x,1/2+y,1/2+z
1/2+x,-y,1/2+z
loop_
_atom_site_type_symbol
_atom_site_label
_atom_site_fract_x
_atom_site_fract_y
_atom_site_fract_z
Si Si1 0.906201 0.618692 0.360398
Si Si2 0.403678 0.750000 0.627205
Si Si3 0.904469 0.936784 0.789608
Si Si4 0.900287 0.447981 0.447869
Si Si5 0.230251 0.628004 0.193253
Si Si6 0.705079 0.250000 0.102393
Si Si7 0.338961 0.250000 0.219775
O O1 0.903213 0.750000 0.369581
O O2 0.903257 0.548893 0.409778
O O3 0.820372 0.590698 0.330595
O O4 0.000000 0.595610 0.336074
O O5 0.500000 0.750000 0.602033
O O6 0.403009 0.647077 0.664533
O O7 0.310437 0.750000 0.599923
O O8 0.883764 0.861102 0.741431
O O9 0.000000 0.983251 0.783155
O O10 0.839906 0.032533 0.805662
O O11 0.873261 0.500000 0.500000
O O12 0.837818 0.355401 0.424838
O O13 0.000000 0.405533 0.452782
O O14 0.205105 0.750000 0.172976
O O15 0.250000 0.642845 0.250000
O O16 0.677617 0.250000 0.160990
O O17 0.250000 0.250000 0.250000
#
# Coordination Sequence:
#
# PCOD9537264 Si02
#       7
#    16   8  16  16  16   8   8
#     4   9  19  36  57  76 103 149 192 231 283 332
#     4   9  19  35  55  86 114 145 181 230 289 342
#     4  10  20  33  51  76 116 154 182 225 285 333
#     4  10  23  38  56  85 118 146 186 241 289 340
#     4  10  21  34  49  73 107 147 193 237 270 327
#     4  12  22  37  64  85 113 156 194 229 294 357
#     4  11  21  35  55  84 119 149 186 240 282 340
#
# _framework density 17.294288999999999
#
# number of rings (size 3 to 8) (size 9 to 14) (size 15 to 20)
#    0.000    2.000    1.818    2.727    3.818    2.545 
#    0.000    1.818    0.000    0.545    0.000    0.000 
#    0.000    0.000    0.000    0.000    0.000    0.000 
#
# Total GULP energy -245043.620585 kJ/mol
# GULP energy per Si atom -5569.173195 kJ/mol
# Density = 1.725493 g / cm^3
# Si number density = 17.294289 Si / 1000 Ang^3
#
#
#
# Elastic Constant Matrix: (Units=GPa)
#
#
# Indices 1 2 3 4 5 6 
#
# 1 166.8646 82.6766 58.2192 0.0000 0.0000 0.0000
# 2 82.6766 81.4085 35.6520 0.0000 0.0000 0.0000
# 3 58.2192 35.6520 86.5216 0.0000 0.0000 0.0000
# 4 0.0000 0.0000 0.0000 12.3649 0.0000 0.0000
# 5 0.0000 0.0000 0.0000 0.0000 20.7002 0.0000
# 6 0.0000 0.0000 0.0000 0.0000 0.0000 39.2324
#
#
#
# Elastic Compliance Matrix: (Units=1/GPa)
#
#
# Indices 1 2 3 4 5 6 
#
# 1 0.013146 -0.011564 -0.004081 0.000000 0.000000 0.000000
# 2 -0.011564 0.025160 -0.002586 0.000000 0.000000 0.000000
# 3 -0.004081 -0.002586 0.015370 0.000000 0.000000 0.000000
# 4 0.000000 0.000000 0.000000 0.080874 0.000000 0.000000
# 5 0.000000 0.000000 0.000000 0.000000 0.048309 0.000000
# 6 0.000000 0.000000 0.000000 0.000000 0.000000 0.025489
#
#
# Mechanical properties :
#
#
# Convention : Reuss Voigt Hill
#
# Bulk Modulus (GPa) = 58.09290 76.43227 67.26259
# Shear Modulus (GPa) = 19.95618 25.00929 22.48273
#
# Velocity S-wave (km/s) = 3.40062 3.80689 3.60948
# Velocity P-wave (km/s) = 7.00590 7.97585 7.50656
#
# Compressibility (1/GPa) = 0.01721381
#
# Stress axis : x y z
#
# Youngs Moduli (GPa) = 76.06706 39.74498 65.06357
#
# Poissons Ratio (x) = 0.45961 0.26552
# Poissons Ratio (y) = 0.87963 0.16828
# Poissons Ratio (z) = 0.31043 0.10280
#
# Static dielectric constant tensor:
#      x y z
#    x 1.624520 0.000000 0.000000 
#    y 0.000000 1.722630 0.000000 
#    z 0.000000 0.000000 1.549830 
# 
# From -- ./inp_files/58688.got.cif
#   From: 2010.05.17/outbox.cif.g08.bks.cpg/sg74_30_cif.got.tgz:58688.got - 2010.06.03 17:57:02.
