data_PCOD9537549
_publ_section_title
;
Structure prediction by ZEFSAII (Michael W. Deem and Ramdas Pophale) SiO2 
 PCOD9537549
Probable space group: I M M A
;
_chemical_formula_sum "Si O2"
_cell_formula_units_Z 96
_cell_length_a 8.688006
_cell_length_b 24.142937
_cell_length_c 26.088514
_cell_angle_alpha 90.000000
_cell_angle_beta 90.000000
_cell_angle_gamma 90.000000
_cell_volume 5472.169683
_symmetry_space_group_name_H-M "I M M A"
_symmetry_group_IT_number 74
_symmetry_cell_setting 'orthorhombic'
loop_
_space_group_symop_operation_xyz
x,y,z
-x,1/2-y,z
x,-y,-z
-x,1/2+y,-z
-x,-y,-z
x,1/2+y,-z
-x,y,z
x,1/2-y,z
1/2+x,1/2+y,1/2+z
1/2-x,-y,1/2+z
1/2+x,1/2-y,1/2-z
1/2-x,y,1/2-z
1/2-x,1/2-y,1/2-z
1/2+x,y,1/2-z
1/2-x,1/2+y,1/2+z
1/2+x,-y,1/2+z
loop_
_atom_site_type_symbol
_atom_site_label
_atom_site_fract_x
_atom_site_fract_y
_atom_site_fract_z
Si Si1 0.687335 0.250000 0.944816
Si Si2 0.684141 0.367793 0.901425
Si Si3 0.685682 0.439828 0.306020
Si Si4 0.815691 0.432352 0.806029
Si Si5 0.185405 0.935481 0.003735
Si Si6 0.685837 0.633714 0.597928
Si Si7 0.815418 0.750000 0.564116
O O1 0.500000 0.250000 0.945603
O O2 0.737065 0.305846 0.916312
O O3 0.737260 0.250000 0.004343
O O4 0.500000 0.367483 0.897441
O O5 0.753894 0.391772 0.849438
O O6 0.735386 0.406903 0.948095
O O7 0.500000 0.438406 0.304061
O O8 0.750000 0.425698 0.250000
O O9 0.730365 0.503654 0.317795
O O10 0.736479 0.398441 0.350843
O O11 0.750000 0.418981 0.750000
O O12 0.000000 0.430316 0.804805
O O13 0.227009 0.902987 0.951837
O O14 0.000000 0.931976 0.010122
O O15 0.226120 0.000000 0.000000
O O16 0.500000 0.637734 0.599172
O O17 0.754785 0.694474 0.590812
O O18 0.000000 0.750000 0.564374
#
# Coordination Sequence:
#
# PCOD9537549 Si02
#       7
#     8  16  16  16  16  16   8
#     4   9  20  37  54  75 110 147 182 228 276 317
#     4  11  21  36  56  80 110 145 184 227 275 326
#     4   9  19  36  58  82 112 144 179 224 274 326
#     4  10  20  37  59  85 114 146 182 224 274 328
#     4  10  20  34  53  79 111 143 176 221 277 333
#     4  10  20  35  55  80 109 143 182 224 271 327
#     4  11  21  37  56  77 108 147 186 230 274 318
#
# _framework density 17.543315
#
# number of rings (size 3 to 8) (size 9 to 14) (size 15 to 20)
#    0.000    2.000    1.667    2.250    0.000    4.333 
#    0.000    4.167    0.000    0.000    0.000    0.000 
#    0.000    0.000    0.000    0.000    0.000    0.000 
#
# Total GULP energy -268019.599812 kJ/mol
# GULP energy per Si atom -5583.741663 kJ/mol
# Density = 1.750339 g / cm^3
# Si number density = 17.543315 Si / 1000 Ang^3
#
#
#
# Elastic Constant Matrix: (Units=GPa)
#
#
# Indices 1 2 3 4 5 6 
#
# 1 26.2664 38.2899 39.8214 0.0000 0.0000 0.0000
# 2 38.2899 151.4347 99.1623 0.0000 0.0000 0.0000
# 3 39.8214 99.1623 153.6954 0.0000 0.0000 0.0000
# 4 0.0000 0.0000 0.0000 17.3875 0.0000 0.0000
# 5 0.0000 0.0000 0.0000 0.0000 33.0205 0.0000
# 6 0.0000 0.0000 0.0000 0.0000 0.0000 8.1951
#
#
#
# Elastic Compliance Matrix: (Units=1/GPa)
#
#
# Indices 1 2 3 4 5 6 
#
# 1 0.070750 -0.010191 -0.011756 0.000000 0.000000 0.000000
# 2 -0.010191 0.012902 -0.005684 0.000000 0.000000 0.000000
# 3 -0.011756 -0.005684 0.013219 0.000000 0.000000 0.000000
# 4 0.000000 0.000000 0.000000 0.057513 0.000000 0.000000
# 5 0.000000 0.000000 0.000000 0.000000 0.030284 0.000000
# 6 0.000000 0.000000 0.000000 0.000000 0.000000 0.122024
#
#
# Mechanical properties :
#
#
# Convention : Reuss Voigt Hill
#
# Bulk Modulus (GPa) = 24.03264 76.21598 50.12431
# Shear Modulus (GPa) = 13.30413 21.99549 17.64981
#
# Velocity S-wave (km/s) = 2.75682 3.54472 3.17530
# Velocity P-wave (km/s) = 4.88489 7.76480 6.48669
#
# Compressibility (1/GPa) = 0.04161008
#
# Stress axis : x y z
#
# Youngs Moduli (GPa) = 14.13432 77.50591 75.64669
#
# Poissons Ratio (x) = 0.78987 0.88927
# Poissons Ratio (y) = 0.14405 0.42997
# Poissons Ratio (z) = 0.16616 0.44054
#
# Static dielectric constant tensor:
#      x y z
#    x 1.587830 0.000000 0.000000 
#    y 0.000000 1.582050 0.000000 
#    z 0.000000 0.000000 1.568260 
# 
# From -- ./inp_files/57321.got.cif
#   From: 2010.05.17/outbox.cif.g08.bks.cpg/sg74_29_cif.got.tgz:57321.got - 2010.06.03 17:57:02.
