data_PCOD9537008
_publ_section_title
;
Structure prediction by ZEFSAII (Michael W. Deem and Ramdas Pophale) SiO2 
 PCOD9537008
Probable space group: I M M A
;
_chemical_formula_sum "Si O2"
_cell_formula_units_Z 104
_cell_length_a 32.774431
_cell_length_b 8.503946
_cell_length_c 21.337517
_cell_angle_alpha 90.000000
_cell_angle_beta 90.000000
_cell_angle_gamma 90.000000
_cell_volume 5947.021855
_symmetry_space_group_name_H-M "I M M A"
_symmetry_group_IT_number 74
_symmetry_cell_setting 'orthorhombic'
loop_
_space_group_symop_operation_xyz
x,y,z
-x,1/2-y,z
x,-y,-z
-x,1/2+y,-z
-x,-y,-z
x,1/2+y,-z
-x,y,z
x,1/2-y,z
1/2+x,1/2+y,1/2+z
1/2-x,-y,1/2+z
1/2+x,1/2-y,1/2-z
1/2-x,y,1/2-z
1/2-x,1/2-y,1/2-z
1/2+x,y,1/2-z
1/2-x,1/2+y,1/2+z
1/2+x,-y,1/2+z
loop_
_atom_site_type_symbol
_atom_site_label
_atom_site_fract_x
_atom_site_fract_y
_atom_site_fract_z
Si Si1 0.690300 0.438293 0.932172
Si Si2 0.363851 0.438454 0.181320
Si Si3 0.571581 0.436897 0.342390
Si Si4 0.285198 0.059972 0.568565
Si Si5 0.841767 0.564968 0.183100
Si Si6 0.955120 0.562522 0.700166
Si Si7 0.500000 0.060654 0.430812
O O1 0.688997 0.250000 0.931758
O O2 0.662918 0.502901 0.876236
O O3 0.737747 0.487321 0.924414
O O4 0.676525 0.500000 0.000000
O O5 0.365755 0.250000 0.181813
O O6 0.343741 0.489516 0.247589
O O7 0.411088 0.498279 0.176038
O O8 0.580727 0.250000 0.349127
O O9 0.613137 0.532204 0.343098
O O10 0.549812 0.454121 0.275100
O O11 0.540303 0.491189 0.394605
O O12 0.287339 0.250000 0.567154
O O13 0.310512 0.005696 0.629646
O O14 0.299415 0.000000 0.500000
O O15 0.834291 0.750000 0.191509
O O16 0.955953 0.750000 0.686664
O O17 0.000000 0.498867 0.681037
O O18 0.500000 0.250000 0.428273
O O19 0.500000 0.000000 0.500000
#
# Coordination Sequence:
#
# PCOD9537008 Si02
#       7
#    16  16  16  16  16  16   8
#     4  10  20  37  58  78 104 136 172 212 258 312
#     4  10  20  33  53  82 109 136 173 211 257 310
#     4   9  17  31  49  67  91 128 170 210 257 305
#     4   9  20  36  54  74  99 138 179 216 261 314
#     4  10  20  34  51  75 106 135 170 218 267 308
#     4   8  13  26  50  73  94 124 163 203 243 293
#     4  10  20  32  46  64  92 130 173 216 259 310
#
# _framework density 17.487743999999999
#
# number of rings (size 3 to 8) (size 9 to 14) (size 15 to 20)
#    0.000    2.615    0.769    2.308    0.000    3.692 
#    0.000    6.154    0.000    1.846    0.000    0.000 
#    0.000    0.000    0.000    0.000    0.000    0.000 
#
# Total GULP energy -289684.361750 kJ/mol
# GULP energy per Si atom -5570.853111 kJ/mol
# Density = 1.744794 g / cm^3
# Si number density = 17.487744 Si / 1000 Ang^3
#
#
#
# Elastic Constant Matrix: (Units=GPa)
#
#
# Indices 1 2 3 4 5 6 
#
# 1 102.9250 20.3084 85.4719 0.0000 0.0000 0.0000
# 2 20.3084 23.3136 24.7273 0.0000 0.0000 0.0000
# 3 85.4719 24.7273 134.5737 0.0000 0.0000 0.0000
# 4 0.0000 0.0000 0.0000 30.5357 0.0000 0.0000
# 5 0.0000 0.0000 0.0000 0.0000 43.0490 0.0000
# 6 0.0000 0.0000 0.0000 0.0000 0.0000 17.0962
#
#
#
# Elastic Compliance Matrix: (Units=1/GPa)
#
#
# Indices 1 2 3 4 5 6 
#
# 1 0.021048 -0.005162 -0.012420 0.000000 0.000000 0.000000
# 2 -0.005162 0.054542 -0.006743 0.000000 0.000000 0.000000
# 3 -0.012420 -0.006743 0.016558 0.000000 0.000000 0.000000
# 4 0.000000 0.000000 0.000000 0.032749 0.000000 0.000000
# 5 0.000000 0.000000 0.000000 0.000000 0.023229 0.000000
# 6 0.000000 0.000000 0.000000 0.000000 0.000000 0.058493
#
#
# Mechanical properties :
#
#
# Convention : Reuss Voigt Hill
#
# Bulk Modulus (GPa) = 22.98949 57.98086 40.48517
# Shear Modulus (GPa) = 18.53439 26.82314 22.67876
#
# Velocity S-wave (km/s) = 3.25907 3.92066 3.60507
# Velocity P-wave (km/s) = 5.22844 7.32956 6.36628
#
# Compressibility (1/GPa) = 0.04349814
#
# Stress axis : x y z
#
# Youngs Moduli (GPa) = 47.51018 18.33442 60.39324
#
# Poissons Ratio (x) = 0.09464 0.75007
# Poissons Ratio (y) = 0.24525 0.40725
# Poissons Ratio (z) = 0.59007 0.12363
#
# Static dielectric constant tensor:
#      x y z
#    x 1.622320 0.000000 0.000000 
#    y 0.000000 1.613010 0.000000 
#    z 0.000000 0.000000 1.567680 
# 
# From -- ./inp_files/55640.got.cif
#   From: 2010.05.17/outbox.cif.g08.bks.cpg/sg74_28_cif.got.tgz:55640.got - 2010.06.03 17:57:02.
