data_PCOD9537272
_publ_section_title
;
Structure prediction by ZEFSAII (Michael W. Deem and Ramdas Pophale) SiO2 
 PCOD9537272
Probable space group: I M M A
;
_chemical_formula_sum "Si O2"
_cell_formula_units_Z 80
_cell_length_a 27.162187
_cell_length_b 9.708156
_cell_length_c 16.973252
_cell_angle_alpha 90.000000
_cell_angle_beta 90.000000
_cell_angle_gamma 90.000000
_cell_volume 4475.757421
_symmetry_space_group_name_H-M "I M M A"
_symmetry_group_IT_number 74
_symmetry_cell_setting 'orthorhombic'
loop_
_space_group_symop_operation_xyz
x,y,z
-x,1/2-y,z
x,-y,-z
-x,1/2+y,-z
-x,-y,-z
x,1/2+y,-z
-x,y,z
x,1/2-y,z
1/2+x,1/2+y,1/2+z
1/2-x,-y,1/2+z
1/2+x,1/2-y,1/2-z
1/2-x,y,1/2-z
1/2-x,1/2-y,1/2-z
1/2+x,y,1/2-z
1/2-x,1/2+y,1/2+z
1/2+x,-y,1/2+z
loop_
_atom_site_type_symbol
_atom_site_label
_atom_site_fract_x
_atom_site_fract_y
_atom_site_fract_z
Si Si1 0.440430 0.750000 0.624511
Si Si2 0.211616 0.097037 0.176832
Si Si3 0.559314 0.750000 0.446904
Si Si4 0.558591 0.041999 0.689434
Si Si5 0.194777 0.584735 0.579346
Si Si6 0.150175 0.907426 0.279584
O O1 0.500000 0.750000 0.616589
O O2 0.420333 0.750000 0.535153
O O3 0.428693 0.615309 0.673147
O O4 0.188494 0.250000 0.170217
O O5 0.250000 0.104439 0.250000
O O6 0.247442 0.071856 0.103277
O O7 0.175583 0.975155 0.202118
O O8 0.500000 0.750000 0.454105
O O9 0.571369 0.879208 0.391784
O O10 0.500000 0.059643 0.702647
O O11 0.592398 0.093617 0.759959
O O12 0.185329 0.500000 0.500000
O O13 0.184312 0.750000 0.575249
O O14 0.164548 0.507972 0.648803
O O15 0.167192 0.750000 0.292791
#
# Coordination Sequence:
#
# PCOD9537272 Si02
#       6
#     8  16   8  16  16  16
#     4   9  18  30  50  72  96 137 185 229 272 314
#     4   8  17  34  55  77 103 136 169 214 271 320
#     4   9  16  32  50  68 100 137 179 225 268 312
#     4  10  20  33  51  78 109 147 189 228 270 318
#     4  10  21  38  60  83 109 140 177 225 276 329
#     4  11  21  33  55  82 110 147 185 224 268 320
#
# _framework density 17.87407
#
# number of rings (size 3 to 8) (size 9 to 14) (size 15 to 20)
#    0.000    2.400    1.000    3.000    2.800    6.800 
#    0.000    2.000    0.000    0.600    0.000    0.000 
#    0.000    0.000    0.000    0.000    0.000    0.000 
#
# Total GULP energy -222783.256044 kJ/mol
# GULP energy per Si atom -5569.581401 kJ/mol
# Density = 1.783339 g / cm^3
# Si number density = 17.874070 Si / 1000 Ang^3
#
#
#
# Elastic Constant Matrix: (Units=GPa)
#
#
# Indices 1 2 3 4 5 6 
#
# 1 55.4598 32.5563 24.6250 0.0000 0.0000 0.0000
# 2 32.5563 151.7651 41.6309 0.0000 0.0000 0.0000
# 3 24.6250 41.6309 72.8211 0.0000 0.0000 0.0000
# 4 0.0000 0.0000 0.0000 -111.4102 0.0000 0.0000
# 5 0.0000 0.0000 0.0000 0.0000 19.6704 0.0000
# 6 0.0000 0.0000 0.0000 0.0000 0.0000 37.4071
#
#
#
# Elastic Compliance Matrix: (Units=1/GPa)
#
#
# Indices 1 2 3 4 5 6 
#
# 1 0.022490 -0.003248 -0.005749 0.000000 0.000000 0.000000
# 2 -0.003248 0.008284 -0.003637 0.000000 0.000000 0.000000
# 3 -0.005749 -0.003637 0.017756 0.000000 0.000000 0.000000
# 4 0.000000 0.000000 0.000000 -0.008976 0.000000 0.000000
# 5 0.000000 0.000000 0.000000 0.000000 0.050838 0.000000
# 6 0.000000 0.000000 0.000000 0.000000 0.000000 0.026733
#
#
# Mechanical properties :
#
#
# Convention : Reuss Voigt Hill
#
# Bulk Modulus (GPa) = 42.98840 53.07447 48.03144
# Shear Modulus (GPa) = 33.30112 1.21572 17.25842
#
# Velocity S-wave (km/s) = 4.32104 0.82561 3.11071
# Velocity P-wave (km/s) = 6.99987 5.53777 6.31130
#
# Compressibility (1/GPa) = 0.02326209
#
# Stress axis : x y z
#
# Youngs Moduli (GPa) = 44.46434 120.72073 56.32014
#
# Poissons Ratio (x) = 0.39205 0.32376
# Poissons Ratio (y) = 0.14440 0.20486
# Poissons Ratio (z) = 0.25560 0.43911
#
# Static dielectric constant tensor:
#      x y z
#    x 1.646930 0.000000 0.000000 
#    y 0.000000 1.653730 0.000000 
#    z 0.000000 0.000000 1.606660 
# 
# From -- ./inp_files/46955.got.cif
#   From: 2010.05.17/outbox.cif.g08.bks.cpg/sg74_24_cif.got.tgz:46955.got - 2010.06.03 17:57:02.
