data_PCOD9537423
_publ_section_title
;
Structure prediction by ZEFSAII (Michael W. Deem and Ramdas Pophale) SiO2 
 PCOD9537423
Probable space group: I M M A
;
_chemical_formula_sum "Si O2"
_cell_formula_units_Z 88
_cell_length_a 23.135749
_cell_length_b 8.688742
_cell_length_c 25.393773
_cell_angle_alpha 90.000000
_cell_angle_beta 90.000000
_cell_angle_gamma 90.000000
_cell_volume 5104.670318
_symmetry_space_group_name_H-M "I M M A"
_symmetry_group_IT_number 74
_symmetry_cell_setting 'orthorhombic'
loop_
_space_group_symop_operation_xyz
x,y,z
-x,1/2-y,z
x,-y,-z
-x,1/2+y,-z
-x,-y,-z
x,1/2+y,-z
-x,y,z
x,1/2-y,z
1/2+x,1/2+y,1/2+z
1/2-x,-y,1/2+z
1/2+x,1/2-y,1/2-z
1/2-x,y,1/2-z
1/2-x,1/2-y,1/2-z
1/2+x,y,1/2-z
1/2-x,1/2+y,1/2+z
1/2+x,-y,1/2+z
loop_
_atom_site_type_symbol
_atom_site_label
_atom_site_fract_x
_atom_site_fract_y
_atom_site_fract_z
Si Si1 0.931584 0.934509 0.732224
Si Si2 0.887073 0.566157 0.374283
Si Si3 0.000000 0.064028 0.559009
Si Si4 0.933534 0.437689 0.148958
Si Si5 0.152227 0.064138 0.057171
Si Si6 0.714250 0.565828 0.942757
O O1 0.924311 0.750000 0.728631
O O2 0.916116 0.983697 0.791727
O O3 0.000000 0.967140 0.725437
O O4 0.897274 0.013475 0.685393
O O5 0.884366 0.750000 0.376824
O O6 0.942809 0.515211 0.408891
O O7 0.829793 0.496280 0.399694
O O8 0.000000 0.250000 0.556729
O O9 0.000000 0.000000 0.500000
O O10 0.933538 0.250000 0.148879
O O11 0.890215 0.489317 0.103470
O O12 0.000000 0.485728 0.139661
O O13 0.150061 0.250000 0.055203
O O14 0.219045 0.019657 0.067262
O O15 0.135572 0.000000 0.000000
O O16 0.711555 0.750000 0.944545
O O17 0.697696 0.500000 0.000000
#
# Coordination Sequence:
#
# PCOD9537423 Si02
#       6
#    16  16   8  16  16  16
#     4   9  17  31  52  75  98 130 170 208 248 296
#     4  11  21  34  50  71  99 132 168 208 255 300
#     4  10  22  34  46  68  96 124 157 202 251 294
#     4   8  15  30  53  79 104 131 166 206 248 295
#     4   9  18  33  53  76 104 134 165 205 249 298
#     4  10  20  34  51  72  98 133 172 207 249 298
#
# _framework density 17.239115000000002
#
# number of rings (size 3 to 8) (size 9 to 14) (size 15 to 20)
#    0.000    2.545    0.909    2.727    0.000    4.000 
#    0.000    1.818    0.000    6.545    0.000    0.000 
#    0.000    0.000    0.000    0.000    0.000    0.000 
#
# Total GULP energy -245425.133400 kJ/mol
# GULP energy per Si atom -5577.843941 kJ/mol
# Density = 1.719988 g / cm^3
# Si number density = 17.239115 Si / 1000 Ang^3
#
#
#
# Elastic Constant Matrix: (Units=GPa)
#
#
# Indices 1 2 3 4 5 6 
#
# 1 87.3751 27.4607 99.9931 0.0000 0.0000 0.0000
# 2 27.4607 18.0427 35.0209 0.0000 0.0000 0.0000
# 3 99.9931 35.0209 176.3395 0.0000 0.0000 0.0000
# 4 0.0000 0.0000 0.0000 28.5158 0.0000 0.0000
# 5 0.0000 0.0000 0.0000 0.0000 28.9335 0.0000
# 6 0.0000 0.0000 0.0000 0.0000 0.0000 16.2361
#
#
#
# Elastic Compliance Matrix: (Units=1/GPa)
#
#
# Indices 1 2 3 4 5 6 
#
# 1 0.039275 -0.026928 -0.016923 0.000000 0.000000 0.000000
# 2 -0.026928 0.108654 -0.006309 0.000000 0.000000 0.000000
# 3 -0.016923 -0.006309 0.016520 0.000000 0.000000 0.000000
# 4 0.000000 0.000000 0.000000 0.035068 0.000000 0.000000
# 5 0.000000 0.000000 0.000000 0.000000 0.034562 0.000000
# 6 0.000000 0.000000 0.000000 0.000000 0.000000 0.061591
#
#
# Mechanical properties :
#
#
# Convention : Reuss Voigt Hill
#
# Bulk Modulus (GPa) = 15.59369 67.41185 41.50277
# Shear Modulus (GPa) = 11.97991 22.68927 17.33459
#
# Velocity S-wave (km/s) = 2.63901 3.63181 3.17446
# Velocity P-wave (km/s) = 4.28380 7.53496 6.12889
#
# Compressibility (1/GPa) = 0.06412849
#
# Stress axis : x y z
#
# Youngs Moduli (GPa) = 25.46179 9.20354 60.53347
#
# Poissons Ratio (x) = 0.24784 1.02439
# Poissons Ratio (y) = 0.68564 0.38190
# Poissons Ratio (z) = 0.43088 0.05806
#
# Static dielectric constant tensor:
#      x y z
#    x 1.577790 0.000000 0.000000 
#    y 0.000000 1.589120 0.000000 
#    z 0.000000 0.000000 1.566440 
# 
# From -- ./inp_files/48767.got.cif
#   From: 2010.05.17/outbox.cif.g08.bks.cpg/sg74_25_cif.got.tgz:48767.got - 2010.06.03 17:57:02.
