data_PCOD9537562
_publ_section_title
;
Structure prediction by ZEFSAII (Michael W. Deem and Ramdas Pophale) SiO2 
 PCOD9537562
Probable space group: I M M A
;
_chemical_formula_sum "Si O2"
_cell_formula_units_Z 80
_cell_length_a 15.690789
_cell_length_b 26.002888
_cell_length_c 9.422866
_cell_angle_alpha 90.000000
_cell_angle_beta 90.000000
_cell_angle_gamma 90.000000
_cell_volume 3844.584254
_symmetry_space_group_name_H-M "I M M A"
_symmetry_group_IT_number 74
_symmetry_cell_setting 'orthorhombic'
loop_
_space_group_symop_operation_xyz
x,y,z
-x,1/2-y,z
x,-y,-z
-x,1/2+y,-z
-x,-y,-z
x,1/2+y,-z
-x,y,z
x,1/2-y,z
1/2+x,1/2+y,1/2+z
1/2-x,-y,1/2+z
1/2+x,1/2-y,1/2-z
1/2-x,y,1/2-z
1/2-x,1/2-y,1/2-z
1/2+x,y,1/2-z
1/2-x,1/2+y,1/2+z
1/2+x,-y,1/2+z
loop_
_atom_site_type_symbol
_atom_site_label
_atom_site_fract_x
_atom_site_fract_y
_atom_site_fract_z
Si Si1 0.903154 0.341884 0.547650
Si Si2 0.735232 0.808519 0.588077
Si Si3 0.598015 0.983175 0.339320
Si Si4 0.397061 0.549114 0.910542
Si Si5 0.837237 0.131425 0.832334
O O1 0.828374 0.307032 0.485934
O O2 0.873634 0.397831 0.484870
O O3 0.902655 0.344354 0.718868
O O4 0.000000 0.330979 0.499787
O O5 0.701563 0.750000 0.595116
O O6 0.750000 0.827151 0.750000
O O7 0.674536 0.843400 0.487397
O O8 0.500000 0.971996 0.291683
O O9 0.646828 0.929556 0.332401
O O10 0.596131 0.000000 0.500000
O O11 0.629656 0.031593 0.246438
O O12 0.500000 0.550982 0.912702
O O13 0.367739 0.500000 0.000000
O O14 0.750000 0.141327 0.750000
#
# Coordination Sequence:
#
# PCOD9537562 Si02
#       5
#    16  16  16  16  16
#     4  10  20  37  65  93 116 155 208 254 299 365
#     4  10  24  45  63  83 119 162 200 255 325 374
#     4  10  20  34  53  82 121 160 194 235 289 351
#     4   9  16  30  53  81 118 156 185 229 292 346
#     4  10  21  38  57  86 116 154 196 247 298 359
#
# _framework density 20.808491
#
# number of rings (size 3 to 8) (size 9 to 14) (size 15 to 20)
#    0.000    2.200    2.000    0.600    2.800    4.000 
#    7.200    1.000    0.000    4.200    0.000    0.000 
#    0.000    0.000    0.000    0.000    0.000    0.000 
#
# Total GULP energy -222827.546162 kJ/mol
# GULP energy per Si atom -5570.688654 kJ/mol
# Density = 2.076113 g / cm^3
# Si number density = 20.808491 Si / 1000 Ang^3
#
#
#
# Elastic Constant Matrix: (Units=GPa)
#
#
# Indices 1 2 3 4 5 6 
#
# 1 43.1520 4.8519 11.2282 0.0000 0.0000 0.0000
# 2 4.8519 72.9505 39.9986 0.0001 0.0000 0.0000
# 3 11.2282 39.9986 150.4396 0.0005 -0.0004 -0.0002
# 4 0.0000 0.0001 0.0005 18.3579 0.0000 0.0003
# 5 0.0000 0.0000 -0.0004 0.0000 16.5143 0.0000
# 6 0.0000 0.0000 -0.0002 0.0003 0.0000 -4.2149
#
#
#
# Elastic Compliance Matrix: (Units=1/GPa)
#
#
# Indices 1 2 3 4 5 6 
#
# 1 0.023664 -0.000709 -0.001578 0.000000 0.000000 0.000000
# 2 -0.000709 0.016069 -0.004219 0.000000 0.000000 0.000000
# 3 -0.001578 -0.004219 0.007887 0.000000 0.000000 0.000000
# 4 0.000000 0.000000 0.000000 0.054472 0.000000 0.000004
# 5 0.000000 0.000000 0.000000 0.000000 0.060554 0.000000
# 6 0.000000 0.000000 0.000000 0.000004 0.000000 -0.237255
#
#
# Mechanical properties :
#
#
# Convention : Reuss Voigt Hill
#
# Bulk Modulus (GPa) = 28.89539 42.07774 35.48656
# Shear Modulus (GPa) = -99.87613 20.16234 -39.85689
#
# Velocity S-wave (km/s) = -6.93556 3.11617 -4.38129
# Velocity P-wave (km/s) = 7.08657 5.76304 2.91606
#
# Compressibility (1/GPa) = 0.03460759
#
# Stress axis : x y z
#
# Youngs Moduli (GPa) = 42.25804 62.23337 126.79436
#
# Poissons Ratio (x) = 0.04411 0.20005
# Poissons Ratio (y) = 0.02995 0.53499
# Poissons Ratio (z) = 0.06667 0.26259
#
# Static dielectric constant tensor:
#      x y z
#    x 1.794840 0.000000 0.000000 
#    y 0.000000 1.787560 0.000000 
#    z 0.000000 0.000000 1.814870 
# 
# From -- ./inp_files/10954.got.cif
#   From: 2010.05.17/outbox.cif.g08.bks.cpg/sg74_6_cif.got.tgz:10954.got - 2010.06.03 17:57:02.
