data_PCOD9537945
_publ_section_title
;
Structure prediction by ZEFSAII (Michael W. Deem and Ramdas Pophale) SiO2 
 PCOD9537945
Probable space group: I M M A
;
_chemical_formula_sum "Si O2"
_cell_formula_units_Z 96
_cell_length_a 21.286164
_cell_length_b 14.043892
_cell_length_c 14.861855
_cell_angle_alpha 90.000000
_cell_angle_beta 90.000000
_cell_angle_gamma 90.000000
_cell_volume 4442.811677
_symmetry_space_group_name_H-M "I M M A"
_symmetry_group_IT_number 74
_symmetry_cell_setting 'orthorhombic'
loop_
_space_group_symop_operation_xyz
x,y,z
-x,1/2-y,z
x,-y,-z
-x,1/2+y,-z
-x,-y,-z
x,1/2+y,-z
-x,y,z
x,1/2-y,z
1/2+x,1/2+y,1/2+z
1/2-x,-y,1/2+z
1/2+x,1/2-y,1/2-z
1/2-x,y,1/2-z
1/2-x,1/2-y,1/2-z
1/2+x,y,1/2-z
1/2-x,1/2+y,1/2+z
1/2+x,-y,1/2+z
loop_
_atom_site_type_symbol
_atom_site_label
_atom_site_fract_x
_atom_site_fract_y
_atom_site_fract_z
Si Si1 0.349943 0.143654 0.648951
Si Si2 0.070937 0.634240 0.526788
Si Si3 0.681599 0.136253 0.158135
Si Si4 0.930250 0.611569 0.981078
Si Si5 0.429858 0.365072 0.822666
Si Si6 0.314115 0.434037 0.361182
O O1 0.320009 0.250000 0.654055
O O2 0.405355 0.151552 0.575388
O O3 0.380177 0.116477 0.744885
O O4 0.312570 0.048169 0.621296
O O5 0.070759 0.750000 0.526703
O O6 0.123272 0.605983 0.597502
O O7 0.085111 0.604225 0.424290
O O8 0.000000 0.603812 0.549648
O O9 0.679708 0.250000 0.172250
O O10 0.679587 0.086767 0.255115
O O11 0.747620 0.110518 0.111569
O O12 0.873341 0.616176 0.909790
O O13 0.000000 0.645308 0.954523
O O14 0.935895 0.500000 0.000000
O O15 0.500000 0.400575 0.798814
O O16 0.433466 0.250000 0.825714
#
# Coordination Sequence:
#
# PCOD9537945 Si02
#       6
#    16  16  16  16  16  16
#     4  10  20  35  56  84 120 158 193 235 290 348
#     4   8  15  31  59  92 118 143 183 234 287 347
#     4  10  21  40  63  83 112 155 197 242 299 352
#     4   9  19  36  58  85 117 153 195 243 290 341
#     4   8  14  28  53  85 119 152 185 225 281 347
#     4  10  21  38  58  84 117 155 200 244 289 347
#
# _framework density 21.607938000000001
#
# number of rings (size 3 to 8) (size 9 to 14) (size 15 to 20)
#    0.000    2.833    0.000    2.500    0.000    3.667 
#    0.000   12.500    0.000    6.000    0.000    0.000 
#    0.000    2.000    0.000    3.667    0.000    0.333 
#
# Total GULP energy -267744.608760 kJ/mol
# GULP energy per Si atom -5578.012683 kJ/mol
# Density = 2.155876 g / cm^3
# Si number density = 21.607938 Si / 1000 Ang^3
#
#
#
# Elastic Constant Matrix: (Units=GPa)
#
#
# Indices 1 2 3 4 5 6 
#
# 1 121.4213 26.6650 66.9485 0.0000 0.0000 0.0000
# 2 26.6650 119.5624 5.2407 0.0000 0.0000 0.0000
# 3 66.9485 5.2407 77.1419 0.0000 0.0000 0.0000
# 4 0.0000 0.0000 0.0000 18.4133 0.0000 0.0000
# 5 0.0000 0.0000 0.0000 0.0000 23.2163 0.0000
# 6 0.0000 0.0000 0.0000 0.0000 0.0000 -10.7163
#
#
#
# Elastic Compliance Matrix: (Units=1/GPa)
#
#
# Indices 1 2 3 4 5 6 
#
# 1 0.016887 -0.003133 -0.014443 0.000000 0.000000 0.000000
# 2 -0.003133 0.008970 0.002110 0.000000 0.000000 0.000000
# 3 -0.014443 0.002110 0.025354 0.000000 0.000000 0.000000
# 4 0.000000 0.000000 0.000000 0.054309 0.000000 0.000000
# 5 0.000000 0.000000 0.000000 0.000000 0.043073 0.000000
# 6 0.000000 0.000000 0.000000 0.000000 0.000000 -0.093316
#
#
# Mechanical properties :
#
#
# Convention : Reuss Voigt Hill
#
# Bulk Modulus (GPa) = 49.31220 57.31490 53.31355
# Shear Modulus (GPa) = 53.78070 20.80076 37.29073
#
# Velocity S-wave (km/s) = 4.99433 3.10602 4.15877
# Velocity P-wave (km/s) = 7.49191 6.28058 6.91283
#
# Compressibility (1/GPa) = 0.02027896
#
# Stress axis : x y z
#
# Youngs Moduli (GPa) = 59.21582 111.48119 39.44091
#
# Poissons Ratio (x) = 0.34929 0.56965
# Poissons Ratio (y) = 0.18553 -0.08321
# Poissons Ratio (z) = 0.85526 -0.23520
#
# Static dielectric constant tensor:
#      x y z
#    x 1.740760 0.000000 0.000000 
#    y 0.000000 1.933490 0.000000 
#    z 0.000000 0.000000 1.770750 
# 
# From -- ./inp_files/35291.got.cif
#   From: 2010.05.17/outbox.cif.g08.bks.cpg/sg74_18_cif.got.tgz:35291.got - 2010.06.03 17:57:02.
