data_PCOD9537525
_publ_section_title
;
Structure prediction by ZEFSAII (Michael W. Deem and Ramdas Pophale) SiO2 
 PCOD9537525
Probable space group: I M M A
;
_chemical_formula_sum "Si O2"
_cell_formula_units_Z 104
_cell_length_a 21.490892
_cell_length_b 9.079697
_cell_length_c 29.370139
_cell_angle_alpha 90.000000
_cell_angle_beta 90.000000
_cell_angle_gamma 90.000000
_cell_volume 5731.018356
_symmetry_space_group_name_H-M "I M M A"
_symmetry_group_IT_number 74
_symmetry_cell_setting 'orthorhombic'
loop_
_space_group_symop_operation_xyz
x,y,z
-x,1/2-y,z
x,-y,-z
-x,1/2+y,-z
-x,-y,-z
x,1/2+y,-z
-x,y,z
x,1/2-y,z
1/2+x,1/2+y,1/2+z
1/2-x,-y,1/2+z
1/2+x,1/2-y,1/2-z
1/2-x,y,1/2-z
1/2-x,1/2-y,1/2-z
1/2+x,y,1/2-z
1/2-x,1/2+y,1/2+z
1/2+x,-y,1/2+z
loop_
_atom_site_type_symbol
_atom_site_label
_atom_site_fract_x
_atom_site_fract_y
_atom_site_fract_z
Si Si1 0.240952 0.081785 0.877772
Si Si2 0.427386 0.915175 0.905007
Si Si3 0.927734 0.573088 0.308128
Si Si4 0.665093 0.914629 0.039585
Si Si5 0.362393 0.928615 0.449389
Si Si6 0.500000 0.425384 0.548915
Si Si7 0.700737 0.425672 0.209676
O O1 0.226665 0.250000 0.862460
O O2 0.295777 0.090772 0.914602
O O3 0.184475 0.024389 0.909325
O O4 0.266185 0.987238 0.835955
O O5 0.500000 0.905469 0.914165
O O6 0.402602 0.750000 0.896567
O O7 0.420862 0.013177 0.859693
O O8 0.394073 0.990173 0.947133
O O9 0.922605 0.750000 0.307043
O O10 0.867303 0.501780 0.283718
O O11 0.000000 0.535383 0.293903
O O12 0.650369 0.750000 0.025038
O O13 0.700912 0.000000 0.000000
O O14 0.355075 0.750000 0.454564
O O15 0.432391 0.962956 0.431647
O O16 0.354495 0.000000 0.500000
O O17 0.500000 0.250000 0.543484
O O18 0.500000 0.500000 0.500000
O O19 0.691338 0.250000 0.206337
O O20 0.750000 0.455367 0.250000
#
# Coordination Sequence:
#
# PCOD9537525 Si02
#       7
#    16  16  16  16  16   8  16
#     4  10  21  36  54  78 108 145 184 227 279 331
#     4  10  20  34  53  77 106 143 185 229 276 321
#     4  10  20  36  61  90 116 145 184 229 280 339
#     4  11  22  34  50  74 106 145 188 229 275 326
#     4   9  17  30  50  78 109 144 185 225 272 325
#     4   8  14  26  46  72 104 140 180 224 262 314
#     4  11  24  40  61  88 114 146 188 231 283 340
#
# _framework density 18.146863
#
# number of rings (size 3 to 8) (size 9 to 14) (size 15 to 20)
#    0.000    2.000    1.538    2.308    0.000    4.615 
#    0.000    0.000    1.692    0.000    0.000    0.000 
#    0.000    0.000    0.000    0.000    0.000    0.000 
#
# Total GULP energy -289608.340664 kJ/mol
# GULP energy per Si atom -5569.391167 kJ/mol
# Density = 1.810556 g / cm^3
# Si number density = 18.146863 Si / 1000 Ang^3
#
#
#
# Elastic Constant Matrix: (Units=GPa)
#
#
# Indices 1 2 3 4 5 6 
#
# 1 135.1871 51.9689 44.6836 0.0000 0.0000 0.0000
# 2 51.9689 84.1938 43.2907 0.0000 0.0000 0.0000
# 3 44.6836 43.2907 72.0593 0.0000 0.0000 0.0000
# 4 0.0000 0.0000 0.0000 24.5164 0.0000 0.0000
# 5 0.0000 0.0000 0.0000 0.0000 27.0793 0.0000
# 6 0.0000 0.0000 0.0000 0.0000 0.0000 21.1719
#
#
#
# Elastic Compliance Matrix: (Units=1/GPa)
#
#
# Indices 1 2 3 4 5 6 
#
# 1 0.010349 -0.004469 -0.003733 0.000000 0.000000 0.000000
# 2 -0.004469 0.019116 -0.008713 0.000000 0.000000 0.000000
# 3 -0.003733 -0.008713 0.021427 0.000000 0.000000 0.000000
# 4 0.000000 0.000000 0.000000 0.040789 0.000000 0.000000
# 5 0.000000 0.000000 0.000000 0.000000 0.036929 0.000000
# 6 0.000000 0.000000 0.000000 0.000000 0.000000 0.047232
#
#
# Mechanical properties :
#
#
# Convention : Reuss Voigt Hill
#
# Bulk Modulus (GPa) = 58.60842 63.48074 61.04458
# Shear Modulus (GPa) = 23.21726 24.65332 23.93529
#
# Velocity S-wave (km/s) = 3.58076 3.68984 3.63571
# Velocity P-wave (km/s) = 7.03297 7.29458 7.16497
#
# Compressibility (1/GPa) = 0.01706240
#
# Stress axis : x y z
#
# Youngs Moduli (GPa) = 96.63036 52.31306 46.67102
#
# Poissons Ratio (x) = 0.23376 0.17421
# Poissons Ratio (y) = 0.43180 0.40665
# Poissons Ratio (z) = 0.36069 0.45581
#
# Static dielectric constant tensor:
#      x y z
#    x 1.690490 0.000000 0.000000 
#    y 0.000000 1.642180 0.000000 
#    z 0.000000 0.000000 1.600560 
# 
# From -- ./inp_files/68220.got.cif
#   From: 2010.05.17/outbox.cif.g08.bks.cpg/sg74_35_cif.got.tgz:68220.got - 2010.06.03 17:57:02.
