data_PCOD9537478
_publ_section_title
;
Structure prediction by ZEFSAII (Michael W. Deem and Ramdas Pophale) SiO2 
 PCOD9537478
Probable space group: I M M A
;
_chemical_formula_sum "Si O2"
_cell_formula_units_Z 104
_cell_length_a 8.030973
_cell_length_b 21.868550
_cell_length_c 28.496512
_cell_angle_alpha 90.000000
_cell_angle_beta 90.000000
_cell_angle_gamma 90.000000
_cell_volume 5004.720854
_symmetry_space_group_name_H-M "I M M A"
_symmetry_group_IT_number 74
_symmetry_cell_setting 'orthorhombic'
loop_
_space_group_symop_operation_xyz
x,y,z
-x,1/2-y,z
x,-y,-z
-x,1/2+y,-z
-x,-y,-z
x,1/2+y,-z
-x,y,z
x,1/2-y,z
1/2+x,1/2+y,1/2+z
1/2-x,-y,1/2+z
1/2+x,1/2-y,1/2-z
1/2-x,y,1/2-z
1/2-x,1/2-y,1/2-z
1/2+x,y,1/2-z
1/2-x,1/2+y,1/2+z
1/2+x,-y,1/2+z
loop_
_atom_site_type_symbol
_atom_site_label
_atom_site_fract_x
_atom_site_fract_y
_atom_site_fract_z
Si Si1 0.804642 0.320529 0.374171
Si Si2 0.806346 0.643981 0.129257
Si Si3 0.191209 0.909107 0.954170
Si Si4 0.193647 0.816955 0.469126
Si Si5 0.198822 0.086563 0.196967
Si Si6 0.797871 0.250000 0.804123
Si Si7 0.296109 0.507670 0.384418
O O1 0.755219 0.250000 0.374635
O O2 0.702611 0.361308 0.410881
O O3 0.778757 0.351798 0.323779
O O4 0.000000 0.324602 0.387367
O O5 0.794444 0.675553 0.078638
O O6 0.735255 0.689808 0.168182
O O7 0.733370 0.576262 0.122546
O O8 0.000000 0.634720 0.141632
O O9 0.260234 0.971736 0.931421
O O10 0.000000 0.919482 0.967856
O O11 0.275844 0.873628 0.996605
O O12 0.232523 0.750000 0.491171
O O13 0.000000 0.816548 0.456387
O O14 0.250000 0.074086 0.250000
O O15 0.249542 0.032968 0.160791
O O16 0.000000 0.092299 0.194409
O O17 0.750000 0.250000 0.750000
O O18 0.000000 0.250000 0.807843
O O19 0.500000 0.508184 0.387341
#
# Coordination Sequence:
#
# PCOD9537478 Si02
#       7
#    16  16  16  16  16   8  16
#     4  10  20  34  52  76 108 144 184 233 282 327
#     4  10  20  39  62  85 111 145 189 229 276 337
#     4  10  20  35  56  82 111 150 190 227 276 334
#     4  11  23  37  55  82 117 152 186 233 283 328
#     4  10  20  35  54  77 105 142 184 228 281 334
#     4  10  22  38  62  90 116 148 186 232 285 344
#     4   8  18  36  57  80 110 143 182 233 280 332
#
# _framework density 20.780380999999998
#
# number of rings (size 3 to 8) (size 9 to 14) (size 15 to 20)
#    0.000    2.154    0.769    3.231    0.000    6.154 
#    0.000    7.692    0.000    0.000    0.000    0.000 
#    0.000    0.000    0.000    0.000    0.000    0.000 
#
# Total GULP energy -290244.232215 kJ/mol
# GULP energy per Si atom -5581.619850 kJ/mol
# Density = 2.073308 g / cm^3
# Si number density = 20.780381 Si / 1000 Ang^3
#
#
#
# Elastic Constant Matrix: (Units=GPa)
#
#
# Indices 1 2 3 4 5 6 
#
# 1 22.2074 5.2796 -11.5390 0.0000 0.0000 0.0000
# 2 5.2796 152.1486 37.4438 0.0000 0.0000 0.0000
# 3 -11.5390 37.4438 87.1948 0.0000 0.0000 0.0000
# 4 0.0000 0.0000 0.0000 10.5392 0.0000 0.0000
# 5 0.0000 0.0000 0.0000 0.0000 29.2013 0.0000
# 6 0.0000 0.0000 0.0000 0.0000 0.0000 -17.0547
#
#
#
# Elastic Compliance Matrix: (Units=1/GPa)
#
#
# Indices 1 2 3 4 5 6 
#
# 1 0.050225 -0.003778 0.008269 0.000000 0.000000 0.000000
# 2 -0.003778 0.007633 -0.003778 0.000000 0.000000 0.000000
# 3 0.008269 -0.003778 0.014185 0.000000 0.000000 0.000000
# 4 0.000000 0.000000 0.000000 0.094884 0.000000 0.000000
# 5 0.000000 0.000000 0.000000 0.000000 0.034245 0.000000
# 6 0.000000 0.000000 0.000000 0.000000 0.000000 -0.058635
#
#
# Mechanical properties :
#
#
# Convention : Reuss Voigt Hill
#
# Bulk Modulus (GPa) = 13.61107 35.99106 24.80107
# Shear Modulus (GPa) = 30.19309 19.89491 25.04400
#
# Velocity S-wave (km/s) = 3.81591 3.09753 3.47533
# Velocity P-wave (km/s) = 5.09697 5.49092 5.29761
#
# Compressibility (1/GPa) = 0.07346961
#
# Stress axis : x y z
#
# Youngs Moduli (GPa) = 19.91049 131.00395 70.49610
#
# Poissons Ratio (x) = 0.49491 -0.58292
# Poissons Ratio (y) = 0.07522 0.26633
# Poissons Ratio (z) = -0.16464 0.49492
#
# Static dielectric constant tensor:
#      x y z
#    x 1.765210 0.000000 0.000000 
#    y 0.000000 1.773080 0.000000 
#    z 0.000000 0.000000 1.718820 
# 
# From -- ./inp_files/64444.got.cif
#   From: 2010.05.17/outbox.cif.g08.bks.cpg/sg74_33_cif.got.tgz:64444.got - 2010.06.03 17:57:02.
