data_PCOD9537885
_publ_section_title
;
Structure prediction by ZEFSAII (Michael W. Deem and Ramdas Pophale) SiO2 
 PCOD9537885
Probable space group: I M M A
;
_chemical_formula_sum "Si O2"
_cell_formula_units_Z 80
_cell_length_a 8.027563
_cell_length_b 18.890870
_cell_length_c 26.469040
_cell_angle_alpha 90.000000
_cell_angle_beta 90.000000
_cell_angle_gamma 90.000000
_cell_volume 4013.967689
_symmetry_space_group_name_H-M "I M M A"
_symmetry_group_IT_number 74
_symmetry_cell_setting 'orthorhombic'
loop_
_space_group_symop_operation_xyz
x,y,z
-x,1/2-y,z
x,-y,-z
-x,1/2+y,-z
-x,-y,-z
x,1/2+y,-z
-x,y,z
x,1/2-y,z
1/2+x,1/2+y,1/2+z
1/2-x,-y,1/2+z
1/2+x,1/2-y,1/2-z
1/2-x,y,1/2-z
1/2-x,1/2-y,1/2-z
1/2+x,y,1/2-z
1/2-x,1/2+y,1/2+z
1/2+x,-y,1/2+z
loop_
_atom_site_type_symbol
_atom_site_label
_atom_site_fract_x
_atom_site_fract_y
_atom_site_fract_z
Si Si1 0.701099 0.080821 0.501235
Si Si2 0.298508 0.669072 0.902737
Si Si3 0.299230 0.081153 0.193784
Si Si4 0.800072 0.330284 0.902732
Si Si5 0.198901 0.081000 0.693803
O O1 0.500000 0.078139 0.504229
O O2 0.747129 0.123129 0.450904
O O3 0.763760 0.122904 0.550460
O O4 0.762934 0.000000 0.500000
O O5 0.500000 0.670586 0.901193
O O6 0.239003 0.750000 0.906741
O O7 0.239375 0.631182 0.851314
O O8 0.500000 0.079606 0.191704
O O9 0.250000 0.104654 0.250000
O O10 0.238639 0.000048 0.186836
O O11 0.734933 0.250000 0.904167
O O12 0.762359 0.368634 0.850194
O O13 0.000000 0.326711 0.907863
O O14 0.250000 0.104121 0.750000
O O15 0.000000 0.079438 0.691266
#
# Coordination Sequence:
#
# PCOD9537885 Si02
#       5
#    16  16  16  16  16
#     4  10  21  37  58  82 107 139 180 223 267 317
#     4  10  21  36  54  79 112 145 177 218 267 317
#     4   9  19  35  54  78 107 139 177 220 263 309
#     4  10  21  36  53  76 108 140 171 214 264 312
#     4  10  20  35  56  79 104 137 177 219 262 311
#
# _framework density 19.930405
#
# number of rings (size 3 to 8) (size 9 to 14) (size 15 to 20)
#    0.000    2.200    0.000    2.400    0.000    5.200 
#    0.000    0.000    0.000    0.000    0.000    0.000 
#    0.000    0.000    0.000    0.000    0.000    0.000 
#
# Total GULP energy -223425.776116 kJ/mol
# GULP energy per Si atom -5585.644403 kJ/mol
# Density = 1.988504 g / cm^3
# Si number density = 19.930405 Si / 1000 Ang^3
#
#
#
# Elastic Constant Matrix: (Units=GPa)
#
#
# Indices 1 2 3 4 5 6 
#
# 1 10.5519 12.1770 1.6254 0.0000 0.0000 0.0000
# 2 12.1770 187.3669 143.6747 0.0000 0.0000 0.0000
# 3 1.6254 143.6747 204.0892 0.0000 0.0000 0.0000
# 4 0.0000 0.0000 0.0000 30.0950 0.0000 0.0000
# 5 0.0000 0.0000 0.0000 0.0000 23.1613 0.0000
# 6 0.0000 0.0000 0.0000 0.0000 0.0000 -28.9069
#
#
#
# Elastic Compliance Matrix: (Units=1/GPa)
#
#
# Indices 1 2 3 4 5 6 
#
# 1 0.109562 -0.014019 0.008997 0.000000 0.000000 0.000000
# 2 -0.014019 0.013392 -0.009316 0.000000 0.000000 0.000000
# 3 0.008997 -0.009316 0.011386 0.000000 0.000000 0.000000
# 4 0.000000 0.000000 0.000000 0.033228 0.000000 0.000000
# 5 0.000000 0.000000 0.000000 0.000000 0.043175 0.000000
# 6 0.000000 0.000000 0.000000 0.000000 0.000000 -0.034594
#
#
# Mechanical properties :
#
#
# Convention : Reuss Voigt Hill
#
# Bulk Modulus (GPa) = 9.46402 79.66247 44.56324
# Shear Modulus (GPa) = 20.82920 21.17195 21.00057
#
# Velocity S-wave (km/s) = 3.23630 3.26282 3.24959
# Velocity P-wave (km/s) = 4.32709 7.36558 6.04051
#
# Compressibility (1/GPa) = 0.10566338
#
# Stress axis : x y z
#
# Youngs Moduli (GPa) = 9.12725 74.67305 87.82449
#
# Poissons Ratio (x) = 1.04685 -0.79013
# Poissons Ratio (y) = 0.12796 0.81816
# Poissons Ratio (z) = -0.08211 0.69564
#
# Static dielectric constant tensor:
#      x y z
#    x 1.712840 0.000000 0.000000 
#    y 0.000000 1.699900 0.000000 
#    z 0.000000 0.000000 1.665980 
# 
# From -- ./inp_files/63899.got.cif
#   From: 2010.05.17/outbox.cif.g08.bks.cpg/sg74_32_cif.got.tgz:63899.got - 2010.06.03 17:57:02.
