data_PCOD9537998
_publ_section_title
;
Structure prediction by ZEFSAII (Michael W. Deem and Ramdas Pophale) SiO2 
 PCOD9537998
Probable space group: I M M A
;
_chemical_formula_sum "Si O2"
_cell_formula_units_Z 116
_cell_length_a 26.505635
_cell_length_b 8.791812
_cell_length_c 25.916343
_cell_angle_alpha 90.000000
_cell_angle_beta 90.000000
_cell_angle_gamma 90.000000
_cell_volume 6039.351752
_symmetry_space_group_name_H-M "I M M A"
_symmetry_group_IT_number 74
_symmetry_cell_setting 'orthorhombic'
loop_
_space_group_symop_operation_xyz
x,y,z
-x,1/2-y,z
x,-y,-z
-x,1/2+y,-z
-x,-y,-z
x,1/2+y,-z
-x,y,z
x,1/2-y,z
1/2+x,1/2+y,1/2+z
1/2-x,-y,1/2+z
1/2+x,1/2-y,1/2-z
1/2-x,y,1/2-z
1/2-x,1/2-y,1/2-z
1/2+x,y,1/2-z
1/2-x,1/2+y,1/2+z
1/2+x,-y,1/2+z
loop_
_atom_site_type_symbol
_atom_site_label
_atom_site_fract_x
_atom_site_fract_y
_atom_site_fract_z
Si Si1 0.557675 0.925491 0.925192
Si Si2 0.657342 0.927092 0.052322
Si Si3 0.283132 0.430785 0.145622
Si Si4 0.944144 0.571839 0.314897
Si Si5 0.659851 0.431479 0.758852
Si Si6 0.174317 0.067500 0.859874
Si Si7 0.395961 0.082638 0.444963
Si Si8 0.500000 0.750000 0.570198
O O1 0.500000 0.945334 0.942385
O O2 0.573043 0.750000 0.934378
O O3 0.597404 0.042939 0.948045
O O4 0.558005 0.962892 0.864150
O O5 0.668727 0.750000 0.055312
O O6 0.677463 0.011233 0.102923
O O7 0.678613 0.000000 0.000000
O O8 0.280578 0.250000 0.146001
O O9 0.301885 0.489333 0.201490
O O10 0.229721 0.501872 0.129733
O O11 0.939719 0.750000 0.331842
O O12 0.897047 0.540551 0.278459
O O13 0.000000 0.555855 0.290891
O O14 0.669472 0.250000 0.761851
O O15 0.663657 0.478671 0.699493
O O16 0.175165 0.250000 0.862385
O O17 0.133109 0.005585 0.899900
O O18 0.371418 0.250000 0.449980
O O19 0.454452 0.119526 0.431782
O O20 0.393220 0.000000 0.500000
#
# Coordination Sequence:
#
# PCOD9537998 Si02
#       8
#    16  16  16  16  16  16  16   4
#     4  10  20  35  57  86 120 157 202 252 307 367
#     4  12  25  42  63  89 121 158 209 263 320 380
#     4  12  25  42  65  90 123 168 215 267 326 383
#     4   9  17  32  56  84 118 162 208 252 306 366
#     4  10  21  39  63  91 127 169 217 266 317 381
#     4  11  24  42  64  97 133 169 216 262 312 375
#     4  10  21  41  68  99 134 171 213 258 315 378
#     4   8  22  40  74 100 136 176 216 256 318 390
#
# _framework density 19.207360000000001
#
# number of rings (size 3 to 8) (size 9 to 14) (size 15 to 20)
#    0.414    1.103    1.379    4.345    0.000    4.414 
#    1.241    2.759    0.000    0.000    0.000    0.000 
#    0.000    0.000    0.000    0.000    0.000    0.000 
#
# Total GULP energy -323268.032468 kJ/mol
# GULP energy per Si atom -5573.586767 kJ/mol
# Density = 1.916364 g / cm^3
# Si number density = 19.207360 Si / 1000 Ang^3
#
#
#
# Elastic Constant Matrix: (Units=GPa)
#
#
# Indices 1 2 3 4 5 6 
#
# 1 96.4102 36.6567 49.7742 0.0000 0.0000 0.0000
# 2 36.6567 83.7656 42.4288 0.0000 0.0000 0.0000
# 3 49.7742 42.4288 100.7482 0.0000 0.0000 0.0000
# 4 0.0000 0.0000 0.0000 27.7703 0.0000 0.0000
# 5 0.0000 0.0000 0.0000 0.0000 4.3957 0.0000
# 6 0.0000 0.0000 0.0000 0.0000 0.0000 31.8369
#
#
#
# Elastic Compliance Matrix: (Units=1/GPa)
#
#
# Indices 1 2 3 4 5 6 
#
# 1 0.014688 -0.003498 -0.005783 0.000000 0.000000 0.000000
# 2 -0.003498 0.016008 -0.005013 0.000000 0.000000 0.000000
# 3 -0.005783 -0.005013 0.014894 0.000000 0.000000 0.000000
# 4 0.000000 0.000000 0.000000 0.036010 0.000000 0.000000
# 5 0.000000 0.000000 0.000000 0.000000 0.227495 0.000000
# 6 0.000000 0.000000 0.000000 0.000000 0.000000 0.031410
#
#
# Mechanical properties :
#
#
# Convention : Reuss Voigt Hill
#
# Bulk Modulus (GPa) = 58.82103 59.84926 59.33514
# Shear Modulus (GPa) = 13.34176 22.93821 18.13998
#
# Velocity S-wave (km/s) = 2.63842 3.45953 3.07649
# Velocity P-wave (km/s) = 6.32237 6.86913 6.60141
#
# Compressibility (1/GPa) = 0.01700072
#
# Stress axis : x y z
#
# Youngs Moduli (GPa) = 68.08131 62.46744 67.13974
#
# Poissons Ratio (x) = 0.21853 0.38830
# Poissons Ratio (y) = 0.23817 0.33659
# Poissons Ratio (z) = 0.39374 0.31317
#
# Static dielectric constant tensor:
#      x y z
#    x 1.676020 0.000000 0.000000 
#    y 0.000000 1.656250 0.000000 
#    z 0.000000 0.000000 1.670830 
# 
# From -- ./inp_files/62441.got.cif
#   From: 2010.05.17/outbox.cif.g08.bks.cpg/sg74_32_cif.got.tgz:62441.got - 2010.06.03 17:57:02.
