data_PCOD9537651
_publ_section_title
;
Structure prediction by ZEFSAII (Michael W. Deem and Ramdas Pophale) SiO2 
 PCOD9537651
Probable space group: I M M A
;
_chemical_formula_sum "Si O2"
_cell_formula_units_Z 96
_cell_length_a 9.487240
_cell_length_b 19.320045
_cell_length_c 29.560931
_cell_angle_alpha 90.000000
_cell_angle_beta 90.000000
_cell_angle_gamma 90.000000
_cell_volume 5418.338441
_symmetry_space_group_name_H-M "I M M A"
_symmetry_group_IT_number 74
_symmetry_cell_setting 'orthorhombic'
loop_
_space_group_symop_operation_xyz
x,y,z
-x,1/2-y,z
x,-y,-z
-x,1/2+y,-z
-x,-y,-z
x,1/2+y,-z
-x,y,z
x,1/2-y,z
1/2+x,1/2+y,1/2+z
1/2-x,-y,1/2+z
1/2+x,1/2-y,1/2-z
1/2-x,y,1/2-z
1/2-x,1/2-y,1/2-z
1/2+x,y,1/2-z
1/2-x,1/2+y,1/2+z
1/2+x,-y,1/2+z
loop_
_atom_site_type_symbol
_atom_site_label
_atom_site_fract_x
_atom_site_fract_y
_atom_site_fract_z
Si Si1 0.839082 0.671700 0.683238
Si Si2 0.333564 0.832390 0.296457
Si Si3 0.835293 0.939876 0.127627
Si Si4 0.334151 0.173992 0.074308
Si Si5 0.661416 0.543679 0.710029
Si Si6 0.332469 0.479694 0.052242
O O1 0.817334 0.750000 0.698834
O O2 0.828168 0.672021 0.628763
O O3 0.727353 0.618598 0.702014
O O4 0.000000 0.650921 0.694161
O O5 0.500000 0.849337 0.289789
O O6 0.320988 0.750000 0.304206
O O7 0.250000 0.847849 0.250000
O O8 0.287818 0.874645 0.341341
O O9 0.000000 0.929330 0.115082
O O10 0.827040 0.002260 0.163655
O O11 0.745714 0.965763 0.084920
O O12 0.500000 0.174828 0.061433
O O13 0.275062 0.250000 0.060113
O O14 0.277438 0.099592 0.058235
O O15 0.500000 0.546607 0.723192
O O16 0.750000 0.509286 0.750000
O O17 0.500000 0.479667 0.063849
O O18 0.317588 0.500000 0.000000
#
# Coordination Sequence:
#
# PCOD9537651 Si02
#       6
#    16  16  16  16  16  16
#     4   9  17  31  51  71  93 130 174 210 249 292
#     4   9  18  34  56  81 109 142 179 216 258 316
#     4  10  21  36  53  76 105 138 172 211 263 314
#     4   8  14  28  51  74  98 132 171 209 251 299
#     4  11  22  33  48  72 102 135 171 209 254 301
#     4  10  20  34  55  82 106 133 174 221 268 316
#
# _framework density 17.717607999999998
#
# number of rings (size 3 to 8) (size 9 to 14) (size 15 to 20)
#    0.000    2.500    1.667    2.000    0.000    2.333 
#    0.000    0.833    0.000    1.500    0.000    0.000 
#    0.000    0.000    0.000    0.000    0.000    0.000 
#
# Total GULP energy -267392.345079 kJ/mol
# GULP energy per Si atom -5570.673856 kJ/mol
# Density = 1.767728 g / cm^3
# Si number density = 17.717608 Si / 1000 Ang^3
#
#
#
# Elastic Constant Matrix: (Units=GPa)
#
#
# Indices 1 2 3 4 5 6 
#
# 1 68.4142 37.0202 38.3330 0.0000 0.0000 0.0000
# 2 37.0202 100.2136 46.6514 0.0000 0.0000 0.0000
# 3 38.3330 46.6514 79.3707 0.0000 0.0000 0.0000
# 4 0.0000 0.0000 0.0000 12.1671 0.0000 0.0000
# 5 0.0000 0.0000 0.0000 0.0000 24.5975 0.0000
# 6 0.0000 0.0000 0.0000 0.0000 0.0000 11.9886
#
#
#
# Elastic Compliance Matrix: (Units=1/GPa)
#
#
# Indices 1 2 3 4 5 6 
#
# 1 0.021269 -0.004234 -0.007784 0.000000 0.000000 0.000000
# 2 -0.004234 0.014580 -0.006525 0.000000 0.000000 0.000000
# 3 -0.007784 -0.006525 0.020194 0.000000 0.000000 0.000000
# 4 0.000000 0.000000 0.000000 0.082189 0.000000 0.000000
# 5 0.000000 0.000000 0.000000 0.000000 0.040655 0.000000
# 6 0.000000 0.000000 0.000000 0.000000 0.000000 0.083413
#
#
# Mechanical properties :
#
#
# Convention : Reuss Voigt Hill
#
# Bulk Modulus (GPa) = 52.74832 54.66752 53.70792
# Shear Modulus (GPa) = 16.35572 18.15021 17.25297
#
# Velocity S-wave (km/s) = 3.04161 3.20412 3.12392
# Velocity P-wave (km/s) = 6.49396 6.67910 6.58718
#
# Compressibility (1/GPa) = 0.01895795
#
# Stress axis : x y z
#
# Youngs Moduli (GPa) = 47.01671 68.58628 49.52065
#
# Poissons Ratio (x) = 0.29036 0.38546
# Poissons Ratio (y) = 0.19905 0.32313
# Poissons Ratio (z) = 0.36597 0.44753
#
# Static dielectric constant tensor:
#      x y z
#    x 1.605340 0.000000 0.000000 
#    y 0.000000 1.650100 0.000000 
#    z 0.000000 0.000000 1.594290 
# 
# From -- ./inp_files/64370.got.cif
#   From: 2010.05.17/outbox.cif.g08.bks.cpg/sg74_33_cif.got.tgz:64370.got - 2010.06.03 17:57:02.
