data_PCOD9537888
_publ_section_title
;
Structure prediction by ZEFSAII (Michael W. Deem and Ramdas Pophale) SiO2 
 PCOD9537888
Probable space group: I M M A
;
_chemical_formula_sum "Si O2"
_cell_formula_units_Z 104
_cell_length_a 21.576263
_cell_length_b 9.518564
_cell_length_c 26.653467
_cell_angle_alpha 90.000000
_cell_angle_beta 90.000000
_cell_angle_gamma 90.000000
_cell_volume 5473.956858
_symmetry_space_group_name_H-M "I M M A"
_symmetry_group_IT_number 74
_symmetry_cell_setting 'orthorhombic'
loop_
_space_group_symop_operation_xyz
x,y,z
-x,1/2-y,z
x,-y,-z
-x,1/2+y,-z
-x,-y,-z
x,1/2+y,-z
-x,y,z
x,1/2-y,z
1/2+x,1/2+y,1/2+z
1/2-x,-y,1/2+z
1/2+x,1/2-y,1/2-z
1/2-x,y,1/2-z
1/2-x,1/2-y,1/2-z
1/2+x,y,1/2-z
1/2-x,1/2+y,1/2+z
1/2+x,-y,1/2+z
loop_
_atom_site_type_symbol
_atom_site_label
_atom_site_fract_x
_atom_site_fract_y
_atom_site_fract_z
Si Si1 0.399861 0.089855 0.952432
Si Si2 0.749993 0.414434 0.550320
Si Si3 0.750000 0.507941 0.250000
Si Si4 0.805706 0.415066 0.144138
Si Si5 0.571213 0.594473 0.858296
Si Si6 0.881806 0.900016 0.277383
Si Si7 0.428992 0.086742 0.666741
O O1 0.420336 0.250000 0.955991
O O2 0.324871 0.087673 0.950091
O O3 0.423384 0.012131 0.903591
O O4 0.419902 0.000000 0.000000
O O5 0.730337 0.500000 0.500000
O O6 0.729605 0.250000 0.549855
O O7 0.728294 0.496148 0.600379
O O8 0.771159 0.429496 0.198500
O O9 0.810247 0.598065 0.262543
O O10 0.808415 0.250000 0.131582
O O11 0.874488 0.483898 0.148481
O O12 0.500000 0.601056 0.842292
O O13 0.592339 0.750000 0.873341
O O14 0.608947 0.531878 0.812628
O O15 0.897437 0.750000 0.302200
O O16 0.921946 0.913635 0.227171
O O17 0.500000 0.049977 0.653127
O O18 0.417391 0.250000 0.651209
#
# Coordination Sequence:
#
# PCOD9537888 Si02
#       7
#    16  16   8  16  16  16  16
#     4  10  21  37  58  80 103 135 176 224 275 325
#     4  10  21  38  60  86 114 145 184 230 281 335
#     4  10  22  36  54  84 120 152 184 226 280 338
#     4  11  22  35  55  84 117 152 188 228 275 329
#     4  11  24  38  52  74 106 143 182 225 272 323
#     4  10  20  35  56  79 105 140 182 226 271 322
#     4   9  19  36  56  78 107 144 184 225 270 323
#
# _framework density 18.999051999999999
#
# number of rings (size 3 to 8) (size 9 to 14) (size 15 to 20)
#    0.000    1.846    0.000    3.692    0.000   11.692 
#    0.000    0.000    0.000    0.462    0.000    0.000 
#    0.000    0.000    0.000    0.000    0.000    0.000 
#
# Total GULP energy -290139.824711 kJ/mol
# GULP energy per Si atom -5579.612014 kJ/mol
# Density = 1.895581 g / cm^3
# Si number density = 18.999052 Si / 1000 Ang^3
#
#
#
# Elastic Constant Matrix: (Units=GPa)
#
#
# Indices 1 2 3 4 5 6 
#
# 1 60.4590 37.5145 26.3433 0.0000 0.0000 0.0000
# 2 37.5145 164.9382 55.9549 0.0000 0.0000 0.0000
# 3 26.3433 55.9549 83.5807 0.0000 0.0000 0.0000
# 4 0.0000 0.0000 0.0000 27.0102 0.0000 0.0000
# 5 0.0000 0.0000 0.0000 0.0000 5.8535 0.0000
# 6 0.0000 0.0000 0.0000 0.0000 0.0000 15.9149
#
#
#
# Elastic Compliance Matrix: (Units=1/GPa)
#
#
# Indices 1 2 3 4 5 6 
#
# 1 0.020385 -0.003179 -0.004297 0.000000 0.000000 0.000000
# 2 -0.003179 0.008340 -0.004582 0.000000 0.000000 0.000000
# 3 -0.004297 -0.004582 0.016386 0.000000 0.000000 0.000000
# 4 0.000000 0.000000 0.000000 0.037023 0.000000 0.000000
# 5 0.000000 0.000000 0.000000 0.000000 0.170839 0.000000
# 6 0.000000 0.000000 0.000000 0.000000 0.000000 0.062834
#
#
# Mechanical properties :
#
#
# Convention : Reuss Voigt Hill
#
# Bulk Modulus (GPa) = 47.62694 60.95593 54.29143
# Shear Modulus (GPa) = 14.41253 22.36673 18.38963
#
# Velocity S-wave (km/s) = 2.75724 3.43484 3.11452
# Velocity P-wave (km/s) = 5.93793 6.91984 6.44760
#
# Compressibility (1/GPa) = 0.02099652
#
# Stress axis : x y z
#
# Youngs Moduli (GPa) = 49.05624 119.90168 61.02742
#
# Poissons Ratio (x) = 0.38113 0.26223
# Poissons Ratio (y) = 0.15594 0.27960
# Poissons Ratio (z) = 0.21079 0.54934
#
# Static dielectric constant tensor:
#      x y z
#    x 1.663110 0.000000 0.000000 
#    y 0.000000 1.684650 0.000000 
#    z 0.000000 0.000000 1.692840 
# 
# From -- ./inp_files/64416.got.cif
#   From: 2010.05.17/outbox.cif.g08.bks.cpg/sg74_33_cif.got.tgz:64416.got - 2010.06.03 17:57:02.
