data_PCOD9537905
_publ_section_title
;
Structure prediction by ZEFSAII (Michael W. Deem and Ramdas Pophale) SiO2 
 PCOD9537905
Probable space group: I M M A
;
_chemical_formula_sum "Si O2"
_cell_formula_units_Z 96
_cell_length_a 17.218139
_cell_length_b 30.278004
_cell_length_c 9.356316
_cell_angle_alpha 90.000000
_cell_angle_beta 90.000000
_cell_angle_gamma 90.000000
_cell_volume 4877.736468
_symmetry_space_group_name_H-M "I M M A"
_symmetry_group_IT_number 74
_symmetry_cell_setting 'orthorhombic'
loop_
_space_group_symop_operation_xyz
x,y,z
-x,1/2-y,z
x,-y,-z
-x,1/2+y,-z
-x,-y,-z
x,1/2+y,-z
-x,y,z
x,1/2-y,z
1/2+x,1/2+y,1/2+z
1/2-x,-y,1/2+z
1/2+x,1/2-y,1/2-z
1/2-x,y,1/2-z
1/2-x,1/2-y,1/2-z
1/2+x,y,1/2-z
1/2-x,1/2+y,1/2+z
1/2+x,-y,1/2+z
loop_
_atom_site_type_symbol
_atom_site_label
_atom_site_fract_x
_atom_site_fract_y
_atom_site_fract_z
Si Si1 0.318549 0.533460 0.866987
Si Si2 0.673756 0.363780 0.154562
Si Si3 0.327974 0.198822 0.662925
Si Si4 0.408414 0.538059 0.597842
Si Si5 0.411744 0.801240 0.048547
Si Si6 0.908397 0.636348 0.938548
O O1 0.250000 0.526376 0.750000
O O2 0.318774 0.585896 0.902690
O O3 0.392715 0.528333 0.763342
O O4 0.316607 0.500000 0.000000
O O5 0.750000 0.354727 0.250000
O O6 0.652683 0.330358 0.029974
O O7 0.604419 0.357474 0.269470
O O8 0.317499 0.250000 0.617012
O O9 0.250000 0.186032 0.750000
O O10 0.355472 0.168275 0.533402
O O11 0.395128 0.196994 0.782702
O O12 0.373798 0.500000 0.500000
O O13 0.500000 0.540043 0.575486
O O14 0.379183 0.585719 0.546586
O O15 0.500000 0.815940 0.019175
O O16 0.404091 0.750000 0.004686
O O17 0.000000 0.640631 0.973914
#
# Coordination Sequence:
#
# PCOD9537905 Si02
#       6
#    16  16  16  16  16  16
#     4  10  21  37  57  82 113 148 188 234 284 341
#     4  10  21  37  56  82 113 147 188 236 287 338
#     4  10  21  37  57  83 114 148 189 236 283 335
#     4   9  19  36  55  78 110 145 184 232 284 338
#     4  10  21  37  56  80 113 150 189 238 290 338
#     4  10  20  35  56  80 109 146 187 232 281 338
#
# _framework density 19.681260000000002
#
# number of rings (size 3 to 8) (size 9 to 14) (size 15 to 20)
#    0.000    2.167    0.000    2.500    0.000    4.333 
#    0.000    3.333    0.000    0.000    0.000    0.000 
#    0.000    0.000    0.000    0.000    0.000    0.000 
#
# Total GULP energy -267564.265388 kJ/mol
# GULP energy per Si atom -5574.255529 kJ/mol
# Density = 1.963646 g / cm^3
# Si number density = 19.681260 Si / 1000 Ang^3
#
#
#
# Elastic Constant Matrix: (Units=GPa)
#
#
# Indices 1 2 3 4 5 6 
#
# 1 65.7731 34.8735 23.3843 -0.0006 0.0000 0.0007
# 2 34.8735 98.8849 78.3806 0.0005 -0.0002 0.0006
# 3 23.3843 78.3806 87.6944 0.0022 0.0041 -0.0015
# 4 -0.0006 0.0005 0.0022 42.7599 0.0014 -0.0010
# 5 0.0000 -0.0002 0.0041 0.0014 32.8934 -0.0004
# 6 0.0007 0.0006 -0.0015 -0.0010 -0.0004 20.4507
#
#
#
# Elastic Compliance Matrix: (Units=1/GPa)
#
#
# Indices 1 2 3 4 5 6 
#
# 1 0.018952 -0.009186 0.003156 0.000000 0.000000 0.000000
# 2 -0.009186 0.039139 -0.032533 0.000001 0.000004 -0.000003
# 3 0.003156 -0.032533 0.039639 -0.000002 -0.000005 0.000004
# 4 0.000000 0.000001 -0.000002 0.023386 -0.000001 0.000001
# 5 0.000000 0.000004 -0.000005 -0.000001 0.030401 0.000001
# 6 0.000000 -0.000003 0.000004 0.000001 0.000001 0.048898
#
#
# Mechanical properties :
#
#
# Convention : Reuss Voigt Hill
#
# Bulk Modulus (GPa) = 48.52949 58.40325 53.46637
# Shear Modulus (GPa) = 17.58026 26.93507 22.25766
#
# Velocity S-wave (km/s) = 2.99197 3.70342 3.36654
# Velocity P-wave (km/s) = 6.05368 6.93009 6.50666
#
# Compressibility (1/GPa) = 0.02060603
#
# Stress axis : x y z
#
# Youngs Moduli (GPa) = 52.76526 25.54965 25.22738
#
# Poissons Ratio (x) = 0.23469 -0.07963
# Poissons Ratio (y) = 0.48468 0.82073
# Poissons Ratio (z) = -0.16655 0.83121
#
# Static dielectric constant tensor:
#      x y z
#    x 1.764230 0.000000 0.000000 
#    y 0.000000 1.717080 0.000000 
#    z 0.000000 0.000000 1.689690 
# 
# From -- ./inp_files/12681.got.cif
#   From: 2010.05.17/outbox.cif.g08.bks.cpg/sg74_7_cif.got.tgz:12681.got - 2010.06.03 17:57:02.
