data_PCOD9537162
_publ_section_title
;
Structure prediction by ZEFSAII (Michael W. Deem and Ramdas Pophale) SiO2 
 PCOD9537162
Probable space group: I M M A
;
_chemical_formula_sum "Si O2"
_cell_formula_units_Z 80
_cell_length_a 23.307833
_cell_length_b 16.457739
_cell_length_c 10.892251
_cell_angle_alpha 90.000000
_cell_angle_beta 90.000000
_cell_angle_gamma 90.000000
_cell_volume 4178.204659
_symmetry_space_group_name_H-M "I M M A"
_symmetry_group_IT_number 74
_symmetry_cell_setting 'orthorhombic'
loop_
_space_group_symop_operation_xyz
x,y,z
-x,1/2-y,z
x,-y,-z
-x,1/2+y,-z
-x,-y,-z
x,1/2+y,-z
-x,y,z
x,1/2-y,z
1/2+x,1/2+y,1/2+z
1/2-x,-y,1/2+z
1/2+x,1/2-y,1/2-z
1/2-x,y,1/2-z
1/2-x,1/2-y,1/2-z
1/2+x,y,1/2-z
1/2-x,1/2+y,1/2+z
1/2+x,-y,1/2+z
loop_
_atom_site_type_symbol
_atom_site_label
_atom_site_fract_x
_atom_site_fract_y
_atom_site_fract_z
Si Si1 0.892776 0.459515 0.623387
Si Si2 0.063776 0.844767 0.174316
Si Si3 0.168377 0.598268 0.005953
Si Si4 0.686418 0.905291 0.765113
Si Si5 0.206617 0.341686 0.528745
O O1 0.918181 0.500000 0.500000
O O2 0.931901 0.404128 0.708731
O O3 0.862436 0.530852 0.699953
O O4 0.840211 0.402002 0.582779
O O5 0.070730 0.750000 0.209095
O O6 0.000000 0.853789 0.118830
O O7 0.114952 0.869821 0.083301
O O8 0.169047 0.630716 0.865878
O O9 0.167418 0.500000 0.000000
O O10 0.229600 0.626890 0.058397
O O11 0.750000 0.945009 0.750000
O O12 0.696343 0.846942 0.881183
O O13 0.199284 0.250000 0.571804
#
# Coordination Sequence:
#
# PCOD9537162 Si02
#       5
#    16  16  16  16  16
#     4  10  20  37  59  83 112 149 190 235 284 346
#     4  11  25  41  58  83 114 148 193 248 292 331
#     4  11  20  36  58  82 115 154 189 229 283 347
#     4   9  18  33  54  82 117 148 181 223 274 340
#     4  10  20  32  55  89 119 149 182 228 289 348
#
# _framework density 19.146979999999999
#
# number of rings (size 3 to 8) (size 9 to 14) (size 15 to 20)
#    0.000    1.800    2.000    4.200    0.000    5.200 
#    0.000    2.000    0.000    0.000    0.000   11.200 
#    0.000    0.000    0.000    0.000    0.000    0.000 
#
# Total GULP energy -223196.913230 kJ/mol
# GULP energy per Si atom -5579.922831 kJ/mol
# Density = 1.910340 g / cm^3
# Si number density = 19.146980 Si / 1000 Ang^3
#
#
#
# Elastic Constant Matrix: (Units=GPa)
#
#
# Indices 1 2 3 4 5 6 
#
# 1 92.5154 27.2450 38.7222 0.0000 0.0000 0.0000
# 2 27.2450 77.8945 2.6002 0.0000 0.0000 0.0000
# 3 38.7222 2.6002 62.5484 0.0000 0.0000 0.0000
# 4 0.0000 0.0000 0.0000 3.7809 0.0000 0.0000
# 5 0.0000 0.0000 0.0000 0.0000 13.1544 0.0000
# 6 0.0000 0.0000 0.0000 0.0000 0.0000 27.7825
#
#
#
# Elastic Compliance Matrix: (Units=1/GPa)
#
#
# Indices 1 2 3 4 5 6 
#
# 1 0.016640 -0.005484 -0.010074 0.000000 0.000000 0.000000
# 2 -0.005484 0.014663 0.002785 0.000000 0.000000 0.000000
# 3 -0.010074 0.002785 0.022108 0.000000 0.000000 0.000000
# 4 0.000000 0.000000 0.000000 0.264484 0.000000 0.000000
# 5 0.000000 0.000000 0.000000 0.000000 0.076020 0.000000
# 6 0.000000 0.000000 0.000000 0.000000 0.000000 0.035994
#
#
# Mechanical properties :
#
#
# Convention : Reuss Voigt Hill
#
# Bulk Modulus (GPa) = 35.88455 41.12147 38.50301
# Shear Modulus (GPa) = 10.75864 19.90295 15.33080
#
# Velocity S-wave (km/s) = 2.37301 3.22760 2.83272
# Velocity P-wave (km/s) = 5.12743 5.95090 5.55445
#
# Compressibility (1/GPa) = 0.02786715
#
# Stress axis : x y z
#
# Youngs Moduli (GPa) = 60.09501 68.19878 45.23207
#
# Poissons Ratio (x) = 0.37400 0.45565
# Poissons Ratio (y) = 0.32956 -0.12599
# Poissons Ratio (z) = 0.60538 -0.18996
#
# Static dielectric constant tensor:
#      x y z
#    x 1.634280 0.000000 0.000000 
#    y 0.000000 1.652260 0.000000 
#    z 0.000000 0.000000 1.716260 
# 
# From -- ./inp_files/20789.got.cif
#   From: 2010.05.17/outbox.cif.g08.bks.cpg/sg74_11_cif.got.tgz:20789.got - 2010.06.03 17:57:02.
