data_PCOD9537383
_publ_section_title
;
Structure prediction by ZEFSAII (Michael W. Deem and Ramdas Pophale) SiO2 
 PCOD9537383
Probable space group: I M M A
;
_chemical_formula_sum "Si O2"
_cell_formula_units_Z 64
_cell_length_a 13.690299
_cell_length_b 20.455154
_cell_length_c 9.611142
_cell_angle_alpha 90.000000
_cell_angle_beta 90.000000
_cell_angle_gamma 90.000000
_cell_volume 2691.477048
_symmetry_space_group_name_H-M "I M M A"
_symmetry_group_IT_number 74
_symmetry_cell_setting 'orthorhombic'
loop_
_space_group_symop_operation_xyz
x,y,z
-x,1/2-y,z
x,-y,-z
-x,1/2+y,-z
-x,-y,-z
x,1/2+y,-z
-x,y,z
x,1/2-y,z
1/2+x,1/2+y,1/2+z
1/2-x,-y,1/2+z
1/2+x,1/2-y,1/2-z
1/2-x,y,1/2-z
1/2-x,1/2-y,1/2-z
1/2+x,y,1/2-z
1/2-x,1/2+y,1/2+z
1/2+x,-y,1/2+z
loop_
_atom_site_type_symbol
_atom_site_label
_atom_site_fract_x
_atom_site_fract_y
_atom_site_fract_z
Si Si1 0.115946 0.677528 0.259311
Si Si2 0.686671 0.860836 0.537677
Si Si3 0.605523 0.672300 0.825589
Si Si4 0.293827 0.042653 0.886264
O O1 0.143886 0.750000 0.318771
O O2 0.156680 0.610232 0.328459
O O3 0.000000 0.674102 0.265803
O O4 0.149320 0.677293 0.097878
O O5 0.618454 0.855487 0.670586
O O6 0.795330 0.842001 0.591542
O O7 0.702800 0.932386 0.477446
O O8 0.500000 0.651399 0.886154
O O9 0.603138 0.750000 0.810907
O O10 0.250000 0.007670 0.750000
O O11 0.352601 0.000000 0.000000
#
# Coordination Sequence:
#
# PCOD9537383 Si02
#       4
#    16  16  16  16
#     4  10  21  39  66 101 136 171 221 279 334 399
#     4  10  20  36  61  90 129 180 221 267 333 389
#     4  10  20  33  56  95 136 172 215 268 330 401
#     4  10  24  42  67  92 129 178 230 275 330 395
#
# _framework density 23.778765
#
# number of rings (size 3 to 8) (size 9 to 14) (size 15 to 20)
#    0.000    2.000    0.000    3.750    3.500   10.000 
#    0.000    2.500    0.000    3.750    0.000    0.000 
#    0.000    0.000    0.000    0.000    0.000    0.000 
#
# Total GULP energy -178447.360844 kJ/mol
# GULP energy per Si atom -5576.480026 kJ/mol
# Density = 2.372464 g / cm^3
# Si number density = 23.778765 Si / 1000 Ang^3
#
#
#
# Elastic Constant Matrix: (Units=GPa)
#
#
# Indices 1 2 3 4 5 6 
#
# 1 124.7991 21.9899 38.1343 0.0000 0.0000 0.0000
# 2 21.9899 111.3225 57.7819 0.0000 0.0000 0.0000
# 3 38.1343 57.7819 174.5303 0.0000 0.0000 0.0000
# 4 0.0000 0.0000 0.0000 35.0819 0.0000 0.0000
# 5 0.0000 0.0000 0.0000 0.0000 13.6754 0.0000
# 6 0.0000 0.0000 0.0000 0.0000 0.0000 -5.3434
#
#
#
# Elastic Compliance Matrix: (Units=1/GPa)
#
#
# Indices 1 2 3 4 5 6 
#
# 1 0.008657 -0.000879 -0.001600 0.000000 0.000000 0.000000
# 2 -0.000879 0.010936 -0.003429 0.000000 0.000000 0.000000
# 3 -0.001600 -0.003429 0.007214 0.000000 0.000000 0.000000
# 4 0.000000 0.000000 0.000000 0.028505 0.000000 0.000000
# 5 0.000000 0.000000 0.000000 0.000000 0.073124 0.000000
# 6 0.000000 0.000000 0.000000 0.000000 0.000000 -0.187148
#
#
# Mechanical properties :
#
#
# Convention : Reuss Voigt Hill
#
# Bulk Modulus (GPa) = 66.70678 71.82935 69.26807
# Shear Modulus (GPa) = -119.33779 28.19918 -45.56931
#
# Velocity S-wave (km/s) = -7.09194 3.44742 -4.38240
# Velocity P-wave (km/s) = 6.24074 6.79111 1.89372
#
# Compressibility (1/GPa) = 0.01499098
#
# Stress axis : x y z
#
# Youngs Moduli (GPa) = 115.51567 91.43964 138.61130
#
# Poissons Ratio (x) = 0.08041 0.22183
# Poissons Ratio (y) = 0.10158 0.47523
# Poissons Ratio (z) = 0.18487 0.31350
#
# Static dielectric constant tensor:
#      x y z
#    x 1.900410 0.000000 0.000000 
#    y 0.000000 2.002540 0.000000 
#    z 0.000000 0.000000 1.953790 
# 
# From -- ./inp_files/8803.got.cif
#   From: 2010.05.17/outbox.cif.g08.bks.cpg/sg74_5_cif.got.tgz:8803.got - 2010.06.03 17:57:02.
