data_PCOD9537124
_publ_section_title
;
Structure prediction by ZEFSAII (Michael W. Deem and Ramdas Pophale) SiO2 
 PCOD9537124
Probable space group: I M M A
;
_chemical_formula_sum "Si O2"
_cell_formula_units_Z 104
_cell_length_a 7.712984
_cell_length_b 26.336887
_cell_length_c 22.919737
_cell_angle_alpha 90.000000
_cell_angle_beta 90.000000
_cell_angle_gamma 90.000000
_cell_volume 4655.823421
_symmetry_space_group_name_H-M "I M M A"
_symmetry_group_IT_number 74
_symmetry_cell_setting 'orthorhombic'
loop_
_space_group_symop_operation_xyz
x,y,z
-x,1/2-y,z
x,-y,-z
-x,1/2+y,-z
-x,-y,-z
x,1/2+y,-z
-x,y,z
x,1/2-y,z
1/2+x,1/2+y,1/2+z
1/2-x,-y,1/2+z
1/2+x,1/2-y,1/2-z
1/2-x,y,1/2-z
1/2-x,1/2-y,1/2-z
1/2+x,y,1/2-z
1/2-x,1/2+y,1/2+z
1/2+x,-y,1/2+z
loop_
_atom_site_type_symbol
_atom_site_label
_atom_site_fract_x
_atom_site_fract_y
_atom_site_fract_z
Si Si1 0.291905 0.750000 0.182948
Si Si2 0.299402 0.628104 0.578634
Si Si3 0.198820 0.484554 0.436757
Si Si4 0.290850 0.964315 0.183284
Si Si5 0.791153 0.192647 0.972901
Si Si6 0.204941 0.143301 0.639966
Si Si7 0.206605 0.193486 0.317656
O O1 0.500000 0.750000 0.172414
O O2 0.250000 0.750000 0.250000
O O3 0.218272 0.802795 0.159473
O O4 0.500000 0.617653 0.564664
O O5 0.201390 0.576060 0.567959
O O6 0.239120 0.673761 0.536741
O O7 0.284186 0.649264 0.643481
O O8 0.277331 0.500000 0.500000
O O9 0.272017 0.505108 0.374549
O O10 0.000000 0.503894 0.438512
O O11 0.500000 0.964974 0.180757
O O12 0.250000 0.980376 0.250000
O O13 0.225971 0.906629 0.171323
O O14 0.725308 0.250000 0.959832
O O15 0.729571 0.148377 0.929214
O O16 0.000000 0.194935 0.969850
O O17 0.000000 0.143829 0.652678
O O18 0.270474 0.250000 0.335054
O O19 0.250000 0.187004 0.250000
O O20 0.000000 0.192465 0.324803
#
# Coordination Sequence:
#
# PCOD9537124 Si02
#       7
#     8  16  16  16  16  16  16
#     4  10  20  32  50  78 110 144 183 226 271 328
#     4  11  23  38  59  87 119 154 194 245 299 360
#     4  10  22  42  64  86 115 156 205 258 311 364
#     4  10  22  39  61  87 117 153 195 244 299 355
#     4  10  21  36  55  83 118 154 191 234 289 345
#     4  10  20  36  56  82 113 149 192 234 282 339
#     4  10  21  38  61  89 121 158 197 238 291 356
#
# _framework density 22.337617999999999
#
# number of rings (size 3 to 8) (size 9 to 14) (size 15 to 20)
#    0.000    1.846    0.769    2.769    0.000    6.769 
#    0.000    1.538    0.000    0.000    0.000    0.000 
#    0.000    0.000    0.000    0.000    0.000    0.000 
#
# Total GULP energy -290170.771940 kJ/mol
# GULP energy per Si atom -5580.207153 kJ/mol
# Density = 2.228678 g / cm^3
# Si number density = 22.337618 Si / 1000 Ang^3
#
#
#
# Elastic Constant Matrix: (Units=GPa)
#
#
# Indices 1 2 3 4 5 6 
#
# 1 41.6630 4.5922 -1.8965 0.0000 0.0000 0.0000
# 2 4.5922 77.1018 53.9899 0.0000 0.0000 0.0000
# 3 -1.8965 53.9899 142.8136 0.0000 0.0000 0.0000
# 4 0.0000 0.0000 0.0000 35.3390 0.0000 0.0000
# 5 0.0000 0.0000 0.0000 0.0000 16.9199 0.0000
# 6 0.0000 0.0000 0.0000 0.0000 0.0000 9.7805
#
#
#
# Elastic Compliance Matrix: (Units=1/GPa)
#
#
# Indices 1 2 3 4 5 6 
#
# 1 0.024307 -0.002276 0.001183 0.000000 0.000000 0.000000
# 2 -0.002276 0.017853 -0.006779 0.000000 0.000000 0.000000
# 3 0.001183 -0.006779 0.009581 0.000000 0.000000 0.000000
# 4 0.000000 0.000000 0.000000 0.028297 0.000000 0.000000
# 5 0.000000 0.000000 0.000000 0.000000 0.059102 0.000000
# 6 0.000000 0.000000 0.000000 0.000000 0.000000 0.102244
#
#
# Mechanical properties :
#
#
# Convention : Reuss Voigt Hill
#
# Bulk Modulus (GPa) = 27.78118 41.66105 34.72112
# Shear Modulus (GPa) = 18.57859 26.06739 22.32299
#
# Velocity S-wave (km/s) = 2.88708 3.41980 3.16467
# Velocity P-wave (km/s) = 4.85568 5.85530 5.37876
#
# Compressibility (1/GPa) = 0.03599559
#
# Stress axis : x y z
#
# Youngs Moduli (GPa) = 41.14062 56.01431 104.37623
#
# Poissons Ratio (x) = 0.12751 -0.12351
# Poissons Ratio (y) = 0.09365 0.70760
# Poissons Ratio (z) = -0.04868 0.37974
#
# Static dielectric constant tensor:
#      x y z
#    x 1.855800 0.000000 0.000000 
#    y 0.000000 1.874240 0.000000 
#    z 0.000000 0.000000 1.892810 
# 
# From -- ./inp_files/49246.got.cif
#   From: 2010.05.17/outbox.cif.g08.bks.cpg/sg74_25_cif.got.tgz:49246.got - 2010.06.03 17:57:02.
