data_PCOD9537817
_publ_section_title
;
Structure prediction by ZEFSAII (Michael W. Deem and Ramdas Pophale) SiO2 
 PCOD9537817
Probable space group: I M M A
;
_chemical_formula_sum "Si O2"
_cell_formula_units_Z 104
_cell_length_a 7.963201
_cell_length_b 21.692174
_cell_length_c 28.874853
_cell_angle_alpha 90.000000
_cell_angle_beta 90.000000
_cell_angle_gamma 90.000000
_cell_volume 4987.817324
_symmetry_space_group_name_H-M "I M M A"
_symmetry_group_IT_number 74
_symmetry_cell_setting 'orthorhombic'
loop_
_space_group_symop_operation_xyz
x,y,z
-x,1/2-y,z
x,-y,-z
-x,1/2+y,-z
-x,-y,-z
x,1/2+y,-z
-x,y,z
x,1/2-y,z
1/2+x,1/2+y,1/2+z
1/2-x,-y,1/2+z
1/2+x,1/2-y,1/2-z
1/2-x,y,1/2-z
1/2-x,1/2-y,1/2-z
1/2+x,y,1/2-z
1/2-x,1/2+y,1/2+z
1/2+x,-y,1/2+z
loop_
_atom_site_type_symbol
_atom_site_label
_atom_site_fract_x
_atom_site_fract_y
_atom_site_fract_z
Si Si1 0.797322 0.820795 0.630552
Si Si2 0.798462 0.250000 0.696618
Si Si3 0.696242 0.587918 0.549998
Si Si4 0.696873 0.484020 0.616129
Si Si5 0.199483 0.926542 0.697100
Si Si6 0.696044 0.345818 0.878514
Si Si7 0.698194 0.183122 0.520040
O O1 0.744091 0.750000 0.631451
O O2 0.713346 0.859735 0.589554
O O3 0.759959 0.858451 0.677438
O O4 0.000000 0.822798 0.623623
O O5 0.750000 0.250000 0.750000
O O6 0.741431 0.309457 0.666810
O O7 0.000000 0.250000 0.696545
O O8 0.500000 0.574239 0.541007
O O9 0.766395 0.525738 0.573500
O O10 0.770347 0.622510 0.505303
O O11 0.500000 0.472190 0.607405
O O12 0.715283 0.525642 0.661956
O O13 0.782618 0.418911 0.624021
O O14 0.250000 0.934319 0.750000
O O15 0.000000 0.935434 0.692591
O O16 0.500000 0.330867 0.884006
O O17 0.783949 0.323282 0.925192
O O18 0.500000 0.184069 0.508632
O O19 0.769562 0.250000 0.505266
#
# Coordination Sequence:
#
# PCOD9537817 Si02
#       7
#    16   8  16  16  16  16  16
#     4   9  18  32  50  75 109 147 189 236 284 335
#     4  10  24  44  66  90 116 146 184 234 289 348
#     4   9  19  35  55  82 115 151 194 238 280 331
#     4  10  21  38  59  83 113 150 190 236 288 342
#     4  10  20  35  54  77 107 144 187 235 286 340
#     4  11  23  41  61  86 118 148 183 230 285 344
#     4  10  20  35  58  86 116 153 194 235 280 334
#
# _framework density 20.850804
#
# number of rings (size 3 to 8) (size 9 to 14) (size 15 to 20)
#    0.000    2.154    0.769    1.846    0.000    5.538 
#    0.000    4.615    0.000    0.000    0.000    0.000 
#    0.000    0.000    0.000    0.000    0.000    0.000 
#
# Total GULP energy -290217.401682 kJ/mol
# GULP energy per Si atom -5581.103878 kJ/mol
# Density = 2.080335 g / cm^3
# Si number density = 20.850804 Si / 1000 Ang^3
#
#
#
# Elastic Constant Matrix: (Units=GPa)
#
#
# Indices 1 2 3 4 5 6 
#
# 1 25.4441 3.6666 -2.3537 0.0000 0.0000 0.0000
# 2 3.6666 141.9607 45.3924 0.0000 0.0000 0.0000
# 3 -2.3537 45.3924 116.5542 0.0000 0.0000 0.0000
# 4 0.0000 0.0000 0.0000 6.9513 0.0000 0.0000
# 5 0.0000 0.0000 0.0000 0.0000 19.2077 0.0000
# 6 0.0000 0.0000 0.0000 0.0000 0.0000 19.6522
#
#
#
# Elastic Compliance Matrix: (Units=1/GPa)
#
#
# Indices 1 2 3 4 5 6 
#
# 1 0.039639 -0.001462 0.001370 0.000000 0.000000 0.000000
# 2 -0.001462 0.008100 -0.003184 0.000000 0.000000 0.000000
# 3 0.001370 -0.003184 0.009847 0.000000 0.000000 0.000000
# 4 0.000000 0.000000 0.000000 0.143858 0.000000 0.000000
# 5 0.000000 0.000000 0.000000 0.000000 0.052063 0.000000
# 6 0.000000 0.000000 0.000000 0.000000 0.000000 0.050885
#
#
# Mechanical properties :
#
#
# Convention : Reuss Voigt Hill
#
# Bulk Modulus (GPa) = 19.59464 41.92997 30.76230
# Shear Modulus (GPa) = 15.24596 24.97914 20.11255
#
# Velocity S-wave (km/s) = 2.70699 3.46496 3.10916
# Velocity P-wave (km/s) = 4.38045 6.01341 5.26068
#
# Compressibility (1/GPa) = 0.05103437
#
# Stress axis : x y z
#
# Youngs Moduli (GPa) = 25.22757 123.45537 101.54932
#
# Poissons Ratio (x) = 0.18047 -0.13910
# Poissons Ratio (y) = 0.03688 0.32335
# Poissons Ratio (z) = -0.03456 0.39310
#
# Static dielectric constant tensor:
#      x y z
#    x 1.814870 0.000000 0.000000 
#    y 0.000000 1.774920 0.000000 
#    z 0.000000 0.000000 1.736040 
# 
# From -- ./inp_files/64532.got.cif
#   From: 2010.05.17/outbox.cif.g08.bks.cpg/sg74_33_cif.got.tgz:64532.got - 2010.06.03 17:57:02.
