data_PCOD9537752
_publ_section_title
;
Structure prediction by ZEFSAII (Michael W. Deem and Ramdas Pophale) SiO2 
 PCOD9537752
Probable space group: I M M A
;
_chemical_formula_sum "Si O2"
_cell_formula_units_Z 64
_cell_length_a 9.941019
_cell_length_b 15.918801
_cell_length_c 21.255813
_cell_angle_alpha 90.000000
_cell_angle_beta 90.000000
_cell_angle_gamma 90.000000
_cell_volume 3363.713345
_symmetry_space_group_name_H-M "I M M A"
_symmetry_group_IT_number 74
_symmetry_cell_setting 'orthorhombic'
loop_
_space_group_symop_operation_xyz
x,y,z
-x,1/2-y,z
x,-y,-z
-x,1/2+y,-z
-x,-y,-z
x,1/2+y,-z
-x,y,z
x,1/2-y,z
1/2+x,1/2+y,1/2+z
1/2-x,-y,1/2+z
1/2+x,1/2-y,1/2-z
1/2-x,y,1/2-z
1/2-x,1/2-y,1/2-z
1/2+x,y,1/2-z
1/2-x,1/2+y,1/2+z
1/2+x,-y,1/2+z
loop_
_atom_site_type_symbol
_atom_site_label
_atom_site_fract_x
_atom_site_fract_y
_atom_site_fract_z
Si Si1 0.657835 0.750000 0.812419
Si Si2 0.292256 0.500000 0.000000
Si Si3 0.660359 0.925097 0.308324
Si Si4 0.650005 0.934167 0.863298
Si Si5 0.841708 0.840313 0.060198
O O1 0.500000 0.750000 0.793732
O O2 0.750000 0.750000 0.750000
O O3 0.679126 0.835480 0.852523
O O4 0.357864 0.465587 0.064459
O O5 0.211303 0.581091 0.022261
O O6 0.500000 0.934509 0.296449
O O7 0.750000 0.895699 0.250000
O O8 0.676781 0.861406 0.366415
O O9 0.732616 0.011709 0.330469
O O10 0.500000 0.950472 0.835661
O O11 0.779786 0.750000 0.044076
O O12 0.000000 0.836185 0.048866
#
# Coordination Sequence:
#
# PCOD9537752 Si02
#       5
#     8   8  16  16  16
#     4  10  22  38  56  82 116 150 193 240 291 348
#     4  10  20  34  60  82 113 148 197 236 291 342
#     4  10  20  35  57  82 111 147 188 232 282 338
#     4  10  21  37  57  82 115 152 189 238 291 346
#     4   9  19  35  54  80 115 151 187 233 283 338
#
# _framework density 19.026592000000001
#
# number of rings (size 3 to 8) (size 9 to 14) (size 15 to 20)
#    0.000    2.250    0.000    2.250    1.750    4.500 
#    0.000    0.000    0.000   14.250    0.000    0.000 
#    0.000    0.000    0.000    0.000    0.000    0.000 
#
# Total GULP energy -178181.464787 kJ/mol
# GULP energy per Si atom -5568.170775 kJ/mol
# Density = 1.898329 g / cm^3
# Si number density = 19.026592 Si / 1000 Ang^3
#
#
#
# Elastic Constant Matrix: (Units=GPa)
#
#
# Indices 1 2 3 4 5 6 
#
# 1 92.4334 46.9867 35.1799 0.0000 0.0000 0.0000
# 2 46.9867 156.3459 32.5915 0.0000 0.0000 0.0000
# 3 35.1799 32.5915 71.9339 0.0000 0.0000 0.0000
# 4 0.0000 0.0000 0.0000 -42.2276 0.0000 0.0000
# 5 0.0000 0.0000 0.0000 0.0000 -103.3339 0.0000
# 6 0.0000 0.0000 0.0000 0.0000 0.0000 20.0555
#
#
#
# Elastic Compliance Matrix: (Units=1/GPa)
#
#
# Indices 1 2 3 4 5 6 
#
# 1 0.014616 -0.003205 -0.005696 0.000000 0.000000 0.000000
# 2 -0.003205 0.007766 -0.001951 0.000000 0.000000 0.000000
# 3 -0.005696 -0.001951 0.017571 0.000000 0.000000 0.000000
# 4 0.000000 0.000000 0.000000 -0.023681 0.000000 0.000000
# 5 0.000000 0.000000 0.000000 0.000000 -0.009677 0.000000
# 6 0.000000 0.000000 0.000000 0.000000 0.000000 0.049862
#
#
# Mechanical properties :
#
#
# Convention : Reuss Voigt Hill
#
# Bulk Modulus (GPa) = 54.79772 61.13659 57.96716
# Shear Modulus (GPa) = 59.35221 -11.37086 23.99067
#
# Velocity S-wave (km/s) = 5.59125 -2.44730 3.55477
# Velocity P-wave (km/s) = 8.39916 4.92100 6.88339
#
# Compressibility (1/GPa) = 0.01824893
#
# Stress axis : x y z
#
# Youngs Moduli (GPa) = 68.41979 128.76589 56.91129
#
# Poissons Ratio (x) = 0.41271 0.32415
# Poissons Ratio (y) = 0.21929 0.11104
# Poissons Ratio (z) = 0.38970 0.25124
#
# Static dielectric constant tensor:
#      x y z
#    x 1.652700 0.000000 0.000000 
#    y 0.000000 1.728600 0.000000 
#    z 0.000000 0.000000 1.689120 
# 
# From -- ./inp_files/56474.got.cif
#   From: 2010.05.17/outbox.cif.g08.bks.cpg/sg74_29_cif.got.tgz:56474.got - 2010.06.03 17:57:02.
