data_PCOD9537521
_publ_section_title
;
Structure prediction by ZEFSAII (Michael W. Deem and Ramdas Pophale) SiO2 
 PCOD9537521
Probable space group: I M M A
;
_chemical_formula_sum "Si O2"
_cell_formula_units_Z 80
_cell_length_a 28.803362
_cell_length_b 8.958533
_cell_length_c 17.873229
_cell_angle_alpha 90.000000
_cell_angle_beta 90.000000
_cell_angle_gamma 90.000000
_cell_volume 4611.934177
_symmetry_space_group_name_H-M "I M M A"
_symmetry_group_IT_number 74
_symmetry_cell_setting 'orthorhombic'
loop_
_space_group_symop_operation_xyz
x,y,z
-x,1/2-y,z
x,-y,-z
-x,1/2+y,-z
-x,-y,-z
x,1/2+y,-z
-x,y,z
x,1/2-y,z
1/2+x,1/2+y,1/2+z
1/2-x,-y,1/2+z
1/2+x,1/2-y,1/2-z
1/2-x,y,1/2-z
1/2-x,1/2-y,1/2-z
1/2+x,y,1/2-z
1/2-x,1/2+y,1/2+z
1/2+x,-y,1/2+z
loop_
_atom_site_type_symbol
_atom_site_label
_atom_site_fract_x
_atom_site_fract_y
_atom_site_fract_z
Si Si1 0.213978 0.080096 0.819723
Si Si2 0.054059 0.069207 0.242139
Si Si3 0.443628 0.580505 0.574400
Si Si4 0.142276 0.429563 0.699145
Si Si5 0.713446 0.927767 0.918561
O O1 0.209650 0.250000 0.848458
O O2 0.250000 0.085036 0.750000
O O3 0.166942 0.031883 0.778738
O O4 0.237666 0.975636 0.880644
O O5 0.058584 0.250000 0.243828
O O6 0.065279 0.017065 0.156963
O O7 0.000000 0.034842 0.257358
O O8 0.090471 0.992604 0.297004
O O9 0.426276 0.500000 0.500000
O O10 0.500000 0.584461 0.569714
O O11 0.426739 0.750000 0.573169
O O12 0.143827 0.250000 0.691647
O O13 0.173209 0.503933 0.634480
O O14 0.709464 0.750000 0.921618
O O15 0.710074 0.000000 0.000000
#
# Coordination Sequence:
#
# PCOD9537521 Si02
#       5
#    16  16  16  16  16
#     4   8  16  32  51  73 102 131 161 201 248 299
#     4   9  18  32  49  71 101 138 180 222 261 304
#     4   8  14  25  41  61  86 117 155 200 247 292
#     4  10  20  34  53  77 105 136 172 213 256 305
#     4  11  21  34  55  80 106 135 168 207 254 309
#
# _framework density 17.346302000000001
#
# number of rings (size 3 to 8) (size 9 to 14) (size 15 to 20)
#    0.000    2.800    0.000    4.800    0.000    5.600 
#    0.000    3.000    0.000    3.000    0.000    0.000 
#    0.000    0.000    0.000    0.000    0.000    0.000 
#
# Total GULP energy -222790.336078 kJ/mol
# GULP energy per Si atom -5569.758402 kJ/mol
# Density = 1.730682 g / cm^3
# Si number density = 17.346302 Si / 1000 Ang^3
#
#
#
# Elastic Constant Matrix: (Units=GPa)
#
#
# Indices 1 2 3 4 5 6 
#
# 1 88.0184 44.5739 44.7370 0.0000 0.0000 0.0000
# 2 44.5739 84.6701 62.4514 0.0000 0.0000 0.0000
# 3 44.7370 62.4514 95.9887 0.0000 0.0000 0.0000
# 4 0.0000 0.0000 0.0000 27.3264 0.0000 0.0000
# 5 0.0000 0.0000 0.0000 0.0000 18.2756 0.0000
# 6 0.0000 0.0000 0.0000 0.0000 0.0000 8.1592
#
#
#
# Elastic Compliance Matrix: (Units=1/GPa)
#
#
# Indices 1 2 3 4 5 6 
#
# 1 0.016198 -0.005689 -0.003848 0.000000 0.000000 0.000000
# 2 -0.005689 0.024706 -0.013422 0.000000 0.000000 0.000000
# 3 -0.003848 -0.013422 0.020944 0.000000 0.000000 0.000000
# 4 0.000000 0.000000 0.000000 0.036595 0.000000 0.000000
# 5 0.000000 0.000000 0.000000 0.000000 0.054718 0.000000
# 6 0.000000 0.000000 0.000000 0.000000 0.000000 0.122561
#
#
# Mechanical properties :
#
#
# Convention : Reuss Voigt Hill
#
# Bulk Modulus (GPa) = 62.77867 63.57797 63.17832
# Shear Modulus (GPa) = 15.29290 18.54657 16.91974
#
# Velocity S-wave (km/s) = 2.97244 3.27340 3.12654
# Velocity P-wave (km/s) = 6.93184 7.14273 7.03808
#
# Compressibility (1/GPa) = 0.01592898
#
# Stress axis : x y z
#
# Youngs Moduli (GPa) = 61.73546 40.47665 47.74657
#
# Poissons Ratio (x) = 0.23028 0.18373
# Poissons Ratio (y) = 0.35123 0.64086
# Poissons Ratio (z) = 0.23755 0.54329
#
# Static dielectric constant tensor:
#      x y z
#    x 1.602140 0.000000 0.000000 
#    y 0.000000 1.590660 0.000000 
#    z 0.000000 0.000000 1.588910 
# 
# From -- ./inp_files/39948.got.cif
#   From: 2010.05.17/outbox.cif.g08.bks.cpg/sg74_20_cif.got.tgz:39948.got - 2010.06.03 17:57:02.
