data_PCOD9537354
_publ_section_title
;
Structure prediction by ZEFSAII (Michael W. Deem and Ramdas Pophale) SiO2 
 PCOD9537354
Probable space group: I M M A
;
_chemical_formula_sum "Si O2"
_cell_formula_units_Z 112
_cell_length_a 14.084491
_cell_length_b 30.463335
_cell_length_c 12.214198
_cell_angle_alpha 90.000000
_cell_angle_beta 90.000000
_cell_angle_gamma 90.000000
_cell_volume 5240.630727
_symmetry_space_group_name_H-M "I M M A"
_symmetry_group_IT_number 74
_symmetry_cell_setting 'orthorhombic'
loop_
_space_group_symop_operation_xyz
x,y,z
-x,1/2-y,z
x,-y,-z
-x,1/2+y,-z
-x,-y,-z
x,1/2+y,-z
-x,y,z
x,1/2-y,z
1/2+x,1/2+y,1/2+z
1/2-x,-y,1/2+z
1/2+x,1/2-y,1/2-z
1/2-x,y,1/2-z
1/2-x,1/2-y,1/2-z
1/2+x,y,1/2-z
1/2-x,1/2+y,1/2+z
1/2+x,-y,1/2+z
loop_
_atom_site_type_symbol
_atom_site_label
_atom_site_fract_x
_atom_site_fract_y
_atom_site_fract_z
Si Si1 0.384835 0.698930 0.569254
Si Si2 0.889518 0.358764 0.518685
Si Si3 0.384634 0.450502 0.359332
Si Si4 0.614524 0.361975 0.237347
Si Si5 0.109949 0.299070 0.711340
Si Si6 0.886328 0.545260 0.116454
Si Si7 0.804430 0.134839 0.881822
O O1 0.500000 0.698615 0.560246
O O2 0.354838 0.750000 0.551332
O O3 0.357217 0.679509 0.688344
O O4 0.345739 0.661824 0.486286
O O5 0.864440 0.357714 0.390950
O O6 0.886751 0.312535 0.583728
O O7 0.801292 0.380533 0.582237
O O8 0.000000 0.374831 0.530292
O O9 0.500000 0.449237 0.354079
O O10 0.351974 0.408006 0.291851
O O11 0.353405 0.499941 0.327873
O O12 0.358628 0.449664 0.487890
O O13 0.500000 0.363205 0.243269
O O14 0.141991 0.250000 0.726155
O O15 0.167782 0.330633 0.788674
O O16 0.000000 0.302532 0.745120
O O17 0.854239 0.591179 0.162472
O O18 0.000000 0.543196 0.116790
#
# Coordination Sequence:
#
# PCOD9537354 Si02
#       7
#    16  16  16  16  16  16  16
#     4  10  20  33  53  87 125 155 190 244 308 367
#     4  10  24  41  57  79 114 163 211 246 288 356
#     4   8  14  28  54  86 121 154 189 237 298 360
#     4   9  17  35  58  81 119 166 202 240 296 358
#     4  10  22  41  64  88 114 150 200 257 315 371
#     4   9  16  28  53  92 124 146 184 243 305 361
#     4  12  21  34  59  88 120 153 193 253 313 360
#
# _framework density 21.371473999999999
#
# number of rings (size 3 to 8) (size 9 to 14) (size 15 to 20)
#    0.000    2.286    1.429    3.000    0.000    4.000 
#    0.000    3.571    0.000    7.714    0.000   11.000 
#    0.000    0.000    0.000    0.286    0.000    0.000 
#
# Total GULP energy -311799.011502 kJ/mol
# GULP energy per Si atom -5567.839491 kJ/mol
# Density = 2.132283 g / cm^3
# Si number density = 21.371474 Si / 1000 Ang^3
#
#
#
# Elastic Constant Matrix: (Units=GPa)
#
#
# Indices 1 2 3 4 5 6 
#
# 1 66.6052 20.5663 21.9458 0.0001 0.0000 0.0000
# 2 20.5663 122.9994 39.8975 -0.0002 0.0000 0.0001
# 3 21.9458 39.8975 106.3441 -0.0006 0.0000 0.0002
# 4 0.0001 -0.0002 -0.0006 16.6538 0.0000 0.0000
# 5 0.0000 0.0000 0.0000 0.0000 19.7235 0.0000
# 6 0.0000 0.0001 0.0002 0.0000 0.0000 -28.9010
#
#
#
# Elastic Compliance Matrix: (Units=1/GPa)
#
#
# Indices 1 2 3 4 5 6 
#
# 1 0.016483 -0.001882 -0.002696 0.000000 0.000000 0.000000
# 2 -0.001882 0.009471 -0.003165 0.000000 0.000000 0.000000
# 3 -0.002696 -0.003165 0.011147 0.000000 0.000000 0.000000
# 4 0.000000 0.000000 0.000000 0.060046 0.000000 0.000000
# 5 0.000000 0.000000 0.000000 0.000000 0.050701 0.000000
# 6 0.000000 0.000000 0.000000 0.000000 0.000000 -0.034601
#
#
# Mechanical properties :
#
#
# Convention : Reuss Voigt Hill
#
# Bulk Modulus (GPa) = 46.26015 51.19642 48.72829
# Shear Modulus (GPa) = 36.78141 15.73122 26.25632
#
# Velocity S-wave (km/s) = 4.15306 2.71603 3.50890
# Velocity P-wave (km/s) = 6.68505 5.81750 6.26631
#
# Compressibility (1/GPa) = 0.02161688
#
# Stress axis : x y z
#
# Youngs Moduli (GPa) = 60.66843 105.58074 89.70886
#
# Poissons Ratio (x) = 0.19867 0.24182
# Poissons Ratio (y) = 0.11416 0.28394
# Poissons Ratio (z) = 0.16354 0.33417
#
# Static dielectric constant tensor:
#      x y z
#    x 1.946160 0.000000 0.000000 
#    y 0.000000 1.835080 0.000000 
#    z 0.000000 0.000000 1.800270 
# 
# From -- ./inp_files/21175.got.cif
#   From: 2010.05.17/outbox.cif.g08.bks.cpg/sg74_11_cif.got.tgz:21175.got - 2010.06.03 17:57:02.
