data_PCOD9537623
_publ_section_title
;
Structure prediction by ZEFSAII (Michael W. Deem and Ramdas Pophale) SiO2 
 PCOD9537623
Probable space group: I M M A
;
_chemical_formula_sum "Si O2"
_cell_formula_units_Z 72
_cell_length_a 16.476701
_cell_length_b 9.194896
_cell_length_c 27.753746
_cell_angle_alpha 90.000000
_cell_angle_beta 90.000000
_cell_angle_gamma 90.000000
_cell_volume 4204.735596
_symmetry_space_group_name_H-M "I M M A"
_symmetry_group_IT_number 74
_symmetry_cell_setting 'orthorhombic'
loop_
_space_group_symop_operation_xyz
x,y,z
-x,1/2-y,z
x,-y,-z
-x,1/2+y,-z
-x,-y,-z
x,1/2+y,-z
-x,y,z
x,1/2-y,z
1/2+x,1/2+y,1/2+z
1/2-x,-y,1/2+z
1/2+x,1/2-y,1/2-z
1/2-x,y,1/2-z
1/2-x,1/2-y,1/2-z
1/2+x,y,1/2-z
1/2-x,1/2+y,1/2+z
1/2+x,-y,1/2+z
loop_
_atom_site_type_symbol
_atom_site_label
_atom_site_fract_x
_atom_site_fract_y
_atom_site_fract_z
Si Si1 0.164729 0.074952 0.890745
Si Si2 0.500000 0.425516 0.552564
Si Si3 0.745122 0.576567 0.806672
Si Si4 0.325948 0.577868 0.049859
Si Si5 0.091886 0.923504 0.352608
O O1 0.166418 0.250000 0.883696
O O2 0.239095 0.036575 0.926615
O O3 0.080214 0.036156 0.916433
O O4 0.186295 0.998132 0.840246
O O5 0.500000 0.250000 0.545974
O O6 0.500000 0.500000 0.500000
O O7 0.748795 0.750000 0.813388
O O8 0.750000 0.544198 0.750000
O O9 0.659557 0.512991 0.824732
O O10 0.323860 0.750000 0.041691
O O11 0.392316 0.547521 0.090881
O O12 0.340504 0.500000 0.000000
O O13 0.105709 0.750000 0.345549
O O14 0.000000 0.957920 0.338878
#
# Coordination Sequence:
#
# PCOD9537623 Si02
#       5
#    16   8  16  16  16
#     4   9  19  35  53  75 106 141 180 221 259 314
#     4  10  20  34  54  82 114 146 182 226 273 322
#     4  10  21  37  56  78 104 135 172 219 272 319
#     4   9  17  29  47  72 102 136 170 206 248 297
#     4   9  19  36  55  76 103 135 172 212 253 305
#
# _framework density 17.123550999999999
#
# number of rings (size 3 to 8) (size 9 to 14) (size 15 to 20)
#    0.000    2.667    0.000    2.667    0.000    7.111 
#    2.000    0.000    0.000    0.000    0.000    0.000 
#    0.000    0.000    0.000    0.000    0.000    0.000 
#
# Total GULP energy -200703.727993 kJ/mol
# GULP energy per Si atom -5575.103555 kJ/mol
# Density = 1.708458 g / cm^3
# Si number density = 17.123551 Si / 1000 Ang^3
#
#
#
# Elastic Constant Matrix: (Units=GPa)
#
#
# Indices 1 2 3 4 5 6 
#
# 1 99.7803 35.7078 52.7026 0.0000 0.0000 0.0000
# 2 35.7078 35.7325 62.6393 0.0000 0.0000 0.0000
# 3 52.7026 62.6393 140.1487 0.0000 0.0000 0.0000
# 4 0.0000 0.0000 0.0000 35.5398 0.0000 0.0000
# 5 0.0000 0.0000 0.0000 0.0000 12.0601 0.0000
# 6 0.0000 0.0000 0.0000 0.0000 0.0000 15.1862
#
#
#
# Elastic Compliance Matrix: (Units=1/GPa)
#
#
# Indices 1 2 3 4 5 6 
#
# 1 0.016428 -0.025807 0.005357 0.000000 0.000000 0.000000
# 2 -0.025807 0.169809 -0.066191 0.000000 0.000000 0.000000
# 3 0.005357 -0.066191 0.034705 0.000000 0.000000 0.000000
# 4 0.000000 0.000000 0.000000 0.028137 0.000000 0.000000
# 5 0.000000 0.000000 0.000000 0.000000 0.082918 0.000000
# 6 0.000000 0.000000 0.000000 0.000000 0.000000 0.065849
#
#
# Mechanical properties :
#
#
# Convention : Reuss Voigt Hill
#
# Bulk Modulus (GPa) = 20.98258 64.19565 42.58911
# Shear Modulus (GPa) = 8.51767 20.86467 14.69117
#
# Velocity S-wave (km/s) = 2.23272 3.49446 2.93226
# Velocity P-wave (km/s) = 4.35051 7.33844 6.03240
#
# Compressibility (1/GPa) = 0.04765859
#
# Stress axis : x y z
#
# Youngs Moduli (GPa) = 60.87103 5.88899 28.81444
#
# Poissons Ratio (x) = 0.15198 -0.15435
# Poissons Ratio (y) = 1.57092 1.90725
# Poissons Ratio (z) = -0.32607 0.38980
#
# Static dielectric constant tensor:
#      x y z
#    x 1.578580 0.000000 0.000000 
#    y 0.000000 1.572910 0.000000 
#    z 0.000000 0.000000 1.560520 
# 
# From -- ./inp_files/63627.got.cif
#   From: 2010.05.17/outbox.cif.g08.bks.cpg/sg74_32_cif.got.tgz:63627.got - 2010.06.03 17:57:02.
