data_PCOD9537030
_publ_section_title
;
Structure prediction by ZEFSAII (Michael W. Deem and Ramdas Pophale) SiO2 
 PCOD9537030
Probable space group: I M M A
;
_chemical_formula_sum "Si O2"
_cell_formula_units_Z 96
_cell_length_a 23.209645
_cell_length_b 9.304914
_cell_length_c 21.047287
_cell_angle_alpha 90.000000
_cell_angle_beta 90.000000
_cell_angle_gamma 90.000000
_cell_volume 4545.451042
_symmetry_space_group_name_H-M "I M M A"
_symmetry_group_IT_number 74
_symmetry_cell_setting 'orthorhombic'
loop_
_space_group_symop_operation_xyz
x,y,z
-x,1/2-y,z
x,-y,-z
-x,1/2+y,-z
-x,-y,-z
x,1/2+y,-z
-x,y,z
x,1/2-y,z
1/2+x,1/2+y,1/2+z
1/2-x,-y,1/2+z
1/2+x,1/2-y,1/2-z
1/2-x,y,1/2-z
1/2-x,1/2-y,1/2-z
1/2+x,y,1/2-z
1/2-x,1/2+y,1/2+z
1/2+x,-y,1/2+z
loop_
_atom_site_type_symbol
_atom_site_label
_atom_site_fract_x
_atom_site_fract_y
_atom_site_fract_z
Si Si1 0.179195 0.076630 0.932384
Si Si2 0.151363 0.093836 0.447235
Si Si3 0.935512 0.411986 0.620507
Si Si4 0.760885 0.415191 0.331170
Si Si5 0.933873 0.576712 0.139563
Si Si6 0.645029 0.583898 0.243736
O O1 0.189286 0.250000 0.935674
O O2 0.111247 0.049978 0.917176
O O3 0.214263 0.012170 0.870765
O O4 0.191917 0.000000 0.000000
O O5 0.142958 0.250000 0.473743
O O6 0.190156 0.098661 0.385479
O O7 0.181666 0.000000 0.500000
O O8 0.091777 0.020927 0.428574
O O9 0.935770 0.250000 0.594964
O O10 0.894579 0.410318 0.681482
O O11 0.000000 0.450684 0.639268
O O12 0.740637 0.250000 0.319394
O O13 0.799988 0.486165 0.274254
O O14 0.937888 0.750000 0.146033
O O15 0.897903 0.527959 0.201648
O O16 0.000000 0.523136 0.134401
O O17 0.663120 0.750000 0.258344
#
# Coordination Sequence:
#
# PCOD9537030 Si02
#       6
#    16  16  16  16  16  16
#     4  11  23  39  61  88 119 157 202 250 301 357
#     4  10  20  32  47  67  94 133 178 225 277 332
#     4   9  17  29  47  71  98 131 173 222 275 330
#     4  10  21  37  57  83 116 151 189 236 292 352
#     4   9  19  37  62  91 121 156 200 248 297 354
#     4   9  17  33  59  87 114 146 188 236 286 344
#
# _framework density 21.120017000000001
#
# number of rings (size 3 to 8) (size 9 to 14) (size 15 to 20)
#    0.000    2.333    0.000    2.500    0.000    7.000 
#    0.000    5.000    0.000    5.000    0.000    0.000 
#    0.000    0.000    0.000    0.000    0.000    0.000 
#
# Total GULP energy -267480.961127 kJ/mol
# GULP energy per Si atom -5572.520023 kJ/mol
# Density = 2.107195 g / cm^3
# Si number density = 21.120017 Si / 1000 Ang^3
#
#
#
# Elastic Constant Matrix: (Units=GPa)
#
#
# Indices 1 2 3 4 5 6 
#
# 1 166.2829 59.5516 30.2064 0.0000 0.0000 0.0000
# 2 59.5516 106.4033 25.4191 0.0000 0.0000 0.0000
# 3 30.2064 25.4191 55.2789 0.0000 0.0000 0.0000
# 4 0.0000 0.0000 0.0000 25.1049 0.0000 0.0000
# 5 0.0000 0.0000 0.0000 0.0000 9.5033 0.0000
# 6 0.0000 0.0000 0.0000 0.0000 0.0000 -148.8677
#
#
#
# Elastic Compliance Matrix: (Units=1/GPa)
#
#
# Indices 1 2 3 4 5 6 
#
# 1 0.007827 -0.003773 -0.002542 0.000000 0.000000 0.000000
# 2 -0.003773 0.012377 -0.003630 0.000000 0.000000 0.000000
# 3 -0.002542 -0.003630 0.021148 0.000000 0.000000 0.000000
# 4 0.000000 0.000000 0.000000 0.039833 0.000000 0.000000
# 5 0.000000 0.000000 0.000000 0.000000 0.105227 0.000000
# 6 0.000000 0.000000 0.000000 0.000000 0.000000 -0.006717
#
#
# Mechanical properties :
#
#
# Convention : Reuss Voigt Hill
#
# Bulk Modulus (GPa) = 46.59243 62.03547 54.31395
# Shear Modulus (GPa) = 24.18522 -8.66604 7.75959
#
# Velocity S-wave (km/s) = 3.38765 -2.02784 1.91886
# Velocity P-wave (km/s) = 6.11639 4.89426 5.53913
#
# Compressibility (1/GPa) = 0.02146272
#
# Stress axis : x y z
#
# Youngs Moduli (GPa) = 127.76368 80.79415 47.28573
#
# Poissons Ratio (x) = 0.30486 0.12019
# Poissons Ratio (y) = 0.48210 0.17162
# Poissons Ratio (z) = 0.32475 0.29324
#
# Static dielectric constant tensor:
#      x y z
#    x 1.769880 0.000000 0.000000 
#    y 0.000000 1.719170 0.000000 
#    z 0.000000 0.000000 1.892550 
# 
# From -- ./inp_files/61911.got.cif
#   From: 2010.05.17/outbox.cif.g08.bks.cpg/sg74_31_cif.got.tgz:61911.got - 2010.06.03 17:57:02.
