data_PCOD9537951
_publ_section_title
;
Structure prediction by ZEFSAII (Michael W. Deem and Ramdas Pophale) SiO2 
 PCOD9537951
Probable space group: I M M A
;
_chemical_formula_sum "Si O2"
_cell_formula_units_Z 116
_cell_length_a 19.014277
_cell_length_b 19.209201
_cell_length_c 16.952135
_cell_angle_alpha 90.000000
_cell_angle_beta 90.000000
_cell_angle_gamma 90.000000
_cell_volume 6191.751522
_symmetry_space_group_name_H-M "I M M A"
_symmetry_group_IT_number 74
_symmetry_cell_setting 'orthorhombic'
loop_
_space_group_symop_operation_xyz
x,y,z
-x,1/2-y,z
x,-y,-z
-x,1/2+y,-z
-x,-y,-z
x,1/2+y,-z
-x,y,z
x,1/2-y,z
1/2+x,1/2+y,1/2+z
1/2-x,-y,1/2+z
1/2+x,1/2-y,1/2-z
1/2-x,y,1/2-z
1/2-x,1/2-y,1/2-z
1/2+x,y,1/2-z
1/2-x,1/2+y,1/2+z
1/2+x,-y,1/2+z
loop_
_atom_site_type_symbol
_atom_site_label
_atom_site_fract_x
_atom_site_fract_y
_atom_site_fract_z
Si Si1 0.918743 0.669669 0.033074
Si Si2 0.415383 0.669586 0.028829
Si Si3 0.722815 0.526099 0.663901
Si Si4 0.326242 0.117862 0.675077
Si Si5 0.420211 0.547343 0.579008
Si Si6 0.353884 0.552028 0.926108
Si Si7 0.750000 0.250000 0.750000
Si Si8 0.415885 0.068189 0.824434
O O1 0.898935 0.750000 0.023386
O O2 0.871328 0.632275 0.097606
O O3 0.000000 0.666844 0.060345
O O4 0.915818 0.625937 0.952958
O O5 0.500000 0.670250 0.023452
O O6 0.390837 0.750000 0.032134
O O7 0.398142 0.626552 0.108656
O O8 0.386516 0.624277 0.955796
O O9 0.750000 0.547721 0.750000
O O10 0.730896 0.442276 0.658714
O O11 0.641641 0.537195 0.641515
O O12 0.773585 0.560783 0.600257
O O13 0.291565 0.188929 0.701285
O O14 0.375885 0.089467 0.745227
O O15 0.409636 0.500000 0.500000
O O16 0.500000 0.532669 0.607324
O O17 0.392397 0.507704 0.857133
O O18 0.358221 0.500000 0.000000
O O19 0.500000 0.068864 0.813904
#
# Coordination Sequence:
#
# PCOD9537951 Si02
#       8
#    16  16  16  16  16  16   4  16
#     4  10  21  38  61  89 118 151 196 250 307 363
#     4   9  19  36  58  86 120 155 197 245 291 348
#     4  12  23  40  58  85 119 155 199 248 300 353
#     4  12  22  36  53  85 121 164 196 235 289 365
#     4  10  21  38  63  89 116 155 208 259 299 350
#     4  10  20  36  58  84 115 158 197 243 295 349
#     4  12  24  36  46  76 136 168 196 222 290 372
#     4  10  20  35  56  85 120 158 200 239 288 351
#
# _framework density 18.734601999999999
#
# number of rings (size 3 to 8) (size 9 to 14) (size 15 to 20)
#    0.000    1.517    4.138    1.241    0.966    2.207 
#    0.000    0.690    0.000    1.655    0.000    1.931 
#    0.000    0.000    0.000    0.000    0.000    0.000 
#
# Total GULP energy -323267.584160 kJ/mol
# GULP energy per Si atom -5573.579037 kJ/mol
# Density = 1.869196 g / cm^3
# Si number density = 18.734602 Si / 1000 Ang^3
#
#
#
# Elastic Constant Matrix: (Units=GPa)
#
#
# Indices 1 2 3 4 5 6 
#
# 1 76.6735 24.9546 31.7327 0.0000 0.0000 0.0000
# 2 24.9546 89.4122 31.2288 0.0000 0.0000 0.0000
# 3 31.7327 31.2288 42.4415 0.0000 0.0000 0.0000
# 4 0.0000 0.0000 0.0000 18.0749 0.0000 0.0000
# 5 0.0000 0.0000 0.0000 0.0000 31.5154 0.0000
# 6 0.0000 0.0000 0.0000 0.0000 0.0000 24.4891
#
#
#
# Elastic Compliance Matrix: (Units=1/GPa)
#
#
# Indices 1 2 3 4 5 6 
#
# 1 0.018900 -0.000457 -0.013795 0.000000 0.000000 0.000000
# 2 -0.000457 0.015064 -0.010742 0.000000 0.000000 0.000000
# 3 -0.013795 -0.010742 0.041781 0.000000 0.000000 0.000000
# 4 0.000000 0.000000 0.000000 0.055325 0.000000 0.000000
# 5 0.000000 0.000000 0.000000 0.000000 0.031731 0.000000
# 6 0.000000 0.000000 0.000000 0.000000 0.000000 0.040835
#
#
# Mechanical properties :
#
#
# Convention : Reuss Voigt Hill
#
# Bulk Modulus (GPa) = 38.82643 42.70659 40.76651
# Shear Modulus (GPa) = 19.06872 22.85662 20.96267
#
# Velocity S-wave (km/s) = 3.19381 3.49667 3.34867
# Velocity P-wave (km/s) = 5.86260 6.25678 6.06289
#
# Compressibility (1/GPa) = 0.02575565
#
# Stress axis : x y z
#
# Youngs Moduli (GPa) = 52.90881 66.38508 23.93446
#
# Poissons Ratio (x) = 0.03032 0.33019
# Poissons Ratio (y) = 0.02417 0.25711
# Poissons Ratio (z) = 0.72990 0.71314
#
# Static dielectric constant tensor:
#      x y z
#    x 1.690600 0.000000 0.000000 
#    y 0.000000 1.652790 0.000000 
#    z 0.000000 0.000000 1.659330 
# 
# From -- ./inp_files/44249.got.cif
#   From: 2010.05.17/outbox.cif.g08.bks.cpg/sg74_23_cif.got.tgz:44249.got - 2010.06.03 17:57:02.
