data_PCOD9537406
_publ_section_title
;
Structure prediction by ZEFSAII (Michael W. Deem and Ramdas Pophale) SiO2 
 PCOD9537406
Probable space group: I M M A
;
_chemical_formula_sum "Si O2"
_cell_formula_units_Z 112
_cell_length_a 13.236147
_cell_length_b 33.199098
_cell_length_c 12.770555
_cell_angle_alpha 90.000000
_cell_angle_beta 90.000000
_cell_angle_gamma 90.000000
_cell_volume 5611.741248
_symmetry_space_group_name_H-M "I M M A"
_symmetry_group_IT_number 74
_symmetry_cell_setting 'orthorhombic'
loop_
_space_group_symop_operation_xyz
x,y,z
-x,1/2-y,z
x,-y,-z
-x,1/2+y,-z
-x,-y,-z
x,1/2+y,-z
-x,y,z
x,1/2-y,z
1/2+x,1/2+y,1/2+z
1/2-x,-y,1/2+z
1/2+x,1/2-y,1/2-z
1/2-x,y,1/2-z
1/2-x,1/2-y,1/2-z
1/2+x,y,1/2-z
1/2-x,1/2+y,1/2+z
1/2+x,-y,1/2+z
loop_
_atom_site_type_symbol
_atom_site_label
_atom_site_fract_x
_atom_site_fract_y
_atom_site_fract_z
Si Si1 0.389803 0.203604 0.836525
Si Si2 0.877432 0.919614 0.828837
Si Si3 0.829430 0.821996 0.115123
Si Si4 0.384162 0.007015 0.626322
Si Si5 0.384243 0.657486 0.806069
Si Si6 0.621041 0.909791 0.432698
Si Si7 0.195043 0.797385 0.890492
O O1 0.500000 0.187726 0.866356
O O2 0.382374 0.250000 0.871157
O O3 0.291545 0.181248 0.876739
O O4 0.377913 0.201932 0.710810
O O5 0.857196 0.887435 0.737022
O O6 0.000000 0.920634 0.833019
O O7 0.842881 0.966212 0.821794
O O8 0.843356 0.906194 0.945891
O O9 0.859355 0.868216 0.123794
O O10 0.856438 0.805229 0.001643
O O11 0.500000 0.010017 0.664328
O O12 0.336053 0.051365 0.628810
O O13 0.387252 0.000000 0.500000
O O14 0.500000 0.657890 0.844187
O O15 0.299332 0.676844 0.880536
O O16 0.373831 0.685396 0.702522
O O17 0.500000 0.915870 0.438956
O O18 0.215647 0.750000 0.877482
#
# Coordination Sequence:
#
# PCOD9537406 Si02
#       7
#    16  16  16  16  16  16  16
#     4  10  22  39  57  76  98 128 167 215 273 331
#     4   8  13  25  45  71 103 138 173 210 253 296
#     4  11  20  35  56  78 103 131 169 217 268 323
#     4   7  11  20  39  70 105 134 164 205 253 301
#     4  10  20  34  50  71 103 142 183 220 253 294
#     4   9  15  25  46  79 110 135 165 206 259 309
#     4  11  23  35  49  72 102 139 181 222 265 308
#
# _framework density 19.958155000000001
#
# number of rings (size 3 to 8) (size 9 to 14) (size 15 to 20)
#    0.000    2.571    1.429    4.714    0.000    2.286 
#    0.000    0.000    0.000    3.429    0.000    0.000 
#    0.000    5.143    0.000    5.143    0.000    0.000 
#
# Total GULP energy -311971.435456 kJ/mol
# GULP energy per Si atom -5570.918490 kJ/mol
# Density = 1.991273 g / cm^3
# Si number density = 19.958155 Si / 1000 Ang^3
#
#
#
# Elastic Constant Matrix: (Units=GPa)
#
#
# Indices 1 2 3 4 5 6 
#
# 1 59.2208 2.7161 -14.8942 0.0001 0.0001 0.0000
# 2 2.7161 139.5178 4.5735 0.0029 -0.0001 0.0003
# 3 -14.8942 4.5735 39.1143 -0.0124 -0.0014 -0.0001
# 4 0.0001 0.0029 -0.0124 -71.5737 0.0022 -0.0011
# 5 0.0001 -0.0001 -0.0014 0.0022 6.4789 -0.0002
# 6 0.0000 0.0003 -0.0001 -0.0011 -0.0002 -13.0010
#
#
#
# Elastic Compliance Matrix: (Units=1/GPa)
#
#
# Indices 1 2 3 4 5 6 
#
# 1 0.018724 -0.000601 0.007200 -0.000001 0.000001 0.000000
# 2 -0.000601 0.007214 -0.001072 0.000000 0.000000 0.000000
# 3 0.007200 -0.001072 0.028433 -0.000005 0.000006 0.000000
# 4 -0.000001 0.000000 -0.000005 -0.013972 0.000005 0.000001
# 5 0.000001 0.000000 0.000006 0.000005 0.154348 -0.000003
# 6 0.000000 0.000000 0.000000 0.000001 -0.000003 -0.076917
#
#
# Mechanical properties :
#
#
# Convention : Reuss Voigt Hill
#
# Bulk Modulus (GPa) = 15.28426 24.73819 20.01122
# Shear Modulus (GPa) = 38.88466 0.74467 19.81466
#
# Velocity S-wave (km/s) = 4.41875 0.61149 3.15431
# Velocity P-wave (km/s) = 5.80591 3.59451 4.82852
#
# Compressibility (1/GPa) = 0.06542680
#
# Stress axis : x y z
#
# Youngs Moduli (GPa) = 53.40637 138.61196 35.17012
#
# Poissons Ratio (x) = 0.08324 -0.25323
# Poissons Ratio (y) = 0.03207 0.03771
# Poissons Ratio (z) = -0.38454 0.14862
#
# Static dielectric constant tensor:
#      x y z
#    x 1.728010 0.000000 0.000000 
#    y 0.000000 1.743930 0.000000 
#    z 0.000000 0.000000 1.718980 
# 
# From -- ./inp_files/33136.got.cif
#   From: 2010.05.17/outbox.cif.g08.bks.cpg/sg74_17_cif.got.tgz:33136.got - 2010.06.03 17:57:02.
