data_PCOD9537059
_publ_section_title
;
Structure prediction by ZEFSAII (Michael W. Deem and Ramdas Pophale) SiO2 
 PCOD9537059
Probable space group: I M M A
;
_chemical_formula_sum "Si O2"
_cell_formula_units_Z 96
_cell_length_a 15.610077
_cell_length_b 10.718825
_cell_length_c 36.201514
_cell_angle_alpha 90.000000
_cell_angle_beta 90.000000
_cell_angle_gamma 90.000000
_cell_volume 6057.298271
_symmetry_space_group_name_H-M "I M M A"
_symmetry_group_IT_number 74
_symmetry_cell_setting 'orthorhombic'
loop_
_space_group_symop_operation_xyz
x,y,z
-x,1/2-y,z
x,-y,-z
-x,1/2+y,-z
-x,-y,-z
x,1/2+y,-z
-x,y,z
x,1/2-y,z
1/2+x,1/2+y,1/2+z
1/2-x,-y,1/2+z
1/2+x,1/2-y,1/2-z
1/2-x,y,1/2-z
1/2-x,1/2-y,1/2-z
1/2+x,y,1/2-z
1/2-x,1/2+y,1/2+z
1/2+x,-y,1/2+z
loop_
_atom_site_type_symbol
_atom_site_label
_atom_site_fract_x
_atom_site_fract_y
_atom_site_fract_z
Si Si1 0.100971 0.481973 0.612104
Si Si2 0.405503 0.982194 0.236264
Si Si3 0.222197 0.394259 0.674420
Si Si4 0.100670 0.250000 0.351314
Si Si5 0.655405 0.750000 0.767498
Si Si6 0.103629 0.894575 0.471073
Si Si7 0.406884 0.104546 0.681588
O O1 0.161909 0.406111 0.639164
O O2 0.114552 0.626250 0.624256
O O3 0.120968 0.446080 0.570046
O O4 0.000000 0.454605 0.618062
O O5 0.500000 0.960565 0.219345
O O6 0.393932 0.127015 0.245372
O O7 0.329600 0.953371 0.208188
O O8 0.400391 0.905397 0.273930
O O9 0.234242 0.250000 0.684126
O O10 0.316764 0.450125 0.667773
O O11 0.152620 0.250000 0.312702
O O12 0.000000 0.250000 0.340104
O O13 0.750000 0.750000 0.750000
O O14 0.133520 0.750000 0.475867
O O15 0.000000 0.889548 0.474835
O O16 0.134534 0.000000 0.500000
O O17 0.500000 0.048955 0.671334
O O18 0.409721 0.250000 0.670709
#
# Coordination Sequence:
#
# PCOD9537059 Si02
#       7
#    16  16  16   8   8  16  16
#     4  10  20  32  48  69  97 126 160 198 236 285
#     4  11  21  32  45  63  87 115 151 196 243 292
#     4  11  20  30  47  67  88 117 153 193 242 287
#     4  10  20  34  48  66  92 127 167 208 253 293
#     4  12  22  32  46  62  86 121 164 207 248 290
#     4   9  18  31  48  71 100 133 166 197 234 284
#     4   9  19  34  48  63  85 114 152 197 244 292
#
# _framework density 15.848649999999999
#
# number of rings (size 3 to 8) (size 9 to 14) (size 15 to 20)
#    0.000    1.833    1.667    3.750    1.167    4.000 
#    0.000    0.000    0.000    0.000    0.000    0.000 
#    0.000    0.667    0.000    0.333    0.000    0.333 
#
# Total GULP energy -267443.477946 kJ/mol
# GULP energy per Si atom -5571.739124 kJ/mol
# Density = 1.581258 g / cm^3
# Si number density = 15.848650 Si / 1000 Ang^3
#
#
#
# Elastic Constant Matrix: (Units=GPa)
#
#
# Indices 1 2 3 4 5 6 
#
# 1 94.2819 16.8065 23.6477 0.0000 0.0000 0.0000
# 2 16.8065 63.0360 17.3684 0.0000 0.0000 0.0000
# 3 23.6477 17.3684 58.5863 0.0000 0.0000 0.0000
# 4 0.0000 0.0000 0.0000 16.7038 0.0000 0.0000
# 5 0.0000 0.0000 0.0000 0.0000 3.0367 0.0000
# 6 0.0000 0.0000 0.0000 0.0000 0.0000 13.6929
#
#
#
# Elastic Compliance Matrix: (Units=1/GPa)
#
#
# Indices 1 2 3 4 5 6 
#
# 1 0.012037 -0.002037 -0.004255 0.000000 0.000000 0.000000
# 2 -0.002037 0.017620 -0.004401 0.000000 0.000000 0.000000
# 3 -0.004255 -0.004401 0.020091 0.000000 0.000000 0.000000
# 4 0.000000 0.000000 0.000000 0.059867 0.000000 0.000000
# 5 0.000000 0.000000 0.000000 0.000000 0.329307 0.000000
# 6 0.000000 0.000000 0.000000 0.000000 0.000000 0.073031
#
#
# Mechanical properties :
#
#
# Convention : Reuss Voigt Hill
#
# Bulk Modulus (GPa) = 35.25887 36.83885 36.04886
# Shear Modulus (GPa) = 9.21164 17.22545 13.21854
#
# Velocity S-wave (km/s) = 2.41348 3.30035 2.89112
# Velocity P-wave (km/s) = 5.48289 6.14961 5.82579
#
# Compressibility (1/GPa) = 0.02836166
#
# Stress axis : x y z
#
# Youngs Moduli (GPa) = 83.07906 56.75456 49.77357
#
# Poissons Ratio (x) = 0.11560 0.21177
# Poissons Ratio (y) = 0.16923 0.21907
# Poissons Ratio (z) = 0.35347 0.24980
#
# Static dielectric constant tensor:
#      x y z
#    x 1.576750 0.000000 0.000000 
#    y 0.000000 1.585620 0.000000 
#    z 0.000000 0.000000 1.505120 
# 
# From -- ./inp_files/71826.got.cif
#   From: 2010.05.17/outbox.cif.g08.bks.cpg/sg74_36_cif.got.tgz:71826.got - 2010.06.03 17:57:02.
