data_PCOD9537251
_publ_section_title
;
Structure prediction by ZEFSAII (Michael W. Deem and Ramdas Pophale) SiO2 
 PCOD9537251
Probable space group: I M M A
;
_chemical_formula_sum "Si O2"
_cell_formula_units_Z 96
_cell_length_a 32.261328
_cell_length_b 19.100465
_cell_length_c 8.151279
_cell_angle_alpha 90.000000
_cell_angle_beta 90.000000
_cell_angle_gamma 90.000000
_cell_volume 5022.870013
_symmetry_space_group_name_H-M "I M M A"
_symmetry_group_IT_number 74
_symmetry_cell_setting 'orthorhombic'
loop_
_space_group_symop_operation_xyz
x,y,z
-x,1/2-y,z
x,-y,-z
-x,1/2+y,-z
-x,-y,-z
x,1/2+y,-z
-x,y,z
x,1/2-y,z
1/2+x,1/2+y,1/2+z
1/2-x,-y,1/2+z
1/2+x,1/2-y,1/2-z
1/2-x,y,1/2-z
1/2-x,1/2-y,1/2-z
1/2+x,y,1/2-z
1/2-x,1/2+y,1/2+z
1/2+x,-y,1/2+z
loop_
_atom_site_type_symbol
_atom_site_label
_atom_site_fract_x
_atom_site_fract_y
_atom_site_fract_z
Si Si1 0.367364 0.328367 0.505872
Si Si2 0.453271 0.583009 0.995565
Si Si3 0.454177 0.833300 0.656234
Si Si4 0.623539 0.329352 0.896797
Si Si5 0.800118 0.580059 0.440814
Si Si6 0.208281 0.080621 0.954869
O O1 0.359852 0.250000 0.442439
O O2 0.413318 0.349664 0.448637
O O3 0.367444 0.325319 0.703180
O O4 0.329214 0.378027 0.461666
O O5 0.500000 0.592868 0.061773
O O6 0.453010 0.616503 0.813772
O O7 0.444501 0.500000 0.000000
O O8 0.418156 0.626330 0.086579
O O9 0.500000 0.842760 0.577322
O O10 0.451949 0.750000 0.700629
O O11 0.618937 0.250000 0.959617
O O12 0.661212 0.370605 0.983287
O O13 0.806631 0.500000 0.500000
O O14 0.796529 0.582704 0.242594
O O15 0.754766 0.604618 0.501475
O O16 0.205528 0.000000 0.000000
#
# Coordination Sequence:
#
# PCOD9537251 Si02
#       6
#    16  16  16  16  16  16
#     4   9  19  33  50  75 103 131 166 207 249 294
#     4  10  21  36  53  74 100 131 167 206 248 295
#     4   9  18  34  54  74  99 133 168 201 244 297
#     4  10  20  33  51  76 102 130 165 205 250 295
#     4   9  18  33  51  72 100 132 166 204 246 294
#     4   9  18  32  51  73  98 132 168 203 246 294
#
# _framework density 19.112580000000001
#
# number of rings (size 3 to 8) (size 9 to 14) (size 15 to 20)
#    0.000    2.667    0.000    1.000    0.000    6.333 
#    0.000    5.000    0.000    3.500    0.000    8.167 
#    0.000    0.000    0.000    0.000    0.000    0.000 
#
# Total GULP energy -267418.074726 kJ/mol
# GULP energy per Si atom -5571.209890 kJ/mol
# Density = 1.906908 g / cm^3
# Si number density = 19.112580 Si / 1000 Ang^3
#
#
#
# Elastic Constant Matrix: (Units=GPa)
#
#
# Indices 1 2 3 4 5 6 
#
# 1 153.5832 95.7221 13.2700 0.0000 0.0000 0.0000
# 2 95.7221 102.1749 8.7022 0.0000 0.0000 0.0000
# 3 13.2700 8.7022 7.9253 0.0000 0.0000 0.0000
# 4 0.0000 0.0000 0.0000 19.3189 0.0000 0.0000
# 5 0.0000 0.0000 0.0000 0.0000 11.6798 0.0000
# 6 0.0000 0.0000 0.0000 0.0000 0.0000 43.7635
#
#
#
# Elastic Compliance Matrix: (Units=1/GPa)
#
#
# Indices 1 2 3 4 5 6 
#
# 1 0.016594 -0.014540 -0.011821 0.000000 0.000000 0.000000
# 2 -0.014540 0.023536 -0.001498 0.000000 0.000000 0.000000
# 3 -0.011821 -0.001498 0.147616 0.000000 0.000000 0.000000
# 4 0.000000 0.000000 0.000000 0.051763 0.000000 0.000000
# 5 0.000000 0.000000 0.000000 0.000000 0.085618 0.000000
# 6 0.000000 0.000000 0.000000 0.000000 0.000000 0.022850
#
#
# Mechanical properties :
#
#
# Convention : Reuss Voigt Hill
#
# Bulk Modulus (GPa) = 7.57408 55.45243 31.51326
# Shear Modulus (GPa) = 11.16810 24.68505 17.92658
#
# Velocity S-wave (km/s) = 2.41992 3.59773 3.06591
# Velocity P-wave (km/s) = 3.43213 6.80696 5.39047
#
# Compressibility (1/GPa) = 0.13202926
#
# Stress axis : x y z
#
# Youngs Moduli (GPa) = 60.26113 42.48779 6.77435
#
# Poissons Ratio (x) = 0.61776 0.08008
# Poissons Ratio (y) = 0.87618 0.01015
# Poissons Ratio (z) = 0.71233 0.06365
#
# Static dielectric constant tensor:
#      x y z
#    x 1.698320 0.000000 0.000000 
#    y 0.000000 1.646000 0.000000 
#    z 0.000000 0.000000 1.679290 
# 
# From -- ./inp_files/15100.got.cif
#   From: 2010.05.17/outbox.cif.g08.bks.cpg/sg74_8_cif.got.tgz:15100.got - 2010.06.03 17:57:02.
