data_PCOD9537769
_publ_section_title
;
Structure prediction by ZEFSAII (Michael W. Deem and Ramdas Pophale) SiO2 
 PCOD9537769
Probable space group: I M M A
;
_chemical_formula_sum "Si O2"
_cell_formula_units_Z 116
_cell_length_a 27.144145
_cell_length_b 7.813546
_cell_length_c 29.173539
_cell_angle_alpha 90.000000
_cell_angle_beta 90.000000
_cell_angle_gamma 90.000000
_cell_volume 6187.474980
_symmetry_space_group_name_H-M "I M M A"
_symmetry_group_IT_number 74
_symmetry_cell_setting 'orthorhombic'
loop_
_space_group_symop_operation_xyz
x,y,z
-x,1/2-y,z
x,-y,-z
-x,1/2+y,-z
-x,-y,-z
x,1/2+y,-z
-x,y,z
x,1/2-y,z
1/2+x,1/2+y,1/2+z
1/2-x,-y,1/2+z
1/2+x,1/2-y,1/2-z
1/2-x,y,1/2-z
1/2-x,1/2-y,1/2-z
1/2+x,y,1/2-z
1/2-x,1/2+y,1/2+z
1/2+x,-y,1/2+z
loop_
_atom_site_type_symbol
_atom_site_label
_atom_site_fract_x
_atom_site_fract_y
_atom_site_fract_z
Si Si1 0.152335 0.457529 0.296909
Si Si2 0.347961 0.051585 0.690219
Si Si3 0.446161 0.958958 0.850499
Si Si4 0.948188 0.436381 0.205159
Si Si5 0.202076 0.455559 0.449799
Si Si6 0.000000 0.750000 0.245899
Si Si7 0.754308 0.956079 0.644022
Si Si8 0.588678 0.455518 0.050534
O O1 0.152401 0.250000 0.297811
O O2 0.156374 0.512987 0.244422
O O3 0.102278 0.512885 0.322648
O O4 0.200590 0.517547 0.324272
O O5 0.355773 0.250000 0.682901
O O6 0.398686 0.958139 0.676936
O O7 0.298447 0.000739 0.664457
O O8 0.500000 0.022109 0.833916
O O9 0.447081 0.750000 0.849222
O O10 0.439329 0.012160 0.903711
O O11 0.945310 0.250000 0.229292
O O12 0.000000 0.436511 0.177857
O O13 0.957580 0.597144 0.238288
O O14 0.221236 0.500000 0.500000
O O15 0.199236 0.250000 0.446577
O O16 0.234373 0.518136 0.407370
O O17 0.145400 0.519319 0.446572
O O18 0.757118 0.750000 0.643637
O O19 0.589794 0.250000 0.052854
O O20 0.568997 0.500000 0.000000
#
# Coordination Sequence:
#
# PCOD9537769 Si02
#       8
#    16  16  16  16  16   4  16  16
#     4  10  20  35  51  68  95 134 181 227 276 334
#     4  12  23  35  50  75 106 137 179 228 274 327
#     4   9  17  31  51  73  97 128 175 226 273 327
#     4   9  17  32  53  75 105 143 176 217 269 312
#     4   9  17  31  52  75 100 132 169 213 270 331
#     4   8  14  32  52  78 106 136 176 232 250 310
#     4  10  20  35  53  73  99 134 176 221 271 334
#     4   9  16  29  49  72  96 128 165 215 271 329
#
# _framework density 18.747551000000001
#
# number of rings (size 3 to 8) (size 9 to 14) (size 15 to 20)
#    0.414    1.931    2.069    1.655    0.000    3.586 
#    0.000    2.069    0.000    0.828    0.000    0.000 
#    0.000    0.552    0.000    3.034    0.000    5.379 
#
# Total GULP energy -322901.208856 kJ/mol
# GULP energy per Si atom -5567.262222 kJ/mol
# Density = 1.870488 g / cm^3
# Si number density = 18.747551 Si / 1000 Ang^3
#
#
#
# Elastic Constant Matrix: (Units=GPa)
#
#
# Indices 1 2 3 4 5 6 
#
# 1 156.5831 12.4099 51.3691 0.0000 0.0000 0.0000
# 2 12.4099 63.1415 0.6936 0.0000 0.0000 0.0000
# 3 51.3691 0.6936 61.0437 0.0000 0.0000 0.0000
# 4 0.0000 0.0000 0.0000 13.6325 0.0000 0.0000
# 5 0.0000 0.0000 0.0000 0.0000 26.7663 0.0000
# 6 0.0000 0.0000 0.0000 0.0000 0.0000 14.0582
#
#
#
# Elastic Compliance Matrix: (Units=1/GPa)
#
#
# Indices 1 2 3 4 5 6 
#
# 1 0.008998 -0.001685 -0.007553 0.000000 0.000000 0.000000
# 2 -0.001685 0.016155 0.001235 0.000000 0.000000 0.000000
# 3 -0.007553 0.001235 0.022723 0.000000 0.000000 0.000000
# 4 0.000000 0.000000 0.000000 0.073354 0.000000 0.000000
# 5 0.000000 0.000000 0.000000 0.000000 0.037360 0.000000
# 6 0.000000 0.000000 0.000000 0.000000 0.000000 0.071133
#
#
# Mechanical properties :
#
#
# Convention : Reuss Voigt Hill
#
# Bulk Modulus (GPa) = 31.37781 45.52371 38.45076
# Shear Modulus (GPa) = 19.50434 25.31109 22.40771
#
# Velocity S-wave (km/s) = 3.22897 3.67836 3.46097
# Velocity P-wave (km/s) = 5.53850 6.50966 6.04362
#
# Compressibility (1/GPa) = 0.03186965
#
# Stress axis : x y z
#
# Youngs Moduli (GPa) = 111.13998 61.89976 44.00784
#
# Poissons Ratio (x) = 0.10433 0.33237
# Poissons Ratio (y) = 0.18732 -0.05434
# Poissons Ratio (z) = 0.83939 -0.07643
#
# Static dielectric constant tensor:
#      x y z
#    x 1.691340 0.000000 0.000000 
#    y 0.000000 1.711850 0.000000 
#    z 0.000000 0.000000 1.650800 
# 
# From -- ./inp_files/69000.got.cif
#   From: 2010.05.17/outbox.cif.g08.bks.cpg/sg74_35_cif.got.tgz:69000.got - 2010.06.03 17:57:02.
