data_PCOD9537841
_publ_section_title
;
Structure prediction by ZEFSAII (Michael W. Deem and Ramdas Pophale) SiO2 
 PCOD9537841
Probable space group: I M M A
;
_chemical_formula_sum "Si O2"
_cell_formula_units_Z 96
_cell_length_a 8.627629
_cell_length_b 24.190256
_cell_length_c 26.123604
_cell_angle_alpha 90.000000
_cell_angle_beta 90.000000
_cell_angle_gamma 90.000000
_cell_volume 5452.115126
_symmetry_space_group_name_H-M "I M M A"
_symmetry_group_IT_number 74
_symmetry_cell_setting 'orthorhombic'
loop_
_space_group_symop_operation_xyz
x,y,z
-x,1/2-y,z
x,-y,-z
-x,1/2+y,-z
-x,-y,-z
x,1/2+y,-z
-x,y,z
x,1/2-y,z
1/2+x,1/2+y,1/2+z
1/2-x,-y,1/2+z
1/2+x,1/2-y,1/2-z
1/2-x,y,1/2-z
1/2-x,1/2-y,1/2-z
1/2+x,y,1/2-z
1/2-x,1/2+y,1/2+z
1/2+x,-y,1/2+z
loop_
_atom_site_type_symbol
_atom_site_label
_atom_site_fract_x
_atom_site_fract_y
_atom_site_fract_z
Si Si1 0.686981 0.186283 0.305920
Si Si2 0.314330 0.186397 0.693456
Si Si3 0.312693 0.117646 0.403795
Si Si4 0.687283 0.997272 0.439978
Si Si5 0.187190 0.186298 0.499389
Si Si6 0.314281 0.617766 0.099639
O O1 0.500000 0.185108 0.304329
O O2 0.733920 0.250000 0.317059
O O3 0.750000 0.171601 0.250000
O O4 0.739871 0.145525 0.350841
O O5 0.500000 0.184263 0.694599
O O6 0.267302 0.250000 0.680806
O O7 0.250000 0.174150 0.750000
O O8 0.251645 0.144527 0.651134
O O9 0.500000 0.118732 0.404380
O O10 0.253505 0.153871 0.451056
O O11 0.264577 0.054349 0.412867
O O12 0.500000 0.993504 0.438743
O O13 0.755941 0.943677 0.412691
O O14 0.733600 0.000000 0.500000
O O15 0.237416 0.250000 0.499186
O O16 0.235168 0.155833 0.551533
O O17 0.000000 0.184938 0.497022
O O18 0.500000 0.618007 0.102130
#
# Coordination Sequence:
#
# PCOD9537841 Si02
#       6
#    16  16  16  16  16  16
#     4   9  18  33  53  77 104 135 171 213 264 319
#     4  10  21  38  61  87 115 148 186 230 282 337
#     4  10  20  35  55  78 105 139 181 226 272 323
#     4  10  20  36  56  78 108 147 188 230 277 327
#     4  10  21  34  50  77 111 142 174 220 275 329
#     4  11  22  36  56  81 113 149 188 229 274 332
#
# _framework density 17.607845999999999
#
# number of rings (size 3 to 8) (size 9 to 14) (size 15 to 20)
#    0.000    2.000    1.667    2.000    0.000    5.000 
#    0.000    2.500    0.000    2.000    0.000    0.000 
#    0.000    0.000    0.000    0.000    0.000    0.000 
#
# Total GULP energy -268016.124888 kJ/mol
# GULP energy per Si atom -5583.669269 kJ/mol
# Density = 1.756777 g / cm^3
# Si number density = 17.607846 Si / 1000 Ang^3
#
#
#
# Elastic Constant Matrix: (Units=GPa)
#
#
# Indices 1 2 3 4 5 6 
#
# 1 17.9797 39.6717 37.0547 0.0000 0.0000 0.0000
# 2 39.6717 184.7938 120.2472 0.0000 0.0000 0.0000
# 3 37.0547 120.2472 168.5744 0.0000 0.0000 0.0000
# 4 0.0000 0.0000 0.0000 16.3476 0.0000 0.0000
# 5 0.0000 0.0000 0.0000 0.0000 29.5031 0.0000
# 6 0.0000 0.0000 0.0000 0.0000 0.0000 22.8438
#
#
#
# Elastic Compliance Matrix: (Units=1/GPa)
#
#
# Indices 1 2 3 4 5 6 
#
# 1 0.124003 -0.016580 -0.015430 0.000000 0.000000 0.000000
# 2 -0.016580 0.012316 -0.005141 0.000000 0.000000 0.000000
# 3 -0.015430 -0.005141 0.012991 0.000000 0.000000 0.000000
# 4 0.000000 0.000000 0.000000 0.061171 0.000000 0.000000
# 5 0.000000 0.000000 0.000000 0.000000 0.033895 0.000000
# 6 0.000000 0.000000 0.000000 0.000000 0.000000 0.043776
#
#
# Mechanical properties :
#
#
# Convention : Reuss Voigt Hill
#
# Bulk Modulus (GPa) = 13.33210 85.03281 49.18245
# Shear Modulus (GPa) = 12.90469 25.36384 19.13427
#
# Velocity S-wave (km/s) = 2.71014 3.79949 3.30007
# Velocity P-wave (km/s) = 4.16908 8.22469 6.52023
#
# Compressibility (1/GPa) = 0.07500694
#
# Stress axis : x y z
#
# Youngs Moduli (GPa) = 8.06434 81.19505 76.97775
#
# Poissons Ratio (x) = 1.34625 1.18778
# Poissons Ratio (y) = 0.13371 0.39572
# Poissons Ratio (z) = 0.12443 0.41740
#
# Static dielectric constant tensor:
#      x y z
#    x 1.593180 0.000000 0.000000 
#    y 0.000000 1.587550 0.000000 
#    z 0.000000 0.000000 1.568450 
# 
# From -- ./inp_files/57241.got.cif
#   From: 2010.05.17/outbox.cif.g08.bks.cpg/sg74_29_cif.got.tgz:57241.got - 2010.06.03 17:57:02.
