data_PCOD9537457
_publ_section_title
;
Structure prediction by ZEFSAII (Michael W. Deem and Ramdas Pophale) SiO2 
 PCOD9537457
Probable space group: I M M A
;
_chemical_formula_sum "Si O2"
_cell_formula_units_Z 88
_cell_length_a 8.688836
_cell_length_b 19.976793
_cell_length_c 27.883702
_cell_angle_alpha 90.000000
_cell_angle_beta 90.000000
_cell_angle_gamma 90.000000
_cell_volume 4839.915755
_symmetry_space_group_name_H-M "I M M A"
_symmetry_group_IT_number 74
_symmetry_cell_setting 'orthorhombic'
loop_
_space_group_symop_operation_xyz
x,y,z
-x,1/2-y,z
x,-y,-z
-x,1/2+y,-z
-x,-y,-z
x,1/2+y,-z
-x,y,z
x,1/2-y,z
1/2+x,1/2+y,1/2+z
1/2-x,-y,1/2+z
1/2+x,1/2-y,1/2-z
1/2-x,y,1/2-z
1/2-x,1/2-y,1/2-z
1/2+x,y,1/2-z
1/2-x,1/2+y,1/2+z
1/2+x,-y,1/2+z
loop_
_atom_site_type_symbol
_atom_site_label
_atom_site_fract_x
_atom_site_fract_y
_atom_site_fract_z
Si Si1 0.182429 0.750000 0.196921
Si Si2 0.687542 0.173723 0.020235
Si Si3 0.822752 0.112396 0.665011
Si Si4 0.686181 0.071489 0.098831
Si Si5 0.317092 0.024856 0.300837
Si Si6 0.677979 0.934809 0.055484
O O1 0.250000 0.750000 0.250000
O O2 0.243939 0.683055 0.172522
O O3 0.000000 0.750000 0.198070
O O4 0.500000 0.176013 0.016038
O O5 0.742642 0.250000 0.014670
O O6 0.722067 0.140169 0.071591
O O7 0.745048 0.120362 0.980514
O O8 0.821925 0.095539 0.608755
O O9 0.000000 0.114527 0.681584
O O10 0.737306 0.051963 0.691629
O O11 0.500000 0.064693 0.102690
O O12 0.754241 0.062545 0.151783
O O13 0.741057 0.009673 0.064509
O O14 0.500000 0.028224 0.299807
O O15 0.250000 0.048972 0.250000
O O16 0.500000 0.943959 0.040027
#
# Coordination Sequence:
#
# PCOD9537457 Si02
#       6
#     8  16  16  16  16  16
#     4  12  24  36  48  66  98 140 182 222 267 314
#     4   9  16  26  47  79 109 136 173 219 260 301
#     4  10  20  34  52  75 103 136 175 220 262 307
#     4   9  17  31  50  76 107 138 173 215 260 308
#     4  11  21  35  55  77 101 130 168 215 264 318
#     4   8  15  27  47  74 104 136 172 214 256 298
#
# _framework density 18.182134999999999
#
# number of rings (size 3 to 8) (size 9 to 14) (size 15 to 20)
#    0.000    2.364    0.000    5.182    1.273    2.182 
#    0.000    0.000    0.000   10.909    0.000    0.000 
#    0.000    0.000    0.000    0.000    0.000    0.000 
#
# Total GULP energy -245361.719826 kJ/mol
# GULP energy per Si atom -5576.402723 kJ/mol
# Density = 1.814075 g / cm^3
# Si number density = 18.182135 Si / 1000 Ang^3
#
#
#
# Elastic Constant Matrix: (Units=GPa)
#
#
# Indices 1 2 3 4 5 6 
#
# 1 68.3654 18.3221 27.0692 0.0000 0.0000 0.0000
# 2 18.3221 80.5777 52.4587 0.0000 0.0000 0.0000
# 3 27.0692 52.4587 102.5449 0.0000 0.0000 0.0000
# 4 0.0000 0.0000 0.0000 28.5833 0.0000 0.0000
# 5 0.0000 0.0000 0.0000 0.0000 19.1611 0.0000
# 6 0.0000 0.0000 0.0000 0.0000 0.0000 13.6579
#
#
#
# Elastic Compliance Matrix: (Units=1/GPa)
#
#
# Indices 1 2 3 4 5 6 
#
# 1 0.016435 -0.001368 -0.003638 0.000000 0.000000 0.000000
# 2 -0.001368 0.018722 -0.009216 0.000000 0.000000 0.000000
# 3 -0.003638 -0.009216 0.015427 0.000000 0.000000 0.000000
# 4 0.000000 0.000000 0.000000 0.034985 0.000000 0.000000
# 5 0.000000 0.000000 0.000000 0.000000 0.052189 0.000000
# 6 0.000000 0.000000 0.000000 0.000000 0.000000 0.073218
#
#
# Mechanical properties :
#
#
# Convention : Reuss Voigt Hill
#
# Bulk Modulus (GPa) = 45.17222 49.68757 47.42990
# Shear Modulus (GPa) = 20.25934 22.52301 21.39117
#
# Velocity S-wave (km/s) = 3.34165 3.52340 3.43373
# Velocity P-wave (km/s) = 6.30770 6.62868 6.47018
#
# Compressibility (1/GPa) = 0.02213750
#
# Stress axis : x y z
#
# Youngs Moduli (GPa) = 60.84735 53.41446 64.82169
#
# Poissons Ratio (x) = 0.07309 0.23584
# Poissons Ratio (y) = 0.08326 0.59741
# Poissons Ratio (z) = 0.22138 0.49228
#
# Static dielectric constant tensor:
#      x y z
#    x 1.616200 0.000000 0.000000 
#    y 0.000000 1.613050 0.000000 
#    z 0.000000 0.000000 1.636800 
# 
# From -- ./inp_files/70214.got.cif
#   From: 2010.05.17/outbox.cif.g08.bks.cpg/sg74_36_cif.got.tgz:70214.got - 2010.06.03 17:57:02.
