data_PCOD9537943
_publ_section_title
;
Structure prediction by ZEFSAII (Michael W. Deem and Ramdas Pophale) SiO2 
 PCOD9537943
Probable space group: I M M A
;
_chemical_formula_sum "Si O2"
_cell_formula_units_Z 80
_cell_length_a 19.184192
_cell_length_b 21.728811
_cell_length_c 10.048957
_cell_angle_alpha 90.000000
_cell_angle_beta 90.000000
_cell_angle_gamma 90.000000
_cell_volume 4188.904531
_symmetry_space_group_name_H-M "I M M A"
_symmetry_group_IT_number 74
_symmetry_cell_setting 'orthorhombic'
loop_
_space_group_symop_operation_xyz
x,y,z
-x,1/2-y,z
x,-y,-z
-x,1/2+y,-z
-x,-y,-z
x,1/2+y,-z
-x,y,z
x,1/2-y,z
1/2+x,1/2+y,1/2+z
1/2-x,-y,1/2+z
1/2+x,1/2-y,1/2-z
1/2-x,y,1/2-z
1/2-x,1/2-y,1/2-z
1/2+x,y,1/2-z
1/2-x,1/2+y,1/2+z
1/2+x,-y,1/2+z
loop_
_atom_site_type_symbol
_atom_site_label
_atom_site_fract_x
_atom_site_fract_y
_atom_site_fract_z
Si Si1 0.418570 0.908046 0.242557
Si Si2 0.315293 0.491675 0.339579
Si Si3 0.707820 0.649943 0.630069
Si Si4 0.576239 0.315666 0.515094
Si Si5 0.801907 0.323318 0.622885
O O1 0.500000 0.913522 0.202152
O O2 0.381485 0.972484 0.279114
O O3 0.416595 0.870116 0.380787
O O4 0.369397 0.866315 0.147650
O O5 0.308565 0.500000 0.500000
O O6 0.250000 0.514680 0.250000
O O7 0.315349 0.418286 0.325485
O O8 0.750000 0.678694 0.750000
O O9 0.637481 0.682506 0.588536
O O10 0.758027 0.651411 0.501971
O O11 0.500000 0.319665 0.452663
O O12 0.580656 0.250000 0.589523
O O13 0.817459 0.250000 0.605471
O O14 0.750000 0.327977 0.750000
#
# Coordination Sequence:
#
# PCOD9537943 Si02
#       5
#    16  16  16  16  16
#     4  11  22  36  59  91 122 155 202 254 309 362
#     4  11  21  37  60  85 120 159 205 254 306 363
#     4  11  23  38  60  89 119 162 206 250 303 370
#     4  10  20  35  56  84 118 152 192 244 298 354
#     4  11  21  38  63  89 119 155 203 258 309 364
#
# _framework density 19.098071999999998
#
# number of rings (size 3 to 8) (size 9 to 14) (size 15 to 20)
#    0.000    1.200    4.000    3.000    0.000    4.000 
#    0.000    1.000    0.000   11.400    0.000    0.000 
#    0.000    0.000    0.000    0.000    0.000    0.000 
#
# Total GULP energy -223081.646201 kJ/mol
# GULP energy per Si atom -5577.041155 kJ/mol
# Density = 1.905460 g / cm^3
# Si number density = 19.098072 Si / 1000 Ang^3
#
#
#
# Elastic Constant Matrix: (Units=GPa)
#
#
# Indices 1 2 3 4 5 6 
#
# 1 176.7361 58.7128 57.3151 0.0000 0.0000 0.0000
# 2 58.7128 124.3934 15.0795 0.0000 0.0000 0.0000
# 3 57.3151 15.0795 66.7367 0.0000 0.0000 0.0000
# 4 0.0000 0.0000 0.0000 93.6683 0.0000 0.0000
# 5 0.0000 0.0000 0.0000 0.0000 16.6894 0.0000
# 6 0.0000 0.0000 0.0000 0.0000 0.0000 89.9552
#
#
#
# Elastic Compliance Matrix: (Units=1/GPa)
#
#
# Indices 1 2 3 4 5 6 
#
# 1 0.009074 -0.003432 -0.007018 0.000000 0.000000 0.000000
# 2 -0.003432 0.009564 0.000787 0.000000 0.000000 0.000000
# 3 -0.007018 0.000787 0.020833 0.000000 0.000000 0.000000
# 4 0.000000 0.000000 0.000000 0.010676 0.000000 0.000000
# 5 0.000000 0.000000 0.000000 0.000000 0.059918 0.000000
# 6 0.000000 0.000000 0.000000 0.000000 0.000000 0.011117
#
#
# Mechanical properties :
#
#
# Convention : Reuss Voigt Hill
#
# Bulk Modulus (GPa) = 49.64017 70.00901 59.82459
# Shear Modulus (GPa) = 33.96210 55.84651 44.90431
#
# Velocity S-wave (km/s) = 4.22156 5.41345 4.85423
# Velocity P-wave (km/s) = 7.05768 8.70696 7.92534
#
# Compressibility (1/GPa) = 0.02014498
#
# Stress axis : x y z
#
# Youngs Moduli (GPa) = 110.20337 104.56287 48.00001
#
# Poissons Ratio (x) = 0.35888 0.33684
# Poissons Ratio (y) = 0.37824 -0.03776
# Poissons Ratio (z) = 0.77336 -0.08226
#
# Static dielectric constant tensor:
#      x y z
#    x 1.677520 0.000000 0.000000 
#    y 0.000000 1.697570 0.000000 
#    z 0.000000 0.000000 1.652630 
# 
# From -- ./inp_files/20504.got.cif
#   From: 2010.05.17/outbox.cif.g08.bks.cpg/sg74_11_cif.got.tgz:20504.got - 2010.06.03 17:57:02.
