data_PCOD9537298
_publ_section_title
;
Structure prediction by ZEFSAII (Michael W. Deem and Ramdas Pophale) SiO2 
 PCOD9537298
Probable space group: I M M A
;
_chemical_formula_sum "Si O2"
_cell_formula_units_Z 104
_cell_length_a 8.627597
_cell_length_b 27.189357
_cell_length_c 24.325717
_cell_angle_alpha 90.000000
_cell_angle_beta 90.000000
_cell_angle_gamma 90.000000
_cell_volume 5706.297865
_symmetry_space_group_name_H-M "I M M A"
_symmetry_group_IT_number 74
_symmetry_cell_setting 'orthorhombic'
loop_
_space_group_symop_operation_xyz
x,y,z
-x,1/2-y,z
x,-y,-z
-x,1/2+y,-z
-x,-y,-z
x,1/2+y,-z
-x,y,z
x,1/2-y,z
1/2+x,1/2+y,1/2+z
1/2-x,-y,1/2+z
1/2+x,1/2-y,1/2-z
1/2-x,y,1/2-z
1/2-x,1/2-y,1/2-z
1/2+x,y,1/2-z
1/2-x,1/2+y,1/2+z
1/2+x,-y,1/2+z
loop_
_atom_site_type_symbol
_atom_site_label
_atom_site_fract_x
_atom_site_fract_y
_atom_site_fract_z
Si Si1 0.680817 0.015179 0.367700
Si Si2 0.185757 0.106215 0.059002
Si Si3 0.327395 0.954076 0.039089
Si Si4 0.816801 0.572084 0.309251
Si Si5 0.314698 0.191943 0.001111
Si Si6 0.313695 0.250000 0.811571
Si Si7 0.685746 0.159460 0.617885
O O1 0.500000 0.018579 0.353667
O O2 0.733877 0.068441 0.391832
O O3 0.708538 0.977073 0.417748
O O4 0.771710 0.985019 0.321133
O O5 0.000000 0.105463 0.058336
O O6 0.251815 0.084303 0.002038
O O7 0.248236 0.161529 0.053226
O O8 0.500000 0.939559 0.060712
O O9 0.354024 0.000000 0.000000
O O10 0.750000 0.586698 0.250000
O O11 0.749360 0.608868 0.355755
O O12 0.000000 0.577078 0.308254
O O13 0.500000 0.185158 0.998956
O O14 0.281064 0.250000 0.005239
O O15 0.244357 0.172656 0.943290
O O16 0.500000 0.250000 0.812259
O O17 0.250000 0.250000 0.750000
O O18 0.249507 0.297487 0.843160
O O19 0.500000 0.158083 0.617865
#
# Coordination Sequence:
#
# PCOD9537298 Si02
#       7
#    16  16  16  16  16   8  16
#     4  10  20  35  53  76 105 137 174 216 265 323
#     4  10  20  33  52  76 105 139 175 216 264 323
#     4   9  16  27  45  70  99 131 168 208 252 305
#     4  12  25  41  59  80 108 141 180 228 277 327
#     4  11  23  38  56  79 110 145 184 230 275 324
#     4  12  24  40  58  78 102 134 184 238 285 330
#     4  12  24  40  59  79 105 141 183 230 281 329
#
# _framework density 18.225476
#
# number of rings (size 3 to 8) (size 9 to 14) (size 15 to 20)
#    0.000    1.231    0.769    6.692    0.000    4.615 
#    0.000    0.000    0.000    0.000    0.000    0.000 
#    0.000    0.615    0.000    2.000    0.000    2.923 
#
# Total GULP energy -290019.937866 kJ/mol
# GULP energy per Si atom -5577.306497 kJ/mol
# Density = 1.818399 g / cm^3
# Si number density = 18.225476 Si / 1000 Ang^3
#
#
#
# Elastic Constant Matrix: (Units=GPa)
#
#
# Indices 1 2 3 4 5 6 
#
# 1 118.3456 53.3484 17.4527 0.0000 0.0000 0.0000
# 2 53.3484 137.8636 46.3519 0.0000 0.0000 0.0000
# 3 17.4527 46.3519 24.6632 0.0000 0.0000 0.0000
# 4 0.0000 0.0000 0.0000 28.7935 0.0000 0.0000
# 5 0.0000 0.0000 0.0000 0.0000 23.5879 0.0000
# 6 0.0000 0.0000 0.0000 0.0000 0.0000 30.7247
#
#
#
# Elastic Compliance Matrix: (Units=1/GPa)
#
#
# Indices 1 2 3 4 5 6 
#
# 1 0.010238 -0.004145 0.000546 0.000000 0.000000 0.000000
# 2 -0.004145 0.021383 -0.037253 0.000000 0.000000 0.000000
# 3 0.000546 -0.037253 0.110174 0.000000 0.000000 0.000000
# 4 0.000000 0.000000 0.000000 0.034730 0.000000 0.000000
# 5 0.000000 0.000000 0.000000 0.000000 0.042395 0.000000
# 6 0.000000 0.000000 0.000000 0.000000 0.000000 0.032547
#
#
# Mechanical properties :
#
#
# Convention : Reuss Voigt Hill
#
# Bulk Modulus (GPa) = 16.64204 57.24204 36.94204
# Shear Modulus (GPa) = 14.15622 27.53585 20.84604
#
# Velocity S-wave (km/s) = 2.79001 3.89117 3.38566
# Velocity P-wave (km/s) = 4.41926 7.18778 5.96633
#
# Compressibility (1/GPa) = 0.06008878
#
# Stress axis : x y z
#
# Youngs Moduli (GPa) = 97.67584 46.76662 9.07657
#
# Poissons Ratio (x) = 0.19386 -0.00495
# Poissons Ratio (y) = 0.40489 0.33813
# Poissons Ratio (z) = -0.05330 1.74221
#
# Static dielectric constant tensor:
#      x y z
#    x 1.634300 0.000000 0.000000 
#    y 0.000000 1.693780 0.000000 
#    z 0.000000 0.000000 1.648460 
# 
# From -- ./inp_files/65017.got.cif
#   From: 2010.05.17/outbox.cif.g08.bks.cpg/sg74_33_cif.got.tgz:65017.got - 2010.06.03 17:57:02.
