data_PCOD9537375
_publ_section_title
;
Structure prediction by ZEFSAII (Michael W. Deem and Ramdas Pophale) SiO2 
 PCOD9537375
Probable space group: I M M A
;
_chemical_formula_sum "Si O2"
_cell_formula_units_Z 96
_cell_length_a 19.104654
_cell_length_b 27.433131
_cell_length_c 9.618982
_cell_angle_alpha 90.000000
_cell_angle_beta 90.000000
_cell_angle_gamma 90.000000
_cell_volume 5041.313044
_symmetry_space_group_name_H-M "I M M A"
_symmetry_group_IT_number 74
_symmetry_cell_setting 'orthorhombic'
loop_
_space_group_symop_operation_xyz
x,y,z
-x,1/2-y,z
x,-y,-z
-x,1/2+y,-z
-x,-y,-z
x,1/2+y,-z
-x,y,z
x,1/2-y,z
1/2+x,1/2+y,1/2+z
1/2-x,-y,1/2+z
1/2+x,1/2-y,1/2-z
1/2-x,y,1/2-z
1/2-x,1/2-y,1/2-z
1/2+x,y,1/2-z
1/2-x,1/2+y,1/2+z
1/2+x,-y,1/2+z
loop_
_atom_site_type_symbol
_atom_site_label
_atom_site_fract_x
_atom_site_fract_y
_atom_site_fract_z
Si Si1 0.659236 0.363020 0.056106
Si Si2 0.830303 0.114122 0.759509
Si Si3 0.921840 0.350861 0.176607
Si Si4 0.799884 0.692928 0.007411
Si Si5 0.731208 0.462166 0.102556
Si Si6 0.887251 0.444261 0.997417
O O1 0.597610 0.349152 0.160370
O O2 0.687828 0.413512 0.120395
O O3 0.643366 0.373647 0.894539
O O4 0.725468 0.326407 0.050855
O O5 0.750000 0.094241 0.750000
O O6 0.818875 0.162107 0.854550
O O7 0.883071 0.079287 0.843937
O O8 0.918326 0.405223 0.106184
O O9 0.000000 0.332169 0.152323
O O10 0.861094 0.320724 0.100088
O O11 0.796582 0.750000 0.034272
O O12 0.750000 0.484523 0.250000
O O13 0.805043 0.447536 0.035919
O O14 0.695081 0.500000 0.000000
O O15 0.914166 0.500000 0.000000
#
# Coordination Sequence:
#
# PCOD9537375 Si02
#       6
#    16  16  16  16  16  16
#     4  11  20  36  56  87 117 144 184 232 287 332
#     4   9  18  33  54  87 116 142 178 231 286 334
#     4  11  23  40  57  79 113 152 192 230 272 335
#     4  10  21  39  62  85 109 141 184 233 287 343
#     4  11  20  29  53  85 118 147 186 233 279 324
#     4  10  20  33  55  83 112 152 190 227 275 322
#
# _framework density 19.042657999999999
#
# number of rings (size 3 to 8) (size 9 to 14) (size 15 to 20)
#    0.000    1.667    6.667    0.500    4.667    5.000 
#    0.000    3.333    0.000    3.500    0.000    0.000 
#    0.000    0.000    0.000    0.000    0.000    0.000 
#
# Total GULP energy -267706.308269 kJ/mol
# GULP energy per Si atom -5577.214756 kJ/mol
# Density = 1.899932 g / cm^3
# Si number density = 19.042658 Si / 1000 Ang^3
#
#
#
# Elastic Constant Matrix: (Units=GPa)
#
#
# Indices 1 2 3 4 5 6 
#
# 1 51.7690 9.8436 23.7256 0.0000 0.0000 0.0000
# 2 9.8436 114.5690 25.7631 0.0000 0.0000 0.0000
# 3 23.7256 25.7631 141.9118 0.0000 0.0000 0.0000
# 4 0.0000 0.0000 0.0000 6.4512 0.0000 0.0000
# 5 0.0000 0.0000 0.0000 0.0000 4.3810 0.0000
# 6 0.0000 0.0000 0.0000 0.0000 0.0000 -3.9182
#
#
#
# Elastic Compliance Matrix: (Units=1/GPa)
#
#
# Indices 1 2 3 4 5 6 
#
# 1 0.021042 -0.001060 -0.003325 0.000000 0.000000 0.000000
# 2 -0.001060 0.009153 -0.001484 0.000000 0.000000 0.000000
# 3 -0.003325 -0.001484 0.007872 0.000000 0.000000 0.000000
# 4 0.000000 0.000000 0.000000 0.155010 0.000000 0.000000
# 5 0.000000 0.000000 0.000000 0.000000 0.228259 0.000000
# 6 0.000000 0.000000 0.000000 0.000000 0.000000 -0.255220
#
#
# Mechanical properties :
#
#
# Convention : Reuss Voigt Hill
#
# Bulk Modulus (GPa) = 37.98320 47.43491 42.70906
# Shear Modulus (GPa) = 26.79055 17.97730 22.38392
#
# Velocity S-wave (km/s) = 3.75490 3.07588 3.43222
# Velocity P-wave (km/s) = 6.22806 6.13014 6.17929
#
# Compressibility (1/GPa) = 0.02632743
#
# Stress axis : x y z
#
# Youngs Moduli (GPa) = 47.52347 109.25070 127.03088
#
# Poissons Ratio (x) = 0.11582 0.42244
# Poissons Ratio (y) = 0.05038 0.18857
# Poissons Ratio (z) = 0.15804 0.16218
#
# Static dielectric constant tensor:
#      x y z
#    x 1.633490 0.000000 0.000000 
#    y 0.000000 1.704690 0.000000 
#    z 0.000000 0.000000 1.674620 
# 
# From -- ./inp_files/12669.got.cif
#   From: 2010.05.17/outbox.cif.g08.bks.cpg/sg74_7_cif.got.tgz:12669.got - 2010.06.03 17:57:02.
