data_PCOD9537703
_publ_section_title
;
Structure prediction by ZEFSAII (Michael W. Deem and Ramdas Pophale) SiO2 
 PCOD9537703
Probable space group: I M M A
;
_chemical_formula_sum "Si O2"
_cell_formula_units_Z 96
_cell_length_a 15.467537
_cell_length_b 13.785302
_cell_length_c 19.463697
_cell_angle_alpha 90.000000
_cell_angle_beta 90.000000
_cell_angle_gamma 90.000000
_cell_volume 4150.140345
_symmetry_space_group_name_H-M "I M M A"
_symmetry_group_IT_number 74
_symmetry_cell_setting 'orthorhombic'
loop_
_space_group_symop_operation_xyz
x,y,z
-x,1/2-y,z
x,-y,-z
-x,1/2+y,-z
-x,-y,-z
x,1/2+y,-z
-x,y,z
x,1/2-y,z
1/2+x,1/2+y,1/2+z
1/2-x,-y,1/2+z
1/2+x,1/2-y,1/2-z
1/2-x,y,1/2-z
1/2-x,1/2-y,1/2-z
1/2+x,y,1/2-z
1/2-x,1/2+y,1/2+z
1/2+x,-y,1/2+z
loop_
_atom_site_type_symbol
_atom_site_label
_atom_site_fract_x
_atom_site_fract_y
_atom_site_fract_z
Si Si1 0.153626 0.634648 0.329672
Si Si2 0.403956 0.367812 0.976603
Si Si3 0.594258 0.058416 0.374866
Si Si4 0.638776 0.863833 0.322630
Si Si5 0.723152 0.867156 0.902858
Si Si6 0.402659 0.867364 0.781743
O O1 0.137208 0.750000 0.329467
O O2 0.113829 0.596085 0.399670
O O3 0.257443 0.624948 0.330071
O O4 0.117667 0.604231 0.255785
O O5 0.500000 0.392723 0.999556
O O6 0.399622 0.250000 0.973865
O O7 0.333992 0.396820 0.032276
O O8 0.500000 0.091743 0.399638
O O9 0.680103 0.095155 0.411132
O O10 0.605310 0.096572 0.296255
O O11 0.596723 0.941795 0.372028
O O12 0.617916 0.750000 0.332245
O O13 0.725907 0.750000 0.899683
O O14 0.673429 0.900522 0.833150
O O15 0.500000 0.892543 0.806758
O O16 0.398085 0.750000 0.780048
#
# Coordination Sequence:
#
# PCOD9537703 Si02
#       6
#    16  16  16  16  16  16
#     4   8  16  32  57  86 112 147 190 236 291 351
#     4   9  17  32  58  91 123 154 188 230 292 364
#     4  11  23  35  54  82 113 154 201 249 293 336
#     4   9  19  36  59  84 112 150 197 245 295 344
#     4  10  20  34  56  84 120 161 192 230 288 353
#     4   9  18  33  54  82 114 150 194 239 289 352
#
# _framework density 23.131748000000002
#
# number of rings (size 3 to 8) (size 9 to 14) (size 15 to 20)
#    0.000    2.667    0.000    2.500    4.667    5.333 
#    0.000    2.500    0.000    3.000    0.000    4.667 
#    0.000    0.000    0.000    0.000    0.000    0.000 
#
# Total GULP energy -268365.368052 kJ/mol
# GULP energy per Si atom -5590.945168 kJ/mol
# Density = 2.307910 g / cm^3
# Si number density = 23.131748 Si / 1000 Ang^3
#
#
#
# Elastic Constant Matrix: (Units=GPa)
#
#
# Indices 1 2 3 4 5 6 
#
# 1 160.0296 26.2033 55.8300 0.0000 0.0000 0.0000
# 2 26.2033 77.1351 12.2929 0.0000 0.0000 0.0000
# 3 55.8300 12.2929 45.2007 0.0000 0.0000 0.0000
# 4 0.0000 0.0000 0.0000 20.8584 0.0000 0.0000
# 5 0.0000 0.0000 0.0000 0.0000 16.7651 0.0000
# 6 0.0000 0.0000 0.0000 0.0000 0.0000 15.5189
#
#
#
# Elastic Compliance Matrix: (Units=1/GPa)
#
#
# Indices 1 2 3 4 5 6 
#
# 1 0.011183 -0.001670 -0.013358 0.000000 0.000000 0.000000
# 2 -0.001670 0.013801 -0.001691 0.000000 0.000000 0.000000
# 3 -0.013358 -0.001691 0.039083 0.000000 0.000000 0.000000
# 4 0.000000 0.000000 0.000000 0.047942 0.000000 0.000000
# 5 0.000000 0.000000 0.000000 0.000000 0.059648 0.000000
# 6 0.000000 0.000000 0.000000 0.000000 0.000000 0.064437
#
#
# Mechanical properties :
#
#
# Convention : Reuss Voigt Hill
#
# Bulk Modulus (GPa) = 32.64903 52.33531 42.49217
# Shear Modulus (GPa) = 17.87370 23.16444 20.51907
#
# Velocity S-wave (km/s) = 2.78275 3.16794 2.98157
# Velocity P-wave (km/s) = 4.94671 6.00460 5.50114
#
# Compressibility (1/GPa) = 0.03062878
#
# Stress axis : x y z
#
# Youngs Moduli (GPa) = 89.42515 72.45849 25.58681
#
# Poissons Ratio (x) = 0.12100 0.34179
# Poissons Ratio (y) = 0.14933 0.04326
# Poissons Ratio (z) = 1.19454 0.12251
#
# Static dielectric constant tensor:
#      x y z
#    x 1.851720 0.000000 0.000000 
#    y 0.000000 1.917790 0.000000 
#    z 0.000000 0.000000 1.838130 
# 
# From -- ./inp_files/51932.got.cif
#   From: 2010.05.17/outbox.cif.g08.bks.cpg/sg74_26_cif.got.tgz:51932.got - 2010.06.03 17:57:02.
