data_PCOD9537275
_publ_section_title
;
Structure prediction by ZEFSAII (Michael W. Deem and Ramdas Pophale) SiO2 
 PCOD9537275
Probable space group: I M M A
;
_chemical_formula_sum "Si O2"
_cell_formula_units_Z 80
_cell_length_a 27.732720
_cell_length_b 16.984815
_cell_length_c 9.783685
_cell_angle_alpha 90.000000
_cell_angle_beta 90.000000
_cell_angle_gamma 90.000000
_cell_volume 4608.459225
_symmetry_space_group_name_H-M "I M M A"
_symmetry_group_IT_number 74
_symmetry_cell_setting 'orthorhombic'
loop_
_space_group_symop_operation_xyz
x,y,z
-x,1/2-y,z
x,-y,-z
-x,1/2+y,-z
-x,-y,-z
x,1/2+y,-z
-x,y,z
x,1/2-y,z
1/2+x,1/2+y,1/2+z
1/2-x,-y,1/2+z
1/2+x,1/2-y,1/2-z
1/2-x,y,1/2-z
1/2-x,1/2-y,1/2-z
1/2+x,y,1/2-z
1/2-x,1/2+y,1/2+z
1/2+x,-y,1/2+z
loop_
_atom_site_type_symbol
_atom_site_label
_atom_site_fract_x
_atom_site_fract_y
_atom_site_fract_z
Si Si1 0.704690 0.968023 0.151722
Si Si2 0.555771 0.156090 0.439823
Si Si3 0.887746 0.434154 0.287354
Si Si4 0.056023 0.905586 0.244753
Si Si5 0.630767 0.839418 0.061857
O O1 0.750000 0.959287 0.250000
O O2 0.675745 0.887195 0.124511
O O3 0.665659 0.027770 0.219508
O O4 0.717522 0.000000 0.000000
O O5 0.500000 0.142186 0.393412
O O6 0.561191 0.250000 0.458689
O O7 0.594056 0.122388 0.332644
O O8 0.561619 0.111623 0.583837
O O9 0.923627 0.508689 0.284040
O O10 0.887354 0.387096 0.429330
O O11 0.088173 0.844454 0.328150
O O12 0.000000 0.898925 0.278612
O O13 0.642770 0.750000 0.027294
#
# Coordination Sequence:
#
# PCOD9537275 Si02
#       5
#    16  16  16  16  16
#     4   9  20  37  57  79 102 132 171 216 264 314
#     4  10  20  33  51  78 111 144 177 216 260 303
#     4  10  20  35  55  77 104 139 178 215 256 311
#     4  10  20  34  51  75 108 143 180 218 255 302
#     4  10  21  36  54  78 107 138 172 215 264 309
#
# _framework density 17.359380999999999
#
# number of rings (size 3 to 8) (size 9 to 14) (size 15 to 20)
#    0.000    2.200    0.000    4.200    0.000    8.800 
#    0.000    0.000    0.000   17.400    0.000    0.000 
#    0.000    0.000    0.000    0.000    0.000    0.000 
#
# Total GULP energy -223134.719737 kJ/mol
# GULP energy per Si atom -5578.367993 kJ/mol
# Density = 1.731987 g / cm^3
# Si number density = 17.359381 Si / 1000 Ang^3
#
#
#
# Elastic Constant Matrix: (Units=GPa)
#
#
# Indices 1 2 3 4 5 6 
#
# 1 110.0323 49.6907 83.6747 0.0000 0.0000 0.0000
# 2 49.6907 98.3741 51.5425 0.0000 0.0000 0.0000
# 3 83.6747 51.5425 90.4887 0.0000 0.0000 0.0000
# 4 0.0000 0.0000 0.0000 22.6276 0.0000 0.0000
# 5 0.0000 0.0000 0.0000 0.0000 37.7393 0.0000
# 6 0.0000 0.0000 0.0000 0.0000 0.0000 28.0812
#
#
#
# Elastic Compliance Matrix: (Units=1/GPa)
#
#
# Indices 1 2 3 4 5 6 
#
# 1 0.030676 -0.000902 -0.027852 0.000000 0.000000 0.000000
# 2 -0.000902 0.014516 -0.007434 0.000000 0.000000 0.000000
# 3 -0.027852 -0.007434 0.041041 0.000000 0.000000 0.000000
# 4 0.000000 0.000000 0.000000 0.044194 0.000000 0.000000
# 5 0.000000 0.000000 0.000000 0.000000 0.026498 0.000000
# 6 0.000000 0.000000 0.000000 0.000000 0.000000 0.035611
#
#
# Mechanical properties :
#
#
# Convention : Reuss Voigt Hill
#
# Bulk Modulus (GPa) = 72.17315 74.30122 73.23718
# Shear Modulus (GPa) = 18.55074 25.28876 21.91975
#
# Velocity S-wave (km/s) = 3.27254 3.82092 3.55731
# Velocity P-wave (km/s) = 7.47967 7.89687 7.69110
#
# Compressibility (1/GPa) = 0.01385557
#
# Stress axis : x y z
#
# Youngs Moduli (GPa) = 32.59870 68.88934 24.36608
#
# Poissons Ratio (x) = 0.06214 0.67865
# Poissons Ratio (y) = 0.02940 0.18114
# Poissons Ratio (z) = 0.90795 0.51214
#
# Static dielectric constant tensor:
#      x y z
#    x 1.567070 0.000000 0.000000 
#    y 0.000000 1.602630 0.000000 
#    z 0.000000 0.000000 1.580440 
# 
# From -- ./inp_files/10899.got.cif
#   From: 2010.05.17/outbox.cif.g08.bks.cpg/sg74_6_cif.got.tgz:10899.got - 2010.06.03 17:57:02.
