data_PCOD9537013
_publ_section_title
;
Structure prediction by ZEFSAII (Michael W. Deem and Ramdas Pophale) SiO2 
 PCOD9537013
Probable space group: I M M A
;
_chemical_formula_sum "Si O2"
_cell_formula_units_Z 96
_cell_length_a 30.944513
_cell_length_b 9.093330
_cell_length_c 21.304938
_cell_angle_alpha 90.000000
_cell_angle_beta 90.000000
_cell_angle_gamma 90.000000
_cell_volume 5994.968134
_symmetry_space_group_name_H-M "I M M A"
_symmetry_group_IT_number 74
_symmetry_cell_setting 'orthorhombic'
loop_
_space_group_symop_operation_xyz
x,y,z
-x,1/2-y,z
x,-y,-z
-x,1/2+y,-z
-x,-y,-z
x,1/2+y,-z
-x,y,z
x,1/2-y,z
1/2+x,1/2+y,1/2+z
1/2-x,-y,1/2+z
1/2+x,1/2-y,1/2-z
1/2-x,y,1/2-z
1/2-x,1/2-y,1/2-z
1/2+x,y,1/2-z
1/2-x,1/2+y,1/2+z
1/2+x,-y,1/2+z
loop_
_atom_site_type_symbol
_atom_site_label
_atom_site_fract_x
_atom_site_fract_y
_atom_site_fract_z
Si Si1 0.751345 0.423978 0.936809
Si Si2 0.213507 0.072487 0.698256
Si Si3 0.366105 0.076979 0.261339
Si Si4 0.548496 0.425183 0.695737
Si Si5 0.836264 0.916030 0.905105
Si Si6 0.564479 0.921485 0.563093
O O1 0.747350 0.250000 0.942621
O O2 0.728894 0.469891 0.871495
O O3 0.801495 0.468951 0.928827
O O4 0.734650 0.500000 0.000000
O O5 0.209672 0.250000 0.700984
O O6 0.250000 0.030365 0.750000
O O7 0.168168 0.999142 0.715822
O O8 0.371148 0.250000 0.248325
O O9 0.345488 0.063626 0.331176
O O10 0.412715 0.999245 0.265512
O O11 0.500000 0.450776 0.720872
O O12 0.555617 0.250000 0.691328
O O13 0.550335 0.495291 0.626051
O O14 0.819344 0.750000 0.915450
O O15 0.883229 0.926758 0.935964
O O16 0.552093 0.750000 0.565632
O O17 0.549281 0.000000 0.500000
#
# Coordination Sequence:
#
# PCOD9537013 Si02
#       6
#    16  16  16  16  16  16
#     4  11  22  33  48  70 100 136 171 211 254 296
#     4  10  20  35  53  75 102 136 175 212 253 302
#     4  10  20  33  53  77  99 128 165 211 257 301
#     4  10  21  36  53  71  93 124 161 206 258 308
#     4   9  18  31  46  67  94 126 166 208 252 296
#     4  10  20  32  46  66  91 125 166 210 258 306
#
# _framework density 16.013428999999999
#
# number of rings (size 3 to 8) (size 9 to 14) (size 15 to 20)
#    0.000    2.000    1.667    3.500    0.000    8.000 
#    0.000    0.000    0.000    0.000    0.000    0.000 
#    0.000    0.667    0.000    2.167    0.000    2.667 
#
# Total GULP energy -267937.801815 kJ/mol
# GULP energy per Si atom -5582.037538 kJ/mol
# Density = 1.597698 g / cm^3
# Si number density = 16.013429 Si / 1000 Ang^3
#
#
#
# Elastic Constant Matrix: (Units=GPa)
#
#
# Indices 1 2 3 4 5 6 
#
# 1 113.0796 52.7749 52.6491 0.0000 0.0000 0.0000
# 2 52.7749 71.9933 44.7547 0.0000 0.0000 0.0000
# 3 52.6491 44.7547 88.8554 0.0000 0.0000 0.0000
# 4 0.0000 0.0000 0.0000 23.7071 0.0000 0.0000
# 5 0.0000 0.0000 0.0000 0.0000 -1.4800 0.0000
# 6 0.0000 0.0000 0.0000 0.0000 0.0000 12.7051
#
#
#
# Elastic Compliance Matrix: (Units=1/GPa)
#
#
# Indices 1 2 3 4 5 6 
#
# 1 0.014718 -0.007815 -0.004785 0.000000 0.000000 0.000000
# 2 -0.007815 0.024371 -0.007645 0.000000 0.000000 0.000000
# 3 -0.004785 -0.007645 0.017940 0.000000 0.000000 0.000000
# 4 0.000000 0.000000 0.000000 0.042181 0.000000 0.000000
# 5 0.000000 0.000000 0.000000 0.000000 -0.675677 0.000000
# 6 0.000000 0.000000 0.000000 0.000000 0.000000 0.078709
#
#
# Mechanical properties :
#
#
# Convention : Reuss Voigt Hill
#
# Bulk Modulus (GPa) = 60.45741 63.80951 62.13346
# Shear Modulus (GPa) = -11.06795 15.23641 2.08423
#
# Velocity S-wave (km/s) = -2.63186 3.08795 1.14209
# Velocity P-wave (km/s) = 5.34795 7.25589 6.37372
#
# Compressibility (1/GPa) = 0.01654057
#
# Stress axis : x y z
#
# Youngs Moduli (GPa) = 67.94250 41.03190 55.74158
#
# Poissons Ratio (x) = 0.32066 0.26671
# Poissons Ratio (y) = 0.53096 0.42614
# Poissons Ratio (z) = 0.32509 0.31368
#
# Static dielectric constant tensor:
#      x y z
#    x 1.539270 0.000000 0.000000 
#    y 0.000000 1.538610 0.000000 
#    z 0.000000 0.000000 1.530790 
# 
# From -- ./inp_files/49084.got.cif
#   From: 2010.05.17/outbox.cif.g08.bks.cpg/sg74_25_cif.got.tgz:49084.got - 2010.06.03 17:57:02.
