data_PCOD9537294
_publ_section_title
;
Structure prediction by ZEFSAII (Michael W. Deem and Ramdas Pophale) SiO2 
 PCOD9537294
Probable space group: I M M A
;
_chemical_formula_sum "Si O2"
_cell_formula_units_Z 96
_cell_length_a 17.599404
_cell_length_b 7.811065
_cell_length_c 31.029099
_cell_angle_alpha 90.000000
_cell_angle_beta 90.000000
_cell_angle_gamma 90.000000
_cell_volume 4265.572989
_symmetry_space_group_name_H-M "I M M A"
_symmetry_group_IT_number 74
_symmetry_cell_setting 'orthorhombic'
loop_
_space_group_symop_operation_xyz
x,y,z
-x,1/2-y,z
x,-y,-z
-x,1/2+y,-z
-x,-y,-z
x,1/2+y,-z
-x,y,z
x,1/2-y,z
1/2+x,1/2+y,1/2+z
1/2-x,-y,1/2+z
1/2+x,1/2-y,1/2-z
1/2-x,y,1/2-z
1/2-x,1/2-y,1/2-z
1/2+x,y,1/2-z
1/2-x,1/2+y,1/2+z
1/2+x,-y,1/2+z
loop_
_atom_site_type_symbol
_atom_site_label
_atom_site_fract_x
_atom_site_fract_y
_atom_site_fract_z
Si Si1 0.413863 0.954495 0.376330
Si Si2 0.915611 0.459836 0.358060
Si Si3 0.909865 0.551416 0.215763
Si Si4 0.369041 0.455872 0.047384
Si Si5 0.190918 0.557299 0.714760
Si Si6 0.304099 0.452872 0.453234
O O1 0.500000 0.020834 0.383581
O O2 0.419922 0.750000 0.371182
O O3 0.380657 0.015145 0.330434
O O4 0.358354 0.989152 0.415307
O O5 0.913127 0.250000 0.356153
O O6 0.907780 0.512021 0.408148
O O7 0.843159 0.519757 0.329397
O O8 0.000000 0.512988 0.342510
O O9 0.887235 0.750000 0.222914
O O10 0.883741 0.441196 0.255553
O O11 0.000000 0.549502 0.211399
O O12 0.368296 0.250000 0.049084
O O13 0.281921 0.522821 0.048977
O O14 0.400766 0.500000 0.000000
O O15 0.218772 0.750000 0.705554
O O16 0.250000 0.478969 0.750000
O O17 0.336019 0.500000 0.500000
O O18 0.297999 0.250000 0.450387
#
# Coordination Sequence:
#
# PCOD9537294 Si02
#       6
#    16  16  16  16  16  16
#     4   9  19  35  53  74 102 138 179 222 269 321
#     4   9  18  34  55  79 110 146 178 217 274 326
#     4   9  19  36  55  75 105 143 179 220 271 323
#     4   9  19  35  55  79 107 139 177 221 270 325
#     4  10  21  34  54  83 112 143 184 228 266 316
#     4  10  20  33  52  75 103 137 175 221 273 325
#
# _framework density 22.505769999999998
#
# number of rings (size 3 to 8) (size 9 to 14) (size 15 to 20)
#    0.000    2.667    0.000    2.000    2.333    3.667 
#    0.000    2.500    0.000    1.000    0.000    0.000 
#    0.000    0.000    0.000    0.000    0.000    0.000 
#
# Total GULP energy -267583.292720 kJ/mol
# GULP energy per Si atom -5574.651932 kJ/mol
# Density = 2.245455 g / cm^3
# Si number density = 22.505770 Si / 1000 Ang^3
#
#
#
# Elastic Constant Matrix: (Units=GPa)
#
#
# Indices 1 2 3 4 5 6 
#
# 1 51.7997 6.3845 36.6872 0.0000 0.0000 0.0000
# 2 6.3845 32.7512 2.7144 0.0000 0.0000 0.0000
# 3 36.6872 2.7144 134.6209 0.0000 0.0000 0.0000
# 4 0.0000 0.0000 0.0000 19.0879 0.0000 0.0000
# 5 0.0000 0.0000 0.0000 0.0000 41.1050 0.0000
# 6 0.0000 0.0000 0.0000 0.0000 0.0000 10.0498
#
#
#
# Elastic Compliance Matrix: (Units=1/GPa)
#
#
# Indices 1 2 3 4 5 6 
#
# 1 0.024494 -0.004229 -0.006590 0.000000 0.000000 0.000000
# 2 -0.004229 0.031314 0.000521 0.000000 0.000000 0.000000
# 3 -0.006590 0.000521 0.009214 0.000000 0.000000 0.000000
# 4 0.000000 0.000000 0.000000 0.052389 0.000000 0.000000
# 5 0.000000 0.000000 0.000000 0.000000 0.024328 0.000000
# 6 0.000000 0.000000 0.000000 0.000000 0.000000 0.099505
#
#
# Mechanical properties :
#
#
# Convention : Reuss Voigt Hill
#
# Bulk Modulus (GPa) = 22.50897 34.52712 28.51805
# Shear Modulus (GPa) = 18.07357 25.60759 21.84058
#
# Velocity S-wave (km/s) = 2.83691 3.37682 3.11857
# Velocity P-wave (km/s) = 4.55564 5.52980 5.06619
#
# Compressibility (1/GPa) = 0.04442673
#
# Stress axis : x y z
#
# Youngs Moduli (GPa) = 40.82709 31.93426 108.53500
#
# Poissons Ratio (x) = 0.13504 0.71522
# Poissons Ratio (y) = 0.17264 -0.05654
# Poissons Ratio (z) = 0.26904 -0.01664
#
# Static dielectric constant tensor:
#      x y z
#    x 1.880440 0.000000 0.000000 
#    y 0.000000 1.843270 0.000000 
#    z 0.000000 0.000000 1.831330 
# 
# From -- ./inp_files/60792.got.cif
#   From: 2010.05.17/outbox.cif.g08.bks.cpg/sg74_31_cif.got.tgz:60792.got - 2010.06.03 17:57:02.
