data_PCOD9537778
_publ_section_title
;
Structure prediction by ZEFSAII (Michael W. Deem and Ramdas Pophale) SiO2 
 PCOD9537778
Probable space group: I M M A
;
_chemical_formula_sum "Si O2"
_cell_formula_units_Z 88
_cell_length_a 24.903549
_cell_length_b 21.472328
_cell_length_c 7.294004
_cell_angle_alpha 90.000000
_cell_angle_beta 90.000000
_cell_angle_gamma 90.000000
_cell_volume 3900.375075
_symmetry_space_group_name_H-M "I M M A"
_symmetry_group_IT_number 74
_symmetry_cell_setting 'orthorhombic'
loop_
_space_group_symop_operation_xyz
x,y,z
-x,1/2-y,z
x,-y,-z
-x,1/2+y,-z
-x,-y,-z
x,1/2+y,-z
-x,y,z
x,1/2-y,z
1/2+x,1/2+y,1/2+z
1/2-x,-y,1/2+z
1/2+x,1/2-y,1/2-z
1/2-x,y,1/2-z
1/2-x,1/2-y,1/2-z
1/2+x,y,1/2-z
1/2-x,1/2+y,1/2+z
1/2+x,-y,1/2+z
loop_
_atom_site_type_symbol
_atom_site_label
_atom_site_fract_x
_atom_site_fract_y
_atom_site_fract_z
Si Si1 0.939039 0.006924 0.222801
Si Si2 0.790089 0.054292 0.890084
Si Si3 0.124558 0.628604 0.766414
Si Si4 0.562478 0.250000 0.709110
Si Si5 0.112131 0.879115 0.207877
Si Si6 0.561704 0.250000 0.260517
Si Si7 0.250000 0.618394 0.750000
O O1 0.922651 0.936988 0.279330
O O2 0.000000 0.023110 0.277308
O O3 0.897881 0.060479 0.291572
O O4 0.939609 0.000000 0.000000
O O5 0.750000 0.022149 0.750000
O O6 0.826484 0.099536 0.769419
O O7 0.758181 0.088511 0.049031
O O8 0.821582 0.000000 0.000000
O O9 0.090564 0.687007 0.697428
O O10 0.187664 0.642947 0.734165
O O11 0.112367 0.625202 0.985243
O O12 0.500000 0.250000 0.760895
O O13 0.592068 0.312622 0.772327
O O14 0.563652 0.250000 0.484948
O O15 0.500000 0.250000 0.206587
#
# Coordination Sequence:
#
# PCOD9537778 Si02
#       7
#    16  16  16   8  16   8   8
#     4   9  15  24  41  68 101 137 180 232 284 337
#     4  11  21  35  57  84 114 152 189 234 285 345
#     4   9  17  28  46  71 109 146 186 234 282 343
#     4   9  16  28  48  75 111 147 184 236 291 343
#     4   9  17  29  46  74 107 144 186 234 283 339
#     4   9  16  27  45  75 110 147 190 235 287 342
#     4  10  20  35  52  82 116 149 190 232 284 339
#
# _framework density 22.561931999999999
#
# number of rings (size 3 to 8) (size 9 to 14) (size 15 to 20)
#    0.000    2.545    0.909    3.818    0.000    4.727 
#    0.000    1.364    0.000    0.000    0.000    7.636 
#    0.000    0.000    0.000    0.000    0.000    0.000 
#
# Total GULP energy -244943.752723 kJ/mol
# GULP energy per Si atom -5566.903471 kJ/mol
# Density = 2.251058 g / cm^3
# Si number density = 22.561932 Si / 1000 Ang^3
#
#
#
# Elastic Constant Matrix: (Units=GPa)
#
#
# Indices 1 2 3 4 5 6 
#
# 1 173.9061 102.8799 23.4802 0.0000 0.0000 0.0000
# 2 102.8799 182.0448 -5.6232 0.0000 0.0000 0.0000
# 3 23.4802 -5.6232 52.8349 0.0000 0.0000 0.0000
# 4 0.0000 0.0000 0.0000 -11.6157 0.0000 0.0000
# 5 0.0000 0.0000 0.0000 0.0000 -28.7830 0.0000
# 6 0.0000 0.0000 0.0000 0.0000 0.0000 32.7091
#
#
#
# Elastic Compliance Matrix: (Units=1/GPa)
#
#
# Indices 1 2 3 4 5 6 
#
# 1 0.009778 -0.005679 -0.004950 0.000000 0.000000 0.000000
# 2 -0.005679 0.008809 0.003461 0.000000 0.000000 0.000000
# 3 -0.004950 0.003461 0.021495 0.000000 0.000000 0.000000
# 4 0.000000 0.000000 0.000000 -0.086090 0.000000 0.000000
# 5 0.000000 0.000000 0.000000 0.000000 -0.034743 0.000000
# 6 0.000000 0.000000 0.000000 0.000000 0.000000 0.030573
#
#
# Mechanical properties :
#
#
# Convention : Reuss Voigt Hill
#
# Bulk Modulus (GPa) = 38.83841 72.25106 55.54473
# Shear Modulus (GPa) = -183.41198 17.66534 -82.87332
#
# Velocity S-wave (km/s) = -9.02603 2.80120 -6.06723
# Velocity P-wave (km/s) = 9.55898 6.52344 4.94059
#
# Compressibility (1/GPa) = 0.02574771
#
# Stress axis : x y z
#
# Youngs Moduli (GPa) = 102.27032 113.51581 46.52243
#
# Poissons Ratio (x) = 0.64463 0.23028
# Poissons Ratio (y) = 0.58077 -0.16103
# Poissons Ratio (z) = 0.50622 -0.39291
#
# Static dielectric constant tensor:
#      x y z
#    x 1.860630 0.000000 0.000000 
#    y 0.000000 1.855490 0.000000 
#    z 0.000000 0.000000 1.865310 
# 
# From -- ./inp_files/13787.got.cif
#   From: 2010.05.17/outbox.cif.g08.bks.cpg/sg74_7_cif.got.tgz:13787.got - 2010.06.03 17:57:02.
