data_PCOD9537084
_publ_section_title
;
Structure prediction by ZEFSAII (Michael W. Deem and Ramdas Pophale) SiO2 
 PCOD9537084
Probable space group: I M M A
;
_chemical_formula_sum "Si O2"
_cell_formula_units_Z 96
_cell_length_a 17.048899
_cell_length_b 14.205488
_cell_length_c 19.364662
_cell_angle_alpha 90.000000
_cell_angle_beta 90.000000
_cell_angle_gamma 90.000000
_cell_volume 4689.887408
_symmetry_space_group_name_H-M "I M M A"
_symmetry_group_IT_number 74
_symmetry_cell_setting 'orthorhombic'
loop_
_space_group_symop_operation_xyz
x,y,z
-x,1/2-y,z
x,-y,-z
-x,1/2+y,-z
-x,-y,-z
x,1/2+y,-z
-x,y,z
x,1/2-y,z
1/2+x,1/2+y,1/2+z
1/2-x,-y,1/2+z
1/2+x,1/2-y,1/2-z
1/2-x,y,1/2-z
1/2-x,1/2-y,1/2-z
1/2+x,y,1/2-z
1/2-x,1/2+y,1/2+z
1/2+x,-y,1/2+z
loop_
_atom_site_type_symbol
_atom_site_label
_atom_site_fract_x
_atom_site_fract_y
_atom_site_fract_z
Si Si1 0.847543 0.859807 0.473590
Si Si2 0.913695 0.857551 0.743679
Si Si3 0.164673 0.856962 0.991327
Si Si4 0.409033 0.356971 0.637339
Si Si5 0.365735 0.966336 0.885984
Si Si6 0.682091 0.039314 0.353954
O O1 0.864226 0.750000 0.463965
O O2 0.752382 0.872782 0.477606
O O3 0.876084 0.898494 0.547617
O O4 0.880007 0.928731 0.414573
O O5 0.901932 0.750000 0.720197
O O6 0.911883 0.926774 0.678631
O O7 0.848036 0.887188 0.797857
O O8 0.000000 0.863796 0.777220
O O9 0.164935 0.750000 0.963210
O O10 0.150726 0.928291 0.929187
O O11 0.104950 0.860976 0.054607
O O12 0.500000 0.374109 0.653500
O O13 0.388329 0.250000 0.658540
O O14 0.353728 0.438468 0.666262
O O15 0.274987 0.962076 0.862260
#
# Coordination Sequence:
#
# PCOD9537084 Si02
#       6
#    16  16  16  16  16  16
#     4   9  17  33  58  88 116 139 178 235 285 329
#     4  11  25  42  57  78 113 151 184 225 281 340
#     4   9  17  30  50  79 113 145 184 231 275 321
#     4  10  20  32  48  75 115 157 191 228 275 325
#     4  10  20  35  60  88 111 144 186 231 280 328
#     4  11  20  34  56  82 108 147 192 231 268 324
#
# _framework density 20.469574999999999
#
# number of rings (size 3 to 8) (size 9 to 14) (size 15 to 20)
#    0.000    2.000    1.667    2.500    0.000    4.667 
#    0.000    4.167    0.000    4.500    0.000    0.000 
#    0.000    0.000    0.000    0.000    0.000    0.000 
#
# Total GULP energy -268043.375495 kJ/mol
# GULP energy per Si atom -5584.236989 kJ/mol
# Density = 2.042299 g / cm^3
# Si number density = 20.469575 Si / 1000 Ang^3
#
#
#
# Elastic Constant Matrix: (Units=GPa)
#
#
# Indices 1 2 3 4 5 6 
#
# 1 18.0021 15.4490 3.2480 0.0000 0.0000 0.0000
# 2 15.4490 137.1165 22.6072 0.0000 0.0000 0.0000
# 3 3.2480 22.6072 40.8736 0.0000 0.0000 0.0000
# 4 0.0000 0.0000 0.0000 27.6854 0.0000 0.0000
# 5 0.0000 0.0000 0.0000 0.0000 1.1787 0.0000
# 6 0.0000 0.0000 0.0000 0.0000 0.0000 14.3555
#
#
#
# Elastic Compliance Matrix: (Units=1/GPa)
#
#
# Indices 1 2 3 4 5 6 
#
# 1 0.061545 -0.006743 -0.001161 0.000000 0.000000 0.000000
# 2 -0.006743 0.008764 -0.004311 0.000000 0.000000 0.000000
# 3 -0.001161 -0.004311 0.026943 0.000000 0.000000 0.000000
# 4 0.000000 0.000000 0.000000 0.036120 0.000000 0.000000
# 5 0.000000 0.000000 0.000000 0.000000 0.848416 0.000000
# 6 0.000000 0.000000 0.000000 0.000000 0.000000 0.069660
#
#
# Mechanical properties :
#
#
# Convention : Reuss Voigt Hill
#
# Bulk Modulus (GPa) = 13.73238 30.95561 22.34399
# Shear Modulus (GPa) = 4.54483 18.95646 11.75064
#
# Velocity S-wave (km/s) = 1.49168 3.04646 2.39854
# Velocity P-wave (km/s) = 3.11288 5.24691 4.31394
#
# Compressibility (1/GPa) = 0.07282061
#
# Stress axis : x y z
#
# Youngs Moduli (GPa) = 16.24821 114.10798 37.11597
#
# Poissons Ratio (x) = 0.76942 0.04310
# Poissons Ratio (y) = 0.10956 0.16002
# Poissons Ratio (z) = 0.01887 0.49196
#
# Static dielectric constant tensor:
#      x y z
#    x 1.704100 0.000000 0.000000 
#    y 0.000000 1.755170 0.000000 
#    z 0.000000 0.000000 1.705460 
# 
# From -- ./inp_files/51850.got.cif
#   From: 2010.05.17/outbox.cif.g08.bks.cpg/sg74_26_cif.got.tgz:51850.got - 2010.06.03 17:57:02.
