data_PCOD9537188
_publ_section_title
;
Structure prediction by ZEFSAII (Michael W. Deem and Ramdas Pophale) SiO2 
 PCOD9537188
Probable space group: I M M A
;
_chemical_formula_sum "Si O2"
_cell_formula_units_Z 96
_cell_length_a 7.275175
_cell_length_b 25.620602
_cell_length_c 21.987527
_cell_angle_alpha 90.000000
_cell_angle_beta 90.000000
_cell_angle_gamma 90.000000
_cell_volume 4098.351093
_symmetry_space_group_name_H-M "I M M A"
_symmetry_group_IT_number 74
_symmetry_cell_setting 'orthorhombic'
loop_
_space_group_symop_operation_xyz
x,y,z
-x,1/2-y,z
x,-y,-z
-x,1/2+y,-z
-x,-y,-z
x,1/2+y,-z
-x,y,z
x,1/2-y,z
1/2+x,1/2+y,1/2+z
1/2-x,-y,1/2+z
1/2+x,1/2-y,1/2-z
1/2-x,y,1/2-z
1/2-x,1/2-y,1/2-z
1/2+x,y,1/2-z
1/2-x,1/2+y,1/2+z
1/2+x,-y,1/2+z
loop_
_atom_site_type_symbol
_atom_site_label
_atom_site_fract_x
_atom_site_fract_y
_atom_site_fract_z
Si Si1 0.776590 0.003505 0.428557
Si Si2 0.222536 0.192871 0.482970
Si Si3 0.277102 0.192999 0.159295
Si Si4 0.224018 0.612807 0.419096
Si Si5 0.719275 0.577679 0.817659
Si Si6 0.218406 0.691561 0.318537
O O1 0.714996 0.045868 0.377779
O O2 0.000000 0.008696 0.430572
O O3 0.719882 0.000000 0.500000
O O4 0.721766 0.946005 0.406672
O O5 0.280978 0.250000 0.507919
O O6 0.269261 0.191065 0.412332
O O7 0.283348 0.141703 0.519026
O O8 0.000000 0.192937 0.486320
O O9 0.500000 0.193599 0.164533
O O10 0.212458 0.250000 0.182226
O O11 0.210111 0.137599 0.184330
O O12 0.288861 0.650941 0.366576
O O13 0.000000 0.611491 0.420787
O O14 0.500000 0.580727 0.825379
O O15 0.750000 0.554143 0.750000
O O16 0.292716 0.750000 0.325033
O O17 0.250000 0.674201 0.250000
O O18 0.000000 0.694751 0.328462
#
# Coordination Sequence:
#
# PCOD9537188 Si02
#       6
#    16  16  16  16  16  16
#     4   9  17  29  46  68  93 121 154 193 234 273
#     4   8  12  19  35  61  90 114 138 177 227 269
#     4   8  14  25  42  65  92 119 146 179 221 267
#     4   9  15  23  38  60  85 112 142 179 224 269
#     4  10  20  33  49  70  96 124 154 190 231 274
#     4   9  17  28  41  59  85 115 145 178 217 262
#
# _framework density 23.424054999999999
#
# number of rings (size 3 to 8) (size 9 to 14) (size 15 to 20)
#    0.000    3.167    0.000    2.500    0.000    7.000 
#    0.000    0.000    0.000    0.500    0.000    3.500 
#    0.000    1.333    0.000    0.000    0.000    0.000 
#
# Total GULP energy -267712.733792 kJ/mol
# GULP energy per Si atom -5577.348621 kJ/mol
# Density = 2.337074 g / cm^3
# Si number density = 23.424055 Si / 1000 Ang^3
#
#
#
# Elastic Constant Matrix: (Units=GPa)
#
#
# Indices 1 2 3 4 5 6 
#
# 1 103.0764 3.6416 -2.8731 0.0000 0.0000 0.0000
# 2 3.6416 108.6296 89.1673 0.0000 0.0000 0.0000
# 3 -2.8731 89.1673 150.9547 0.0000 0.0000 0.0000
# 4 0.0000 0.0000 0.0000 21.9770 0.0000 0.0000
# 5 0.0000 0.0000 0.0000 0.0000 2.4225 0.0000
# 6 0.0000 0.0000 0.0000 0.0000 0.0000 -24.5208
#
#
#
# Elastic Compliance Matrix: (Units=1/GPa)
#
#
# Indices 1 2 3 4 5 6 
#
# 1 0.009755 -0.000931 0.000735 0.000000 0.000000 0.000000
# 2 -0.000931 0.017959 -0.010626 0.000000 0.000000 0.000000
# 3 0.000735 -0.010626 0.012915 0.000000 0.000000 0.000000
# 4 0.000000 0.000000 0.000000 0.045502 0.000000 0.000000
# 5 0.000000 0.000000 0.000000 0.000000 0.412797 0.000000
# 6 0.000000 0.000000 0.000000 0.000000 0.000000 -0.040782
#
#
# Mechanical properties :
#
#
# Convention : Reuss Voigt Hill
#
# Bulk Modulus (GPa) = 52.66851 60.28138 56.47494
# Shear Modulus (GPa) = 10.28558 18.15740 14.22149
#
# Velocity S-wave (km/s) = 2.09775 2.78719 2.46668
# Velocity P-wave (km/s) = 5.32926 6.01237 5.68109
#
# Compressibility (1/GPa) = 0.01898668
#
# Stress axis : x y z
#
# Youngs Moduli (GPa) = 102.51243 55.68285 77.42906
#
# Poissons Ratio (x) = 0.05182 -0.05694
# Poissons Ratio (y) = 0.09540 0.82275
# Poissons Ratio (z) = -0.07539 0.59168
#
# Static dielectric constant tensor:
#      x y z
#    x 1.938100 0.000000 0.000000 
#    y 0.000000 1.879080 0.000000 
#    z 0.000000 0.000000 1.864690 
# 
# From -- ./inp_files/50899.got.cif
#   From: 2010.05.17/outbox.cif.g08.bks.cpg/sg74_26_cif.got.tgz:50899.got - 2010.06.03 17:57:02.
