data_PCOD9537588
_publ_section_title
;
Structure prediction by ZEFSAII (Michael W. Deem and Ramdas Pophale) SiO2 
 PCOD9537588
Probable space group: I M M A
;
_chemical_formula_sum "Si O2"
_cell_formula_units_Z 96
_cell_length_a 8.059651
_cell_length_b 28.636326
_cell_length_c 21.126141
_cell_angle_alpha 90.000000
_cell_angle_beta 90.000000
_cell_angle_gamma 90.000000
_cell_volume 4875.887854
_symmetry_space_group_name_H-M "I M M A"
_symmetry_group_IT_number 74
_symmetry_cell_setting 'orthorhombic'
loop_
_space_group_symop_operation_xyz
x,y,z
-x,1/2-y,z
x,-y,-z
-x,1/2+y,-z
-x,-y,-z
x,1/2+y,-z
-x,y,z
x,1/2-y,z
1/2+x,1/2+y,1/2+z
1/2-x,-y,1/2+z
1/2+x,1/2-y,1/2-z
1/2-x,y,1/2-z
1/2-x,1/2-y,1/2-z
1/2+x,y,1/2-z
1/2-x,1/2+y,1/2+z
1/2+x,-y,1/2+z
loop_
_atom_site_type_symbol
_atom_site_label
_atom_site_fract_x
_atom_site_fract_y
_atom_site_fract_z
Si Si1 0.199877 0.303538 0.820096
Si Si2 0.801833 0.634638 0.679152
Si Si3 0.800826 0.969031 0.058459
Si Si4 0.300760 0.803069 0.561753
Si Si5 0.703657 0.862399 0.440711
Si Si6 0.301626 0.972056 0.820995
O O1 0.259571 0.250000 0.828550
O O2 0.250000 0.319321 0.750000
O O3 0.257778 0.336722 0.876488
O O4 0.000000 0.302388 0.822757
O O5 0.750000 0.648486 0.750000
O O6 0.738753 0.669470 0.625816
O O7 0.739871 0.581332 0.668463
O O8 0.000000 0.633665 0.676281
O O9 0.739173 0.915865 0.056271
O O10 0.000000 0.966790 0.052062
O O11 0.762351 0.994135 0.124491
O O12 0.735820 0.000000 0.000000
O O13 0.500000 0.800576 0.556072
O O14 0.236455 0.750000 0.561954
O O15 0.240877 0.832814 0.501538
O O16 0.500000 0.862655 0.440796
O O17 0.500000 0.971426 0.823798
O O18 0.250000 0.985966 0.750000
#
# Coordination Sequence:
#
# PCOD9537588 Si02
#       6
#    16  16  16  16  16  16
#     4   9  17  31  51  73  99 132 169 209 252 300
#     4  10  21  37  57  80 107 140 176 217 265 316
#     4  10  20  34  54  79 108 142 177 216 263 315
#     4  10  20  35  57  82 107 139 179 221 264 312
#     4   9  18  33  53  77 105 138 176 214 256 310
#     4  10  21  37  57  80 107 140 179 222 268 320
#
# _framework density 19.688721999999999
#
# number of rings (size 3 to 8) (size 9 to 14) (size 15 to 20)
#    0.000    2.333    0.000    2.500    0.000    7.000 
#    0.000    4.167    0.000    2.000    0.000    0.000 
#    0.000    0.000    0.000    0.000    0.000    0.000 
#
# Total GULP energy -268036.741116 kJ/mol
# GULP energy per Si atom -5584.098773 kJ/mol
# Density = 1.964391 g / cm^3
# Si number density = 19.688722 Si / 1000 Ang^3
#
#
#
# Elastic Constant Matrix: (Units=GPa)
#
#
# Indices 1 2 3 4 5 6 
#
# 1 9.8005 10.3499 0.1468 0.0000 0.0000 0.0000
# 2 10.3499 163.5507 134.8169 0.0000 0.0000 0.0000
# 3 0.1468 134.8169 182.6628 0.0000 0.0000 0.0000
# 4 0.0000 0.0000 0.0000 42.5528 0.0000 0.0000
# 5 0.0000 0.0000 0.0000 0.0000 29.5906 0.0000
# 6 0.0000 0.0000 0.0000 0.0000 0.0000 14.1864
#
#
#
# Elastic Compliance Matrix: (Units=1/GPa)
#
#
# Indices 1 2 3 4 5 6 
#
# 1 0.122508 -0.019590 0.014360 0.000000 0.000000 0.000000
# 2 -0.019590 0.018746 -0.013820 0.000000 0.000000 0.000000
# 3 0.014360 -0.013820 0.015663 0.000000 0.000000 0.000000
# 4 0.000000 0.000000 0.000000 0.023500 0.000000 0.000000
# 5 0.000000 0.000000 0.000000 0.000000 0.033795 0.000000
# 6 0.000000 0.000000 0.000000 0.000000 0.000000 0.070490
#
#
# Mechanical properties :
#
#
# Convention : Reuss Voigt Hill
#
# Bulk Modulus (GPa) = 8.41625 71.84902 40.13263
# Shear Modulus (GPa) = 13.79662 31.31266 22.55464
#
# Velocity S-wave (km/s) = 2.65002 3.99229 3.38829
# Velocity P-wave (km/s) = 3.69424 7.60413 5.97789
#
# Compressibility (1/GPa) = 0.11881776
#
# Stress axis : x y z
#
# Youngs Moduli (GPa) = 8.16272 53.34459 63.84424
#
# Poissons Ratio (x) = 1.04501 -0.91681
# Poissons Ratio (y) = 0.15991 0.88233
# Poissons Ratio (z) = -0.11722 0.73722
#
# Static dielectric constant tensor:
#      x y z
#    x 1.708110 0.000000 0.000000 
#    y 0.000000 1.689040 0.000000 
#    z 0.000000 0.000000 1.651010 
# 
# From -- ./inp_files/41629.got.cif
#   From: 2010.05.17/outbox.cif.g08.bks.cpg/sg74_21_cif.got.tgz:41629.got - 2010.06.03 17:57:02.
