data_PCOD9537338
_publ_section_title
;
Structure prediction by ZEFSAII (Michael W. Deem and Ramdas Pophale) SiO2 
 PCOD9537338
Probable space group: I M M A
;
_chemical_formula_sum "Si O2"
_cell_formula_units_Z 96
_cell_length_a 13.819834
_cell_length_b 14.889605
_cell_length_c 21.162900
_cell_angle_alpha 90.000000
_cell_angle_beta 90.000000
_cell_angle_gamma 90.000000
_cell_volume 4354.729495
_symmetry_space_group_name_H-M "I M M A"
_symmetry_group_IT_number 74
_symmetry_cell_setting 'orthorhombic'
loop_
_space_group_symop_operation_xyz
x,y,z
-x,1/2-y,z
x,-y,-z
-x,1/2+y,-z
-x,-y,-z
x,1/2+y,-z
-x,y,z
x,1/2-y,z
1/2+x,1/2+y,1/2+z
1/2-x,-y,1/2+z
1/2+x,1/2-y,1/2-z
1/2-x,y,1/2-z
1/2-x,1/2-y,1/2-z
1/2+x,y,1/2-z
1/2-x,1/2+y,1/2+z
1/2+x,-y,1/2+z
loop_
_atom_site_type_symbol
_atom_site_label
_atom_site_fract_x
_atom_site_fract_y
_atom_site_fract_z
Si Si1 0.118010 0.032690 0.223496
Si Si2 0.882531 0.851293 0.659016
Si Si3 0.609937 0.105798 0.013890
Si Si4 0.383743 0.144806 0.400207
Si Si5 0.190991 0.352850 0.967350
Si Si6 0.883393 0.852554 0.166799
O O1 0.150660 0.079128 0.288069
O O2 0.146341 0.090317 0.161782
O O3 0.000000 0.034779 0.223941
O O4 0.145945 0.928867 0.216145
O O5 0.850362 0.750000 0.673558
O O6 0.860471 0.875229 0.586501
O O7 0.000000 0.851160 0.661597
O O8 0.500000 0.139432 0.004724
O O9 0.693062 0.145923 0.970125
O O10 0.609065 0.000000 0.000000
O O11 0.500000 0.142887 0.403271
O O12 0.354477 0.250000 0.394329
O O13 0.344997 0.106213 0.466655
O O14 0.154793 0.250000 0.968993
O O15 0.151302 0.388181 0.901598
O O16 0.848293 0.750000 0.177019
O O17 0.000000 0.848990 0.165550
#
# Coordination Sequence:
#
# PCOD9537338 Si02
#       6
#    16  16  16  16  16  16
#     4   9  17  29  51  81 113 152 185 217 271 334
#     4   9  17  33  58  84 111 143 181 230 287 340
#     4  10  22  38  57  80 106 141 187 241 292 336
#     4   9  17  29  47  78 118 152 184 221 266 332
#     4  10  20  33  53  78 108 149 189 230 279 326
#     4   9  18  32  51  81 120 156 187 219 262 326
#
# _framework density 22.044996999999999
#
# number of rings (size 3 to 8) (size 9 to 14) (size 15 to 20)
#    0.000    2.667    0.000    1.500    2.333    5.000 
#    0.000    3.333    0.000    5.000    0.000   14.000 
#    0.000    0.000    0.000    0.000    0.000    0.000 
#
# Total GULP energy -268142.515862 kJ/mol
# GULP energy per Si atom -5586.302414 kJ/mol
# Density = 2.199482 g / cm^3
# Si number density = 22.044997 Si / 1000 Ang^3
#
#
#
# Elastic Constant Matrix: (Units=GPa)
#
#
# Indices 1 2 3 4 5 6 
#
# 1 65.8314 15.4600 29.4081 0.0000 0.0000 0.0000
# 2 15.4600 123.4838 57.6485 0.0000 0.0000 0.0000
# 3 29.4081 57.6485 66.7615 0.0000 0.0000 0.0000
# 4 0.0000 0.0000 0.0000 25.7329 0.0000 0.0000
# 5 0.0000 0.0000 0.0000 0.0000 19.8235 0.0000
# 6 0.0000 0.0000 0.0000 0.0000 0.0000 -4.0126
#
#
#
# Elastic Compliance Matrix: (Units=1/GPa)
#
#
# Indices 1 2 3 4 5 6 
#
# 1 0.019403 0.002615 -0.010805 0.000000 0.000000 0.000000
# 2 0.002615 0.013920 -0.013172 0.000000 0.000000 0.000000
# 3 -0.010805 -0.013172 0.031112 0.000000 0.000000 0.000000
# 4 0.000000 0.000000 0.000000 0.038861 0.000000 0.000000
# 5 0.000000 0.000000 0.000000 0.000000 0.050445 0.000000
# 6 0.000000 0.000000 0.000000 0.000000 0.000000 -0.249213
#
#
# Mechanical properties :
#
#
# Convention : Reuss Voigt Hill
#
# Bulk Modulus (GPa) = 46.05844 51.23443 48.64644
# Shear Modulus (GPa) = -109.86453 18.54608 -45.65922
#
# Velocity S-wave (km/s) = -7.06716 2.90363 -4.55596
# Velocity P-wave (km/s) = 6.75682 5.87646 2.35816
#
# Compressibility (1/GPa) = 0.02171155
#
# Stress axis : x y z
#
# Youngs Moduli (GPa) = 51.53829 71.83804 32.14154
#
# Poissons Ratio (x) = -0.18787 0.34729
# Poissons Ratio (y) = -0.13478 0.42337
# Poissons Ratio (z) = 0.55688 0.94625
#
# Static dielectric constant tensor:
#      x y z
#    x 1.821700 0.000000 0.000000 
#    y 0.000000 1.816700 0.000000 
#    z 0.000000 0.000000 1.776480 
# 
# From -- ./inp_files/51843.got.cif
#   From: 2010.05.17/outbox.cif.g08.bks.cpg/sg74_26_cif.got.tgz:51843.got - 2010.06.03 17:57:02.
