data_PCOD9537177
_publ_section_title
;
Structure prediction by ZEFSAII (Michael W. Deem and Ramdas Pophale) SiO2 
 PCOD9537177
Probable space group: I M M A
;
_chemical_formula_sum "Si O2"
_cell_formula_units_Z 80
_cell_length_a 15.324702
_cell_length_b 7.286162
_cell_length_c 29.826878
_cell_angle_alpha 90.000000
_cell_angle_beta 90.000000
_cell_angle_gamma 90.000000
_cell_volume 3330.417340
_symmetry_space_group_name_H-M "I M M A"
_symmetry_group_IT_number 74
_symmetry_cell_setting 'orthorhombic'
loop_
_space_group_symop_operation_xyz
x,y,z
-x,1/2-y,z
x,-y,-z
-x,1/2+y,-z
-x,-y,-z
x,1/2+y,-z
-x,y,z
x,1/2-y,z
1/2+x,1/2+y,1/2+z
1/2-x,-y,1/2+z
1/2+x,1/2-y,1/2-z
1/2-x,y,1/2-z
1/2-x,1/2-y,1/2-z
1/2+x,y,1/2-z
1/2-x,1/2+y,1/2+z
1/2+x,-y,1/2+z
loop_
_atom_site_type_symbol
_atom_site_label
_atom_site_fract_x
_atom_site_fract_y
_atom_site_fract_z
Si Si1 0.101885 0.973738 0.366864
Si Si2 0.151598 0.537839 0.267941
Si Si3 0.400026 0.525530 0.421379
Si Si4 0.398418 0.454792 0.675659
Si Si5 0.717176 0.531742 0.049131
O O1 0.105414 0.750000 0.367098
O O2 0.137915 0.034540 0.317914
O O3 0.159468 0.036828 0.409122
O O4 0.000000 0.025124 0.370529
O O5 0.120213 0.750000 0.270573
O O6 0.250000 0.533699 0.250000
O O7 0.106474 0.454577 0.224107
O O8 0.500000 0.465683 0.431828
O O9 0.403463 0.750000 0.420960
O O10 0.369452 0.464126 0.371327
O O11 0.317873 0.464562 0.450697
O O12 0.500000 0.431528 0.666847
O O13 0.356392 0.250000 0.678859
O O14 0.722451 0.750000 0.055407
O O15 0.677987 0.500000 0.000000
#
# Coordination Sequence:
#
# PCOD9537177 Si02
#       5
#    16  16  16  16  16
#     4   9  17  28  41  59  86 119 152 186 225 267
#     4   9  14  19  31  53  82 114 143 170 205 255
#     4   8  14  25  41  62  89 118 145 177 222 274
#     4   8  12  18  30  50  78 110 137 159 193 249
#     4  10  20  33  48  65  86 115 152 192 232 271
#
# _framework density 24.021014000000001
#
# number of rings (size 3 to 8) (size 9 to 14) (size 15 to 20)
#    0.000    3.200    0.000    3.000    0.000    8.000 
#    0.000    0.000    0.000    0.000    0.000    0.000 
#    0.000    7.200    0.000    9.400    0.000    8.000 
#
# Total GULP energy -222795.428945 kJ/mol
# GULP energy per Si atom -5569.885724 kJ/mol
# Density = 2.396634 g / cm^3
# Si number density = 24.021014 Si / 1000 Ang^3
#
#
#
# Elastic Constant Matrix: (Units=GPa)
#
#
# Indices 1 2 3 4 5 6 
#
# 1 104.4234 5.0068 69.6357 0.0000 0.0000 0.0000
# 2 5.0068 98.5765 -1.2083 0.0000 0.0000 0.0000
# 3 69.6357 -1.2083 197.2878 0.0000 0.0000 0.0000
# 4 0.0000 0.0000 0.0000 -5.7648 0.0000 0.0000
# 5 0.0000 0.0000 0.0000 0.0000 25.9974 0.0000
# 6 0.0000 0.0000 0.0000 0.0000 0.0000 -17.5236
#
#
#
# Elastic Compliance Matrix: (Units=1/GPa)
#
#
# Indices 1 2 3 4 5 6 
#
# 1 0.012572 -0.000693 -0.004442 0.000000 0.000000 0.000000
# 2 -0.000693 0.010183 0.000307 0.000000 0.000000 0.000000
# 3 -0.004442 0.000307 0.006638 0.000000 0.000000 0.000000
# 4 0.000000 0.000000 0.000000 -0.173467 0.000000 0.000000
# 5 0.000000 0.000000 0.000000 0.000000 0.038465 0.000000
# 6 0.000000 0.000000 0.000000 0.000000 0.000000 -0.057066
#
#
# Mechanical properties :
#
#
# Convention : Reuss Voigt Hill
#
# Bulk Modulus (GPa) = 50.66343 60.79512 55.72928
# Shear Modulus (GPa) = -34.14364 22.33204 -5.90580
#
# Velocity S-wave (km/s) = -3.77425 3.05239 -1.56969
# Velocity P-wave (km/s) = 1.46419 6.14710 4.46826
#
# Compressibility (1/GPa) = 0.01973810
#
# Stress axis : x y z
#
# Youngs Moduli (GPa) = 79.54488 98.19940 150.64026
#
# Poissons Ratio (x) = 0.06805 0.66908
# Poissons Ratio (y) = 0.05512 -0.04624
# Poissons Ratio (z) = 0.35330 -0.03014
#
# Static dielectric constant tensor:
#      x y z
#    x 2.062300 0.000000 0.000000 
#    y 0.000000 2.100190 0.000000 
#    z 0.000000 0.000000 1.968640 
# 
# From -- ./inp_files/66896.got.cif
#   From: 2010.05.17/outbox.cif.g08.bks.cpg/sg74_34_cif.got.tgz:66896.got - 2010.06.03 17:57:02.
