data_PCOD9537532
_publ_section_title
;
Structure prediction by ZEFSAII (Michael W. Deem and Ramdas Pophale) SiO2 
 PCOD9537532
Probable space group: I M M A
;
_chemical_formula_sum "Si O2"
_cell_formula_units_Z 84
_cell_length_a 20.757787
_cell_length_b 7.398061
_cell_length_c 25.779370
_cell_angle_alpha 90.000000
_cell_angle_beta 90.000000
_cell_angle_gamma 90.000000
_cell_volume 3958.870166
_symmetry_space_group_name_H-M "I M M A"
_symmetry_group_IT_number 74
_symmetry_cell_setting 'orthorhombic'
loop_
_space_group_symop_operation_xyz
x,y,z
-x,1/2-y,z
x,-y,-z
-x,1/2+y,-z
-x,-y,-z
x,1/2+y,-z
-x,y,z
x,1/2-y,z
1/2+x,1/2+y,1/2+z
1/2-x,-y,1/2+z
1/2+x,1/2-y,1/2-z
1/2-x,y,1/2-z
1/2-x,1/2-y,1/2-z
1/2+x,y,1/2-z
1/2-x,1/2+y,1/2+z
1/2+x,-y,1/2+z
loop_
_atom_site_type_symbol
_atom_site_label
_atom_site_fract_x
_atom_site_fract_y
_atom_site_fract_z
Si Si1 0.755009 0.044016 0.832107
Si Si2 0.500000 0.750000 0.653225
Si Si3 0.613130 0.031730 0.808331
Si Si4 0.710075 0.535539 0.943169
Si Si5 0.569105 0.041072 0.078638
Si Si6 0.398715 0.469482 0.692065
O O1 0.754992 0.250000 0.813141
O O2 0.687400 0.964971 0.812039
O O3 0.824227 0.973705 0.815773
O O4 0.748314 0.041121 0.894430
O O5 0.444170 0.590231 0.657000
O O6 0.614352 0.250000 0.813001
O O7 0.584544 0.989835 0.752328
O O8 0.576256 0.963653 0.858874
O O9 0.706928 0.750000 0.934591
O O10 0.636505 0.461423 0.941217
O O11 0.737295 0.500000 0.000000
O O12 0.500000 0.959719 0.064033
O O13 0.568180 0.250000 0.062007
O O14 0.404044 0.250000 0.684291
#
# Coordination Sequence:
#
# PCOD9537532 Si02
#       6
#    16   4  16  16  16  16
#     4   9  18  36  58  79 107 141 181 231 285 323
#     4  12  26  36  54  82 114 156 184 228 272 338
#     4   9  18  32  52  77 108 148 188 232 268 315
#     4  10  20  34  53  78 106 135 179 233 277 331
#     4   9  19  32  47  70 106 149 189 227 266 313
#     4  10  22  38  56  81 115 149 190 228 275 331
#
# _framework density 21.218177000000001
#
# number of rings (size 3 to 8) (size 9 to 14) (size 15 to 20)
#    0.000    2.476    0.000    1.429    4.000    3.810 
#    0.000    0.952    0.000    0.000    0.000    0.667 
#    0.000    0.000    0.000    0.000    0.000    0.000 
#
# Total GULP energy -233921.079914 kJ/mol
# GULP energy per Si atom -5569.549522 kJ/mol
# Density = 2.116988 g / cm^3
# Si number density = 21.218177 Si / 1000 Ang^3
#
#
#
# Elastic Constant Matrix: (Units=GPa)
#
#
# Indices 1 2 3 4 5 6 
#
# 1 71.5150 8.8755 6.3908 0.0000 0.0000 0.0000
# 2 8.8755 95.5633 -4.8238 0.0000 0.0000 0.0000
# 3 6.3908 -4.8238 73.9731 0.0000 0.0000 0.0000
# 4 0.0000 0.0000 0.0000 13.0837 0.0000 0.0000
# 5 0.0000 0.0000 0.0000 0.0000 -19.3044 0.0000
# 6 0.0000 0.0000 0.0000 0.0000 0.0000 -12.2885
#
#
#
# Elastic Compliance Matrix: (Units=1/GPa)
#
#
# Indices 1 2 3 4 5 6 
#
# 1 0.014274 -0.001393 -0.001324 0.000000 0.000000 0.000000
# 2 -0.001393 0.010635 0.000814 0.000000 0.000000 0.000000
# 3 -0.001324 0.000814 0.013686 0.000000 0.000000 0.000000
# 4 0.000000 0.000000 0.000000 0.076431 0.000000 0.000000
# 5 0.000000 0.000000 0.000000 0.000000 -0.051802 0.000000
# 6 0.000000 0.000000 0.000000 0.000000 0.000000 -0.081377
#
#
# Mechanical properties :
#
#
# Convention : Reuss Voigt Hill
#
# Bulk Modulus (GPa) = 28.74451 29.10404 28.92428
# Shear Modulus (GPa) = -1817.36156 11.67210 -902.84473
#
# Velocity S-wave (km/s) = -29.29797 2.34796 -20.65016
# Velocity P-wave (km/s) = 33.62913 4.59314 23.55654
#
# Compressibility (1/GPa) = 0.03478925
#
# Stress axis : x y z
#
# Youngs Moduli (GPa) = 70.05638 94.03194 73.06803
#
# Poissons Ratio (x) = 0.13094 0.09674
# Poissons Ratio (y) = 0.09756 -0.05946
# Poissons Ratio (z) = 0.09275 -0.07652
#
# Static dielectric constant tensor:
#      x y z
#    x 1.782080 0.000000 0.000000 
#    y 0.000000 1.821380 0.000000 
#    z 0.000000 0.000000 1.761770 
# 
# From -- ./inp_files/68057.got.cif
#   From: 2010.05.17/outbox.cif.g08.bks.cpg/sg74_35_cif.got.tgz:68057.got - 2010.06.03 17:57:02.
