data_PCOD9537563
_publ_section_title
;
Structure prediction by ZEFSAII (Michael W. Deem and Ramdas Pophale) SiO2 
 PCOD9537563
Probable space group: I M M A
;
_chemical_formula_sum "Si O2"
_cell_formula_units_Z 88
_cell_length_a 28.617991
_cell_length_b 7.419243
_cell_length_c 19.214667
_cell_angle_alpha 90.000000
_cell_angle_beta 90.000000
_cell_angle_gamma 90.000000
_cell_volume 4079.731678
_symmetry_space_group_name_H-M "I M M A"
_symmetry_group_IT_number 74
_symmetry_cell_setting 'orthorhombic'
loop_
_space_group_symop_operation_xyz
x,y,z
-x,1/2-y,z
x,-y,-z
-x,1/2+y,-z
-x,-y,-z
x,1/2+y,-z
-x,y,z
x,1/2-y,z
1/2+x,1/2+y,1/2+z
1/2-x,-y,1/2+z
1/2+x,1/2-y,1/2-z
1/2-x,y,1/2-z
1/2-x,1/2-y,1/2-z
1/2+x,y,1/2-z
1/2-x,1/2+y,1/2+z
1/2+x,-y,1/2+z
loop_
_atom_site_type_symbol
_atom_site_label
_atom_site_fract_x
_atom_site_fract_y
_atom_site_fract_z
Si Si1 0.375948 0.470451 0.685687
Si Si2 0.500000 0.534133 0.083844
Si Si3 0.552118 0.964734 0.425773
Si Si4 0.689687 0.964397 0.081245
Si Si5 0.903096 0.029411 0.657866
Si Si6 0.706427 0.533631 0.417091
O O1 0.373810 0.250000 0.687121
O O2 0.418278 0.532270 0.637393
O O3 0.389746 0.525052 0.763458
O O4 0.330339 0.529388 0.641515
O O5 0.500000 0.750000 0.090898
O O6 0.452298 0.470064 0.122901
O O7 0.500000 0.500000 0.000000
O O8 0.500000 0.040590 0.427644
O O9 0.549044 0.750000 0.418420
O O10 0.575406 0.000000 0.500000
O O11 0.690614 0.750000 0.094891
O O12 0.642244 0.032643 0.115108
O O13 0.741284 0.034012 0.100668
O O14 0.685972 0.000000 0.000000
O O15 0.904934 0.250000 0.656985
O O16 0.696527 0.500000 0.500000
O O17 0.706800 0.750000 0.412187
#
# Coordination Sequence:
#
# PCOD9537563 Si02
#       6
#    16   8  16  16  16  16
#     4   9  17  28  44  68  94 118 150 191 227 265
#     4  10  20  34  54  74  93 120 154 192 231 274
#     4   9  17  28  44  64  86 116 151 187 224 264
#     4   9  17  30  48  69  92 119 152 189 229 273
#     4   9  18  30  47  72  95 118 151 192 234 272
#     4   9  17  29  47  69  93 123 155 188 225 267
#
# _framework density 21.570046999999999
#
# number of rings (size 3 to 8) (size 9 to 14) (size 15 to 20)
#    0.000    2.909    0.000    1.091    1.273    0.727 
#    0.000    3.636    0.000    4.364    0.000    5.091 
#    0.000    0.000    0.000    0.000    0.000    0.000 
#
# Total GULP energy -245161.581230 kJ/mol
# GULP energy per Si atom -5571.854119 kJ/mol
# Density = 2.152095 g / cm^3
# Si number density = 21.570047 Si / 1000 Ang^3
#
#
#
# Elastic Constant Matrix: (Units=GPa)
#
#
# Indices 1 2 3 4 5 6 
#
# 1 206.8801 9.0628 136.0490 0.0000 0.0000 0.0000
# 2 9.0628 71.2748 -2.6383 0.0000 0.0000 0.0000
# 3 136.0490 -2.6383 157.7877 0.0000 0.0000 0.0000
# 4 0.0000 0.0000 0.0000 18.3345 0.0000 0.0000
# 5 0.0000 0.0000 0.0000 0.0000 512.0114 0.0000
# 6 0.0000 0.0000 0.0000 0.0000 0.0000 -19.4534
#
#
#
# Elastic Compliance Matrix: (Units=1/GPa)
#
#
# Indices 1 2 3 4 5 6 
#
# 1 0.011393 -0.001813 -0.009854 0.000000 0.000000 0.000000
# 2 -0.001813 0.014328 0.001803 0.000000 0.000000 0.000000
# 3 -0.009854 0.001803 0.014864 0.000000 0.000000 0.000000
# 4 0.000000 0.000000 0.000000 0.054542 0.000000 0.000000
# 5 0.000000 0.000000 0.000000 0.000000 0.001953 0.000000
# 6 0.000000 0.000000 0.000000 0.000000 0.000000 -0.051405
#
#
# Mechanical properties :
#
#
# Convention : Reuss Voigt Hill
#
# Bulk Modulus (GPa) = 47.94665 80.09884 64.02275
# Shear Modulus (GPa) = 69.10283 121.74311 95.42297
#
# Velocity S-wave (km/s) = 5.66622 7.52086 6.65843
# Velocity P-wave (km/s) = 8.06751 10.61286 9.42649
#
# Compressibility (1/GPa) = 0.02085651
#
# Stress axis : x y z
#
# Youngs Moduli (GPa) = 87.77024 69.79566 67.27579
#
# Poissons Ratio (x) = 0.12657 0.66294
# Poissons Ratio (y) = 0.15917 -0.12131
# Poissons Ratio (z) = 0.86489 -0.12585
#
# Static dielectric constant tensor:
#      x y z
#    x 1.807030 0.000000 0.000000 
#    y 0.000000 1.710780 0.000000 
#    z 0.000000 0.000000 1.752640 
# 
# From -- ./inp_files/30995.got.cif
#   From: 2010.05.17/outbox.cif.g08.bks.cpg/sg74_16_cif.got.tgz:30995.got - 2010.06.03 17:57:02.
