data_PCOD9537770
_publ_section_title
;
Structure prediction by ZEFSAII (Michael W. Deem and Ramdas Pophale) SiO2 
 PCOD9537770
Probable space group: I M M A
;
_chemical_formula_sum "Si O2"
_cell_formula_units_Z 120
_cell_length_a 27.875200
_cell_length_b 7.651998
_cell_length_c 28.485751
_cell_angle_alpha 90.000000
_cell_angle_beta 90.000000
_cell_angle_gamma 90.000000
_cell_volume 6076.038452
_symmetry_space_group_name_H-M "I M M A"
_symmetry_group_IT_number 74
_symmetry_cell_setting 'orthorhombic'
loop_
_space_group_symop_operation_xyz
x,y,z
-x,1/2-y,z
x,-y,-z
-x,1/2+y,-z
-x,-y,-z
x,1/2+y,-z
-x,y,z
x,1/2-y,z
1/2+x,1/2+y,1/2+z
1/2-x,-y,1/2+z
1/2+x,1/2-y,1/2-z
1/2-x,y,1/2-z
1/2-x,1/2-y,1/2-z
1/2+x,y,1/2-z
1/2-x,1/2+y,1/2+z
1/2+x,-y,1/2+z
loop_
_atom_site_type_symbol
_atom_site_label
_atom_site_fract_x
_atom_site_fract_y
_atom_site_fract_z
Si Si1 0.852442 0.457206 0.856649
Si Si2 0.944473 0.460799 0.698849
Si Si3 0.796605 0.457256 0.054079
Si Si4 0.201866 0.040145 0.394255
Si Si5 0.596817 0.047035 0.102344
Si Si6 0.741920 0.539009 0.302923
Si Si7 0.500000 0.460501 0.054909
Si Si8 0.054308 0.036380 0.805910
O O1 0.853725 0.250000 0.847814
O O2 0.838009 0.482136 0.910581
O O3 0.807917 0.527268 0.825704
O O4 0.903877 0.525883 0.840267
O O5 0.941376 0.250000 0.696333
O O6 0.912062 0.537288 0.658107
O O7 0.933207 0.512527 0.752196
O O8 0.000000 0.510151 0.689761
O O9 0.794433 0.250000 0.058756
O O10 0.745784 0.528442 0.073980
O O11 0.803885 0.500000 0.000000
O O12 0.199968 0.250000 0.399579
O O13 0.149331 0.969621 0.407177
O O14 0.216700 0.004728 0.340379
O O15 0.598531 0.250000 0.087788
O O16 0.549148 0.969854 0.078268
O O17 0.739388 0.750000 0.300993
O O18 0.750000 0.475470 0.250000
O O19 0.500000 0.250000 0.062200
O O20 0.500000 0.500000 0.000000
O O21 0.052819 0.250000 0.806780
O O22 0.000000 0.977404 0.816235
#
# Coordination Sequence:
#
# PCOD9537770 Si02
#       8
#    16  16  16  16  16  16   8  16
#     4   9  17  31  51  75 104 136 168 203 247 297
#     4   9  17  29  48  74 101 133 173 209 241 286
#     4  10  20  36  56  76  99 127 165 211 256 304
#     4   9  20  35  50  71  99 131 167 206 252 306
#     4  10  20  35  51  70  98 132 166 208 260 308
#     4   9  18  30  46  72 103 135 170 206 246 292
#     4  10  22  38  54  70  94 126 166 216 265 310
#     4   8  15  28  48  76 107 137 169 205 243 285
#
# _framework density 19.749711999999999
#
# number of rings (size 3 to 8) (size 9 to 14) (size 15 to 20)
#    0.000    2.800    0.667    1.200    1.867    2.400 
#    0.000    0.667    0.000    1.600    0.000    0.000 
#    0.000    0.000    0.000    0.000    0.000    0.000 
#
# Total GULP energy -334642.582520 kJ/mol
# GULP energy per Si atom -5577.376375 kJ/mol
# Density = 1.970476 g / cm^3
# Si number density = 19.749712 Si / 1000 Ang^3
#
#
#
# Elastic Constant Matrix: (Units=GPa)
#
#
# Indices 1 2 3 4 5 6 
#
# 1 138.4957 3.4964 74.1663 0.0000 0.0000 0.0000
# 2 3.4964 35.2874 -11.3069 0.0000 0.0000 0.0000
# 3 74.1663 -11.3069 114.5340 0.0000 0.0000 0.0000
# 4 0.0000 0.0000 0.0000 17.1065 0.0000 0.0000
# 5 0.0000 0.0000 0.0000 0.0000 14.5943 0.0000
# 6 0.0000 0.0000 0.0000 0.0000 0.0000 10.2336
#
#
#
# Elastic Compliance Matrix: (Units=1/GPa)
#
#
# Indices 1 2 3 4 5 6 
#
# 1 0.011488 -0.003637 -0.007798 0.000000 0.000000 0.000000
# 2 -0.003637 0.030416 0.005358 0.000000 0.000000 0.000000
# 3 -0.007798 0.005358 0.014310 0.000000 0.000000 0.000000
# 4 0.000000 0.000000 0.000000 0.058457 0.000000 0.000000
# 5 0.000000 0.000000 0.000000 0.000000 0.068520 0.000000
# 6 0.000000 0.000000 0.000000 0.000000 0.000000 0.097717
#
#
# Mechanical properties :
#
#
# Convention : Reuss Voigt Hill
#
# Bulk Modulus (GPa) = 22.69689 46.78098 34.73894
# Shear Modulus (GPa) = 16.24696 23.18430 19.71563
#
# Velocity S-wave (km/s) = 2.87129 3.42995 3.16298
# Velocity P-wave (km/s) = 4.74443 6.27888 5.56480
#
# Compressibility (1/GPa) = 0.04405889
#
# Stress axis : x y z
#
# Youngs Moduli (GPa) = 87.04457 32.87760 69.88241
#
# Poissons Ratio (x) = 0.11958 0.54497
# Poissons Ratio (y) = 0.31659 -0.37442
# Poissons Ratio (z) = 0.67880 -0.17615
#
# Static dielectric constant tensor:
#      x y z
#    x 1.721540 0.000000 0.000000 
#    y 0.000000 1.734470 0.000000 
#    z 0.000000 0.000000 1.644410 
# 
# From -- ./inp_files/69058.got.cif
#   From: 2010.05.17/outbox.cif.g08.bks.cpg/sg74_35_cif.got.tgz:69058.got - 2010.06.03 17:57:02.
