data_PCOD9537773
_publ_section_title
;
Structure prediction by ZEFSAII (Michael W. Deem and Ramdas Pophale) SiO2 
 PCOD9537773
Probable space group: I M M A
;
_chemical_formula_sum "Si O2"
_cell_formula_units_Z 80
_cell_length_a 25.718376
_cell_length_b 16.726748
_cell_length_c 10.502584
_cell_angle_alpha 90.000000
_cell_angle_beta 90.000000
_cell_angle_gamma 90.000000
_cell_volume 4518.051938
_symmetry_space_group_name_H-M "I M M A"
_symmetry_group_IT_number 74
_symmetry_cell_setting 'orthorhombic'
loop_
_space_group_symop_operation_xyz
x,y,z
-x,1/2-y,z
x,-y,-z
-x,1/2+y,-z
-x,-y,-z
x,1/2+y,-z
-x,y,z
x,1/2-y,z
1/2+x,1/2+y,1/2+z
1/2-x,-y,1/2+z
1/2+x,1/2-y,1/2-z
1/2-x,y,1/2-z
1/2-x,1/2-y,1/2-z
1/2+x,y,1/2-z
1/2-x,1/2+y,1/2+z
1/2+x,-y,1/2+z
loop_
_atom_site_type_symbol
_atom_site_label
_atom_site_fract_x
_atom_site_fract_y
_atom_site_fract_z
Si Si1 0.500000 0.841927 0.535437
Si Si2 0.112235 0.093990 0.021544
Si Si3 0.281701 0.846918 0.624608
Si Si4 0.781215 0.847444 0.375940
Si Si5 0.111964 0.846636 0.267524
Si Si6 0.500000 0.157262 0.773785
O O1 0.500000 0.750000 0.576979
O O2 0.445116 0.881690 0.571540
O O3 0.500000 0.842657 0.380610
O O4 0.159872 0.120789 0.110185
O O5 0.120432 0.133388 0.881513
O O6 0.113315 0.000000 0.000000
O O7 0.284766 0.750000 0.623083
O O8 0.250000 0.870925 0.750000
O O9 0.248591 0.873962 0.501683
O O10 0.781537 0.750000 0.379302
O O11 0.750000 0.871419 0.250000
O O12 0.840297 0.874183 0.353848
O O13 0.110019 0.750000 0.273513
O O14 0.055560 0.878777 0.309776
O O15 0.500000 0.250000 0.815928
#
# Coordination Sequence:
#
# PCOD9537773 Si02
#       6
#     8  16  16  16  16   8
#     4   9  17  31  53  74  99 134 172 212 264 314
#     4  11  20  31  47  77 107 134 167 217 268 315
#     4  10  20  35  52  71 101 141 183 220 255 306
#     4   9  15  26  49  72  89 122 171 219 257 293
#     4   9  15  27  47  69  94 127 171 210 255 304
#     4   7  12  21  39  68  93 113 146 204 251 287
#
# _framework density 17.706745999999999
#
# number of rings (size 3 to 8) (size 9 to 14) (size 15 to 20)
#    0.000    2.600    2.000    3.300    0.000    0.000 
#    3.600    0.000    0.000    1.200    0.000    5.600 
#    0.000    6.400    0.000    0.000    0.000    0.000 
#
# Total GULP energy -222795.192650 kJ/mol
# GULP energy per Si atom -5569.879816 kJ/mol
# Density = 1.766644 g / cm^3
# Si number density = 17.706746 Si / 1000 Ang^3
#
#
#
# Elastic Constant Matrix: (Units=GPa)
#
#
# Indices 1 2 3 4 5 6 
#
# 1 210.8485 34.6248 66.1137 0.0000 0.0000 0.0000
# 2 34.6248 29.9370 12.8275 0.0000 0.0000 0.0000
# 3 66.1137 12.8275 77.1203 0.0000 0.0000 0.0000
# 4 0.0000 0.0000 0.0000 1.9418 0.0000 0.0000
# 5 0.0000 0.0000 0.0000 0.0000 20.0409 0.0000
# 6 0.0000 0.0000 0.0000 0.0000 0.0000 8.6196
#
#
#
# Elastic Compliance Matrix: (Units=1/GPa)
#
#
# Indices 1 2 3 4 5 6 
#
# 1 0.007458 -0.006338 -0.005339 0.000000 0.000000 0.000000
# 2 -0.006338 0.041353 -0.001445 0.000000 0.000000 0.000000
# 3 -0.005339 -0.001445 0.017784 0.000000 0.000000 0.000000
# 4 0.000000 0.000000 0.000000 0.514977 0.000000 0.000000
# 5 0.000000 0.000000 0.000000 0.000000 0.049898 0.000000
# 6 0.000000 0.000000 0.000000 0.000000 0.000000 0.116014
#
#
# Mechanical properties :
#
#
# Convention : Reuss Voigt Hill
#
# Bulk Modulus (GPa) = 24.78263 60.55974 42.67118
# Shear Modulus (GPa) = 6.35181 19.74312 13.04747
#
# Velocity S-wave (km/s) = 1.89605 3.34279 2.71747
# Velocity P-wave (km/s) = 4.33819 7.01247 5.83072
#
# Compressibility (1/GPa) = 0.04035085
#
# Stress axis : x y z
#
# Youngs Moduli (GPa) = 134.09091 24.18221 56.22955
#
# Poissons Ratio (x) = 0.15326 0.30022
# Poissons Ratio (y) = 0.84982 0.08126
# Poissons Ratio (z) = 0.71593 0.03494
#
# Static dielectric constant tensor:
#      x y z
#    x 1.662920 0.000000 0.000000 
#    y 0.000000 1.593030 0.000000 
#    z 0.000000 0.000000 1.576740 
# 
# From -- ./inp_files/25130.got.cif
#   From: 2010.05.17/outbox.cif.g08.bks.cpg/sg74_13_cif.got.tgz:25130.got - 2010.06.03 17:57:02.
