data_PCOD9537678
_publ_section_title
;
Structure prediction by ZEFSAII (Michael W. Deem and Ramdas Pophale) SiO2 
 PCOD9537678
Probable space group: I M M A
;
_chemical_formula_sum "Si O2"
_cell_formula_units_Z 112
_cell_length_a 21.406163
_cell_length_b 17.761906
_cell_length_c 14.350989
_cell_angle_alpha 90.000000
_cell_angle_beta 90.000000
_cell_angle_gamma 90.000000
_cell_volume 5456.450592
_symmetry_space_group_name_H-M "I M M A"
_symmetry_group_IT_number 74
_symmetry_cell_setting 'orthorhombic'
loop_
_space_group_symop_operation_xyz
x,y,z
-x,1/2-y,z
x,-y,-z
-x,1/2+y,-z
-x,-y,-z
x,1/2+y,-z
-x,y,z
x,1/2-y,z
1/2+x,1/2+y,1/2+z
1/2-x,-y,1/2+z
1/2+x,1/2-y,1/2-z
1/2-x,y,1/2-z
1/2-x,1/2-y,1/2-z
1/2+x,y,1/2-z
1/2-x,1/2+y,1/2+z
1/2+x,-y,1/2+z
loop_
_atom_site_type_symbol
_atom_site_label
_atom_site_fract_x
_atom_site_fract_y
_atom_site_fract_z
Si Si1 0.570573 0.336916 0.640880
Si Si2 0.074410 0.619232 0.352164
Si Si3 0.428847 0.450996 0.176593
Si Si4 0.614796 0.166163 0.044912
Si Si5 0.641913 0.410791 0.486948
Si Si6 0.073573 0.835715 0.827824
Si Si7 0.249850 0.339244 0.360204
O O1 0.500000 0.368304 0.622040
O O2 0.570284 0.250000 0.612029
O O3 0.579403 0.343061 0.751579
O O4 0.627098 0.377320 0.588315
O O5 0.098054 0.533136 0.341006
O O6 0.111992 0.659340 0.434055
O O7 0.000000 0.619733 0.376799
O O8 0.500000 0.466226 0.206996
O O9 0.427439 0.400659 0.084525
O O10 0.399719 0.395388 0.253565
O O11 0.593023 0.250000 0.073142
O O12 0.682364 0.153506 0.090922
O O13 0.641005 0.500000 0.500000
O O14 0.585993 0.373871 0.426519
O O15 0.701364 0.383208 0.426533
O O16 0.098281 0.750000 0.821101
O O17 0.000000 0.830265 0.810200
O O18 0.264811 0.250000 0.362414
O O19 0.250000 0.361457 0.250000
#
# Coordination Sequence:
#
# PCOD9537678 Si02
#       7
#    16  16  16  16  16  16  16
#     4  10  21  38  60  85 117 159 199 233 276 337
#     4  10  21  37  57  85 123 162 197 237 286 343
#     4  10  20  34  55  86 121 153 189 240 300 353
#     4  11  22  36  58  85 113 152 199 245 295 353
#     4  12  24  38  59  88 118 151 192 240 294 351
#     4  10  20  35  58  88 121 156 195 243 297 352
#     4  10  23  44  66  85 110 148 195 248 304 358
#
# _framework density 20.526163
#
# number of rings (size 3 to 8) (size 9 to 14) (size 15 to 20)
#    0.000    1.571    0.000    5.143    0.000    9.143 
#    0.000    0.714    0.000    2.571    0.000    0.000 
#    0.000    0.000    0.000    0.000    0.000    0.000 
#
# Total GULP energy -312414.008398 kJ/mol
# GULP energy per Si atom -5578.821579 kJ/mol
# Density = 2.047944 g / cm^3
# Si number density = 20.526163 Si / 1000 Ang^3
#
#
#
# Elastic Constant Matrix: (Units=GPa)
#
#
# Indices 1 2 3 4 5 6 
#
# 1 68.4540 23.4937 32.8105 0.0000 0.0000 0.0000
# 2 23.4937 119.5086 22.1971 0.0000 0.0000 0.0000
# 3 32.8105 22.1971 108.1908 0.0000 0.0000 0.0000
# 4 0.0000 0.0000 0.0000 6.3440 0.0000 0.0000
# 5 0.0000 0.0000 0.0000 0.0000 35.8104 0.0000
# 6 0.0000 0.0000 0.0000 0.0000 0.0000 10.0956
#
#
#
# Elastic Compliance Matrix: (Units=1/GPa)
#
#
# Indices 1 2 3 4 5 6 
#
# 1 0.017838 -0.002601 -0.004876 0.000000 0.000000 0.000000
# 2 -0.002601 0.009078 -0.001074 0.000000 0.000000 0.000000
# 3 -0.004876 -0.001074 0.010942 0.000000 0.000000 0.000000
# 4 0.000000 0.000000 0.000000 0.157628 0.000000 0.000000
# 5 0.000000 0.000000 0.000000 0.000000 0.027925 0.000000
# 6 0.000000 0.000000 0.000000 0.000000 0.000000 0.099053
#
#
# Mechanical properties :
#
#
# Convention : Reuss Voigt Hill
#
# Bulk Modulus (GPa) = 48.17709 50.35066 49.26388
# Shear Modulus (GPa) = 14.43061 24.96013 19.69537
#
# Velocity S-wave (km/s) = 2.65436 3.49092 3.10098
# Velocity P-wave (km/s) = 5.73726 6.38999 6.07240
#
# Compressibility (1/GPa) = 0.02075675
#
# Stress axis : x y z
#
# Youngs Moduli (GPa) = 56.05951 110.15194 91.39122
#
# Poissons Ratio (x) = 0.28651 0.44563
# Poissons Ratio (y) = 0.14582 0.09813
# Poissons Ratio (z) = 0.27335 0.11828
#
# Static dielectric constant tensor:
#      x y z
#    x 1.765030 0.000000 0.000000 
#    y 0.000000 1.727590 0.000000 
#    z 0.000000 0.000000 1.792320 
# 
# From -- ./inp_files/36496.got.cif
#   From: 2010.05.17/outbox.cif.g08.bks.cpg/sg74_19_cif.got.tgz:36496.got - 2010.06.03 17:57:02.
