data_PCOD9537473
_publ_section_title
;
Structure prediction by ZEFSAII (Michael W. Deem and Ramdas Pophale) SiO2 
 PCOD9537473
Probable space group: I M M A
;
_chemical_formula_sum "Si O2"
_cell_formula_units_Z 120
_cell_length_a 28.757007
_cell_length_b 7.839942
_cell_length_c 26.591060
_cell_angle_alpha 90.000000
_cell_angle_beta 90.000000
_cell_angle_gamma 90.000000
_cell_volume 5995.041349
_symmetry_space_group_name_H-M "I M M A"
_symmetry_group_IT_number 74
_symmetry_cell_setting 'orthorhombic'
loop_
_space_group_symop_operation_xyz
x,y,z
-x,1/2-y,z
x,-y,-z
-x,1/2+y,-z
-x,-y,-z
x,1/2+y,-z
-x,y,z
x,1/2-y,z
1/2+x,1/2+y,1/2+z
1/2-x,-y,1/2+z
1/2+x,1/2-y,1/2-z
1/2-x,y,1/2-z
1/2-x,1/2-y,1/2-z
1/2+x,y,1/2-z
1/2-x,1/2+y,1/2+z
1/2+x,-y,1/2+z
loop_
_atom_site_type_symbol
_atom_site_label
_atom_site_fract_x
_atom_site_fract_y
_atom_site_fract_z
Si Si1 0.849273 0.953634 0.941517
Si Si2 0.448739 0.544462 0.753309
Si Si3 0.779907 0.047870 0.858333
Si Si4 0.950091 0.044302 0.059536
Si Si5 0.822986 0.044051 0.661511
Si Si6 0.077939 0.045874 0.365784
Si Si7 0.000000 0.955621 0.558358
Si Si8 0.150410 0.545108 0.226473
O O1 0.849042 0.750000 0.936862
O O2 0.899847 0.018045 0.921570
O O3 0.806309 0.023621 0.910448
O O4 0.846095 0.000000 0.000000
O O5 0.500000 0.485075 0.737181
O O6 0.449870 0.750000 0.754682
O O7 0.438758 0.482333 0.810643
O O8 0.403939 0.496904 0.720593
O O9 0.775926 0.250000 0.848698
O O10 0.727428 0.980172 0.855761
O O11 0.814752 0.976892 0.815767
O O12 0.950074 0.250000 0.064262
O O13 0.000000 0.981776 0.080177
O O14 0.950164 0.000000 0.000000
O O15 0.822327 0.250000 0.662391
O O16 0.833523 0.983454 0.718422
O O17 0.867686 0.993344 0.629011
O O18 0.072737 0.250000 0.363924
O O19 0.045008 0.982206 0.410369
O O20 0.000000 0.750000 0.560847
O O21 0.000000 0.000000 0.500000
O O22 0.153892 0.750000 0.226743
#
# Coordination Sequence:
#
# PCOD9537473 Si02
#       8
#    16  16  16  16  16  16   8  16
#     4  10  20  34  53  75  99 129 169 210 250 300
#     4   9  16  29  50  74 102 137 172 208 255 312
#     4  10  20  35  53  73 103 138 170 210 259 307
#     4   8  14  26  45  68  91 115 147 191 238 281
#     4   9  18  33  54  78 101 130 170 213 257 307
#     4   9  17  32  52  74 101 134 170 209 256 309
#     4  10  20  34  52  76 108 142 174 212 261 312
#     4   9  18  32  51  76 104 134 169 211 259 308
#
# _framework density 20.016542999999999
#
# number of rings (size 3 to 8) (size 9 to 14) (size 15 to 20)
#    0.000    2.800    0.667    0.800    0.000    4.000 
#    0.000    1.333    0.000    8.000    0.000    0.000 
#    0.000    0.000    0.000    0.000    0.000    0.000 
#
# Total GULP energy -334459.903313 kJ/mol
# GULP energy per Si atom -5574.331722 kJ/mol
# Density = 1.997098 g / cm^3
# Si number density = 20.016543 Si / 1000 Ang^3
#
#
#
# Elastic Constant Matrix: (Units=GPa)
#
#
# Indices 1 2 3 4 5 6 
#
# 1 220.4860 6.4719 65.4238 0.0000 0.0000 0.0000
# 2 6.4719 22.6667 -1.5052 0.0000 0.0000 0.0000
# 3 65.4238 -1.5052 60.8349 0.0000 0.0000 0.0000
# 4 0.0000 0.0000 0.0000 14.3194 0.0000 0.0000
# 5 0.0000 0.0000 0.0000 0.0000 17.5148 0.0000
# 6 0.0000 0.0000 0.0000 0.0000 0.0000 22.2600
#
#
#
# Elastic Compliance Matrix: (Units=1/GPa)
#
#
# Indices 1 2 3 4 5 6 
#
# 1 0.006792 -0.002428 -0.007364 0.000000 0.000000 0.000000
# 2 -0.002428 0.045058 0.003726 0.000000 0.000000 0.000000
# 3 -0.007364 0.003726 0.024450 0.000000 0.000000 0.000000
# 4 0.000000 0.000000 0.000000 0.069835 0.000000 0.000000
# 5 0.000000 0.000000 0.000000 0.000000 0.057095 0.000000
# 6 0.000000 0.000000 0.000000 0.000000 0.000000 0.044924
#
#
# Mechanical properties :
#
#
# Convention : Reuss Voigt Hill
#
# Bulk Modulus (GPa) = 15.58419 49.41874 32.50146
# Shear Modulus (GPa) = 17.75093 26.39198 22.07146
#
# Velocity S-wave (km/s) = 2.98117 3.63507 3.32424
# Velocity P-wave (km/s) = 4.43310 6.50852 5.56836
#
# Compressibility (1/GPa) = 0.06416761
#
# Stress axis : x y z
#
# Youngs Moduli (GPa) = 147.23441 22.19345 40.89989
#
# Poissons Ratio (x) = 0.05389 0.30120
# Poissons Ratio (y) = 0.35753 -0.15241
# Poissons Ratio (z) = 1.08428 -0.08270
#
# Static dielectric constant tensor:
#      x y z
#    x 1.747250 0.000000 0.000000 
#    y 0.000000 1.747220 0.000000 
#    z 0.000000 0.000000 1.690290 
# 
# From -- ./inp_files/68998.got.cif
#   From: 2010.05.17/outbox.cif.g08.bks.cpg/sg74_35_cif.got.tgz:68998.got - 2010.06.03 17:57:02.
