data_PCOD9537592
_publ_section_title
;
Structure prediction by ZEFSAII (Michael W. Deem and Ramdas Pophale) SiO2 
 PCOD9537592
Probable space group: I M M A
;
_chemical_formula_sum "Si O2"
_cell_formula_units_Z 60
_cell_length_a 15.642133
_cell_length_b 7.177843
_cell_length_c 21.822178
_cell_angle_alpha 90.000000
_cell_angle_beta 90.000000
_cell_angle_gamma 90.000000
_cell_volume 2450.123766
_symmetry_space_group_name_H-M "I M M A"
_symmetry_group_IT_number 74
_symmetry_cell_setting 'orthorhombic'
loop_
_space_group_symop_operation_xyz
x,y,z
-x,1/2-y,z
x,-y,-z
-x,1/2+y,-z
-x,-y,-z
x,1/2+y,-z
-x,y,z
x,1/2-y,z
1/2+x,1/2+y,1/2+z
1/2-x,-y,1/2+z
1/2+x,1/2-y,1/2-z
1/2-x,y,1/2-z
1/2-x,1/2-y,1/2-z
1/2+x,y,1/2-z
1/2-x,1/2+y,1/2+z
1/2+x,-y,1/2+z
loop_
_atom_site_type_symbol
_atom_site_label
_atom_site_fract_x
_atom_site_fract_y
_atom_site_fract_z
Si Si1 0.000000 0.029847 0.571874
Si Si2 0.138500 0.974344 0.103502
Si Si3 0.500000 0.250000 0.445412
Si Si4 0.403105 0.024994 0.744290
Si Si5 0.174667 0.023683 0.632591
O O1 0.911460 0.959681 0.599665
O O2 0.000000 0.250000 0.585746
O O3 0.000000 0.000000 0.500000
O O4 0.127906 0.750000 0.095861
O O5 0.115022 0.024312 0.174301
O O6 0.238000 0.028079 0.099241
O O7 0.074729 0.088505 0.061991
O O8 0.500000 0.967562 0.760604
O O9 0.401929 0.250000 0.745203
O O10 0.336702 0.965531 0.796451
O O11 0.176924 0.250000 0.633025
#
# Coordination Sequence:
#
# PCOD9537592 Si02
#       5
#     8  16   4  16  16
#     4  10  20  37  60  85 116 147 184 236 288 340
#     4  10  20  34  54  79 113 154 195 229 280 338
#     4  12  22  34  50  78 118 150 190 234 272 326
#     4   9  14  26  51  77 106 148 190 229 271 329
#     4   9  17  32  56  81 107 148 193 230 282 346
#
# _framework density 24.48856
#
# number of rings (size 3 to 8) (size 9 to 14) (size 15 to 20)
#    0.000    2.400    2.667    1.200    0.000    3.200 
#    2.400    2.667    2.933    0.000    0.000    0.933 
#    0.000    0.000    0.000    0.000    0.000    0.000 
#
# Total GULP energy -167303.814435 kJ/mol
# GULP energy per Si atom -5576.793814 kJ/mol
# Density = 2.443282 g / cm^3
# Si number density = 24.488560 Si / 1000 Ang^3
#
#
#
# Elastic Constant Matrix: (Units=GPa)
#
#
# Indices 1 2 3 4 5 6 
#
# 1 209.2514 43.0928 43.1480 0.0000 0.0000 0.0000
# 2 43.0928 150.8287 16.8540 0.0000 0.0000 0.0000
# 3 43.1480 16.8540 86.0787 0.0000 0.0000 0.0000
# 4 0.0000 0.0000 0.0000 -9.2386 0.0000 0.0000
# 5 0.0000 0.0000 0.0000 0.0000 32.9288 0.0000
# 6 0.0000 0.0000 0.0000 0.0000 0.0000 10.5479
#
#
#
# Elastic Compliance Matrix: (Units=1/GPa)
#
#
# Indices 1 2 3 4 5 6 
#
# 1 0.005571 -0.001308 -0.002537 0.000000 0.000000 0.000000
# 2 -0.001308 0.007086 -0.000732 0.000000 0.000000 0.000000
# 3 -0.002537 -0.000732 0.013032 0.000000 0.000000 0.000000
# 4 0.000000 0.000000 0.000000 -0.108242 0.000000 0.000000
# 5 0.000000 0.000000 0.000000 0.000000 0.030369 0.000000
# 6 0.000000 0.000000 0.000000 0.000000 0.000000 0.094805
#
#
# Mechanical properties :
#
#
# Convention : Reuss Voigt Hill
#
# Bulk Modulus (GPa) = 60.47366 72.48317 66.47842
# Shear Modulus (GPa) = 87.28107 29.71856 58.49982
#
# Velocity S-wave (km/s) = 5.97653 3.48741 4.89290
# Velocity P-wave (km/s) = 8.50726 6.77341 7.68936
#
# Compressibility (1/GPa) = 0.01653612
#
# Stress axis : x y z
#
# Youngs Moduli (GPa) = 179.48731 141.13158 76.73424
#
# Poissons Ratio (x) = 0.18465 0.19464
# Poissons Ratio (y) = 0.23483 0.05613
# Poissons Ratio (z) = 0.45528 0.10324
#
# Static dielectric constant tensor:
#      x y z
#    x 1.917960 0.000000 0.000000 
#    y 0.000000 1.984360 0.000000 
#    z 0.000000 0.000000 1.928240 
# 
# From -- ./inp_files/56327.got.cif
#   From: 2010.05.17/outbox.cif.g08.bks.cpg/sg74_29_cif.got.tgz:56327.got - 2010.06.03 17:57:02.
