data_PCOD9537072
_publ_section_title
;
Structure prediction by ZEFSAII (Michael W. Deem and Ramdas Pophale) SiO2 
 PCOD9537072
Probable space group: I M M A
;
_chemical_formula_sum "Si O2"
_cell_formula_units_Z 88
_cell_length_a 20.791808
_cell_length_b 9.132564
_cell_length_c 27.300835
_cell_angle_alpha 90.000000
_cell_angle_beta 90.000000
_cell_angle_gamma 90.000000
_cell_volume 5183.951272
_symmetry_space_group_name_H-M "I M M A"
_symmetry_group_IT_number 74
_symmetry_cell_setting 'orthorhombic'
loop_
_space_group_symop_operation_xyz
x,y,z
-x,1/2-y,z
x,-y,-z
-x,1/2+y,-z
-x,-y,-z
x,1/2+y,-z
-x,y,z
x,1/2-y,z
1/2+x,1/2+y,1/2+z
1/2-x,-y,1/2+z
1/2+x,1/2-y,1/2-z
1/2-x,y,1/2-z
1/2-x,1/2-y,1/2-z
1/2+x,y,1/2-z
1/2-x,1/2+y,1/2+z
1/2+x,-y,1/2+z
loop_
_atom_site_type_symbol
_atom_site_label
_atom_site_fract_x
_atom_site_fract_y
_atom_site_fract_z
Si Si1 0.641252 0.926002 0.053521
Si Si2 0.000000 0.925031 0.446904
Si Si3 0.500000 0.417744 0.668966
Si Si4 0.731274 0.426034 0.131720
Si Si5 0.500000 0.416797 0.788254
Si Si6 0.631238 0.425815 0.329644
Si Si7 0.630379 0.075508 0.215266
O O1 0.646341 0.750000 0.049552
O O2 0.569696 0.962773 0.075084
O O3 0.695894 0.991312 0.088041
O O4 0.645071 0.000000 0.000000
O O5 0.000000 0.750000 0.453100
O O6 0.000000 0.000000 0.500000
O O7 0.500000 0.250000 0.652840
O O8 0.500000 0.418741 0.728632
O O9 0.565317 0.498846 0.653899
O O10 0.728277 0.250000 0.124065
O O11 0.805316 0.467459 0.140352
O O12 0.690629 0.458606 0.180947
O O13 0.500000 0.250000 0.805814
O O14 0.434376 0.496724 0.802477
O O15 0.624020 0.250000 0.332089
O O16 0.642060 0.463417 0.272158
O O17 0.619730 0.250000 0.213546
#
# Coordination Sequence:
#
# PCOD9537072 Si02
#       7
#    16   8   8  16   8  16  16
#     4  10  20  35  53  72  96 126 161 201 243 285
#     4   8  16  31  50  69  89 119 158 197 236 277
#     4   9  17  29  46  68  94 124 160 200 238 279
#     4  10  20  32  48  72  98 125 160 200 242 286
#     4   9  17  28  42  63  93 129 166 203 240 276
#     4   9  17  31  50  70  95 128 163 197 235 282
#     4   9  17  30  47  67  94 129 166 201 236 278
#
# _framework density 16.975467999999999
#
# number of rings (size 3 to 8) (size 9 to 14) (size 15 to 20)
#    0.000    2.727    0.000    1.636    0.000    7.273 
#    0.000    1.818    0.000    5.455    0.000    0.636 
#    0.000    0.000    0.000    0.000    0.000    0.000 
#
# Total GULP energy -245283.580806 kJ/mol
# GULP energy per Si atom -5574.626837 kJ/mol
# Density = 1.693683 g / cm^3
# Si number density = 16.975468 Si / 1000 Ang^3
#
#
#
# Elastic Constant Matrix: (Units=GPa)
#
#
# Indices 1 2 3 4 5 6 
#
# 1 187.4475 66.8116 59.1626 0.0000 0.0000 0.0000
# 2 66.8116 39.1117 31.8673 0.0000 0.0000 0.0000
# 3 59.1626 31.8673 57.3396 0.0000 0.0000 0.0000
# 4 0.0000 0.0000 0.0000 19.2250 0.0000 0.0000
# 5 0.0000 0.0000 0.0000 0.0000 -9.3213 0.0000
# 6 0.0000 0.0000 0.0000 0.0000 0.0000 19.2848
#
#
#
# Elastic Compliance Matrix: (Units=1/GPa)
#
#
# Indices 1 2 3 4 5 6 
#
# 1 0.013773 -0.021837 -0.002075 0.000000 0.000000 0.000000
# 2 -0.021837 0.081349 -0.022680 0.000000 0.000000 0.000000
# 3 -0.002075 -0.022680 0.032185 0.000000 0.000000 0.000000
# 4 0.000000 0.000000 0.000000 0.052016 0.000000 0.000000
# 5 0.000000 0.000000 0.000000 0.000000 -0.107281 0.000000
# 6 0.000000 0.000000 0.000000 0.000000 0.000000 0.051854
#
#
# Mechanical properties :
#
#
# Convention : Reuss Voigt Hill
#
# Bulk Modulus (GPa) = 29.30433 66.62020 47.96226
# Shear Modulus (GPa) = 21.88631 14.24153 18.06392
#
# Velocity S-wave (km/s) = 3.59456 2.89960 3.26562
# Velocity P-wave (km/s) = 5.87606 7.10918 6.52183
#
# Compressibility (1/GPa) = 0.03412465
#
# Stress axis : x y z
#
# Youngs Moduli (GPa) = 72.60615 12.29268 31.07024
#
# Poissons Ratio (x) = 0.26843 0.06446
# Poissons Ratio (y) = 1.58550 0.70467
# Poissons Ratio (z) = 0.15063 0.27879
#
# Static dielectric constant tensor:
#      x y z
#    x 1.576270 0.000000 0.000000 
#    y 0.000000 1.567200 0.000000 
#    z 0.000000 0.000000 1.554840 
# 
# From -- ./inp_files/73022.got.cif
#   From: 2010.05.17/outbox.cif.g08.bks.cpg/sg74_37_cif.got.tgz:73022.got - 2010.06.03 17:57:02.
