data_PCOD9537565
_publ_section_title
;
Structure prediction by ZEFSAII (Michael W. Deem and Ramdas Pophale) SiO2 
 PCOD9537565
Probable space group: I M M A
;
_chemical_formula_sum "Si O2"
_cell_formula_units_Z 100
_cell_length_a 21.507634
_cell_length_b 7.369640
_cell_length_c 32.432471
_cell_angle_alpha 90.000000
_cell_angle_beta 90.000000
_cell_angle_gamma 90.000000
_cell_volume 5140.660810
_symmetry_space_group_name_H-M "I M M A"
_symmetry_group_IT_number 74
_symmetry_cell_setting 'orthorhombic'
loop_
_space_group_symop_operation_xyz
x,y,z
-x,1/2-y,z
x,-y,-z
-x,1/2+y,-z
-x,-y,-z
x,1/2+y,-z
-x,y,z
x,1/2-y,z
1/2+x,1/2+y,1/2+z
1/2-x,-y,1/2+z
1/2+x,1/2-y,1/2-z
1/2-x,y,1/2-z
1/2-x,1/2-y,1/2-z
1/2+x,y,1/2-z
1/2-x,1/2+y,1/2+z
1/2+x,-y,1/2+z
loop_
_atom_site_type_symbol
_atom_site_label
_atom_site_fract_x
_atom_site_fract_y
_atom_site_fract_z
Si Si1 0.876514 0.470462 0.340331
Si Si2 0.390234 0.528784 0.662373
Si Si3 0.567857 0.038138 0.927920
Si Si4 0.201259 0.035116 0.546131
Si Si5 0.000000 0.750000 0.141733
Si Si6 0.756861 0.457707 0.131283
Si Si7 0.929130 0.469225 0.252903
O O1 0.876158 0.250000 0.340875
O O2 0.919388 0.525777 0.378835
O O3 0.806449 0.536610 0.349394
O O4 0.901156 0.532063 0.296143
O O5 0.398954 0.750000 0.657318
O O6 0.445526 0.410244 0.643620
O O7 0.323876 0.471089 0.643759
O O8 0.391881 0.488579 0.711513
O O9 0.500000 0.959671 0.937923
O O10 0.565698 0.250000 0.939281
O O11 0.630676 0.961162 0.948230
O O12 0.198531 0.250000 0.553017
O O13 0.222961 0.000000 0.500000
O O14 0.244337 0.961022 0.582371
O O15 0.758215 0.250000 0.145804
O O16 0.931310 0.250000 0.255407
O O17 0.000000 0.533946 0.247545
#
# Coordination Sequence:
#
# PCOD9537565 Si02
#       7
#    16  16  16  16   4  16  16
#     4   9  17  30  50  74 101 144 187 226 268 314
#     4  10  21  37  56  82 115 143 180 230 271 323
#     4   9  18  32  46  68 103 144 182 225 276 312
#     4  10  20  34  54  76 105 136 175 223 266 324
#     4  12  22  36  60  84 110 144 190 220 276 330
#     4   9  19  35  55  79 109 138 175 218 271 326
#     4   9  16  29  48  72 105 141 185 229 268 310
#
# _framework density 19.452750999999999
#
# number of rings (size 3 to 8) (size 9 to 14) (size 15 to 20)
#    0.000    2.560    0.800    1.200    1.120    2.560 
#    1.440    3.200    0.000    0.960    0.000    0.560 
#    0.000    0.000    0.000    0.000    0.000    0.000 
#
# Total GULP energy -278338.198833 kJ/mol
# GULP energy per Si atom -5566.763977 kJ/mol
# Density = 1.940848 g / cm^3
# Si number density = 19.452751 Si / 1000 Ang^3
#
#
#
# Elastic Constant Matrix: (Units=GPa)
#
#
# Indices 1 2 3 4 5 6 
#
# 1 62.5282 -9.8614 43.3040 0.0000 0.0000 0.0000
# 2 -9.8614 81.8213 -13.5470 0.0000 0.0000 0.0000
# 3 43.3040 -13.5470 84.0587 0.0000 0.0000 0.0000
# 4 0.0000 0.0000 0.0000 -0.0398 0.0000 0.0000
# 5 0.0000 0.0000 0.0000 0.0000 1.9244 0.0000
# 6 0.0000 0.0000 0.0000 0.0000 0.0000 8.3255
#
#
#
# Elastic Compliance Matrix: (Units=1/GPa)
#
#
# Indices 1 2 3 4 5 6 
#
# 1 0.024928 0.000902 -0.012697 0.000000 0.000000 0.000000
# 2 0.000902 0.012589 0.001564 0.000000 0.000000 0.000000
# 3 -0.012697 0.001564 0.018689 0.000000 0.000000 0.000000
# 4 0.000000 0.000000 0.000000-25.099510 0.000000 0.000000
# 5 0.000000 0.000000 0.000000 0.000000 0.519641 0.000000
# 6 0.000000 0.000000 0.000000 0.000000 0.000000 0.120114
#
#
# Mechanical properties :
#
#
# Convention : Reuss Voigt Hill
#
# Bulk Modulus (GPa) = 27.97480 29.79992 28.88736
# Shear Modulus (GPa) = -0.20516 15.94285 7.86884
#
# Velocity S-wave (km/s) = -0.32511 2.86592 2.01343
# Velocity P-wave (km/s) = 3.77772 5.12871 4.50416
#
# Compressibility (1/GPa) = 0.03574646
#
# Stress axis : x y z
#
# Youngs Moduli (GPa) = 40.11525 79.43150 53.50628
#
# Poissons Ratio (x) = -0.07167 0.67935
# Poissons Ratio (y) = -0.03620 -0.08369
# Poissons Ratio (z) = 0.50933 -0.12424
#
# Static dielectric constant tensor:
#      x y z
#    x 1.681240 0.000000 0.000000 
#    y 0.000000 1.769990 0.000000 
#    z 0.000000 0.000000 1.658760 
# 
# From -- ./inp_files/73385.got.cif
#   From: 2010.05.17/outbox.cif.g08.bks.cpg/sg74_37_cif.got.tgz:73385.got - 2010.06.03 17:57:02.
