data_PCOD9537704
_publ_section_title
;
Structure prediction by ZEFSAII (Michael W. Deem and Ramdas Pophale) SiO2 
 PCOD9537704
Probable space group: I M M A
;
_chemical_formula_sum "Si O2"
_cell_formula_units_Z 120
_cell_length_a 31.530257
_cell_length_b 14.508787
_cell_length_c 14.233972
_cell_angle_alpha 90.000000
_cell_angle_beta 90.000000
_cell_angle_gamma 90.000000
_cell_volume 6511.555144
_symmetry_space_group_name_H-M "I M M A"
_symmetry_group_IT_number 74
_symmetry_cell_setting 'orthorhombic'
loop_
_space_group_symop_operation_xyz
x,y,z
-x,1/2-y,z
x,-y,-z
-x,1/2+y,-z
-x,-y,-z
x,1/2+y,-z
-x,y,z
x,1/2-y,z
1/2+x,1/2+y,1/2+z
1/2-x,-y,1/2+z
1/2+x,1/2-y,1/2-z
1/2-x,y,1/2-z
1/2-x,1/2-y,1/2-z
1/2+x,y,1/2-z
1/2-x,1/2+y,1/2+z
1/2+x,-y,1/2+z
loop_
_atom_site_type_symbol
_atom_site_label
_atom_site_fract_x
_atom_site_fract_y
_atom_site_fract_z
Si Si1 0.700554 0.147876 0.731509
Si Si2 0.641996 0.639384 0.683843
Si Si3 0.547880 0.152375 0.110324
Si Si4 0.405141 0.500000 0.000000
Si Si5 0.699920 0.141010 0.137780
Si Si6 0.841417 0.144098 0.567408
Si Si7 0.716057 0.971777 0.606757
Si Si8 0.547133 0.143628 0.335364
O O1 0.684831 0.250000 0.698843
O O2 0.750000 0.157100 0.750000
O O3 0.682020 0.128405 0.834543
O O4 0.698242 0.061598 0.661580
O O5 0.638675 0.750000 0.682623
O O6 0.661803 0.617437 0.788543
O O7 0.678631 0.603013 0.615522
O O8 0.595072 0.603517 0.652515
O O9 0.500000 0.155541 0.074450
O O10 0.569776 0.250000 0.086434
O O11 0.545946 0.147758 0.222215
O O12 0.568923 0.064051 0.068629
O O13 0.377588 0.569529 0.060561
O O14 0.710706 0.250000 0.153878
O O15 0.740836 0.074878 0.147396
O O16 0.685070 0.132767 0.029352
O O17 0.855981 0.250000 0.568474
O O18 0.724646 0.000000 0.500000
O O19 0.500000 0.104976 0.364381
O O20 0.547702 0.250000 0.370142
#
# Coordination Sequence:
#
# PCOD9537704 Si02
#       8
#    16  16  16   8  16  16  16  16
#     4  10  22  39  54  69 100 143 185 222 262 315
#     4  10  20  34  56  85 113 138 173 228 284 332
#     4   9  18  32  48  73 110 144 174 211 264 329
#     4  12  21  28  54  76 106 142 182 228 259 308
#     4  10  21  37  55  80 113 143 175 224 280 328
#     4  10  23  37  52  78 108 143 184 223 264 320
#     4  12  25  36  54  76 107 144 191 233 273 322
#     4   8  15  30  52  77 106 136 165 210 277 340
#
# _framework density 18.428778000000001
#
# number of rings (size 3 to 8) (size 9 to 14) (size 15 to 20)
#    0.000    2.000    0.000    4.600    6.533    5.333 
#    0.000    0.000    0.000    0.400    0.000    0.000 
#    0.000    0.533    0.000    0.000    0.000    0.267 
#
# Total GULP energy -334172.840640 kJ/mol
# GULP energy per Si atom -5569.547344 kJ/mol
# Density = 1.838683 g / cm^3
# Si number density = 18.428778 Si / 1000 Ang^3
#
#
#
# Elastic Constant Matrix: (Units=GPa)
#
#
# Indices 1 2 3 4 5 6 
#
# 1 95.5988 25.8003 0.2737 0.0000 0.0000 0.0000
# 2 25.8003 66.3095 16.7603 0.0000 0.0000 0.0000
# 3 0.2737 16.7603 41.0131 0.0000 0.0000 0.0000
# 4 0.0000 0.0000 0.0000 24.6840 0.0000 0.0000
# 5 0.0000 0.0000 0.0000 0.0000 20.0510 0.0000
# 6 0.0000 0.0000 0.0000 0.0000 0.0000 30.0989
#
#
#
# Elastic Compliance Matrix: (Units=1/GPa)
#
#
# Indices 1 2 3 4 5 6 
#
# 1 0.011834 -0.005113 0.002010 0.000000 0.000000 0.000000
# 2 -0.005113 0.019027 -0.007741 0.000000 0.000000 0.000000
# 3 0.002010 -0.007741 0.027533 0.000000 0.000000 0.000000
# 4 0.000000 0.000000 0.000000 0.040512 0.000000 0.000000
# 5 0.000000 0.000000 0.000000 0.000000 0.049873 0.000000
# 6 0.000000 0.000000 0.000000 0.000000 0.000000 0.033224
#
#
# Mechanical properties :
#
#
# Convention : Reuss Voigt Hill
#
# Bulk Modulus (GPa) = 27.24320 32.06558 29.65439
# Shear Modulus (GPa) = 23.15614 25.63927 24.39770
#
# Velocity S-wave (km/s) = 3.54859 3.73401 3.64248
# Velocity P-wave (km/s) = 5.62184 6.00233 5.81519
#
# Compressibility (1/GPa) = 0.03670640
#
# Stress axis : x y z
#
# Youngs Moduli (GPa) = 84.49885 52.55733 36.32058
#
# Poissons Ratio (x) = 0.26872 -0.07302
# Poissons Ratio (y) = 0.43203 0.28117
# Poissons Ratio (z) = -0.16988 0.40686
#
# Static dielectric constant tensor:
#      x y z
#    x 1.651770 0.000000 0.000000 
#    y 0.000000 1.701650 0.000000 
#    z 0.000000 0.000000 1.604120 
# 
# From -- ./inp_files/38009.got.cif
#   From: 2010.05.17/outbox.cif.g08.bks.cpg/sg74_20_cif.got.tgz:38009.got - 2010.06.03 17:57:02.
