data_PCOD9537891
_publ_section_title
;
Structure prediction by ZEFSAII (Michael W. Deem and Ramdas Pophale) SiO2 
 PCOD9537891
Probable space group: I M M A
;
_chemical_formula_sum "Si O2"
_cell_formula_units_Z 96
_cell_length_a 24.082336
_cell_length_b 8.645308
_cell_length_c 26.226408
_cell_angle_alpha 90.000000
_cell_angle_beta 90.000000
_cell_angle_gamma 90.000000
_cell_volume 5460.317481
_symmetry_space_group_name_H-M "I M M A"
_symmetry_group_IT_number 74
_symmetry_cell_setting 'orthorhombic'
loop_
_space_group_symop_operation_xyz
x,y,z
-x,1/2-y,z
x,-y,-z
-x,1/2+y,-z
-x,-y,-z
x,1/2+y,-z
-x,y,z
x,1/2-y,z
1/2+x,1/2+y,1/2+z
1/2-x,-y,1/2+z
1/2+x,1/2-y,1/2-z
1/2-x,y,1/2-z
1/2-x,1/2-y,1/2-z
1/2+x,y,1/2-z
1/2-x,1/2+y,1/2+z
1/2+x,-y,1/2+z
loop_
_atom_site_type_symbol
_atom_site_label
_atom_site_fract_x
_atom_site_fract_y
_atom_site_fract_z
Si Si1 0.687153 0.436472 0.944515
Si Si2 0.879900 0.437274 0.654504
Si Si3 0.315006 0.564983 0.748201
Si Si4 0.384255 0.564341 0.346211
Si Si5 0.000000 0.936629 0.306799
Si Si6 0.684767 0.563477 0.444447
Si Si7 0.000000 0.565800 0.808374
O O1 0.686221 0.250000 0.946437
O O2 0.646681 0.486960 0.899117
O O3 0.751186 0.484207 0.933853
O O4 0.671754 0.500000 0.000000
O O5 0.876510 0.250000 0.656996
O O6 0.844541 0.506272 0.700733
O O7 0.943906 0.481421 0.663746
O O8 0.320718 0.750000 0.744234
O O9 0.250000 0.525547 0.750000
O O10 0.344874 0.487738 0.700091
O O11 0.388243 0.750000 0.346198
O O12 0.355853 0.513333 0.399153
O O13 0.444744 0.495024 0.335916
O O14 0.000000 0.750000 0.301619
O O15 0.000000 0.005258 0.249948
O O16 0.669404 0.500000 0.500000
O O17 0.683955 0.750000 0.446135
O O18 0.000000 0.750000 0.807547
#
# Coordination Sequence:
#
# PCOD9537891 Si02
#       7
#    16  16  16  16   8  16   8
#     4   9  18  34  55  81 110 145 184 228 280 332
#     4  10  20  35  56  79 108 145 190 232 275 333
#     4  11  23  35  51  81 116 145 178 228 287 336
#     4  11  22  38  59  82 110 147 190 229 274 336
#     4  10  20  36  57  80 106 148 192 230 274 327
#     4   9  19  35  57  82 109 142 183 228 278 333
#     4  12  24  38  57  82 113 148 186 232 281 333
#
# _framework density 17.581395000000001
#
# number of rings (size 3 to 8) (size 9 to 14) (size 15 to 20)
#    0.000    1.833    1.667    2.750    0.000    4.667 
#    0.000    4.167    0.000    0.000    0.000    0.000 
#    0.000    0.000    0.000    0.000    0.000    0.000 
#
# Total GULP energy -268064.168105 kJ/mol
# GULP energy per Si atom -5584.670169 kJ/mol
# Density = 1.754138 g / cm^3
# Si number density = 17.581395 Si / 1000 Ang^3
#
#
#
# Elastic Constant Matrix: (Units=GPa)
#
#
# Indices 1 2 3 4 5 6 
#
# 1 167.4452 46.2920 117.9037 0.0000 0.0000 0.0000
# 2 46.2920 24.9618 37.5481 0.0000 0.0000 0.0000
# 3 117.9037 37.5481 182.1781 0.0000 0.0000 0.0000
# 4 0.0000 0.0000 0.0000 29.9678 0.0000 0.0000
# 5 0.0000 0.0000 0.0000 0.0000 5.1181 0.0000
# 6 0.0000 0.0000 0.0000 0.0000 0.0000 11.9081
#
#
#
# Elastic Compliance Matrix: (Units=1/GPa)
#
#
# Indices 1 2 3 4 5 6 
#
# 1 0.015858 -0.020249 -0.006090 0.000000 0.000000 0.000000
# 2 -0.020249 0.083917 -0.004191 0.000000 0.000000 0.000000
# 3 -0.006090 -0.004191 0.010294 0.000000 0.000000 0.000000
# 4 0.000000 0.000000 0.000000 0.033369 0.000000 0.000000
# 5 0.000000 0.000000 0.000000 0.000000 0.195384 0.000000
# 6 0.000000 0.000000 0.000000 0.000000 0.000000 0.083976
#
#
# Mechanical properties :
#
#
# Convention : Reuss Voigt Hill
#
# Bulk Modulus (GPa) = 20.40392 86.45253 53.42822
# Shear Modulus (GPa) = 9.99610 20.92155 15.45882
#
# Velocity S-wave (km/s) = 2.38704 3.45335 2.96847
# Velocity P-wave (km/s) = 4.38496 8.07344 6.49647
#
# Compressibility (1/GPa) = 0.04901020
#
# Stress axis : x y z
#
# Youngs Moduli (GPa) = 63.05925 11.91651 97.14188
#
# Poissons Ratio (x) = 0.24129 0.59157
# Poissons Ratio (y) = 1.27687 0.40714
# Poissons Ratio (z) = 0.38402 0.04994
#
# Static dielectric constant tensor:
#      x y z
#    x 1.592400 0.000000 0.000000 
#    y 0.000000 1.596170 0.000000 
#    z 0.000000 0.000000 1.566160 
# 
# From -- ./inp_files/57371.got.cif
#   From: 2010.05.17/outbox.cif.g08.bks.cpg/sg74_29_cif.got.tgz:57371.got - 2010.06.03 17:57:02.
