data_PCOD9537731
_publ_section_title
;
Structure prediction by ZEFSAII (Michael W. Deem and Ramdas Pophale) SiO2 
 PCOD9537731
Probable space group: I M M A
;
_chemical_formula_sum "Si O2"
_cell_formula_units_Z 116
_cell_length_a 26.024934
_cell_length_b 14.764556
_cell_length_c 13.499644
_cell_angle_alpha 90.000000
_cell_angle_beta 90.000000
_cell_angle_gamma 90.000000
_cell_volume 5187.192247
_symmetry_space_group_name_H-M "I M M A"
_symmetry_group_IT_number 74
_symmetry_cell_setting 'orthorhombic'
loop_
_space_group_symop_operation_xyz
x,y,z
-x,1/2-y,z
x,-y,-z
-x,1/2+y,-z
-x,-y,-z
x,1/2+y,-z
-x,y,z
x,1/2-y,z
1/2+x,1/2+y,1/2+z
1/2-x,-y,1/2+z
1/2+x,1/2-y,1/2-z
1/2-x,y,1/2-z
1/2-x,1/2-y,1/2-z
1/2+x,y,1/2-z
1/2-x,1/2+y,1/2+z
1/2+x,-y,1/2+z
loop_
_atom_site_type_symbol
_atom_site_label
_atom_site_fract_x
_atom_site_fract_y
_atom_site_fract_z
Si Si1 0.799364 0.360045 0.504029
Si Si2 0.918725 0.357579 0.008883
Si Si3 0.807833 0.139589 0.081716
Si Si4 0.921673 0.592514 0.206297
Si Si5 0.309405 0.640020 0.225549
Si Si6 0.333171 0.852152 0.794555
Si Si7 0.554738 0.610292 0.731513
Si Si8 0.500000 0.250000 0.763088
O O1 0.802777 0.250000 0.507221
O O2 0.740228 0.385126 0.484710
O O3 0.818154 0.388715 0.611264
O O4 0.826031 0.392787 0.403078
O O5 0.920510 0.250000 0.986360
O O6 0.860544 0.387184 0.030957
O O7 0.945614 0.372431 0.113446
O O8 0.936816 0.405798 0.910073
O O9 0.809232 0.250000 0.087867
O O10 0.807607 0.105911 0.195780
O O11 0.859837 0.606541 0.215378
O O12 0.937166 0.495910 0.248454
O O13 0.954542 0.671212 0.256881
O O14 0.310109 0.750000 0.234961
O O15 0.250000 0.613301 0.250000
O O16 0.311253 0.750000 0.801437
O O17 0.393357 0.846172 0.771315
O O18 0.500000 0.640621 0.772907
#
# Coordination Sequence:
#
# PCOD9537731 Si02
#       8
#    16  16  16  16  16  16  16   4
#     4   9  16  29  56  84 114 150 197 235 286 345
#     4  10  20  34  57  87 121 152 188 230 281 354
#     4   8  14  27  50  85 115 148 183 229 279 342
#     4  12  23  40  58  86 117 151 201 238 291 344
#     4  10  20  36  61  89 117 151 194 249 293 343
#     4   9  18  34  55  83 116 153 191 235 289 353
#     4  11  24  37  56  81 115 151 192 246 295 339
#     4  12  24  40  64  80 108 170 200 242 272 352
#
# _framework density 22.362773000000001
#
# number of rings (size 3 to 8) (size 9 to 14) (size 15 to 20)
#    0.000    2.069    2.069    2.897    0.966    5.517 
#    0.000    3.448    1.517    0.828    0.000    0.000 
#    0.000    0.000    0.000    0.000    0.000    0.000 
#
# Total GULP energy -323337.099590 kJ/mol
# GULP energy per Si atom -5574.777579 kJ/mol
# Density = 2.231187 g / cm^3
# Si number density = 22.362773 Si / 1000 Ang^3
#
#
#
# Elastic Constant Matrix: (Units=GPa)
#
#
# Indices 1 2 3 4 5 6 
#
# 1 113.5617 -0.8815 2.8432 0.0000 0.0000 0.0000
# 2 -0.8815 80.7843 -3.9375 0.0000 0.0000 0.0000
# 3 2.8432 -3.9375 61.9197 0.0000 0.0000 0.0000
# 4 0.0000 0.0000 0.0000 -32.3821 0.0000 0.0000
# 5 0.0000 0.0000 0.0000 0.0000 0.4562 0.0000
# 6 0.0000 0.0000 0.0000 0.0000 0.0000 -108.3558
#
#
#
# Elastic Compliance Matrix: (Units=1/GPa)
#
#
# Indices 1 2 3 4 5 6 
#
# 1 0.008816 0.000077 -0.000400 0.000000 0.000000 0.000000
# 2 0.000077 0.012418 0.000786 0.000000 0.000000 0.000000
# 3 -0.000400 0.000786 0.016218 0.000000 0.000000 0.000000
# 4 0.000000 0.000000 0.000000 -0.030881 0.000000 0.000000
# 5 0.000000 0.000000 0.000000 0.000000 2.191911 0.000000
# 6 0.000000 0.000000 0.000000 0.000000 0.000000 -0.009229
#
#
# Mechanical properties :
#
#
# Convention : Reuss Voigt Hill
#
# Bulk Modulus (GPa) = 26.05639 28.03488 27.04564
# Shear Modulus (GPa) = 2.27157 -10.84023 -4.28433
#
# Velocity S-wave (km/s) = 1.00895 -2.20408 -1.38564
# Velocity P-wave (km/s) = 3.61030 2.46705 3.09198
#
# Compressibility (1/GPa) = 0.03837831
#
# Stress axis : x y z
#
# Youngs Moduli (GPa) = 113.42500 80.52959 61.65868
#
# Poissons Ratio (x) = -0.00618 0.02466
# Poissons Ratio (y) = -0.00870 -0.04847
# Poissons Ratio (z) = 0.04536 -0.06331
#
# Static dielectric constant tensor:
#      x y z
#    x 1.833490 0.000000 0.000000 
#    y 0.000000 1.879160 0.000000 
#    z 0.000000 0.000000 1.822390 
# 
# From -- ./inp_files/36725.got.cif
#   From: 2010.05.17/outbox.cif.g08.bks.cpg/sg74_19_cif.got.tgz:36725.got - 2010.06.03 17:57:02.
