data_PCOD9537470
_publ_section_title
;
Structure prediction by ZEFSAII (Michael W. Deem and Ramdas Pophale) SiO2 
 PCOD9537470
Probable space group: I M M A
;
_chemical_formula_sum "Si O2"
_cell_formula_units_Z 96
_cell_length_a 14.628391
_cell_length_b 11.017301
_cell_length_c 36.667819
_cell_angle_alpha 90.000000
_cell_angle_beta 90.000000
_cell_angle_gamma 90.000000
_cell_volume 5909.583232
_symmetry_space_group_name_H-M "I M M A"
_symmetry_group_IT_number 74
_symmetry_cell_setting 'orthorhombic'
loop_
_space_group_symop_operation_xyz
x,y,z
-x,1/2-y,z
x,-y,-z
-x,1/2+y,-z
-x,-y,-z
x,1/2+y,-z
-x,y,z
x,1/2-y,z
1/2+x,1/2+y,1/2+z
1/2-x,-y,1/2+z
1/2+x,1/2-y,1/2-z
1/2-x,y,1/2-z
1/2-x,1/2-y,1/2-z
1/2+x,y,1/2-z
1/2-x,1/2+y,1/2+z
1/2+x,-y,1/2+z
loop_
_atom_site_type_symbol
_atom_site_label
_atom_site_fract_x
_atom_site_fract_y
_atom_site_fract_z
Si Si1 0.895079 0.977325 0.191917
Si Si2 0.267018 0.250000 0.706572
Si Si3 0.107565 0.750000 0.354365
Si Si4 0.892831 0.011856 0.390978
Si Si5 0.101264 0.396112 0.270372
Si Si6 0.737704 0.890013 0.831310
Si Si7 0.389745 0.107194 0.027463
O O1 0.832384 0.861753 0.197449
O O2 0.000000 0.952538 0.182752
O O3 0.893206 0.050787 0.230061
O O4 0.837102 0.054482 0.163250
O O5 0.250000 0.250000 0.750000
O O6 0.177041 0.250000 0.680290
O O7 0.121956 0.629041 0.379050
O O8 0.000000 0.750000 0.342752
O O9 0.000000 0.037573 0.384448
O O10 0.828871 0.088979 0.364742
O O11 0.872926 0.052764 0.432202
O O12 0.106322 0.250000 0.268443
O O13 0.181736 0.442487 0.296388
O O14 0.000000 0.427884 0.285390
O O15 0.749899 0.750000 0.823454
O O16 0.500000 0.113428 0.022798
O O17 0.358267 0.250000 0.023538
O O18 0.356648 0.000000 0.000000
#
# Coordination Sequence:
#
# PCOD9537470 Si02
#       7
#    16   8   8  16  16  16  16
#     4  11  23  36  49  67  93 129 170 217 267 319
#     4  12  23  39  54  71  97 132 177 227 276 329
#     4  10  22  37  56  77 102 138 180 227 274 323
#     4  10  20  34  52  76 106 138 176 219 264 313
#     4   9  18  32  49  69  92 121 162 211 264 320
#     4  11  20  32  51  72  96 129 167 215 265 315
#     4   9  18  31  50  77 111 147 180 212 252 312
#
# _framework density 16.244800000000001
#
# number of rings (size 3 to 8) (size 9 to 14) (size 15 to 20)
#    0.000    1.833    1.667    3.250    1.167    4.667 
#    0.000    0.000    0.000    0.000    0.000    0.000 
#    0.000    0.667    0.000    1.500    0.000    0.333 
#
# Total GULP energy -267473.292827 kJ/mol
# GULP energy per Si atom -5572.360267 kJ/mol
# Density = 1.620783 g / cm^3
# Si number density = 16.244800 Si / 1000 Ang^3
#
#
#
# Elastic Constant Matrix: (Units=GPa)
#
#
# Indices 1 2 3 4 5 6 
#
# 1 94.8350 43.0060 32.6918 0.0000 0.0000 0.0000
# 2 43.0060 70.7460 22.1701 0.0000 0.0000 0.0000
# 3 32.6918 22.1701 66.9577 0.0000 0.0000 0.0000
# 4 0.0000 0.0000 0.0000 19.5476 0.0000 0.0000
# 5 0.0000 0.0000 0.0000 0.0000 9.3567 0.0000
# 6 0.0000 0.0000 0.0000 0.0000 0.0000 14.9202
#
#
#
# Elastic Compliance Matrix: (Units=1/GPa)
#
#
# Indices 1 2 3 4 5 6 
#
# 1 0.015990 -0.008116 -0.005120 0.000000 0.000000 0.000000
# 2 -0.008116 0.019891 -0.002623 0.000000 0.000000 0.000000
# 3 -0.005120 -0.002623 0.018303 0.000000 0.000000 0.000000
# 4 0.000000 0.000000 0.000000 0.051157 0.000000 0.000000
# 5 0.000000 0.000000 0.000000 0.000000 0.106876 0.000000
# 6 0.000000 0.000000 0.000000 0.000000 0.000000 0.067023
#
#
# Mechanical properties :
#
#
# Convention : Reuss Voigt Hill
#
# Bulk Modulus (GPa) = 44.51223 47.58607 46.04915
# Shear Modulus (GPa) = 15.70124 17.74296 16.72210
#
# Velocity S-wave (km/s) = 3.11229 3.30847 3.21188
# Velocity P-wave (km/s) = 6.35418 6.62958 6.49334
#
# Compressibility (1/GPa) = 0.02246574
#
# Stress axis : x y z
#
# Youngs Moduli (GPa) = 62.53951 50.27476 54.63531
#
# Poissons Ratio (x) = 0.40802 0.27972
# Poissons Ratio (y) = 0.50755 0.14333
# Poissons Ratio (z) = 0.32019 0.13189
#
# Static dielectric constant tensor:
#      x y z
#    x 1.557030 0.000000 0.000000 
#    y 0.000000 1.614710 0.000000 
#    z 0.000000 0.000000 1.538360 
# 
# From -- ./inp_files/72440.got.cif
#   From: 2010.05.17/outbox.cif.g08.bks.cpg/sg74_37_cif.got.tgz:72440.got - 2010.06.03 17:57:02.
