data_PCOD9537515
_publ_section_title
;
Structure prediction by ZEFSAII (Michael W. Deem and Ramdas Pophale) SiO2 
 PCOD9537515
Probable space group: I M M A
;
_chemical_formula_sum "Si O2"
_cell_formula_units_Z 96
_cell_length_a 10.392786
_cell_length_b 18.428192
_cell_length_c 29.735312
_cell_angle_alpha 90.000000
_cell_angle_beta 90.000000
_cell_angle_gamma 90.000000
_cell_volume 5694.914561
_symmetry_space_group_name_H-M "I M M A"
_symmetry_group_IT_number 74
_symmetry_cell_setting 'orthorhombic'
loop_
_space_group_symop_operation_xyz
x,y,z
-x,1/2-y,z
x,-y,-z
-x,1/2+y,-z
-x,-y,-z
x,1/2+y,-z
-x,y,z
x,1/2-y,z
1/2+x,1/2+y,1/2+z
1/2-x,-y,1/2+z
1/2+x,1/2-y,1/2-z
1/2-x,y,1/2-z
1/2-x,1/2-y,1/2-z
1/2+x,y,1/2-z
1/2-x,1/2+y,1/2+z
1/2+x,-y,1/2+z
loop_
_atom_site_type_symbol
_atom_site_label
_atom_site_fract_x
_atom_site_fract_y
_atom_site_fract_z
Si Si1 0.856138 0.336066 0.715351
Si Si2 0.350767 0.335385 0.963499
Si Si3 0.351570 0.919448 0.520943
Si Si4 0.648641 0.443357 0.373054
Si Si5 0.650324 0.163645 0.289777
Si Si6 0.146400 0.929791 0.373931
O O1 0.838405 0.250000 0.708308
O O2 0.750000 0.362574 0.750000
O O3 0.846840 0.376517 0.668392
O O4 0.000000 0.347179 0.733743
O O5 0.500000 0.345761 0.977692
O O6 0.332855 0.250000 0.954480
O O7 0.330849 0.382746 0.918637
O O8 0.250173 0.364877 0.999560
O O9 0.500000 0.901195 0.509388
O O10 0.340042 0.919031 0.574929
O O11 0.327471 0.000000 0.500000
O O12 0.500000 0.467680 0.367101
O O13 0.672780 0.381816 0.335439
O O14 0.749526 0.507908 0.367886
O O15 0.500000 0.151757 0.276457
O O16 0.665649 0.250000 0.298165
O O17 0.750000 0.143405 0.250000
O O18 0.000000 0.959189 0.376486
#
# Coordination Sequence:
#
# PCOD9537515 Si02
#       6
#    16  16  16  16  16  16
#     4   9  18  33  51  71  98 134 175 217 260 306
#     4  10  21  36  55  80 108 141 182 224 267 319
#     4  10  20  36  56  79 109 144 182 224 271 323
#     4  10  21  36  56  81 109 140 176 219 266 322
#     4   9  19  37  59  81 107 141 179 222 274 327
#     4  10  20  34  53  76 105 141 176 215 264 317
#
# _framework density 16.857144000000002
#
# number of rings (size 3 to 8) (size 9 to 14) (size 15 to 20)
#    0.000    2.333    1.667    0.500    0.000    6.000 
#    0.000    5.000    0.000    5.000    0.000    0.000 
#    0.000    0.000    0.000    0.000    0.000    0.000 
#
# Total GULP energy -267606.207671 kJ/mol
# GULP energy per Si atom -5575.129326 kJ/mol
# Density = 1.681878 g / cm^3
# Si number density = 16.857144 Si / 1000 Ang^3
#
#
#
# Elastic Constant Matrix: (Units=GPa)
#
#
# Indices 1 2 3 4 5 6 
#
# 1 116.9368 73.4931 77.9073 0.0000 0.0000 0.0000
# 2 73.4931 68.4725 45.5940 0.0000 0.0000 0.0000
# 3 77.9073 45.5940 103.6418 0.0000 0.0000 0.0000
# 4 0.0000 0.0000 0.0000 26.8911 0.0000 0.0000
# 5 0.0000 0.0000 0.0000 0.0000 33.2413 0.0000
# 6 0.0000 0.0000 0.0000 0.0000 0.0000 15.0974
#
#
#
# Elastic Compliance Matrix: (Units=1/GPa)
#
#
# Indices 1 2 3 4 5 6 
#
# 1 0.037591 -0.030452 -0.014861 0.000000 0.000000 0.000000
# 2 -0.030452 0.045323 0.002952 0.000000 0.000000 0.000000
# 3 -0.014861 0.002952 0.019521 0.000000 0.000000 0.000000
# 4 0.000000 0.000000 0.000000 0.037187 0.000000 0.000000
# 5 0.000000 0.000000 0.000000 0.000000 0.030083 0.000000
# 6 0.000000 0.000000 0.000000 0.000000 0.000000 0.066237
#
#
# Mechanical properties :
#
#
# Convention : Reuss Voigt Hill
#
# Bulk Modulus (GPa) = 56.45273 75.89331 66.17302
# Shear Modulus (GPa) = 15.31080 21.18306 18.24693
#
# Velocity S-wave (km/s) = 3.01702 3.54873 3.29362
# Velocity P-wave (km/s) = 6.76004 7.86832 7.33514
#
# Compressibility (1/GPa) = 0.01771394
#
# Stress axis : x y z
#
# Youngs Moduli (GPa) = 26.60234 22.06372 51.22769
#
# Poissons Ratio (x) = 0.67188 0.76127
# Poissons Ratio (y) = 0.81009 -0.15122
# Poissons Ratio (z) = 0.39533 -0.06513
#
# Static dielectric constant tensor:
#      x y z
#    x 1.575940 0.000000 0.000000 
#    y 0.000000 1.548660 0.000000 
#    z 0.000000 0.000000 1.550470 
# 
# From -- ./inp_files/64289.got.cif
#   From: 2010.05.17/outbox.cif.g08.bks.cpg/sg74_33_cif.got.tgz:64289.got - 2010.06.03 17:57:02.
