data_PCOD9537840
_publ_section_title
;
Structure prediction by ZEFSAII (Michael W. Deem and Ramdas Pophale) SiO2 
 PCOD9537840
Probable space group: I M M A
;
_chemical_formula_sum "Si O2"
_cell_formula_units_Z 112
_cell_length_a 14.326983
_cell_length_b 16.869576
_cell_length_c 24.139484
_cell_angle_alpha 90.000000
_cell_angle_beta 90.000000
_cell_angle_gamma 90.000000
_cell_volume 5834.274992
_symmetry_space_group_name_H-M "I M M A"
_symmetry_group_IT_number 74
_symmetry_cell_setting 'orthorhombic'
loop_
_space_group_symop_operation_xyz
x,y,z
-x,1/2-y,z
x,-y,-z
-x,1/2+y,-z
-x,-y,-z
x,1/2+y,-z
-x,y,z
x,1/2-y,z
1/2+x,1/2+y,1/2+z
1/2-x,-y,1/2+z
1/2+x,1/2-y,1/2-z
1/2-x,y,1/2-z
1/2-x,1/2-y,1/2-z
1/2+x,y,1/2-z
1/2-x,1/2+y,1/2+z
1/2+x,-y,1/2+z
loop_
_atom_site_type_symbol
_atom_site_label
_atom_site_fract_x
_atom_site_fract_y
_atom_site_fract_z
Si Si1 0.890858 0.076417 0.406487
Si Si2 0.891225 0.614018 0.388218
Si Si3 0.610145 0.027132 0.655258
Si Si4 0.729707 0.414091 0.192648
Si Si5 0.291677 0.661983 0.003278
Si Si6 0.110902 0.568327 0.273448
Si Si7 0.393437 0.416293 0.532032
O O1 0.832415 0.118611 0.357427
O O2 0.846828 0.100872 0.464695
O O3 0.000000 0.095994 0.404148
O O4 0.882280 0.981201 0.398333
O O5 0.830826 0.655615 0.434534
O O6 0.863766 0.626545 0.323807
O O7 0.000000 0.635362 0.395325
O O8 0.500000 0.005423 0.655287
O O9 0.677167 0.951979 0.665519
O O10 0.625993 0.084497 0.708533
O O11 0.630384 0.066516 0.596371
O O12 0.750000 0.367881 0.250000
O O13 0.667274 0.488043 0.214914
O O14 0.307263 0.750000 0.981595
O O15 0.183149 0.640209 0.005733
O O16 0.000000 0.553568 0.280643
O O17 0.389004 0.500000 0.500000
O O18 0.500000 0.387188 0.528970
#
# Coordination Sequence:
#
# PCOD9537840 Si02
#       7
#    16  16  16  16  16  16  16
#     4  10  20  35  55  78 104 135 172 213 257 307
#     4   9  17  31  52  75 101 134 173 217 261 306
#     4   9  16  26  45  74 103 129 163 210 261 311
#     4   9  15  25  46  75 106 132 158 201 255 306
#     4  12  24  35  50  73 104 140 174 213 262 313
#     4   8  14  25  44  72 101 129 163 210 265 310
#     4  10  20  35  56  78 100 131 172 217 261 306
#
# _framework density 19.196902000000001
#
# number of rings (size 3 to 8) (size 9 to 14) (size 15 to 20)
#    0.000    2.429    0.000    5.571    0.000    3.143 
#    0.000    0.000    0.000    2.143    0.000    4.000 
#    0.000    0.000    0.000    0.000    0.000    0.000 
#
# Total GULP energy -312042.649104 kJ/mol
# GULP energy per Si atom -5572.190163 kJ/mol
# Density = 1.915321 g / cm^3
# Si number density = 19.196902 Si / 1000 Ang^3
#
#
#
# Elastic Constant Matrix: (Units=GPa)
#
#
# Indices 1 2 3 4 5 6 
#
# 1 85.3187 12.6356 32.6294 0.0000 0.0000 0.0000
# 2 12.6356 13.3758 2.7114 0.0000 0.0000 0.0000
# 3 32.6294 2.7114 95.4668 0.0000 0.0000 0.0000
# 4 0.0000 0.0000 0.0000 -2.3328 0.0000 0.0000
# 5 0.0000 0.0000 0.0000 0.0000 32.0359 0.0000
# 6 0.0000 0.0000 0.0000 0.0000 0.0000 -0.2629
#
#
#
# Elastic Compliance Matrix: (Units=1/GPa)
#
#
# Indices 1 2 3 4 5 6 
#
# 1 0.015660 -0.013788 -0.004961 0.000000 0.000000 0.000000
# 2 -0.013788 0.087334 0.002232 0.000000 0.000000 0.000000
# 3 -0.004961 0.002232 0.012107 0.000000 0.000000 0.000000
# 4 0.000000 0.000000 0.000000 -0.428672 0.000000 0.000001
# 5 0.000000 0.000000 0.000000 0.000000 0.031215 0.000000
# 6 0.000000 0.000000 0.000000 0.000001 0.000000 -3.804267
#
#
# Mechanical properties :
#
#
# Convention : Reuss Voigt Hill
#
# Bulk Modulus (GPa) = 12.18500 32.23489 22.20995
# Shear Modulus (GPa) = -1.24186 15.63371 7.19593
#
# Velocity S-wave (km/s) = -0.80518 2.85684 1.93820
# Velocity P-wave (km/s) = 2.34451 5.26405 4.07474
#
# Compressibility (1/GPa) = 0.08206811
#
# Stress axis : x y z
#
# Youngs Moduli (GPa) = 63.85727 11.45029 82.59689
#
# Poissons Ratio (x) = 0.15787 0.40975
# Poissons Ratio (y) = 0.88045 -0.18436
# Poissons Ratio (z) = 0.31678 -0.02556
#
# Static dielectric constant tensor:
#      x y z
#    x 1.692680 0.000000 0.000000 
#    y 0.000000 1.649300 0.000000 
#    z 0.000000 0.000000 1.758880 
# 
# From -- ./inp_files/60151.got.cif
#   From: 2010.05.17/outbox.cif.g08.bks.cpg/sg74_31_cif.got.tgz:60151.got - 2010.06.03 17:57:02.
