data_PCOD9537750
_publ_section_title
;
Structure prediction by ZEFSAII (Michael W. Deem and Ramdas Pophale) SiO2 
 PCOD9537750
Probable space group: I M M A
;
_chemical_formula_sum "Si O2"
_cell_formula_units_Z 116
_cell_length_a 18.819717
_cell_length_b 25.654922
_cell_length_c 11.496959
_cell_angle_alpha 90.000000
_cell_angle_beta 90.000000
_cell_angle_gamma 90.000000
_cell_volume 5550.943024
_symmetry_space_group_name_H-M "I M M A"
_symmetry_group_IT_number 74
_symmetry_cell_setting 'orthorhombic'
loop_
_space_group_symop_operation_xyz
x,y,z
-x,1/2-y,z
x,-y,-z
-x,1/2+y,-z
-x,-y,-z
x,1/2+y,-z
-x,y,z
x,1/2-y,z
1/2+x,1/2+y,1/2+z
1/2-x,-y,1/2+z
1/2+x,1/2-y,1/2-z
1/2-x,y,1/2-z
1/2-x,1/2-y,1/2-z
1/2+x,y,1/2-z
1/2-x,1/2+y,1/2+z
1/2+x,-y,1/2+z
loop_
_atom_site_type_symbol
_atom_site_label
_atom_site_fract_x
_atom_site_fract_y
_atom_site_fract_z
Si Si1 0.169888 0.190784 0.203191
Si Si2 0.153798 0.606150 0.998506
Si Si3 0.080623 0.903582 0.220071
Si Si4 0.914539 0.049047 0.422762
Si Si5 0.881685 0.168542 0.456019
Si Si6 0.213428 0.637446 0.365031
Si Si7 0.416419 0.473887 0.334850
Si Si8 0.000000 0.750000 0.477031
O O1 0.159015 0.250000 0.162001
O O2 0.250000 0.185241 0.250000
O O3 0.157429 0.148985 0.102795
O O4 0.123569 0.182137 0.319906
O O5 0.128492 0.553435 0.935208
O O6 0.097879 0.623853 0.097482
O O7 0.228038 0.601326 0.069876
O O8 0.143185 0.889405 0.309347
O O9 0.000000 0.893944 0.262132
O O10 0.085968 0.964246 0.184121
O O11 0.896850 0.106854 0.463429
O O12 0.889723 0.046486 0.289771
O O13 0.000000 0.043703 0.419183
O O14 0.888369 0.000000 0.500000
O O15 0.810742 0.175797 0.532488
O O16 0.939278 0.204515 0.514551
O O17 0.250000 0.661050 0.250000
O O18 0.500000 0.460190 0.353843
#
# Coordination Sequence:
#
# PCOD9537750 Si02
#       8
#    16  16  16  16  16  16  16   4
#     4  11  23  42  69  94 127 172 219 273 354 426
#     4  11  21  40  64  97 133 172 224 284 343 405
#     4  10  22  42  67  95 134 189 232 278 335 406
#     4  10  20  34  59  96 135 182 220 266 331 405
#     4  12  22  43  66  98 140 167 223 285 343 409
#     4  10  24  43  66  93 134 179 228 279 336 404
#     4  10  20  36  63  97 135 178 227 272 333 408
#     4  12  28  40  70 108 126 174 222 300 352 394
#
# _framework density 20.897349999999999
#
# number of rings (size 3 to 8) (size 9 to 14) (size 15 to 20)
#    0.000    1.379    4.138    1.655    0.966    2.207 
#    1.241   13.448    4.552    0.000    0.000    0.000 
#    0.000    0.000    0.000    0.000    0.000    0.276 
#
# Total GULP energy -323002.577591 kJ/mol
# GULP energy per Si atom -5569.009958 kJ/mol
# Density = 2.084979 g / cm^3
# Si number density = 20.897350 Si / 1000 Ang^3
#
#
#
# Elastic Constant Matrix: (Units=GPa)
#
#
# Indices 1 2 3 4 5 6 
#
# 1 77.3698 10.6019 22.3731 0.0000 0.0000 0.0000
# 2 10.6019 85.9247 20.3025 0.0000 0.0000 0.0000
# 3 22.3731 20.3025 119.0029 0.0000 0.0000 0.0000
# 4 0.0000 0.0000 0.0000 22.1827 0.0000 0.0000
# 5 0.0000 0.0000 0.0000 0.0000 10.8013 0.0000
# 6 0.0000 0.0000 0.0000 0.0000 0.0000 41.6084
#
#
#
# Elastic Compliance Matrix: (Units=1/GPa)
#
#
# Indices 1 2 3 4 5 6 
#
# 1 0.013773 -0.001133 -0.002396 0.000000 0.000000 0.000000
# 2 -0.001133 0.012220 -0.001872 0.000000 0.000000 0.000000
# 3 -0.002396 -0.001872 0.009173 0.000000 0.000000 0.000000
# 4 0.000000 0.000000 0.000000 0.045080 0.000000 0.000000
# 5 0.000000 0.000000 0.000000 0.000000 0.092582 0.000000
# 6 0.000000 0.000000 0.000000 0.000000 0.000000 0.024034
#
#
# Mechanical properties :
#
#
# Convention : Reuss Voigt Hill
#
# Bulk Modulus (GPa) = 41.04406 43.20583 42.12495
# Shear Modulus (GPa) = 23.17118 30.18646 26.67882
#
# Velocity S-wave (km/s) = 3.33349 3.80480 3.57691
# Velocity P-wave (km/s) = 5.87364 6.32630 6.10417
#
# Compressibility (1/GPa) = 0.02436406
#
# Stress axis : x y z
#
# Youngs Moduli (GPa) = 72.60527 81.83175 109.01597
#
# Poissons Ratio (x) = 0.09274 0.26121
# Poissons Ratio (y) = 0.08228 0.20405
# Poissons Ratio (z) = 0.17397 0.15317
#
# Static dielectric constant tensor:
#      x y z
#    x 1.910940 0.000000 0.000000 
#    y 0.000000 1.742930 0.000000 
#    z 0.000000 0.000000 1.825700 
# 
# From -- ./inp_files/22816.got.cif
#   From: 2010.05.17/outbox.cif.g08.bks.cpg/sg74_12_cif.got.tgz:22816.got - 2010.06.03 17:57:02.
