data_PCOD9537488
_publ_section_title
;
Structure prediction by ZEFSAII (Michael W. Deem and Ramdas Pophale) SiO2 
 PCOD9537488
Probable space group: I M M A
;
_chemical_formula_sum "Si O2"
_cell_formula_units_Z 72
_cell_length_a 13.067900
_cell_length_b 14.523112
_cell_length_c 23.014971
_cell_angle_alpha 90.000000
_cell_angle_beta 90.000000
_cell_angle_gamma 90.000000
_cell_volume 4367.932527
_symmetry_space_group_name_H-M "I M M A"
_symmetry_group_IT_number 74
_symmetry_cell_setting 'orthorhombic'
loop_
_space_group_symop_operation_xyz
x,y,z
-x,1/2-y,z
x,-y,-z
-x,1/2+y,-z
-x,-y,-z
x,1/2+y,-z
-x,y,z
x,1/2-y,z
1/2+x,1/2+y,1/2+z
1/2-x,-y,1/2+z
1/2+x,1/2-y,1/2-z
1/2-x,y,1/2-z
1/2-x,1/2-y,1/2-z
1/2+x,y,1/2-z
1/2-x,1/2+y,1/2+z
1/2+x,-y,1/2+z
loop_
_atom_site_type_symbol
_atom_site_label
_atom_site_fract_x
_atom_site_fract_y
_atom_site_fract_z
Si Si1 0.621586 0.550160 0.840885
Si Si2 0.876146 0.250000 0.376587
Si Si3 0.619270 0.641605 0.354630
Si Si4 0.723545 0.439151 0.942883
Si Si5 0.250000 0.934424 0.250000
Si Si6 0.876680 0.750000 0.486899
O O1 0.500000 0.549313 0.833091
O O2 0.658509 0.655467 0.847216
O O3 0.650411 0.497500 0.900276
O O4 0.676536 0.497533 0.788926
O O5 0.849705 0.250000 0.444690
O O6 0.000000 0.250000 0.374368
O O7 0.500000 0.616470 0.348295
O O8 0.625205 0.750000 0.368394
O O9 0.675704 0.585034 0.405434
O O10 0.681506 0.623288 0.295176
O O11 0.669716 0.342638 0.959312
O O12 0.743535 0.500000 0.000000
O O13 0.000000 0.750000 0.481075
#
# Coordination Sequence:
#
# PCOD9537488 Si02
#       6
#    16   8  16  16   8   8
#     4  10  20  34  52  78 108 139 177 220 265 314
#     4   9  18  31  51  76 105 142 175 211 265 313
#     4  10  21  38  57  77 106 141 179 222 265 314
#     4  11  21  34  55  83 110 140 176 214 264 321
#     4  10  21  35  56  78 102 138 182 222 268 312
#     4  11  20  32  52  81 115 142 172 216 264 318
#
# _framework density 16.483771000000001
#
# number of rings (size 3 to 8) (size 9 to 14) (size 15 to 20)
#    0.000    1.778    3.333    1.667    0.000    1.778 
#    0.000    0.000    0.000    0.000    0.000    3.111 
#    0.000    0.000    0.000    0.000    0.000    0.000 
#
# Total GULP energy -200839.826607 kJ/mol
# GULP energy per Si atom -5578.884072 kJ/mol
# Density = 1.644625 g / cm^3
# Si number density = 16.483771 Si / 1000 Ang^3
#
#
#
# Elastic Constant Matrix: (Units=GPa)
#
#
# Indices 1 2 3 4 5 6 
#
# 1 101.6810 33.0800 40.2498 0.0000 0.0000 0.0000
# 2 33.0800 97.9830 28.6114 0.0000 0.0000 0.0000
# 3 40.2498 28.6114 92.6383 0.0000 0.0000 0.0000
# 4 0.0000 0.0000 0.0000 24.2590 0.0000 0.0000
# 5 0.0000 0.0000 0.0000 0.0000 12.5909 0.0000
# 6 0.0000 0.0000 0.0000 0.0000 0.0000 7.2707
#
#
#
# Elastic Compliance Matrix: (Units=1/GPa)
#
#
# Indices 1 2 3 4 5 6 
#
# 1 0.012593 -0.002917 -0.004570 0.000000 0.000000 0.000000
# 2 -0.002917 0.011893 -0.002406 0.000000 0.000000 0.000000
# 3 -0.004570 -0.002406 0.013524 0.000000 0.000000 0.000000
# 4 0.000000 0.000000 0.000000 0.041222 0.000000 0.000000
# 5 0.000000 0.000000 0.000000 0.000000 0.079422 0.000000
# 6 0.000000 0.000000 0.000000 0.000000 0.000000 0.137538
#
#
# Mechanical properties :
#
#
# Convention : Reuss Voigt Hill
#
# Bulk Modulus (GPa) = 54.87560 55.13162 55.00361
# Shear Modulus (GPa) = 15.52543 21.51488 18.52015
#
# Velocity S-wave (km/s) = 3.07231 3.61670 3.35556
# Velocity P-wave (km/s) = 6.77852 7.13858 6.96088
#
# Compressibility (1/GPa) = 0.01822303
#
# Stress axis : x y z
#
# Youngs Moduli (GPa) = 79.41032 84.08212 73.94523
#
# Poissons Ratio (x) = 0.24526 0.33797
# Poissons Ratio (y) = 0.23163 0.17790
# Poissons Ratio (z) = 0.36294 0.20229
#
# Static dielectric constant tensor:
#      x y z
#    x 1.531160 0.000000 0.000000 
#    y 0.000000 1.551530 0.000000 
#    z 0.000000 0.000000 1.537040 
# 
# From -- ./inp_files/58428.got.cif
#   From: 2010.05.17/outbox.cif.g08.bks.cpg/sg74_30_cif.got.tgz:58428.got - 2010.06.03 17:57:02.
