data_PCOD9537203
_publ_section_title
;
Structure prediction by ZEFSAII (Michael W. Deem and Ramdas Pophale) SiO2 
 PCOD9537203
Probable space group: I M M A
;
_chemical_formula_sum "Si O2"
_cell_formula_units_Z 80
_cell_length_a 14.972521
_cell_length_b 26.792589
_cell_length_c 11.754403
_cell_angle_alpha 90.000000
_cell_angle_beta 90.000000
_cell_angle_gamma 90.000000
_cell_volume 4715.309342
_symmetry_space_group_name_H-M "I M M A"
_symmetry_group_IT_number 74
_symmetry_cell_setting 'orthorhombic'
loop_
_space_group_symop_operation_xyz
x,y,z
-x,1/2-y,z
x,-y,-z
-x,1/2+y,-z
-x,-y,-z
x,1/2+y,-z
-x,y,z
x,1/2-y,z
1/2+x,1/2+y,1/2+z
1/2-x,-y,1/2+z
1/2+x,1/2-y,1/2-z
1/2-x,y,1/2-z
1/2-x,1/2-y,1/2-z
1/2+x,y,1/2-z
1/2-x,1/2+y,1/2+z
1/2+x,-y,1/2+z
loop_
_atom_site_type_symbol
_atom_site_label
_atom_site_fract_x
_atom_site_fract_y
_atom_site_fract_z
Si Si1 0.000000 0.441790 0.535550
Si Si2 0.303786 0.094557 0.010258
Si Si3 0.000000 0.089595 0.799113
Si Si4 0.160360 0.028503 0.888707
Si Si5 0.000000 0.804411 0.276284
Si Si6 0.250000 0.051452 0.250000
Si Si7 0.301277 0.192785 0.869816
O O1 0.000000 0.500000 0.500000
O O2 0.908887 0.416800 0.492034
O O3 0.000000 0.430582 0.670081
O O4 0.271634 0.083471 0.138422
O O5 0.252756 0.055012 0.927402
O O6 0.282629 0.149261 0.960321
O O7 0.910484 0.069211 0.854123
O O8 0.000000 0.148850 0.805421
O O9 0.173850 0.987463 0.790746
O O10 0.127023 0.000000 0.000000
O O11 0.091869 0.808395 0.346831
O O12 0.000000 0.750000 0.220412
O O13 0.277971 0.250000 0.902949
O O14 0.250000 0.182575 0.750000
#
# Coordination Sequence:
#
# PCOD9537203 Si02
#       7
#     8  16   8  16   8   8  16
#     4  12  22  31  53  82 104 142 184 217 260 327
#     4  11  21  37  55  78 110 146 181 226 275 314
#     4  12  19  32  54  77 106 145 177 218 269 325
#     4  10  21  34  50  74 110 145 181 219 268 325
#     4  10  20  33  49  79 108 133 173 225 273 313
#     4  10  22  36  51  74 109 146 180 228 264 320
#     4  10  20  35  56  81 108 140 180 228 279 325
#
# _framework density 16.966013
#
# number of rings (size 3 to 8) (size 9 to 14) (size 15 to 20)
#    0.000    1.400    2.000    5.700    1.400    0.000 
#    0.000    1.500    0.000    0.000    0.000    0.000 
#    0.000    0.000    0.000    0.000    0.000    0.000 
#
# Total GULP energy -223108.270906 kJ/mol
# GULP energy per Si atom -5577.706773 kJ/mol
# Density = 1.692740 g / cm^3
# Si number density = 16.966013 Si / 1000 Ang^3
#
#
#
# Elastic Constant Matrix: (Units=GPa)
#
#
# Indices 1 2 3 4 5 6 
#
# 1 75.4840 30.6596 32.7440 0.0000 0.0000 0.0000
# 2 30.6596 160.4649 69.7860 0.0000 0.0000 0.0000
# 3 32.7440 69.7860 82.0734 -0.0001 0.0000 0.0000
# 4 0.0000 0.0000 -0.0001 34.6278 0.0000 0.0000
# 5 0.0000 0.0000 0.0000 0.0000 13.4826 0.0000
# 6 0.0000 0.0000 0.0000 0.0000 0.0000 22.0381
#
#
#
# Elastic Compliance Matrix: (Units=1/GPa)
#
#
# Indices 1 2 3 4 5 6 
#
# 1 0.016041 -0.000447 -0.006020 0.000000 0.000000 0.000000
# 2 -0.000447 0.009901 -0.008240 0.000000 0.000000 0.000000
# 3 -0.006020 -0.008240 0.021593 0.000000 0.000000 0.000000
# 4 0.000000 0.000000 0.000000 0.028878 0.000000 0.000000
# 5 0.000000 0.000000 0.000000 0.000000 0.074170 0.000000
# 6 0.000000 0.000000 0.000000 0.000000 0.000000 0.045376
#
#
# Mechanical properties :
#
#
# Convention : Reuss Voigt Hill
#
# Bulk Modulus (GPa) = 55.18663 64.93352 60.06007
# Shear Modulus (GPa) = 21.60645 26.35187 23.97916
#
# Velocity S-wave (km/s) = 3.57250 3.94536 3.76355
# Velocity P-wave (km/s) = 7.04382 7.68832 7.37312
#
# Compressibility (1/GPa) = 0.01812033
#
# Stress axis : x y z
#
# Youngs Moduli (GPa) = 62.34196 100.99950 46.31237
#
# Poissons Ratio (x) = 0.04514 0.27878
# Poissons Ratio (y) = 0.02786 0.38163
# Poissons Ratio (z) = 0.37527 0.83228
#
# Static dielectric constant tensor:
#      x y z
#    x 1.600190 0.000000 0.000000 
#    y 0.000000 1.590630 0.000000 
#    z 0.000000 0.000000 1.560130 
# 
# From -- ./inp_files/20604.got.cif
#   From: 2010.05.17/outbox.cif.g08.bks.cpg/sg74_11_cif.got.tgz:20604.got - 2010.06.03 17:57:02.
