data_PCOD9537895
_publ_section_title
;
Structure prediction by ZEFSAII (Michael W. Deem and Ramdas Pophale) SiO2 
 PCOD9537895
Probable space group: I M M A
;
_chemical_formula_sum "Si O2"
_cell_formula_units_Z 104
_cell_length_a 21.448536
_cell_length_b 7.624764
_cell_length_c 30.750728
_cell_angle_alpha 90.000000
_cell_angle_beta 90.000000
_cell_angle_gamma 90.000000
_cell_volume 5028.974830
_symmetry_space_group_name_H-M "I M M A"
_symmetry_group_IT_number 74
_symmetry_cell_setting 'orthorhombic'
loop_
_space_group_symop_operation_xyz
x,y,z
-x,1/2-y,z
x,-y,-z
-x,1/2+y,-z
-x,-y,-z
x,1/2+y,-z
-x,y,z
x,1/2-y,z
1/2+x,1/2+y,1/2+z
1/2-x,-y,1/2+z
1/2+x,1/2-y,1/2-z
1/2-x,y,1/2-z
1/2-x,1/2-y,1/2-z
1/2+x,y,1/2-z
1/2-x,1/2+y,1/2+z
1/2+x,-y,1/2+z
loop_
_atom_site_type_symbol
_atom_site_label
_atom_site_fract_x
_atom_site_fract_y
_atom_site_fract_z
Si Si1 0.774067 0.045071 0.126794
Si Si2 0.070687 0.459948 0.453331
Si Si3 0.637061 0.461748 0.448683
Si Si4 0.000000 0.540262 0.948729
Si Si5 0.308599 0.956724 0.279063
Si Si6 0.070301 0.537979 0.723023
Si Si7 0.865778 0.034884 0.365518
O O1 0.764493 0.250000 0.116506
O O2 0.811512 0.971339 0.085448
O O3 0.705340 0.972296 0.136531
O O4 0.809738 0.032844 0.172457
O O5 0.100146 0.500000 0.500000
O O6 0.067343 0.250000 0.449737
O O7 0.106398 0.523890 0.411277
O O8 0.000000 0.530111 0.453558
O O9 0.647578 0.500000 0.500000
O O10 0.635689 0.250000 0.445563
O O11 0.567890 0.526365 0.434313
O O12 0.000000 0.750000 0.941892
O O13 0.000000 0.500000 0.000000
O O14 0.298205 0.750000 0.283860
O O15 0.250000 0.026680 0.250000
O O16 0.374094 0.986391 0.255204
O O17 0.068470 0.750000 0.722719
O O18 0.092687 0.478494 0.675210
O O19 0.000000 0.476469 0.733033
O O20 0.866240 0.250000 0.364251
#
# Coordination Sequence:
#
# PCOD9537895 Si02
#       7
#    16  16  16   8  16  16  16
#     4  10  20  35  56  80 106 141 184 225 269 322
#     4   9  17  30  47  69 100 136 173 215 264 317
#     4   9  18  32  52  77 105 138 176 220 270 321
#     4   8  14  28  48  70  98 132 170 212 256 310
#     4  11  23  39  58  81 113 150 183 223 282 337
#     4  10  20  36  61  87 107 138 186 234 277 324
#     4   9  17  31  53  77 102 135 178 224 267 316
#
# _framework density 20.680160000000001
#
# number of rings (size 3 to 8) (size 9 to 14) (size 15 to 20)
#    0.000    2.462    1.538    0.923    0.000    4.000 
#    1.385    1.538    0.000    1.846    0.000    0.000 
#    0.000    0.000    0.000    0.000    0.000    0.000 
#
# Total GULP energy -289984.474749 kJ/mol
# GULP energy per Si atom -5576.624514 kJ/mol
# Density = 2.063309 g / cm^3
# Si number density = 20.680160 Si / 1000 Ang^3
#
#
#
# Elastic Constant Matrix: (Units=GPa)
#
#
# Indices 1 2 3 4 5 6 
#
# 1 128.7145 -2.6656 56.3704 0.0000 0.0000 0.0000
# 2 -2.6656 40.2182 -14.2284 0.0000 0.0000 0.0000
# 3 56.3704 -14.2284 114.1509 0.0000 0.0000 0.0000
# 4 0.0000 0.0000 0.0000 18.0343 0.0000 0.0000
# 5 0.0000 0.0000 0.0000 0.0000 37.1968 0.0000
# 6 0.0000 0.0000 0.0000 0.0000 0.0000 81.4792
#
#
#
# Elastic Compliance Matrix: (Units=1/GPa)
#
#
# Indices 1 2 3 4 5 6 
#
# 1 0.009962 -0.001130 -0.005060 0.000000 0.000000 0.000000
# 2 -0.001130 0.026140 0.003816 0.000000 0.000000 0.000000
# 3 -0.005060 0.003816 0.011735 0.000000 0.000000 0.000000
# 4 0.000000 0.000000 0.000000 0.055450 0.000000 0.000000
# 5 0.000000 0.000000 0.000000 0.000000 0.026884 0.000000
# 6 0.000000 0.000000 0.000000 0.000000 0.000000 0.012273
#
#
# Mechanical properties :
#
#
# Convention : Reuss Voigt Hill
#
# Bulk Modulus (GPa) = 23.20820 40.22628 31.71724
# Shear Modulus (GPa) = 30.94940 43.58255 37.26597
#
# Velocity S-wave (km/s) = 3.87276 4.59569 4.24962
# Velocity P-wave (km/s) = 5.58967 6.90321 6.28087
#
# Compressibility (1/GPa) = 0.04308822
#
# Stress axis : x y z
#
# Youngs Moduli (GPa) = 100.38287 38.25621 85.21613
#
# Poissons Ratio (x) = 0.04323 0.43121
# Poissons Ratio (y) = 0.11343 -0.32520
# Poissons Ratio (z) = 0.50796 -0.14599
#
# Static dielectric constant tensor:
#      x y z
#    x 1.765400 0.000000 0.000000 
#    y 0.000000 1.804620 0.000000 
#    z 0.000000 0.000000 1.714320 
# 
# From -- ./inp_files/73350.got.cif
#   From: 2010.05.17/outbox.cif.g08.bks.cpg/sg74_37_cif.got.tgz:73350.got - 2010.06.03 17:57:02.
