data_PCOD9537319
_publ_section_title
;
Structure prediction by ZEFSAII (Michael W. Deem and Ramdas Pophale) SiO2 
 PCOD9537319
Probable space group: I M M A
;
_chemical_formula_sum "Si O2"
_cell_formula_units_Z 96
_cell_length_a 25.405888
_cell_length_b 18.732821
_cell_length_c 11.191326
_cell_angle_alpha 90.000000
_cell_angle_beta 90.000000
_cell_angle_gamma 90.000000
_cell_volume 5326.220101
_symmetry_space_group_name_H-M "I M M A"
_symmetry_group_IT_number 74
_symmetry_cell_setting 'orthorhombic'
loop_
_space_group_symop_operation_xyz
x,y,z
-x,1/2-y,z
x,-y,-z
-x,1/2+y,-z
-x,-y,-z
x,1/2+y,-z
-x,y,z
x,1/2-y,z
1/2+x,1/2+y,1/2+z
1/2-x,-y,1/2+z
1/2+x,1/2-y,1/2-z
1/2-x,y,1/2-z
1/2-x,1/2-y,1/2-z
1/2+x,y,1/2-z
1/2-x,1/2+y,1/2+z
1/2+x,-y,1/2+z
loop_
_atom_site_type_symbol
_atom_site_label
_atom_site_fract_x
_atom_site_fract_y
_atom_site_fract_z
Si Si1 0.610197 0.831930 0.260270
Si Si2 0.562299 0.082546 0.528464
Si Si3 0.282367 0.329469 0.588747
Si Si4 0.178487 0.590056 0.401940
Si Si5 0.644397 0.665430 0.631720
Si Si6 0.807558 0.939149 0.684475
O O1 0.590007 0.750000 0.259843
O O2 0.575554 0.886677 0.338942
O O3 0.666142 0.830770 0.329789
O O4 0.629100 0.859927 0.131230
O O5 0.500000 0.087310 0.508979
O O6 0.594762 0.133712 0.439457
O O7 0.578318 0.000000 0.500000
O O8 0.259643 0.250000 0.590587
O O9 0.235941 0.379691 0.626783
O O10 0.305583 0.343782 0.457296
O O11 0.186729 0.578056 0.543481
O O12 0.171887 0.520339 0.318847
O O13 0.638682 0.750000 0.654308
O O14 0.656987 0.617322 0.745201
O O15 0.750000 0.938083 0.750000
#
# Coordination Sequence:
#
# PCOD9537319 Si02
#       6
#    16  16  16  16  16  16
#     4  10  20  33  52  80 110 142 180 228 280 332
#     4  10  21  38  62  87 110 139 179 234 294 343
#     4   9  17  31  50  73 105 145 184 224 271 320
#     4  11  21  32  51  76 110 153 192 229 273 325
#     4  10  21  36  55  80 111 149 190 234 279 331
#     4  11  22  35  50  76 112 155 197 229 272 325
#
# _framework density 18.024038999999998
#
# number of rings (size 3 to 8) (size 9 to 14) (size 15 to 20)
#    0.000    1.833    1.667    4.500    0.000    5.667 
#    0.000    0.000    0.000    1.000    0.000    7.000 
#    0.000    0.000    0.000    0.000    0.000    0.000 
#
# Total GULP energy -267297.286339 kJ/mol
# GULP energy per Si atom -5568.693465 kJ/mol
# Density = 1.798302 g / cm^3
# Si number density = 18.024039 Si / 1000 Ang^3
#
#
#
# Elastic Constant Matrix: (Units=GPa)
#
#
# Indices 1 2 3 4 5 6 
#
# 1 49.3323 43.7454 16.0441 0.0000 0.0000 0.0000
# 2 43.7454 122.5722 43.6655 0.0000 0.0000 0.0000
# 3 16.0441 43.6655 82.3365 0.0000 0.0000 0.0000
# 4 0.0000 0.0000 0.0000 23.1347 0.0000 0.0000
# 5 0.0000 0.0000 0.0000 0.0000 17.0747 0.0000
# 6 0.0000 0.0000 0.0000 0.0000 0.0000 205.0234
#
#
#
# Elastic Compliance Matrix: (Units=1/GPa)
#
#
# Indices 1 2 3 4 5 6 
#
# 1 0.029659 -0.010512 -0.000204 0.000000 0.000000 0.000000
# 2 -0.010512 0.013785 -0.005262 0.000000 0.000000 0.000000
# 3 -0.000204 -0.005262 0.014976 0.000000 0.000000 0.000000
# 4 0.000000 0.000000 0.000000 0.043225 0.000000 0.000000
# 5 0.000000 0.000000 0.000000 0.000000 0.058566 0.000000
# 6 0.000000 0.000000 0.000000 0.000000 0.000000 0.004877
#
#
# Mechanical properties :
#
#
# Convention : Reuss Voigt Hill
#
# Bulk Modulus (GPa) = 37.78997 51.23900 44.51448
# Shear Modulus (GPa) = 24.28757 59.09896 41.69326
#
# Velocity S-wave (km/s) = 3.67483 5.73238 4.81479
# Velocity P-wave (km/s) = 6.24642 8.50314 7.46060
#
# Compressibility (1/GPa) = 0.02646205
#
# Stress axis : x y z
#
# Youngs Moduli (GPa) = 33.71658 72.54341 66.77468
#
# Poissons Ratio (x) = 0.76260 0.01364
# Poissons Ratio (y) = 0.35444 0.35137
# Poissons Ratio (z) = 0.00689 0.38173
#
# Static dielectric constant tensor:
#      x y z
#    x 1.576420 0.000000 0.000000 
#    y 0.000000 1.683700 0.000000 
#    z 0.000000 0.000000 1.693700 
# 
# From -- ./inp_files/25188.got.cif
#   From: 2010.05.17/outbox.cif.g08.bks.cpg/sg74_13_cif.got.tgz:25188.got - 2010.06.03 17:57:02.
