data_PCOD9537208
_publ_section_title
;
Structure prediction by ZEFSAII (Michael W. Deem and Ramdas Pophale) SiO2 
 PCOD9537208
Probable space group: I M M A
;
_chemical_formula_sum "Si O2"
_cell_formula_units_Z 80
_cell_length_a 9.655175
_cell_length_b 7.463734
_cell_length_c 53.055219
_cell_angle_alpha 90.000000
_cell_angle_beta 90.000000
_cell_angle_gamma 90.000000
_cell_volume 3823.353153
_symmetry_space_group_name_H-M "I M M A"
_symmetry_group_IT_number 74
_symmetry_cell_setting 'orthorhombic'
loop_
_space_group_symop_operation_xyz
x,y,z
-x,1/2-y,z
x,-y,-z
-x,1/2+y,-z
-x,-y,-z
x,1/2+y,-z
-x,y,z
x,1/2-y,z
1/2+x,1/2+y,1/2+z
1/2-x,-y,1/2+z
1/2+x,1/2-y,1/2-z
1/2-x,y,1/2-z
1/2-x,1/2-y,1/2-z
1/2+x,y,1/2-z
1/2-x,1/2+y,1/2+z
1/2+x,-y,1/2+z
loop_
_atom_site_type_symbol
_atom_site_label
_atom_site_fract_x
_atom_site_fract_y
_atom_site_fract_z
Si Si1 0.157491 0.964182 0.028718
Si Si2 0.339862 0.031710 0.226559
Si Si3 0.340773 0.530366 0.075368
Si Si4 0.841478 0.034281 0.329718
Si Si5 0.843493 0.037801 0.877882
O O1 0.150204 0.750000 0.031615
O O2 0.262791 0.028683 0.049960
O O3 0.000000 0.033789 0.032015
O O4 0.200927 0.000000 0.000000
O O5 0.500000 0.982366 0.229929
O O6 0.333343 0.250000 0.226649
O O7 0.250000 0.967538 0.250000
O O8 0.298151 0.973893 0.198362
O O9 0.500000 0.472411 0.076590
O O10 0.342588 0.750000 0.075528
O O11 0.251886 0.468464 0.099401
O O12 0.846725 0.250000 0.329065
O O13 0.000000 0.972173 0.334633
O O14 0.736361 0.984555 0.351614
O O15 0.500000 0.964732 0.622529
O O16 0.855190 0.250000 0.882355
#
# Coordination Sequence:
#
# PCOD9537208 Si02
#       5
#    16  16  16  16  16
#     4   9  17  30  48  69  93 120 150 186 228 273
#     4   8  14  25  42  65  92 121 153 189 229 276
#     4   9  17  30  49  70  91 120 158 195 230 273
#     4   9  18  32  49  71  99 127 156 194 240 286
#     4  10  20  33  50  72  96 124 161 201 238 281
#
# _framework density 20.924042
#
# number of rings (size 3 to 8) (size 9 to 14) (size 15 to 20)
#    0.000    3.000    0.000    2.400    0.000    5.200 
#    0.000    3.000    0.000    4.200    0.000    0.000 
#    0.000    0.000    0.000    0.000    0.000    0.000 
#
# Total GULP energy -223240.117902 kJ/mol
# GULP energy per Si atom -5581.002948 kJ/mol
# Density = 2.087642 g / cm^3
# Si number density = 20.924042 Si / 1000 Ang^3
#
#
#
# Elastic Constant Matrix: (Units=GPa)
#
#
# Indices 1 2 3 4 5 6 
#
# 1 181.0660 6.5199 161.2341 0.0000 0.0000 0.0000
# 2 6.5199 59.5934 -0.4894 0.0000 0.0000 0.0000
# 3 161.2341 -0.4894 225.5652 0.0000 0.0000 0.0000
# 4 0.0000 0.0000 0.0000 35.2144 0.0000 0.0000
# 5 0.0000 0.0000 0.0000 0.0000 40.0818 0.0000
# 6 0.0000 0.0000 0.0000 0.0000 0.0000 5.9388
#
#
#
# Elastic Compliance Matrix: (Units=1/GPa)
#
#
# Indices 1 2 3 4 5 6 
#
# 1 0.015379 -0.001773 -0.010997 0.000000 0.000000 0.000000
# 2 -0.001773 0.016985 0.001304 0.000000 0.000000 0.000000
# 3 -0.010997 0.001304 0.012297 0.000000 0.000000 0.000000
# 4 0.000000 0.000000 0.000000 0.028398 0.000000 0.000000
# 5 0.000000 0.000000 0.000000 0.000000 0.024949 0.000000
# 6 0.000000 0.000000 0.000000 0.000000 0.000000 0.168384
#
#
# Mechanical properties :
#
#
# Convention : Reuss Voigt Hill
#
# Bulk Modulus (GPa) = 46.02017 88.97267 67.49642
# Shear Modulus (GPa) = 16.85970 36.17767 26.51868
#
# Velocity S-wave (km/s) = 2.84167 4.16264 3.56389
# Velocity P-wave (km/s) = 5.72786 8.10663 7.01876
#
# Compressibility (1/GPa) = 0.02172960
#
# Stress axis : x y z
#
# Youngs Moduli (GPa) = 65.02391 58.87532 81.32328
#
# Poissons Ratio (x) = 0.10438 0.89429
# Poissons Ratio (y) = 0.11528 -0.10605
# Poissons Ratio (z) = 0.71505 -0.07678
#
# Static dielectric constant tensor:
#      x y z
#    x 1.719690 0.000000 0.000000 
#    y 0.000000 1.805600 0.000000 
#    z 0.000000 0.000000 1.724490 
# 
# From -- ./inp_files/71509.got.cif
#   From: 2010.05.17/outbox.cif.g08.bks.cpg/sg74_36_cif.got.tgz:71509.got - 2010.06.03 17:57:02.
