data_PCOD9537986
_publ_section_title
;
Structure prediction by ZEFSAII (Michael W. Deem and Ramdas Pophale) SiO2 
 PCOD9537986
Probable space group: I M M A
;
_chemical_formula_sum "Si O2"
_cell_formula_units_Z 72
_cell_length_a 20.637292
_cell_length_b 9.327427
_cell_length_c 21.465467
_cell_angle_alpha 90.000000
_cell_angle_beta 90.000000
_cell_angle_gamma 90.000000
_cell_volume 4131.948589
_symmetry_space_group_name_H-M "I M M A"
_symmetry_group_IT_number 74
_symmetry_cell_setting 'orthorhombic'
loop_
_space_group_symop_operation_xyz
x,y,z
-x,1/2-y,z
x,-y,-z
-x,1/2+y,-z
-x,-y,-z
x,1/2+y,-z
-x,y,z
x,1/2-y,z
1/2+x,1/2+y,1/2+z
1/2-x,-y,1/2+z
1/2+x,1/2-y,1/2-z
1/2-x,y,1/2-z
1/2-x,1/2-y,1/2-z
1/2+x,y,1/2-z
1/2-x,1/2+y,1/2+z
1/2+x,-y,1/2+z
loop_
_atom_site_type_symbol
_atom_site_label
_atom_site_fract_x
_atom_site_fract_y
_atom_site_fract_z
Si Si1 0.706940 0.416034 0.312091
Si Si2 0.000000 0.085723 0.437799
Si Si3 0.577238 0.915799 0.757453
Si Si4 0.607591 0.087438 0.874161
Si Si5 0.248742 0.416777 0.565737
O O1 0.726362 0.250000 0.324017
O O2 0.750000 0.458648 0.250000
O O3 0.630076 0.418382 0.297527
O O4 0.719013 0.508420 0.373945
O O5 0.000000 0.250000 0.450173
O O6 0.000000 0.000000 0.500000
O O7 0.061734 0.033349 0.401259
O O8 0.500000 0.942453 0.745861
O O9 0.580679 0.750000 0.782084
O O10 0.607255 0.036091 0.803017
O O11 0.582094 0.250000 0.878845
O O12 0.673661 0.082824 0.912511
O O13 0.256929 0.500000 0.500000
O O14 0.268580 0.250000 0.558878
#
# Coordination Sequence:
#
# PCOD9537986 Si02
#       5
#    16   8  16  16  16
#     4  10  20  36  60  87 116 152 195 240 289 344
#     4  12  24  36  50  70 104 150 195 234 277 336
#     4  10  20  35  57  85 116 153 191 233 285 342
#     4  11  22  35  53  80 112 149 190 233 282 338
#     4  11  24  39  58  84 116 152 193 242 294 348
#
# _framework density 17.425191999999999
#
# number of rings (size 3 to 8) (size 9 to 14) (size 15 to 20)
#    0.000    1.333    3.333    3.000    0.000    5.778 
#    0.000    0.000    0.000    0.667    0.000    0.000 
#    0.000    0.000    0.000    0.000    0.000    0.000 
#
# Total GULP energy -200430.935858 kJ/mol
# GULP energy per Si atom -5567.525996 kJ/mol
# Density = 1.738553 g / cm^3
# Si number density = 17.425192 Si / 1000 Ang^3
#
#
#
# Elastic Constant Matrix: (Units=GPa)
#
#
# Indices 1 2 3 4 5 6 
#
# 1 57.0408 32.7368 41.2920 0.0000 0.0000 0.0000
# 2 32.7368 139.3828 75.8584 0.0000 0.0000 0.0000
# 3 41.2920 75.8584 115.0608 0.0000 0.0000 0.0000
# 4 0.0000 0.0000 0.0000 30.1518 0.0000 0.0000
# 5 0.0000 0.0000 0.0000 0.0000 22.0219 0.0000
# 6 0.0000 0.0000 0.0000 0.0000 0.0000 41.1853
#
#
#
# Elastic Compliance Matrix: (Units=1/GPa)
#
#
# Indices 1 2 3 4 5 6 
#
# 1 0.023876 -0.001473 -0.007597 0.000000 0.000000 0.000000
# 2 -0.001473 0.011280 -0.006908 0.000000 0.000000 0.000000
# 3 -0.007597 -0.006908 0.015972 0.000000 0.000000 0.000000
# 4 0.000000 0.000000 0.000000 0.033165 0.000000 0.000000
# 5 0.000000 0.000000 0.000000 0.000000 0.045409 0.000000
# 6 0.000000 0.000000 0.000000 0.000000 0.000000 0.024280
#
#
# Mechanical properties :
#
#
# Convention : Reuss Voigt Hill
#
# Bulk Modulus (GPa) = 52.16119 67.91765 60.03942
# Shear Modulus (GPa) = 25.99667 29.44496 27.72081
#
# Velocity S-wave (km/s) = 3.86670 4.11517 3.99287
# Velocity P-wave (km/s) = 7.06644 7.85116 7.46911
#
# Compressibility (1/GPa) = 0.01917134
#
# Stress axis : x y z
#
# Youngs Moduli (GPa) = 41.88220 88.65006 62.60880
#
# Poissons Ratio (x) = 0.13058 0.47567
# Poissons Ratio (y) = 0.06169 0.43253
# Poissons Ratio (z) = 0.31820 0.61243
#
# Static dielectric constant tensor:
#      x y z
#    x 1.631750 0.000000 0.000000 
#    y 0.000000 1.603240 0.000000 
#    z 0.000000 0.000000 1.500630 
# 
# From -- ./inp_files/39438.got.cif
#   From: 2010.05.17/outbox.cif.g08.bks.cpg/sg74_20_cif.got.tgz:39438.got - 2010.06.03 17:57:02.
