data_PCOD9537062
_publ_section_title
;
Structure prediction by ZEFSAII (Michael W. Deem and Ramdas Pophale) SiO2 
 PCOD9537062
Probable space group: I M M A
;
_chemical_formula_sum "Si O2"
_cell_formula_units_Z 104
_cell_length_a 30.082480
_cell_length_b 7.405049
_cell_length_c 20.602916
_cell_angle_alpha 90.000000
_cell_angle_beta 90.000000
_cell_angle_gamma 90.000000
_cell_volume 4589.551687
_symmetry_space_group_name_H-M "I M M A"
_symmetry_group_IT_number 74
_symmetry_cell_setting 'orthorhombic'
loop_
_space_group_symop_operation_xyz
x,y,z
-x,1/2-y,z
x,-y,-z
-x,1/2+y,-z
-x,-y,-z
x,1/2+y,-z
-x,y,z
x,1/2-y,z
1/2+x,1/2+y,1/2+z
1/2-x,-y,1/2+z
1/2+x,1/2-y,1/2-z
1/2-x,y,1/2-z
1/2-x,1/2-y,1/2-z
1/2+x,y,1/2-z
1/2-x,1/2+y,1/2+z
1/2+x,-y,1/2+z
loop_
_atom_site_type_symbol
_atom_site_label
_atom_site_fract_x
_atom_site_fract_y
_atom_site_fract_z
Si Si1 0.551171 0.533900 0.574737
Si Si2 0.707396 0.970383 0.706764
Si Si3 0.500000 0.034195 0.076255
Si Si4 0.394042 0.029783 0.300266
Si Si5 0.081338 0.029195 0.337375
Si Si6 0.842556 0.534535 0.571301
Si Si7 0.742161 0.965127 0.570266
O O1 0.565201 0.500000 0.500000
O O2 0.500000 0.466636 0.582111
O O3 0.549307 0.750000 0.581977
O O4 0.584305 0.468330 0.631701
O O5 0.707331 0.750000 0.711858
O O6 0.750000 0.028728 0.750000
O O7 0.656446 0.026691 0.717637
O O8 0.716923 0.028785 0.633161
O O9 0.500000 0.250000 0.083284
O O10 0.457103 0.966774 0.114680
O O11 0.500000 0.000000 0.000000
O O12 0.392747 0.250000 0.303445
O O13 0.422916 0.977009 0.237457
O O14 0.081607 0.250000 0.338019
O O15 0.127258 0.968554 0.370418
O O16 0.862604 0.500000 0.500000
O O17 0.839387 0.750000 0.578468
O O18 0.792512 0.461076 0.570936
O O19 0.745056 0.750000 0.576853
O O20 0.721760 0.000000 0.500000
#
# Coordination Sequence:
#
# PCOD9537062 Si02
#       7
#    16  16   8  16  16  16  16
#     4   9  18  32  51  73  97 125 156 195 242 292
#     4   9  16  27  44  67  95 123 153 195 239 277
#     4  10  20  32  48  70  95 122 150 184 225 264
#     4   9  17  28  46  71  94 120 157 196 235 277
#     4   9  17  28  44  67  92 117 149 190 227 262
#     4   9  16  27  43  63  88 119 152 186 223 267
#     4   9  17  28  44  66  90 117 150 186 227 270
#
# _framework density 22.660166
#
# number of rings (size 3 to 8) (size 9 to 14) (size 15 to 20)
#    0.000    2.923    0.000    1.385    1.077    4.308 
#    0.000    0.000    0.000    2.308    0.000    0.000 
#    0.000    0.000    0.000    0.000    0.000    0.000 
#
# Total GULP energy -290074.068359 kJ/mol
# GULP energy per Si atom -5578.347468 kJ/mol
# Density = 2.260859 g / cm^3
# Si number density = 22.660166 Si / 1000 Ang^3
#
#
#
# Elastic Constant Matrix: (Units=GPa)
#
#
# Indices 1 2 3 4 5 6 
#
# 1 91.0707 1.6642 81.9024 0.0000 0.0000 0.0000
# 2 1.6642 74.4305 -4.9914 0.0000 0.0000 0.0000
# 3 81.9024 -4.9914 196.4487 0.0000 0.0000 0.0000
# 4 0.0000 0.0000 0.0000 19.3703 0.0000 0.0000
# 5 0.0000 0.0000 0.0000 0.0000 -107.1367 0.0000
# 6 0.0000 0.0000 0.0000 0.0000 0.0000 -6.0870
#
#
#
# Elastic Compliance Matrix: (Units=1/GPa)
#
#
# Indices 1 2 3 4 5 6 
#
# 1 0.017626 -0.000888 -0.007371 0.000000 0.000000 0.000000
# 2 -0.000888 0.013503 0.000713 0.000000 0.000000 0.000000
# 3 -0.007371 0.000713 0.008182 0.000000 0.000000 0.000000
# 4 0.000000 0.000000 0.000000 0.051625 0.000000 0.000000
# 5 0.000000 0.000000 0.000000 0.000000 -0.009334 0.000000
# 6 0.000000 0.000000 0.000000 0.000000 0.000000 -0.164284
#
#
# Mechanical properties :
#
#
# Convention : Reuss Voigt Hill
#
# Bulk Modulus (GPa) = 41.29077 57.67781 49.48429
# Shear Modulus (GPa) = -84.00927 0.12097 -41.94415
#
# Velocity S-wave (km/s) = -6.09541 0.23130 -4.30700
# Velocity P-wave (km/s) = 5.59262 5.05767 1.68781
#
# Compressibility (1/GPa) = 0.02421849
#
# Stress axis : x y z
#
# Youngs Moduli (GPa) = 56.73561 74.05730 122.22585
#
# Poissons Ratio (x) = 0.06579 0.90092
# Poissons Ratio (y) = 0.05040 -0.08721
# Poissons Ratio (z) = 0.41820 -0.05284
#
# Static dielectric constant tensor:
#      x y z
#    x 1.927730 0.000000 0.000000 
#    y 0.000000 1.904220 0.000000 
#    z 0.000000 0.000000 1.834820 
# 
# From -- ./inp_files/41717.got.cif
#   From: 2010.05.17/outbox.cif.g08.bks.cpg/sg74_21_cif.got.tgz:41717.got - 2010.06.03 17:57:02.
