data_PCOD9537635
_publ_section_title
;
Structure prediction by ZEFSAII (Michael W. Deem and Ramdas Pophale) SiO2 
 PCOD9537635
Probable space group: I M M A
;
_chemical_formula_sum "Si O2"
_cell_formula_units_Z 116
_cell_length_a 8.884348
_cell_length_b 26.703842
_cell_length_c 26.101962
_cell_angle_alpha 90.000000
_cell_angle_beta 90.000000
_cell_angle_gamma 90.000000
_cell_volume 6192.591957
_symmetry_space_group_name_H-M "I M M A"
_symmetry_group_IT_number 74
_symmetry_cell_setting 'orthorhombic'
loop_
_space_group_symop_operation_xyz
x,y,z
-x,1/2-y,z
x,-y,-z
-x,1/2+y,-z
-x,-y,-z
x,1/2+y,-z
-x,y,z
x,1/2-y,z
1/2+x,1/2+y,1/2+z
1/2-x,-y,1/2+z
1/2+x,1/2-y,1/2-z
1/2-x,y,1/2-z
1/2-x,1/2-y,1/2-z
1/2+x,y,1/2-z
1/2-x,1/2+y,1/2+z
1/2+x,-y,1/2+z
loop_
_atom_site_type_symbol
_atom_site_label
_atom_site_fract_x
_atom_site_fract_y
_atom_site_fract_z
Si Si1 0.180980 0.398066 0.007725
Si Si2 0.000000 0.750000 0.321020
Si Si3 0.823941 0.406334 0.301314
Si Si4 0.165383 0.646817 0.304222
Si Si5 0.681120 0.036206 0.395491
Si Si6 0.824717 0.192844 0.173475
Si Si7 0.181060 0.421519 0.889928
Si Si8 0.324507 0.806245 0.936484
O O1 0.217588 0.408555 0.948859
O O2 0.000000 0.390586 0.011475
O O3 0.219085 0.442590 0.047907
O O4 0.267931 0.348948 0.026063
O O5 0.129194 0.704669 0.318925
O O6 0.750000 0.428196 0.250000
O O7 0.751379 0.428505 0.352499
O O8 0.785393 0.347420 0.302210
O O9 0.000000 0.414732 0.300945
O O10 0.250000 0.645418 0.250000
O O11 0.248028 0.616273 0.348981
O O12 0.000000 0.623136 0.296941
O O13 0.500000 0.038135 0.391734
O O14 0.728992 0.979416 0.384266
O O15 0.804594 0.250000 0.191005
O O16 0.780642 0.192055 0.113489
O O17 0.000000 0.178518 0.180405
O O18 0.000000 0.419484 0.884632
O O19 0.500000 0.814291 0.921853
O O20 0.313822 0.750000 0.958364
#
# Coordination Sequence:
#
# PCOD9537635 Si02
#       8
#    16   4  16  16  16  16  16  16
#     4  10  20  37  62  88 120 161 208 254 306 367
#     4   8  22  40  70  96 124 168 208 240 310 370
#     4  12  25  40  60  87 119 155 205 255 309 366
#     4  10  21  40  66  94 126 162 202 247 302 365
#     4  10  21  40  64  86 118 162 207 257 311 364
#     4  10  20  36  59  84 114 153 196 246 302 360
#     4  10  22  40  62  95 127 160 205 252 305 364
#     4  10  20  34  54  83 119 160 201 246 301 359
#
# _framework density 18.732060000000001
#
# number of rings (size 3 to 8) (size 9 to 14) (size 15 to 20)
#    0.414    1.379    1.379    3.103    0.000    5.241 
#    1.241    0.000    0.000    2.483    0.000    0.000 
#    0.000    0.000    0.000    0.000    0.000    0.000 
#
# Total GULP energy -323043.678643 kJ/mol
# GULP energy per Si atom -5569.718597 kJ/mol
# Density = 1.868942 g / cm^3
# Si number density = 18.732060 Si / 1000 Ang^3
#
#
#
# Elastic Constant Matrix: (Units=GPa)
#
#
# Indices 1 2 3 4 5 6 
#
# 1 42.3584 33.7141 35.4421 0.0000 0.0000 0.0000
# 2 33.7141 109.2890 60.8318 0.0000 0.0000 0.0000
# 3 35.4421 60.8318 104.2866 0.0000 0.0000 0.0000
# 4 0.0000 0.0000 0.0000 4.4843 0.0000 0.0000
# 5 0.0000 0.0000 0.0000 0.0000 24.8395 0.0000
# 6 0.0000 0.0000 0.0000 0.0000 0.0000 32.8315
#
#
#
# Elastic Compliance Matrix: (Units=1/GPa)
#
#
# Indices 1 2 3 4 5 6 
#
# 1 0.035702 -0.006308 -0.008454 0.000000 0.000000 0.000000
# 2 -0.006308 0.014664 -0.006410 0.000000 0.000000 0.000000
# 3 -0.008454 -0.006410 0.016201 0.000000 0.000000 0.000000
# 4 0.000000 0.000000 0.000000 0.223003 0.000000 0.000000
# 5 0.000000 0.000000 0.000000 0.000000 0.040259 0.000000
# 6 0.000000 0.000000 0.000000 0.000000 0.000000 0.030459
#
#
# Mechanical properties :
#
#
# Convention : Reuss Voigt Hill
#
# Bulk Modulus (GPa) = 41.28219 57.32333 49.30276
# Shear Modulus (GPa) = 12.17419 20.82745 16.50082
#
# Velocity S-wave (km/s) = 2.55210 3.33808 2.97119
# Velocity P-wave (km/s) = 5.54711 6.74723 6.17639
#
# Compressibility (1/GPa) = 0.02422352
#
# Stress axis : x y z
#
# Youngs Moduli (GPa) = 28.00929 68.19528 61.72477
#
# Poissons Ratio (x) = 0.43018 0.52182
# Poissons Ratio (y) = 0.17669 0.39564
# Poissons Ratio (z) = 0.23679 0.43711
#
# Static dielectric constant tensor:
#      x y z
#    x 1.633130 0.000000 0.000000 
#    y 0.000000 1.650920 0.000000 
#    z 0.000000 0.000000 1.647850 
# 
# From -- ./inp_files/57707.got.cif
#   From: 2010.05.17/outbox.cif.g08.bks.cpg/sg74_29_cif.got.tgz:57707.got - 2010.06.03 17:57:02.
