data_PCOD9537813
_publ_section_title
;
Structure prediction by ZEFSAII (Michael W. Deem and Ramdas Pophale) SiO2 
 PCOD9537813
Probable space group: I M M A
;
_chemical_formula_sum "Si O2"
_cell_formula_units_Z 88
_cell_length_a 18.163860
_cell_length_b 7.513123
_cell_length_c 28.127846
_cell_angle_alpha 90.000000
_cell_angle_beta 90.000000
_cell_angle_gamma 90.000000
_cell_volume 3838.531602
_symmetry_space_group_name_H-M "I M M A"
_symmetry_group_IT_number 74
_symmetry_cell_setting 'orthorhombic'
loop_
_space_group_symop_operation_xyz
x,y,z
-x,1/2-y,z
x,-y,-z
-x,1/2+y,-z
-x,-y,-z
x,1/2+y,-z
-x,y,z
x,1/2-y,z
1/2+x,1/2+y,1/2+z
1/2-x,-y,1/2+z
1/2+x,1/2-y,1/2-z
1/2-x,y,1/2-z
1/2-x,1/2-y,1/2-z
1/2+x,y,1/2-z
1/2-x,1/2+y,1/2+z
1/2+x,-y,1/2+z
loop_
_atom_site_type_symbol
_atom_site_label
_atom_site_fract_x
_atom_site_fract_y
_atom_site_fract_z
Si Si1 0.915556 0.464739 0.630668
Si Si2 0.843626 0.967794 0.100979
Si Si3 0.791159 0.449142 0.796429
Si Si4 0.083677 0.958434 0.735336
Si Si5 0.500000 0.463641 0.557234
Si Si6 0.801418 0.962105 0.446844
O O1 0.918084 0.250000 0.628967
O O2 0.885388 0.516961 0.682352
O O3 0.860794 0.532245 0.590526
O O4 0.000000 0.529162 0.625726
O O5 0.847085 0.750000 0.104162
O O6 0.807158 0.027022 0.151472
O O7 0.781718 0.023328 0.062976
O O8 0.924807 0.026945 0.083800
O O9 0.758679 0.250000 0.802690
O O10 0.750000 0.533721 0.750000
O O11 0.872574 0.438911 0.774787
O O12 0.085180 0.750000 0.747095
O O13 0.000000 0.020142 0.732454
O O14 0.500000 0.250000 0.561317
O O15 0.500000 0.500000 0.500000
O O16 0.799666 0.750000 0.440030
O O17 0.824761 0.000000 0.500000
#
# Coordination Sequence:
#
# PCOD9537813 Si02
#       6
#    16  16  16  16   8  16
#     4   9  18  34  55  77 103 141 184 221 260 315
#     4   9  19  34  54  78 105 138 178 222 267 323
#     4  10  20  35  57  82 107 141 185 227 269 325
#     4  10  21  35  52  78 112 144 175 216 268 324
#     4  10  20  36  56  78 104 138 182 228 275 324
#     4  10  20  35  54  77 105 135 174 222 270 320
#
# _framework density 22.925432000000001
#
# number of rings (size 3 to 8) (size 9 to 14) (size 15 to 20)
#    0.000    2.364    0.000    2.182    1.273    5.455 
#    0.000    1.818    0.000    0.000    0.000    0.000 
#    0.000    0.000    0.000    0.000    0.000    0.000 
#
# Total GULP energy -245507.090559 kJ/mol
# GULP energy per Si atom -5579.706604 kJ/mol
# Density = 2.287325 g / cm^3
# Si number density = 22.925432 Si / 1000 Ang^3
#
#
#
# Elastic Constant Matrix: (Units=GPa)
#
#
# Indices 1 2 3 4 5 6 
#
# 1 65.4567 7.6136 18.4327 0.0000 0.0000 0.0000
# 2 7.6136 62.1355 -5.7420 0.0000 0.0000 0.0000
# 3 18.4327 -5.7420 94.6624 0.0000 0.0000 0.0000
# 4 0.0000 0.0000 0.0000 13.1697 0.0000 0.0000
# 5 0.0000 0.0000 0.0000 0.0000 28.2569 0.0000
# 6 0.0000 0.0000 0.0000 0.0000 0.0000 27.0980
#
#
#
# Elastic Compliance Matrix: (Units=1/GPa)
#
#
# Indices 1 2 3 4 5 6 
#
# 1 0.016493 -0.002331 -0.003353 0.000000 0.000000 0.000000
# 2 -0.002331 0.016514 0.001456 0.000000 0.000000 0.000000
# 3 -0.003353 0.001456 0.011305 0.000000 0.000000 0.000000
# 4 0.000000 0.000000 0.000000 0.075932 0.000000 0.000000
# 5 0.000000 0.000000 0.000000 0.000000 0.035390 0.000000
# 6 0.000000 0.000000 0.000000 0.000000 0.000000 0.036903
#
#
# Mechanical properties :
#
#
# Convention : Reuss Voigt Hill
#
# Bulk Modulus (GPa) = 27.88970 29.20703 28.54836
# Shear Modulus (GPa) = 23.48038 27.16828 25.32433
#
# Velocity S-wave (km/s) = 3.20379 3.44622 3.32722
# Velocity P-wave (km/s) = 5.08700 5.34817 5.21922
#
# Compressibility (1/GPa) = 0.03585554
#
# Stress axis : x y z
#
# Youngs Moduli (GPa) = 60.63354 60.55481 88.45635
#
# Poissons Ratio (x) = 0.14114 0.29658
# Poissons Ratio (y) = 0.14132 -0.12875
# Poissons Ratio (z) = 0.20329 -0.08814
#
# Static dielectric constant tensor:
#      x y z
#    x 1.889230 0.000000 0.000000 
#    y 0.000000 1.890840 0.000000 
#    z 0.000000 0.000000 1.831460 
# 
# From -- ./inp_files/72939.got.cif
#   From: 2010.05.17/outbox.cif.g08.bks.cpg/sg74_37_cif.got.tgz:72939.got - 2010.06.03 17:57:02.
