data_PCOD9537890
_publ_section_title
;
Structure prediction by ZEFSAII (Michael W. Deem and Ramdas Pophale) SiO2 
 PCOD9537890
Probable space group: I M M A
;
_chemical_formula_sum "Si O2"
_cell_formula_units_Z 112
_cell_length_a 15.425180
_cell_length_b 14.079467
_cell_length_c 25.446972
_cell_angle_alpha 90.000000
_cell_angle_beta 90.000000
_cell_angle_gamma 90.000000
_cell_volume 5526.530444
_symmetry_space_group_name_H-M "I M M A"
_symmetry_group_IT_number 74
_symmetry_cell_setting 'orthorhombic'
loop_
_space_group_symop_operation_xyz
x,y,z
-x,1/2-y,z
x,-y,-z
-x,1/2+y,-z
-x,-y,-z
x,1/2+y,-z
-x,y,z
x,1/2-y,z
1/2+x,1/2+y,1/2+z
1/2-x,-y,1/2+z
1/2+x,1/2-y,1/2-z
1/2-x,y,1/2-z
1/2-x,1/2-y,1/2-z
1/2+x,y,1/2-z
1/2-x,1/2+y,1/2+z
1/2+x,-y,1/2+z
loop_
_atom_site_type_symbol
_atom_site_label
_atom_site_fract_x
_atom_site_fract_y
_atom_site_fract_z
Si Si1 0.405641 0.918448 0.956110
Si Si2 0.176902 0.136718 0.150473
Si Si3 0.849074 0.476008 0.342480
Si Si4 0.785905 0.361849 0.832358
Si Si5 0.293130 0.638300 0.534184
Si Si6 0.594964 0.510416 0.271788
Si Si7 0.901664 0.635104 0.065205
O O1 0.500000 0.867744 0.960374
O O2 0.311339 0.871493 0.965609
O O3 0.398543 0.957548 0.896579
O O4 0.407801 0.000000 0.000000
O O5 0.165256 0.250000 0.154448
O O6 0.168052 0.103275 0.089680
O O7 0.275346 0.105274 0.163495
O O8 0.117575 0.077385 0.189975
O O9 0.798229 0.576212 0.345864
O O10 0.900812 0.478390 0.288445
O O11 0.770064 0.250000 0.827025
O O12 0.833286 0.409375 0.782703
O O13 0.853561 0.379883 0.879822
O O14 0.310630 0.750000 0.535214
O O15 0.340077 0.600664 0.482201
O O16 0.500000 0.548271 0.284206
O O17 0.907434 0.750000 0.060398
O O18 0.000000 0.597548 0.063091
#
# Coordination Sequence:
#
# PCOD9537890 Si02
#       7
#    16  16  16  16  16  16  16
#     4  10  20  35  56  79 106 142 182 228 282 334
#     4   9  19  36  56  77 105 143 183 222 267 322
#     4  10  21  37  57  79 106 140 181 228 277 330
#     4  10  20  36  58  80 106 144 185 225 274 331
#     4   9  18  33  54  80 109 143 184 229 277 329
#     4  11  23  36  52  78 110 142 179 225 276 330
#     4   9  17  30  51  80 112 144 178 221 275 331
#
# _framework density 20.265879000000002
#
# number of rings (size 3 to 8) (size 9 to 14) (size 15 to 20)
#    0.000    2.286    0.000    3.429    0.000    4.286 
#    0.000    1.429    0.000   13.714    0.000    0.000 
#    0.000    0.000    0.000    0.000    0.000    0.000 
#
# Total GULP energy -312335.801604 kJ/mol
# GULP energy per Si atom -5577.425029 kJ/mol
# Density = 2.021975 g / cm^3
# Si number density = 20.265879 Si / 1000 Ang^3
#
#
#
# Elastic Constant Matrix: (Units=GPa)
#
#
# Indices 1 2 3 4 5 6 
#
# 1 82.5227 -10.5250 34.5158 0.0000 0.0000 0.0000
# 2 -10.5250 59.8337 4.2509 0.0000 0.0000 0.0000
# 3 34.5158 4.2509 111.9392 0.0000 0.0000 0.0000
# 4 0.0000 0.0000 0.0000 22.7385 0.0000 0.0000
# 5 0.0000 0.0000 0.0000 0.0000 4323.6874 0.0000
# 6 0.0000 0.0000 0.0000 0.0000 0.0000 -167.2019
#
#
#
# Elastic Compliance Matrix: (Units=1/GPa)
#
#
# Indices 1 2 3 4 5 6 
#
# 1 0.014382 0.002853 -0.004543 0.000000 0.000000 0.000000
# 2 0.002853 0.017324 -0.001537 0.000000 0.000000 0.000000
# 3 -0.004543 -0.001537 0.010393 0.000000 0.000000 0.000000
# 4 0.000000 0.000000 0.000000 0.043978 0.000000 0.000000
# 5 0.000000 0.000000 0.000000 0.000000 0.000231 0.000000
# 6 0.000000 0.000000 0.000000 0.000000 0.000000 -0.005981
#
#
# Mechanical properties :
#
#
# Convention : Reuss Voigt Hill
#
# Bulk Modulus (GPa) = 28.05610 34.53099 31.29355
# Shear Modulus (GPa) = 50.67725 850.91506 450.79615
#
# Velocity S-wave (km/s) = 5.00604 20.51310 14.93063
# Velocity P-wave (km/s) = 6.87663 24.04424 17.68352
#
# Compressibility (1/GPa) = 0.03564287
#
# Stress axis : x y z
#
# Youngs Moduli (GPa) = 69.53230 57.72340 96.22248
#
# Poissons Ratio (x) = -0.16466 0.43713
# Poissons Ratio (y) = -0.19835 0.14794
# Poissons Ratio (z) = 0.31588 0.08875
#
# Static dielectric constant tensor:
#      x y z
#    x 1.708680 0.000000 0.000000 
#    y 0.000000 1.712020 0.000000 
#    z 0.000000 0.000000 1.739990 
# 
# From -- ./inp_files/60140.got.cif
#   From: 2010.05.17/outbox.cif.g08.bks.cpg/sg74_31_cif.got.tgz:60140.got - 2010.06.03 17:57:02.
