data_PCOD9537320
_publ_section_title
;
Structure prediction by ZEFSAII (Michael W. Deem and Ramdas Pophale) SiO2 
 PCOD9537320
Probable space group: I M M A
;
_chemical_formula_sum "Si O2"
_cell_formula_units_Z 80
_cell_length_a 7.693564
_cell_length_b 15.562843
_cell_length_c 29.049242
_cell_angle_alpha 90.000000
_cell_angle_beta 90.000000
_cell_angle_gamma 90.000000
_cell_volume 3478.174059
_symmetry_space_group_name_H-M "I M M A"
_symmetry_group_IT_number 74
_symmetry_cell_setting 'orthorhombic'
loop_
_space_group_symop_operation_xyz
x,y,z
-x,1/2-y,z
x,-y,-z
-x,1/2+y,-z
-x,-y,-z
x,1/2+y,-z
-x,y,z
x,1/2-y,z
1/2+x,1/2+y,1/2+z
1/2-x,-y,1/2+z
1/2+x,1/2-y,1/2-z
1/2-x,y,1/2-z
1/2-x,1/2-y,1/2-z
1/2+x,y,1/2-z
1/2-x,1/2+y,1/2+z
1/2+x,-y,1/2+z
loop_
_atom_site_type_symbol
_atom_site_label
_atom_site_fract_x
_atom_site_fract_y
_atom_site_fract_z
Si Si1 0.290364 0.030956 0.799730
Si Si2 0.793586 0.152024 0.617866
Si Si3 0.695417 0.649519 0.578857
Si Si4 0.302249 0.598286 0.484013
Si Si5 0.299787 0.347573 0.179261
O O1 0.500000 0.024074 0.804475
O O2 0.250000 0.070583 0.750000
O O3 0.224820 0.088378 0.842448
O O4 0.216891 0.933070 0.799447
O O5 0.724012 0.250000 0.619630
O O6 0.770218 0.114251 0.566452
O O7 0.000000 0.157763 0.625559
O O8 0.500000 0.608657 0.579282
O O9 0.671706 0.750000 0.583671
O O10 0.783300 0.638451 0.529362
O O11 0.795566 0.626806 0.625015
O O12 0.305520 0.500000 0.500000
O O13 0.500000 0.632349 0.482146
O O14 0.500000 0.341475 0.194134
O O15 0.225995 0.250000 0.185795
#
# Coordination Sequence:
#
# PCOD9537320 Si02
#       5
#    16  16  16  16  16
#     4  10  22  39  57  78 104 134 174 227 280 329
#     4  10  22  39  57  79 109 145 186 230 273 319
#     4   9  17  29  46  71 104 138 170 205 246 298
#     4  10  20  33  52  80 112 144 179 220 266 318
#     4   9  18  33  53  78 108 140 174 214 264 325
#
# _framework density 23.000575000000001
#
# number of rings (size 3 to 8) (size 9 to 14) (size 15 to 20)
#    0.000    2.400    0.000    1.800    0.000    4.800 
#    0.000    2.000    0.000    0.000    0.000    0.000 
#    0.000    0.000    0.000    0.000    0.000    0.000 
#
# Total GULP energy -222830.781912 kJ/mol
# GULP energy per Si atom -5570.769548 kJ/mol
# Density = 2.294822 g / cm^3
# Si number density = 23.000575 Si / 1000 Ang^3
#
#
#
# Elastic Constant Matrix: (Units=GPa)
#
#
# Indices 1 2 3 4 5 6 
#
# 1 42.9483 6.9478 -9.6133 0.0000 0.0000 0.0000
# 2 6.9478 113.3975 62.3813 0.0000 0.0000 0.0000
# 3 -9.6133 62.3813 152.9603 0.0000 0.0000 0.0000
# 4 0.0000 0.0000 0.0000 13.6116 0.0000 0.0000
# 5 0.0000 0.0000 0.0000 0.0000 25.9797 0.0000
# 6 0.0000 0.0000 0.0000 0.0000 0.0000 6.5719
#
#
#
# Elastic Compliance Matrix: (Units=1/GPa)
#
#
# Indices 1 2 3 4 5 6 
#
# 1 0.024390 -0.003014 0.002762 0.000000 0.000000 0.000000
# 2 -0.003014 0.011742 -0.004978 0.000000 0.000000 0.000000
# 3 0.002762 -0.004978 0.008741 0.000000 0.000000 0.000000
# 4 0.000000 0.000000 0.000000 0.073467 0.000000 0.000000
# 5 0.000000 0.000000 0.000000 0.000000 0.038492 0.000000
# 6 0.000000 0.000000 0.000000 0.000000 0.000000 0.152163
#
#
# Mechanical properties :
#
#
# Convention : Reuss Voigt Hill
#
# Bulk Modulus (GPa) = 29.05873 47.63752 38.34812
# Shear Modulus (GPa) = 15.10922 25.87202 20.49062
#
# Velocity S-wave (km/s) = 2.56580 3.35751 2.98799
# Velocity P-wave (km/s) = 4.63024 5.98221 5.34911
#
# Compressibility (1/GPa) = 0.03441307
#
# Stress axis : x y z
#
# Youngs Moduli (GPa) = 41.00117 85.16725 114.39866
#
# Poissons Ratio (x) = 0.25667 -0.31596
# Poissons Ratio (y) = 0.12356 0.56947
# Poissons Ratio (z) = -0.11324 0.42396
#
# Static dielectric constant tensor:
#      x y z
#    x 1.901640 0.000000 0.000000 
#    y 0.000000 2.020600 0.000000 
#    z 0.000000 0.000000 1.921860 
# 
# From -- ./inp_files/63963.got.cif
#   From: 2010.05.17/outbox.cif.g08.bks.cpg/sg74_32_cif.got.tgz:63963.got - 2010.06.03 17:57:02.
