data_PCOD9537697
_publ_section_title
;
Structure prediction by ZEFSAII (Michael W. Deem and Ramdas Pophale) SiO2 
 PCOD9537697
Probable space group: I M M A
;
_chemical_formula_sum "Si O2"
_cell_formula_units_Z 96
_cell_length_a 18.813756
_cell_length_b 24.542224
_cell_length_c 12.101721
_cell_angle_alpha 90.000000
_cell_angle_beta 90.000000
_cell_angle_gamma 90.000000
_cell_volume 5587.744750
_symmetry_space_group_name_H-M "I M M A"
_symmetry_group_IT_number 74
_symmetry_cell_setting 'orthorhombic'
loop_
_space_group_symop_operation_xyz
x,y,z
-x,1/2-y,z
x,-y,-z
-x,1/2+y,-z
-x,-y,-z
x,1/2+y,-z
-x,y,z
x,1/2-y,z
1/2+x,1/2+y,1/2+z
1/2-x,-y,1/2+z
1/2+x,1/2-y,1/2-z
1/2-x,y,1/2-z
1/2-x,1/2-y,1/2-z
1/2+x,y,1/2-z
1/2-x,1/2+y,1/2+z
1/2+x,-y,1/2+z
loop_
_atom_site_type_symbol
_atom_site_label
_atom_site_fract_x
_atom_site_fract_y
_atom_site_fract_z
Si Si1 0.173420 0.312957 0.192292
Si Si2 0.792992 0.685288 0.065806
Si Si3 0.855661 0.374665 0.582492
Si Si4 0.418905 0.485126 0.869655
Si Si5 0.422023 0.684703 0.276508
Si Si6 0.914720 0.894218 0.663306
O O1 0.152218 0.250000 0.213069
O O2 0.250000 0.321243 0.250000
O O3 0.118274 0.354402 0.246244
O O4 0.183525 0.320107 0.061509
O O5 0.777506 0.750000 0.085359
O O6 0.722951 0.649943 0.086655
O O7 0.857317 0.667643 0.144859
O O8 0.866637 0.434092 0.637755
O O9 0.905863 0.335390 0.653545
O O10 0.881322 0.379201 0.455877
O O11 0.500000 0.469602 0.837750
O O12 0.398368 0.541990 0.812905
O O13 0.421742 0.500000 0.000000
O O14 0.500000 0.665315 0.312811
O O15 0.422388 0.750000 0.279109
O O16 0.000000 0.889846 0.655901
#
# Coordination Sequence:
#
# PCOD9537697 Si02
#       6
#    16  16  16  16  16  16
#     4  10  20  36  54  75 107 145 177 218 273 324
#     4  10  21  36  55  77 110 148 181 219 270 330
#     4  11  18  32  57  80 107 140 177 223 277 324
#     4   8  16  31  51  77 108 140 171 214 274 326
#     4  10  21  35  52  77 109 143 179 219 264 320
#     4  10  20  34  56  83 108 137 179 229 273 318
#
# _framework density 17.180456
#
# number of rings (size 3 to 8) (size 9 to 14) (size 15 to 20)
#    0.000    2.167    1.667    3.500    0.000    3.000 
#    0.000    3.333    0.000    0.000    0.000    3.500 
#    0.000    0.000    0.000    0.000    0.000    0.000 
#
# Total GULP energy -267633.583067 kJ/mol
# GULP energy per Si atom -5575.699647 kJ/mol
# Density = 1.714135 g / cm^3
# Si number density = 17.180456 Si / 1000 Ang^3
#
#
#
# Elastic Constant Matrix: (Units=GPa)
#
#
# Indices 1 2 3 4 5 6 
#
# 1 128.1586 75.5886 32.2296 0.0000 0.0000 0.0000
# 2 75.5886 84.8196 26.8709 0.0000 0.0000 0.0000
# 3 32.2296 26.8709 39.4982 0.0000 0.0000 0.0000
# 4 0.0000 0.0000 0.0000 12.3820 0.0000 0.0000
# 5 0.0000 0.0000 0.0000 0.0000 21.2044 0.0000
# 6 0.0000 0.0000 0.0000 0.0000 0.0000 23.0865
#
#
#
# Elastic Compliance Matrix: (Units=1/GPa)
#
#
# Indices 1 2 3 4 5 6 
#
# 1 0.017070 -0.013767 -0.004563 0.000000 0.000000 0.000000
# 2 -0.013767 0.026131 -0.006544 0.000000 0.000000 0.000000
# 3 -0.004563 -0.006544 0.033493 0.000000 0.000000 0.000000
# 4 0.000000 0.000000 0.000000 0.080763 0.000000 0.000000
# 5 0.000000 0.000000 0.000000 0.000000 0.047160 0.000000
# 6 0.000000 0.000000 0.000000 0.000000 0.000000 0.043315
#
#
# Mechanical properties :
#
#
# Convention : Reuss Voigt Hill
#
# Bulk Modulus (GPa) = 37.11044 57.98385 47.54715
# Shear Modulus (GPa) = 16.30455 19.18703 17.74579
#
# Velocity S-wave (km/s) = 3.08395 3.34547 3.21737
# Velocity P-wave (km/s) = 5.85904 6.98184 6.44494
#
# Compressibility (1/GPa) = 0.02694659
#
# Stress axis : x y z
#
# Youngs Moduli (GPa) = 58.58208 38.26820 29.85691
#
# Poissons Ratio (x) = 0.52683 0.13624
# Poissons Ratio (y) = 0.80648 0.19539
# Poissons Ratio (z) = 0.26732 0.25043
#
# Static dielectric constant tensor:
#      x y z
#    x 1.577850 0.000000 0.000000 
#    y 0.000000 1.603590 0.000000 
#    z 0.000000 0.000000 1.560600 
# 
# From -- ./inp_files/22426.got.cif
#   From: 2010.05.17/outbox.cif.g08.bks.cpg/sg74_12_cif.got.tgz:22426.got - 2010.06.03 17:57:02.
