data_PCOD9537304
_publ_section_title
;
Structure prediction by ZEFSAII (Michael W. Deem and Ramdas Pophale) SiO2 
 PCOD9537304
Probable space group: I M M A
;
_chemical_formula_sum "Si O2"
_cell_formula_units_Z 104
_cell_length_a 7.682701
_cell_length_b 32.859073
_cell_length_c 19.616907
_cell_angle_alpha 90.000000
_cell_angle_beta 90.000000
_cell_angle_gamma 90.000000
_cell_volume 4952.218199
_symmetry_space_group_name_H-M "I M M A"
_symmetry_group_IT_number 74
_symmetry_cell_setting 'orthorhombic'
loop_
_space_group_symop_operation_xyz
x,y,z
-x,1/2-y,z
x,-y,-z
-x,1/2+y,-z
-x,-y,-z
x,1/2+y,-z
-x,y,z
x,1/2-y,z
1/2+x,1/2+y,1/2+z
1/2-x,-y,1/2+z
1/2+x,1/2-y,1/2-z
1/2-x,y,1/2-z
1/2-x,1/2-y,1/2-z
1/2+x,y,1/2-z
1/2-x,1/2+y,1/2+z
1/2+x,-y,1/2+z
loop_
_atom_site_type_symbol
_atom_site_label
_atom_site_fract_x
_atom_site_fract_y
_atom_site_fract_z
Si Si1 0.291534 0.750000 0.669416
Si Si2 0.713523 0.376715 0.462624
Si Si3 0.793838 0.541356 0.032533
Si Si4 0.296648 0.205610 0.533400
Si Si5 0.792186 0.330476 0.672610
Si Si6 0.293317 0.576197 0.172887
Si Si7 0.708703 0.338824 0.329069
O O1 0.500000 0.750000 0.658811
O O2 0.250000 0.750000 0.750000
O O3 0.225032 0.794110 0.646838
O O4 0.500000 0.377022 0.466912
O O5 0.778200 0.417525 0.498220
O O6 0.775322 0.335557 0.499971
O O7 0.765024 0.372121 0.383667
O O8 0.772328 0.546970 0.113412
O O9 0.000000 0.541272 0.018207
O O10 0.721286 0.500000 0.000000
O O11 0.500000 0.207014 0.513474
O O12 0.221335 0.250000 0.515756
O O13 0.284368 0.197975 0.614317
O O14 0.750000 0.318442 0.750000
O O15 0.725983 0.377239 0.663267
O O16 0.000000 0.330461 0.664533
O O17 0.500000 0.578162 0.166855
O O18 0.250000 0.563705 0.250000
O O19 0.500000 0.336756 0.332742
O O20 0.750000 0.345712 0.250000
#
# Coordination Sequence:
#
# PCOD9537304 Si02
#       7
#     8  16  16  16  16  16  16
#     4   8  14  24  42  66  92 122 161 202 241 292
#     4   9  18  33  53  76 105 137 174 220 265 318
#     4  10  20  36  59  84 110 143 179 220 273 329
#     4  10  20  33  52  77 105 141 183 224 269 321
#     4  10  20  34  54  78 107 144 182 224 270 318
#     4  10  20  35  58  85 112 144 183 226 272 324
#     4   9  17  30  48  70  97 130 167 207 252 301
#
# _framework density 21.000689000000001
#
# number of rings (size 3 to 8) (size 9 to 14) (size 15 to 20)
#    0.000    2.462    1.538    0.923    1.077    2.154 
#    0.000    2.308    0.000    1.846    0.000    0.000 
#    0.000    0.000    0.000    0.000    0.000    0.000 
#
# Total GULP energy -290148.028937 kJ/mol
# GULP energy per Si atom -5579.769787 kJ/mol
# Density = 2.095289 g / cm^3
# Si number density = 21.000689 Si / 1000 Ang^3
#
#
#
# Elastic Constant Matrix: (Units=GPa)
#
#
# Indices 1 2 3 4 5 6 
#
# 1 39.4195 10.4384 -8.9244 0.0000 0.0000 0.0000
# 2 10.4384 148.0386 83.7067 0.0000 0.0000 0.0000
# 3 -8.9244 83.7067 121.3440 0.0000 0.0000 0.0000
# 4 0.0000 0.0000 0.0000 31.1681 0.0000 0.0000
# 5 0.0000 0.0000 0.0000 0.0000 15.8822 0.0000
# 6 0.0000 0.0000 0.0000 0.0000 0.0000 3.1735
#
#
#
# Elastic Compliance Matrix: (Units=1/GPa)
#
#
# Indices 1 2 3 4 5 6 
#
# 1 0.028001 -0.005146 0.005609 0.000000 0.000000 0.000000
# 2 -0.005146 0.012021 -0.008671 0.000000 0.000000 0.000000
# 3 0.005609 -0.008671 0.014635 0.000000 0.000000 0.000000
# 4 0.000000 0.000000 0.000000 0.032084 0.000000 0.000000
# 5 0.000000 0.000000 0.000000 0.000000 0.062964 0.000000
# 6 0.000000 0.000000 0.000000 0.000000 0.000000 0.315114
#
#
# Mechanical properties :
#
#
# Convention : Reuss Voigt Hill
#
# Bulk Modulus (GPa) = 26.14971 53.24928 39.69949
# Shear Modulus (GPa) = 10.12188 24.95017 17.53602
#
# Velocity S-wave (km/s) = 2.19778 3.45057 2.89281
# Velocity P-wave (km/s) = 4.34962 6.42544 5.48660
#
# Compressibility (1/GPa) = 0.03824134
#
# Stress axis : x y z
#
# Youngs Moduli (GPa) = 35.71329 83.19090 68.33021
#
# Poissons Ratio (x) = 0.42811 -0.38328
# Poissons Ratio (y) = 0.18378 0.59246
# Poissons Ratio (z) = -0.20033 0.72132
#
# Static dielectric constant tensor:
#      x y z
#    x 1.770440 0.000000 0.000000 
#    y 0.000000 1.771380 0.000000 
#    z 0.000000 0.000000 1.760060 
# 
# From -- ./inp_files/49599.got.cif
#   From: 2010.05.17/outbox.cif.g08.bks.cpg/sg74_25_cif.got.tgz:49599.got - 2010.06.03 17:57:02.
