data_PCOD9537768
_publ_section_title
;
Structure prediction by ZEFSAII (Michael W. Deem and Ramdas Pophale) SiO2 
 PCOD9537768
Probable space group: I M M A
;
_chemical_formula_sum "Si O2"
_cell_formula_units_Z 64
_cell_length_a 9.900505
_cell_length_b 18.365931
_cell_length_c 21.445268
_cell_angle_alpha 90.000000
_cell_angle_beta 90.000000
_cell_angle_gamma 90.000000
_cell_volume 3899.435793
_symmetry_space_group_name_H-M "I M M A"
_symmetry_group_IT_number 74
_symmetry_cell_setting 'orthorhombic'
loop_
_space_group_symop_operation_xyz
x,y,z
-x,1/2-y,z
x,-y,-z
-x,1/2+y,-z
-x,-y,-z
x,1/2+y,-z
-x,y,z
x,1/2-y,z
1/2+x,1/2+y,1/2+z
1/2-x,-y,1/2+z
1/2+x,1/2-y,1/2-z
1/2-x,y,1/2-z
1/2-x,1/2-y,1/2-z
1/2+x,y,1/2-z
1/2-x,1/2+y,1/2+z
1/2+x,-y,1/2+z
loop_
_atom_site_type_symbol
_atom_site_label
_atom_site_fract_x
_atom_site_fract_y
_atom_site_fract_z
Si Si1 0.500000 0.408935 0.559438
Si Si2 0.000000 0.034093 0.151039
Si Si3 0.789036 0.592163 0.611666
Si Si4 0.500000 0.902080 0.780299
Si Si5 0.220312 0.250000 0.092142
Si Si6 0.500000 0.250000 0.296867
Si Si7 0.500000 0.750000 0.483788
Si Si8 0.260548 0.000000 0.500000
O O1 0.500000 0.452692 0.624266
O O2 0.500000 0.322744 0.556972
O O3 0.634470 0.438399 0.524589
O O4 0.868350 0.075497 0.125403
O O5 0.000000 0.040676 0.224582
O O6 0.803441 0.675715 0.591646
O O7 0.822370 0.535822 0.556381
O O8 0.872490 0.585798 0.674950
O O9 0.500000 0.822282 0.746664
O O10 0.128579 0.250000 0.155831
O O11 0.125004 0.250000 0.031801
#
# Coordination Sequence:
#
# PCOD9537768 Si02
#       8
#     8   8  16   8   8   4   4   8
#     4   9  17  29  54  75 100 123 168 220 256 287
#     4  10  20  35  50  74 101 134 169 214 248 289
#     4  11  21  34  52  72 105 138 172 208 248 297
#     4  12  23  33  49  74 107 147 171 194 241 311
#     4  11  19  30  51  75 105 141 163 207 246 299
#     4  11  22  32  46  76 112 139 178 192 232 311
#     4  11  16  30  54  86  94 127 168 216 266 289
#     4   9  18  33  48  74 100 132 168 214 252 294
#
# _framework density 16.412631000000001
#
# number of rings (size 3 to 8) (size 9 to 14) (size 15 to 20)
#    0.000    1.500    5.000    3.000    0.000    1.500 
#    0.000    0.000    0.000    0.000    0.000   15.750 
#    0.000    0.000    0.000    0.000    0.000    0.000 
#
# Total GULP energy -178530.639794 kJ/mol
# GULP energy per Si atom -5579.082494 kJ/mol
# Density = 1.637528 g / cm^3
# Si number density = 16.412631 Si / 1000 Ang^3
#
#
#
# Elastic Constant Matrix: (Units=GPa)
#
#
# Indices 1 2 3 4 5 6 
#
# 1 37.9307 15.9347 21.1599 0.0000 0.0000 0.0000
# 2 15.9347 133.8619 68.2980 0.0000 0.0000 0.0000
# 3 21.1599 68.2980 113.2402 0.0000 0.0000 0.0000
# 4 0.0000 0.0000 0.0000 37.6444 0.0000 0.0000
# 5 0.0000 0.0000 0.0000 0.0000 34.9311 0.0000
# 6 0.0000 0.0000 0.0000 0.0000 0.0000 3.2958
#
#
#
# Elastic Compliance Matrix: (Units=1/GPa)
#
#
# Indices 1 2 3 4 5 6 
#
# 1 0.029526 -0.001011 -0.004908 0.000000 0.000000 0.000000
# 2 -0.001011 0.010826 -0.006340 0.000000 0.000000 0.000000
# 3 -0.004908 -0.006340 0.013572 0.000000 0.000000 0.000000
# 4 0.000000 0.000000 0.000000 0.026564 0.000000 0.000000
# 5 0.000000 0.000000 0.000000 0.000000 0.028628 0.000000
# 6 0.000000 0.000000 0.000000 0.000000 0.000000 0.303419
#
#
# Mechanical properties :
#
#
# Convention : Reuss Voigt Hill
#
# Bulk Modulus (GPa) = 34.00641 55.09087 44.54864
# Shear Modulus (GPa) = 11.18934 27.15027 19.16981
#
# Velocity S-wave (km/s) = 2.61387 4.07164 3.42130
# Velocity P-wave (km/s) = 5.46575 7.46614 6.54285
#
# Compressibility (1/GPa) = 0.02940622
#
# Stress axis : x y z
#
# Youngs Moduli (GPa) = 33.86818 92.37340 73.68213
#
# Poissons Ratio (x) = 0.09338 0.36160
# Poissons Ratio (y) = 0.03424 0.46717
# Poissons Ratio (z) = 0.16621 0.58568
#
# Static dielectric constant tensor:
#      x y z
#    x 1.585380 0.000000 0.000000 
#    y 0.000000 1.546980 0.000000 
#    z 0.000000 0.000000 1.562670 
# 
# From -- ./inp_files/43702.got.cif
#   From: 2010.05.17/outbox.cif.g08.bks.cpg/sg74_22_cif.got.tgz:43702.got - 2010.06.03 17:57:02.
