data_PCOD9537311
_publ_section_title
;
Structure prediction by ZEFSAII (Michael W. Deem and Ramdas Pophale) SiO2 
 PCOD9537311
Probable space group: I M M A
;
_chemical_formula_sum "Si O2"
_cell_formula_units_Z 104
_cell_length_a 9.411649
_cell_length_b 28.004599
_cell_length_c 21.848677
_cell_angle_alpha 90.000000
_cell_angle_beta 90.000000
_cell_angle_gamma 90.000000
_cell_volume 5758.643915
_symmetry_space_group_name_H-M "I M M A"
_symmetry_group_IT_number 74
_symmetry_cell_setting 'orthorhombic'
loop_
_space_group_symop_operation_xyz
x,y,z
-x,1/2-y,z
x,-y,-z
-x,1/2+y,-z
-x,-y,-z
x,1/2+y,-z
-x,y,z
x,1/2-y,z
1/2+x,1/2+y,1/2+z
1/2-x,-y,1/2+z
1/2+x,1/2-y,1/2-z
1/2-x,y,1/2-z
1/2-x,1/2-y,1/2-z
1/2+x,y,1/2-z
1/2-x,1/2+y,1/2+z
1/2+x,-y,1/2+z
loop_
_atom_site_type_symbol
_atom_site_label
_atom_site_fract_x
_atom_site_fract_y
_atom_site_fract_z
Si Si1 0.831671 0.804122 0.490772
Si Si2 0.165368 0.558987 0.057566
Si Si3 0.840443 0.535089 0.864196
Si Si4 0.331498 0.099195 0.056766
Si Si5 0.660087 0.109423 0.835566
Si Si6 0.750000 0.528790 0.250000
Si Si7 0.831776 0.805577 0.138469
O O1 0.808881 0.750000 0.513416
O O2 0.801585 0.845486 0.540017
O O3 0.735755 0.810127 0.430030
O O4 0.000000 0.808279 0.474550
O O5 0.169247 0.505082 0.082564
O O6 0.239452 0.588570 0.111506
O O7 0.000000 0.571808 0.048517
O O8 0.256267 0.570500 0.998163
O O9 0.732257 0.576994 0.881305
O O10 0.813988 0.505711 0.801796
O O11 0.000000 0.554247 0.864061
O O12 0.500000 0.092007 0.055412
O O13 0.500000 0.119043 0.856671
O O14 0.653191 0.067364 0.785499
O O15 0.739940 0.158544 0.820143
O O16 0.816517 0.750000 0.155950
O O17 0.000000 0.817292 0.138547
#
# Coordination Sequence:
#
# PCOD9537311 Si02
#       7
#    16  16  16  16  16   8  16
#     4   9  18  33  52  77 112 148 179 214 261 318
#     4  10  20  34  52  76 109 145 178 216 268 325
#     4  10  22  38  55  75 104 142 179 223 276 325
#     4  11  21  32  52  83 112 141 178 219 265 319
#     4  11  21  35  57  80 104 139 183 230 277 323
#     4  10  24  42  59  76  99 138 190 232 272 328
#     4  10  20  33  52  79 109 143 182 222 268 323
#
# _framework density 18.059808
#
# number of rings (size 3 to 8) (size 9 to 14) (size 15 to 20)
#    0.000    1.846    1.538    2.769    0.000    8.923 
#    0.000    0.385    0.000    0.000    0.000    0.538 
#    0.000    0.000    0.000    0.000    0.000    0.000 
#
# Total GULP energy -289922.323335 kJ/mol
# GULP energy per Si atom -5575.429295 kJ/mol
# Density = 1.801870 g / cm^3
# Si number density = 18.059808 Si / 1000 Ang^3
#
#
#
# Elastic Constant Matrix: (Units=GPa)
#
#
# Indices 1 2 3 4 5 6 
#
# 1 121.0757 63.7417 32.2921 0.0000 0.0000 0.0000
# 2 63.7417 103.6698 57.1179 0.0000 0.0000 0.0000
# 3 32.2921 57.1179 56.1405 -0.0001 0.0000 0.0000
# 4 0.0000 0.0000 -0.0001 26.0043 0.0000 0.0000
# 5 0.0000 0.0000 0.0000 0.0000 4.2122 0.0000
# 6 0.0000 0.0000 0.0000 0.0000 0.0000 18.5174
#
#
#
# Elastic Compliance Matrix: (Units=1/GPa)
#
#
# Indices 1 2 3 4 5 6 
#
# 1 0.012261 -0.008313 0.001405 0.000000 0.000000 0.000000
# 2 -0.008313 0.027586 -0.023285 0.000000 0.000000 0.000000
# 3 0.001405 -0.023285 0.040695 0.000000 0.000000 0.000000
# 4 0.000000 0.000000 0.000000 0.038455 0.000000 0.000000
# 5 0.000000 0.000000 0.000000 0.000000 0.237404 0.000000
# 6 0.000000 0.000000 0.000000 0.000000 0.000000 0.054003
#
#
# Mechanical properties :
#
#
# Convention : Reuss Voigt Hill
#
# Bulk Modulus (GPa) = 49.61232 65.24328 57.42780
# Shear Modulus (GPa) = 10.47101 18.26239 14.36670
#
# Velocity S-wave (km/s) = 2.41051 3.18341 2.82353
# Velocity P-wave (km/s) = 5.93954 7.05102 6.51901
#
# Compressibility (1/GPa) = 0.02015628
#
# Stress axis : x y z
#
# Youngs Moduli (GPa) = 81.55996 36.24998 24.57324
#
# Poissons Ratio (x) = 0.30134 -0.03452
# Poissons Ratio (y) = 0.67799 0.57219
# Poissons Ratio (z) = -0.11459 0.84408
#
# Static dielectric constant tensor:
#      x y z
#    x 1.620010 0.000000 0.000000 
#    y 0.000000 1.669230 0.000000 
#    z 0.000000 0.000000 1.645320 
# 
# From -- ./inp_files/49585.got.cif
#   From: 2010.05.17/outbox.cif.g08.bks.cpg/sg74_25_cif.got.tgz:49585.got - 2010.06.03 17:57:02.
