data_PCOD9537599
_publ_section_title
;
Structure prediction by ZEFSAII (Michael W. Deem and Ramdas Pophale) SiO2 
 PCOD9537599
Probable space group: I M M A
;
_chemical_formula_sum "Si O2"
_cell_formula_units_Z 96
_cell_length_a 9.495067
_cell_length_b 29.119967
_cell_length_c 19.336731
_cell_angle_alpha 90.000000
_cell_angle_beta 90.000000
_cell_angle_gamma 90.000000
_cell_volume 5346.529504
_symmetry_space_group_name_H-M "I M M A"
_symmetry_group_IT_number 74
_symmetry_cell_setting 'orthorhombic'
loop_
_space_group_symop_operation_xyz
x,y,z
-x,1/2-y,z
x,-y,-z
-x,1/2+y,-z
-x,-y,-z
x,1/2+y,-z
-x,y,z
x,1/2-y,z
1/2+x,1/2+y,1/2+z
1/2-x,-y,1/2+z
1/2+x,1/2-y,1/2-z
1/2-x,y,1/2-z
1/2-x,1/2-y,1/2-z
1/2+x,y,1/2-z
1/2-x,1/2+y,1/2+z
1/2+x,-y,1/2+z
loop_
_atom_site_type_symbol
_atom_site_label
_atom_site_fract_x
_atom_site_fract_y
_atom_site_fract_z
Si Si1 0.339153 0.853727 0.416289
Si Si2 0.167885 0.196308 0.322575
Si Si3 0.671342 0.021095 0.426180
Si Si4 0.656648 0.695129 0.186290
Si Si5 0.333301 0.943187 0.320826
Si Si6 0.333369 0.872820 0.578771
O O1 0.500000 0.838562 0.402767
O O2 0.230843 0.818043 0.384557
O O3 0.316726 0.900763 0.373802
O O4 0.322927 0.861477 0.497416
O O5 0.185298 0.250000 0.343553
O O6 0.250000 0.190674 0.250000
O O7 0.239493 0.161716 0.376668
O O8 0.000000 0.187909 0.314946
O O9 0.500000 0.020486 0.428873
O O10 0.711512 0.073913 0.414506
O O11 0.718938 0.000000 0.500000
O O12 0.713923 0.988191 0.363383
O O13 0.500000 0.675864 0.190890
O O14 0.649523 0.750000 0.192065
O O15 0.750000 0.677726 0.250000
O O16 0.500000 0.947094 0.306071
O O17 0.250000 0.937121 0.250000
O O18 0.500000 0.868880 0.597863
#
# Coordination Sequence:
#
# PCOD9537599 Si02
#       6
#    16  16  16  16  16  16
#     4  10  20  34  54  80 109 144 184 224 269 327
#     4  10  22  41  63  86 116 153 191 237 294 351
#     4   9  16  33  58  80 108 149 191 230 276 333
#     4  10  21  36  53  73 101 139 181 226 276 326
#     4  10  20  34  54  80 109 144 186 227 272 328
#     4  10  20  35  60  89 114 148 191 232 279 336
#
# _framework density 17.955573000000001
#
# number of rings (size 3 to 8) (size 9 to 14) (size 15 to 20)
#    0.000    2.167    1.667    1.500    0.000    6.000 
#    0.000    5.833    0.000    1.000    0.000    0.000 
#    0.000    0.000    0.000    0.000    0.000    0.000 
#
# Total GULP energy -267820.898110 kJ/mol
# GULP energy per Si atom -5579.602044 kJ/mol
# Density = 1.791470 g / cm^3
# Si number density = 17.955573 Si / 1000 Ang^3
#
#
#
# Elastic Constant Matrix: (Units=GPa)
#
#
# Indices 1 2 3 4 5 6 
#
# 1 96.8190 60.0004 64.9803 0.0000 0.0000 0.0000
# 2 60.0004 82.1295 55.9486 0.0000 0.0000 0.0000
# 3 64.9803 55.9486 101.8577 -0.0001 0.0000 0.0000
# 4 0.0000 0.0000 -0.0001 33.2585 0.0000 0.0000
# 5 0.0000 0.0000 0.0000 0.0000 27.6057 0.0000
# 6 0.0000 0.0000 0.0000 0.0000 0.0000 18.6377
#
#
#
# Elastic Compliance Matrix: (Units=1/GPa)
#
#
# Indices 1 2 3 4 5 6 
#
# 1 0.022795 -0.010781 -0.008621 0.000000 0.000000 0.000000
# 2 -0.010781 0.024555 -0.006610 0.000000 0.000000 0.000000
# 3 -0.008621 -0.006610 0.018948 0.000000 0.000000 0.000000
# 4 0.000000 0.000000 0.000000 0.030067 0.000000 0.000000
# 5 0.000000 0.000000 0.000000 0.000000 0.036224 0.000000
# 6 0.000000 0.000000 0.000000 0.000000 0.000000 0.053655
#
#
# Mechanical properties :
#
#
# Convention : Reuss Voigt Hill
#
# Bulk Modulus (GPa) = 70.05076 71.40721 70.72899
# Shear Modulus (GPa) = 20.57400 22.55885 21.56643
#
# Velocity S-wave (km/s) = 3.38868 3.54838 3.46945
# Velocity P-wave (km/s) = 7.37624 7.52616 7.45158
#
# Compressibility (1/GPa) = 0.01427536
#
# Stress axis : x y z
#
# Youngs Moduli (GPa) = 43.86863 40.72559 52.77642
#
# Poissons Ratio (x) = 0.43905 0.45497
# Poissons Ratio (y) = 0.47293 0.34884
# Poissons Ratio (z) = 0.37818 0.26919
#
# Static dielectric constant tensor:
#      x y z
#    x 1.607430 0.000000 0.000000 
#    y 0.000000 1.632170 0.000000 
#    z 0.000000 0.000000 1.590160 
# 
# From -- ./inp_files/49171.got.cif
#   From: 2010.05.17/outbox.cif.g08.bks.cpg/sg74_25_cif.got.tgz:49171.got - 2010.06.03 17:57:02.
