data_PCOD9537147
_publ_section_title
;
Structure prediction by ZEFSAII (Michael W. Deem and Ramdas Pophale) SiO2 
 PCOD9537147
Probable space group: I M M A
;
_chemical_formula_sum "Si O2"
_cell_formula_units_Z 104
_cell_length_a 33.496924
_cell_length_b 8.861742
_cell_length_c 20.485531
_cell_angle_alpha 90.000000
_cell_angle_beta 90.000000
_cell_angle_gamma 90.000000
_cell_volume 6080.947521
_symmetry_space_group_name_H-M "I M M A"
_symmetry_group_IT_number 74
_symmetry_cell_setting 'orthorhombic'
loop_
_space_group_symop_operation_xyz
x,y,z
-x,1/2-y,z
x,-y,-z
-x,1/2+y,-z
-x,-y,-z
x,1/2+y,-z
-x,y,z
x,1/2-y,z
1/2+x,1/2+y,1/2+z
1/2-x,-y,1/2+z
1/2+x,1/2-y,1/2-z
1/2-x,y,1/2-z
1/2-x,1/2-y,1/2-z
1/2+x,y,1/2-z
1/2-x,1/2+y,1/2+z
1/2+x,-y,1/2+z
loop_
_atom_site_type_symbol
_atom_site_label
_atom_site_fract_x
_atom_site_fract_y
_atom_site_fract_z
Si Si1 0.199038 0.931551 0.571005
Si Si2 0.151132 0.929644 0.200136
Si Si3 0.500000 0.067924 0.428707
Si Si4 0.871984 0.569104 0.348894
Si Si5 0.930718 0.930640 0.831199
Si Si6 0.455028 0.068886 0.182252
Si Si7 0.234874 0.068314 0.178269
O O1 0.197759 0.750000 0.567976
O O2 0.233655 0.976403 0.622584
O O3 0.206823 0.000000 0.500000
O O4 0.157259 0.993795 0.598970
O O5 0.153594 0.750000 0.197417
O O6 0.144912 0.973350 0.276634
O O7 0.111535 0.988135 0.164852
O O8 0.190922 0.001397 0.171098
O O9 0.500000 0.250000 0.431812
O O10 0.538689 0.022223 0.387008
O O11 0.500000 0.000000 0.500000
O O12 0.871052 0.750000 0.354552
O O13 0.917538 0.510814 0.351964
O O14 0.925004 0.750000 0.834562
O O15 0.949462 0.962059 0.759735
O O16 0.500000 0.023005 0.162671
O O17 0.451747 0.250000 0.173706
O O18 0.232530 0.250000 0.178173
O O19 0.250000 0.019918 0.250000
#
# Coordination Sequence:
#
# PCOD9537147 Si02
#       7
#    16  16   8  16  16  16  16
#     4  11  23  39  59  82 111 146 184 225 271 327
#     4  10  20  32  52  82 111 137 173 226 277 316
#     4  10  20  34  52  74 100 140 185 226 271 324
#     4  10  20  33  51  80 114 145 177 217 270 323
#     4   9  17  32  51  72 102 138 178 220 268 324
#     4   9  16  29  52  79 106 137 176 222 268 317
#     4  10  20  36  58  82 108 143 185 225 270 327
#
# _framework density 17.102596999999999
#
# number of rings (size 3 to 8) (size 9 to 14) (size 15 to 20)
#    0.000    2.154    2.308    1.385    0.000    3.692 
#    0.000    0.769    0.000    0.462    0.000    0.000 
#    0.000    0.000    0.000    0.000    0.000    0.000 
#
# Total GULP energy -290149.866352 kJ/mol
# GULP energy per Si atom -5579.805122 kJ/mol
# Density = 1.706367 g / cm^3
# Si number density = 17.102597 Si / 1000 Ang^3
#
#
#
# Elastic Constant Matrix: (Units=GPa)
#
#
# Indices 1 2 3 4 5 6 
#
# 1 163.2942 44.6831 68.7271 0.0000 0.0000 0.0000
# 2 44.6831 28.2962 35.2507 0.0000 0.0000 0.0000
# 3 68.7271 35.2507 101.6796 0.0000 0.0000 0.0000
# 4 0.0000 0.0000 0.0000 25.3589 0.0000 0.0000
# 5 0.0000 0.0000 0.0000 0.0000 22.6437 0.0000
# 6 0.0000 0.0000 0.0000 0.0000 0.0000 13.2151
#
#
#
# Elastic Compliance Matrix: (Units=1/GPa)
#
#
# Indices 1 2 3 4 5 6 
#
# 1 0.011138 -0.014451 -0.002519 0.000000 0.000000 0.000000
# 2 -0.014451 0.080957 -0.018299 0.000000 0.000000 0.000000
# 3 -0.002519 -0.018299 0.017881 0.000000 0.000000 0.000000
# 4 0.000000 0.000000 0.000000 0.039434 0.000000 0.000000
# 5 0.000000 0.000000 0.000000 0.000000 0.044162 0.000000
# 6 0.000000 0.000000 0.000000 0.000000 0.000000 0.075671
#
#
# Mechanical properties :
#
#
# Convention : Reuss Voigt Hill
#
# Bulk Modulus (GPa) = 25.35547 65.62131 45.48839
# Shear Modulus (GPa) = 14.16728 21.88416 18.02572
#
# Velocity S-wave (km/s) = 2.88126 3.58100 3.25002
# Velocity P-wave (km/s) = 5.09182 7.45323 6.38268
#
# Compressibility (1/GPa) = 0.03943923
#
# Stress axis : x y z
#
# Youngs Moduli (GPa) = 89.78046 12.35231 55.92524
#
# Poissons Ratio (x) = 0.17850 0.14085
# Poissons Ratio (y) = 1.29743 1.02335
# Poissons Ratio (z) = 0.22612 0.22603
#
# Static dielectric constant tensor:
#      x y z
#    x 1.573330 0.000000 0.000000 
#    y 0.000000 1.568850 0.000000 
#    z 0.000000 0.000000 1.564510 
# 
# From -- ./inp_files/55637.got.cif
#   From: 2010.05.17/outbox.cif.g08.bks.cpg/sg74_28_cif.got.tgz:55637.got - 2010.06.03 17:57:02.
