data_PCOD9537713
_publ_section_title
;
Structure prediction by ZEFSAII (Michael W. Deem and Ramdas Pophale) SiO2 
 PCOD9537713
Probable space group: I M M A
;
_chemical_formula_sum "Si O2"
_cell_formula_units_Z 116
_cell_length_a 26.688106
_cell_length_b 7.671943
_cell_length_c 25.617460
_cell_angle_alpha 90.000000
_cell_angle_beta 90.000000
_cell_angle_gamma 90.000000
_cell_volume 5245.165406
_symmetry_space_group_name_H-M "I M M A"
_symmetry_group_IT_number 74
_symmetry_cell_setting 'orthorhombic'
loop_
_space_group_symop_operation_xyz
x,y,z
-x,1/2-y,z
x,-y,-z
-x,1/2+y,-z
-x,-y,-z
x,1/2+y,-z
-x,y,z
x,1/2-y,z
1/2+x,1/2+y,1/2+z
1/2-x,-y,1/2+z
1/2+x,1/2-y,1/2-z
1/2-x,y,1/2-z
1/2-x,1/2-y,1/2-z
1/2+x,y,1/2-z
1/2-x,1/2+y,1/2+z
1/2+x,-y,1/2+z
loop_
_atom_site_type_symbol
_atom_site_label
_atom_site_fract_x
_atom_site_fract_y
_atom_site_fract_z
Si Si1 0.735703 0.539339 0.094033
Si Si2 0.100774 0.042667 0.231117
Si Si3 0.215353 0.460334 0.796844
Si Si4 0.500000 0.250000 0.582551
Si Si5 0.928694 0.047970 0.120446
Si Si6 0.661154 0.543284 0.443931
Si Si7 0.941469 0.963909 0.657705
Si Si8 0.376486 0.548406 0.939314
O O1 0.732119 0.750000 0.093671
O O2 0.757069 0.482066 0.150267
O O3 0.781387 0.482655 0.057155
O O4 0.681417 0.475066 0.077379
O O5 0.093773 0.250000 0.232521
O O6 0.068735 0.984952 0.180635
O O7 0.083926 0.975512 0.287765
O O8 0.158501 0.009260 0.216575
O O9 0.215583 0.250000 0.799059
O O10 0.250000 0.521672 0.750000
O O11 0.457270 0.405853 0.586280
O O12 0.944982 0.250000 0.116212
O O13 0.871420 0.041990 0.101215
O O14 0.638607 0.500000 0.500000
O O15 0.661140 0.750000 0.434988
O O16 0.939460 0.750000 0.658429
O O17 0.911429 0.029851 0.606601
O O18 0.000000 0.012125 0.656247
O O19 0.388697 0.750000 0.937948
O O20 0.383210 0.500000 0.000000
#
# Coordination Sequence:
#
# PCOD9537713 Si02
#       8
#    16  16  16   4  16  16  16  16
#     4  10  21  37  60  91 129 169 211 258 321 391
#     4  10  21  37  62  93 126 161 210 267 320 392
#     4  10  20  34  56  87 128 171 203 246 313 384
#     4  12  26  44  70  94 136 172 222 276 330 394
#     4  11  24  43  69  99 128 172 220 274 335 397
#     4  11  22  40  65  93 129 169 214 270 327 396
#     4   9  20  40  63  90 123 168 218 272 332 393
#     4  11  23  39  63  90 126 167 216 274 331 396
#
# _framework density 22.115604000000001
#
# number of rings (size 3 to 8) (size 9 to 14) (size 15 to 20)
#    0.000    1.655    2.069    2.276    1.931    3.310 
#    0.000    1.034    0.000    2.897    0.000    0.000 
#    0.000    0.000    0.000    0.000    0.000    0.000 
#
# Total GULP energy -323283.460985 kJ/mol
# GULP energy per Si atom -5573.852776 kJ/mol
# Density = 2.206527 g / cm^3
# Si number density = 22.115604 Si / 1000 Ang^3
#
#
#
# Elastic Constant Matrix: (Units=GPa)
#
#
# Indices 1 2 3 4 5 6 
#
# 1 93.0667 -1.6308 55.6964 0.0000 0.0000 0.0000
# 2 -1.6308 58.9778 7.4089 0.0000 0.0000 0.0000
# 3 55.6964 7.4089 166.7644 0.0000 0.0000 0.0000
# 4 0.0000 0.0000 0.0000 -3.2738 0.0000 0.0000
# 5 0.0000 0.0000 0.0000 0.0000 1.5735 0.0000
# 6 0.0000 0.0000 0.0000 0.0000 0.0000 -102.2971
#
#
#
# Elastic Compliance Matrix: (Units=1/GPa)
#
#
# Indices 1 2 3 4 5 6 
#
# 1 0.013481 0.000944 -0.004544 0.000000 0.000000 0.000000
# 2 0.000944 0.017117 -0.001076 0.000000 0.000000 0.000000
# 3 -0.004544 -0.001076 0.007562 0.000000 0.000000 0.000000
# 4 0.000000 0.000000 0.000000 -0.305459 0.000000 0.000000
# 5 0.000000 0.000000 0.000000 0.000000 0.635538 0.000000
# 6 0.000000 0.000000 0.000000 0.000000 0.000000 -0.009775
#
#
# Mechanical properties :
#
#
# Convention : Reuss Voigt Hill
#
# Bulk Modulus (GPa) = 34.71358 49.08421 41.89890
# Shear Modulus (GPa) = 13.24788 -3.64386 4.80201
#
# Velocity S-wave (km/s) = 2.45016 -1.28500 1.47514
# Velocity P-wave (km/s) = 4.87185 4.47671 4.67845
#
# Compressibility (1/GPa) = 0.02880717
#
# Stress axis : x y z
#
# Youngs Moduli (GPa) = 74.17768 58.42236 132.23983
#
# Poissons Ratio (x) = -0.05513 0.60095
# Poissons Ratio (y) = -0.07000 0.14224
# Poissons Ratio (z) = 0.33709 0.06284
#
# Static dielectric constant tensor:
#      x y z
#    x 1.997370 0.000000 0.000000 
#    y 0.000000 1.814390 0.000000 
#    z 0.000000 0.000000 1.883280 
# 
# From -- ./inp_files/62417.got.cif
#   From: 2010.05.17/outbox.cif.g08.bks.cpg/sg74_32_cif.got.tgz:62417.got - 2010.06.03 17:57:02.
