data_PCOD9537111
_publ_section_title
;
Structure prediction by ZEFSAII (Michael W. Deem and Ramdas Pophale) SiO2 
 PCOD9537111
Probable space group: I M M A
;
_chemical_formula_sum "Si O2"
_cell_formula_units_Z 88
_cell_length_a 28.932028
_cell_length_b 7.895365
_cell_length_c 19.295717
_cell_angle_alpha 90.000000
_cell_angle_beta 90.000000
_cell_angle_gamma 90.000000
_cell_volume 4407.699819
_symmetry_space_group_name_H-M "I M M A"
_symmetry_group_IT_number 74
_symmetry_cell_setting 'orthorhombic'
loop_
_space_group_symop_operation_xyz
x,y,z
-x,1/2-y,z
x,-y,-z
-x,1/2+y,-z
-x,-y,-z
x,1/2+y,-z
-x,y,z
x,1/2-y,z
1/2+x,1/2+y,1/2+z
1/2-x,-y,1/2+z
1/2+x,1/2-y,1/2-z
1/2-x,y,1/2-z
1/2-x,1/2-y,1/2-z
1/2+x,y,1/2-z
1/2-x,1/2+y,1/2+z
1/2+x,-y,1/2+z
loop_
_atom_site_type_symbol
_atom_site_label
_atom_site_fract_x
_atom_site_fract_y
_atom_site_fract_z
Si Si1 0.552258 0.550432 0.204650
Si Si2 0.500000 0.454619 0.419652
Si Si3 0.284831 0.953786 0.918698
Si Si4 0.315698 0.454948 0.418767
Si Si5 0.407488 0.950572 0.654675
Si Si6 0.385876 0.952716 0.919358
O O1 0.500000 0.480755 0.209901
O O2 0.550204 0.750000 0.217507
O O3 0.584668 0.473741 0.263935
O O4 0.574173 0.520792 0.129678
O O5 0.500000 0.250000 0.412752
O O6 0.500000 0.500000 0.500000
O O7 0.546610 0.520150 0.383085
O O8 0.285186 0.750000 0.911611
O O9 0.234863 0.015910 0.892659
O O10 0.335024 0.015410 0.893754
O O11 0.284491 0.000000 0.000000
O O12 0.320880 0.500000 0.500000
O O13 0.314786 0.250000 0.414432
O O14 0.359638 0.520033 0.375930
O O15 0.406543 0.750000 0.640142
O O16 0.386249 0.750000 0.914728
O O17 0.391333 0.000000 0.000000
#
# Coordination Sequence:
#
# PCOD9537111 Si02
#       6
#    16   8  16  16  16  16
#     4  11  24  40  57  77 103 138 178 222 272 322
#     4  10  20  32  50  76 105 138 181 224 262 306
#     4   8  15  29  50  78 108 138 172 210 258 310
#     4   9  17  30  51  79 110 143 179 219 261 308
#     4  10  20  35  53  75 106 144 182 220 264 314
#     4  10  20  36  60  85 109 137 171 215 262 317
#
# _framework density 19.965060999999999
#
# number of rings (size 3 to 8) (size 9 to 14) (size 15 to 20)
#    0.000    2.364    0.909    1.636    0.000    3.636 
#    0.000    0.909    0.000    5.455    0.000    0.000 
#    0.000    0.000    0.000    0.000    0.000    0.000 
#
# Total GULP energy -245312.233543 kJ/mol
# GULP energy per Si atom -5575.278035 kJ/mol
# Density = 1.991962 g / cm^3
# Si number density = 19.965061 Si / 1000 Ang^3
#
#
#
# Elastic Constant Matrix: (Units=GPa)
#
#
# Indices 1 2 3 4 5 6 
#
# 1 90.3639 -1.2836 26.2236 0.0000 0.0000 0.0000
# 2 -1.2836 17.3848 -16.4467 0.0000 0.0000 0.0000
# 3 26.2236 -16.4467 56.9293 0.0000 0.0000 0.0000
# 4 0.0000 0.0000 0.0000 27.0667 0.0000 0.0000
# 5 0.0000 0.0000 0.0000 0.0000 -20.2154 0.0000
# 6 0.0000 0.0000 0.0000 0.0000 0.0000 6.6480
#
#
#
# Elastic Compliance Matrix: (Units=1/GPa)
#
#
# Indices 1 2 3 4 5 6 
#
# 1 0.013307 -0.006628 -0.008044 0.000000 0.000000 0.000000
# 2 -0.006628 0.082456 0.026874 0.000000 0.000000 0.000000
# 3 -0.008044 0.026874 0.029035 0.000000 0.000000 0.000000
# 4 0.000000 0.000000 0.000000 0.036946 0.000000 0.000000
# 5 0.000000 0.000000 0.000000 0.000000 -0.049467 0.000000
# 6 0.000000 0.000000 0.000000 0.000000 0.000000 0.150420
#
#
# Mechanical properties :
#
#
# Convention : Reuss Voigt Hill
#
# Bulk Modulus (GPa) = 6.70229 20.18494 13.44361
# Shear Modulus (GPa) = 17.35957 13.11220 15.23588
#
# Velocity S-wave (km/s) = 2.95192 2.56551 2.76547
# Velocity P-wave (km/s) = 3.87076 4.34832 4.11647
#
# Compressibility (1/GPa) = 0.14920268
#
# Stress axis : x y z
#
# Youngs Moduli (GPa) = 75.15052 12.12767 34.44121
#
# Poissons Ratio (x) = 0.08038 0.27705
# Poissons Ratio (y) = 0.49807 -0.92558
# Poissons Ratio (z) = 0.60452 -0.32592
#
# Static dielectric constant tensor:
#      x y z
#    x 1.771170 0.000000 0.000000 
#    y 0.000000 1.700810 0.000000 
#    z 0.000000 0.000000 1.656520 
# 
# From -- ./inp_files/47019.got.cif
#   From: 2010.05.17/outbox.cif.g08.bks.cpg/sg74_24_cif.got.tgz:47019.got - 2010.06.03 17:57:02.
