data_PCOD9537207
_publ_section_title
;
Structure prediction by ZEFSAII (Michael W. Deem and Ramdas Pophale) SiO2 
 PCOD9537207
Probable space group: I M M A
;
_chemical_formula_sum "Si O2"
_cell_formula_units_Z 80
_cell_length_a 16.487781
_cell_length_b 8.918819
_cell_length_c 29.603756
_cell_angle_alpha 90.000000
_cell_angle_beta 90.000000
_cell_angle_gamma 90.000000
_cell_volume 4353.277745
_symmetry_space_group_name_H-M "I M M A"
_symmetry_group_IT_number 74
_symmetry_cell_setting 'orthorhombic'
loop_
_space_group_symop_operation_xyz
x,y,z
-x,1/2-y,z
x,-y,-z
-x,1/2+y,-z
-x,-y,-z
x,1/2+y,-z
-x,y,z
x,1/2-y,z
1/2+x,1/2+y,1/2+z
1/2-x,-y,1/2+z
1/2+x,1/2-y,1/2-z
1/2-x,y,1/2-z
1/2-x,1/2-y,1/2-z
1/2+x,y,1/2-z
1/2-x,1/2+y,1/2+z
1/2+x,-y,1/2+z
loop_
_atom_site_type_symbol
_atom_site_label
_atom_site_fract_x
_atom_site_fract_y
_atom_site_fract_z
Si Si1 0.094187 0.070990 0.372017
Si Si2 0.258195 0.569961 0.386573
Si Si3 0.904994 0.415382 0.722664
Si Si4 0.311460 0.424634 0.292713
Si Si5 0.591144 0.930695 0.450280
O O1 0.099474 0.250000 0.375715
O O2 0.000000 0.027159 0.382811
O O3 0.168830 0.994938 0.398589
O O4 0.111242 0.022034 0.320130
O O5 0.253367 0.750000 0.385470
O O6 0.281738 0.506295 0.337415
O O7 0.332234 0.524645 0.419558
O O8 0.865349 0.250000 0.717853
O O9 0.886034 0.489169 0.770471
O O10 0.000000 0.395486 0.720207
O O11 0.325847 0.250000 0.302078
O O12 0.250000 0.434192 0.250000
O O13 0.500000 0.972048 0.433085
O O14 0.592976 0.750000 0.453467
O O15 0.599228 0.000000 0.500000
#
# Coordination Sequence:
#
# PCOD9537207 Si02
#       5
#    16  16  16  16  16
#     4  10  20  34  52  76 108 146 188 231 274 327
#     4  11  22  35  57  85 113 147 189 236 285 341
#     4  10  20  33  50  71  98 138 186 233 280 330
#     4  11  22  34  49  73 108 148 189 233 279 330
#     4   9  20  40  64  90 118 147 182 229 287 349
#
# _framework density 18.376958999999999
#
# number of rings (size 3 to 8) (size 9 to 14) (size 15 to 20)
#    0.000    1.800    2.000    2.400    0.000    5.600 
#    0.000    2.000    0.000    0.600    0.000    0.000 
#    0.000    0.000    0.000    0.000    0.000    0.000 
#
# Total GULP energy -222842.412543 kJ/mol
# GULP energy per Si atom -5571.060314 kJ/mol
# Density = 1.833513 g / cm^3
# Si number density = 18.376959 Si / 1000 Ang^3
#
#
#
# Elastic Constant Matrix: (Units=GPa)
#
#
# Indices 1 2 3 4 5 6 
#
# 1 149.1630 44.1321 64.0857 0.0000 0.0000 0.0000
# 2 44.1321 69.0839 25.5158 0.0000 0.0000 0.0000
# 3 64.0857 25.5158 52.7580 0.0000 0.0000 0.0000
# 4 0.0000 0.0000 0.0000 23.7777 0.0000 0.0000
# 5 0.0000 0.0000 0.0000 0.0000 26.6897 0.0000
# 6 0.0000 0.0000 0.0000 0.0000 0.0000 25.3599
#
#
#
# Elastic Compliance Matrix: (Units=1/GPa)
#
#
# Indices 1 2 3 4 5 6 
#
# 1 0.014647 -0.003391 -0.016151 0.000000 0.000000 0.000000
# 2 -0.003391 0.018408 -0.004784 0.000000 0.000000 0.000000
# 3 -0.016151 -0.004784 0.040887 0.000000 0.000000 0.000000
# 4 0.000000 0.000000 0.000000 0.042056 0.000000 0.000000
# 5 0.000000 0.000000 0.000000 0.000000 0.037468 0.000000
# 6 0.000000 0.000000 0.000000 0.000000 0.000000 0.039432
#
#
# Mechanical properties :
#
#
# Convention : Reuss Voigt Hill
#
# Bulk Modulus (GPa) = 39.54164 59.83025 49.68595
# Shear Modulus (GPa) = 20.00159 24.31689 22.15924
#
# Velocity S-wave (km/s) = 3.30268 3.64157 3.47625
# Velocity P-wave (km/s) = 6.00893 7.09290 6.57330
#
# Compressibility (1/GPa) = 0.02528980
#
# Stress axis : x y z
#
# Youngs Moduli (GPa) = 68.27567 54.32331 24.45757
#
# Poissons Ratio (x) = 0.18422 0.39502
# Poissons Ratio (y) = 0.23153 0.11700
# Poissons Ratio (z) = 1.10273 0.25987
#
# Static dielectric constant tensor:
#      x y z
#    x 1.735760 0.000000 0.000000 
#    y 0.000000 1.645460 0.000000 
#    z 0.000000 0.000000 1.597800 
# 
# From -- ./inp_files/63902.got.cif
#   From: 2010.05.17/outbox.cif.g08.bks.cpg/sg74_32_cif.got.tgz:63902.got - 2010.06.03 17:57:02.
