data_PCOD9537347
_publ_section_title
;
Structure prediction by ZEFSAII (Michael W. Deem and Ramdas Pophale) SiO2 
 PCOD9537347
Probable space group: I M M A
;
_chemical_formula_sum "Si O2"
_cell_formula_units_Z 96
_cell_length_a 14.589770
_cell_length_b 14.522376
_cell_length_c 23.641475
_cell_angle_alpha 90.000000
_cell_angle_beta 90.000000
_cell_angle_gamma 90.000000
_cell_volume 5009.111412
_symmetry_space_group_name_H-M "I M M A"
_symmetry_group_IT_number 74
_symmetry_cell_setting 'orthorhombic'
loop_
_space_group_symop_operation_xyz
x,y,z
-x,1/2-y,z
x,-y,-z
-x,1/2+y,-z
-x,-y,-z
x,1/2+y,-z
-x,y,z
x,1/2-y,z
1/2+x,1/2+y,1/2+z
1/2-x,-y,1/2+z
1/2+x,1/2-y,1/2-z
1/2-x,y,1/2-z
1/2-x,1/2-y,1/2-z
1/2+x,y,1/2-z
1/2-x,1/2+y,1/2+z
1/2+x,-y,1/2+z
loop_
_atom_site_type_symbol
_atom_site_label
_atom_site_fract_x
_atom_site_fract_y
_atom_site_fract_z
Si Si1 0.358313 0.853274 0.239219
Si Si2 0.607258 0.477317 0.867267
Si Si3 0.892373 0.028431 0.065534
Si Si4 0.896273 0.893198 0.481083
Si Si5 0.604965 0.851288 0.368985
Si Si6 0.778328 0.147254 0.412781
O O1 0.384940 0.750000 0.219848
O O2 0.250000 0.854327 0.250000
O O3 0.398005 0.866983 0.301819
O O4 0.382360 0.929578 0.193330
O O5 0.500000 0.500600 0.876626
O O6 0.631122 0.401228 0.915509
O O7 0.667150 0.568781 0.877599
O O8 0.825408 0.112472 0.078968
O O9 0.000000 0.045806 0.078723
O O10 0.855589 0.940201 0.100573
O O11 0.886089 0.000000 0.000000
O O12 0.826298 0.850674 0.525328
O O13 0.000000 0.856420 0.486084
O O14 0.899460 0.000000 0.500000
O O15 0.500000 0.846499 0.389995
O O16 0.647719 0.750000 0.378659
O O17 0.783331 0.250000 0.388438
#
# Coordination Sequence:
#
# PCOD9537347 Si02
#       6
#    16  16  16  16  16  16
#     4  10  20  33  53  82 113 143 175 216 272 337
#     4  10  20  35  56  82 113 147 185 229 276 330
#     4  10  21  37  57  81 110 145 185 228 277 335
#     4   8  16  32  52  75 105 140 179 225 275 322
#     4   9  18  34  56  80 105 133 168 215 271 328
#     4  11  22  35  53  77 109 149 191 234 277 324
#
# _framework density 19.165075999999999
#
# number of rings (size 3 to 8) (size 9 to 14) (size 15 to 20)
#    0.000    2.333    0.000    4.500    0.000    4.000 
#    0.000    5.000    0.000    4.500    0.000    4.667 
#    0.000    0.000    0.000    0.000    0.000    0.000 
#
# Total GULP energy -267695.650468 kJ/mol
# GULP energy per Si atom -5576.992718 kJ/mol
# Density = 1.912146 g / cm^3
# Si number density = 19.165076 Si / 1000 Ang^3
#
#
#
# Elastic Constant Matrix: (Units=GPa)
#
#
# Indices 1 2 3 4 5 6 
#
# 1 96.7346 41.6021 12.6136 0.0000 0.0000 0.0000
# 2 41.6021 123.5675 48.5828 0.0000 0.0000 0.0000
# 3 12.6136 48.5828 61.0805 0.0000 0.0000 0.0000
# 4 0.0000 0.0000 0.0000 16.8581 0.0000 0.0000
# 5 0.0000 0.0000 0.0000 0.0000 43.5883 0.0000
# 6 0.0000 0.0000 0.0000 0.0000 0.0000 -74.1684
#
#
#
# Elastic Compliance Matrix: (Units=1/GPa)
#
#
# Indices 1 2 3 4 5 6 
#
# 1 0.012137 -0.004512 0.001082 0.000000 0.000000 0.000000
# 2 -0.004512 0.013452 -0.009768 0.000000 0.000000 0.000000
# 3 0.001082 -0.009768 0.023918 0.000000 0.000000 0.000000
# 4 0.000000 0.000000 0.000000 0.059319 0.000000 0.000000
# 5 0.000000 0.000000 0.000000 0.000000 0.022942 0.000000
# 6 0.000000 0.000000 0.000000 0.000000 0.000000 -0.013483
#
#
# Mechanical properties :
#
#
# Convention : Reuss Voigt Hill
#
# Bulk Modulus (GPa) = 43.26813 54.10884 48.68848
# Shear Modulus (GPa) = 32.81201 9.16121 20.98661
#
# Velocity S-wave (km/s) = 4.14221 2.18873 3.31274
# Velocity P-wave (km/s) = 6.74557 5.88912 6.33184
#
# Compressibility (1/GPa) = 0.02311170
#
# Stress axis : x y z
#
# Youngs Moduli (GPa) = 82.39441 74.33741 41.80990
#
# Poissons Ratio (x) = 0.33538 -0.04524
# Poissons Ratio (y) = 0.37173 0.40840
# Poissons Ratio (z) = -0.08916 0.72613
#
# Static dielectric constant tensor:
#      x y z
#    x 1.638850 0.000000 0.000000 
#    y 0.000000 1.679750 0.000000 
#    z 0.000000 0.000000 1.673410 
# 
# From -- ./inp_files/51919.got.cif
#   From: 2010.05.17/outbox.cif.g08.bks.cpg/sg74_26_cif.got.tgz:51919.got - 2010.06.03 17:57:02.
