data_PCOD9537216
_publ_section_title
;
Structure prediction by ZEFSAII (Michael W. Deem and Ramdas Pophale) SiO2 
 PCOD9537216
Probable space group: I M M A
;
_chemical_formula_sum "Si O2"
_cell_formula_units_Z 64
_cell_length_a 7.557066
_cell_length_b 13.852672
_cell_length_c 28.392661
_cell_angle_alpha 90.000000
_cell_angle_beta 90.000000
_cell_angle_gamma 90.000000
_cell_volume 2972.301520
_symmetry_space_group_name_H-M "I M M A"
_symmetry_group_IT_number 74
_symmetry_cell_setting 'orthorhombic'
loop_
_space_group_symop_operation_xyz
x,y,z
-x,1/2-y,z
x,-y,-z
-x,1/2+y,-z
-x,-y,-z
x,1/2+y,-z
-x,y,z
x,1/2-y,z
1/2+x,1/2+y,1/2+z
1/2-x,-y,1/2+z
1/2+x,1/2-y,1/2-z
1/2-x,y,1/2-z
1/2-x,1/2-y,1/2-z
1/2+x,y,1/2-z
1/2-x,1/2+y,1/2+z
1/2+x,-y,1/2+z
loop_
_atom_site_type_symbol
_atom_site_label
_atom_site_fract_x
_atom_site_fract_y
_atom_site_fract_z
Si Si1 0.714853 0.750000 0.497796
Si Si2 0.787526 0.356458 0.694426
Si Si3 0.797311 0.558142 0.048223
Si Si4 0.298966 0.456656 0.140561
Si Si5 0.213027 0.250000 0.389886
O O1 0.500000 0.750000 0.495868
O O2 0.780295 0.658699 0.468631
O O3 0.754323 0.750000 0.553592
O O4 0.722762 0.250000 0.677341
O O5 0.750000 0.360273 0.750000
O O6 0.718125 0.455030 0.670706
O O7 0.000000 0.356293 0.686977
O O8 0.697896 0.500049 0.088024
O O9 0.000000 0.570930 0.065284
O O10 0.805377 0.500000 0.000000
O O11 0.500000 0.442874 0.158210
O O12 0.219416 0.349365 0.134016
O O13 0.000000 0.250000 0.385239
#
# Coordination Sequence:
#
# PCOD9537216 Si02
#       5
#     8  16  16  16   8
#     4  10  20  34  48  69 104 141 175 216 257 297
#     4   9  19  37  58  79 102 129 163 208 260 310
#     4  10  20  33  50  73 104 140 177 214 253 298
#     4  10  21  35  53  77 105 136 173 213 255 304
#     4  10  20  34  51  73 103 141 175 208 252 301
#
# _framework density 21.532136999999999
#
# number of rings (size 3 to 8) (size 9 to 14) (size 15 to 20)
#    0.000    2.250    2.500    0.000    1.750    2.500 
#    0.000    0.625    0.000    0.000    0.000    0.000 
#    0.000    0.000    0.000    0.000    0.000    0.000 
#
# Total GULP energy -178357.940940 kJ/mol
# GULP energy per Si atom -5573.685654 kJ/mol
# Density = 2.148313 g / cm^3
# Si number density = 21.532137 Si / 1000 Ang^3
#
#
#
# Elastic Constant Matrix: (Units=GPa)
#
#
# Indices 1 2 3 4 5 6 
#
# 1 57.8232 9.1895 -4.5725 0.0000 0.0000 0.0000
# 2 9.1895 247.7341 57.1029 0.0000 0.0000 0.0000
# 3 -4.5725 57.1029 56.0414 0.0000 0.0000 0.0000
# 4 0.0000 0.0000 0.0000 24.5410 0.0000 0.0000
# 5 0.0000 0.0000 0.0000 0.0000 19.5180 0.0000
# 6 0.0000 0.0000 0.0000 0.0000 0.0000 -19.8888
#
#
#
# Elastic Compliance Matrix: (Units=1/GPa)
#
#
# Indices 1 2 3 4 5 6 
#
# 1 0.017718 -0.001295 0.002765 0.000000 0.000000 0.000000
# 2 -0.001295 0.005370 -0.005578 0.000000 0.000000 0.000000
# 3 0.002765 -0.005578 0.023753 0.000000 0.000000 0.000000
# 4 0.000000 0.000000 0.000000 0.040748 0.000000 0.000000
# 5 0.000000 0.000000 0.000000 0.000000 0.051235 0.000000
# 6 0.000000 0.000000 0.000000 0.000000 0.000000 -0.050280
#
#
# Mechanical properties :
#
#
# Convention : Reuss Voigt Hill
#
# Bulk Modulus (GPa) = 25.88884 53.89318 39.89101
# Shear Modulus (GPa) = 45.60586 24.82597 35.21592
#
# Velocity S-wave (km/s) = 4.60721 3.39923 4.04853
# Velocity P-wave (km/s) = 6.35226 6.36316 6.35772
#
# Compressibility (1/GPa) = 0.03862669
#
# Stress axis : x y z
#
# Youngs Moduli (GPa) = 56.43835 186.21128 42.10036
#
# Poissons Ratio (x) = 0.24106 -0.11640
# Poissons Ratio (y) = 0.07306 0.23482
# Poissons Ratio (z) = -0.15604 1.03861
#
# Static dielectric constant tensor:
#      x y z
#    x 1.852190 0.000000 0.000000 
#    y 0.000000 1.805990 0.000000 
#    z 0.000000 0.000000 1.715930 
# 
# From -- ./inp_files/56407.got.cif
#   From: 2010.05.17/outbox.cif.g08.bks.cpg/sg74_29_cif.got.tgz:56407.got - 2010.06.03 17:57:02.
