data_PCOD9537810
_publ_section_title
;
Structure prediction by ZEFSAII (Michael W. Deem and Ramdas Pophale) SiO2 
 PCOD9537810
Probable space group: I M M A
;
_chemical_formula_sum "Si O2"
_cell_formula_units_Z 64
_cell_length_a 10.679076
_cell_length_b 7.689392
_cell_length_c 36.765775
_cell_angle_alpha 90.000000
_cell_angle_beta 90.000000
_cell_angle_gamma 90.000000
_cell_volume 3019.043731
_symmetry_space_group_name_H-M "I M M A"
_symmetry_group_IT_number 74
_symmetry_cell_setting 'orthorhombic'
loop_
_space_group_symop_operation_xyz
x,y,z
-x,1/2-y,z
x,-y,-z
-x,1/2+y,-z
-x,-y,-z
x,1/2+y,-z
-x,y,z
x,1/2-y,z
1/2+x,1/2+y,1/2+z
1/2-x,-y,1/2+z
1/2+x,1/2-y,1/2-z
1/2-x,y,1/2-z
1/2-x,1/2-y,1/2-z
1/2+x,y,1/2-z
1/2-x,1/2+y,1/2+z
1/2+x,-y,1/2+z
loop_
_atom_site_type_symbol
_atom_site_label
_atom_site_fract_x
_atom_site_fract_y
_atom_site_fract_z
Si Si1 0.243763 0.957453 0.291111
Si Si2 0.500000 0.036645 0.415609
Si Si3 0.747698 0.040882 0.457459
Si Si4 0.500000 0.039522 0.834558
Si Si5 0.500000 0.542122 0.667852
Si Si6 0.500000 0.958156 0.919682
O O1 0.224954 0.750000 0.288185
O O2 0.250000 0.027887 0.250000
O O3 0.125157 0.024445 0.314072
O O4 0.374460 0.986414 0.311470
O O5 0.500000 0.250000 0.415636
O O6 0.624111 0.977753 0.436660
O O7 0.500000 0.978884 0.373783
O O8 0.747912 0.250000 0.453815
O O9 0.874320 0.973170 0.438720
O O10 0.744140 0.000000 0.500000
O O11 0.500000 0.250000 0.833284
O O12 0.500000 0.990348 0.876752
O O13 0.500000 0.750000 0.666801
O O14 0.500000 0.750000 0.925047
#
# Coordination Sequence:
#
# PCOD9537810 Si02
#       6
#    16   8  16   8   8   8
#     4  10  21  39  60  82 113 151 187 228 281 333
#     4   9  19  35  53  75 107 142 173 213 271 327
#     4  10  20  35  54  76 103 138 177 217 267 323
#     4  10  21  36  58  85 109 143 192 234 269 324
#     4  11  22  37  59  86 115 148 187 230 275 330
#     4  10  21  36  54  76 108 145 174 215 279 333
#
# _framework density 21.198765999999999
#
# number of rings (size 3 to 8) (size 9 to 14) (size 15 to 20)
#    0.000    2.000    0.000    3.375    0.000    6.500 
#    0.000    3.750    0.000    0.000    0.000    0.000 
#    0.000    0.000    0.000    0.000    0.000    0.000 
#
# Total GULP energy -178886.894381 kJ/mol
# GULP energy per Si atom -5590.215449 kJ/mol
# Density = 2.115052 g / cm^3
# Si number density = 21.198766 Si / 1000 Ang^3
#
#
#
# Elastic Constant Matrix: (Units=GPa)
#
#
# Indices 1 2 3 4 5 6 
#
# 1 243.9435 -4.8734 145.3135 0.0000 0.0000 0.0000
# 2 -4.8734 29.8868 -11.8306 0.0000 0.0000 0.0000
# 3 145.3135 -11.8306 235.0872 0.0000 0.0000 0.0000
# 4 0.0000 0.0000 0.0000 -193.7806 0.0000 0.0000
# 5 0.0000 0.0000 0.0000 0.0000 50.4346 0.0000
# 6 0.0000 0.0000 0.0000 0.0000 0.0000 3.7262
#
#
#
# Elastic Compliance Matrix: (Units=1/GPa)
#
#
# Indices 1 2 3 4 5 6 
#
# 1 0.006497 -0.000541 -0.004043 0.000000 0.000000 0.000000
# 2 -0.000541 0.034185 0.002055 0.000000 0.000000 0.000000
# 3 -0.004043 0.002055 0.006856 0.000000 0.000000 0.000000
# 4 0.000000 0.000000 0.000000 -0.005160 0.000000 0.000000
# 5 0.000000 0.000000 0.000000 0.000000 0.019828 0.000000
# 6 0.000000 0.000000 0.000000 0.000000 0.000000 0.268373
#
#
# Mechanical properties :
#
#
# Convention : Reuss Voigt Hill
#
# Bulk Modulus (GPa) = 23.54098 85.12627 54.33363
# Shear Modulus (GPa) = 14.29403 -2.57008 5.86197
#
# Velocity S-wave (km/s) = 2.59952 -1.10227 1.66471
# Velocity P-wave (km/s) = 4.48765 6.21477 5.42044
#
# Compressibility (1/GPa) = 0.04247911
#
# Stress axis : x y z
#
# Youngs Moduli (GPa) = 153.91837 29.25281 145.85072
#
# Poissons Ratio (x) = 0.01583 0.58970
# Poissons Ratio (y) = 0.08328 -0.29969
# Poissons Ratio (z) = 0.62232 -0.06011
#
# Static dielectric constant tensor:
#      x y z
#    x 1.754240 0.000000 0.000000 
#    y 0.000000 1.781140 0.000000 
#    z 0.000000 0.000000 1.711750 
# 
# From -- ./inp_files/71353.got.cif
#   From: 2010.05.17/outbox.cif.g08.bks.cpg/sg74_36_cif.got.tgz:71353.got - 2010.06.03 17:57:02.
