data_PCOD9537820
_publ_section_title
;
Structure prediction by ZEFSAII (Michael W. Deem and Ramdas Pophale) SiO2 
 PCOD9537820
Probable space group: I M M A
;
_chemical_formula_sum "Si O2"
_cell_formula_units_Z 80
_cell_length_a 16.502260
_cell_length_b 7.744548
_cell_length_c 29.916834
_cell_angle_alpha 90.000000
_cell_angle_beta 90.000000
_cell_angle_gamma 90.000000
_cell_volume 3823.447514
_symmetry_space_group_name_H-M "I M M A"
_symmetry_group_IT_number 74
_symmetry_cell_setting 'orthorhombic'
loop_
_space_group_symop_operation_xyz
x,y,z
-x,1/2-y,z
x,-y,-z
-x,1/2+y,-z
-x,-y,-z
x,1/2+y,-z
-x,y,z
x,1/2-y,z
1/2+x,1/2+y,1/2+z
1/2-x,-y,1/2+z
1/2+x,1/2-y,1/2-z
1/2-x,y,1/2-z
1/2-x,1/2-y,1/2-z
1/2+x,y,1/2-z
1/2-x,1/2+y,1/2+z
1/2+x,-y,1/2+z
loop_
_atom_site_type_symbol
_atom_site_label
_atom_site_fract_x
_atom_site_fract_y
_atom_site_fract_z
Si Si1 0.715665 0.946643 0.368079
Si Si2 0.332444 0.055935 0.206676
Si Si3 0.500000 0.552267 0.168699
Si Si4 0.407028 0.541174 0.299740
Si Si5 0.000000 0.447451 0.562211
Si Si6 0.320054 0.541536 0.048988
O O1 0.695788 0.750000 0.381185
O O2 0.634902 0.023462 0.345507
O O3 0.764266 0.024216 0.410150
O O4 0.777310 0.943646 0.326027
O O5 0.301033 0.250000 0.204124
O O6 0.420965 0.042312 0.185235
O O7 0.349757 0.006102 0.257808
O O8 0.500000 0.750000 0.186735
O O9 0.500000 0.561726 0.115648
O O10 0.500000 0.481608 0.293400
O O11 0.408748 0.750000 0.301341
O O12 0.087070 0.527470 0.550225
O O13 0.000000 0.250000 0.544213
O O14 0.326342 0.750000 0.054891
O O15 0.286492 0.500000 0.000000
#
# Coordination Sequence:
#
# PCOD9537820 Si02
#       6
#    16  16   8  16   8  16
#     4  10  21  38  58  78 105 145 187 223 265 324
#     4  12  23  34  52  83 116 145 179 223 271 317
#     4  11  19  34  56  76 109 154 189 219 255 310
#     4  10  21  37  58  80 104 142 188 227 266 319
#     4   9  17  32  54  76 103 139 177 214 254 302
#     4  10  20  35  54  78 105 137 177 223 269 320
#
# _framework density 20.923525000000001
#
# number of rings (size 3 to 8) (size 9 to 14) (size 15 to 20)
#    0.000    1.600    3.000    3.000    0.000    4.000 
#    0.000    0.000    0.000    0.600    0.000    0.000 
#    0.000    0.000    0.000    0.000    0.000    0.000 
#
# Total GULP energy -223234.525631 kJ/mol
# GULP energy per Si atom -5580.863141 kJ/mol
# Density = 2.087590 g / cm^3
# Si number density = 20.923525 Si / 1000 Ang^3
#
#
#
# Elastic Constant Matrix: (Units=GPa)
#
#
# Indices 1 2 3 4 5 6 
#
# 1 51.9603 -2.8460 47.6272 0.0000 0.0000 0.0000
# 2 -2.8460 54.4964 1.8188 0.0000 0.0000 0.0000
# 3 47.6272 1.8188 147.9918 0.0000 0.0000 0.0000
# 4 0.0000 0.0000 0.0000 17.2343 0.0000 0.0000
# 5 0.0000 0.0000 0.0000 0.0000 40.5302 0.0000
# 6 0.0000 0.0000 0.0000 0.0000 0.0000 -22.6083
#
#
#
# Elastic Compliance Matrix: (Units=1/GPa)
#
#
# Indices 1 2 3 4 5 6 
#
# 1 0.027460 0.001730 -0.008859 0.000000 0.000000 0.000000
# 2 0.001730 0.018466 -0.000784 0.000000 0.000000 0.000000
# 3 -0.008859 -0.000784 0.009618 0.000000 0.000000 0.000000
# 4 0.000000 0.000000 0.000000 0.058024 0.000000 0.000000
# 5 0.000000 0.000000 0.000000 0.000000 0.024673 0.000000
# 6 0.000000 0.000000 0.000000 0.000000 0.000000 -0.044231
#
#
# Mechanical properties :
#
#
# Convention : Reuss Voigt Hill
#
# Bulk Modulus (GPa) = 25.17679 38.62762 31.90220
# Shear Modulus (GPa) = 40.62606 20.88781 30.75694
#
# Velocity S-wave (km/s) = 4.41119 3.16301 3.83818
# Velocity P-wave (km/s) = 6.16471 5.64277 5.90951
#
# Compressibility (1/GPa) = 0.03971912
#
# Stress axis : x y z
#
# Youngs Moduli (GPa) = 36.41659 54.15263 103.97548
#
# Poissons Ratio (x) = -0.09367 0.92107
# Poissons Ratio (y) = -0.06299 0.08148
# Poissons Ratio (z) = 0.32260 0.04243
#
# Static dielectric constant tensor:
#      x y z
#    x 1.775360 0.000000 0.000000 
#    y 0.000000 1.789910 0.000000 
#    z 0.000000 0.000000 1.755640 
# 
# From -- ./inp_files/67564.got.cif
#   From: 2010.05.17/outbox.cif.g08.bks.cpg/sg74_34_cif.got.tgz:67564.got - 2010.06.03 17:57:02.
