data_PCOD9537345
_publ_section_title
;
Structure prediction by ZEFSAII (Michael W. Deem and Ramdas Pophale) SiO2 
 PCOD9537345
Probable space group: I M M A
;
_chemical_formula_sum "Si O2"
_cell_formula_units_Z 116
_cell_length_a 29.599845
_cell_length_b 9.382731
_cell_length_c 23.078317
_cell_angle_alpha 90.000000
_cell_angle_beta 90.000000
_cell_angle_gamma 90.000000
_cell_volume 6409.480591
_symmetry_space_group_name_H-M "I M M A"
_symmetry_group_IT_number 74
_symmetry_cell_setting 'orthorhombic'
loop_
_space_group_symop_operation_xyz
x,y,z
-x,1/2-y,z
x,-y,-z
-x,1/2+y,-z
-x,-y,-z
x,1/2+y,-z
-x,y,z
x,1/2-y,z
1/2+x,1/2+y,1/2+z
1/2-x,-y,1/2+z
1/2+x,1/2-y,1/2-z
1/2-x,y,1/2-z
1/2-x,1/2-y,1/2-z
1/2+x,y,1/2-z
1/2-x,1/2+y,1/2+z
1/2+x,-y,1/2+z
loop_
_atom_site_type_symbol
_atom_site_label
_atom_site_fract_x
_atom_site_fract_y
_atom_site_fract_z
Si Si1 0.576930 0.986443 0.332186
Si Si2 0.326505 0.087972 0.721854
Si Si3 0.878504 0.413166 0.053977
Si Si4 0.450998 0.084054 0.208430
Si Si5 0.206840 0.083335 0.900172
Si Si6 0.309259 0.419604 0.940402
Si Si7 0.500000 0.750000 0.352431
Si Si8 0.353542 0.577410 0.832174
O O1 0.623808 0.918952 0.308059
O O2 0.539737 0.872516 0.349497
O O3 0.591104 0.074328 0.388679
O O4 0.557888 0.071563 0.277078
O O5 0.317984 0.250000 0.742001
O O6 0.293089 0.052066 0.668881
O O7 0.327506 0.979597 0.775113
O O8 0.872006 0.250000 0.037703
O O9 0.830696 0.485658 0.070071
O O10 0.898352 0.500000 0.000000
O O11 0.500000 0.016412 0.195396
O O12 0.453433 0.250000 0.193333
O O13 0.405862 0.029814 0.177429
O O14 0.193409 0.250000 0.905448
O O15 0.255748 0.065653 0.927703
O O16 0.319436 0.250000 0.942494
O O17 0.334300 0.499440 0.888158
O O18 0.320084 0.500000 0.000000
O O19 0.351179 0.750000 0.835626
#
# Coordination Sequence:
#
# PCOD9537345 Si02
#       8
#    16  16  16  16  16  16   4  16
#     4  10  20  33  53  79 107 143 183 228 280 329
#     4   9  17  33  55  81 113 143 179 223 275 326
#     4  11  23  37  57  77 106 144 189 236 284 334
#     4   9  17  33  57  82 110 139 179 227 273 327
#     4   9  20  37  60  86 111 144 186 229 277 330
#     4  11  23  40  59  82 113 149 187 229 274 329
#     4  12  20  32  56  80 106 146 188 232 284 332
#     4  10  21  35  54  84 117 152 184 224 275 325
#
# _framework density 18.098191
#
# number of rings (size 3 to 8) (size 9 to 14) (size 15 to 20)
#    0.000    2.069    1.379    2.069    1.931    6.069 
#    0.000    3.103    0.000    0.414    0.000    0.000 
#    0.000    0.000    0.000    0.000    0.000    0.000 
#
# Total GULP energy -322967.940470 kJ/mol
# GULP energy per Si atom -5568.412767 kJ/mol
# Density = 1.805700 g / cm^3
# Si number density = 18.098191 Si / 1000 Ang^3
#
#
#
# Elastic Constant Matrix: (Units=GPa)
#
#
# Indices 1 2 3 4 5 6 
#
# 1 39.1007 23.7954 24.9739 0.0000 0.0000 0.0000
# 2 23.7954 92.8542 51.6073 0.0000 0.0000 0.0000
# 3 24.9739 51.6073 100.5047 0.0000 0.0000 0.0000
# 4 0.0000 0.0000 0.0000 21.8857 0.0000 0.0000
# 5 0.0000 0.0000 0.0000 0.0000 10.5937 0.0000
# 6 0.0000 0.0000 0.0000 0.0000 0.0000 19.3680
#
#
#
# Elastic Compliance Matrix: (Units=1/GPa)
#
#
# Indices 1 2 3 4 5 6 
#
# 1 0.032174 -0.005320 -0.005263 0.000000 0.000000 0.000000
# 2 -0.005320 0.015950 -0.006868 0.000000 0.000000 0.000000
# 3 -0.005263 -0.006868 0.014784 0.000000 0.000000 0.000000
# 4 0.000000 0.000000 0.000000 0.045692 0.000000 0.000000
# 5 0.000000 0.000000 0.000000 0.000000 0.094396 0.000000
# 6 0.000000 0.000000 0.000000 0.000000 0.000000 0.051632
#
#
# Mechanical properties :
#
#
# Convention : Reuss Voigt Hill
#
# Bulk Modulus (GPa) = 35.70655 48.13476 41.92065
# Shear Modulus (GPa) = 16.72992 19.17501 17.95247
#
# Velocity S-wave (km/s) = 3.04369 3.25853 3.15294
# Velocity P-wave (km/s) = 5.66782 6.38839 6.03886
#
# Compressibility (1/GPa) = 0.02800606
#
# Stress axis : x y z
#
# Youngs Moduli (GPa) = 31.08087 62.69528 67.63956
#
# Poissons Ratio (x) = 0.33354 0.35599
# Poissons Ratio (y) = 0.16535 0.46456
# Poissons Ratio (z) = 0.16358 0.43060
#
# Static dielectric constant tensor:
#      x y z
#    x 1.645090 0.000000 0.000000 
#    y 0.000000 1.614710 0.000000 
#    z 0.000000 0.000000 1.622260 
# 
# From -- ./inp_files/62757.got.cif
#   From: 2010.05.17/outbox.cif.g08.bks.cpg/sg74_32_cif.got.tgz:62757.got - 2010.06.03 17:57:02.
