data_PCOD9537872
_publ_section_title
;
Structure prediction by ZEFSAII (Michael W. Deem and Ramdas Pophale) SiO2 
 PCOD9537872
Probable space group: I M M A
;
_chemical_formula_sum "Si O2"
_cell_formula_units_Z 104
_cell_length_a 16.963104
_cell_length_b 15.535390
_cell_length_c 19.868553
_cell_angle_alpha 90.000000
_cell_angle_beta 90.000000
_cell_angle_gamma 90.000000
_cell_volume 5235.928703
_symmetry_space_group_name_H-M "I M M A"
_symmetry_group_IT_number 74
_symmetry_cell_setting 'orthorhombic'
loop_
_space_group_symop_operation_xyz
x,y,z
-x,1/2-y,z
x,-y,-z
-x,1/2+y,-z
-x,-y,-z
x,1/2+y,-z
-x,y,z
x,1/2-y,z
1/2+x,1/2+y,1/2+z
1/2-x,-y,1/2+z
1/2+x,1/2-y,1/2-z
1/2-x,y,1/2-z
1/2-x,1/2-y,1/2-z
1/2+x,y,1/2-z
1/2-x,1/2+y,1/2+z
1/2+x,-y,1/2+z
loop_
_atom_site_type_symbol
_atom_site_label
_atom_site_fract_x
_atom_site_fract_y
_atom_site_fract_z
Si Si1 0.246025 0.921135 0.446792
Si Si2 0.593059 0.158509 0.133168
Si Si3 0.842357 0.885629 0.772371
Si Si4 0.407046 0.750000 0.333632
Si Si5 0.587237 0.521129 0.077998
Si Si6 0.594338 0.250000 0.373704
Si Si7 0.832383 0.750000 0.017771
Si Si8 0.177391 0.424034 0.801233
O O1 0.155781 0.909057 0.421281
O O2 0.279350 0.835577 0.480704
O O3 0.293710 0.938320 0.378069
O O4 0.250178 0.000000 0.500000
O O5 0.500000 0.157112 0.117083
O O6 0.625795 0.250000 0.107281
O O7 0.607149 0.154927 0.212380
O O8 0.623764 0.067104 0.107679
O O9 0.750000 0.878400 0.750000
O O10 0.863832 0.832119 0.838553
O O11 0.862431 0.986266 0.779700
O O12 0.500000 0.750000 0.329329
O O13 0.379997 0.750000 0.411852
O O14 0.372912 0.662844 0.301089
O O15 0.500000 0.540344 0.106719
O O16 0.576322 0.500000 0.000000
O O17 0.500000 0.250000 0.361569
O O18 0.612534 0.250000 0.452706
O O19 0.250000 0.412461 0.750000
#
# Coordination Sequence:
#
# PCOD9537872 Si02
#       8
#    16  16  16   8  16   8   8  16
#     4  10  20  40  59  84 117 159 202 245 304 369
#     4  10  20  35  55  82 120 159 190 233 299 365
#     4  11  22  37  57  91 125 162 199 245 302 366
#     4  10  22  41  63  89 116 154 211 260 319 368
#     4   9  18  34  53  78 112 149 194 241 285 344
#     4  12  24  39  59  91 130 162 205 252 300 367
#     4  10  23  40  63  84 116 164 206 258 309 359
#     4  10  21  38  63  87 119 157 202 257 307 359
#
# _framework density 19.862760000000002
#
# number of rings (size 3 to 8) (size 9 to 14) (size 15 to 20)
#    0.000    1.846    0.769    3.923    0.000    2.462 
#    5.538    1.154    0.000    5.077    0.000    0.000 
#    0.000    0.000    0.000    0.000    0.000    0.000 
#
# Total GULP energy -289991.009323 kJ/mol
# GULP energy per Si atom -5576.750179 kJ/mol
# Density = 1.981755 g / cm^3
# Si number density = 19.862760 Si / 1000 Ang^3
#
#
#
# Elastic Constant Matrix: (Units=GPa)
#
#
# Indices 1 2 3 4 5 6 
#
# 1 77.2169 63.2855 6.0916 0.0000 0.0000 0.0000
# 2 63.2855 143.5469 43.7369 0.0000 0.0000 0.0000
# 3 6.0916 43.7369 60.4606 0.0000 0.0000 0.0000
# 4 0.0000 0.0000 0.0000 33.7739 0.0000 0.0000
# 5 0.0000 0.0000 0.0000 0.0000 26.8926 0.0000
# 6 0.0000 0.0000 0.0000 0.0000 0.0000 18.4551
#
#
#
# Elastic Compliance Matrix: (Units=1/GPa)
#
#
# Indices 1 2 3 4 5 6 
#
# 1 0.021918 -0.011532 0.006134 0.000000 0.000000 0.000000
# 2 -0.011532 0.015003 -0.009691 0.000000 0.000000 0.000000
# 3 0.006134 -0.009691 0.022932 0.000000 0.000000 0.000000
# 4 0.000000 0.000000 0.000000 0.029609 0.000000 0.000000
# 5 0.000000 0.000000 0.000000 0.000000 0.037185 0.000000
# 6 0.000000 0.000000 0.000000 0.000000 0.000000 0.054185
#
#
# Mechanical properties :
#
#
# Convention : Reuss Voigt Hill
#
# Bulk Modulus (GPa) = 33.69878 56.38360 45.04119
# Shear Modulus (GPa) = 22.63436 27.03170 24.83303
#
# Velocity S-wave (km/s) = 3.37937 3.69307 3.53970
# Velocity P-wave (km/s) = 5.67710 6.82885 6.27944
#
# Compressibility (1/GPa) = 0.02967467
#
# Stress axis : x y z
#
# Youngs Moduli (GPa) = 45.62474 66.65222 43.60639
#
# Poissons Ratio (x) = 0.76862 -0.26747
# Poissons Ratio (y) = 0.52614 0.42261
# Poissons Ratio (z) = -0.27985 0.64595
#
# Static dielectric constant tensor:
#      x y z
#    x 1.727990 0.000000 0.000000 
#    y 0.000000 1.767150 0.000000 
#    z 0.000000 0.000000 1.704710 
# 
# From -- ./inp_files/53137.got.cif
#   From: 2010.05.17/outbox.cif.g08.bks.cpg/sg74_27_cif.got.tgz:53137.got - 2010.06.03 17:57:02.
