data_PCOD9537876
_publ_section_title
;
Structure prediction by ZEFSAII (Michael W. Deem and Ramdas Pophale) SiO2 
 PCOD9537876
Probable space group: I M M A
;
_chemical_formula_sum "Si O2"
_cell_formula_units_Z 80
_cell_length_a 16.418021
_cell_length_b 7.832874
_cell_length_c 30.035046
_cell_angle_alpha 90.000000
_cell_angle_beta 90.000000
_cell_angle_gamma 90.000000
_cell_volume 3862.515620
_symmetry_space_group_name_H-M "I M M A"
_symmetry_group_IT_number 74
_symmetry_cell_setting 'orthorhombic'
loop_
_space_group_symop_operation_xyz
x,y,z
-x,1/2-y,z
x,-y,-z
-x,1/2+y,-z
-x,-y,-z
x,1/2+y,-z
-x,y,z
x,1/2-y,z
1/2+x,1/2+y,1/2+z
1/2-x,-y,1/2+z
1/2+x,1/2-y,1/2-z
1/2-x,y,1/2-z
1/2-x,1/2-y,1/2-z
1/2+x,y,1/2-z
1/2-x,1/2+y,1/2+z
1/2+x,-y,1/2+z
loop_
_atom_site_type_symbol
_atom_site_label
_atom_site_fract_x
_atom_site_fract_y
_atom_site_fract_z
Si Si1 0.000000 0.546740 0.719810
Si Si2 0.908686 0.046162 0.139407
Si Si3 0.000000 0.957034 0.383488
Si Si4 0.663879 0.040753 0.269782
Si Si5 0.637671 0.455420 0.950578
Si Si6 0.822872 0.547024 0.048975
O O1 0.000000 0.514047 0.667281
O O2 0.083861 0.483444 0.742295
O O3 0.000000 0.750000 0.727571
O O4 0.913467 0.250000 0.144751
O O5 0.850432 0.985437 0.179184
O O6 0.000000 0.976649 0.145089
O O7 0.875590 0.012083 0.090410
O O8 0.921352 0.016408 0.411537
O O9 0.000000 0.750000 0.383718
O O10 0.665461 0.250000 0.268300
O O11 0.750000 0.982140 0.250000
O O12 0.640219 0.250000 0.947845
O O13 0.730197 0.522127 0.947081
O O14 0.606868 0.500000 0.000000
O O15 0.818478 0.750000 0.051030
O O16 0.854598 0.500000 0.000000
#
# Coordination Sequence:
#
# PCOD9537876 Si02
#       6
#     8  16   8  16  16  16
#     4  10  20  35  55  84 110 137 186 230 260 320
#     4  10  20  36  58  81 108 142 178 219 269 322
#     4  10  21  35  51  76 114 149 173 216 277 320
#     4   9  18  34  56  81 110 142 178 225 273 314
#     4   9  19  35  54  76 107 144 181 220 265 318
#     4  10  21  37  56  81 110 140 179 223 268 322
#
# _framework density 20.711891000000001
#
# number of rings (size 3 to 8) (size 9 to 14) (size 15 to 20)
#    0.000    2.400    1.000    0.900    2.800    2.400 
#    0.000    1.000    0.000    1.200    0.000    0.000 
#    0.000    0.000    0.000    0.000    0.000    0.000 
#
# Total GULP energy -223297.946551 kJ/mol
# GULP energy per Si atom -5582.448664 kJ/mol
# Density = 2.066475 g / cm^3
# Si number density = 20.711891 Si / 1000 Ang^3
#
#
#
# Elastic Constant Matrix: (Units=GPa)
#
#
# Indices 1 2 3 4 5 6 
#
# 1 137.7965 8.8450 97.3528 0.0000 0.0000 0.0000
# 2 8.8450 20.3122 -2.3598 0.0000 0.0000 0.0000
# 3 97.3528 -2.3598 182.3786 0.0000 0.0000 0.0000
# 4 0.0000 0.0000 0.0000 25.6794 0.0000 0.0000
# 5 0.0000 0.0000 0.0000 0.0000 40.3029 0.0000
# 6 0.0000 0.0000 0.0000 0.0000 0.0000 7.1431
#
#
#
# Elastic Compliance Matrix: (Units=1/GPa)
#
#
# Indices 1 2 3 4 5 6 
#
# 1 0.012377 -0.006166 -0.006687 0.000000 0.000000 0.000000
# 2 -0.006166 0.052378 0.003969 0.000000 0.000000 0.000000
# 3 -0.006687 0.003969 0.009104 0.000000 0.000000 0.000000
# 4 0.000000 0.000000 0.000000 0.038942 0.000000 0.000000
# 5 0.000000 0.000000 0.000000 0.000000 0.024812 0.000000
# 6 0.000000 0.000000 0.000000 0.000000 0.000000 0.139996
#
#
# Mechanical properties :
#
#
# Convention : Reuss Voigt Hill
#
# Bulk Modulus (GPa) = 17.82810 60.90704 39.36757
# Shear Modulus (GPa) = 15.91991 30.40169 23.16080
#
# Velocity S-wave (km/s) = 2.77544 3.83539 3.34763
# Velocity P-wave (km/s) = 4.34708 7.00602 5.83015
#
# Compressibility (1/GPa) = 0.05609124
#
# Stress axis : x y z
#
# Youngs Moduli (GPa) = 80.79573 19.09205 109.84557
#
# Poissons Ratio (x) = 0.11773 0.73448
# Poissons Ratio (y) = 0.49822 -0.43601
# Poissons Ratio (z) = 0.54024 -0.07578
#
# Static dielectric constant tensor:
#      x y z
#    x 1.754780 0.000000 0.000000 
#    y 0.000000 1.753600 0.000000 
#    z 0.000000 0.000000 1.628260 
# 
# From -- ./inp_files/64020.got.cif
#   From: 2010.05.17/outbox.cif.g08.bks.cpg/sg74_33_cif.got.tgz:64020.got - 2010.06.03 17:57:02.
