data_PCOD9537442
_publ_section_title
;
Structure prediction by ZEFSAII (Michael W. Deem and Ramdas Pophale) SiO2 
 PCOD9537442
Probable space group: I M M A
;
_chemical_formula_sum "Si O2"
_cell_formula_units_Z 96
_cell_length_a 25.965935
_cell_length_b 8.832975
_cell_length_c 25.734189
_cell_angle_alpha 90.000000
_cell_angle_beta 90.000000
_cell_angle_gamma 90.000000
_cell_volume 5902.302354
_symmetry_space_group_name_H-M "I M M A"
_symmetry_group_IT_number 74
_symmetry_cell_setting 'orthorhombic'
loop_
_space_group_symop_operation_xyz
x,y,z
-x,1/2-y,z
x,-y,-z
-x,1/2+y,-z
-x,-y,-z
x,1/2+y,-z
-x,y,z
x,1/2-y,z
1/2+x,1/2+y,1/2+z
1/2-x,-y,1/2+z
1/2+x,1/2-y,1/2-z
1/2-x,y,1/2-z
1/2-x,1/2-y,1/2-z
1/2+x,y,1/2-z
1/2-x,1/2+y,1/2+z
1/2+x,-y,1/2+z
loop_
_atom_site_type_symbol
_atom_site_label
_atom_site_fract_x
_atom_site_fract_y
_atom_site_fract_z
Si Si1 0.061165 0.429651 0.636705
Si Si2 0.560032 0.432658 0.645209
Si Si3 0.640734 0.069621 0.057851
Si Si4 0.745638 0.931483 0.058031
Si Si5 0.639856 0.432015 0.557567
Si Si6 0.437497 0.423914 0.245577
O O1 0.068855 0.250000 0.631530
O O2 0.094016 0.516489 0.593767
O O3 0.077452 0.484193 0.694195
O O4 0.000000 0.460632 0.630992
O O5 0.500000 0.474126 0.636711
O O6 0.562372 0.250000 0.648955
O O7 0.596020 0.481959 0.597639
O O8 0.578067 0.502078 0.699891
O O9 0.643276 0.250000 0.053895
O O10 0.694464 0.005573 0.081357
O O11 0.635005 0.000000 0.000000
O O12 0.739478 0.750000 0.056230
O O13 0.802657 0.967145 0.079102
O O14 0.747238 0.000000 0.000000
O O15 0.633878 0.500000 0.500000
O O16 0.637101 0.250000 0.552574
O O17 0.500000 0.425371 0.246203
O O18 0.420564 0.250000 0.241815
#
# Coordination Sequence:
#
# PCOD9537442 Si02
#       6
#    16  16  16  16  16  16
#     4  10  20  34  52  73  97 126 157 189 230 279
#     4   9  17  30  47  68  96 129 162 195 235 284
#     4  11  21  33  50  72  98 126 157 193 234 278
#     4   9  16  29  47  66  90 121 160 199 234 276
#     4   9  18  30  46  69  96 127 161 198 239 282
#     4   9  17  30  48  70  94 122 159 198 233 273
#
# _framework density 16.264838999999998
#
# number of rings (size 3 to 8) (size 9 to 14) (size 15 to 20)
#    0.000    2.500    0.000    4.000    0.000    5.000 
#    0.000    0.000    0.000    1.000    0.000    7.000 
#    0.000    0.000    0.000    0.000    0.000    0.000 
#
# Total GULP energy -267429.754312 kJ/mol
# GULP energy per Si atom -5571.453215 kJ/mol
# Density = 1.622782 g / cm^3
# Si number density = 16.264839 Si / 1000 Ang^3
#
#
#
# Elastic Constant Matrix: (Units=GPa)
#
#
# Indices 1 2 3 4 5 6 
#
# 1 86.0933 51.5143 57.4685 0.0000 0.0000 0.0000
# 2 51.5143 79.2615 43.5750 0.0000 0.0000 0.0000
# 3 57.4685 43.5750 94.3374 0.0000 0.0000 0.0000
# 4 0.0000 0.0000 0.0000 26.6401 0.0000 0.0000
# 5 0.0000 0.0000 0.0000 0.0000 -3.1770 0.0000
# 6 0.0000 0.0000 0.0000 0.0000 0.0000 20.3514
#
#
#
# Elastic Compliance Matrix: (Units=1/GPa)
#
#
# Indices 1 2 3 4 5 6 
#
# 1 0.024666 -0.010415 -0.010215 0.000000 0.000000 0.000000
# 2 -0.010415 0.021309 -0.003498 0.000000 0.000000 0.000000
# 3 -0.010215 -0.003498 0.018439 0.000000 0.000000 0.000000
# 4 0.000000 0.000000 0.000000 0.037537 0.000000 0.000000
# 5 0.000000 0.000000 0.000000 0.000000 -0.314766 0.000000
# 6 0.000000 0.000000 0.000000 0.000000 0.000000 0.049137
#
#
# Mechanical properties :
#
#
# Convention : Reuss Voigt Hill
#
# Bulk Modulus (GPa) = 61.89289 62.75644 62.32466
# Shear Modulus (GPa) = -45.43979 15.90521 -14.76729
#
# Velocity S-wave (km/s) = -5.29132 3.13051 -3.01645
# Velocity P-wave (km/s) = 0.89723 7.19268 5.12541
#
# Compressibility (1/GPa) = 0.01615694
#
# Stress axis : x y z
#
# Youngs Moduli (GPa) = 40.54134 46.92945 54.23331
#
# Poissons Ratio (x) = 0.48878 0.55401
# Poissons Ratio (y) = 0.42225 0.18970
# Poissons Ratio (z) = 0.41414 0.16415
#
# Static dielectric constant tensor:
#      x y z
#    x 1.572980 0.000000 0.000000 
#    y 0.000000 1.545810 0.000000 
#    z 0.000000 0.000000 1.525870 
# 
# From -- ./inp_files/57281.got.cif
#   From: 2010.05.17/outbox.cif.g08.bks.cpg/sg74_29_cif.got.tgz:57281.got - 2010.06.03 17:57:02.
