data_PCOD9537006
_publ_section_title
;
Structure prediction by ZEFSAII (Michael W. Deem and Ramdas Pophale) SiO2 
 PCOD9537006
Probable space group: I M M A
;
_chemical_formula_sum "Si O2"
_cell_formula_units_Z 72
_cell_length_a 13.771291
_cell_length_b 7.286028
_cell_length_c 32.750382
_cell_angle_alpha 90.000000
_cell_angle_beta 90.000000
_cell_angle_gamma 90.000000
_cell_volume 3286.108216
_symmetry_space_group_name_H-M "I M M A"
_symmetry_group_IT_number 74
_symmetry_cell_setting 'orthorhombic'
loop_
_space_group_symop_operation_xyz
x,y,z
-x,1/2-y,z
x,-y,-z
-x,1/2+y,-z
-x,-y,-z
x,1/2+y,-z
-x,y,z
x,1/2-y,z
1/2+x,1/2+y,1/2+z
1/2-x,-y,1/2+z
1/2+x,1/2-y,1/2-z
1/2-x,y,1/2-z
1/2-x,1/2-y,1/2-z
1/2+x,y,1/2-z
1/2-x,1/2+y,1/2+z
1/2+x,-y,1/2+z
loop_
_atom_site_type_symbol
_atom_site_label
_atom_site_fract_x
_atom_site_fract_y
_atom_site_fract_z
Si Si1 0.394193 0.973341 0.731625
Si Si2 0.108708 0.031316 0.048404
Si Si3 0.000000 0.468046 0.451953
Si Si4 0.798199 0.973059 0.685788
Si Si5 0.694955 0.525305 0.907263
O O1 0.500000 0.034122 0.718568
O O2 0.392836 0.750000 0.731388
O O3 0.307313 0.030594 0.702281
O O4 0.371309 0.028997 0.778220
O O5 0.105674 0.250000 0.054856
O O6 0.202610 0.963987 0.073177
O O7 0.000000 0.961167 0.058977
O O8 0.123238 0.000000 0.000000
O O9 0.000000 0.500000 0.500000
O O10 0.899683 0.536342 0.432232
O O11 0.000000 0.250000 0.444668
O O12 0.800062 0.750000 0.685217
O O13 0.815608 0.032189 0.639789
O O14 0.696542 0.750000 0.908197
#
# Coordination Sequence:
#
# PCOD9537006 Si02
#       5
#    16  16   8  16  16
#     4   8  13  20  31  46  70 103 135 166 199 238
#     4   9  17  29  44  61  81 107 138 172 211 252
#     4  10  20  32  46  64  86 116 148 180 218 256
#     4   8  14  22  31  49  72  99 138 170 195 238
#     4   9  17  27  40  58  80 108 144 178 208 249
#
# _framework density 21.910415
#
# number of rings (size 3 to 8) (size 9 to 14) (size 15 to 20)
#    0.000    3.333    0.000    2.000    1.556    0.889 
#    0.000    4.444    0.000    0.000    0.000    0.000 
#    0.000    0.000    0.000   16.000   10.667   18.222 
#
# Total GULP energy -200903.321359 kJ/mol
# GULP energy per Si atom -5580.647816 kJ/mol
# Density = 2.186055 g / cm^3
# Si number density = 21.910415 Si / 1000 Ang^3
#
#
#
# Elastic Constant Matrix: (Units=GPa)
#
#
# Indices 1 2 3 4 5 6 
#
# 1 134.5970 5.9054 64.2512 0.0000 0.0000 0.0000
# 2 5.9054 93.6584 -3.7373 0.0000 0.0000 0.0000
# 3 64.2512 -3.7373 138.9398 0.0000 0.0000 0.0000
# 4 0.0000 0.0000 0.0000 3.0452 0.0000 0.0000
# 5 0.0000 0.0000 0.0000 0.0000 6.7084 0.0000
# 6 0.0000 0.0000 0.0000 0.0000 0.0000 -16.2032
#
#
#
# Elastic Compliance Matrix: (Units=1/GPa)
#
#
# Indices 1 2 3 4 5 6 
#
# 1 0.009591 -0.000783 -0.004456 0.000000 0.000000 0.000000
# 2 -0.000783 0.010752 0.000651 0.000000 0.000000 0.000000
# 3 -0.004456 0.000651 0.009276 0.000000 0.000000 0.000000
# 4 0.000000 0.000000 0.000000 0.328382 0.000000 0.000000
# 5 0.000000 0.000000 0.000000 0.000000 0.149066 0.000000
# 6 0.000000 0.000000 0.000000 0.000000 0.000000 -0.061716
#
#
# Mechanical properties :
#
#
# Convention : Reuss Voigt Hill
#
# Bulk Modulus (GPa) = 48.91504 55.55932 52.23718
# Shear Modulus (GPa) = 10.83796 18.76183 14.79990
#
# Velocity S-wave (km/s) = 2.22648 2.92943 2.60181
# Velocity P-wave (km/s) = 5.38360 6.07080 5.73750
#
# Compressibility (1/GPa) = 0.02044361
#
# Stress axis : x y z
#
# Youngs Moduli (GPa) = 104.26198 93.00231 107.80873
#
# Poissons Ratio (x) = 0.07278 0.48044
# Poissons Ratio (y) = 0.08159 -0.07020
# Poissons Ratio (z) = 0.46463 -0.06056
#
# Static dielectric constant tensor:
#      x y z
#    x 1.778930 0.000000 0.000000 
#    y 0.000000 1.888770 0.000000 
#    z 0.000000 0.000000 1.687670 
# 
# From -- ./inp_files/69977.got.cif
#   From: 2010.05.17/outbox.cif.g08.bks.cpg/sg74_35_cif.got.tgz:69977.got - 2010.06.03 17:57:02.
