data_PCOD9537169
_publ_section_title
;
Structure prediction by ZEFSAII (Michael W. Deem and Ramdas Pophale) SiO2 
 PCOD9537169
Probable space group: I M M A
;
_chemical_formula_sum "Si O2"
_cell_formula_units_Z 96
_cell_length_a 25.787971
_cell_length_b 8.565662
_cell_length_c 25.757852
_cell_angle_alpha 90.000000
_cell_angle_beta 90.000000
_cell_angle_gamma 90.000000
_cell_volume 5689.678800
_symmetry_space_group_name_H-M "I M M A"
_symmetry_group_IT_number 74
_symmetry_cell_setting 'orthorhombic'
loop_
_space_group_symop_operation_xyz
x,y,z
-x,1/2-y,z
x,-y,-z
-x,1/2+y,-z
-x,-y,-z
x,1/2+y,-z
-x,y,z
x,1/2-y,z
1/2+x,1/2+y,1/2+z
1/2-x,-y,1/2+z
1/2+x,1/2-y,1/2-z
1/2-x,y,1/2-z
1/2-x,1/2-y,1/2-z
1/2+x,y,1/2-z
1/2-x,1/2+y,1/2+z
1/2+x,-y,1/2+z
loop_
_atom_site_type_symbol
_atom_site_label
_atom_site_fract_x
_atom_site_fract_y
_atom_site_fract_z
Si Si1 0.059094 0.927951 0.135663
Si Si2 0.237464 0.567046 0.055399
Si Si3 0.942470 0.937515 0.748679
Si Si4 0.624366 0.569156 0.549683
Si Si5 0.258735 0.563449 0.669856
Si Si6 0.668772 0.063142 0.754919
O O1 0.079243 0.750000 0.133574
O O2 0.000000 0.926557 0.116463
O O3 0.057649 0.987900 0.194150
O O4 0.092221 0.042556 0.101029
O O5 0.248584 0.750000 0.057810
O O6 0.175944 0.534109 0.053244
O O7 0.251269 0.488022 0.110467
O O8 0.258000 0.500000 0.000000
O O9 0.939530 0.750000 0.751131
O O10 0.000000 0.976668 0.725643
O O11 0.887800 0.001737 0.727694
O O12 0.594610 0.500000 0.500000
O O13 0.637973 0.750000 0.542943
O O14 0.261822 0.750000 0.672415
O O15 0.310805 0.496372 0.698165
O O16 0.211584 0.500429 0.704937
O O17 0.668958 0.250000 0.754035
#
# Coordination Sequence:
#
# PCOD9537169 Si02
#       6
#    16  16  16  16  16  16
#     4  10  20  33  47  63  84 113 151 195 241 286
#     4  11  21  35  52  72  97 126 161 199 242 291
#     4  10  20  34  51  71  96 127 162 199 241 291
#     4  11  21  33  47  63  84 113 151 194 240 286
#     4  11  21  35  53  75 103 135 170 207 251 300
#     4  11  21  34  52  76 104 134 169 209 253 299
#
# _framework density 16.872658000000001
#
# number of rings (size 3 to 8) (size 9 to 14) (size 15 to 20)
#    0.000    1.333    0.000   10.000    0.000    2.333 
#    0.000    0.000    0.000    0.000    0.000    0.000 
#    0.000    0.667    0.000    2.500    0.000    3.833 
#
# Total GULP energy -267698.080929 kJ/mol
# GULP energy per Si atom -5577.043353 kJ/mol
# Density = 1.683425 g / cm^3
# Si number density = 16.872658 Si / 1000 Ang^3
#
#
#
# Elastic Constant Matrix: (Units=GPa)
#
#
# Indices 1 2 3 4 5 6 
#
# 1 77.0039 28.4018 18.2091 0.0000 0.0000 0.0000
# 2 28.4018 131.2541 21.0895 0.0000 0.0000 0.0000
# 3 18.2091 21.0895 69.6817 0.0000 0.0000 0.0000
# 4 0.0000 0.0000 0.0000 27.2911 0.0000 0.0000
# 5 0.0000 0.0000 0.0000 0.0000 28.6367 0.0000
# 6 0.0000 0.0000 0.0000 0.0000 0.0000 18.4972
#
#
#
# Elastic Compliance Matrix: (Units=1/GPa)
#
#
# Indices 1 2 3 4 5 6 
#
# 1 0.014695 -0.002694 -0.003025 0.000000 0.000000 0.000000
# 2 -0.002694 0.008502 -0.001869 0.000000 0.000000 0.000000
# 3 -0.003025 -0.001869 0.015707 0.000000 0.000000 0.000000
# 4 0.000000 0.000000 0.000000 0.036642 0.000000 0.000000
# 5 0.000000 0.000000 0.000000 0.000000 0.034920 0.000000
# 6 0.000000 0.000000 0.000000 0.000000 0.000000 0.054062
#
#
# Mechanical properties :
#
#
# Convention : Reuss Voigt Hill
#
# Bulk Modulus (GPa) = 42.14321 45.92672 44.03497
# Shear Modulus (GPa) = 26.65044 28.90096 27.77570
#
# Velocity S-wave (km/s) = 3.97861 4.14319 4.06174
# Velocity P-wave (km/s) = 6.79244 7.08285 6.93916
#
# Compressibility (1/GPa) = 0.02372861
#
# Stress axis : x y z
#
# Youngs Moduli (GPa) = 68.04932 117.61842 63.66533
#
# Poissons Ratio (x) = 0.31685 0.19258
# Poissons Ratio (y) = 0.18331 0.11901
# Poissons Ratio (z) = 0.20584 0.21986
#
# Static dielectric constant tensor:
#      x y z
#    x 1.547740 0.000000 0.000000 
#    y 0.000000 1.568420 0.000000 
#    z 0.000000 0.000000 1.619830 
# 
# From -- ./inp_files/68579.got.cif
#   From: 2010.05.17/outbox.cif.g08.bks.cpg/sg74_35_cif.got.tgz:68579.got - 2010.06.03 17:57:02.
