data_PCOD9537785
_publ_section_title
;
Structure prediction by ZEFSAII (Michael W. Deem and Ramdas Pophale) SiO2 
 PCOD9537785
Probable space group: I M M A
;
_chemical_formula_sum "Si O2"
_cell_formula_units_Z 88
_cell_length_a 8.632913
_cell_length_b 22.908437
_cell_length_c 25.499035
_cell_angle_alpha 90.000000
_cell_angle_beta 90.000000
_cell_angle_gamma 90.000000
_cell_volume 5042.856017
_symmetry_space_group_name_H-M "I M M A"
_symmetry_group_IT_number 74
_symmetry_cell_setting 'orthorhombic'
loop_
_space_group_symop_operation_xyz
x,y,z
-x,1/2-y,z
x,-y,-z
-x,1/2+y,-z
-x,-y,-z
x,1/2+y,-z
-x,y,z
x,1/2-y,z
1/2+x,1/2+y,1/2+z
1/2-x,-y,1/2+z
1/2+x,1/2-y,1/2-z
1/2-x,y,1/2-z
1/2-x,1/2-y,1/2-z
1/2+x,y,1/2-z
1/2-x,1/2+y,1/2+z
1/2+x,-y,1/2+z
loop_
_atom_site_type_symbol
_atom_site_label
_atom_site_fract_x
_atom_site_fract_y
_atom_site_fract_z
Si Si1 0.186828 0.817407 0.401160
Si Si2 0.185385 0.750000 0.690920
Si Si3 0.814069 0.964501 0.692547
Si Si4 0.313902 0.181745 0.486905
Si Si5 0.186307 0.639796 0.873839
Si Si6 0.813259 0.599705 0.307049
O O1 0.238540 0.750000 0.394520
O O2 0.243259 0.838265 0.458093
O O3 0.240729 0.858111 0.353582
O O4 0.000000 0.817619 0.401056
O O5 0.250000 0.750000 0.750000
O O6 0.245272 0.693011 0.660116
O O7 0.000000 0.750000 0.692332
O O8 0.750000 0.948263 0.750000
O O9 0.744533 0.920450 0.650499
O O10 0.000000 0.960273 0.692798
O O11 0.769522 0.032100 0.683090
O O12 0.500000 0.179058 0.490775
O O13 0.270462 0.250000 0.479822
O O14 0.266021 0.148086 0.434477
O O15 0.000000 0.643208 0.871258
O O16 0.750000 0.616700 0.250000
O O17 0.000000 0.602035 0.305136
#
# Coordination Sequence:
#
# PCOD9537785 Si02
#       6
#    16   8  16  16  16  16
#     4   9  18  33  54  80 107 135 170 214 260 310
#     4  12  24  36  52  76 106 138 175 218 265 312
#     4  10  20  35  53  74 101 138 178 215 260 315
#     4   9  18  34  53  74 102 136 171 212 260 307
#     4  11  21  36  54  75 104 137 175 221 264 305
#     4   9  19  35  54  77 107 138 171 213 260 311
#
# _framework density 17.450427000000001
#
# number of rings (size 3 to 8) (size 9 to 14) (size 15 to 20)
#    0.000    2.182    0.909    2.455    0.000    3.273 
#    0.000    0.909    0.000    5.455    0.000    0.000 
#    0.000    0.000    0.000    0.000    0.000    0.000 
#
# Total GULP energy -245567.746421 kJ/mol
# GULP energy per Si atom -5581.085146 kJ/mol
# Density = 1.741071 g / cm^3
# Si number density = 17.450427 Si / 1000 Ang^3
#
#
#
# Elastic Constant Matrix: (Units=GPa)
#
#
# Indices 1 2 3 4 5 6 
#
# 1 40.0124 27.1685 41.0460 0.0000 0.0000 0.0000
# 2 27.1685 80.9934 101.0908 0.0000 0.0000 0.0000
# 3 41.0460 101.0908 200.0072 0.0000 0.0000 0.0000
# 4 0.0000 0.0000 0.0000 24.1134 0.0000 0.0000
# 5 0.0000 0.0000 0.0000 0.0000 31.0625 0.0000
# 6 0.0000 0.0000 0.0000 0.0000 0.0000 16.1761
#
#
#
# Elastic Compliance Matrix: (Units=1/GPa)
#
#
# Indices 1 2 3 4 5 6 
#
# 1 0.033102 -0.007111 -0.003199 0.000000 0.000000 0.000000
# 2 -0.007111 0.034974 -0.016218 0.000000 0.000000 0.000000
# 3 -0.003199 -0.016218 0.013853 0.000000 0.000000 0.000000
# 4 0.000000 0.000000 0.000000 0.041471 0.000000 0.000000
# 5 0.000000 0.000000 0.000000 0.000000 0.032193 0.000000
# 6 0.000000 0.000000 0.000000 0.000000 0.000000 0.061820
#
#
# Mechanical properties :
#
#
# Convention : Reuss Voigt Hill
#
# Bulk Modulus (GPa) = 34.63302 73.29150 53.96226
# Shear Modulus (GPa) = 17.85117 24.38425 21.11771
#
# Velocity S-wave (km/s) = 3.20185 3.74216 3.48250
# Velocity P-wave (km/s) = 5.79299 7.79504 6.86737
#
# Compressibility (1/GPa) = 0.02887418
#
# Stress axis : x y z
#
# Youngs Moduli (GPa) = 30.20925 28.59274 72.18405
#
# Poissons Ratio (x) = 0.20331 0.23095
# Poissons Ratio (y) = 0.21481 1.17067
# Poissons Ratio (z) = 0.09665 0.46371
#
# Static dielectric constant tensor:
#      x y z
#    x 1.590730 0.000000 0.000000 
#    y 0.000000 1.583900 0.000000 
#    z 0.000000 0.000000 1.575430 
# 
# From -- ./inp_files/48705.got.cif
#   From: 2010.05.17/outbox.cif.g08.bks.cpg/sg74_25_cif.got.tgz:48705.got - 2010.06.03 17:57:02.
