data_PCOD9537140
_publ_section_title
;
Structure prediction by ZEFSAII (Michael W. Deem and Ramdas Pophale) SiO2 
 PCOD9537140
Probable space group: I M M A
;
_chemical_formula_sum "Si O2"
_cell_formula_units_Z 80
_cell_length_a 27.373311
_cell_length_b 17.166403
_cell_length_c 7.150896
_cell_angle_alpha 90.000000
_cell_angle_beta 90.000000
_cell_angle_gamma 90.000000
_cell_volume 3360.215241
_symmetry_space_group_name_H-M "I M M A"
_symmetry_group_IT_number 74
_symmetry_cell_setting 'orthorhombic'
loop_
_space_group_symop_operation_xyz
x,y,z
-x,1/2-y,z
x,-y,-z
-x,1/2+y,-z
-x,-y,-z
x,1/2+y,-z
-x,y,z
x,1/2-y,z
1/2+x,1/2+y,1/2+z
1/2-x,-y,1/2+z
1/2+x,1/2-y,1/2-z
1/2-x,y,1/2-z
1/2-x,1/2-y,1/2-z
1/2+x,y,1/2-z
1/2-x,1/2+y,1/2+z
1/2+x,-y,1/2+z
loop_
_atom_site_type_symbol
_atom_site_label
_atom_site_fract_x
_atom_site_fract_y
_atom_site_fract_z
Si Si1 0.308128 0.995650 0.278252
Si Si2 0.308179 0.165896 0.279282
Si Si3 0.055733 0.878395 0.046960
Si Si4 0.055828 0.968462 0.693477
Si Si5 0.844752 0.832440 0.201168
O O1 0.250000 0.989281 0.250000
O O2 0.331429 0.915175 0.208397
O O3 0.319298 0.000000 0.500000
O O4 0.324288 0.080692 0.205184
O O5 0.328443 0.250000 0.213028
O O6 0.250000 0.166752 0.250000
O O7 0.317181 0.165488 0.501901
O O8 0.098178 0.831862 0.148195
O O9 0.000000 0.847974 0.041915
O O10 0.053889 0.957367 0.169316
O O11 0.072528 0.900184 0.835109
O O12 0.000000 0.944898 0.644969
O O13 0.078285 0.000000 0.500000
O O14 0.831208 0.750000 0.293688
#
# Coordination Sequence:
#
# PCOD9537140 Si02
#       5
#    16  16  16  16  16
#     4   9  18  32  53  76 101 135 182 231 287 351
#     4   8  15  29  50  74  98 131 174 223 284 342
#     4   9  18  31  53  83 115 153 196 238 287 352
#     4   8  15  29  51  80 109 143 190 243 294 340
#     4  10  20  32  52  77 111 154 193 241 289 338
#
# _framework density 23.807998999999999
#
# number of rings (size 3 to 8) (size 9 to 14) (size 15 to 20)
#    0.000    3.200    0.000    1.200    8.400    0.800 
#    0.000    1.000    4.400    1.200    0.000    5.600 
#    0.000    0.000    0.000    0.000    0.000    0.000 
#
# Total GULP energy -222749.319040 kJ/mol
# GULP energy per Si atom -5568.732976 kJ/mol
# Density = 2.375381 g / cm^3
# Si number density = 23.807999 Si / 1000 Ang^3
#
#
#
# Elastic Constant Matrix: (Units=GPa)
#
#
# Indices 1 2 3 4 5 6 
#
# 1 91.3139 25.9223 -2.2665 0.0000 0.0000 0.0000
# 2 25.9223 254.4495 21.3054 0.0000 0.0000 0.0000
# 3 -2.2665 21.3054 122.9580 0.0000 0.0000 0.0000
# 4 0.0000 0.0000 0.0000 25.1329 0.0000 0.0000
# 5 0.0000 0.0000 0.0000 0.0000 22.0843 0.0000
# 6 0.0000 0.0000 0.0000 0.0000 0.0000 18.2591
#
#
#
# Elastic Compliance Matrix: (Units=1/GPa)
#
#
# Indices 1 2 3 4 5 6 
#
# 1 0.011298 -0.001186 0.000414 0.000000 0.000000 0.000000
# 2 -0.001186 0.004112 -0.000734 0.000000 0.000000 0.000000
# 3 0.000414 -0.000734 0.008268 0.000000 0.000000 0.000000
# 4 0.000000 0.000000 0.000000 0.039789 0.000000 0.000000
# 5 0.000000 0.000000 0.000000 0.000000 0.045281 0.000000
# 6 0.000000 0.000000 0.000000 0.000000 0.000000 0.054767
#
#
# Mechanical properties :
#
#
# Convention : Reuss Voigt Hill
#
# Bulk Modulus (GPa) = 48.38995 62.07152 55.23073
# Shear Modulus (GPa) = 28.83241 41.34595 35.08918
#
# Velocity S-wave (km/s) = 3.48377 4.17182 3.84323
# Velocity P-wave (km/s) = 6.04578 7.02380 6.55306
#
# Compressibility (1/GPa) = 0.02066545
#
# Stress axis : x y z
#
# Youngs Moduli (GPa) = 88.51055 243.17083 120.95202
#
# Poissons Ratio (x) = 0.28831 -0.05004
# Poissons Ratio (y) = 0.10494 0.08883
# Poissons Ratio (z) = -0.03662 0.17859
#
# Static dielectric constant tensor:
#      x y z
#    x 1.950940 0.000000 0.000000 
#    y 0.000000 1.990120 0.000000 
#    z 0.000000 0.000000 1.862280 
# 
# From -- ./inp_files/14914.got.cif
#   From: 2010.05.17/outbox.cif.g08.bks.cpg/sg74_8_cif.got.tgz:14914.got - 2010.06.03 17:57:02.
