data_PCOD9537877
_publ_section_title
;
Structure prediction by ZEFSAII (Michael W. Deem and Ramdas Pophale) SiO2 
 PCOD9537877
Probable space group: I M M A
;
_chemical_formula_sum "Si O2"
_cell_formula_units_Z 116
_cell_length_a 29.107367
_cell_length_b 9.540839
_cell_length_c 22.845852
_cell_angle_alpha 90.000000
_cell_angle_beta 90.000000
_cell_angle_gamma 90.000000
_cell_volume 6344.491911
_symmetry_space_group_name_H-M "I M M A"
_symmetry_group_IT_number 74
_symmetry_cell_setting 'orthorhombic'
loop_
_space_group_symop_operation_xyz
x,y,z
-x,1/2-y,z
x,-y,-z
-x,1/2+y,-z
-x,-y,-z
x,1/2+y,-z
-x,y,z
x,1/2-y,z
1/2+x,1/2+y,1/2+z
1/2-x,-y,1/2+z
1/2+x,1/2-y,1/2-z
1/2-x,y,1/2-z
1/2-x,1/2-y,1/2-z
1/2+x,y,1/2-z
1/2-x,1/2+y,1/2+z
1/2+x,-y,1/2+z
loop_
_atom_site_type_symbol
_atom_site_label
_atom_site_fract_x
_atom_site_fract_y
_atom_site_fract_z
Si Si1 0.803047 0.411823 0.268897
Si Si2 0.198710 0.919744 0.061885
Si Si3 0.554635 0.409984 0.700240
Si Si4 0.799772 0.416944 0.614431
Si Si5 0.889521 0.911751 0.447074
Si Si6 0.500000 0.750000 0.830342
Si Si7 0.135903 0.082463 0.153356
Si Si8 0.449246 0.961875 0.167110
O O1 0.810391 0.250000 0.286217
O O2 0.750000 0.427538 0.250000
O O3 0.810492 0.509267 0.324428
O O4 0.834904 0.440406 0.213024
O O5 0.192631 0.750000 0.056370
O O6 0.248357 0.945080 0.092229
O O7 0.160744 0.992813 0.103012
O O8 0.198232 0.000000 0.000000
O O9 0.500000 0.441328 0.697340
O O10 0.561996 0.250000 0.679876
O O11 0.585508 0.520051 0.665528
O O12 0.567718 0.417265 0.768996
O O13 0.804600 0.250000 0.621723
O O14 0.838006 0.462030 0.567595
O O15 0.888306 0.750000 0.464597
O O16 0.910221 0.000000 0.500000
O O17 0.917204 0.925853 0.386772
O O18 0.460419 0.873321 0.830310
O O19 0.135714 0.250000 0.141354
O O20 0.500000 0.898124 0.157972
#
# Coordination Sequence:
#
# PCOD9537877 Si02
#       8
#    16  16  16  16  16   4  16  16
#     4  10  20  35  55  84 120 152 188 236 286 340
#     4  11  23  40  62  83 115 154 198 239 284 340
#     4  10  21  38  62  89 122 153 186 233 290 349
#     4  10  22  39  57  82 113 153 194 239 291 344
#     4  11  24  38  55  79 110 148 199 246 295 346
#     4   8  20  36  60  84 110 142 200 232 298 354
#     4  11  23  37  60  90 122 156 196 237 286 340
#     4   9  20  37  59  79 113 146 191 238 293 349
#
# _framework density 18.283576
#
# number of rings (size 3 to 8) (size 9 to 14) (size 15 to 20)
#    0.414    1.379    1.379    2.483    1.931    4.966 
#    0.000    0.000    0.000    0.414    0.000    0.000 
#    0.000    0.000    0.000    0.000    0.000    0.000 
#
# Total GULP energy -323102.629535 kJ/mol
# GULP energy per Si atom -5570.734992 kJ/mol
# Density = 1.824196 g / cm^3
# Si number density = 18.283576 Si / 1000 Ang^3
#
#
#
# Elastic Constant Matrix: (Units=GPa)
#
#
# Indices 1 2 3 4 5 6 
#
# 1 61.5295 29.5228 22.1501 0.0000 0.0000 0.0000
# 2 29.5228 96.2064 42.5933 0.0000 0.0000 0.0000
# 3 22.1501 42.5933 77.8716 0.0000 0.0000 0.0000
# 4 0.0000 0.0000 0.0000 20.6257 0.0000 0.0000
# 5 0.0000 0.0000 0.0000 0.0000 10.3938 0.0000
# 6 0.0000 0.0000 0.0000 0.0000 0.0000 22.3635
#
#
#
# Elastic Compliance Matrix: (Units=1/GPa)
#
#
# Indices 1 2 3 4 5 6 
#
# 1 0.019580 -0.004675 -0.003012 0.000000 0.000000 0.000000
# 2 -0.004675 0.014832 -0.006783 0.000000 0.000000 0.000000
# 3 -0.003012 -0.006783 0.017408 0.000000 0.000000 0.000000
# 4 0.000000 0.000000 0.000000 0.048483 0.000000 0.000000
# 5 0.000000 0.000000 0.000000 0.000000 0.096212 0.000000
# 6 0.000000 0.000000 0.000000 0.000000 0.000000 0.044716
#
#
# Mechanical properties :
#
#
# Convention : Reuss Voigt Hill
#
# Bulk Modulus (GPa) = 43.70601 47.12665 45.41633
# Shear Modulus (GPa) = 17.99874 20.09936 19.04905
#
# Velocity S-wave (km/s) = 3.14095 3.31919 3.23130
# Velocity P-wave (km/s) = 6.09184 6.36559 6.23022
#
# Compressibility (1/GPa) = 0.02288015
#
# Stress axis : x y z
#
# Youngs Moduli (GPa) = 51.07291 67.42269 57.44329
#
# Poissons Ratio (x) = 0.31519 0.17304
# Poissons Ratio (y) = 0.23876 0.38963
# Poissons Ratio (z) = 0.15385 0.45731
#
# Static dielectric constant tensor:
#      x y z
#    x 1.647470 0.000000 0.000000 
#    y 0.000000 1.630200 0.000000 
#    z 0.000000 0.000000 1.605790 
# 
# From -- ./inp_files/62447.got.cif
#   From: 2010.05.17/outbox.cif.g08.bks.cpg/sg74_32_cif.got.tgz:62447.got - 2010.06.03 17:57:02.
