data_PCOD9537661
_publ_section_title
;
Structure prediction by ZEFSAII (Michael W. Deem and Ramdas Pophale) SiO2 
 PCOD9537661
Probable space group: I M M A
;
_chemical_formula_sum "Si O2"
_cell_formula_units_Z 72
_cell_length_a 21.577521
_cell_length_b 9.161431
_cell_length_c 19.626541
_cell_angle_alpha 90.000000
_cell_angle_beta 90.000000
_cell_angle_gamma 90.000000
_cell_volume 3879.793659
_symmetry_space_group_name_H-M "I M M A"
_symmetry_group_IT_number 74
_symmetry_cell_setting 'orthorhombic'
loop_
_space_group_symop_operation_xyz
x,y,z
-x,1/2-y,z
x,-y,-z
-x,1/2+y,-z
-x,-y,-z
x,1/2+y,-z
-x,y,z
x,1/2-y,z
1/2+x,1/2+y,1/2+z
1/2-x,-y,1/2+z
1/2+x,1/2-y,1/2-z
1/2-x,y,1/2-z
1/2-x,1/2-y,1/2-z
1/2+x,y,1/2-z
1/2-x,1/2+y,1/2+z
1/2+x,-y,1/2+z
loop_
_atom_site_type_symbol
_atom_site_label
_atom_site_fract_x
_atom_site_fract_y
_atom_site_fract_z
Si Si1 0.381601 0.574988 0.331181
Si Si2 0.619914 0.924930 0.816146
Si Si3 0.428015 0.588122 0.062348
Si Si4 0.500000 0.074262 0.574204
Si Si5 0.243200 0.581954 0.832626
O O1 0.380762 0.750000 0.323237
O O2 0.389222 0.498706 0.257377
O O3 0.438311 0.536544 0.381682
O O4 0.314017 0.517415 0.354986
O O5 0.616692 0.750000 0.808970
O O6 0.686947 0.961201 0.850461
O O7 0.573663 0.992762 0.869819
O O8 0.500000 0.607916 0.044892
O O9 0.401050 0.750000 0.072565
O O10 0.398198 0.500000 0.000000
O O11 0.500000 0.250000 0.565695
O O12 0.500000 0.000000 0.500000
O O13 0.230928 0.750000 0.852175
O O14 0.250000 0.579268 0.750000
#
# Coordination Sequence:
#
# PCOD9537661 Si02
#       5
#    16  16  16   8  16
#     4  10  20  35  56  82 110 140 179 227 278 327
#     4  10  20  34  55  83 112 143 183 225 267 323
#     4  10  21  36  53  75 108 146 181 221 266 314
#     4  10  24  42  58  80 111 144 183 232 280 334
#     4   8  16  32  52  78 110 140 175 223 272 321
#
# _framework density 18.557687000000001
#
# number of rings (size 3 to 8) (size 9 to 14) (size 15 to 20)
#    0.000    2.444    0.000    3.333    1.556    8.000 
#    0.000    1.111    0.000    2.667    0.000    0.000 
#    0.000    0.000    0.000    0.000    0.000    0.000 
#
# Total GULP energy -200436.109622 kJ/mol
# GULP energy per Si atom -5567.669712 kJ/mol
# Density = 1.851545 g / cm^3
# Si number density = 18.557687 Si / 1000 Ang^3
#
#
#
# Elastic Constant Matrix: (Units=GPa)
#
#
# Indices 1 2 3 4 5 6 
#
# 1 95.2254 61.4261 45.1184 0.0000 0.0000 0.0000
# 2 61.4261 100.7385 57.4285 0.0000 0.0000 0.0000
# 3 45.1184 57.4285 90.1198 0.0000 0.0000 0.0000
# 4 0.0000 0.0000 0.0000 22.1523 0.0000 0.0000
# 5 0.0000 0.0000 0.0000 0.0000 -5.5111 0.0000
# 6 0.0000 0.0000 0.0000 0.0000 0.0000 27.4903
#
#
#
# Elastic Compliance Matrix: (Units=1/GPa)
#
#
# Indices 1 2 3 4 5 6 
#
# 1 0.017860 -0.009098 -0.003144 0.000000 0.000000 0.000000
# 2 -0.009098 0.020225 -0.008333 0.000000 0.000000 0.000000
# 3 -0.003144 -0.008333 0.017981 0.000000 0.000000 0.000000
# 4 0.000000 0.000000 0.000000 0.045142 0.000000 0.000000
# 5 0.000000 0.000000 0.000000 0.000000 -0.181451 0.000000
# 6 0.000000 0.000000 0.000000 0.000000 0.000000 0.036377
#
#
# Mechanical properties :
#
#
# Convention : Reuss Voigt Hill
#
# Bulk Modulus (GPa) = 67.04633 68.22554 67.63593
# Shear Modulus (GPa) = 2217.62414 16.96699 1117.29557
#
# Velocity S-wave (km/s) = 34.60612 3.02699 24.56366
# Velocity P-wave (km/s) = 40.41021 7.00434 29.00040
#
# Compressibility (1/GPa) = 0.01491506
#
# Stress axis : x y z
#
# Youngs Moduli (GPa) = 55.99224 49.44420 55.61512
#
# Poissons Ratio (x) = 0.44983 0.17485
# Poissons Ratio (y) = 0.50941 0.46346
# Poissons Ratio (z) = 0.17603 0.41204
#
# Static dielectric constant tensor:
#      x y z
#    x 1.740930 0.000000 0.000000 
#    y 0.000000 1.666790 0.000000 
#    z 0.000000 0.000000 1.621570 
# 
# From -- ./inp_files/45828.got.cif
#   From: 2010.05.17/outbox.cif.g08.bks.cpg/sg74_23_cif.got.tgz:45828.got - 2010.06.03 17:57:02.
