data_PCOD9537459
_publ_section_title
;
Structure prediction by ZEFSAII (Michael W. Deem and Ramdas Pophale) SiO2 
 PCOD9537459
Probable space group: I M M A
;
_chemical_formula_sum "Si O2"
_cell_formula_units_Z 104
_cell_length_a 20.872431
_cell_length_b 8.867330
_cell_length_c 32.796833
_cell_angle_alpha 90.000000
_cell_angle_beta 90.000000
_cell_angle_gamma 90.000000
_cell_volume 6070.127504
_symmetry_space_group_name_H-M "I M M A"
_symmetry_group_IT_number 74
_symmetry_cell_setting 'orthorhombic'
loop_
_space_group_symop_operation_xyz
x,y,z
-x,1/2-y,z
x,-y,-z
-x,1/2+y,-z
-x,-y,-z
x,1/2+y,-z
-x,y,z
x,1/2-y,z
1/2+x,1/2+y,1/2+z
1/2-x,-y,1/2+z
1/2+x,1/2-y,1/2-z
1/2-x,y,1/2-z
1/2-x,1/2-y,1/2-z
1/2+x,y,1/2-z
1/2-x,1/2+y,1/2+z
1/2+x,-y,1/2+z
loop_
_atom_site_type_symbol
_atom_site_label
_atom_site_fract_x
_atom_site_fract_y
_atom_site_fract_z
Si Si1 0.000000 0.071129 0.044271
Si Si2 0.572577 0.569320 0.818797
Si Si3 0.828202 0.930943 0.834414
Si Si4 0.874259 0.070429 0.918830
Si Si5 0.573516 0.569277 0.270729
Si Si6 0.193896 0.931238 0.628537
Si Si7 0.761824 0.070797 0.543444
O O1 0.000000 0.250000 0.042297
O O2 0.062875 0.010725 0.066029
O O3 0.000000 0.000000 0.000000
O O4 0.500000 0.540478 0.833431
O O5 0.578714 0.750000 0.811868
O O6 0.580544 0.486366 0.775704
O O7 0.627173 0.524465 0.850679
O O8 0.833895 0.750000 0.833995
O O9 0.752521 0.967987 0.840254
O O10 0.857460 0.002069 0.875173
O O11 0.869907 0.997186 0.797530
O O12 0.883474 0.250000 0.916049
O O13 0.813835 0.041940 0.948432
O O14 0.500000 0.526477 0.283805
O O15 0.577703 0.750000 0.273038
O O16 0.195045 0.750000 0.623061
O O17 0.205189 0.004601 0.584251
O O18 0.771726 0.250000 0.542214
O O19 0.780790 0.000000 0.500000
#
# Coordination Sequence:
#
# PCOD9537459 Si02
#       7
#     8  16  16  16  16  16  16
#     4  12  24  36  50  70  96 132 176 220 268 316
#     4   9  18  35  58  81 105 136 173 212 259 317
#     4  10  20  34  52  75 104 138 177 218 263 314
#     4  10  21  36  52  72 100 134 173 219 266 311
#     4  10  21  35  51  73 104 142 181 222 264 308
#     4   9  19  35  55  80 108 136 170 215 263 313
#     4  10  20  34  55  79 104 136 171 211 258 310
#
# _framework density 17.133082999999999
#
# number of rings (size 3 to 8) (size 9 to 14) (size 15 to 20)
#    0.000    2.154    0.000    3.000    1.077    5.846 
#    0.000    3.077    0.000    0.462    0.000    0.000 
#    0.000    0.000    0.000    0.000    0.000    0.000 
#
# Total GULP energy -290066.448847 kJ/mol
# GULP energy per Si atom -5578.200939 kJ/mol
# Density = 1.709409 g / cm^3
# Si number density = 17.133083 Si / 1000 Ang^3
#
#
#
# Elastic Constant Matrix: (Units=GPa)
#
#
# Indices 1 2 3 4 5 6 
#
# 1 132.1957 63.2237 83.6711 0.0000 0.0000 0.0000
# 2 63.2237 58.3514 49.3992 0.0000 0.0000 0.0000
# 3 83.6711 49.3992 96.8101 0.0000 0.0000 0.0000
# 4 0.0000 0.0000 0.0000 30.6435 0.0000 0.0000
# 5 0.0000 0.0000 0.0000 0.0000 9.9240 0.0000
# 6 0.0000 0.0000 0.0000 0.0000 0.0000 18.5887
#
#
#
# Elastic Compliance Matrix: (Units=1/GPa)
#
#
# Indices 1 2 3 4 5 6 
#
# 1 0.021202 -0.013132 -0.011624 0.000000 0.000000 0.000000
# 2 -0.013132 0.038305 -0.008196 0.000000 0.000000 0.000000
# 3 -0.011624 -0.008196 0.024558 0.000000 0.000000 0.000000
# 4 0.000000 0.000000 0.000000 0.032633 0.000000 0.000000
# 5 0.000000 0.000000 0.000000 0.000000 0.100766 0.000000
# 6 0.000000 0.000000 0.000000 0.000000 0.000000 0.053796
#
#
# Mechanical properties :
#
#
# Convention : Reuss Voigt Hill
#
# Bulk Modulus (GPa) = 55.06246 75.54947 65.30596
# Shear Modulus (GPa) = 14.56807 17.90213 16.23510
#
# Velocity S-wave (km/s) = 2.91913 3.23598 3.08163
# Velocity P-wave (km/s) = 6.60073 7.62584 7.13173
#
# Compressibility (1/GPa) = 0.01816119
#
# Stress axis : x y z
#
# Youngs Moduli (GPa) = 47.16525 26.10657 40.72042
#
# Poissons Ratio (x) = 0.34283 0.47332
# Poissons Ratio (y) = 0.61937 0.33374
# Poissons Ratio (z) = 0.54823 0.21397
#
# Static dielectric constant tensor:
#      x y z
#    x 1.585930 0.000000 0.000000 
#    y 0.000000 1.567320 0.000000 
#    z 0.000000 0.000000 1.545840 
# 
# From -- ./inp_files/64508.got.cif
#   From: 2010.05.17/outbox.cif.g08.bks.cpg/sg74_33_cif.got.tgz:64508.got - 2010.06.03 17:57:02.
