data_PCOD9537730
_publ_section_title
;
Structure prediction by ZEFSAII (Michael W. Deem and Ramdas Pophale) SiO2 
 PCOD9537730
Probable space group: I M M A
;
_chemical_formula_sum "Si O2"
_cell_formula_units_Z 100
_cell_length_a 7.644922
_cell_length_b 27.397550
_cell_length_c 22.034135
_cell_angle_alpha 90.000000
_cell_angle_beta 90.000000
_cell_angle_gamma 90.000000
_cell_volume 4615.096569
_symmetry_space_group_name_H-M "I M M A"
_symmetry_group_IT_number 74
_symmetry_cell_setting 'orthorhombic'
loop_
_space_group_symop_operation_xyz
x,y,z
-x,1/2-y,z
x,-y,-z
-x,1/2+y,-z
-x,-y,-z
x,1/2+y,-z
-x,y,z
x,1/2-y,z
1/2+x,1/2+y,1/2+z
1/2-x,-y,1/2+z
1/2+x,1/2-y,1/2-z
1/2-x,y,1/2-z
1/2-x,1/2-y,1/2-z
1/2+x,y,1/2-z
1/2-x,1/2+y,1/2+z
1/2+x,-y,1/2+z
loop_
_atom_site_type_symbol
_atom_site_label
_atom_site_fract_x
_atom_site_fract_y
_atom_site_fract_z
Si Si1 0.710600 0.194788 0.977874
Si Si2 0.286205 0.010502 0.069688
Si Si3 0.750000 0.750000 0.250000
Si Si4 0.790934 0.058559 0.681554
Si Si5 0.709711 0.803383 0.820443
Si Si6 0.714235 0.878544 0.917898
Si Si7 0.300684 0.170274 0.659712
O O1 0.500000 0.196247 0.982976
O O2 0.774245 0.250000 0.990342
O O3 0.757744 0.179081 0.910242
O O4 0.771522 0.153403 0.024444
O O5 0.500000 0.008422 0.069848
O O6 0.229425 0.065736 0.082888
O O7 0.229274 0.974351 0.124267
O O8 0.232223 0.000000 0.000000
O O9 0.804484 0.706891 0.298463
O O10 0.750000 0.040079 0.750000
O O11 0.719580 0.113554 0.675439
O O12 0.000000 0.061798 0.676762
O O13 0.500000 0.802285 0.827615
O O14 0.776001 0.750000 0.840498
O O15 0.750000 0.808951 0.750000
O O16 0.774622 0.847984 0.859939
O O17 0.500000 0.879832 0.918835
O O18 0.500000 0.186642 0.670624
#
# Coordination Sequence:
#
# PCOD9537730 Si02
#       7
#    16  16   4  16  16  16  16
#     4  10  20  34  57  87 117 149 189 234 282 333
#     4   9  18  34  57  83 109 142 187 234 279 326
#     4  12  26  40  60  82 118 156 188 216 272 340
#     4  11  23  39  61  86 114 149 190 239 287 335
#     4   9  17  30  50  77 110 145 182 223 273 328
#     4   9  17  32  55  82 111 146 189 234 276 331
#     4  12  25  41  61  85 117 152 187 228 277 333
#
# _framework density 21.668019999999999
#
# number of rings (size 3 to 8) (size 9 to 14) (size 15 to 20)
#    0.000    1.920    1.600    2.640    0.000    7.040 
#    0.000    0.800    0.000   11.520    0.000    0.000 
#    0.000    0.000    0.000    0.000    0.000    0.000 
#
# Total GULP energy -278807.540052 kJ/mol
# GULP energy per Si atom -5576.150801 kJ/mol
# Density = 2.161870 g / cm^3
# Si number density = 21.668020 Si / 1000 Ang^3
#
#
#
# Elastic Constant Matrix: (Units=GPa)
#
#
# Indices 1 2 3 4 5 6 
#
# 1 49.6093 5.5455 -5.3317 0.0000 0.0000 0.0000
# 2 5.5455 195.8775 113.4047 0.0000 0.0000 0.0000
# 3 -5.3317 113.4047 145.5380 0.0000 0.0000 0.0000
# 4 0.0000 0.0000 0.0000 43.5686 0.0000 0.0000
# 5 0.0000 0.0000 0.0000 0.0000 18.3313 0.0000
# 6 0.0000 0.0000 0.0000 0.0000 0.0000 3.8183
#
#
#
# Elastic Compliance Matrix: (Units=1/GPa)
#
#
# Indices 1 2 3 4 5 6 
#
# 1 0.020602 -0.001859 0.002203 0.000000 0.000000 0.000000
# 2 -0.001859 0.009469 -0.007446 0.000000 0.000000 0.000000
# 3 0.002203 -0.007446 0.012754 0.000000 0.000000 0.000000
# 4 0.000000 0.000000 0.000000 0.022952 0.000000 0.000000
# 5 0.000000 0.000000 0.000000 0.000000 0.054552 0.000000
# 6 0.000000 0.000000 0.000000 0.000000 0.000000 0.261894
#
#
# Mechanical properties :
#
#
# Convention : Reuss Voigt Hill
#
# Bulk Modulus (GPa) = 34.93939 68.69577 51.81758
# Shear Modulus (GPa) = 12.31626 31.63739 21.97682
#
# Velocity S-wave (km/s) = 2.38672 3.82527 3.18819
# Velocity P-wave (km/s) = 4.87392 7.16120 6.12527
#
# Compressibility (1/GPa) = 0.02862100
#
# Stress axis : x y z
#
# Youngs Moduli (GPa) = 48.53879 105.60727 78.40596
#
# Poissons Ratio (x) = 0.19630 -0.17274
# Poissons Ratio (y) = 0.09022 0.58385
# Poissons Ratio (z) = -0.10694 0.78640
#
# Static dielectric constant tensor:
#      x y z
#    x 1.858640 0.000000 0.000000 
#    y 0.000000 1.775930 0.000000 
#    z 0.000000 0.000000 1.810660 
# 
# From -- ./inp_files/49257.got.cif
#   From: 2010.05.17/outbox.cif.g08.bks.cpg/sg74_25_cif.got.tgz:49257.got - 2010.06.03 17:57:02.
