data_PCOD9537935
_publ_section_title
;
Structure prediction by ZEFSAII (Michael W. Deem and Ramdas Pophale) SiO2 
 PCOD9537935
Probable space group: I M M A
;
_chemical_formula_sum "Si O2"
_cell_formula_units_Z 120
_cell_length_a 8.852134
_cell_length_b 29.065752
_cell_length_c 24.497168
_cell_angle_alpha 90.000000
_cell_angle_beta 90.000000
_cell_angle_gamma 90.000000
_cell_volume 6302.972666
_symmetry_space_group_name_H-M "I M M A"
_symmetry_group_IT_number 74
_symmetry_cell_setting 'orthorhombic'
loop_
_space_group_symop_operation_xyz
x,y,z
-x,1/2-y,z
x,-y,-z
-x,1/2+y,-z
-x,-y,-z
x,1/2+y,-z
-x,y,z
x,1/2-y,z
1/2+x,1/2+y,1/2+z
1/2-x,-y,1/2+z
1/2+x,1/2-y,1/2-z
1/2-x,y,1/2-z
1/2-x,1/2-y,1/2-z
1/2+x,y,1/2-z
1/2-x,1/2+y,1/2+z
1/2+x,-y,1/2+z
loop_
_atom_site_type_symbol
_atom_site_label
_atom_site_fract_x
_atom_site_fract_y
_atom_site_fract_z
Si Si1 0.182359 0.250000 0.310433
Si Si2 0.171248 0.437057 0.138755
Si Si3 0.181799 0.619563 0.189291
Si Si4 0.172522 0.448848 0.008489
Si Si5 0.179915 0.353520 0.502371
Si Si6 0.679682 0.025222 0.810287
Si Si7 0.181947 0.697757 0.103376
Si Si8 0.818046 0.342041 0.375218
O O1 0.250000 0.250000 0.250000
O O2 0.226591 0.204292 0.343952
O O3 0.000000 0.250000 0.306778
O O4 0.165697 0.441299 0.073354
O O5 0.271494 0.479017 0.159532
O O6 0.241435 0.387183 0.150434
O O7 0.000000 0.441019 0.160194
O O8 0.250000 0.625074 0.250000
O O9 0.246830 0.571678 0.165657
O O10 0.225487 0.661975 0.150737
O O11 0.000000 0.616612 0.192764
O O12 0.000000 0.448300 0.986513
O O13 0.236380 0.500000 0.000000
O O14 0.263572 0.405486 0.986089
O O15 0.252687 0.319790 0.546213
O O16 0.221835 0.340765 0.439767
O O17 0.000000 0.351723 0.506375
O O18 0.500000 0.029987 0.807957
O O19 0.750000 0.021878 0.750000
O O20 0.230028 0.750000 0.114962
O O21 0.000000 0.696861 0.100084
O O22 0.000000 0.347008 0.372229
#
# Coordination Sequence:
#
# PCOD9537935 Si02
#       8
#     8  16  16  16  16  16  16  16
#     4  10  22  40  62  86 114 150 193 238 291 344
#     4  10  20  35  56  83 115 150 191 234 282 339
#     4  10  21  39  61  84 115 152 192 238 292 349
#     4   9  19  35  55  80 113 155 192 226 278 341
#     4  10  21  36  58  87 117 151 194 240 289 341
#     4  11  22  37  58  84 115 150 192 235 285 343
#     4  10  23  41  60  85 117 154 195 240 294 355
#     4   9  20  39  59  81 116 158 192 237 295 344
#
# _framework density 19.038636
#
# number of rings (size 3 to 8) (size 9 to 14) (size 15 to 20)
#    0.000    2.133    0.000    3.200    2.800    4.000 
#    0.000    1.333    0.000    0.000    0.000    0.000 
#    0.000    0.000    0.000    0.000    0.000    0.000 
#
# Total GULP energy -334991.027297 kJ/mol
# GULP energy per Si atom -5583.183788 kJ/mol
# Density = 1.899530 g / cm^3
# Si number density = 19.038636 Si / 1000 Ang^3
#
#
#
# Elastic Constant Matrix: (Units=GPa)
#
#
# Indices 1 2 3 4 5 6 
#
# 1 60.5784 51.0364 29.5690 0.0000 0.0000 0.0000
# 2 51.0364 193.0331 63.8124 0.0000 0.0000 0.0000
# 3 29.5690 63.8124 58.9009 0.0000 0.0000 0.0000
# 4 0.0000 0.0000 0.0000 32.6452 0.0000 0.0000
# 5 0.0000 0.0000 0.0000 0.0000 28.1824 0.0000
# 6 0.0000 0.0000 0.0000 0.0000 0.0000 23.4103
#
#
#
# Elastic Compliance Matrix: (Units=1/GPa)
#
#
# Indices 1 2 3 4 5 6 
#
# 1 0.023353 -0.003582 -0.007844 0.000000 0.000000 0.000000
# 2 -0.003582 0.008620 -0.007541 0.000000 0.000000 0.000000
# 3 -0.007844 -0.007541 0.029085 0.000000 0.000000 0.000000
# 4 0.000000 0.000000 0.000000 0.030632 0.000000 0.000000
# 5 0.000000 0.000000 0.000000 0.000000 0.035483 0.000000
# 6 0.000000 0.000000 0.000000 0.000000 0.000000 0.042716
#
#
# Mechanical properties :
#
#
# Convention : Reuss Voigt Hill
#
# Bulk Modulus (GPa) = 43.24040 66.81646 55.02843
# Shear Modulus (GPa) = 23.19839 28.05387 25.62613
#
# Velocity S-wave (km/s) = 3.49447 3.84281 3.67278
# Velocity P-wave (km/s) = 6.24844 7.40682 6.85215
#
# Compressibility (1/GPa) = 0.02312652
#
# Stress axis : x y z
#
# Youngs Moduli (GPa) = 42.82020 116.00468 34.38172
#
# Poissons Ratio (x) = 0.41548 0.26967
# Poissons Ratio (y) = 0.15336 0.25928
# Poissons Ratio (z) = 0.33586 0.87481
#
# Static dielectric constant tensor:
#      x y z
#    x 1.651720 0.000000 0.000000 
#    y 0.000000 1.661770 0.000000 
#    z 0.000000 0.000000 1.655420 
# 
# From -- ./inp_files/65107.got.cif
#   From: 2010.05.17/outbox.cif.g08.bks.cpg/sg74_33_cif.got.tgz:65107.got - 2010.06.03 17:57:02.
