data_PCOD9537129
_publ_section_title
;
Structure prediction by ZEFSAII (Michael W. Deem and Ramdas Pophale) SiO2 
 PCOD9537129
Probable space group: I M M A
;
_chemical_formula_sum "Si O2"
_cell_formula_units_Z 64
_cell_length_a 11.881475
_cell_length_b 16.231289
_cell_length_c 13.528770
_cell_angle_alpha 90.000000
_cell_angle_beta 90.000000
_cell_angle_gamma 90.000000
_cell_volume 2609.045677
_symmetry_space_group_name_H-M "I M M A"
_symmetry_group_IT_number 74
_symmetry_cell_setting 'orthorhombic'
loop_
_space_group_symop_operation_xyz
x,y,z
-x,1/2-y,z
x,-y,-z
-x,1/2+y,-z
-x,-y,-z
x,1/2+y,-z
-x,y,z
x,1/2-y,z
1/2+x,1/2+y,1/2+z
1/2-x,-y,1/2+z
1/2+x,1/2-y,1/2-z
1/2-x,y,1/2-z
1/2-x,1/2-y,1/2-z
1/2+x,y,1/2-z
1/2-x,1/2+y,1/2+z
1/2+x,-y,1/2+z
loop_
_atom_site_type_symbol
_atom_site_label
_atom_site_fract_x
_atom_site_fract_y
_atom_site_fract_z
Si Si1 0.282819 0.750000 0.885783
Si Si2 0.864767 0.583899 0.388245
Si Si3 0.754520 0.750000 0.377774
Si Si4 0.000000 0.250000 0.255305
Si Si5 0.000000 0.104854 0.094767
Si Si6 0.242738 0.070039 0.103113
Si Si7 0.500000 0.250000 0.569525
O O1 0.399136 0.750000 0.831672
O O2 0.232014 0.837375 0.856783
O O3 0.279666 0.750000 0.004181
O O4 0.815832 0.667165 0.341259
O O5 0.807549 0.581339 0.497871
O O6 0.817890 0.498484 0.342987
O O7 0.000000 0.584826 0.393540
O O8 0.618661 0.750000 0.372365
O O9 0.000000 0.331689 0.187538
O O10 0.111627 0.048813 0.093758
O O11 0.000000 0.168578 0.001149
#
# Coordination Sequence:
#
# PCOD9537129 Si02
#       7
#     8  16   8   4   8  16   4
#     4  10  20  33  50  72 104 148 175 214 263 288
#     4  10  20  32  51  78  99 134 176 211 270 332
#     4  10  20  33  56  76 108 142 170 225 264 320
#     4  11  26  32  54  74 104 154 198 214 253 318
#     4  11  20  36  45  71 103 138 190 221 245 309
#     4  10  20  32  51  70 103 140 174 221 262 313
#     4  11  16  36  48  70 106 138 176 208 265 300
#
# _framework density 24.530044
#
# number of rings (size 3 to 8) (size 9 to 14) (size 15 to 20)
#    0.000    1.750    5.000    2.625    8.750    5.000 
#    0.000    0.000    0.000    0.000    0.000    0.000 
#    0.000    6.000    0.000    0.250    0.000    0.000 
#
# Total GULP energy -178576.996550 kJ/mol
# GULP energy per Si atom -5580.531142 kJ/mol
# Density = 2.447421 g / cm^3
# Si number density = 24.530044 Si / 1000 Ang^3
#
#
#
# Elastic Constant Matrix: (Units=GPa)
#
#
# Indices 1 2 3 4 5 6 
#
# 1 280.9730 64.0805 35.7475 0.0000 0.0000 0.0000
# 2 64.0805 168.3724 -7.2404 0.0001 0.0000 0.0000
# 3 35.7475 -7.2404 90.8337 0.0001 0.0000 0.0001
# 4 0.0000 0.0001 0.0001 -26.1212 0.0000 0.0000
# 5 0.0000 0.0000 0.0000 0.0000 53.4806 0.0000
# 6 0.0000 0.0000 0.0001 0.0000 0.0000 84.8738
#
#
#
# Elastic Compliance Matrix: (Units=1/GPa)
#
#
# Indices 1 2 3 4 5 6 
#
# 1 0.004163 -0.001661 -0.001771 0.000000 0.000000 0.000000
# 2 -0.001661 0.006622 0.001181 0.000000 0.000000 0.000000
# 3 -0.001771 0.001181 0.011800 0.000000 0.000000 0.000000
# 4 0.000000 0.000000 0.000000 -0.038283 0.000000 0.000000
# 5 0.000000 0.000000 0.000000 0.000000 0.018698 0.000000
# 6 0.000000 0.000000 0.000000 0.000000 0.000000 0.011782
#
#
# Mechanical properties :
#
#
# Convention : Reuss Voigt Hill
#
# Bulk Modulus (GPa) = 55.29331 80.59490 67.94411
# Shear Modulus (GPa) = 197.54254 52.28608 124.91431
#
# Velocity S-wave (km/s) = 8.98363 4.62184 7.14378
# Velocity P-wave (km/s) = 11.41041 7.83638 9.78791
#
# Compressibility (1/GPa) = 0.01808537
#
# Stress axis : x y z
#
# Youngs Moduli (GPa) = 240.20773 151.01164 84.74455
#
# Poissons Ratio (x) = 0.25076 0.15006
# Poissons Ratio (y) = 0.39888 -0.10011
# Poissons Ratio (z) = 0.42534 -0.17840
#
# Static dielectric constant tensor:
#      x y z
#    x 1.796550 0.000000 0.000000 
#    y 0.000000 2.063630 0.000000 
#    z 0.000000 0.000000 2.131880 
# 
# From -- ./inp_files/40934.got.cif
#   From: 2010.05.17/outbox.cif.g08.bks.cpg/sg74_21_cif.got.tgz:40934.got - 2010.06.03 17:57:02.
