data_PCOD9537814
_publ_section_title
;
Structure prediction by ZEFSAII (Michael W. Deem and Ramdas Pophale) SiO2 
 PCOD9537814
Probable space group: I M M A
;
_chemical_formula_sum "Si O2"
_cell_formula_units_Z 96
_cell_length_a 10.971032
_cell_length_b 29.250823
_cell_length_c 16.443578
_cell_angle_alpha 90.000000
_cell_angle_beta 90.000000
_cell_angle_gamma 90.000000
_cell_volume 5276.936819
_symmetry_space_group_name_H-M "I M M A"
_symmetry_group_IT_number 74
_symmetry_cell_setting 'orthorhombic'
loop_
_space_group_symop_operation_xyz
x,y,z
-x,1/2-y,z
x,-y,-z
-x,1/2+y,-z
-x,-y,-z
x,1/2+y,-z
-x,y,z
x,1/2-y,z
1/2+x,1/2+y,1/2+z
1/2-x,-y,1/2+z
1/2+x,1/2-y,1/2-z
1/2-x,y,1/2-z
1/2-x,1/2-y,1/2-z
1/2+x,y,1/2-z
1/2-x,1/2+y,1/2+z
1/2+x,-y,1/2+z
loop_
_atom_site_type_symbol
_atom_site_label
_atom_site_fract_x
_atom_site_fract_y
_atom_site_fract_z
Si Si1 0.355784 0.895925 0.562156
Si Si2 0.370699 0.899653 0.194908
Si Si3 0.858282 0.473826 0.185507
Si Si4 0.227463 0.462972 0.562019
Si Si5 0.146109 0.700009 0.997344
Si Si6 0.198848 0.300496 0.658226
O O1 0.500000 0.897794 0.544863
O O2 0.339388 0.923703 0.645575
O O3 0.287056 0.923665 0.492339
O O4 0.316209 0.843244 0.556740
O O5 0.500000 0.905212 0.239963
O O6 0.250000 0.903353 0.250000
O O7 0.358833 0.938120 0.126199
O O8 0.369785 0.848777 0.156404
O O9 0.750000 0.481262 0.250000
O O10 0.830393 0.509668 0.113023
O O11 0.000000 0.477918 0.212819
O O12 0.170967 0.500000 0.500000
O O13 0.185162 0.750000 0.966267
O O14 0.198940 0.695399 0.088409
O O15 0.000000 0.699817 0.002118
O O16 0.140648 0.250000 0.645150
O O17 0.250000 0.299054 0.750000
#
# Coordination Sequence:
#
# PCOD9537814 Si02
#       6
#    16  16  16  16  16  16
#     4   9  17  32  54  79 108 138 173 216 264 316
#     4  11  24  38  53  77 106 142 180 217 262 310
#     4  10  21  36  56  80 106 140 178 217 265 316
#     4  10  20  35  54  77 105 135 175 223 269 312
#     4   9  16  28  52  82 107 134 173 220 265 309
#     4   9  18  32  49  73 106 140 175 212 255 305
#
# _framework density 18.192371999999999
#
# number of rings (size 3 to 8) (size 9 to 14) (size 15 to 20)
#    0.000    2.333    1.667    1.000    0.000    8.667 
#    0.000    5.833    0.000    0.500    0.000    0.000 
#    0.000    0.000    0.000    0.000    0.000    0.000 
#
# Total GULP energy -267236.453503 kJ/mol
# GULP energy per Si atom -5567.426115 kJ/mol
# Density = 1.815097 g / cm^3
# Si number density = 18.192372 Si / 1000 Ang^3
#
#
#
# Elastic Constant Matrix: (Units=GPa)
#
#
# Indices 1 2 3 4 5 6 
#
# 1 82.8801 30.5647 28.7902 0.0000 0.0000 0.0000
# 2 30.5647 148.5281 32.4442 0.0000 0.0000 0.0000
# 3 28.7902 32.4442 37.5546 -0.0001 0.0001 0.0002
# 4 0.0000 0.0000 -0.0001 30.3170 0.0000 0.0001
# 5 0.0000 0.0000 0.0001 0.0000 18.2576 -0.0001
# 6 0.0000 0.0000 0.0002 0.0001 -0.0001 23.0670
#
#
#
# Elastic Compliance Matrix: (Units=1/GPa)
#
#
# Indices 1 2 3 4 5 6 
#
# 1 0.016518 -0.000780 -0.011989 0.000000 0.000000 0.000000
# 2 -0.000780 0.008336 -0.006603 0.000000 0.000000 0.000000
# 3 -0.011989 -0.006603 0.041524 0.000000 0.000000 0.000000
# 4 0.000000 0.000000 0.000000 0.032985 0.000000 0.000000
# 5 0.000000 0.000000 0.000000 0.000000 0.054772 0.000000
# 6 0.000000 0.000000 0.000000 0.000000 0.000000 0.043352
#
#
# Mechanical properties :
#
#
# Convention : Reuss Voigt Hill
#
# Bulk Modulus (GPa) = 36.18948 50.28455 43.23702
# Shear Modulus (GPa) = 20.37148 26.13924 23.25536
#
# Velocity S-wave (km/s) = 3.34994 3.79466 3.57921
# Velocity P-wave (km/s) = 5.90751 6.84834 6.39525
#
# Compressibility (1/GPa) = 0.02763234
#
# Stress axis : x y z
#
# Youngs Moduli (GPa) = 60.54004 119.96599 24.08274
#
# Poissons Ratio (x) = 0.09361 0.28873
# Poissons Ratio (y) = 0.04724 0.15902
# Poissons Ratio (z) = 0.72581 0.79216
#
# Static dielectric constant tensor:
#      x y z
#    x 1.634990 0.000000 0.000000 
#    y 0.000000 1.694230 0.000000 
#    z 0.000000 0.000000 1.613190 
# 
# From -- ./inp_files/41637.got.cif
#   From: 2010.05.17/outbox.cif.g08.bks.cpg/sg74_21_cif.got.tgz:41637.got - 2010.06.03 17:57:02.
