data_PCOD9537911
_publ_section_title
;
Structure prediction by ZEFSAII (Michael W. Deem and Ramdas Pophale) SiO2 
 PCOD9537911
Probable space group: I M M A
;
_chemical_formula_sum "Si O2"
_cell_formula_units_Z 64
_cell_length_a 19.202631
_cell_length_b 16.573817
_cell_length_c 9.472396
_cell_angle_alpha 90.000000
_cell_angle_beta 90.000000
_cell_angle_gamma 90.000000
_cell_volume 3014.693201
_symmetry_space_group_name_H-M "I M M A"
_symmetry_group_IT_number 74
_symmetry_cell_setting 'orthorhombic'
loop_
_space_group_symop_operation_xyz
x,y,z
-x,1/2-y,z
x,-y,-z
-x,1/2+y,-z
-x,-y,-z
x,1/2+y,-z
-x,y,z
x,1/2-y,z
1/2+x,1/2+y,1/2+z
1/2-x,-y,1/2+z
1/2+x,1/2-y,1/2-z
1/2-x,y,1/2-z
1/2-x,1/2-y,1/2-z
1/2+x,y,1/2-z
1/2-x,1/2+y,1/2+z
1/2+x,-y,1/2+z
loop_
_atom_site_type_symbol
_atom_site_label
_atom_site_fract_x
_atom_site_fract_y
_atom_site_fract_z
Si Si1 0.077798 0.476176 0.339615
Si Si2 0.076785 0.914570 0.083477
Si Si3 0.268230 0.414027 0.583712
Si Si4 0.817062 0.661279 0.650425
O O1 0.090274 0.500000 0.500000
O O2 0.080532 0.555584 0.245039
O O3 0.132336 0.408771 0.297314
O O4 0.000000 0.442586 0.325587
O O5 0.000000 0.875888 0.057964
O O6 0.153515 0.878239 0.059385
O O7 0.075327 0.000000 0.000000
O O8 0.266327 0.500000 0.500000
O O9 0.250000 0.424486 0.750000
O O10 0.211366 0.640534 0.494586
O O11 0.849490 0.750000 0.654000
O O12 0.750000 0.660600 0.750000
#
# Coordination Sequence:
#
# PCOD9537911 Si02
#       4
#    16  16  16  16
#     4  10  20  35  56  81 106 135 176 224 273 323
#     4   9  17  29  49  76 102 129 167 217 267 312
#     4  11  20  33  56  80 106 139 179 225 274 321
#     4  11  23  37  53  77 111 149 186 222 263 316
#
# _framework density 21.229358000000001
#
# number of rings (size 3 to 8) (size 9 to 14) (size 15 to 20)
#    0.000    1.750    0.000    7.500    0.000    1.000 
#    0.000    0.000    0.000    2.250    0.000    0.000 
#    0.000    0.000    0.000    0.000    0.000    0.000 
#
# Total GULP energy -178566.233986 kJ/mol
# GULP energy per Si atom -5580.194812 kJ/mol
# Density = 2.118104 g / cm^3
# Si number density = 21.229358 Si / 1000 Ang^3
#
#
#
# Elastic Constant Matrix: (Units=GPa)
#
#
# Indices 1 2 3 4 5 6 
#
# 1 118.5654 14.3518 -28.3287 0.0000 0.0000 0.0000
# 2 14.3518 25.5137 -20.1778 0.0000 0.0000 0.0000
# 3 -28.3287 -20.1778 95.7523 0.0000 0.0000 0.0000
# 4 0.0000 0.0000 0.0000 11.3661 0.0000 0.0000
# 5 0.0000 0.0000 0.0000 0.0000 25.1943 0.0000
# 6 0.0000 0.0000 0.0000 0.0000 0.0000 27.8295
#
#
#
# Elastic Compliance Matrix: (Units=1/GPa)
#
#
# Indices 1 2 3 4 5 6 
#
# 1 0.009356 -0.003689 0.001991 0.000000 0.000000 0.000000
# 2 -0.003689 0.048487 0.009126 0.000000 0.000000 0.000000
# 3 0.001991 0.009126 0.012956 0.000000 0.000000 0.000000
# 4 0.000000 0.000000 0.000000 0.087981 0.000000 0.000000
# 5 0.000000 0.000000 0.000000 0.000000 0.039691 0.000000
# 6 0.000000 0.000000 0.000000 0.000000 0.000000 0.035933
#
#
# Mechanical properties :
#
#
# Convention : Reuss Voigt Hill
#
# Bulk Modulus (GPa) = 11.67454 19.05800 15.36627
# Shear Modulus (GPa) = 20.15319 31.14372 25.64845
#
# Velocity S-wave (km/s) = 3.08443 3.83431 3.47963
# Velocity P-wave (km/s) = 4.26569 5.34783 4.83712
#
# Compressibility (1/GPa) = 0.08565650
#
# Stress axis : x y z
#
# Youngs Moduli (GPa) = 106.87971 20.62398 77.18556
#
# Poissons Ratio (x) = 0.07607 -0.15366
# Poissons Ratio (y) = 0.39424 -0.70442
# Poissons Ratio (z) = -0.21278 -0.18822
#
# Static dielectric constant tensor:
#      x y z
#    x 1.842730 0.000000 0.000000 
#    y 0.000000 1.735060 0.000000 
#    z 0.000000 0.000000 1.844000 
# 
# From -- ./inp_files/23472.got.cif
#   From: 2010.05.17/outbox.cif.g08.bks.cpg/sg74_12_cif.got.tgz:23472.got - 2010.06.03 17:57:02.
