data_PCOD9537809
_publ_section_title
;
Structure prediction by ZEFSAII (Michael W. Deem and Ramdas Pophale) SiO2 
 PCOD9537809
Probable space group: I M M A
;
_chemical_formula_sum "Si O2"
_cell_formula_units_Z 96
_cell_length_a 18.759031
_cell_length_b 8.852007
_cell_length_c 33.682697
_cell_angle_alpha 90.000000
_cell_angle_beta 90.000000
_cell_angle_gamma 90.000000
_cell_volume 5593.182734
_symmetry_space_group_name_H-M "I M M A"
_symmetry_group_IT_number 74
_symmetry_cell_setting 'orthorhombic'
loop_
_space_group_symop_operation_xyz
x,y,z
-x,1/2-y,z
x,-y,-z
-x,1/2+y,-z
-x,-y,-z
x,1/2+y,-z
-x,y,z
x,1/2-y,z
1/2+x,1/2+y,1/2+z
1/2-x,-y,1/2+z
1/2+x,1/2-y,1/2-z
1/2-x,y,1/2-z
1/2-x,1/2-y,1/2-z
1/2+x,y,1/2-z
1/2-x,1/2+y,1/2+z
1/2+x,-y,1/2+z
loop_
_atom_site_type_symbol
_atom_site_label
_atom_site_fract_x
_atom_site_fract_y
_atom_site_fract_z
Si Si1 0.352761 0.568627 0.838852
Si Si2 0.724609 0.431345 0.957360
Si Si3 0.920885 0.931969 0.415775
Si Si4 0.916681 0.069871 0.829127
Si Si5 0.705098 0.569711 0.619003
Si Si6 0.415355 0.429558 0.244578
O O1 0.362394 0.750000 0.840652
O O2 0.402722 0.494546 0.872152
O O3 0.271916 0.534378 0.851819
O O4 0.373038 0.520175 0.794522
O O5 0.727533 0.250000 0.958570
O O6 0.644220 0.478926 0.944183
O O7 0.775770 0.492995 0.922792
O O8 0.741511 0.500000 0.000000
O O9 0.919942 0.750000 0.414200
O O10 0.000000 0.981345 0.428284
O O11 0.909974 0.250000 0.831648
O O12 0.000000 0.029290 0.834752
O O13 0.866115 0.992051 0.861095
O O14 0.896227 0.014428 0.784975
O O15 0.702106 0.750000 0.614204
O O16 0.500000 0.451068 0.237297
O O17 0.403314 0.250000 0.250401
#
# Coordination Sequence:
#
# PCOD9537809 Si02
#       6
#    16  16  16  16  16  16
#     4   9  18  31  48  72 101 135 175 215 251 289
#     4  10  20  35  54  76 103 133 167 206 249 298
#     4   9  18  31  47  70 102 139 176 213 251 289
#     4  10  21  36  53  74 100 130 165 205 250 301
#     4  10  20  35  55  77 101 130 165 205 252 303
#     4   9  17  30  48  70  99 136 175 212 248 287
#
# _framework density 17.163751999999999
#
# number of rings (size 3 to 8) (size 9 to 14) (size 15 to 20)
#    0.000    2.500    0.000    2.000    0.000    5.000 
#    0.000    5.000    0.000    0.500    0.000    0.000 
#    0.000    0.000    0.000    0.000    0.000    0.000 
#
# Total GULP energy -267803.761576 kJ/mol
# GULP energy per Si atom -5579.245033 kJ/mol
# Density = 1.712469 g / cm^3
# Si number density = 17.163752 Si / 1000 Ang^3
#
#
#
# Elastic Constant Matrix: (Units=GPa)
#
#
# Indices 1 2 3 4 5 6 
#
# 1 58.2375 34.8297 70.4548 0.0000 0.0000 0.0000
# 2 34.8297 38.9276 50.7016 0.0000 0.0000 0.0000
# 3 70.4548 50.7016 147.8206 0.0000 0.0000 0.0000
# 4 0.0000 0.0000 0.0000 30.3004 0.0000 0.0000
# 5 0.0000 0.0000 0.0000 0.0000 8.8794 0.0000
# 6 0.0000 0.0000 0.0000 0.0000 0.0000 20.5085
#
#
#
# Elastic Compliance Matrix: (Units=1/GPa)
#
#
# Indices 1 2 3 4 5 6 
#
# 1 0.051608 -0.025554 -0.015833 0.000000 0.000000 0.000000
# 2 -0.025554 0.059084 -0.008086 0.000000 0.000000 0.000000
# 3 -0.015833 -0.008086 0.017085 0.000000 0.000000 0.000000
# 4 0.000000 0.000000 0.000000 0.033003 0.000000 0.000000
# 5 0.000000 0.000000 0.000000 0.000000 0.112621 0.000000
# 6 0.000000 0.000000 0.000000 0.000000 0.000000 0.048760
#
#
# Mechanical properties :
#
#
# Convention : Reuss Voigt Hill
#
# Bulk Modulus (GPa) = 34.68395 61.88421 48.28408
# Shear Modulus (GPa) = 11.60857 17.87095 14.73976
#
# Velocity S-wave (km/s) = 2.60348 3.23027 2.93366
# Velocity P-wave (km/s) = 5.41193 7.07434 6.29823
#
# Compressibility (1/GPa) = 0.02883178
#
# Stress axis : x y z
#
# Youngs Moduli (GPa) = 19.37678 16.92509 58.53172
#
# Poissons Ratio (x) = 0.43250 0.92673
# Poissons Ratio (y) = 0.49515 0.47329
# Poissons Ratio (z) = 0.30679 0.13686
#
# Static dielectric constant tensor:
#      x y z
#    x 1.583040 0.000000 0.000000 
#    y 0.000000 1.570870 0.000000 
#    z 0.000000 0.000000 1.552020 
# 
# From -- ./inp_files/68152.got.cif
#   From: 2010.05.17/outbox.cif.g08.bks.cpg/sg74_35_cif.got.tgz:68152.got - 2010.06.03 17:57:02.
