data_PCOD9537460
_publ_section_title
;
Structure prediction by ZEFSAII (Michael W. Deem and Ramdas Pophale) SiO2 
 PCOD9537460
Probable space group: I M M A
;
_chemical_formula_sum "Si O2"
_cell_formula_units_Z 80
_cell_length_a 8.459510
_cell_length_b 18.405565
_cell_length_c 27.572255
_cell_angle_alpha 90.000000
_cell_angle_beta 90.000000
_cell_angle_gamma 90.000000
_cell_volume 4293.056935
_symmetry_space_group_name_H-M "I M M A"
_symmetry_group_IT_number 74
_symmetry_cell_setting 'orthorhombic'
loop_
_space_group_symop_operation_xyz
x,y,z
-x,1/2-y,z
x,-y,-z
-x,1/2+y,-z
-x,-y,-z
x,1/2+y,-z
-x,y,z
x,1/2-y,z
1/2+x,1/2+y,1/2+z
1/2-x,-y,1/2+z
1/2+x,1/2-y,1/2-z
1/2-x,y,1/2-z
1/2-x,1/2-y,1/2-z
1/2+x,y,1/2-z
1/2-x,1/2+y,1/2+z
1/2+x,-y,1/2+z
loop_
_atom_site_type_symbol
_atom_site_label
_atom_site_fract_x
_atom_site_fract_y
_atom_site_fract_z
Si Si1 0.314359 0.373907 0.067596
Si Si2 0.187099 0.169274 0.169816
Si Si3 0.690639 0.169345 0.537001
Si Si4 0.688316 0.027359 0.595705
Si Si5 0.814120 0.515874 0.698245
O O1 0.500000 0.362457 0.075853
O O2 0.219752 0.338441 0.112224
O O3 0.274645 0.459650 0.070199
O O4 0.262973 0.343441 0.015958
O O5 0.235965 0.250000 0.185605
O O6 0.278474 0.102147 0.193340
O O7 0.000000 0.160297 0.178657
O O8 0.500000 0.166526 0.532416
O O9 0.734196 0.250000 0.554548
O O10 0.737324 0.103585 0.572238
O O11 0.500000 0.017876 0.589141
O O12 0.728844 0.020868 0.652451
O O13 0.750000 0.490863 0.750000
O O14 0.000000 0.504037 0.694358
#
# Coordination Sequence:
#
# PCOD9537460 Si02
#       5
#    16  16  16  16  16
#     4  11  21  32  50  77 109 144 180 214 250 298
#     4  10  20  34  52  75 106 142 178 215 255 301
#     4  10  21  36  54  77 106 140 175 212 257 308
#     4  10  20  36  57  78 103 136 174 215 258 306
#     4  11  22  37  57  78 102 132 170 215 261 311
#
# _framework density 18.634740000000001
#
# number of rings (size 3 to 8) (size 9 to 14) (size 15 to 20)
#    0.000    1.600    0.000    8.400    0.000    8.800 
#    0.000    0.000    0.000    0.600    0.000    0.000 
#    0.000    0.000    0.000    0.000    0.000    0.000 
#
# Total GULP energy -223575.367175 kJ/mol
# GULP energy per Si atom -5589.384179 kJ/mol
# Density = 1.859233 g / cm^3
# Si number density = 18.634740 Si / 1000 Ang^3
#
#
#
# Elastic Constant Matrix: (Units=GPa)
#
#
# Indices 1 2 3 4 5 6 
#
# 1 24.4662 -4.2194 -12.7646 0.0000 0.0000 0.0000
# 2 -4.2194 70.3622 13.6890 0.0000 0.0000 0.0000
# 3 -12.7646 13.6890 53.1488 0.0000 0.0000 0.0000
# 4 0.0000 0.0000 0.0000 -3.6152 0.0000 0.0000
# 5 0.0000 0.0000 0.0000 0.0000 25.2175 0.0000
# 6 0.0000 0.0000 0.0000 0.0000 0.0000 -7.6018
#
#
#
# Elastic Compliance Matrix: (Units=1/GPa)
#
#
# Indices 1 2 3 4 5 6 
#
# 1 0.046756 0.000652 0.011061 0.000000 0.000000 0.000000
# 2 0.000652 0.014971 -0.003699 0.000000 0.000000 0.000000
# 3 0.011061 -0.003699 0.022425 0.000000 0.000000 0.000000
# 4 0.000000 0.000000 0.000000 -0.276613 0.000000 0.000000
# 5 0.000000 0.000000 0.000000 0.000000 0.039655 0.000000
# 6 0.000000 0.000000 0.000000 0.000000 0.000000 -0.131548
#
#
# Mechanical properties :
#
#
# Convention : Reuss Voigt Hill
#
# Bulk Modulus (GPa) = 9.98211 15.70970 12.84591
# Shear Modulus (GPa) = -18.72735 12.88491 -2.92122
#
# Velocity S-wave (km/s) = -3.17357 2.63239 -1.25341
# Velocity P-wave (km/s) = 2.83907 4.20570 2.19404
#
# Compressibility (1/GPa) = 0.10017921
#
# Stress axis : x y z
#
# Youngs Moduli (GPa) = 21.38757 66.79587 44.59406
#
# Poissons Ratio (x) = -0.04354 -0.49327
# Poissons Ratio (y) = -0.01394 0.16497
# Poissons Ratio (z) = -0.23658 0.24710
#
# Static dielectric constant tensor:
#      x y z
#    x 1.621540 0.000000 0.000000 
#    y 0.000000 1.653600 0.000000 
#    z 0.000000 0.000000 1.633060 
# 
# From -- ./inp_files/63940.got.cif
#   From: 2010.05.17/outbox.cif.g08.bks.cpg/sg74_32_cif.got.tgz:63940.got - 2010.06.03 17:57:02.
