data_PCOD9537256
_publ_section_title
;
Structure prediction by ZEFSAII (Michael W. Deem and Ramdas Pophale) SiO2 
 PCOD9537256
Probable space group: I M M A
;
_chemical_formula_sum "Si O2"
_cell_formula_units_Z 80
_cell_length_a 14.839256
_cell_length_b 9.491855
_cell_length_c 26.453056
_cell_angle_alpha 90.000000
_cell_angle_beta 90.000000
_cell_angle_gamma 90.000000
_cell_volume 3725.967596
_symmetry_space_group_name_H-M "I M M A"
_symmetry_group_IT_number 74
_symmetry_cell_setting 'orthorhombic'
loop_
_space_group_symop_operation_xyz
x,y,z
-x,1/2-y,z
x,-y,-z
-x,1/2+y,-z
-x,-y,-z
x,1/2+y,-z
-x,y,z
x,1/2-y,z
1/2+x,1/2+y,1/2+z
1/2-x,-y,1/2+z
1/2+x,1/2-y,1/2-z
1/2-x,y,1/2-z
1/2-x,1/2-y,1/2-z
1/2+x,y,1/2-z
1/2-x,1/2+y,1/2+z
1/2+x,-y,1/2+z
loop_
_atom_site_type_symbol
_atom_site_label
_atom_site_fract_x
_atom_site_fract_y
_atom_site_fract_z
Si Si1 0.889569 0.589953 0.548838
Si Si2 0.105819 0.091707 0.642180
Si Si3 0.892486 0.409369 0.145805
Si Si4 0.143224 0.910178 0.244868
Si Si5 0.610312 0.088030 0.549463
O O1 0.863382 0.500000 0.500000
O O2 0.857616 0.750000 0.545699
O O3 0.858255 0.513104 0.599925
O O4 0.000000 0.594455 0.549186
O O5 0.146150 0.250000 0.640071
O O6 0.111492 0.040998 0.699870
O O7 0.000000 0.105750 0.630628
O O8 0.855343 0.250000 0.145471
O O9 0.878823 0.487856 0.198904
O O10 0.859432 0.506559 0.099824
O O11 0.000000 0.398082 0.138515
O O12 0.108615 0.750000 0.236008
O O13 0.250000 0.902176 0.250000
O O14 0.500000 0.091628 0.549836
O O15 0.641088 0.250000 0.548085
O O16 0.636884 0.000000 0.500000
#
# Coordination Sequence:
#
# PCOD9537256 Si02
#       5
#    16  16  16  16  16
#     4   9  16  26  43  69  99 127 156 193 238 287
#     4   9  17  30  49  72  98 128 162 200 242 289
#     4  10  20  33  51  76 104 134 170 210 251 299
#     4  10  21  36  53  73  99 133 171 211 256 303
#     4   9  16  27  46  73 104 134 164 202 249 299
#
# _framework density 21.470932999999999
#
# number of rings (size 3 to 8) (size 9 to 14) (size 15 to 20)
#    0.000    2.600    0.000    2.400    0.000    8.000 
#    0.000    2.000    0.000    1.200    0.000    5.600 
#    0.000    0.000    0.000    0.000    0.000    0.000 
#
# Total GULP energy -223387.888652 kJ/mol
# GULP energy per Si atom -5584.697216 kJ/mol
# Density = 2.142206 g / cm^3
# Si number density = 21.470933 Si / 1000 Ang^3
#
#
#
# Elastic Constant Matrix: (Units=GPa)
#
#
# Indices 1 2 3 4 5 6 
#
# 1 39.6236 5.9516 -9.0304 0.0000 0.0000 0.0000
# 2 5.9516 210.1908 161.3729 0.0000 0.0000 0.0000
# 3 -9.0304 161.3729 217.8881 0.0000 0.0000 0.0000
# 4 0.0000 0.0000 0.0000 36.0774 0.0000 0.0000
# 5 0.0000 0.0000 0.0000 0.0000 -102.8816 0.0000
# 6 0.0000 0.0000 0.0000 0.0000 0.0000 6.8776
#
#
#
# Elastic Compliance Matrix: (Units=1/GPa)
#
#
# Indices 1 2 3 4 5 6 
#
# 1 0.026676 -0.003718 0.003860 0.000000 0.000000 0.000000
# 2 -0.003718 0.011547 -0.008706 0.000000 0.000000 0.000000
# 3 0.003860 -0.008706 0.011197 0.000000 0.000000 0.000000
# 4 0.000000 0.000000 0.000000 0.027718 0.000000 0.000000
# 5 0.000000 0.000000 0.000000 0.000000 -0.009720 0.000000
# 6 0.000000 0.000000 0.000000 0.000000 0.000000 0.145401
#
#
# Mechanical properties :
#
#
# Convention : Reuss Voigt Hill
#
# Bulk Modulus (GPa) = 30.96932 87.14340 59.05636
# Shear Modulus (GPa) = 20.77174 8.64191 14.70682
#
# Velocity S-wave (km/s) = 3.11374 2.00840 2.62002
# Velocity P-wave (km/s) = 5.23281 6.78624 6.05951
#
# Compressibility (1/GPa) = 0.03229002
#
# Stress axis : x y z
#
# Youngs Moduli (GPa) = 37.48740 86.60396 89.30726
#
# Poissons Ratio (x) = 0.32204 -0.34469
# Poissons Ratio (y) = 0.13940 0.77750
# Poissons Ratio (z) = -0.14469 0.75397
#
# Static dielectric constant tensor:
#      x y z
#    x 1.631180 0.000000 0.000000 
#    y 0.000000 1.768090 0.000000 
#    z 0.000000 0.000000 1.750150 
# 
# From -- ./inp_files/63975.got.cif
#   From: 2010.05.17/outbox.cif.g08.bks.cpg/sg74_32_cif.got.tgz:63975.got - 2010.06.03 17:57:02.
