data_PCOD9537143
_publ_section_title
;
Structure prediction by ZEFSAII (Michael W. Deem and Ramdas Pophale) SiO2 
 PCOD9537143
Probable space group: I M M A
;
_chemical_formula_sum "Si O2"
_cell_formula_units_Z 104
_cell_length_a 9.412600
_cell_length_b 21.504415
_cell_length_c 27.140079
_cell_angle_alpha 90.000000
_cell_angle_beta 90.000000
_cell_angle_gamma 90.000000
_cell_volume 5493.490063
_symmetry_space_group_name_H-M "I M M A"
_symmetry_group_IT_number 74
_symmetry_cell_setting 'orthorhombic'
loop_
_space_group_symop_operation_xyz
x,y,z
-x,1/2-y,z
x,-y,-z
-x,1/2+y,-z
-x,-y,-z
x,1/2+y,-z
-x,y,z
x,1/2-y,z
1/2+x,1/2+y,1/2+z
1/2-x,-y,1/2+z
1/2+x,1/2-y,1/2-z
1/2-x,y,1/2-z
1/2-x,1/2-y,1/2-z
1/2+x,y,1/2-z
1/2-x,1/2+y,1/2+z
1/2+x,-y,1/2+z
loop_
_atom_site_type_symbol
_atom_site_label
_atom_site_fract_x
_atom_site_fract_y
_atom_site_fract_z
Si Si1 0.331526 0.639474 0.124519
Si Si2 0.162072 0.675660 0.799081
Si Si3 0.171083 0.823316 0.025267
Si Si4 0.335370 0.087627 0.140480
Si Si5 0.167944 0.465044 0.699704
Si Si6 0.330909 0.564570 0.972602
Si Si7 0.837621 0.250000 0.700961
O O1 0.500000 0.636561 0.110477
O O2 0.237098 0.658885 0.078392
O O3 0.290396 0.576457 0.152484
O O4 0.314051 0.691032 0.166503
O O5 0.164661 0.750000 0.804110
O O6 0.250000 0.659838 0.750000
O O7 0.233514 0.643914 0.845989
O O8 0.000000 0.654921 0.793298
O O9 0.204261 0.750000 0.014666
O O10 0.000000 0.829441 0.024896
O O11 0.243805 0.874943 0.990238
O O12 0.500000 0.107555 0.142938
O O13 0.312720 0.059662 0.086231
O O14 0.311645 0.035400 0.181928
O O15 0.250000 0.451099 0.750000
O O16 0.000000 0.453746 0.707627
O O17 0.500000 0.573925 0.982662
O O18 0.289865 0.500000 0.000000
O O19 0.750000 0.250000 0.750000
O O20 0.000000 0.250000 0.716454
#
# Coordination Sequence:
#
# PCOD9537143 Si02
#       7
#    16  16  16  16  16  16   8
#     4  10  20  37  58  81 112 154 200 239 283 340
#     4  10  21  37  58  84 115 151 188 230 281 339
#     4  11  24  40  60  89 122 156 197 250 305 357
#     4  10  21  37  58  85 114 147 188 235 287 344
#     4  10  21  36  56  84 118 152 190 236 284 340
#     4  10  22  42  66  89 116 154 200 250 301 358
#     4  10  20  32  52  80 110 148 192 238 285 336
#
# _framework density 18.931498000000001
#
# number of rings (size 3 to 8) (size 9 to 14) (size 15 to 20)
#    0.000    1.846    0.769    2.769    0.000    8.923 
#    0.000    4.615    0.000    0.000    0.000    0.000 
#    0.000    0.000    0.000    0.000    0.000    0.000 
#
# Total GULP energy -290251.874829 kJ/mol
# GULP energy per Si atom -5581.766824 kJ/mol
# Density = 1.888841 g / cm^3
# Si number density = 18.931498 Si / 1000 Ang^3
#
#
#
# Elastic Constant Matrix: (Units=GPa)
#
#
# Indices 1 2 3 4 5 6 
#
# 1 61.3135 54.6955 35.4876 0.0000 0.0000 0.0000
# 2 54.6955 84.9869 35.3705 0.0000 0.0000 0.0000
# 3 35.4876 35.3705 58.8438 0.0000 0.0000 0.0000
# 4 0.0000 0.0000 0.0000 53.0108 0.0000 0.0000
# 5 0.0000 0.0000 0.0000 0.0000 35.2330 0.0000
# 6 0.0000 0.0000 0.0000 0.0000 0.0000 -29.5742
#
#
#
# Elastic Compliance Matrix: (Units=1/GPa)
#
#
# Indices 1 2 3 4 5 6 
#
# 1 0.044556 -0.023328 -0.012849 0.000000 0.000000 0.000000
# 2 -0.023328 0.027906 -0.002705 0.000000 0.000000 0.000000
# 3 -0.012849 -0.002705 0.026369 0.000000 0.000000 0.000000
# 4 0.000000 0.000000 0.000000 0.018864 0.000000 0.000000
# 5 0.000000 0.000000 0.000000 0.000000 0.028383 0.000000
# 6 0.000000 0.000000 0.000000 0.000000 0.000000 -0.033813
#
#
# Mechanical properties :
#
#
# Convention : Reuss Voigt Hill
#
# Bulk Modulus (GPa) = 47.46733 50.69461 49.08097
# Shear Modulus (GPa) = 25.37411 17.03994 21.20702
#
# Velocity S-wave (km/s) = 3.66500 3.00339 3.35057
# Velocity P-wave (km/s) = 6.56028 6.23404 6.39924
#
# Compressibility (1/GPa) = 0.02106712
#
# Stress axis : x y z
#
# Youngs Moduli (GPa) = 22.44345 35.83502 37.92298
#
# Poissons Ratio (x) = 0.83595 0.48727
# Poissons Ratio (y) = 0.52356 0.10259
# Poissons Ratio (z) = 0.28838 0.09694
#
# Static dielectric constant tensor:
#      x y z
#    x 1.637630 0.000000 0.000000 
#    y 0.000000 1.668540 0.000000 
#    z 0.000000 0.000000 1.648990 
# 
# From -- ./inp_files/64485.got.cif
#   From: 2010.05.17/outbox.cif.g08.bks.cpg/sg74_33_cif.got.tgz:64485.got - 2010.06.03 17:57:02.
