data_PCOD9537747
_publ_section_title
;
Structure prediction by ZEFSAII (Michael W. Deem and Ramdas Pophale) SiO2 
 PCOD9537747
Probable space group: I M M A
;
_chemical_formula_sum "Si O2"
_cell_formula_units_Z 128
_cell_length_a 19.970666
_cell_length_b 18.555714
_cell_length_c 18.177789
_cell_angle_alpha 90.000000
_cell_angle_beta 90.000000
_cell_angle_gamma 90.000000
_cell_volume 6736.142664
_symmetry_space_group_name_H-M "I M M A"
_symmetry_group_IT_number 74
_symmetry_cell_setting 'orthorhombic'
loop_
_space_group_symop_operation_xyz
x,y,z
-x,1/2-y,z
x,-y,-z
-x,1/2+y,-z
-x,-y,-z
x,1/2+y,-z
-x,y,z
x,1/2-y,z
1/2+x,1/2+y,1/2+z
1/2-x,-y,1/2+z
1/2+x,1/2-y,1/2-z
1/2-x,y,1/2-z
1/2-x,1/2-y,1/2-z
1/2+x,y,1/2-z
1/2-x,1/2+y,1/2+z
1/2+x,-y,1/2+z
loop_
_atom_site_type_symbol
_atom_site_label
_atom_site_fract_x
_atom_site_fract_y
_atom_site_fract_z
Si Si1 0.924151 0.662556 0.946556
Si Si2 0.685731 0.933996 0.776845
Si Si3 0.344104 0.833141 0.012932
Si Si4 0.642252 0.465455 0.076803
Si Si5 0.078259 0.102076 0.647437
Si Si6 0.578820 0.833450 0.723397
Si Si7 0.690582 0.337130 0.561240
Si Si8 0.822458 0.590767 0.218891
O O1 0.926063 0.750000 0.948001
O O2 0.865170 0.640689 0.001276
O O3 0.000000 0.637847 0.965621
O O4 0.909882 0.643753 0.861660
O O5 0.750000 0.890978 0.750000
O O6 0.696875 0.961024 0.859573
O O7 0.620673 0.885739 0.774281
O O8 0.677561 0.003745 0.725248
O O9 0.346443 0.750000 0.991560
O O10 0.387162 0.847865 0.086191
O O11 0.266372 0.851649 0.032708
O O12 0.373632 0.884903 0.949648
O O13 0.589384 0.520776 0.113811
O O14 0.664310 0.500000 0.000000
O O15 0.119126 0.111394 0.723390
O O16 0.000000 0.115691 0.656403
O O17 0.500000 0.838471 0.737267
O O18 0.598773 0.750000 0.731279
O O19 0.686592 0.250000 0.572035
O O20 0.673960 0.377051 0.637621
O O21 0.750000 0.614603 0.250000
#
# Coordination Sequence:
#
# PCOD9537747 Si02
#       8
#    16  16  16  16  16  16  16  16
#     4   8  16  33  55  81 114 150 187 226 279 347
#     4  10  22  35  55  87 114 144 192 242 280 334
#     4  10  21  36  57  86 116 149 192 245 297 347
#     4   9  21  39  58  79 112 155 192 231 285 349
#     4  10  21  39  60  81 111 156 201 238 289 356
#     4   9  19  38  60  81 114 156 187 227 293 350
#     4  10  20  34  59  87 116 155 195 240 291 351
#     4  10  20  38  56  80 117 154 190 234 292 351
#
# _framework density 19.001973
#
# number of rings (size 3 to 8) (size 9 to 14) (size 15 to 20)
#    0.000    2.500    1.250    0.750    3.500    6.500 
#    0.000    0.625    0.000    1.500    0.000    0.000 
#    0.000    0.000    0.000    0.000    0.000    0.000 
#
# Total GULP energy -356480.922876 kJ/mol
# GULP energy per Si atom -5570.014420 kJ/mol
# Density = 1.895872 g / cm^3
# Si number density = 19.001973 Si / 1000 Ang^3
#
#
#
# Elastic Constant Matrix: (Units=GPa)
#
#
# Indices 1 2 3 4 5 6 
#
# 1 93.2932 10.3696 39.7414 0.0000 0.0000 0.0000
# 2 10.3696 43.6654 10.5064 0.0000 0.0000 0.0000
# 3 39.7414 10.5064 61.7341 0.0000 0.0000 0.0000
# 4 0.0000 0.0000 0.0000 19.2322 0.0000 0.0000
# 5 0.0000 0.0000 0.0000 0.0000 18.7894 0.0000
# 6 0.0000 0.0000 0.0000 0.0000 0.0000 18.1716
#
#
#
# Elastic Compliance Matrix: (Units=1/GPa)
#
#
# Indices 1 2 3 4 5 6 
#
# 1 0.014837 -0.001278 -0.009334 0.000000 0.000000 0.000000
# 2 -0.001278 0.023989 -0.003260 0.000000 0.000000 0.000000
# 3 -0.009334 -0.003260 0.022762 0.000000 0.000000 0.000000
# 4 0.000000 0.000000 0.000000 0.051996 0.000000 0.000000
# 5 0.000000 0.000000 0.000000 0.000000 0.053221 0.000000
# 6 0.000000 0.000000 0.000000 0.000000 0.000000 0.055031
#
#
# Mechanical properties :
#
#
# Convention : Reuss Voigt Hill
#
# Bulk Modulus (GPa) = 29.54657 35.54749 32.54703
# Shear Modulus (GPa) = 19.16725 20.44368 19.80547
#
# Velocity S-wave (km/s) = 3.17945 3.28361 3.23195
# Velocity P-wave (km/s) = 5.39087 5.75534 5.57608
#
# Compressibility (1/GPa) = 0.03384487
#
# Stress axis : x y z
#
# Youngs Moduli (GPa) = 67.39916 41.68532 43.93282
#
# Poissons Ratio (x) = 0.05326 0.41006
# Poissons Ratio (y) = 0.08611 0.14323
# Poissons Ratio (z) = 0.62910 0.13590
#
# Static dielectric constant tensor:
#      x y z
#    x 1.662020 0.000000 0.000000 
#    y 0.000000 1.695510 0.000000 
#    z 0.000000 0.000000 1.669340 
# 
# From -- ./inp_files/45616.got.cif
#   From: 2010.05.17/outbox.cif.g08.bks.cpg/sg74_23_cif.got.tgz:45616.got - 2010.06.03 17:57:02.
