data_PCOD9537670
_publ_section_title
;
Structure prediction by ZEFSAII (Michael W. Deem and Ramdas Pophale) SiO2 
 PCOD9537670
Probable space group: I M M A
;
_chemical_formula_sum "Si O2"
_cell_formula_units_Z 88
_cell_length_a 23.257514
_cell_length_b 17.337055
_cell_length_c 11.417293
_cell_angle_alpha 90.000000
_cell_angle_beta 90.000000
_cell_angle_gamma 90.000000
_cell_volume 4603.644341
_symmetry_space_group_name_H-M "I M M A"
_symmetry_group_IT_number 74
_symmetry_cell_setting 'orthorhombic'
loop_
_space_group_symop_operation_xyz
x,y,z
-x,1/2-y,z
x,-y,-z
-x,1/2+y,-z
-x,-y,-z
x,1/2+y,-z
-x,y,z
x,1/2-y,z
1/2+x,1/2+y,1/2+z
1/2-x,-y,1/2+z
1/2+x,1/2-y,1/2-z
1/2-x,y,1/2-z
1/2-x,1/2-y,1/2-z
1/2+x,y,1/2-z
1/2-x,1/2+y,1/2+z
1/2+x,-y,1/2+z
loop_
_atom_site_type_symbol
_atom_site_label
_atom_site_fract_x
_atom_site_fract_y
_atom_site_fract_z
Si Si1 0.750000 0.051372 0.750000
Si Si2 0.434307 0.589792 0.013084
Si Si3 0.253379 0.161908 0.388309
Si Si4 0.174506 0.160216 0.589363
Si Si5 0.846171 0.048151 0.109578
Si Si6 0.567210 0.159027 0.248029
O O1 0.782561 0.106285 0.659334
O O2 0.802050 0.002319 0.809838
O O3 0.500000 0.591447 0.055109
O O4 0.432272 0.632553 0.887697
O O5 0.417417 0.500000 0.000000
O O6 0.390305 0.631523 0.098926
O O7 0.269853 0.250000 0.405277
O O8 0.250000 0.148188 0.250000
O O9 0.193340 0.150043 0.453279
O O10 0.301540 0.109340 0.444357
O O11 0.180498 0.250000 0.619777
O O12 0.892341 0.098925 0.181717
O O13 0.870661 0.000000 0.000000
O O14 0.500000 0.154024 0.286101
O O15 0.585069 0.250000 0.257826
#
# Coordination Sequence:
#
# PCOD9537670 Si02
#       6
#     8  16  16  16  16  16
#     4  12  25  40  57  86 126 162 200 246 309 358
#     4  10  21  37  63  95 124 155 196 250 308 364
#     4  10  20  34  55  85 116 150 193 243 301 362
#     4  11  23  38  57  82 122 164 199 238 293 366
#     4  12  23  37  59  86 116 158 202 258 302 366
#     4  10  22  41  63  89 122 157 200 257 315 367
#
# _framework density 19.115290999999999
#
# number of rings (size 3 to 8) (size 9 to 14) (size 15 to 20)
#    0.000    1.273    2.727    3.545    2.545    2.909 
#    0.000    0.000    0.000    0.000    0.000    0.000 
#    0.000    0.000    0.000    0.000    0.000    0.000 
#
# Total GULP energy -245439.612342 kJ/mol
# GULP energy per Si atom -5578.173008 kJ/mol
# Density = 1.907178 g / cm^3
# Si number density = 19.115291 Si / 1000 Ang^3
#
#
#
# Elastic Constant Matrix: (Units=GPa)
#
#
# Indices 1 2 3 4 5 6 
#
# 1 91.9660 66.5155 28.6161 0.0000 0.0000 0.0000
# 2 66.5155 126.9465 50.6701 0.0000 0.0000 0.0000
# 3 28.6161 50.6701 54.7708 0.0000 0.0000 0.0000
# 4 0.0000 0.0000 0.0000 14.7831 0.0000 0.0000
# 5 0.0000 0.0000 0.0000 0.0000 26.3622 0.0000
# 6 0.0000 0.0000 0.0000 0.0000 0.0000 85.9103
#
#
#
# Elastic Compliance Matrix: (Units=1/GPa)
#
#
# Indices 1 2 3 4 5 6 
#
# 1 0.017547 -0.008775 -0.001050 0.000000 0.000000 0.000000
# 2 -0.008775 0.016877 -0.011029 0.000000 0.000000 0.000000
# 3 -0.001050 -0.011029 0.029010 0.000000 0.000000 0.000000
# 4 0.000000 0.000000 0.000000 0.067645 0.000000 0.000000
# 5 0.000000 0.000000 0.000000 0.000000 0.037933 0.000000
# 6 0.000000 0.000000 0.000000 0.000000 0.000000 0.011640
#
#
# Mechanical properties :
#
#
# Convention : Reuss Voigt Hill
#
# Bulk Modulus (GPa) = 46.02712 62.80963 54.41837
# Shear Modulus (GPa) = 21.77689 33.93655 27.85672
#
# Velocity S-wave (km/s) = 3.37892 4.21808 3.82160
# Velocity P-wave (km/s) = 6.27326 7.52679 6.92843
#
# Compressibility (1/GPa) = 0.02172632
#
# Stress axis : x y z
#
# Youngs Moduli (GPa) = 56.99057 59.25136 34.47127
#
# Poissons Ratio (x) = 0.51992 0.03619
# Poissons Ratio (y) = 0.50009 0.38018
# Poissons Ratio (z) = 0.05983 0.65349
#
# Static dielectric constant tensor:
#      x y z
#    x 1.695520 0.000000 0.000000 
#    y 0.000000 1.703660 0.000000 
#    z 0.000000 0.000000 1.680120 
# 
# From -- ./inp_files/24968.got.cif
#   From: 2010.05.17/outbox.cif.g08.bks.cpg/sg74_13_cif.got.tgz:24968.got - 2010.06.03 17:57:02.
