data_PCOD9537881
_publ_section_title
;
Structure prediction by ZEFSAII (Michael W. Deem and Ramdas Pophale) SiO2 
 PCOD9537881
Probable space group: I M M A
;
_chemical_formula_sum "Si O2"
_cell_formula_units_Z 116
_cell_length_a 7.689809
_cell_length_b 27.960549
_cell_length_c 25.875545
_cell_angle_alpha 90.000000
_cell_angle_beta 90.000000
_cell_angle_gamma 90.000000
_cell_volume 5563.534086
_symmetry_space_group_name_H-M "I M M A"
_symmetry_group_IT_number 74
_symmetry_cell_setting 'orthorhombic'
loop_
_space_group_symop_operation_xyz
x,y,z
-x,1/2-y,z
x,-y,-z
-x,1/2+y,-z
-x,-y,-z
x,1/2+y,-z
-x,y,z
x,1/2-y,z
1/2+x,1/2+y,1/2+z
1/2-x,-y,1/2+z
1/2+x,1/2-y,1/2-z
1/2-x,y,1/2-z
1/2-x,1/2-y,1/2-z
1/2+x,y,1/2-z
1/2-x,1/2+y,1/2+z
1/2+x,-y,1/2+z
loop_
_atom_site_type_symbol
_atom_site_label
_atom_site_fract_x
_atom_site_fract_y
_atom_site_fract_z
Si Si1 0.290931 0.030318 0.310303
Si Si2 0.709100 0.349177 0.950156
Si Si3 0.208572 0.803264 0.557316
Si Si4 0.792241 0.926435 0.189376
Si Si5 0.290324 0.554947 0.500056
Si Si6 0.708759 0.896745 0.606286
Si Si7 0.200873 0.321941 0.658922
Si Si8 0.250000 0.250000 0.750000
O O1 0.500000 0.028911 0.314053
O O2 0.250000 0.035601 0.250000
O O3 0.224625 0.073613 0.345019
O O4 0.231745 0.978210 0.330831
O O5 0.500000 0.344899 0.948122
O O6 0.774201 0.321304 0.899297
O O7 0.774951 0.324750 0.002844
O O8 0.746894 0.406121 0.955535
O O9 0.274617 0.750000 0.566149
O O10 0.248767 0.841179 0.601820
O O11 0.000000 0.801242 0.552588
O O12 0.750000 0.928610 0.250000
O O13 0.705407 0.878487 0.169682
O O14 0.000000 0.921746 0.181532
O O15 0.228252 0.500000 0.500000
O O16 0.500000 0.552905 0.500805
O O17 0.226397 0.578728 0.553426
O O18 0.500000 0.900891 0.605836
O O19 0.283966 0.291772 0.705272
O O20 0.000000 0.305186 0.659629
#
# Coordination Sequence:
#
# PCOD9537881 Si02
#       8
#    16  16  16  16  16  16  16   4
#     4   9  19  34  54  81 111 145 180 217 262 317
#     4   9  20  36  54  78 107 141 180 226 277 333
#     4   9  18  34  56  80 106 137 178 221 268 322
#     4  10  20  35  56  77 104 138 177 221 268 323
#     4   9  18  32  53  79 110 145 179 218 271 332
#     4   9  18  33  52  78 111 143 177 216 265 322
#     4  11  24  40  57  78 105 139 185 236 289 338
#     4  12  26  40  60  78 106 144 198 248 302 344
#
# _framework density 20.850057
#
# number of rings (size 3 to 8) (size 9 to 14) (size 15 to 20)
#    0.000    2.483    0.690    0.621    2.897    2.759 
#    0.000    0.000    0.000    0.414    0.000    0.000 
#    0.000    0.000    0.000    0.000    0.000    0.000 
#
# Total GULP energy -322942.083920 kJ/mol
# GULP energy per Si atom -5567.966964 kJ/mol
# Density = 2.080260 g / cm^3
# Si number density = 20.850057 Si / 1000 Ang^3
#
#
#
# Elastic Constant Matrix: (Units=GPa)
#
#
# Indices 1 2 3 4 5 6 
#
# 1 41.0263 7.6085 1.5263 0.0000 0.0000 0.0000
# 2 7.6085 189.9217 73.3676 0.0000 0.0000 0.0000
# 3 1.5263 73.3676 87.4794 0.0000 0.0000 0.0000
# 4 0.0000 0.0000 0.0000 20.7284 0.0000 0.0000
# 5 0.0000 0.0000 0.0000 0.0000 11.1682 0.0000
# 6 0.0000 0.0000 0.0000 0.0000 0.0000 17.4806
#
#
#
# Elastic Compliance Matrix: (Units=1/GPa)
#
#
# Indices 1 2 3 4 5 6 
#
# 1 0.024577 -0.001211 0.000587 0.000000 0.000000 0.000000
# 2 -0.001211 0.007849 -0.006561 0.000000 0.000000 0.000000
# 3 0.000587 -0.006561 0.016924 0.000000 0.000000 0.000000
# 4 0.000000 0.000000 0.000000 0.048243 0.000000 0.000000
# 5 0.000000 0.000000 0.000000 0.000000 0.089540 0.000000
# 6 0.000000 0.000000 0.000000 0.000000 0.000000 0.057206
#
#
# Mechanical properties :
#
#
# Convention : Reuss Voigt Hill
#
# Bulk Modulus (GPa) = 28.58876 53.71466 41.15171
# Shear Modulus (GPa) = 18.49318 25.60377 22.04847
#
# Velocity S-wave (km/s) = 2.98142 3.50808 3.25542
# Velocity P-wave (km/s) = 5.05897 6.49824 5.82324
#
# Compressibility (1/GPa) = 0.03497879
#
# Stress axis : x y z
#
# Youngs Moduli (GPa) = 40.68771 127.41258 59.08811
#
# Poissons Ratio (x) = 0.15435 -0.03470
# Poissons Ratio (y) = 0.04929 0.38769
# Poissons Ratio (z) = -0.02389 0.83599
#
# Static dielectric constant tensor:
#      x y z
#    x 1.805950 0.000000 0.000000 
#    y 0.000000 1.770120 0.000000 
#    z 0.000000 0.000000 1.743900 
# 
# From -- ./inp_files/57679.got.cif
#   From: 2010.05.17/outbox.cif.g08.bks.cpg/sg74_29_cif.got.tgz:57679.got - 2010.06.03 17:57:02.
