data_PCOD9537574
_publ_section_title
;
Structure prediction by ZEFSAII (Michael W. Deem and Ramdas Pophale) SiO2 
 PCOD9537574
Probable space group: I M M A
;
_chemical_formula_sum "Si O2"
_cell_formula_units_Z 96
_cell_length_a 23.549393
_cell_length_b 8.569754
_cell_length_c 24.679848
_cell_angle_alpha 90.000000
_cell_angle_beta 90.000000
_cell_angle_gamma 90.000000
_cell_volume 4980.701944
_symmetry_space_group_name_H-M "I M M A"
_symmetry_group_IT_number 74
_symmetry_cell_setting 'orthorhombic'
loop_
_space_group_symop_operation_xyz
x,y,z
-x,1/2-y,z
x,-y,-z
-x,1/2+y,-z
-x,-y,-z
x,1/2+y,-z
-x,y,z
x,1/2-y,z
1/2+x,1/2+y,1/2+z
1/2-x,-y,1/2+z
1/2+x,1/2-y,1/2-z
1/2-x,y,1/2-z
1/2-x,1/2-y,1/2-z
1/2+x,y,1/2-z
1/2-x,1/2+y,1/2+z
1/2+x,-y,1/2+z
loop_
_atom_site_type_symbol
_atom_site_label
_atom_site_fract_x
_atom_site_fract_y
_atom_site_fract_z
Si Si1 0.366293 0.563296 0.337754
Si Si2 0.127444 0.063273 0.275980
Si Si3 0.063324 0.439522 0.385181
Si Si4 0.175971 0.437496 0.441915
Si Si5 0.433755 0.563121 0.558885
Si Si6 0.264888 0.063496 0.835314
O O1 0.367690 0.750000 0.340444
O O2 0.392258 0.506176 0.280979
O O3 0.396848 0.497377 0.390894
O O4 0.300389 0.511961 0.333467
O O5 0.127016 0.250000 0.273051
O O6 0.087622 0.013857 0.326315
O O7 0.190955 0.008378 0.292363
O O8 0.061572 0.250000 0.384902
O O9 0.110686 0.483678 0.429001
O O10 0.000000 0.498349 0.394957
O O11 0.193545 0.500000 0.500000
O O12 0.180554 0.250000 0.439080
O O13 0.211954 0.512724 0.393855
O O14 0.414904 0.500000 0.500000
O O15 0.500000 0.515172 0.566030
O O16 0.431439 0.750000 0.557769
O O17 0.266713 0.250000 0.828710
#
# Coordination Sequence:
#
# PCOD9537574 Si02
#       6
#    16  16  16  16  16  16
#     4  11  23  37  57  84 111 144 184 223 266 322
#     4  10  20  34  55  82 112 146 182 225 276 325
#     4   8  16  32  52  75 105 140 178 220 265 313
#     4  10  20  34  54  78 105 141 181 224 274 324
#     4  10  22  41  63  85 111 143 178 221 273 325
#     4  10  21  37  55  77 109 146 183 226 274 323
#
# _framework density 19.274391999999999
#
# number of rings (size 3 to 8) (size 9 to 14) (size 15 to 20)
#    0.000    2.167    0.000    4.000    0.000    7.333 
#    0.000    1.667    0.000   17.000    0.000    0.000 
#    0.000    0.000    0.000    0.000    0.000    0.000 
#
# Total GULP energy -267983.742146 kJ/mol
# GULP energy per Si atom -5582.994628 kJ/mol
# Density = 1.923052 g / cm^3
# Si number density = 19.274392 Si / 1000 Ang^3
#
#
#
# Elastic Constant Matrix: (Units=GPa)
#
#
# Indices 1 2 3 4 5 6 
#
# 1 22.4280 1.1716 2.3813 0.0000 0.0000 0.0000
# 2 1.1716 23.6682 8.8348 0.0000 0.0000 0.0000
# 3 2.3813 8.8348 122.1101 0.0000 0.0000 0.0000
# 4 0.0000 0.0000 0.0000 34.7831 0.0000 0.0000
# 5 0.0000 0.0000 0.0000 0.0000 34.8529 0.0000
# 6 0.0000 0.0000 0.0000 0.0000 0.0000 43.2677
#
#
#
# Elastic Compliance Matrix: (Units=1/GPa)
#
#
# Indices 1 2 3 4 5 6 
#
# 1 0.044766 -0.001943 -0.000732 0.000000 0.000000 0.000000
# 2 -0.001943 0.043508 -0.003110 0.000000 0.000000 0.000000
# 3 -0.000732 -0.003110 0.008429 0.000000 0.000000 0.000000
# 4 0.000000 0.000000 0.000000 0.028750 0.000000 0.000000
# 5 0.000000 0.000000 0.000000 0.000000 0.028692 0.000000
# 6 0.000000 0.000000 0.000000 0.000000 0.000000 0.023112
#
#
# Mechanical properties :
#
#
# Convention : Reuss Voigt Hill
#
# Bulk Modulus (GPa) = 11.74635 21.44243 16.59439
# Shear Modulus (GPa) = 23.01981 32.96863 27.99422
#
# Velocity S-wave (km/s) = 3.45964 4.14029 3.81518
# Velocity P-wave (km/s) = 4.69748 5.83138 5.29487
#
# Compressibility (1/GPa) = 0.08513285
#
# Stress axis : x y z
#
# Youngs Moduli (GPa) = 22.33815 22.98436 118.64329
#
# Poissons Ratio (x) = 0.04465 0.08690
# Poissons Ratio (y) = 0.04339 0.36898
# Poissons Ratio (z) = 0.01636 0.07148
#
# Static dielectric constant tensor:
#      x y z
#    x 1.688860 0.000000 0.000000 
#    y 0.000000 1.648610 0.000000 
#    z 0.000000 0.000000 1.434480 
# 
# From -- ./inp_files/57293.got.cif
#   From: 2010.05.17/outbox.cif.g08.bks.cpg/sg74_29_cif.got.tgz:57293.got - 2010.06.03 17:57:02.
