data_PCOD9537952
_publ_section_title
;
Structure prediction by ZEFSAII (Michael W. Deem and Ramdas Pophale) SiO2 
 PCOD9537952
Probable space group: I M M A
;
_chemical_formula_sum "Si O2"
_cell_formula_units_Z 96
_cell_length_a 8.555243
_cell_length_b 23.699944
_cell_length_c 22.625483
_cell_angle_alpha 90.000000
_cell_angle_beta 90.000000
_cell_angle_gamma 90.000000
_cell_volume 4587.515330
_symmetry_space_group_name_H-M "I M M A"
_symmetry_group_IT_number 74
_symmetry_cell_setting 'orthorhombic'
loop_
_space_group_symop_operation_xyz
x,y,z
-x,1/2-y,z
x,-y,-z
-x,1/2+y,-z
-x,-y,-z
x,1/2+y,-z
-x,y,z
x,1/2-y,z
1/2+x,1/2+y,1/2+z
1/2-x,-y,1/2+z
1/2+x,1/2-y,1/2-z
1/2-x,y,1/2-z
1/2-x,1/2-y,1/2-z
1/2+x,y,1/2-z
1/2-x,1/2+y,1/2+z
1/2+x,-y,1/2+z
loop_
_atom_site_type_symbol
_atom_site_label
_atom_site_fract_x
_atom_site_fract_y
_atom_site_fract_z
Si Si1 0.320229 0.750000 0.515950
Si Si2 0.187455 0.185364 0.816341
Si Si3 0.188917 0.085612 0.601362
Si Si4 0.186063 0.630510 0.520050
Si Si5 0.186530 0.509773 0.689006
Si Si6 0.320435 0.750000 0.659884
Si Si7 0.686998 0.128015 0.348312
O O1 0.500000 0.750000 0.494926
O O2 0.231023 0.693450 0.498782
O O3 0.325278 0.750000 0.587929
O O4 0.232544 0.250000 0.832335
O O5 0.250000 0.174696 0.750000
O O6 0.251897 0.139135 0.861468
O O7 0.000000 0.182263 0.815575
O O8 0.236683 0.089824 0.533010
O O9 0.000000 0.087108 0.602000
O O10 0.240091 0.028972 0.634637
O O11 0.268907 0.622026 0.582603
O O12 0.000000 0.626093 0.529241
O O13 0.250000 0.484711 0.750000
O O14 0.246470 0.573295 0.682933
O O15 0.000000 0.510227 0.690242
O O16 0.500000 0.750000 0.681307
O O17 0.249243 0.688896 0.674456
O O18 0.500000 0.129581 0.342879
#
# Coordination Sequence:
#
# PCOD9537952 Si02
#       7
#     8  16  16  16  16   8  16
#     4   9  17  31  51  80 119 158 195 237 284 342
#     4  10  21  36  55  80 110 149 197 251 304 351
#     4  10  23  39  57  82 116 157 199 245 295 349
#     4  10  20  35  56  86 120 159 198 240 293 351
#     4  11  24  43  63  85 113 151 198 248 298 355
#     4   7  14  31  56  84 115 146 179 221 273 330
#     4  10  20  38  63  91 121 155 191 236 291 351
#
# _framework density 20.926359999999999
#
# number of rings (size 3 to 8) (size 9 to 14) (size 15 to 20)
#    0.000    2.167    0.000    3.750    1.167    5.667 
#    0.000    5.000    0.000    0.000    0.000    0.000 
#    0.000    0.000    0.000    0.000    0.000    0.000 
#
# Total GULP energy -268094.204088 kJ/mol
# GULP energy per Si atom -5585.295918 kJ/mol
# Density = 2.087873 g / cm^3
# Si number density = 20.926360 Si / 1000 Ang^3
#
#
#
# Elastic Constant Matrix: (Units=GPa)
#
#
# Indices 1 2 3 4 5 6 
#
# 1 24.5289 8.6359 4.6166 0.0000 0.0000 0.0000
# 2 8.6359 85.6209 29.6946 0.0000 0.0000 0.0000
# 3 4.6166 29.6946 66.8074 0.0000 0.0000 0.0000
# 4 0.0000 0.0000 0.0000 29.2358 0.0000 0.0000
# 5 0.0000 0.0000 0.0000 0.0000 25.9319 0.0000
# 6 0.0000 0.0000 0.0000 0.0000 0.0000 -0.5617
#
#
#
# Elastic Compliance Matrix: (Units=1/GPa)
#
#
# Indices 1 2 3 4 5 6 
#
# 1 0.042353 -0.003850 -0.001215 0.000000 0.000000 0.000000
# 2 -0.003850 0.014158 -0.006027 0.000000 0.000000 0.000000
# 3 -0.001215 -0.006027 0.017731 0.000000 0.000000 0.000000
# 4 0.000000 0.000000 0.000000 0.034205 0.000000 0.000000
# 5 0.000000 0.000000 0.000000 0.000000 0.038563 0.000000
# 6 0.000000 0.000000 0.000000 0.000000 0.000000 -1.780376
#
#
# Mechanical properties :
#
#
# Convention : Reuss Voigt Hill
#
# Bulk Modulus (GPa) = 19.20978 29.20572 24.20775
# Shear Modulus (GPa) = -3.13710 19.85521 8.35906
#
# Velocity S-wave (km/s) = -1.22571 3.08362 2.00080
# Velocity P-wave (km/s) = 2.68262 5.16382 4.11470
#
# Compressibility (1/GPa) = 0.05205683
#
# Stress axis : x y z
#
# Youngs Moduli (GPa) = 23.61130 70.63172 56.39775
#
# Poissons Ratio (x) = 0.27195 0.06854
# Poissons Ratio (y) = 0.09091 0.33990
# Poissons Ratio (z) = 0.02869 0.42569
#
# Static dielectric constant tensor:
#      x y z
#    x 1.711210 0.000000 0.000000 
#    y 0.000000 1.776590 0.000000 
#    z 0.000000 0.000000 1.802170 
# 
# From -- ./inp_files/57311.got.cif
#   From: 2010.05.17/outbox.cif.g08.bks.cpg/sg74_29_cif.got.tgz:57311.got - 2010.06.03 17:57:02.
