data_PCOD9537995
_publ_section_title
;
Structure prediction by ZEFSAII (Michael W. Deem and Ramdas Pophale) SiO2 
 PCOD9537995
Probable space group: I M M A
;
_chemical_formula_sum "Si O2"
_cell_formula_units_Z 64
_cell_length_a 15.535076
_cell_length_b 20.203040
_cell_length_c 9.665236
_cell_angle_alpha 90.000000
_cell_angle_beta 90.000000
_cell_angle_gamma 90.000000
_cell_volume 3033.490008
_symmetry_space_group_name_H-M "I M M A"
_symmetry_group_IT_number 74
_symmetry_cell_setting 'orthorhombic'
loop_
_space_group_symop_operation_xyz
x,y,z
-x,1/2-y,z
x,-y,-z
-x,1/2+y,-z
-x,-y,-z
x,1/2+y,-z
-x,y,z
x,1/2-y,z
1/2+x,1/2+y,1/2+z
1/2-x,-y,1/2+z
1/2+x,1/2-y,1/2-z
1/2-x,y,1/2-z
1/2-x,1/2-y,1/2-z
1/2+x,y,1/2-z
1/2-x,1/2+y,1/2+z
1/2+x,-y,1/2+z
loop_
_atom_site_type_symbol
_atom_site_label
_atom_site_fract_x
_atom_site_fract_y
_atom_site_fract_z
Si Si1 0.901993 0.045267 0.380633
Si Si2 0.603968 0.824636 0.441418
Si Si3 0.668239 0.034983 0.648953
Si Si4 0.605147 0.677948 0.767308
O O1 0.859502 0.116097 0.352591
O O2 0.000000 0.059053 0.425219
O O3 0.863146 0.000000 0.500000
O O4 0.902105 0.005330 0.237690
O O5 0.500000 0.829530 0.429101
O O6 0.628332 0.750000 0.394419
O O7 0.645299 0.887928 0.368541
O O8 0.625092 0.829070 0.605115
O O9 0.750000 0.027732 0.750000
O O10 0.674777 0.000000 0.500000
O O11 0.500000 0.676905 0.774286
O O12 0.634445 0.750000 0.816439
#
# Coordination Sequence:
#
# PCOD9537995 Si02
#       4
#    16  16  16  16
#     4  10  20  35  57  86 116 148 194 248 299 352
#     4   9  18  35  62  92 115 145 196 248 297 355
#     4  12  24  38  57  82 120 163 200 242 292 349
#     4   8  14  28  54  85 113 143 183 232 286 346
#
# _framework density 21.097811
#
# number of rings (size 3 to 8) (size 9 to 14) (size 15 to 20)
#    0.000    2.250    2.500    3.000    0.000    1.500 
#    0.000    1.250    0.000   10.500    0.000    0.000 
#    0.000    0.000    0.000    0.000    0.000    0.000 
#
# Total GULP energy -178489.018335 kJ/mol
# GULP energy per Si atom -5577.781823 kJ/mol
# Density = 2.104979 g / cm^3
# Si number density = 21.097811 Si / 1000 Ang^3
#
#
#
# Elastic Constant Matrix: (Units=GPa)
#
#
# Indices 1 2 3 4 5 6 
#
# 1 30.9644 3.5988 7.8458 0.0000 0.0000 0.0000
# 2 3.5988 195.0317 61.1588 0.0000 0.0000 0.0000
# 3 7.8458 61.1588 99.4516 0.0000 0.0000 0.0000
# 4 0.0000 0.0000 0.0000 39.5814 0.0000 0.0000
# 5 0.0000 0.0000 0.0000 0.0000 8.3860 0.0000
# 6 0.0000 0.0000 0.0000 0.0000 0.0000 -55.3470
#
#
#
# Elastic Compliance Matrix: (Units=1/GPa)
#
#
# Indices 1 2 3 4 5 6 
#
# 1 0.032964 0.000257 -0.002758 0.000000 0.000000 0.000000
# 2 0.000257 0.006354 -0.003928 0.000000 0.000000 0.000000
# 3 -0.002758 -0.003928 0.012688 0.000000 0.000000 0.000000
# 4 0.000000 0.000000 0.000000 0.025264 0.000000 0.000000
# 5 0.000000 0.000000 0.000000 0.000000 0.119246 0.000000
# 6 0.000000 0.000000 0.000000 0.000000 0.000000 -0.018068
#
#
# Mechanical properties :
#
#
# Convention : Reuss Voigt Hill
#
# Bulk Modulus (GPa) = 25.54433 52.29494 38.91964
# Shear Modulus (GPa) = 24.46684 15.38037 19.92361
#
# Velocity S-wave (km/s) = 3.40911 2.70294 3.07635
# Velocity P-wave (km/s) = 5.25642 5.88063 5.57726
#
# Compressibility (1/GPa) = 0.03914763
#
# Stress axis : x y z
#
# Youngs Moduli (GPa) = 30.33586 157.37193 78.81280
#
# Poissons Ratio (x) = -0.04040 0.21740
# Poissons Ratio (y) = -0.00779 0.30957
# Poissons Ratio (z) = 0.08368 0.61815
#
# Static dielectric constant tensor:
#      x y z
#    x 1.798600 0.000000 0.000000 
#    y 0.000000 1.786760 0.000000 
#    z 0.000000 0.000000 1.725870 
# 
# From -- ./inp_files/10204.got.cif
#   From: 2010.05.17/outbox.cif.g08.bks.cpg/sg74_6_cif.got.tgz:10204.got - 2010.06.03 17:57:02.
