data_PCOD9537322
_publ_section_title
;
Structure prediction by ZEFSAII (Michael W. Deem and Ramdas Pophale) SiO2 
 PCOD9537322
Probable space group: I M M A
;
_chemical_formula_sum "Si O2"
_cell_formula_units_Z 64
_cell_length_a 24.054600
_cell_length_b 9.343356
_cell_length_c 12.951975
_cell_angle_alpha 90.000000
_cell_angle_beta 90.000000
_cell_angle_gamma 90.000000
_cell_volume 2910.965334
_symmetry_space_group_name_H-M "I M M A"
_symmetry_group_IT_number 74
_symmetry_cell_setting 'orthorhombic'
loop_
_space_group_symop_operation_xyz
x,y,z
-x,1/2-y,z
x,-y,-z
-x,1/2+y,-z
-x,-y,-z
x,1/2+y,-z
-x,y,z
x,1/2-y,z
1/2+x,1/2+y,1/2+z
1/2-x,-y,1/2+z
1/2+x,1/2-y,1/2-z
1/2-x,y,1/2-z
1/2-x,1/2-y,1/2-z
1/2+x,y,1/2-z
1/2-x,1/2+y,1/2+z
1/2+x,-y,1/2+z
loop_
_atom_site_type_symbol
_atom_site_label
_atom_site_fract_x
_atom_site_fract_y
_atom_site_fract_z
Si Si1 0.718537 0.925299 0.895921
Si Si2 0.434153 0.750000 0.838417
Si Si3 0.433768 0.250000 0.932374
Si Si4 0.680584 0.083032 0.686155
Si Si5 0.934624 0.046669 0.755406
O O1 0.715373 0.750000 0.892237
O O2 0.690808 0.006516 0.797900
O O3 0.782384 0.981378 0.885785
O O4 0.696076 0.000000 0.000000
O O5 0.500000 0.750000 0.856025
O O6 0.423601 0.616228 0.768317
O O7 0.408433 0.750000 0.953468
O O8 0.500000 0.250000 0.945064
O O9 0.422950 0.380970 0.856193
O O10 0.699602 0.250000 0.683836
O O11 0.614325 0.090205 0.668103
O O12 0.000000 0.073545 0.780958
#
# Coordination Sequence:
#
# PCOD9537322 Si02
#       5
#    16   8   8  16  16
#     4  11  24  43  66  89 117 152 199 253 307 356
#     4   9  18  28  44  69 107 155 201 239 275 336
#     4   9  16  30  44  67 105 153 197 233 277 332
#     4  11  22  39  62  90 124 158 202 246 293 357
#     4  10  20  33  52  80 118 159 196 237 290 347
#
# _framework density 21.985833
#
# number of rings (size 3 to 8) (size 9 to 14) (size 15 to 20)
#    0.000    1.750    1.250    5.250    3.500    5.000 
#    0.000    0.000    0.000    0.750    0.000    0.000 
#    0.000    0.000    0.000    0.000    0.000    0.000 
#
# Total GULP energy -178188.838518 kJ/mol
# GULP energy per Si atom -5568.401204 kJ/mol
# Density = 2.193579 g / cm^3
# Si number density = 21.985833 Si / 1000 Ang^3
#
#
#
# Elastic Constant Matrix: (Units=GPa)
#
#
# Indices 1 2 3 4 5 6 
#
# 1 129.9135 7.3791 -5.6520 0.0000 0.0000 0.0000
# 2 7.3791 199.0288 6.7263 0.0000 0.0000 0.0000
# 3 -5.6520 6.7263 41.6065 0.0000 0.0000 0.0000
# 4 0.0000 0.0000 0.0000 27.3003 0.0000 0.0000
# 5 0.0000 0.0000 0.0000 0.0000 17.1666 0.0000
# 6 0.0000 0.0000 0.0000 0.0000 0.0000 32.5121
#
#
#
# Elastic Compliance Matrix: (Units=1/GPa)
#
#
# Indices 1 2 3 4 5 6 
#
# 1 0.007764 -0.000325 0.001107 0.000000 0.000000 0.000000
# 2 -0.000325 0.005066 -0.000863 0.000000 0.000000 0.000000
# 3 0.001107 -0.000863 0.024325 0.000000 0.000000 0.000000
# 4 0.000000 0.000000 0.000000 0.036630 0.000000 0.000000
# 5 0.000000 0.000000 0.000000 0.000000 0.058253 0.000000
# 6 0.000000 0.000000 0.000000 0.000000 0.000000 0.030758
#
#
# Mechanical properties :
#
#
# Convention : Reuss Voigt Hill
#
# Bulk Modulus (GPa) = 27.03276 43.05064 35.04170
# Shear Modulus (GPa) = 28.52457 39.53548 34.03002
#
# Velocity S-wave (km/s) = 3.60586 4.24515 3.93850
# Velocity P-wave (km/s) = 5.44597 6.60696 6.05436
#
# Compressibility (1/GPa) = 0.03699215
#
# Stress axis : x y z
#
# Youngs Moduli (GPa) = 128.79825 197.40891 41.11053
#
# Poissons Ratio (x) = 0.06421 -0.04552
# Poissons Ratio (y) = 0.04190 0.03548
# Poissons Ratio (z) = -0.14262 0.17039
#
# Static dielectric constant tensor:
#      x y z
#    x 1.922750 0.000000 0.000000 
#    y 0.000000 1.930900 0.000000 
#    z 0.000000 0.000000 1.795000 
# 
# From -- ./inp_files/36971.got.cif
#   From: 2010.05.17/outbox.cif.g08.bks.cpg/sg74_19_cif.got.tgz:36971.got - 2010.06.03 17:57:02.
