data_PCOD9537184
_publ_section_title
;
Structure prediction by ZEFSAII (Michael W. Deem and Ramdas Pophale) SiO2 
 PCOD9537184
Probable space group: I M M A
;
_chemical_formula_sum "Si O2"
_cell_formula_units_Z 72
_cell_length_a 13.701491
_cell_length_b 7.613438
_cell_length_c 32.735539
_cell_angle_alpha 90.000000
_cell_angle_beta 90.000000
_cell_angle_gamma 90.000000
_cell_volume 3414.822555
_symmetry_space_group_name_H-M "I M M A"
_symmetry_group_IT_number 74
_symmetry_cell_setting 'orthorhombic'
loop_
_space_group_symop_operation_xyz
x,y,z
-x,1/2-y,z
x,-y,-z
-x,1/2+y,-z
-x,-y,-z
x,1/2+y,-z
-x,y,z
x,1/2-y,z
1/2+x,1/2+y,1/2+z
1/2-x,-y,1/2+z
1/2+x,1/2-y,1/2-z
1/2-x,y,1/2-z
1/2-x,1/2-y,1/2-z
1/2+x,y,1/2-z
1/2-x,1/2+y,1/2+z
1/2+x,-y,1/2+z
loop_
_atom_site_type_symbol
_atom_site_label
_atom_site_fract_x
_atom_site_fract_y
_atom_site_fract_z
Si Si1 0.186140 0.464592 0.309575
Si Si2 0.607524 0.535918 0.721135
Si Si3 0.500000 0.960955 0.451402
Si Si4 0.392874 0.959407 0.895657
Si Si5 0.710866 0.041950 0.547939
O O1 0.185318 0.250000 0.309957
O O2 0.299127 0.520187 0.305216
O O3 0.130711 0.515420 0.268020
O O4 0.137113 0.528500 0.350984
O O5 0.500000 0.475497 0.708616
O O6 0.607021 0.750000 0.720368
O O7 0.500000 0.750000 0.445779
O O8 0.605382 0.030144 0.436683
O O9 0.500000 0.000000 0.500000
O O10 0.500000 0.026326 0.908269
O O11 0.400723 0.750000 0.891325
O O12 0.305298 0.987511 0.927011
O O13 0.704799 0.250000 0.551467
O O14 0.721208 0.000000 0.500000
#
# Coordination Sequence:
#
# PCOD9537184 Si02
#       5
#    16  16   8  16  16
#     4   8  14  24  38  60  92 129 165 200 244 291
#     4   8  12  20  37  60  88 123 163 205 245 287
#     4   8  16  32  54  76  96 120 152 194 242 294
#     4  10  20  33  48  70 103 138 171 206 247 295
#     4  10  20  36  57  78 100 127 163 203 248 299
#
# _framework density 21.084551000000001
#
# number of rings (size 3 to 8) (size 9 to 14) (size 15 to 20)
#    0.000    3.111    0.000    2.667    0.000    4.444 
#    2.000    0.000    0.000    0.000    0.000    3.111 
#    0.000    1.778    0.000    0.000    0.000    0.000 
#
# Total GULP energy -200688.358649 kJ/mol
# GULP energy per Si atom -5574.676629 kJ/mol
# Density = 2.103656 g / cm^3
# Si number density = 21.084551 Si / 1000 Ang^3
#
#
#
# Elastic Constant Matrix: (Units=GPa)
#
#
# Indices 1 2 3 4 5 6 
#
# 1 224.9603 14.6544 60.7509 0.0000 0.0000 0.0000
# 2 14.6544 44.0579 4.0549 0.0000 0.0000 0.0000
# 3 60.7509 4.0549 51.2320 0.0000 0.0000 0.0000
# 4 0.0000 0.0000 0.0000 -7.5018 0.0000 0.0000
# 5 0.0000 0.0000 0.0000 0.0000 20.2713 0.0000
# 6 0.0000 0.0000 0.0000 0.0000 0.0000 0.3146
#
#
#
# Elastic Compliance Matrix: (Units=1/GPa)
#
#
# Indices 1 2 3 4 5 6 
#
# 1 0.006635 -0.001494 -0.007750 0.000000 0.000000 0.000000
# 2 -0.001494 0.023200 -0.000065 0.000000 0.000000 0.000000
# 3 -0.007750 -0.000065 0.028714 0.000000 0.000000 0.000000
# 4 0.000000 0.000000 0.000000 -0.133301 0.000000 0.000000
# 5 0.000000 0.000000 0.000000 0.000000 0.049331 0.000000
# 6 0.000000 0.000000 0.000000 0.000000 0.000000 3.178610
#
#
# Mechanical properties :
#
#
# Convention : Reuss Voigt Hill
#
# Bulk Modulus (GPa) = 25.04236 53.24119 39.14178
# Shear Modulus (GPa) = 1.56980 18.66948 10.11964
#
# Velocity S-wave (km/s) = 0.86380 2.97889 2.19316
# Velocity P-wave (km/s) = 3.59134 6.09408 5.00178
#
# Compressibility (1/GPa) = 0.03993234
#
# Stress axis : x y z
#
# Youngs Moduli (GPa) = 150.70525 43.10298 34.82585
#
# Poissons Ratio (x) = 0.06439 0.26990
# Poissons Ratio (y) = 0.22512 0.00226
# Poissons Ratio (z) = 1.16798 0.00280
#
# Static dielectric constant tensor:
#      x y z
#    x 1.833630 0.000000 0.000000 
#    y 0.000000 1.839110 0.000000 
#    z 0.000000 0.000000 1.706510 
# 
# From -- ./inp_files/66727.got.cif
#   From: 2010.05.17/outbox.cif.g08.bks.cpg/sg74_34_cif.got.tgz:66727.got - 2010.06.03 17:57:02.
