data_PCOD9537614
_publ_section_title
;
Structure prediction by ZEFSAII (Michael W. Deem and Ramdas Pophale) SiO2 
 PCOD9537614
Probable space group: I M M A
;
_chemical_formula_sum "Si O2"
_cell_formula_units_Z 116
_cell_length_a 7.702837
_cell_length_b 31.368202
_cell_length_c 24.452649
_cell_angle_alpha 90.000000
_cell_angle_beta 90.000000
_cell_angle_gamma 90.000000
_cell_volume 5908.350456
_symmetry_space_group_name_H-M "I M M A"
_symmetry_group_IT_number 74
_symmetry_cell_setting 'orthorhombic'
loop_
_space_group_symop_operation_xyz
x,y,z
-x,1/2-y,z
x,-y,-z
-x,1/2+y,-z
-x,-y,-z
x,1/2+y,-z
-x,y,z
x,1/2-y,z
1/2+x,1/2+y,1/2+z
1/2-x,-y,1/2+z
1/2+x,1/2-y,1/2-z
1/2-x,y,1/2-z
1/2-x,1/2-y,1/2-z
1/2+x,y,1/2-z
1/2-x,1/2+y,1/2+z
1/2+x,-y,1/2+z
loop_
_atom_site_type_symbol
_atom_site_label
_atom_site_fract_x
_atom_site_fract_y
_atom_site_fract_z
Si Si1 0.699728 0.520452 0.555820
Si Si2 0.206579 0.869283 0.186768
Si Si3 0.000000 0.750000 0.835895
Si Si4 0.699899 0.390943 0.397915
Si Si5 0.200715 0.178806 0.313149
Si Si6 0.206145 0.863919 0.486751
Si Si7 0.209560 0.297950 0.895882
Si Si8 0.297463 0.935688 0.098908
O O1 0.777559 0.500000 0.500000
O O2 0.500000 0.531774 0.542207
O O3 0.775994 0.563070 0.582893
O O4 0.705010 0.480817 0.596905
O O5 0.250000 0.867852 0.250000
O O6 0.272003 0.827862 0.153688
O O7 0.278118 0.910180 0.155050
O O8 0.000000 0.870549 0.180526
O O9 0.844900 0.712685 0.833480
O O10 0.500000 0.397652 0.381216
O O11 0.788181 0.363436 0.350706
O O12 0.707772 0.364355 0.454370
O O13 0.250000 0.169859 0.250000
O O14 0.000000 0.194628 0.314531
O O15 0.241032 0.821940 0.451456
O O16 0.268153 0.903640 0.448935
O O17 0.000000 0.868586 0.494025
O O18 0.275644 0.250000 0.893009
O O19 0.000000 0.296594 0.893423
O O20 0.500000 0.943261 0.088773
#
# Coordination Sequence:
#
# PCOD9537614 Si02
#       8
#    16  16   4  16  16  16  16  16
#     4  10  20  35  60  89 121 162 206 246 295 361
#     4  10  20  35  56  79 109 144 190 242 295 349
#     4  12  24  48  74 102 126 166 216 268 312 384
#     4  11  22  40  61  91 130 165 204 255 308 368
#     4  12  25  44  72 100 131 167 212 265 321 380
#     4  10  20  34  54  81 116 154 195 247 304 356
#     4   9  19  36  55  76 106 149 191 236 297 365
#     4  10  20  34  55  84 115 151 198 246 294 352
#
# _framework density 19.633229
#
# number of rings (size 3 to 8) (size 9 to 14) (size 15 to 20)
#    0.000    1.655    2.759    2.069    0.000    3.586 
#    1.241    0.690    0.000    3.310    0.000    0.000 
#    0.000    0.000    0.000    0.000    0.000    0.000 
#
# Total GULP energy -323184.116826 kJ/mol
# GULP energy per Si atom -5572.139945 kJ/mol
# Density = 1.958854 g / cm^3
# Si number density = 19.633229 Si / 1000 Ang^3
#
#
#
# Elastic Constant Matrix: (Units=GPa)
#
#
# Indices 1 2 3 4 5 6 
#
# 1 94.2732 26.3107 11.8856 0.0000 0.0000 0.0000
# 2 26.3107 144.2556 56.3890 0.0000 0.0000 0.0000
# 3 11.8856 56.3890 57.5328 0.0000 0.0000 0.0000
# 4 0.0000 0.0000 0.0000 5.6268 0.0000 0.0000
# 5 0.0000 0.0000 0.0000 0.0000 20.5873 0.0000
# 6 0.0000 0.0000 0.0000 0.0000 0.0000 -9.2451
#
#
#
# Elastic Compliance Matrix: (Units=1/GPa)
#
#
# Indices 1 2 3 4 5 6 
#
# 1 0.011185 -0.001843 -0.000505 0.000000 0.000000 0.000000
# 2 -0.001843 0.011541 -0.010931 0.000000 0.000000 0.000000
# 3 -0.000505 -0.010931 0.028199 0.000000 0.000000 0.000000
# 4 0.000000 0.000000 0.000000 0.177722 0.000000 0.000000
# 5 0.000000 0.000000 0.000000 0.000000 0.048574 0.000000
# 6 0.000000 0.000000 0.000000 0.000000 0.000000 -0.108165
#
#
# Mechanical properties :
#
#
# Convention : Reuss Voigt Hill
#
# Bulk Modulus (GPa) = 41.03567 53.91469 47.47518
# Shear Modulus (GPa) = 24.54161 16.82553 20.68357
#
# Velocity S-wave (km/s) = 3.53937 2.93062 3.24928
# Velocity P-wave (km/s) = 6.13591 6.24275 6.18956
#
# Compressibility (1/GPa) = 0.02436904
#
# Stress axis : x y z
#
# Youngs Moduli (GPa) = 89.40215 86.64652 35.46191
#
# Poissons Ratio (x) = 0.15968 0.01789
# Poissons Ratio (y) = 0.16476 0.38763
# Poissons Ratio (z) = 0.04511 0.94713
#
# Static dielectric constant tensor:
#      x y z
#    x 1.728580 0.000000 0.000000 
#    y 0.000000 1.706680 0.000000 
#    z 0.000000 0.000000 1.616410 
# 
# From -- ./inp_files/57893.got.cif
#   From: 2010.05.17/outbox.cif.g08.bks.cpg/sg74_29_cif.got.tgz:57893.got - 2010.06.03 17:57:02.
