data_PCOD9537723
_publ_section_title
;
Structure prediction by ZEFSAII (Michael W. Deem and Ramdas Pophale) SiO2 
 PCOD9537723
Probable space group: I M M A
;
_chemical_formula_sum "Si O2"
_cell_formula_units_Z 72
_cell_length_a 17.423068
_cell_length_b 14.934400
_cell_length_c 14.302066
_cell_angle_alpha 90.000000
_cell_angle_beta 90.000000
_cell_angle_gamma 90.000000
_cell_volume 3721.441434
_symmetry_space_group_name_H-M "I M M A"
_symmetry_group_IT_number 74
_symmetry_cell_setting 'orthorhombic'
loop_
_space_group_symop_operation_xyz
x,y,z
-x,1/2-y,z
x,-y,-z
-x,1/2+y,-z
-x,-y,-z
x,1/2+y,-z
-x,y,z
x,1/2-y,z
1/2+x,1/2+y,1/2+z
1/2-x,-y,1/2+z
1/2+x,1/2-y,1/2-z
1/2-x,y,1/2-z
1/2-x,1/2-y,1/2-z
1/2+x,y,1/2-z
1/2-x,1/2+y,1/2+z
1/2+x,-y,1/2+z
loop_
_atom_site_type_symbol
_atom_site_label
_atom_site_fract_x
_atom_site_fract_y
_atom_site_fract_z
Si Si1 0.369454 0.552741 0.412062
Si Si2 0.244189 0.250000 0.361991
Si Si3 0.826527 0.250000 0.967424
Si Si4 0.911804 0.071178 0.699035
Si Si5 0.718039 0.551523 0.856097
Si Si6 0.686807 0.750000 0.167736
O O1 0.405431 0.500000 0.500000
O O2 0.364091 0.658144 0.433687
O O3 0.406585 0.545972 0.309569
O O4 0.284163 0.508995 0.402648
O O5 0.250000 0.250000 0.250000
O O6 0.323367 0.250000 0.420079
O O7 0.209999 0.153568 0.389667
O O8 0.739772 0.250000 0.924746
O O9 0.865592 0.162979 0.681259
O O10 0.000000 0.078459 0.671799
O O11 0.863028 0.997140 0.644100
O O12 0.750000 0.556415 0.750000
O O13 0.750000 0.750000 0.250000
#
# Coordination Sequence:
#
# PCOD9537723 Si02
#       6
#    16   8   8  16  16   8
#     4  11  20  34  58  86 118 148 197 247 291 346
#     4  10  20  34  57  85 110 144 196 250 290 325
#     4  12  20  32  60  91 113 140 190 258 294 333
#     4  11  22  36  56  85 125 160 184 233 307 369
#     4   9  18  34  55  81 108 148 195 239 279 338
#     4  12  19  36  61  88 117 150 196 246 296 348
#
# _framework density 19.347342000000001
#
# number of rings (size 3 to 8) (size 9 to 14) (size 15 to 20)
#    0.000    1.333    6.667    1.000    0.000    0.444 
#    0.000    0.556    0.000    7.333    0.000    0.000 
#    0.000    0.000    0.000    0.000    0.000    0.000 
#
# Total GULP energy -200713.150787 kJ/mol
# GULP energy per Si atom -5575.365300 kJ/mol
# Density = 1.930331 g / cm^3
# Si number density = 19.347342 Si / 1000 Ang^3
#
#
#
# Elastic Constant Matrix: (Units=GPa)
#
#
# Indices 1 2 3 4 5 6 
#
# 1 93.8681 32.6132 -20.4099 0.0000 0.0000 0.0000
# 2 32.6132 162.6926 -10.6702 0.0000 0.0000 0.0000
# 3 -20.4099 -10.6702 39.3812 0.0000 0.0000 0.0000
# 4 0.0000 0.0000 0.0000 25.4698 0.0000 0.0000
# 5 0.0000 0.0000 0.0000 0.0000 10.0085 0.0000
# 6 0.0000 0.0000 0.0000 0.0000 0.0000 5.2335
#
#
#
# Elastic Compliance Matrix: (Units=1/GPa)
#
#
# Indices 1 2 3 4 5 6 
#
# 1 0.012706 -0.002153 0.006002 0.000000 0.000000 0.000000
# 2 -0.002153 0.006623 0.000678 0.000000 0.000000 0.000000
# 3 0.006002 0.000678 0.028687 0.000000 0.000000 0.000000
# 4 0.000000 0.000000 0.000000 0.039262 0.000000 0.000000
# 5 0.000000 0.000000 0.000000 0.000000 0.099915 0.000000
# 6 0.000000 0.000000 0.000000 0.000000 0.000000 0.191077
#
#
# Mechanical properties :
#
#
# Convention : Reuss Voigt Hill
#
# Bulk Modulus (GPa) = 17.52244 33.22313 25.37279
# Shear Modulus (GPa) = 12.87861 27.76961 20.32411
#
# Velocity S-wave (km/s) = 2.58282 3.79267 3.24464
# Velocity P-wave (km/s) = 4.23923 6.03228 5.21342
#
# Compressibility (1/GPa) = 0.05706968
#
# Stress axis : x y z
#
# Youngs Moduli (GPa) = 78.70027 150.99503 34.85878
#
# Poissons Ratio (x) = 0.32517 -0.20922
# Poissons Ratio (y) = 0.16948 -0.02365
# Poissons Ratio (z) = -0.47235 -0.10242
#
# Static dielectric constant tensor:
#      x y z
#    x 1.647870 0.000000 0.000000 
#    y 0.000000 1.749320 0.000000 
#    z 0.000000 0.000000 1.756500 
# 
# From -- ./inp_files/31954.got.cif
#   From: 2010.05.17/outbox.cif.g08.bks.cpg/sg74_16_cif.got.tgz:31954.got - 2010.06.03 17:57:02.
