data_PCOD9537326
_publ_section_title
;
Structure prediction by ZEFSAII (Michael W. Deem and Ramdas Pophale) SiO2 
 PCOD9537326
Probable space group: I M M A
;
_chemical_formula_sum "Si O2"
_cell_formula_units_Z 80
_cell_length_a 13.724748
_cell_length_b 13.637640
_cell_length_c 23.607741
_cell_angle_alpha 90.000000
_cell_angle_beta 90.000000
_cell_angle_gamma 90.000000
_cell_volume 4418.735774
_symmetry_space_group_name_H-M "I M M A"
_symmetry_group_IT_number 74
_symmetry_cell_setting 'orthorhombic'
loop_
_space_group_symop_operation_xyz
x,y,z
-x,1/2-y,z
x,-y,-z
-x,1/2+y,-z
-x,-y,-z
x,1/2+y,-z
-x,y,z
x,1/2-y,z
1/2+x,1/2+y,1/2+z
1/2-x,-y,1/2+z
1/2+x,1/2-y,1/2-z
1/2-x,y,1/2-z
1/2-x,1/2-y,1/2-z
1/2+x,y,1/2-z
1/2-x,1/2+y,1/2+z
1/2+x,-y,1/2+z
loop_
_atom_site_type_symbol
_atom_site_label
_atom_site_fract_x
_atom_site_fract_y
_atom_site_fract_z
Si Si1 0.615180 0.862415 0.387001
Si Si2 0.810211 0.528447 0.803986
Si Si3 0.500000 0.131924 0.252636
Si Si4 0.500000 0.131113 0.117742
Si Si5 0.608884 0.631590 0.520090
Si Si6 0.211878 0.132856 0.402674
O O1 0.500000 0.863581 0.374418
O O2 0.650082 0.750000 0.379873
O O3 0.623520 0.887924 0.453623
O O4 0.665440 0.939205 0.345823
O O5 0.750000 0.493364 0.750000
O O6 0.906319 0.583911 0.782352
O O7 0.745667 0.604516 0.839844
O O8 0.500000 0.250000 0.259386
O O9 0.500000 0.109635 0.185184
O O10 0.500000 0.250000 0.113572
O O11 0.398695 0.095193 0.090287
O O12 0.500000 0.596398 0.538033
O O13 0.605383 0.750000 0.525760
O O14 0.701627 0.597719 0.556037
O O15 0.208298 0.250000 0.408398
#
# Coordination Sequence:
#
# PCOD9537326 Si02
#       6
#    16  16   8   8  16  16
#     4   9  19  38  59  79 107 140 180 233 285 325
#     4  12  23  34  54  82 109 146 186 223 270 325
#     4  11  22  36  51  77 117 149 178 218 266 323
#     4   9  18  34  52  71 110 158 184 208 253 321
#     4   8  16  32  55  82 110 137 172 227 284 328
#     4  10  20  33  52  81 114 148 183 219 268 334
#
# _framework density 18.104725999999999
#
# number of rings (size 3 to 8) (size 9 to 14) (size 15 to 20)
#    0.000    2.200    3.000    1.800    1.400    2.000 
#    0.000    2.000    0.000    3.600    0.000    2.800 
#    0.000    0.000    0.000    0.000    0.000    0.000 
#
# Total GULP energy -223124.694465 kJ/mol
# GULP energy per Si atom -5578.117362 kJ/mol
# Density = 1.806352 g / cm^3
# Si number density = 18.104726 Si / 1000 Ang^3
#
#
#
# Elastic Constant Matrix: (Units=GPa)
#
#
# Indices 1 2 3 4 5 6 
#
# 1 164.4444 34.7166 66.2960 0.0000 0.0000 0.0000
# 2 34.7166 50.7205 14.8299 0.0000 0.0000 0.0000
# 3 66.2960 14.8299 73.9589 0.0000 0.0000 0.0000
# 4 0.0000 0.0000 0.0000 26.7254 0.0000 0.0000
# 5 0.0000 0.0000 0.0000 0.0000 29.1675 0.0000
# 6 0.0000 0.0000 0.0000 0.0000 0.0000 11.2831
#
#
#
# Elastic Compliance Matrix: (Units=1/GPa)
#
#
# Indices 1 2 3 4 5 6 
#
# 1 0.010482 -0.004703 -0.008453 0.000000 0.000000 0.000000
# 2 -0.004703 0.023054 -0.000407 0.000000 0.000000 0.000000
# 3 -0.008453 -0.000407 0.021179 0.000000 0.000000 0.000000
# 4 0.000000 0.000000 0.000000 0.037418 0.000000 0.000000
# 5 0.000000 0.000000 0.000000 0.000000 0.034285 0.000000
# 6 0.000000 0.000000 0.000000 0.000000 0.000000 0.088628
#
#
# Mechanical properties :
#
#
# Convention : Reuss Voigt Hill
#
# Bulk Modulus (GPa) = 36.24516 57.86763 47.05640
# Shear Modulus (GPa) = 19.89122 24.98729 22.43926
#
# Velocity S-wave (km/s) = 3.31822 3.71907 3.52435
# Velocity P-wave (km/s) = 5.89440 7.10451 6.52756
#
# Compressibility (1/GPa) = 0.02758989
#
# Stress axis : x y z
#
# Youngs Moduli (GPa) = 95.40523 43.37663 47.21562
#
# Poissons Ratio (x) = 0.20400 0.39909
# Poissons Ratio (y) = 0.44868 0.01922
# Poissons Ratio (z) = 0.80642 0.01766
#
# Static dielectric constant tensor:
#      x y z
#    x 1.643580 0.000000 0.000000 
#    y 0.000000 1.630280 0.000000 
#    z 0.000000 0.000000 1.608570 
# 
# From -- ./inp_files/58535.got.cif
#   From: 2010.05.17/outbox.cif.g08.bks.cpg/sg74_30_cif.got.tgz:58535.got - 2010.06.03 17:57:02.
