data_PCOD9537542
_publ_section_title
;
Structure prediction by ZEFSAII (Michael W. Deem and Ramdas Pophale) SiO2 
 PCOD9537542
Probable space group: I M M A
;
_chemical_formula_sum "Si O2"
_cell_formula_units_Z 104
_cell_length_a 19.264101
_cell_length_b 8.976250
_cell_length_c 29.457257
_cell_angle_alpha 90.000000
_cell_angle_beta 90.000000
_cell_angle_gamma 90.000000
_cell_volume 5093.730811
_symmetry_space_group_name_H-M "I M M A"
_symmetry_group_IT_number 74
_symmetry_cell_setting 'orthorhombic'
loop_
_space_group_symop_operation_xyz
x,y,z
-x,1/2-y,z
x,-y,-z
-x,1/2+y,-z
-x,-y,-z
x,1/2+y,-z
-x,y,z
x,1/2-y,z
1/2+x,1/2+y,1/2+z
1/2-x,-y,1/2+z
1/2+x,1/2-y,1/2-z
1/2-x,y,1/2-z
1/2-x,1/2-y,1/2-z
1/2+x,y,1/2-z
1/2-x,1/2+y,1/2+z
1/2+x,-y,1/2+z
loop_
_atom_site_type_symbol
_atom_site_label
_atom_site_fract_x
_atom_site_fract_y
_atom_site_fract_z
Si Si1 0.230080 0.078131 0.046442
Si Si2 0.375243 0.076800 0.603169
Si Si3 0.679558 0.073864 0.225550
Si Si4 0.603094 0.422178 0.046541
Si Si5 0.000000 0.926971 0.950719
Si Si6 0.417506 0.419999 0.707286
Si Si7 0.422736 0.932105 0.851642
O O1 0.208153 0.250000 0.047147
O O2 0.313091 0.072901 0.047171
O O3 0.197932 0.990249 0.088332
O O4 0.205725 0.000000 0.000000
O O5 0.380337 0.250000 0.590081
O O6 0.389288 0.065891 0.656366
O O7 0.433155 0.984464 0.576496
O O8 0.691373 0.250000 0.218791
O O9 0.750000 0.013267 0.250000
O O10 0.643281 0.017142 0.178686
O O11 0.619351 0.039971 0.261546
O O12 0.581750 0.250000 0.044366
O O13 0.580939 0.482231 0.095818
O O14 0.580368 0.500000 0.000000
O O15 0.000000 0.750000 0.954154
O O16 0.000000 0.000000 0.000000
O O17 0.500000 0.437934 0.706406
O O18 0.402187 0.250000 0.723152
O O19 0.500000 0.973148 0.833465
O O20 0.419809 0.750000 0.851999
#
# Coordination Sequence:
#
# PCOD9537542 Si02
#       7
#    16  16  16  16   8  16  16
#     4  10  20  34  53  78 109 147 192 242 295 351
#     4  11  22  38  56  78 111 151 194 242 297 354
#     4  10  22  38  62  93 121 152 198 251 295 351
#     4   9  19  35  57  84 117 153 192 240 293 353
#     4  12  24  38  56  80 112 152 198 248 297 354
#     4  10  22  41  61  83 117 156 193 241 301 359
#     4   9  18  35  58  85 120 159 194 239 302 357
#
# _framework density 20.417255000000001
#
# number of rings (size 3 to 8) (size 9 to 14) (size 15 to 20)
#    0.000    2.000    0.769    2.538    2.154    3.385 
#    0.000    0.769    0.000    0.923    0.000    0.000 
#    0.000    0.000    0.000    0.000    0.000    0.000 
#
# Total GULP energy -290179.514876 kJ/mol
# GULP energy per Si atom -5580.375286 kJ/mol
# Density = 2.037078 g / cm^3
# Si number density = 20.417255 Si / 1000 Ang^3
#
#
#
# Elastic Constant Matrix: (Units=GPa)
#
#
# Indices 1 2 3 4 5 6 
#
# 1 83.7773 14.8313 45.4477 0.0000 0.0000 0.0000
# 2 14.8313 52.5732 23.2414 0.0000 0.0000 0.0000
# 3 45.4477 23.2414 97.2876 0.0000 0.0000 0.0000
# 4 0.0000 0.0000 0.0000 25.7907 0.0000 0.0000
# 5 0.0000 0.0000 0.0000 0.0000 23.2947 0.0000
# 6 0.0000 0.0000 0.0000 0.0000 0.0000 -19.6513
#
#
#
# Elastic Compliance Matrix: (Units=1/GPa)
#
#
# Indices 1 2 3 4 5 6 
#
# 1 0.016074 -0.001359 -0.007185 0.000000 0.000000 0.000000
# 2 -0.001359 0.021382 -0.004473 0.000000 0.000000 0.000000
# 3 -0.007185 -0.004473 0.014704 0.000000 0.000000 0.000000
# 4 0.000000 0.000000 0.000000 0.038774 0.000000 0.000000
# 5 0.000000 0.000000 0.000000 0.000000 0.042928 0.000000
# 6 0.000000 0.000000 0.000000 0.000000 0.000000 -0.050887
#
#
# Mechanical properties :
#
#
# Convention : Reuss Voigt Hill
#
# Bulk Modulus (GPa) = 38.27449 44.51986 41.39717
# Shear Modulus (GPa) = 42.47489 15.89468 29.18479
#
# Velocity S-wave (km/s) = 4.56603 2.79318 3.78487
# Velocity P-wave (km/s) = 6.82532 5.67933 6.27853
#
# Compressibility (1/GPa) = 0.02612706
#
# Stress axis : x y z
#
# Youngs Moduli (GPa) = 62.21062 46.76852 68.01005
#
# Poissons Ratio (x) = 0.06354 0.48862
# Poissons Ratio (y) = 0.08452 0.30423
# Poissons Ratio (z) = 0.44696 0.20921
#
# Static dielectric constant tensor:
#      x y z
#    x 1.703870 0.000000 0.000000 
#    y 0.000000 1.712100 0.000000 
#    z 0.000000 0.000000 1.750830 
# 
# From -- ./inp_files/73366.got.cif
#   From: 2010.05.17/outbox.cif.g08.bks.cpg/sg74_37_cif.got.tgz:73366.got - 2010.06.03 17:57:02.
