data_PCOD9537970
_publ_section_title
;
Structure prediction by ZEFSAII (Michael W. Deem and Ramdas Pophale) SiO2 
 PCOD9537970
Probable space group: I M M A
;
_chemical_formula_sum "Si O2"
_cell_formula_units_Z 112
_cell_length_a 23.881084
_cell_length_b 16.540874
_cell_length_c 15.509571
_cell_angle_alpha 90.000000
_cell_angle_beta 90.000000
_cell_angle_gamma 90.000000
_cell_volume 6126.497701
_symmetry_space_group_name_H-M "I M M A"
_symmetry_group_IT_number 74
_symmetry_cell_setting 'orthorhombic'
loop_
_space_group_symop_operation_xyz
x,y,z
-x,1/2-y,z
x,-y,-z
-x,1/2+y,-z
-x,-y,-z
x,1/2+y,-z
-x,y,z
x,1/2-y,z
1/2+x,1/2+y,1/2+z
1/2-x,-y,1/2+z
1/2+x,1/2-y,1/2-z
1/2-x,y,1/2-z
1/2-x,1/2-y,1/2-z
1/2+x,y,1/2-z
1/2-x,1/2+y,1/2+z
1/2+x,-y,1/2+z
loop_
_atom_site_type_symbol
_atom_site_label
_atom_site_fract_x
_atom_site_fract_y
_atom_site_fract_z
Si Si1 0.643839 0.890967 0.634145
Si Si2 0.253536 0.344880 0.031141
Si Si3 0.064732 0.165320 0.997264
Si Si4 0.194109 0.909487 0.695947
Si Si5 0.065568 0.543780 0.153887
Si Si6 0.434973 0.654066 0.175715
Si Si7 0.659673 0.942494 0.079832
O O1 0.697660 0.888375 0.569577
O O2 0.599712 0.838663 0.583044
O O3 0.658974 0.864462 0.730444
O O4 0.612439 0.975349 0.651526
O O5 0.242827 0.250000 0.011731
O O6 0.294007 0.353162 0.114185
O O7 0.285448 0.393007 0.954554
O O8 0.075754 0.250000 0.950326
O O9 0.076019 0.092951 0.933350
O O10 0.000000 0.161562 0.019347
O O11 0.250000 0.929181 0.750000
O O12 0.172484 0.994081 0.656632
O O13 0.070738 0.603951 0.235130
O O14 0.000000 0.515089 0.153083
O O15 0.500000 0.643394 0.147174
O O16 0.425981 0.750000 0.188637
O O17 0.389369 0.617397 0.110127
O O18 0.642396 0.000000 0.000000
#
# Coordination Sequence:
#
# PCOD9537970 Si02
#       7
#    16  16  16  16  16  16  16
#     4  11  20  34  55  82 111 148 191 233 276 342
#     4  10  22  38  58  82 111 149 191 236 283 339
#     4  10  21  35  52  79 115 149 184 231 283 334
#     4   9  20  35  55  81 108 147 188 228 276 337
#     4  10  20  35  57  83 113 149 192 233 279 341
#     4  10  20  36  61  88 115 151 193 239 292 344
#     4  10  20  38  59  85 115 149 187 241 289 338
#
# _framework density 18.281244999999998
#
# number of rings (size 3 to 8) (size 9 to 14) (size 15 to 20)
#    0.000    2.000    1.429    2.143    0.000   12.000 
#    0.000    0.000    0.000    0.857    0.000    8.000 
#    0.000    0.000    0.000    0.000    0.000    0.000 
#
# Total GULP energy -311803.278590 kJ/mol
# GULP energy per Si atom -5567.915689 kJ/mol
# Density = 1.823964 g / cm^3
# Si number density = 18.281245 Si / 1000 Ang^3
#
#
#
# Elastic Constant Matrix: (Units=GPa)
#
#
# Indices 1 2 3 4 5 6 
#
# 1 -218.9383 50.0425 -58.1312 0.0000 0.0000 0.0000
# 2 50.0425 83.7766 23.0721 0.0000 0.0000 0.0000
# 3 -58.1312 23.0721 39.9646 0.0000 0.0000 0.0000
# 4 0.0000 0.0000 0.0000 23.5796 0.0000 0.0000
# 5 0.0000 0.0000 0.0000 0.0000 30.9796 0.0000
# 6 0.0000 0.0000 0.0000 0.0000 0.0000 40.1441
#
#
#
# Elastic Compliance Matrix: (Units=1/GPa)
#
#
# Indices 1 2 3 4 5 6 
#
# 1 -0.002483 0.002947 -0.005313 0.000000 0.000000 0.000000
# 2 0.002947 0.010697 -0.001889 0.000000 0.000000 0.000000
# 3 -0.005313 -0.001889 0.018385 0.000000 0.000000 0.000000
# 4 0.000000 0.000000 0.000000 0.042410 0.000000 0.000000
# 5 0.000000 0.000000 0.000000 0.000000 0.032279 0.000000
# 6 0.000000 0.000000 0.000000 0.000000 0.000000 0.024910
#
#
# Mechanical properties :
#
#
# Convention : Reuss Voigt Hill
#
# Bulk Modulus (GPa) = 55.29115 -7.24783 24.02166
# Shear Modulus (GPa) = 35.52710 11.59530 23.56120
#
# Velocity S-wave (km/s) = 4.41314 2.52121 3.59391
# Velocity P-wave (km/s) = 7.50188 2.12182 5.51272
#
# Compressibility (1/GPa) = 0.01808608
#
# Stress axis : x y z
#
# Youngs Moduli (GPa) = -402.69455 93.48640 54.39363
#
# Poissons Ratio (x) = -0.27547 0.28900
# Poissons Ratio (y) = 1.18658 0.10277
# Poissons Ratio (z) = -2.13959 0.17663
#
# Static dielectric constant tensor:
#      x y z
#    x 1.675760 0.000000 0.000000 
#    y 0.000000 1.237280 0.000000 
#    z 0.000000 0.000000 1.613640 
# 
# From -- ./inp_files/36476.got.cif
#   From: 2010.05.17/outbox.cif.g08.bks.cpg/sg74_19_cif.got.tgz:36476.got - 2010.06.03 17:57:02.
