data_PCOD9537238
_publ_section_title
;
Structure prediction by ZEFSAII (Michael W. Deem and Ramdas Pophale) SiO2 
 PCOD9537238
Probable space group: I M M A
;
_chemical_formula_sum "Si O2"
_cell_formula_units_Z 88
_cell_length_a 27.005847
_cell_length_b 10.366635
_cell_length_c 14.046743
_cell_angle_alpha 90.000000
_cell_angle_beta 90.000000
_cell_angle_gamma 90.000000
_cell_volume 3932.522781
_symmetry_space_group_name_H-M "I M M A"
_symmetry_group_IT_number 74
_symmetry_cell_setting 'orthorhombic'
loop_
_space_group_symop_operation_xyz
x,y,z
-x,1/2-y,z
x,-y,-z
-x,1/2+y,-z
-x,-y,-z
x,1/2+y,-z
-x,y,z
x,1/2-y,z
1/2+x,1/2+y,1/2+z
1/2-x,-y,1/2+z
1/2+x,1/2-y,1/2-z
1/2-x,y,1/2-z
1/2-x,1/2-y,1/2-z
1/2+x,y,1/2-z
1/2-x,1/2+y,1/2+z
1/2+x,-y,1/2+z
loop_
_atom_site_type_symbol
_atom_site_label
_atom_site_fract_x
_atom_site_fract_y
_atom_site_fract_z
Si Si1 0.289437 0.250000 0.569945
Si Si2 0.440782 0.615739 0.561931
Si Si3 0.372108 0.750000 0.271349
Si Si4 0.710283 0.580361 0.578038
Si Si5 0.173184 0.250000 0.567203
Si Si6 0.672357 0.419688 0.078529
Si Si7 0.878923 0.038293 0.224026
O O1 0.323715 0.250000 0.663008
O O2 0.295425 0.413828 0.543751
O O3 0.231188 0.250000 0.593559
O O4 0.419254 0.500000 0.500000
O O5 0.500000 0.610528 0.558719
O O6 0.423333 0.750000 0.517182
O O7 0.422287 0.611220 0.669186
O O8 0.359838 0.750000 0.160685
O O9 0.395613 0.610860 0.288146
O O10 0.704633 0.750000 0.555330
O O11 0.768847 0.578158 0.605451
O O12 0.669982 0.569661 0.661790
O O13 0.166824 0.414625 0.543508
O O14 0.667100 0.250000 0.055729
O O15 0.635113 0.428319 0.168297
#
# Coordination Sequence:
#
# PCOD9537238 Si02
#       7
#     8  16   8  16   8  16  16
#     4  10  21  33  50  76 119 164 209 261 301 360
#     4  10  25  48  73  98 126 159 198 249 316 382
#     4  12  23  34  55  90 117 166 209 257 308 369
#     4  10  20  33  50  81 121 161 205 252 304 365
#     4  10  21  37  52  74 118 172 220 258 305 351
#     4  10  21  36  52  80 121 168 213 255 298 353
#     4  12  24  36  61  89 121 160 208 259 309 373
#
# _framework density 22.377492
#
# number of rings (size 3 to 8) (size 9 to 14) (size 15 to 20)
#    0.000    1.455    3.636    1.364    3.818    1.455 
#    0.000    2.727    0.000    0.545    0.000    0.000 
#    0.000    0.000    0.000    0.000    0.000    0.000 
#
# Total GULP energy -245264.295328 kJ/mol
# GULP energy per Si atom -5574.188530 kJ/mol
# Density = 2.232656 g / cm^3
# Si number density = 22.377492 Si / 1000 Ang^3
#
#
#
# Elastic Constant Matrix: (Units=GPa)
#
#
# Indices 1 2 3 4 5 6 
#
# 1 10.6009 20.7594 10.2366 0.0000 0.0000 0.0000
# 2 20.7594 231.3168 58.8795 0.0000 0.0000 0.0000
# 3 10.2366 58.8795 59.9597 0.0000 0.0000 0.0000
# 4 0.0000 0.0000 0.0000 48.3513 0.0000 0.0000
# 5 0.0000 0.0000 0.0000 0.0000 23.5674 0.0000
# 6 0.0000 0.0000 0.0000 0.0000 0.0000 13.5306
#
#
#
# Elastic Compliance Matrix: (Units=1/GPa)
#
#
# Indices 1 2 3 4 5 6 
#
# 1 0.122064 -0.007533 -0.013442 0.000000 0.000000 0.000000
# 2 -0.007533 0.006229 -0.004830 0.000000 0.000000 0.000000
# 3 -0.013442 -0.004830 0.023716 0.000000 0.000000 0.000000
# 4 0.000000 0.000000 0.000000 0.020682 0.000000 0.000000
# 5 0.000000 0.000000 0.000000 0.000000 0.042431 0.000000
# 6 0.000000 0.000000 0.000000 0.000000 0.000000 0.073907
#
#
# Mechanical properties :
#
#
# Convention : Reuss Voigt Hill
#
# Bulk Modulus (GPa) = 9.96037 53.51426 31.73732
# Shear Modulus (GPa) = 13.36522 31.22332 22.29427
#
# Velocity S-wave (km/s) = 2.44655 3.73942 3.15982
# Velocity P-wave (km/s) = 3.52725 6.52768 5.24653
#
# Compressibility (1/GPa) = 0.10039788
#
# Stress axis : x y z
#
# Youngs Moduli (GPa) = 8.19244 160.54859 42.16549
#
# Poissons Ratio (x) = 1.20941 0.56679
# Poissons Ratio (y) = 0.06171 0.20367
# Poissons Ratio (z) = 0.11012 0.77551
#
# Static dielectric constant tensor:
#      x y z
#    x 1.660950 0.000000 0.000000 
#    y 0.000000 2.370400 0.000000 
#    z 0.000000 0.000000 1.772050 
# 
# From -- ./inp_files/54580.got.cif
#   From: 2010.05.17/outbox.cif.g08.bks.cpg/sg74_28_cif.got.tgz:54580.got - 2010.06.03 17:57:02.
