data_PCOD9537219
_publ_section_title
;
Structure prediction by ZEFSAII (Michael W. Deem and Ramdas Pophale) SiO2 
 PCOD9537219
Probable space group: I M M A
;
_chemical_formula_sum "Si O2"
_cell_formula_units_Z 100
_cell_length_a 8.678262
_cell_length_b 21.541754
_cell_length_c 27.649229
_cell_angle_alpha 90.000000
_cell_angle_beta 90.000000
_cell_angle_gamma 90.000000
_cell_volume 5168.884705
_symmetry_space_group_name_H-M "I M M A"
_symmetry_group_IT_number 74
_symmetry_cell_setting 'orthorhombic'
loop_
_space_group_symop_operation_xyz
x,y,z
-x,1/2-y,z
x,-y,-z
-x,1/2+y,-z
-x,-y,-z
x,1/2+y,-z
-x,y,z
x,1/2-y,z
1/2+x,1/2+y,1/2+z
1/2-x,-y,1/2+z
1/2+x,1/2-y,1/2-z
1/2-x,y,1/2-z
1/2-x,1/2-y,1/2-z
1/2+x,y,1/2-z
1/2-x,1/2+y,1/2+z
1/2+x,-y,1/2+z
loop_
_atom_site_type_symbol
_atom_site_label
_atom_site_fract_x
_atom_site_fract_y
_atom_site_fract_z
Si Si1 0.677574 0.824233 0.932432
Si Si2 0.687278 0.141851 0.174189
Si Si3 0.250000 0.250000 0.250000
Si Si4 0.814509 0.499498 0.301956
Si Si5 0.817213 0.321573 0.964008
Si Si6 0.324917 0.675963 0.300637
Si Si7 0.820014 0.401721 0.619708
O O1 0.500000 0.844171 0.940177
O O2 0.677135 0.750000 0.925508
O O3 0.733684 0.851985 0.881870
O O4 0.772351 0.836616 0.980807
O O5 0.500000 0.150458 0.176362
O O6 0.755581 0.195287 0.207939
O O7 0.725229 0.072834 0.191620
O O8 0.750000 0.520250 0.250000
O O9 0.761465 0.539013 0.348939
O O10 0.000000 0.505332 0.300440
O O11 0.759165 0.250000 0.953846
O O12 0.754825 0.375262 0.928963
O O13 0.000000 0.319315 0.958297
O O14 0.500000 0.651815 0.306314
O O15 0.333667 0.750000 0.301966
O O16 0.250000 0.658045 0.250000
O O17 0.213905 0.653006 0.342415
O O18 0.000000 0.411260 0.610648
#
# Coordination Sequence:
#
# PCOD9537219 Si02
#       7
#    16  16   4  16  16  16  16
#     4   9  17  33  58  84 112 146 185 230 281 335
#     4  10  20  36  58  88 121 152 188 229 277 336
#     4  12  18  32  64  94 124 152 184 228 280 332
#     4  10  22  39  56  80 115 153 191 231 277 336
#     4  10  21  37  57  83 113 144 185 239 293 339
#     4  10  20  33  50  74 104 137 177 231 290 341
#     4  11  22  35  54  77 105 147 194 234 279 334
#
# _framework density 19.346533000000001
#
# number of rings (size 3 to 8) (size 9 to 14) (size 15 to 20)
#    0.000    1.920    1.600    2.640    0.000    6.400 
#    0.000    3.200    0.000    4.800    0.000    0.000 
#    0.000    0.000    0.000    0.000    0.000    0.000 
#
# Total GULP energy -278336.862728 kJ/mol
# GULP energy per Si atom -5566.737255 kJ/mol
# Density = 1.930250 g / cm^3
# Si number density = 19.346533 Si / 1000 Ang^3
#
#
#
# Elastic Constant Matrix: (Units=GPa)
#
#
# Indices 1 2 3 4 5 6 
#
# 1 14.0470 26.7754 11.3452 0.0000 0.0000 0.0000
# 2 26.7754 120.3808 68.0997 0.0000 0.0000 0.0000
# 3 11.3452 68.0997 126.1592 0.0000 0.0000 0.0000
# 4 0.0000 0.0000 0.0000 12.6860 0.0000 0.0000
# 5 0.0000 0.0000 0.0000 0.0000 16.2211 0.0000
# 6 0.0000 0.0000 0.0000 0.0000 0.0000 8.5742
#
#
#
# Elastic Compliance Matrix: (Units=1/GPa)
#
#
# Indices 1 2 3 4 5 6 
#
# 1 0.126157 -0.031156 0.005473 0.000000 0.000000 0.000000
# 2 -0.031156 0.019653 -0.007807 0.000000 0.000000 0.000000
# 3 0.005473 -0.007807 0.011648 0.000000 0.000000 0.000000
# 4 0.000000 0.000000 0.000000 0.078827 0.000000 0.000000
# 5 0.000000 0.000000 0.000000 0.000000 0.061648 0.000000
# 6 0.000000 0.000000 0.000000 0.000000 0.000000 0.116629
#
#
# Mechanical properties :
#
#
# Convention : Reuss Voigt Hill
#
# Bulk Modulus (GPa) = 11.05240 52.55864 31.80552
# Shear Modulus (GPa) = 9.77131 17.78737 13.77934
#
# Velocity S-wave (km/s) = 2.24981 3.03546 2.67167
# Velocity P-wave (km/s) = 3.53187 6.28580 5.09831
#
# Compressibility (1/GPa) = 0.09047806
#
# Stress axis : x y z
#
# Youngs Moduli (GPa) = 7.92665 50.88245 85.84882
#
# Poissons Ratio (x) = 1.58530 -0.46984
# Poissons Ratio (y) = 0.24696 0.67021
# Poissons Ratio (z) = -0.04338 0.39723
#
# Static dielectric constant tensor:
#      x y z
#    x 1.702790 0.000000 0.000000 
#    y 0.000000 1.688530 0.000000 
#    z 0.000000 0.000000 1.660120 
# 
# From -- ./inp_files/64499.got.cif
#   From: 2010.05.17/outbox.cif.g08.bks.cpg/sg74_33_cif.got.tgz:64499.got - 2010.06.03 17:57:02.
