data_PCOD9537468
_publ_section_title
;
Structure prediction by ZEFSAII (Michael W. Deem and Ramdas Pophale) SiO2 
 PCOD9537468
Probable space group: I M M A
;
_chemical_formula_sum "Si O2"
_cell_formula_units_Z 120
_cell_length_a 8.623539
_cell_length_b 27.889800
_cell_length_c 28.277263
_cell_angle_alpha 90.000000
_cell_angle_beta 90.000000
_cell_angle_gamma 90.000000
_cell_volume 6800.929969
_symmetry_space_group_name_H-M "I M M A"
_symmetry_group_IT_number 74
_symmetry_cell_setting 'orthorhombic'
loop_
_space_group_symop_operation_xyz
x,y,z
-x,1/2-y,z
x,-y,-z
-x,1/2+y,-z
-x,-y,-z
x,1/2+y,-z
-x,y,z
x,1/2-y,z
1/2+x,1/2+y,1/2+z
1/2-x,-y,1/2+z
1/2+x,1/2-y,1/2-z
1/2-x,y,1/2-z
1/2-x,1/2-y,1/2-z
1/2+x,y,1/2-z
1/2-x,1/2+y,1/2+z
1/2+x,-y,1/2+z
loop_
_atom_site_type_symbol
_atom_site_label
_atom_site_fract_x
_atom_site_fract_y
_atom_site_fract_z
Si Si1 0.812817 0.946650 0.987166
Si Si2 0.187309 0.304212 0.435109
Si Si3 0.184049 0.750000 0.197242
Si Si4 0.813171 0.602595 0.889171
Si Si5 0.813847 0.932882 0.302464
Si Si6 0.686976 0.853104 0.032559
Si Si7 0.812606 0.839101 0.361205
Si Si8 0.686420 0.037624 0.302384
O O1 0.767581 0.930177 0.934279
O O2 0.000000 0.945500 0.989779
O O3 0.746086 0.906490 0.021935
O O4 0.760460 0.000000 0.000000
O O5 0.239002 0.250000 0.425187
O O6 0.247771 0.344697 0.399479
O O7 0.237091 0.320568 0.488036
O O8 0.000000 0.304963 0.434328
O O9 0.250000 0.750000 0.250000
O O10 0.242524 0.703252 0.169601
O O11 0.000000 0.750000 0.199380
O O12 0.763317 0.576727 0.841032
O O13 0.000000 0.605361 0.888879
O O14 0.750000 0.921628 0.250000
O O15 0.771505 0.890443 0.338331
O O16 0.000000 0.936306 0.300053
O O17 0.746135 0.984658 0.316162
O O18 0.500000 0.853463 0.032598
O O19 0.738191 0.836195 0.084192
O O20 0.000000 0.835091 0.359802
O O21 0.500000 0.036447 0.300866
O O22 0.750000 0.047750 0.250000
#
# Coordination Sequence:
#
# PCOD9537468 Si02
#       8
#    16  16   8  16  16  16  16  16
#     4   9  18  32  50  73 106 143 176 213 258 309
#     4   9  18  33  55  80 104 136 175 215 261 313
#     4  12  26  42  60  80 102 136 182 230 283 334
#     4   9  19  34  51  76 106 140 175 211 262 315
#     4  10  20  34  52  76 102 135 176 215 263 313
#     4   9  19  34  52  77 106 139 175 215 262 310
#     4  10  22  38  57  79 106 139 176 224 275 322
#     4  10  20  34  54  79 108 141 176 214 261 310
#
# _framework density 17.644645000000001
#
# number of rings (size 3 to 8) (size 9 to 14) (size 15 to 20)
#    0.000    2.400    0.000    2.600    2.800    4.267 
#    0.000    0.000    0.000    0.400    0.000    0.000 
#    0.000    0.000    0.000    0.000    0.000    0.000 
#
# Total GULP energy -334825.786572 kJ/mol
# GULP energy per Si atom -5580.429776 kJ/mol
# Density = 1.760449 g / cm^3
# Si number density = 17.644645 Si / 1000 Ang^3
#
#
#
# Elastic Constant Matrix: (Units=GPa)
#
#
# Indices 1 2 3 4 5 6 
#
# 1 21.3578 33.3138 32.9047 0.0000 0.0000 0.0000
# 2 33.3138 156.8441 92.0389 0.0000 0.0000 0.0000
# 3 32.9047 92.0389 124.2965 0.0000 0.0000 0.0000
# 4 0.0000 0.0000 0.0000 19.2723 0.0000 0.0000
# 5 0.0000 0.0000 0.0000 0.0000 22.2294 0.0000
# 6 0.0000 0.0000 0.0000 0.0000 0.0000 31.0424
#
#
#
# Elastic Compliance Matrix: (Units=1/GPa)
#
#
# Indices 1 2 3 4 5 6 
#
# 1 0.085149 -0.008591 -0.016180 0.000000 0.000000 0.000000
# 2 -0.008591 0.012142 -0.006716 0.000000 0.000000 0.000000
# 3 -0.016180 -0.006716 0.017302 0.000000 0.000000 0.000000
# 4 0.000000 0.000000 0.000000 0.051888 0.000000 0.000000
# 5 0.000000 0.000000 0.000000 0.000000 0.044986 0.000000
# 6 0.000000 0.000000 0.000000 0.000000 0.000000 0.032214
#
#
# Mechanical properties :
#
#
# Convention : Reuss Voigt Hill
#
# Bulk Modulus (GPa) = 19.37309 68.77924 44.07617
# Shear Modulus (GPa) = 15.43873 24.12487 19.78180
#
# Velocity S-wave (km/s) = 2.96122 3.70166 3.35195
# Velocity P-wave (km/s) = 4.76394 7.57196 6.32573
#
# Compressibility (1/GPa) = 0.05161798
#
# Stress axis : x y z
#
# Youngs Moduli (GPa) = 11.74413 82.35954 57.79711
#
# Poissons Ratio (x) = 0.70757 0.93514
# Poissons Ratio (y) = 0.10090 0.38819
# Poissons Ratio (z) = 0.19002 0.55317
#
# Static dielectric constant tensor:
#      x y z
#    x 1.599070 0.000000 0.000000 
#    y 0.000000 1.582540 0.000000 
#    z 0.000000 0.000000 1.596880 
# 
# From -- ./inp_files/65131.got.cif
#   From: 2010.05.17/outbox.cif.g08.bks.cpg/sg74_33_cif.got.tgz:65131.got - 2010.06.03 17:57:02.
