data_PCOD9537022
_publ_section_title
;
Structure prediction by ZEFSAII (Michael W. Deem and Ramdas Pophale) SiO2 
 PCOD9537022
Probable space group: I M M A
;
_chemical_formula_sum "Si O2"
_cell_formula_units_Z 80
_cell_length_a 7.927753
_cell_length_b 18.623716
_cell_length_c 28.281244
_cell_angle_alpha 90.000000
_cell_angle_beta 90.000000
_cell_angle_gamma 90.000000
_cell_volume 4175.562222
_symmetry_space_group_name_H-M "I M M A"
_symmetry_group_IT_number 74
_symmetry_cell_setting 'orthorhombic'
loop_
_space_group_symop_operation_xyz
x,y,z
-x,1/2-y,z
x,-y,-z
-x,1/2+y,-z
-x,-y,-z
x,1/2+y,-z
-x,y,z
x,1/2-y,z
1/2+x,1/2+y,1/2+z
1/2-x,-y,1/2+z
1/2+x,1/2-y,1/2-z
1/2-x,y,1/2-z
1/2-x,1/2-y,1/2-z
1/2+x,y,1/2-z
1/2-x,1/2+y,1/2+z
1/2+x,-y,1/2+z
loop_
_atom_site_type_symbol
_atom_site_label
_atom_site_fract_x
_atom_site_fract_y
_atom_site_fract_z
Si Si1 0.803724 0.015758 0.301855
Si Si2 0.801498 0.171801 0.168563
Si Si3 0.295862 0.876835 0.934101
Si Si4 0.793680 0.965840 0.401953
Si Si5 0.206328 0.329880 0.538253
O O1 0.750000 0.992512 0.250000
O O2 0.775985 0.101234 0.307963
O O3 0.000000 0.002245 0.304847
O O4 0.728578 0.977727 0.348442
O O5 0.732804 0.250000 0.182875
O O6 0.775174 0.161951 0.112220
O O7 0.000000 0.170280 0.178753
O O8 0.500000 0.871500 0.931062
O O9 0.250832 0.961071 0.929897
O O10 0.242101 0.845104 0.984155
O O11 0.735508 0.894134 0.427958
O O12 0.000000 0.963448 0.401287
O O13 0.259113 0.250000 0.552687
O O14 0.000000 0.331371 0.538375
#
# Coordination Sequence:
#
# PCOD9537022 Si02
#       5
#    16  16  16  16  16
#     4  10  20  34  52  69  87 115 152 194 236 277
#     4  10  20  32  46  67  97 128 155 185 221 265
#     4   9  16  27  45  68  95 127 160 190 221 261
#     4   8  15  27  43  65  92 121 152 189 231 272
#     4   9  15  23  41  70  98 122 153 193 231 267
#
# _framework density 19.159095000000001
#
# number of rings (size 3 to 8) (size 9 to 14) (size 15 to 20)
#    0.000    2.800    0.000    3.600    0.000    5.200 
#    0.000    0.000    0.000   11.400    0.000    0.000 
#    0.000    0.000    0.000    0.000    0.000    0.800 
#
# Total GULP energy -223103.073454 kJ/mol
# GULP energy per Si atom -5577.576836 kJ/mol
# Density = 1.911549 g / cm^3
# Si number density = 19.159095 Si / 1000 Ang^3
#
#
#
# Elastic Constant Matrix: (Units=GPa)
#
#
# Indices 1 2 3 4 5 6 
#
# 1 11.4151 -3.5035 -2.1821 0.0000 0.0000 0.0000
# 2 -3.5035 72.5062 17.5388 0.0000 0.0000 0.0000
# 3 -2.1821 17.5388 64.7032 0.0000 0.0000 0.0000
# 4 0.0000 0.0000 0.0000 -3.3733 0.0000 0.0000
# 5 0.0000 0.0000 0.0000 0.0000 20.2478 0.0000
# 6 0.0000 0.0000 0.0000 0.0000 0.0000 -14.3500
#
#
#
# Elastic Compliance Matrix: (Units=1/GPa)
#
#
# Indices 1 2 3 4 5 6 
#
# 1 0.089156 0.003832 0.001968 0.000000 0.000000 0.000000
# 2 0.003832 0.014924 -0.003916 0.000000 0.000000 0.000000
# 3 0.001968 -0.003916 0.016583 0.000000 0.000000 0.000000
# 4 0.000000 0.000000 0.000000 -0.296446 0.000000 0.000000
# 5 0.000000 0.000000 0.000000 0.000000 0.049388 0.000000
# 6 0.000000 0.000000 0.000000 0.000000 0.000000 -0.069687
#
#
# Mechanical properties :
#
#
# Convention : Reuss Voigt Hill
#
# Bulk Modulus (GPa) = 8.03663 19.14791 13.59227
# Shear Modulus (GPa) = -31.57132 9.62299 -10.97417
#
# Velocity S-wave (km/s) = -4.06378 2.24356 -2.39590
# Velocity P-wave (km/s) = 4.22081 4.08990 0.73755
#
# Compressibility (1/GPa) = 0.12443033
#
# Stress axis : x y z
#
# Youngs Moduli (GPa) = 11.21635 67.00433 60.30230
#
# Poissons Ratio (x) = -0.25675 -0.11867
# Poissons Ratio (y) = -0.04298 0.23616
# Poissons Ratio (z) = -0.02207 0.26241
#
# Static dielectric constant tensor:
#      x y z
#    x 1.698740 0.000000 0.000000 
#    y 0.000000 1.670540 0.000000 
#    z 0.000000 0.000000 1.687800 
# 
# From -- ./inp_files/63956.got.cif
#   From: 2010.05.17/outbox.cif.g08.bks.cpg/sg74_32_cif.got.tgz:63956.got - 2010.06.03 17:57:02.
