data_PCOD9537471
_publ_section_title
;
Structure prediction by ZEFSAII (Michael W. Deem and Ramdas Pophale) SiO2 
 PCOD9537471
Probable space group: I M M A
;
_chemical_formula_sum "Si O2"
_cell_formula_units_Z 120
_cell_length_a 7.620554
_cell_length_b 29.726317
_cell_length_c 24.779776
_cell_angle_alpha 90.000000
_cell_angle_beta 90.000000
_cell_angle_gamma 90.000000
_cell_volume 5613.387534
_symmetry_space_group_name_H-M "I M M A"
_symmetry_group_IT_number 74
_symmetry_cell_setting 'orthorhombic'
loop_
_space_group_symop_operation_xyz
x,y,z
-x,1/2-y,z
x,-y,-z
-x,1/2+y,-z
-x,-y,-z
x,1/2+y,-z
-x,y,z
x,1/2-y,z
1/2+x,1/2+y,1/2+z
1/2-x,-y,1/2+z
1/2+x,1/2-y,1/2-z
1/2-x,y,1/2-z
1/2-x,1/2-y,1/2-z
1/2+x,y,1/2-z
1/2-x,1/2+y,1/2+z
1/2+x,-y,1/2+z
loop_
_atom_site_type_symbol
_atom_site_label
_atom_site_fract_x
_atom_site_fract_y
_atom_site_fract_z
Si Si1 0.788118 0.250000 0.313499
Si Si2 0.295995 0.435544 0.123748
Si Si3 0.210891 0.622650 0.186482
Si Si4 0.197437 0.451141 0.005545
Si Si5 0.287654 0.352905 0.499046
Si Si6 0.791373 0.023823 0.813167
Si Si7 0.214779 0.699058 0.104582
Si Si8 0.792058 0.338345 0.373583
O O1 0.750000 0.250000 0.250000
O O2 0.718366 0.294882 0.343288
O O3 0.000000 0.250000 0.319222
O O4 0.500000 0.429621 0.107915
O O5 0.189615 0.443963 0.069541
O O6 0.284048 0.479458 0.159891
O O7 0.233350 0.387651 0.147253
O O8 0.250000 0.628584 0.250000
O O9 0.274440 0.573036 0.168198
O O10 0.274944 0.663367 0.149485
O O11 0.000000 0.621546 0.181477
O O12 0.275933 0.403641 0.986542
O O13 0.000000 0.454948 0.981691
O O14 0.284859 0.500000 0.000000
O O15 0.500000 0.355537 0.499584
O O16 0.232304 0.318606 0.545441
O O17 0.237459 0.338899 0.438335
O O18 0.750000 0.022303 0.750000
O O19 0.000000 0.022367 0.821573
O O20 0.272675 0.750000 0.114490
O O21 0.000000 0.699130 0.105427
O O22 0.000000 0.336627 0.364621
#
# Coordination Sequence:
#
# PCOD9537471 Si02
#       8
#     8  16  16  16  16  16  16  16
#     4  10  22  40  60  82 106 140 179 218 263 314
#     4  10  20  34  52  76 107 138 173 214 262 315
#     4   9  19  35  55  76 105 141 177 219 269 320
#     4   9  18  31  50  75 104 138 176 216 259 311
#     4   9  18  32  53  80 106 137 179 219 260 314
#     4  10  20  34  54  77 104 139 178 216 262 314
#     4   9  18  32  52  80 108 136 176 226 272 315
#     4   9  20  38  56  76 109 144 172 213 269 317
#
# _framework density 21.377466999999999
#
# number of rings (size 3 to 8) (size 9 to 14) (size 15 to 20)
#    0.000    2.667    0.000    0.800    2.800    2.667 
#    0.000    2.000    0.000    0.800    0.000    0.000 
#    0.000    0.000    0.000    0.000    0.000    0.000 
#
# Total GULP energy -334600.027270 kJ/mol
# GULP energy per Si atom -5576.667121 kJ/mol
# Density = 2.132881 g / cm^3
# Si number density = 21.377467 Si / 1000 Ang^3
#
#
#
# Elastic Constant Matrix: (Units=GPa)
#
#
# Indices 1 2 3 4 5 6 
#
# 1 48.5206 12.7945 -7.9298 0.0000 0.0000 0.0000
# 2 12.7945 241.6371 92.1314 0.0000 0.0000 0.0000
# 3 -7.9298 92.1314 70.8394 0.0000 0.0000 0.0000
# 4 0.0000 0.0000 0.0000 41.6154 0.0000 0.0000
# 5 0.0000 0.0000 0.0000 0.0000 13.7753 0.0000
# 6 0.0000 0.0000 0.0000 0.0000 0.0000 5.0449
#
#
#
# Elastic Compliance Matrix: (Units=1/GPa)
#
#
# Indices 1 2 3 4 5 6 
#
# 1 0.023122 -0.004386 0.008293 0.000000 0.000000 0.000000
# 2 -0.004386 0.009041 -0.012250 0.000000 0.000000 0.000000
# 3 0.008293 -0.012250 0.030976 0.000000 0.000000 0.000000
# 4 0.000000 0.000000 0.000000 0.024030 0.000000 0.000000
# 5 0.000000 0.000000 0.000000 0.000000 0.072594 0.000000
# 6 0.000000 0.000000 0.000000 0.000000 0.000000 0.198222
#
#
# Mechanical properties :
#
#
# Convention : Reuss Voigt Hill
#
# Bulk Modulus (GPa) = 21.52718 61.66547 41.59633
# Shear Modulus (GPa) = 12.81543 29.68719 21.25131
#
# Velocity S-wave (km/s) = 2.45109 3.73059 3.15635
# Velocity P-wave (km/s) = 4.25469 6.88949 5.72570
#
# Compressibility (1/GPa) = 0.04645289
#
# Stress axis : x y z
#
# Youngs Moduli (GPa) = 43.24948 110.60405 32.28270
#
# Poissons Ratio (x) = 0.48512 -0.26771
# Poissons Ratio (y) = 0.18970 0.39545
# Poissons Ratio (z) = -0.35865 1.35487
#
# Static dielectric constant tensor:
#      x y z
#    x 1.829500 0.000000 0.000000 
#    y 0.000000 1.829850 0.000000 
#    z 0.000000 0.000000 1.733260 
# 
# From -- ./inp_files/65109.got.cif
#   From: 2010.05.17/outbox.cif.g08.bks.cpg/sg74_33_cif.got.tgz:65109.got - 2010.06.03 17:57:02.
