data_PCOD9537560
_publ_section_title
;
Structure prediction by ZEFSAII (Michael W. Deem and Ramdas Pophale) SiO2 
 PCOD9537560
Probable space group: I M M A
;
_chemical_formula_sum "Si O2"
_cell_formula_units_Z 116
_cell_length_a 27.986687
_cell_length_b 7.712695
_cell_length_c 25.858966
_cell_angle_alpha 90.000000
_cell_angle_beta 90.000000
_cell_angle_gamma 90.000000
_cell_volume 5581.729722
_symmetry_space_group_name_H-M "I M M A"
_symmetry_group_IT_number 74
_symmetry_cell_setting 'orthorhombic'
loop_
_space_group_symop_operation_xyz
x,y,z
-x,1/2-y,z
x,-y,-z
-x,1/2+y,-z
-x,-y,-z
x,1/2+y,-z
-x,y,z
x,1/2-y,z
1/2+x,1/2+y,1/2+z
1/2-x,-y,1/2+z
1/2+x,1/2-y,1/2-z
1/2-x,y,1/2-z
1/2-x,1/2-y,1/2-z
1/2+x,y,1/2-z
1/2-x,1/2+y,1/2+z
1/2+x,-y,1/2+z
loop_
_atom_site_type_symbol
_atom_site_label
_atom_site_fract_x
_atom_site_fract_y
_atom_site_fract_z
Si Si1 0.173619 0.456991 0.939261
Si Si2 0.429313 0.941571 0.595856
Si Si3 0.947318 0.458957 0.316389
Si Si4 0.302972 0.949024 0.252764
Si Si5 0.221826 0.456592 0.560394
Si Si6 0.500000 0.750000 0.434807
Si Si7 0.596995 0.456766 0.705534
Si Si8 0.848805 0.547752 0.647708
O O1 0.170907 0.250000 0.931887
O O2 0.126915 0.538768 0.915115
O O3 0.225779 0.518384 0.920606
O O4 0.172500 0.500000 0.000000
O O5 0.444943 0.750000 0.579035
O O6 0.458565 0.095859 0.569521
O O7 0.431449 0.961651 0.657915
O O8 0.949773 0.250000 0.318050
O O9 0.930581 0.510655 0.258917
O O10 0.903699 0.512814 0.353315
O O11 0.000000 0.527713 0.327911
O O12 0.296692 0.750000 0.271108
O O13 0.250000 0.029918 0.250000
O O14 0.347993 0.020418 0.285948
O O15 0.322315 0.950132 0.194142
O O16 0.217068 0.500000 0.500000
O O17 0.221584 0.250000 0.565492
O O18 0.179663 0.528626 0.595049
O O19 0.599162 0.250000 0.696079
O O20 0.848622 0.750000 0.662957
#
# Coordination Sequence:
#
# PCOD9537560 Si02
#       8
#    16  16  16  16  16   4  16  16
#     4  10  21  41  65  90 119 149 190 241 292 363
#     4  12  25  42  66  89 119 157 197 252 308 360
#     4   9  19  35  55  79 110 157 205 248 297 351
#     4   9  19  34  52  75 112 158 199 237 291 350
#     4  10  21  37  62  90 120 154 190 235 296 354
#     4  12  26  48  62  90 120 148 208 252 308 358
#     4  10  20  35  53  82 118 154 200 251 295 349
#     4  10  20  34  53  82 119 148 193 248 293 354
#
# _framework density 20.782087000000001
#
# number of rings (size 3 to 8) (size 9 to 14) (size 15 to 20)
#    0.000    1.931    1.379    1.862    2.897    3.310 
#    0.000    0.345    0.000    0.414    0.000    0.000 
#    0.000    0.000    0.000    0.000    0.000    0.000 
#
# Total GULP energy -323347.605294 kJ/mol
# GULP energy per Si atom -5574.958712 kJ/mol
# Density = 2.073479 g / cm^3
# Si number density = 20.782087 Si / 1000 Ang^3
#
#
#
# Elastic Constant Matrix: (Units=GPa)
#
#
# Indices 1 2 3 4 5 6 
#
# 1 165.1527 22.4045 21.2523 0.0000 0.0000 0.0000
# 2 22.4045 90.6307 -7.2975 0.0000 0.0000 0.0000
# 3 21.2523 -7.2975 14.2108 0.0000 0.0000 0.0000
# 4 0.0000 0.0000 0.0000 20.6041 0.0000 0.0000
# 5 0.0000 0.0000 0.0000 0.0000 -7.6315 0.0000
# 6 0.0000 0.0000 0.0000 0.0000 0.0000 -3.1772
#
#
#
# Elastic Compliance Matrix: (Units=1/GPa)
#
#
# Indices 1 2 3 4 5 6 
#
# 1 0.008292 -0.003180 -0.014034 0.000000 0.000000 0.000000
# 2 -0.003180 0.012729 0.011292 0.000000 0.000000 0.000000
# 3 -0.014034 0.011292 0.097156 0.000000 0.000000 0.000000
# 4 0.000000 0.000000 0.000000 0.048534 0.000000 0.000000
# 5 0.000000 0.000000 0.000000 0.000000 -0.131035 0.000000
# 6 0.000000 0.000000 0.000000 0.000000 0.000000 -0.314743
#
#
# Mechanical properties :
#
#
# Convention : Reuss Voigt Hill
#
# Bulk Modulus (GPa) = 9.40435 38.07919 23.74177
# Shear Modulus (GPa) = -21.57229 17.53473 -2.01878
#
# Velocity S-wave (km/s) = -3.22533 2.90788 -0.98667
# Velocity P-wave (km/s) = 3.05537 5.44400 3.18605
#
# Compressibility (1/GPa) = 0.10633374
#
# Stress axis : x y z
#
# Youngs Moduli (GPa) = 120.59292 78.55991 10.29272
#
# Poissons Ratio (x) = 0.24982 0.14445
# Poissons Ratio (y) = 0.38348 -0.11623
# Poissons Ratio (z) = 1.69243 -0.88712
#
# Static dielectric constant tensor:
#      x y z
#    x 1.782000 0.000000 0.000000 
#    y 0.000000 1.799110 0.000000 
#    z 0.000000 0.000000 1.712510 
# 
# From -- ./inp_files/68771.got.cif
#   From: 2010.05.17/outbox.cif.g08.bks.cpg/sg74_35_cif.got.tgz:68771.got - 2010.06.03 17:57:02.
