data_PCOD9537997
_publ_section_title
;
Structure prediction by ZEFSAII (Michael W. Deem and Ramdas Pophale) SiO2 
 PCOD9537997
Probable space group: I M M A
;
_chemical_formula_sum "Si O2"
_cell_formula_units_Z 96
_cell_length_a 13.548682
_cell_length_b 14.833355
_cell_length_c 21.700278
_cell_angle_alpha 90.000000
_cell_angle_beta 90.000000
_cell_angle_gamma 90.000000
_cell_volume 4361.157165
_symmetry_space_group_name_H-M "I M M A"
_symmetry_group_IT_number 74
_symmetry_cell_setting 'orthorhombic'
loop_
_space_group_symop_operation_xyz
x,y,z
-x,1/2-y,z
x,-y,-z
-x,1/2+y,-z
-x,-y,-z
x,1/2+y,-z
-x,y,z
x,1/2-y,z
1/2+x,1/2+y,1/2+z
1/2-x,-y,1/2+z
1/2+x,1/2-y,1/2-z
1/2-x,y,1/2-z
1/2-x,1/2-y,1/2-z
1/2+x,y,1/2-z
1/2-x,1/2+y,1/2+z
1/2+x,-y,1/2+z
loop_
_atom_site_type_symbol
_atom_site_label
_atom_site_fract_x
_atom_site_fract_y
_atom_site_fract_z
Si Si1 0.610145 0.109014 0.001596
Si Si2 0.270256 0.148866 0.415249
Si Si3 0.385561 0.849767 0.711598
Si Si4 0.617840 0.149322 0.688789
Si Si5 0.237999 0.950020 0.088868
Si Si6 0.384626 0.483213 0.799881
O O1 0.500000 0.142917 0.987601
O O2 0.701481 0.120026 0.954164
O O3 0.654239 0.145396 0.065825
O O4 0.602825 0.000000 0.000000
O O5 0.304446 0.250000 0.436907
O O6 0.311321 0.145070 0.345702
O O7 0.299169 0.046791 0.438376
O O8 0.500000 0.860931 0.689429
O O9 0.377274 0.750000 0.739036
O O10 0.368453 0.925607 0.761789
O O11 0.500000 0.153118 0.686412
O O12 0.659031 0.250000 0.690255
O O13 0.654402 0.097776 0.628360
O O14 0.640188 0.095242 0.751242
O O15 0.318981 0.977064 0.140244
O O16 0.500000 0.476942 0.816633
#
# Coordination Sequence:
#
# PCOD9537997 Si02
#       6
#    16  16  16  16  16  16
#     4   9  20  39  58  80 115 156 200 247 291 337
#     4  10  21  36  57  85 119 159 201 243 293 350
#     4   9  18  34  57  87 125 162 196 240 294 357
#     4  10  22  39  57  80 114 152 193 244 299 355
#     4  11  21  36  61  87 114 156 201 246 298 360
#     4  10  20  35  57  86 119 154 195 243 300 358
#
# _framework density 22.012506999999999
#
# number of rings (size 3 to 8) (size 9 to 14) (size 15 to 20)
#    0.000    2.167    1.667    1.000    0.000    3.667 
#    0.000    2.500    0.000    8.000    0.000    0.000 
#    0.000    0.000    0.000    0.000    0.000    0.000 
#
# Total GULP energy -267448.648439 kJ/mol
# GULP energy per Si atom -5571.846842 kJ/mol
# Density = 2.196241 g / cm^3
# Si number density = 22.012507 Si / 1000 Ang^3
#
#
#
# Elastic Constant Matrix: (Units=GPa)
#
#
# Indices 1 2 3 4 5 6 
#
# 1 75.5696 23.4538 38.7608 0.0000 0.0000 0.0000
# 2 23.4538 131.6894 25.0517 0.0000 0.0000 0.0000
# 3 38.7608 25.0517 63.8901 0.0000 0.0000 0.0000
# 4 0.0000 0.0000 0.0000 -33.0835 0.0000 0.0000
# 5 0.0000 0.0000 0.0000 0.0000 13.5744 0.0000
# 6 0.0000 0.0000 0.0000 0.0000 0.0000 0.9351
#
#
#
# Elastic Compliance Matrix: (Units=1/GPa)
#
#
# Indices 1 2 3 4 5 6 
#
# 1 0.019419 -0.001316 -0.011265 0.000000 0.000000 0.000000
# 2 -0.001316 0.008295 -0.002454 0.000000 0.000000 0.000000
# 3 -0.011265 -0.002454 0.023449 0.000000 0.000000 0.000000
# 4 0.000000 0.000000 0.000000 -0.030227 0.000000 0.000000
# 5 0.000000 0.000000 0.000000 0.000000 0.073668 0.000000
# 6 0.000000 0.000000 0.000000 0.000000 0.000000 1.069386
#
#
# Mechanical properties :
#
#
# Convention : Reuss Voigt Hill
#
# Bulk Modulus (GPa) = 47.41080 49.52018 48.46549
# Shear Modulus (GPa) = 4.16288 8.54406 6.35347
#
# Velocity S-wave (km/s) = 1.37668 1.97228 1.70075
# Velocity P-wave (km/s) = 4.91038 5.26609 5.09135
#
# Compressibility (1/GPa) = 0.02109224
#
# Stress axis : x y z
#
# Youngs Moduli (GPa) = 51.49503 120.55724 42.64613
#
# Poissons Ratio (x) = 0.15859 0.48043
# Poissons Ratio (y) = 0.06774 0.10467
# Poissons Ratio (z) = 0.58012 0.29589
#
# Static dielectric constant tensor:
#      x y z
#    x 1.826670 0.000000 0.000000 
#    y 0.000000 1.877990 0.000000 
#    z 0.000000 0.000000 1.831460 
# 
# From -- ./inp_files/51865.got.cif
#   From: 2010.05.17/outbox.cif.g08.bks.cpg/sg74_26_cif.got.tgz:51865.got - 2010.06.03 17:57:02.
