data_PCOD9537491
_publ_section_title
;
Structure prediction by ZEFSAII (Michael W. Deem and Ramdas Pophale) SiO2 
 PCOD9537491
Probable space group: I M M A
;
_chemical_formula_sum "Si O2"
_cell_formula_units_Z 72
_cell_length_a 19.640876
_cell_length_b 9.526845
_cell_length_c 19.833612
_cell_angle_alpha 90.000000
_cell_angle_beta 90.000000
_cell_angle_gamma 90.000000
_cell_volume 3711.177839
_symmetry_space_group_name_H-M "I M M A"
_symmetry_group_IT_number 74
_symmetry_cell_setting 'orthorhombic'
loop_
_space_group_symop_operation_xyz
x,y,z
-x,1/2-y,z
x,-y,-z
-x,1/2+y,-z
-x,-y,-z
x,1/2+y,-z
-x,y,z
x,1/2-y,z
1/2+x,1/2+y,1/2+z
1/2-x,-y,1/2+z
1/2+x,1/2-y,1/2-z
1/2-x,y,1/2-z
1/2-x,1/2-y,1/2-z
1/2+x,y,1/2-z
1/2-x,1/2+y,1/2+z
1/2+x,-y,1/2+z
loop_
_atom_site_type_symbol
_atom_site_label
_atom_site_fract_x
_atom_site_fract_y
_atom_site_fract_z
Si Si1 0.420661 0.409974 0.804918
Si Si2 0.365225 0.583187 0.340633
Si Si3 0.888574 0.411042 0.435134
Si Si4 0.775743 0.411066 0.064867
Si Si5 0.000000 0.083082 0.929743
O O1 0.500000 0.408933 0.785146
O O2 0.402524 0.250000 0.825773
O O3 0.379241 0.446154 0.737766
O O4 0.410928 0.513848 0.866769
O O5 0.350952 0.750000 0.347381
O O6 0.305339 0.489678 0.370569
O O7 0.433046 0.552801 0.384712
O O8 0.911364 0.500000 0.500000
O O9 0.911502 0.250000 0.439155
O O10 0.806096 0.411307 0.434915
O O11 0.799121 0.250000 0.060621
O O12 0.799007 0.500000 0.000000
O O13 0.000000 0.250000 0.943606
O O14 0.000000 0.000000 0.000000
#
# Coordination Sequence:
#
# PCOD9537491 Si02
#       5
#    16  16  16  16   8
#     4  10  21  39  61  84 114 151 189 233 282 335
#     4  10  20  36  57  81 114 152 189 230 279 334
#     4  10  22  40  61  85 113 146 187 236 286 340
#     4  10  21  37  57  83 115 149 189 236 283 333
#     4  10  20  34  52  78 111 148 189 230 271 320
#
# _framework density 19.400849000000001
#
# number of rings (size 3 to 8) (size 9 to 14) (size 15 to 20)
#    0.000    2.000    1.111    2.000    0.000    8.000 
#    0.000    4.444    0.000    0.000    0.000    0.000 
#    0.000    0.000    0.000    0.000    0.000    0.000 
#
# Total GULP energy -201144.935930 kJ/mol
# GULP energy per Si atom -5587.359331 kJ/mol
# Density = 1.935669 g / cm^3
# Si number density = 19.400849 Si / 1000 Ang^3
#
#
#
# Elastic Constant Matrix: (Units=GPa)
#
#
# Indices 1 2 3 4 5 6 
#
# 1 22.9841 24.8577 13.2119 0.0000 0.0000 0.0000
# 2 24.8577 103.4187 83.9935 0.0000 0.0000 0.0000
# 3 13.2119 83.9935 129.3900 0.0000 0.0000 0.0000
# 4 0.0000 0.0000 0.0000 36.4654 0.0000 0.0000
# 5 0.0000 0.0000 0.0000 0.0000 24.2951 0.0000
# 6 0.0000 0.0000 0.0000 0.0000 0.0000 26.1314
#
#
#
# Elastic Compliance Matrix: (Units=1/GPa)
#
#
# Indices 1 2 3 4 5 6 
#
# 1 0.061676 -0.020537 0.007034 0.000000 0.000000 0.000000
# 2 -0.020537 0.027291 -0.015619 0.000000 0.000000 0.000000
# 3 0.007034 -0.015619 0.017149 0.000000 0.000000 0.000000
# 4 0.000000 0.000000 0.000000 0.027423 0.000000 0.000000
# 5 0.000000 0.000000 0.000000 0.000000 0.041160 0.000000
# 6 0.000000 0.000000 0.000000 0.000000 0.000000 0.038268
#
#
# Mechanical properties :
#
#
# Convention : Reuss Voigt Hill
#
# Bulk Modulus (GPa) = 20.88890 55.54655 38.21773
# Shear Modulus (GPa) = 17.41127 26.29370 21.85248
#
# Velocity S-wave (km/s) = 2.99900 3.68541 3.35978
# Velocity P-wave (km/s) = 4.77309 6.84126 5.89853
#
# Compressibility (1/GPa) = 0.04787231
#
# Stress axis : x y z
#
# Youngs Moduli (GPa) = 16.21368 36.64216 58.31134
#
# Poissons Ratio (x) = 0.75253 -0.41017
# Poissons Ratio (y) = 0.33299 0.91076
# Poissons Ratio (z) = -0.11405 0.57231
#
# Static dielectric constant tensor:
#      x y z
#    x 1.693650 0.000000 0.000000 
#    y 0.000000 1.659850 0.000000 
#    z 0.000000 0.000000 1.646830 
# 
# From -- ./inp_files/39441.got.cif
#   From: 2010.05.17/outbox.cif.g08.bks.cpg/sg74_20_cif.got.tgz:39441.got - 2010.06.03 17:57:02.
