data_PCOD9537158
_publ_section_title
;
Structure prediction by ZEFSAII (Michael W. Deem and Ramdas Pophale) SiO2 
 PCOD9537158
Probable space group: I M M A
;
_chemical_formula_sum "Si O2"
_cell_formula_units_Z 112
_cell_length_a 15.940027
_cell_length_b 15.654118
_cell_length_c 25.192824
_cell_angle_alpha 90.000000
_cell_angle_beta 90.000000
_cell_angle_gamma 90.000000
_cell_volume 6286.291396
_symmetry_space_group_name_H-M "I M M A"
_symmetry_group_IT_number 74
_symmetry_cell_setting 'orthorhombic'
loop_
_space_group_symop_operation_xyz
x,y,z
-x,1/2-y,z
x,-y,-z
-x,1/2+y,-z
-x,-y,-z
x,1/2+y,-z
-x,y,z
x,1/2-y,z
1/2+x,1/2+y,1/2+z
1/2-x,-y,1/2+z
1/2+x,1/2-y,1/2-z
1/2-x,y,1/2-z
1/2-x,1/2-y,1/2-z
1/2+x,y,1/2-z
1/2-x,1/2+y,1/2+z
1/2+x,-y,1/2+z
loop_
_atom_site_type_symbol
_atom_site_label
_atom_site_fract_x
_atom_site_fract_y
_atom_site_fract_z
Si Si1 0.600220 0.847751 0.132418
Si Si2 0.597784 0.511562 0.936747
Si Si3 0.401479 0.553542 0.553935
Si Si4 0.738853 0.846498 0.917267
Si Si5 0.189592 0.343778 0.199949
Si Si6 0.598302 0.488900 0.668484
Si Si7 0.349468 0.844582 0.252186
O O1 0.500000 0.842745 0.126496
O O2 0.633224 0.750000 0.123205
O O3 0.619910 0.871494 0.193546
O O4 0.626851 0.924317 0.093166
O O5 0.500000 0.529136 0.920527
O O6 0.663488 0.587302 0.926034
O O7 0.597215 0.500000 0.000000
O O8 0.396068 0.500000 0.500000
O O9 0.500000 0.583242 0.559277
O O10 0.327171 0.623410 0.556167
O O11 0.381868 0.495745 0.605890
O O12 0.717925 0.750000 0.934465
O O13 0.757555 0.845328 0.854353
O O14 0.148062 0.250000 0.202934
O O15 0.250000 0.353125 0.250000
O O16 0.128644 0.423453 0.195235
O O17 0.500000 0.483488 0.672710
O O18 0.632761 0.409736 0.700976
O O19 0.385705 0.750000 0.262259
O O20 0.250000 0.838079 0.250000
#
# Coordination Sequence:
#
# PCOD9537158 Si02
#       7
#    16  16  16  16  16  16  16
#     4   9  19  36  57  80 107 143 185 227 275 332
#     4  10  22  38  57  82 112 147 186 232 280 327
#     4   9  19  37  58  81 111 146 187 233 279 330
#     4  10  21  36  56  82 111 148 187 225 273 326
#     4   9  19  35  53  75 106 140 175 220 270 322
#     4  10  20  32  54  81 105 142 178 219 276 324
#     4  10  21  35  53  80 111 143 180 223 273 333
#
# _framework density 17.816545999999999
#
# number of rings (size 3 to 8) (size 9 to 14) (size 15 to 20)
#    0.000    2.429    0.000    1.286    6.000    2.286 
#    0.000    5.000    0.000    5.143    0.000    0.000 
#    0.000    0.000    0.000    0.000    0.000    0.000 
#
# Total GULP energy -311896.847932 kJ/mol
# GULP energy per Si atom -5569.586570 kJ/mol
# Density = 1.777599 g / cm^3
# Si number density = 17.816546 Si / 1000 Ang^3
#
#
#
# Elastic Constant Matrix: (Units=GPa)
#
#
# Indices 1 2 3 4 5 6 
#
# 1 54.8098 49.5239 20.2603 0.0000 0.0000 0.0000
# 2 49.5239 121.9768 56.9562 0.0000 0.0000 0.0000
# 3 20.2603 56.9562 68.4485 0.0000 0.0000 0.0000
# 4 0.0000 0.0000 0.0000 17.0821 0.0000 0.0000
# 5 0.0000 0.0000 0.0000 0.0000 33.0314 0.0000
# 6 0.0000 0.0000 0.0000 0.0000 0.0000 -5.5514
#
#
#
# Elastic Compliance Matrix: (Units=1/GPa)
#
#
# Indices 1 2 3 4 5 6 
#
# 1 0.028980 -0.012692 0.001983 0.000000 0.000000 0.000000
# 2 -0.012692 0.018967 -0.012025 0.000000 0.000000 0.000000
# 3 0.001983 -0.012025 0.024029 0.000000 0.000000 0.000000
# 4 0.000000 0.000000 0.000000 0.058541 0.000000 0.000000
# 5 0.000000 0.000000 0.000000 0.000000 0.030274 0.000000
# 6 0.000000 0.000000 0.000000 0.000000 0.000000 -0.180135
#
#
# Mechanical properties :
#
#
# Convention : Reuss Voigt Hill
#
# Bulk Modulus (GPa) = 37.72597 55.41287 46.56942
# Shear Modulus (GPa) = 143.02043 16.81207 79.91625
#
# Velocity S-wave (km/s) = 8.96929 3.07517 6.70466
# Velocity P-wave (km/s) = 11.33512 6.61652 9.28071
#
# Compressibility (1/GPa) = 0.02650694
#
# Stress axis : x y z
#
# Youngs Moduli (GPa) = 34.50647 52.72403 41.61680
#
# Poissons Ratio (x) = 0.66919 -0.08255
# Poissons Ratio (y) = 0.43797 0.50046
# Poissons Ratio (z) = -0.06844 0.63403
#
# Static dielectric constant tensor:
#      x y z
#    x 1.612190 0.000000 0.000000 
#    y 0.000000 1.658490 0.000000 
#    z 0.000000 0.000000 1.611980 
# 
# From -- ./inp_files/60147.got.cif
#   From: 2010.05.17/outbox.cif.g08.bks.cpg/sg74_31_cif.got.tgz:60147.got - 2010.06.03 17:57:02.
