data_PCOD9537550
_publ_section_title
;
Structure prediction by ZEFSAII (Michael W. Deem and Ramdas Pophale) SiO2 
 PCOD9537550
Probable space group: I M M A
;
_chemical_formula_sum "Si O2"
_cell_formula_units_Z 88
_cell_length_a 8.932799
_cell_length_b 21.078140
_cell_length_c 23.958637
_cell_angle_alpha 90.000000
_cell_angle_beta 90.000000
_cell_angle_gamma 90.000000
_cell_volume 4511.094804
_symmetry_space_group_name_H-M "I M M A"
_symmetry_group_IT_number 74
_symmetry_cell_setting 'orthorhombic'
loop_
_space_group_symop_operation_xyz
x,y,z
-x,1/2-y,z
x,-y,-z
-x,1/2+y,-z
-x,-y,-z
x,1/2+y,-z
-x,y,z
x,1/2-y,z
1/2+x,1/2+y,1/2+z
1/2-x,-y,1/2+z
1/2+x,1/2-y,1/2-z
1/2-x,y,1/2-z
1/2-x,1/2-y,1/2-z
1/2+x,y,1/2-z
1/2-x,1/2+y,1/2+z
1/2+x,-y,1/2+z
loop_
_atom_site_type_symbol
_atom_site_label
_atom_site_fract_x
_atom_site_fract_y
_atom_site_fract_z
Si Si1 0.833643 0.676263 0.802453
Si Si2 0.680625 0.000021 0.187511
Si Si3 0.821339 0.250000 0.690138
Si Si4 0.820230 0.325605 0.995346
Si Si5 0.822999 0.884355 0.604291
Si Si6 0.819675 0.872585 0.380916
O O1 0.854068 0.750000 0.789767
O O2 0.750000 0.645602 0.750000
O O3 0.725586 0.671860 0.854761
O O4 0.000000 0.649335 0.812409
O O5 0.500000 0.003606 0.194017
O O6 0.750000 0.001642 0.250000
O O7 0.718767 0.935186 0.154448
O O8 0.723624 0.055602 0.143213
O O9 0.750000 0.250000 0.750000
O O10 0.778205 0.187718 0.656419
O O11 0.000000 0.250000 0.695373
O O12 0.773630 0.250000 0.997560
O O13 0.758350 0.367118 0.046940
O O14 0.000000 0.325902 0.996414
O O15 0.759291 0.359651 0.939744
O O16 0.000000 0.888715 0.594819
O O17 0.000000 0.873398 0.389839
#
# Coordination Sequence:
#
# PCOD9537550 Si02
#       6
#    16  16   8  16  16  16
#     4  10  20  34  53  79 111 147 194 252 306 357
#     4  10  23  41  62  90 124 160 201 249 299 358
#     4  10  20  34  60  92 120 154 195 242 299 356
#     4  11  24  41  62  90 122 157 202 256 307 358
#     4  11  23  38  58  84 117 161 203 244 299 357
#     4  10  21  40  63  89 121 159 201 245 300 362
#
# _framework density 19.507459000000001
#
# number of rings (size 3 to 8) (size 9 to 14) (size 15 to 20)
#    0.000    1.636    0.909    3.273    0.000    9.455 
#    0.000    3.636    0.000    0.000    0.000    0.000 
#    0.000    0.000    0.000    0.000    0.000    0.000 
#
# Total GULP energy -245362.915249 kJ/mol
# GULP energy per Si atom -5576.429892 kJ/mol
# Density = 1.946306 g / cm^3
# Si number density = 19.507459 Si / 1000 Ang^3
#
#
#
# Elastic Constant Matrix: (Units=GPa)
#
#
# Indices 1 2 3 4 5 6 
#
# 1 42.1568 49.2401 57.2787 0.0000 0.0000 0.0000
# 2 49.2401 132.1954 79.2139 0.0000 0.0000 0.0000
# 3 57.2787 79.2139 210.3418 0.0000 0.0000 0.0000
# 4 0.0000 0.0000 0.0000 30.8072 0.0000 0.0000
# 5 0.0000 0.0000 0.0000 0.0000 40.5808 0.0000
# 6 0.0000 0.0000 0.0000 0.0000 0.0000 12.8445
#
#
#
# Elastic Compliance Matrix: (Units=1/GPa)
#
#
# Indices 1 2 3 4 5 6 
#
# 1 0.052411 -0.014167 -0.008937 0.000000 0.000000 0.000000
# 2 -0.014167 0.013598 -0.001263 0.000000 0.000000 0.000000
# 3 -0.008937 -0.001263 0.007664 0.000000 0.000000 0.000000
# 4 0.000000 0.000000 0.000000 0.032460 0.000000 0.000000
# 5 0.000000 0.000000 0.000000 0.000000 0.024642 0.000000
# 6 0.000000 0.000000 0.000000 0.000000 0.000000 0.077855
#
#
# Mechanical properties :
#
#
# Convention : Reuss Voigt Hill
#
# Bulk Modulus (GPa) = 40.09832 84.01772 62.05802
# Shear Modulus (GPa) = 18.81987 30.11059 24.46523
#
# Velocity S-wave (km/s) = 3.10942 3.93306 3.54524
# Velocity P-wave (km/s) = 5.78717 7.98676 6.97422
#
# Compressibility (1/GPa) = 0.02493870
#
# Stress axis : x y z
#
# Youngs Moduli (GPa) = 19.08000 73.53810 130.48737
#
# Poissons Ratio (x) = 1.04180 1.16616
# Poissons Ratio (y) = 0.27030 0.16485
# Poissons Ratio (z) = 0.17052 0.09290
#
# Static dielectric constant tensor:
#      x y z
#    x 1.712090 0.000000 0.000000 
#    y 0.000000 1.748620 0.000000 
#    z 0.000000 0.000000 -1.873760 
# 
# From -- ./inp_files/57013.got.cif
#   From: 2010.05.17/outbox.cif.g08.bks.cpg/sg74_29_cif.got.tgz:57013.got - 2010.06.03 17:57:02.
