data_PCOD9537249
_publ_section_title
;
Structure prediction by ZEFSAII (Michael W. Deem and Ramdas Pophale) SiO2 
 PCOD9537249
Probable space group: I M M A
;
_chemical_formula_sum "Si O2"
_cell_formula_units_Z 112
_cell_length_a 14.650826
_cell_length_b 16.180011
_cell_length_c 26.115463
_cell_angle_alpha 90.000000
_cell_angle_beta 90.000000
_cell_angle_gamma 90.000000
_cell_volume 6190.684237
_symmetry_space_group_name_H-M "I M M A"
_symmetry_group_IT_number 74
_symmetry_cell_setting 'orthorhombic'
loop_
_space_group_symop_operation_xyz
x,y,z
-x,1/2-y,z
x,-y,-z
-x,1/2+y,-z
-x,-y,-z
x,1/2+y,-z
-x,y,z
x,1/2-y,z
1/2+x,1/2+y,1/2+z
1/2-x,-y,1/2+z
1/2+x,1/2-y,1/2-z
1/2-x,y,1/2-z
1/2-x,1/2-y,1/2-z
1/2+x,y,1/2-z
1/2-x,1/2+y,1/2+z
1/2+x,-y,1/2+z
loop_
_atom_site_type_symbol
_atom_site_label
_atom_site_fract_x
_atom_site_fract_y
_atom_site_fract_z
Si Si1 0.895153 0.149862 0.504178
Si Si2 0.892300 0.998023 0.210690
Si Si3 0.290058 0.652641 0.905384
Si Si4 0.395755 0.883010 0.120652
Si Si5 0.396411 0.054625 0.176716
Si Si6 0.224785 0.159863 0.809945
Si Si7 0.603422 0.155164 0.362157
O O1 0.891449 0.250000 0.505076
O O2 0.835432 0.118219 0.456895
O O3 0.869488 0.122527 0.561202
O O4 0.000000 0.125235 0.494923
O O5 0.862702 0.019601 0.268804
O O6 0.884876 0.083424 0.179599
O O7 0.000000 0.975130 0.213459
O O8 0.836909 0.922544 0.185188
O O9 0.309045 0.750000 0.905370
O O10 0.332282 0.617570 0.852994
O O11 0.181727 0.641022 0.903654
O O12 0.500000 0.848596 0.126170
O O13 0.316772 0.845242 0.156180
O O14 0.401186 0.976833 0.139094
O O15 0.500000 0.087311 0.184246
O O16 0.180754 0.250000 0.821251
O O17 0.250000 0.160447 0.750000
O O18 0.500000 0.149428 0.381763
O O19 0.615378 0.250000 0.342361
#
# Coordination Sequence:
#
# PCOD9537249 Si02
#       7
#    16  16  16  16  16  16  16
#     4   9  18  33  52  75 105 138 172 213 264 321
#     4  10  21  38  56  76 110 146 178 227 273 314
#     4  10  20  33  52  77 106 138 173 220 268 316
#     4  10  20  35  54  78 109 143 177 217 266 320
#     4  10  20  33  51  75 105 141 178 217 264 319
#     4  11  22  34  54  81 107 140 183 225 263 316
#     4   9  19  35  56  81 106 139 182 222 268 323
#
# _framework density 18.091699999999999
#
# number of rings (size 3 to 8) (size 9 to 14) (size 15 to 20)
#    0.000    2.143    1.429    1.714    0.000    3.143 
#    0.000    6.429    0.000    0.857    0.000    5.000 
#    0.000    0.000    0.000    0.000    0.000    0.000 
#
# Total GULP energy -312067.591942 kJ/mol
# GULP energy per Si atom -5572.635570 kJ/mol
# Density = 1.805052 g / cm^3
# Si number density = 18.091700 Si / 1000 Ang^3
#
#
#
# Elastic Constant Matrix: (Units=GPa)
#
#
# Indices 1 2 3 4 5 6 
#
# 1 97.4659 49.4910 70.0993 0.0000 0.0000 0.0000
# 2 49.4910 60.3896 40.5932 0.0000 0.0000 0.0000
# 3 70.0993 40.5932 103.2255 0.0000 0.0000 0.0000
# 4 0.0000 0.0000 0.0000 19.6434 0.0000 0.0000
# 5 0.0000 0.0000 0.0000 0.0000 26.5232 0.0000
# 6 0.0000 0.0000 0.0000 0.0000 0.0000 18.1883
#
#
#
# Elastic Compliance Matrix: (Units=1/GPa)
#
#
# Indices 1 2 3 4 5 6 
#
# 1 0.025613 -0.012640 -0.012423 0.000000 0.000000 0.000000
# 2 -0.012640 0.028747 -0.002721 0.000000 0.000000 0.000000
# 3 -0.012423 -0.002721 0.019194 0.000000 0.000000 0.000000
# 4 0.000000 0.000000 0.000000 0.050908 0.000000 0.000000
# 5 0.000000 0.000000 0.000000 0.000000 0.037703 0.000000
# 6 0.000000 0.000000 0.000000 0.000000 0.000000 0.054980
#
#
# Mechanical properties :
#
#
# Convention : Reuss Voigt Hill
#
# Bulk Modulus (GPa) = 55.59865 64.60534 60.10199
# Shear Modulus (GPa) = 17.93989 19.59748 18.76868
#
# Velocity S-wave (km/s) = 3.15240 3.29482 3.22439
# Velocity P-wave (km/s) = 6.63690 7.08956 6.86696
#
# Compressibility (1/GPa) = 0.01798605
#
# Stress axis : x y z
#
# Youngs Moduli (GPa) = 39.04228 34.78602 52.10018
#
# Poissons Ratio (x) = 0.43970 0.64724
# Poissons Ratio (y) = 0.49351 0.14176
# Poissons Ratio (z) = 0.48502 0.09465
#
# Static dielectric constant tensor:
#      x y z
#    x 1.660250 0.000000 0.000000 
#    y 0.000000 1.652640 0.000000 
#    z 0.000000 0.000000 1.597350 
# 
# From -- ./inp_files/60149.got.cif
#   From: 2010.05.17/outbox.cif.g08.bks.cpg/sg74_31_cif.got.tgz:60149.got - 2010.06.03 17:57:02.
