data_PCOD9537564
_publ_section_title
;
Structure prediction by ZEFSAII (Michael W. Deem and Ramdas Pophale) SiO2 
 PCOD9537564
Probable space group: I M M A
;
_chemical_formula_sum "Si O2"
_cell_formula_units_Z 104
_cell_length_a 18.798450
_cell_length_b 7.454499
_cell_length_c 32.541688
_cell_angle_alpha 90.000000
_cell_angle_beta 90.000000
_cell_angle_gamma 90.000000
_cell_volume 4560.165234
_symmetry_space_group_name_H-M "I M M A"
_symmetry_group_IT_number 74
_symmetry_cell_setting 'orthorhombic'
loop_
_space_group_symop_operation_xyz
x,y,z
-x,1/2-y,z
x,-y,-z
-x,1/2+y,-z
-x,-y,-z
x,1/2+y,-z
-x,y,z
x,1/2-y,z
1/2+x,1/2+y,1/2+z
1/2-x,-y,1/2+z
1/2+x,1/2-y,1/2-z
1/2-x,y,1/2-z
1/2-x,1/2-y,1/2-z
1/2+x,y,1/2-z
1/2-x,1/2+y,1/2+z
1/2+x,-y,1/2+z
loop_
_atom_site_type_symbol
_atom_site_label
_atom_site_fract_x
_atom_site_fract_y
_atom_site_fract_z
Si Si1 0.670647 0.469434 0.738249
Si Si2 0.422103 0.041891 0.433637
Si Si3 0.580265 0.465087 0.815807
Si Si4 0.500000 0.035105 0.048445
Si Si5 0.229950 0.535532 0.954611
Si Si6 0.639390 0.536063 0.903864
Si Si7 0.919982 0.033383 0.837933
O O1 0.670931 0.250000 0.737600
O O2 0.750000 0.526714 0.750000
O O3 0.617571 0.528379 0.774321
O O4 0.639369 0.527234 0.694338
O O5 0.500000 0.962042 0.443224
O O6 0.425207 0.250000 0.446371
O O7 0.349987 0.960279 0.451515
O O8 0.412853 0.035908 0.384210
O O9 0.500000 0.534386 0.821169
O O10 0.576000 0.250000 0.812628
O O11 0.626191 0.504740 0.856038
O O12 0.500000 0.250000 0.053993
O O13 0.428825 0.965732 0.070802
O O14 0.500000 0.000000 0.000000
O O15 0.223709 0.750000 0.948769
O O16 0.286185 0.465552 0.921449
O O17 0.259094 0.500000 0.000000
O O18 0.640845 0.750000 0.910449
O O19 0.916824 0.250000 0.840355
O O20 0.000000 0.986603 0.823208
#
# Coordination Sequence:
#
# PCOD9537564 Si02
#       7
#    16  16  16   8  16  16  16
#     4   9  18  31  49  76 108 139 172 215 263 306
#     4   9  19  36  56  78 107 140 172 212 266 322
#     4  10  20  34  54  80 107 140 182 222 261 310
#     4  10  20  34  54  76 102 136 174 216 260 308
#     4  10  22  38  56  79 107 139 174 217 267 318
#     4  10  21  37  54  76 108 143 176 216 268 316
#     4   9  17  31  52  76 102 135 174 214 254 301
#
# _framework density 22.806190999999998
#
# number of rings (size 3 to 8) (size 9 to 14) (size 15 to 20)
#    0.000    2.462    0.769    0.923    2.154    4.000 
#    0.000    0.769    0.000    2.769    0.000    0.000 
#    0.000    0.000    0.000    0.000    0.000    0.000 
#
# Total GULP energy -290532.922998 kJ/mol
# GULP energy per Si atom -5587.171596 kJ/mol
# Density = 2.275428 g / cm^3
# Si number density = 22.806191 Si / 1000 Ang^3
#
#
#
# Elastic Constant Matrix: (Units=GPa)
#
#
# Indices 1 2 3 4 5 6 
#
# 1 109.6621 12.8126 14.9813 0.0000 0.0000 0.0000
# 2 12.8126 69.9571 -12.3358 0.0000 0.0000 0.0000
# 3 14.9813 -12.3358 52.8342 0.0000 0.0000 0.0000
# 4 0.0000 0.0000 0.0000 11.1052 0.0000 0.0000
# 5 0.0000 0.0000 0.0000 0.0000 35.8982 0.0000
# 6 0.0000 0.0000 0.0000 0.0000 0.0000 -7.9169
#
#
#
# Elastic Compliance Matrix: (Units=1/GPa)
#
#
# Indices 1 2 3 4 5 6 
#
# 1 0.009857 -0.002397 -0.003355 0.000000 0.000000 0.000000
# 2 -0.002397 0.015491 0.004297 0.000000 0.000000 0.000000
# 3 -0.003355 0.004297 0.020882 0.000000 0.000000 0.000000
# 4 0.000000 0.000000 0.000000 0.090048 0.000000 0.000000
# 5 0.000000 0.000000 0.000000 0.000000 0.027857 0.000000
# 6 0.000000 0.000000 0.000000 0.000000 0.000000 -0.126312
#
#
# Mechanical properties :
#
#
# Convention : Reuss Voigt Hill
#
# Bulk Modulus (GPa) = 23.08413 29.26327 26.17370
# Shear Modulus (GPa) = 90.62503 22.28365 56.45434
#
# Velocity S-wave (km/s) = 6.31057 3.12923 4.98073
# Velocity P-wave (km/s) = 7.95246 5.09070 6.67671
#
# Compressibility (1/GPa) = 0.04331980
#
# Stress axis : x y z
#
# Youngs Moduli (GPa) = 101.44808 64.55320 47.88921
#
# Poissons Ratio (x) = 0.15473 0.16065
# Poissons Ratio (y) = 0.24316 -0.20576
# Poissons Ratio (z) = 0.34033 -0.27735
#
# Static dielectric constant tensor:
#      x y z
#    x 1.867310 0.000000 0.000000 
#    y 0.000000 1.873450 0.000000 
#    z 0.000000 0.000000 1.781490 
# 
# From -- ./inp_files/67765.got.cif
#   From: 2010.05.17/outbox.cif.g08.bks.cpg/sg74_34_cif.got.tgz:67765.got - 2010.06.03 17:57:02.
