data_PCOD9537662
_publ_section_title
;
Structure prediction by ZEFSAII (Michael W. Deem and Ramdas Pophale) SiO2 
 PCOD9537662
Probable space group: I M M A
;
_chemical_formula_sum "Si O2"
_cell_formula_units_Z 72
_cell_length_a 8.457021
_cell_length_b 29.485922
_cell_length_c 13.979625
_cell_angle_alpha 90.000000
_cell_angle_beta 90.000000
_cell_angle_gamma 90.000000
_cell_volume 3486.002089
_symmetry_space_group_name_H-M "I M M A"
_symmetry_group_IT_number 74
_symmetry_cell_setting 'orthorhombic'
loop_
_space_group_symop_operation_xyz
x,y,z
-x,1/2-y,z
x,-y,-z
-x,1/2+y,-z
-x,-y,-z
x,1/2+y,-z
-x,y,z
x,1/2-y,z
1/2+x,1/2+y,1/2+z
1/2-x,-y,1/2+z
1/2+x,1/2-y,1/2-z
1/2-x,y,1/2-z
1/2-x,1/2-y,1/2-z
1/2+x,y,1/2-z
1/2-x,1/2+y,1/2+z
1/2+x,-y,1/2+z
loop_
_atom_site_type_symbol
_atom_site_label
_atom_site_fract_x
_atom_site_fract_y
_atom_site_fract_z
Si Si1 0.188984 0.303273 0.144298
Si Si2 0.184980 0.938852 0.056482
Si Si3 0.690797 0.750000 0.143010
Si Si4 0.186079 0.971781 0.644079
Si Si5 0.812282 0.842644 0.456147
O O1 0.228001 0.250000 0.125453
O O2 0.250000 0.313623 0.250000
O O3 0.000000 0.308258 0.138737
O O4 0.272671 0.334649 0.067126
O O5 0.280986 0.975370 0.118673
O O6 0.227772 0.887480 0.081246
O O7 0.000000 0.947972 0.069550
O O8 0.229829 0.946503 0.944707
O O9 0.500000 0.750000 0.138345
O O10 0.750000 0.750000 0.250000
O O11 0.745142 0.796299 0.093182
O O12 0.250000 0.961293 0.750000
O O13 0.000000 0.962470 0.639726
O O14 0.000000 0.847471 0.443005
#
# Coordination Sequence:
#
# PCOD9537662 Si02
#       5
#    16  16   8  16  16
#     4  10  20  34  55  83 114 152 195 243 297 358
#     4  11  23  40  62  93 125 160 202 251 303 365
#     4  10  24  42  63  86 117 158 205 254 302 350
#     4  11  22  41  66  93 124 161 199 248 303 365
#     4  11  22  40  61  87 121 161 204 254 304 358
#
# _framework density 20.654032000000001
#
# number of rings (size 3 to 8) (size 9 to 14) (size 15 to 20)
#    0.000    1.333    1.111    6.667    0.000    4.444 
#    0.000    6.667    0.000    0.000    0.000    0.000 
#    0.000    0.000    0.000    0.000    0.000    0.000 
#
# Total GULP energy -201352.280451 kJ/mol
# GULP energy per Si atom -5593.118901 kJ/mol
# Density = 2.060702 g / cm^3
# Si number density = 20.654032 Si / 1000 Ang^3
#
#
#
# Elastic Constant Matrix: (Units=GPa)
#
#
# Indices 1 2 3 4 5 6 
#
# 1 43.5208 -8.2637 -15.1415 0.0000 0.0000 0.0000
# 2 -8.2637 85.3897 -6.7721 -0.0001 0.0000 0.0000
# 3 -15.1415 -6.7721 42.1387 0.0001 0.0000 0.0000
# 4 0.0000 -0.0001 0.0001 -4.6378 0.0000 0.0000
# 5 0.0000 0.0000 0.0000 0.0000 34.2509 0.0000
# 6 0.0000 0.0000 0.0000 0.0000 0.0000 27.3872
#
#
#
# Elastic Compliance Matrix: (Units=1/GPa)
#
#
# Indices 1 2 3 4 5 6 
#
# 1 0.027231 0.003455 0.010340 0.000000 0.000000 0.000000
# 2 0.003455 0.012301 0.003218 0.000000 0.000000 0.000000
# 3 0.010340 0.003218 0.027964 0.000001 0.000000 0.000000
# 4 0.000000 0.000000 0.000001 -0.215618 0.000000 0.000000
# 5 0.000000 0.000000 0.000000 0.000000 0.029196 0.000000
# 6 0.000000 0.000000 0.000000 0.000000 0.000000 0.036513
#
#
# Mechanical properties :
#
#
# Convention : Reuss Voigt Hill
#
# Bulk Modulus (GPa) = 9.84992 12.29939 11.07465
# Shear Modulus (GPa) = -60.53342 24.81516 -17.85913
#
# Velocity S-wave (km/s) = -5.41959 3.46998 -2.94373
# Velocity P-wave (km/s) = 5.86372 4.69279 2.48606
#
# Compressibility (1/GPa) = 0.10152371
#
# Stress axis : x y z
#
# Youngs Moduli (GPa) = 36.72267 81.29645 35.76040
#
# Poissons Ratio (x) = -0.28091 -0.36977
# Poissons Ratio (y) = -0.12689 -0.11509
# Poissons Ratio (z) = -0.37972 -0.26165
#
# Static dielectric constant tensor:
#      x y z
#    x 1.688500 0.000000 0.000000 
#    y 0.000000 1.766120 0.000000 
#    z 0.000000 0.000000 1.707220 
# 
# From -- ./inp_files/29366.got.cif
#   From: 2010.05.17/outbox.cif.g08.bks.cpg/sg74_15_cif.got.tgz:29366.got - 2010.06.03 17:57:02.
