data_PCOD9537105
_publ_section_title
;
Structure prediction by ZEFSAII (Michael W. Deem and Ramdas Pophale) SiO2 
 PCOD9537105
Probable space group: I M M A
;
_chemical_formula_sum "Si O2"
_cell_formula_units_Z 96
_cell_length_a 26.690464
_cell_length_b 14.122326
_cell_length_c 15.085717
_cell_angle_alpha 90.000000
_cell_angle_beta 90.000000
_cell_angle_gamma 90.000000
_cell_volume 5686.280937
_symmetry_space_group_name_H-M "I M M A"
_symmetry_group_IT_number 74
_symmetry_cell_setting 'orthorhombic'
loop_
_space_group_symop_operation_xyz
x,y,z
-x,1/2-y,z
x,-y,-z
-x,1/2+y,-z
-x,-y,-z
x,1/2+y,-z
-x,y,z
x,1/2-y,z
1/2+x,1/2+y,1/2+z
1/2-x,-y,1/2+z
1/2+x,1/2-y,1/2-z
1/2-x,y,1/2-z
1/2-x,1/2-y,1/2-z
1/2+x,y,1/2-z
1/2-x,1/2+y,1/2+z
1/2+x,-y,1/2+z
loop_
_atom_site_type_symbol
_atom_site_label
_atom_site_fract_x
_atom_site_fract_y
_atom_site_fract_z
Si Si1 0.266352 0.960178 0.342550
Si Si2 0.864680 0.455417 0.212163
Si Si3 0.441015 0.943696 0.407644
Si Si4 0.271810 0.750000 0.384536
Si Si5 0.220799 0.250000 0.423094
Si Si6 0.165582 0.750000 0.854405
Si Si7 0.617272 0.750000 0.447745
Si Si8 0.171242 0.547072 0.588319
O O1 0.250000 0.005612 0.250000
O O2 0.258694 0.848704 0.340837
O O3 0.323525 0.989681 0.349296
O O4 0.226316 0.000154 0.408835
O O5 0.916054 0.495179 0.171612
O O6 0.852839 0.345088 0.194404
O O7 0.856117 0.474949 0.317348
O O8 0.500000 0.930336 0.391703
O O9 0.414086 0.843128 0.423296
O O10 0.434670 0.000000 0.500000
O O11 0.244511 0.750000 0.479031
O O12 0.331450 0.750000 0.393157
O O13 0.272978 0.250000 0.364694
O O14 0.185528 0.341955 0.413344
O O15 0.138011 0.750000 0.950700
O O16 0.146873 0.500000 0.500000
#
# Coordination Sequence:
#
# PCOD9537105 Si02
#       8
#    16  16  16   8   8   8   8  16
#     4  10  20  32  50  73 108 149 185 220 265 323
#     4  11  22  37  56  80 111 150 191 231 278 333
#     4  11  23  40  60  82 110 141 179 229 289 343
#     4  11  19  30  51  76 111 146 183 222 268 320
#     4  11  21  31  52  78 112 156 190 230 267 320
#     4  11  21  33  56  82 112 151 189 225 275 335
#     4  11  21  34  57  84 112 145 178 224 282 337
#     4  11  22  36  52  78 114 154 195 230 269 320
#
# _framework density 16.882739999999998
#
# number of rings (size 3 to 8) (size 9 to 14) (size 15 to 20)
#    0.000    1.167    6.667    1.000    0.000    1.333 
#    0.000    1.250    0.000    0.500    0.000    0.000 
#    0.000    0.000    0.000    0.000    0.000    0.000 
#
# Total GULP energy -267332.005430 kJ/mol
# GULP energy per Si atom -5569.416780 kJ/mol
# Density = 1.684431 g / cm^3
# Si number density = 16.882740 Si / 1000 Ang^3
#
#
#
# Elastic Constant Matrix: (Units=GPa)
#
#
# Indices 1 2 3 4 5 6 
#
# 1 40.4621 2.7196 32.8035 0.0000 0.0000 0.0000
# 2 2.7196 103.5126 26.6542 0.0000 0.0000 0.0000
# 3 32.8035 26.6542 110.0807 0.0000 0.0000 0.0000
# 4 0.0000 0.0000 0.0000 21.0382 0.0000 0.0000
# 5 0.0000 0.0000 0.0000 0.0000 3.8353 0.0000
# 6 0.0000 0.0000 0.0000 0.0000 0.0000 12.6284
#
#
#
# Elastic Compliance Matrix: (Units=1/GPa)
#
#
# Indices 1 2 3 4 5 6 
#
# 1 0.032889 0.001770 -0.010229 0.000000 0.000000 0.000000
# 2 0.001770 0.010398 -0.003045 0.000000 0.000000 0.000000
# 3 -0.010229 -0.003045 0.012870 0.000000 0.000000 0.000000
# 4 0.000000 0.000000 0.000000 0.047533 0.000000 0.000000
# 5 0.000000 0.000000 0.000000 0.000000 0.260737 0.000000
# 6 0.000000 0.000000 0.000000 0.000000 0.000000 0.079187
#
#
# Mechanical properties :
#
#
# Convention : Reuss Voigt Hill
#
# Bulk Modulus (GPa) = 30.16799 42.04556 36.10677
# Shear Modulus (GPa) = 10.46745 20.29224 15.37985
#
# Velocity S-wave (km/s) = 2.49270 3.47068 3.02152
# Velocity P-wave (km/s) = 5.11788 6.40463 5.79707
#
# Compressibility (1/GPa) = 0.03314772
#
# Stress axis : x y z
#
# Youngs Moduli (GPa) = 30.40573 96.16969 77.70109
#
# Poissons Ratio (x) = -0.17021 0.79482
# Poissons Ratio (y) = -0.05381 0.23661
# Poissons Ratio (z) = 0.31103 0.29286
#
# Static dielectric constant tensor:
#      x y z
#    x 1.574780 0.000000 0.000000 
#    y 0.000000 1.679330 0.000000 
#    z 0.000000 0.000000 1.610240 
# 
# From -- ./inp_files/36452.got.cif
#   From: 2010.05.17/outbox.cif.g08.bks.cpg/sg74_19_cif.got.tgz:36452.got - 2010.06.03 17:57:02.
