data_PCOD9537490
_publ_section_title
;
Structure prediction by ZEFSAII (Michael W. Deem and Ramdas Pophale) SiO2 
 PCOD9537490
Probable space group: I M M A
;
_chemical_formula_sum "Si O2"
_cell_formula_units_Z 104
_cell_length_a 17.381053
_cell_length_b 26.416040
_cell_length_c 13.203414
_cell_angle_alpha 90.000000
_cell_angle_beta 90.000000
_cell_angle_gamma 90.000000
_cell_volume 6062.196904
_symmetry_space_group_name_H-M "I M M A"
_symmetry_group_IT_number 74
_symmetry_cell_setting 'orthorhombic'
loop_
_space_group_symop_operation_xyz
x,y,z
-x,1/2-y,z
x,-y,-z
-x,1/2+y,-z
-x,-y,-z
x,1/2+y,-z
-x,y,z
x,1/2-y,z
1/2+x,1/2+y,1/2+z
1/2-x,-y,1/2+z
1/2+x,1/2-y,1/2-z
1/2-x,y,1/2-z
1/2-x,1/2-y,1/2-z
1/2+x,y,1/2-z
1/2-x,1/2+y,1/2+z
1/2+x,-y,1/2+z
loop_
_atom_site_type_symbol
_atom_site_label
_atom_site_fract_x
_atom_site_fract_y
_atom_site_fract_z
Si Si1 0.590293 0.587180 0.397638
Si Si2 0.659005 0.807539 0.369240
Si Si3 0.299974 0.557152 0.840215
Si Si4 0.156971 0.692926 0.371886
Si Si5 0.589284 0.532372 0.191245
Si Si6 0.808670 0.000000 0.000000
Si Si7 0.409962 0.102199 0.999379
O O1 0.500000 0.581824 0.419153
O O2 0.617309 0.644442 0.418059
O O3 0.602581 0.573827 0.278552
O O4 0.639097 0.545072 0.455937
O O5 0.638797 0.750000 0.402172
O O6 0.750867 0.814104 0.383100
O O7 0.642127 0.810251 0.248604
O O8 0.250000 0.580888 0.750000
O O9 0.356626 0.515234 0.792508
O O10 0.244430 0.525819 0.914999
O O11 0.352791 0.593894 0.907251
O O12 0.137835 0.750000 0.404045
O O13 0.111457 0.652168 0.436607
O O14 0.500000 0.517276 0.196665
O O15 0.602834 0.556564 0.081050
O O16 0.500000 0.101791 0.027831
#
# Coordination Sequence:
#
# PCOD9537490 Si02
#       7
#    16  16  16  16  16   8  16
#     4  11  22  35  51  77 114 150 183 223 267 322
#     4   9  18  32  53  80 112 149 181 216 266 327
#     4  12  23  36  54  77 102 141 187 231 270 328
#     4   9  18  32  53  82 112 140 176 220 271 332
#     4  10  20  34  52  78 111 142 175 221 275 324
#     4  12  23  36  55  76 104 150 192 224 265 328
#     4  11  21  35  55  81 111 144 180 228 282 333
#
# _framework density 17.155498000000001
#
# number of rings (size 3 to 8) (size 9 to 14) (size 15 to 20)
#    0.000    1.538    4.615    2.538    0.000    1.846 
#    0.000    1.538    0.000    0.462    0.000    0.000 
#    0.000    2.462    0.000    0.000    0.000    0.000 
#
# Total GULP energy -290209.858267 kJ/mol
# GULP energy per Si atom -5580.958813 kJ/mol
# Density = 1.711645 g / cm^3
# Si number density = 17.155498 Si / 1000 Ang^3
#
#
#
# Elastic Constant Matrix: (Units=GPa)
#
#
# Indices 1 2 3 4 5 6 
#
# 1 55.5802 47.6033 35.4756 0.0000 0.0000 0.0000
# 2 47.6033 86.0705 20.4638 0.0000 0.0000 0.0000
# 3 35.4756 20.4638 52.3621 -0.0002 -0.0001 0.0000
# 4 0.0000 0.0000 -0.0002 25.1462 0.0000 0.0000
# 5 0.0000 0.0000 -0.0001 0.0000 21.0767 0.0000
# 6 0.0000 0.0000 0.0000 0.0000 0.0000 19.6100
#
#
#
# Elastic Compliance Matrix: (Units=1/GPa)
#
#
# Indices 1 2 3 4 5 6 
#
# 1 0.058944 -0.025473 -0.029980 0.000000 0.000000 0.000000
# 2 -0.025473 0.023816 0.007950 0.000000 0.000000 0.000000
# 3 -0.029980 0.007950 0.036302 0.000000 0.000000 0.000000
# 4 0.000000 0.000000 0.000000 0.039767 0.000000 0.000000
# 5 0.000000 0.000000 0.000000 0.000000 0.047446 0.000000
# 6 0.000000 0.000000 0.000000 0.000000 0.000000 0.050994
#
#
# Mechanical properties :
#
#
# Convention : Reuss Voigt Hill
#
# Bulk Modulus (GPa) = 41.56628 44.56648 43.06638
# Shear Modulus (GPa) = 13.87749 19.19792 16.53770
#
# Velocity S-wave (km/s) = 2.84724 3.34885 3.10818
# Velocity P-wave (km/s) = 5.92375 6.40214 6.16759
#
# Compressibility (1/GPa) = 0.02405796
#
# Stress axis : x y z
#
# Youngs Moduli (GPa) = 16.96511 41.98772 27.54636
#
# Poissons Ratio (x) = 1.06954 0.82584
# Poissons Ratio (y) = 0.43215 -0.21900
# Poissons Ratio (z) = 0.50862 -0.33380
#
# Static dielectric constant tensor:
#      x y z
#    x 1.586820 0.000000 0.000000 
#    y 0.000000 1.577960 0.000000 
#    z 0.000000 0.000000 1.586930 
# 
# From -- ./inp_files/22778.got.cif
#   From: 2010.05.17/outbox.cif.g08.bks.cpg/sg74_12_cif.got.tgz:22778.got - 2010.06.03 17:57:02.
