data_PCOD9537071
_publ_section_title
;
Structure prediction by ZEFSAII (Michael W. Deem and Ramdas Pophale) SiO2 
 PCOD9537071
Probable space group: I M M A
;
_chemical_formula_sum "Si O2"
_cell_formula_units_Z 104
_cell_length_a 23.278026
_cell_length_b 7.703724
_cell_length_c 34.611576
_cell_angle_alpha 90.000000
_cell_angle_beta 90.000000
_cell_angle_gamma 90.000000
_cell_volume 6206.806965
_symmetry_space_group_name_H-M "I M M A"
_symmetry_group_IT_number 74
_symmetry_cell_setting 'orthorhombic'
loop_
_space_group_symop_operation_xyz
x,y,z
-x,1/2-y,z
x,-y,-z
-x,1/2+y,-z
-x,-y,-z
x,1/2+y,-z
-x,y,z
x,1/2-y,z
1/2+x,1/2+y,1/2+z
1/2-x,-y,1/2+z
1/2+x,1/2-y,1/2-z
1/2-x,y,1/2-z
1/2-x,1/2-y,1/2-z
1/2+x,y,1/2-z
1/2-x,1/2+y,1/2+z
1/2+x,-y,1/2+z
loop_
_atom_site_type_symbol
_atom_site_label
_atom_site_fract_x
_atom_site_fract_y
_atom_site_fract_z
Si Si1 0.339109 0.052409 0.832022
Si Si2 0.728497 0.250000 0.206472
Si Si3 0.251268 0.447957 0.596772
Si Si4 0.430461 0.056326 0.542470
Si Si5 0.432143 0.750000 0.602585
Si Si6 0.181854 0.750000 0.863746
Si Si7 0.934436 0.962141 0.389560
Si Si8 0.847828 0.041946 0.544390
O O1 0.344422 0.250000 0.817229
O O2 0.296287 0.058858 0.868953
O O3 0.399037 0.991701 0.850984
O O4 0.310485 0.917941 0.802976
O O5 0.750000 0.250000 0.250000
O O6 0.782026 0.250000 0.176092
O O7 0.271562 0.250000 0.590463
O O8 0.297800 0.582197 0.611914
O O9 0.214470 0.515511 0.560257
O O10 0.500000 0.062797 0.539481
O O11 0.409994 0.250000 0.551653
O O12 0.409116 0.000000 0.500000
O O13 0.419531 0.915326 0.575226
O O14 0.500000 0.750000 0.612581
O O15 0.387014 0.750000 0.637558
O O16 0.934620 0.750000 0.390449
O O17 0.897792 0.022370 0.426785
O O18 0.000000 0.021282 0.390130
O O19 0.846768 0.250000 0.548558
O O20 0.857746 0.000000 0.500000
#
# Coordination Sequence:
#
# PCOD9537071 Si02
#       8
#    16   8  16  16   8   8  16  16
#     4   8  15  30  51  73  98 127 154 190 244 290
#     4  10  20  34  55  81 102 116 150 203 247 298
#     4   8  16  31  48  66  88 121 165 205 240 283
#     4   9  15  26  46  67  90 122 157 195 231 263
#     4  10  20  32  48  72  97 126 163 194 235 293
#     4  10  20  34  54  71  91 126 157 191 242 295
#     4   8  14  27  46  67  94 132 174 206 235 280
#     4   9  17  27  42  61  89 130 167 212 261 285
#
# _framework density 16.755797000000001
#
# number of rings (size 3 to 8) (size 9 to 14) (size 15 to 20)
#    0.000    3.231    0.769    1.846    1.077    1.231 
#    1.385    1.154    0.000    0.923    0.000    0.000 
#    0.000    0.000    0.000    0.000    0.000    0.000 
#
# Total GULP energy -289521.217796 kJ/mol
# GULP energy per Si atom -5567.715727 kJ/mol
# Density = 1.671766 g / cm^3
# Si number density = 16.755797 Si / 1000 Ang^3
#
#
#
# Elastic Constant Matrix: (Units=GPa)
#
#
# Indices 1 2 3 4 5 6 
#
# 1 94.5945 29.1936 53.4448 0.0000 0.0000 0.0000
# 2 29.1936 81.1640 34.8873 0.0000 0.0000 0.0000
# 3 53.4448 34.8873 93.2003 0.0000 0.0000 0.0000
# 4 0.0000 0.0000 0.0000 13.7264 0.0000 0.0000
# 5 0.0000 0.0000 0.0000 0.0000 16.6882 0.0000
# 6 0.0000 0.0000 0.0000 0.0000 0.0000 8.1156
#
#
#
# Elastic Compliance Matrix: (Units=1/GPa)
#
#
# Indices 1 2 3 4 5 6 
#
# 1 0.015947 -0.002151 -0.008339 0.000000 0.000000 0.000000
# 2 -0.002151 0.014973 -0.004371 0.000000 0.000000 0.000000
# 3 -0.008339 -0.004371 0.017148 0.000000 0.000000 0.000000
# 4 0.000000 0.000000 0.000000 0.072852 0.000000 0.000000
# 5 0.000000 0.000000 0.000000 0.000000 0.059923 0.000000
# 6 0.000000 0.000000 0.000000 0.000000 0.000000 0.123219
#
#
# Mechanical properties :
#
#
# Convention : Reuss Voigt Hill
#
# Bulk Modulus (GPa) = 54.51230 56.00115 55.25673
# Shear Modulus (GPa) = 14.71015 17.80158 16.25587
#
# Velocity S-wave (km/s) = 2.96618 3.26300 3.11812
# Velocity P-wave (km/s) = 6.65845 6.90585 6.78328
#
# Compressibility (1/GPa) = 0.01834448
#
# Stress axis : x y z
#
# Youngs Moduli (GPa) = 62.70761 66.78467 58.31589
#
# Poissons Ratio (x) = 0.14368 0.48632
# Poissons Ratio (y) = 0.13491 0.25492
# Poissons Ratio (z) = 0.52294 0.29194
#
# Static dielectric constant tensor:
#      x y z
#    x 1.588500 0.000000 0.000000 
#    y 0.000000 1.603870 0.000000 
#    z 0.000000 0.000000 1.535150 
# 
# From -- ./inp_files/73725.got.cif
#   From: 2010.05.17/outbox.cif.g08.bks.cpg/sg74_37_cif.got.tgz:73725.got - 2010.06.03 17:57:02.
