data_PCOD9537420
_publ_section_title
;
Structure prediction by ZEFSAII (Michael W. Deem and Ramdas Pophale) SiO2 
 PCOD9537420
Probable space group: I M M A
;
_chemical_formula_sum "Si O2"
_cell_formula_units_Z 96
_cell_length_a 8.446438
_cell_length_b 19.786587
_cell_length_c 32.855468
_cell_angle_alpha 90.000000
_cell_angle_beta 90.000000
_cell_angle_gamma 90.000000
_cell_volume 5491.008870
_symmetry_space_group_name_H-M "I M M A"
_symmetry_group_IT_number 74
_symmetry_cell_setting 'orthorhombic'
loop_
_space_group_symop_operation_xyz
x,y,z
-x,1/2-y,z
x,-y,-z
-x,1/2+y,-z
-x,-y,-z
x,1/2+y,-z
-x,y,z
x,1/2-y,z
1/2+x,1/2+y,1/2+z
1/2-x,-y,1/2+z
1/2+x,1/2-y,1/2-z
1/2-x,y,1/2-z
1/2-x,1/2-y,1/2-z
1/2+x,y,1/2-z
1/2-x,1/2+y,1/2+z
1/2+x,-y,1/2+z
loop_
_atom_site_type_symbol
_atom_site_label
_atom_site_fract_x
_atom_site_fract_y
_atom_site_fract_z
Si Si1 0.310632 0.526593 0.704877
Si Si2 0.186912 0.035512 0.378215
Si Si3 0.689044 0.038136 0.541717
Si Si4 0.691413 0.821019 0.704062
Si Si5 0.689916 0.826976 0.584889
Si Si6 0.189872 0.172219 0.506772
O O1 0.500000 0.525393 0.707034
O O2 0.250000 0.505842 0.750000
O O3 0.256399 0.496762 0.661611
O O4 0.251016 0.603468 0.696265
O O5 0.251258 0.111756 0.387218
O O6 0.000000 0.039698 0.373513
O O7 0.231809 0.994739 0.418973
O O8 0.500000 0.030467 0.545440
O O9 0.735804 0.116082 0.535758
O O10 0.738875 0.000000 0.500000
O O11 0.500000 0.822996 0.701092
O O12 0.741512 0.750000 0.683469
O O13 0.750000 0.814089 0.750000
O O14 0.500000 0.827383 0.586986
O O15 0.743915 0.750000 0.594056
O O16 0.744913 0.840530 0.538745
O O17 0.229482 0.250000 0.517265
O O18 0.000000 0.165557 0.506205
#
# Coordination Sequence:
#
# PCOD9537420 Si02
#       6
#    16  16  16  16  16  16
#     4  10  20  35  52  70  96 129 171 218 268 320
#     4  12  24  36  53  76 104 138 179 224 273 322
#     4  11  22  36  56  80 108 143 181 220 265 315
#     4   8  14  25  42  62  83 112 152 200 252 301
#     4  10  20  34  51  72 101 138 180 224 268 316
#     4  10  20  34  54  80 109 141 176 216 263 315
#
# _framework density 17.483127
#
# number of rings (size 3 to 8) (size 9 to 14) (size 15 to 20)
#    0.000    1.833    1.667    3.500    0.000    4.000 
#    0.000    1.667    0.000    2.000    0.000    0.000 
#    0.000    0.667    0.000    2.500    0.000    3.833 
#
# Total GULP energy -267415.541592 kJ/mol
# GULP energy per Si atom -5571.157116 kJ/mol
# Density = 1.744333 g / cm^3
# Si number density = 17.483127 Si / 1000 Ang^3
#
#
#
# Elastic Constant Matrix: (Units=GPa)
#
#
# Indices 1 2 3 4 5 6 
#
# 1 48.6502 3.2768 19.2292 0.0000 0.0000 0.0000
# 2 3.2768 39.4868 17.6369 0.0000 0.0000 0.0000
# 3 19.2292 17.6369 103.5589 0.0000 0.0000 0.0000
# 4 0.0000 0.0000 0.0000 9.6443 0.0000 0.0000
# 5 0.0000 0.0000 0.0000 0.0000 22.6960 0.0000
# 6 0.0000 0.0000 0.0000 0.0000 0.0000 20.9377
#
#
#
# Elastic Compliance Matrix: (Units=1/GPa)
#
#
# Indices 1 2 3 4 5 6 
#
# 1 0.022183 -0.000001 -0.004119 0.000000 0.000000 0.000000
# 2 -0.000001 0.027410 -0.004668 0.000000 0.000000 0.000000
# 3 -0.004119 -0.004668 0.011216 0.000000 0.000000 0.000000
# 4 0.000000 0.000000 0.000000 0.103688 0.000000 0.000000
# 5 0.000000 0.000000 0.000000 0.000000 0.044061 0.000000
# 6 0.000000 0.000000 0.000000 0.000000 0.000000 0.047761
#
#
# Mechanical properties :
#
#
# Convention : Reuss Voigt Hill
#
# Bulk Modulus (GPa) = 23.13035 30.22018 26.67527
# Shear Modulus (GPa) = 17.34274 20.75914 19.05094
#
# Velocity S-wave (km/s) = 3.15297 3.44958 3.30461
# Velocity P-wave (km/s) = 5.14916 5.76099 5.46364
#
# Compressibility (1/GPa) = 0.04323324
#
# Stress axis : x y z
#
# Youngs Moduli (GPa) = 45.07964 36.48306 89.15743
#
# Poissons Ratio (x) = 0.00004 0.36722
# Poissons Ratio (y) = 0.00005 0.41618
# Poissons Ratio (z) = 0.18567 0.17030
#
# Static dielectric constant tensor:
#      x y z
#    x 1.565670 0.000000 0.000000 
#    y 0.000000 1.658420 0.000000 
#    z 0.000000 0.000000 1.635030 
# 
# From -- ./inp_files/64308.got.cif
#   From: 2010.05.17/outbox.cif.g08.bks.cpg/sg74_33_cif.got.tgz:64308.got - 2010.06.03 17:57:02.
