data_PCOD9537417
_publ_section_title
;
Structure prediction by ZEFSAII (Michael W. Deem and Ramdas Pophale) SiO2 
 PCOD9537417
Probable space group: I M M A
;
_chemical_formula_sum "Si O2"
_cell_formula_units_Z 80
_cell_length_a 17.601542
_cell_length_b 10.275777
_cell_length_c 25.474641
_cell_angle_alpha 90.000000
_cell_angle_beta 90.000000
_cell_angle_gamma 90.000000
_cell_volume 4607.586101
_symmetry_space_group_name_H-M "I M M A"
_symmetry_group_IT_number 74
_symmetry_cell_setting 'orthorhombic'
loop_
_space_group_symop_operation_xyz
x,y,z
-x,1/2-y,z
x,-y,-z
-x,1/2+y,-z
-x,-y,-z
x,1/2+y,-z
-x,y,z
x,1/2-y,z
1/2+x,1/2+y,1/2+z
1/2-x,-y,1/2+z
1/2+x,1/2-y,1/2-z
1/2-x,y,1/2-z
1/2-x,1/2-y,1/2-z
1/2+x,y,1/2-z
1/2-x,1/2+y,1/2+z
1/2+x,-y,1/2+z
loop_
_atom_site_type_symbol
_atom_site_label
_atom_site_fract_x
_atom_site_fract_y
_atom_site_fract_z
Si Si1 0.209479 0.521839 0.115058
Si Si2 0.409677 0.750000 0.768514
Si Si3 0.585277 0.750000 0.530052
Si Si4 0.864990 0.250000 0.145788
Si Si5 0.315735 0.000000 0.500000
Si Si6 0.182528 0.007282 0.707823
Si Si7 0.587969 0.750000 0.369581
Si Si8 0.085179 0.750000 0.255720
O O1 0.182557 0.381757 0.137076
O O2 0.230600 0.514959 0.053808
O O3 0.278195 0.553620 0.153832
O O4 0.138839 0.623238 0.116755
O O5 0.500000 0.750000 0.778839
O O6 0.398660 0.750000 0.704522
O O7 0.366958 0.624115 0.792080
O O8 0.500000 0.750000 0.510133
O O9 0.583015 0.750000 0.593637
O O10 0.630755 0.624251 0.510487
O O11 0.250000 0.988154 0.750000
O O12 0.129451 0.122445 0.727388
O O13 0.500000 0.750000 0.389199
O O14 0.582463 0.750000 0.306990
O O15 0.000000 0.750000 0.276811
#
# Coordination Sequence:
#
# PCOD9537417 Si02
#       8
#    16   8   8   8   8  16   8   8
#     4  11  22  37  56  78 107 146 187 224 267 318
#     4  12  23  36  56  85 115 143 177 221 273 328
#     4  10  20  34  51  71 104 146 182 219 256 303
#     4  10  20  35  53  78 111 141 183 217 260 313
#     4  10  23  36  50  74 103 136 188 228 256 310
#     4  12  21  37  59  82 109 147 183 219 272 325
#     4  11  22  35  53  80 113 147 183 223 263 311
#     4  11  22  36  55  86 117 142 178 222 272 327
#
# _framework density 17.362670000000001
#
# number of rings (size 3 to 8) (size 9 to 14) (size 15 to 20)
#    0.000    1.000    4.000    3.600    0.000    7.200 
#    0.000    0.000    0.000    0.000    0.000    4.200 
#    0.000    0.000    0.000    0.000    0.000    0.000 
#
# Total GULP energy -223252.959539 kJ/mol
# GULP energy per Si atom -5581.323988 kJ/mol
# Density = 1.732315 g / cm^3
# Si number density = 17.362670 Si / 1000 Ang^3
#
#
#
# Elastic Constant Matrix: (Units=GPa)
#
#
# Indices 1 2 3 4 5 6 
#
# 1 90.5755 22.5559 34.4337 0.0000 0.0000 0.0000
# 2 22.5559 96.4856 -4.6869 0.0000 0.0000 0.0000
# 3 34.4337 -4.6869 120.6619 0.0000 0.0000 0.0000
# 4 0.0000 0.0000 0.0000 51.6458 0.0000 0.0000
# 5 0.0000 0.0000 0.0000 0.0000 10.7138 0.0000
# 6 0.0000 0.0000 0.0000 0.0000 0.0000 27.8629
#
#
#
# Elastic Compliance Matrix: (Units=1/GPa)
#
#
# Indices 1 2 3 4 5 6 
#
# 1 0.013365 -0.003316 -0.003943 0.000000 0.000000 0.000000
# 2 -0.003316 0.011207 0.001382 0.000000 0.000000 0.000000
# 3 -0.003943 0.001382 0.009466 0.000000 0.000000 0.000000
# 4 0.000000 0.000000 0.000000 0.019363 0.000000 0.000000
# 5 0.000000 0.000000 0.000000 0.000000 0.093338 0.000000
# 6 0.000000 0.000000 0.000000 0.000000 0.000000 0.035890
#
#
# Mechanical properties :
#
#
# Convention : Reuss Voigt Hill
#
# Bulk Modulus (GPa) = 44.87584 45.81426 45.34505
# Shear Modulus (GPa) = 24.77562 35.07251 29.92406
#
# Velocity S-wave (km/s) = 3.78159 4.49931 4.15598
# Velocity P-wave (km/s) = 6.70593 7.30997 7.01446
#
# Compressibility (1/GPa) = 0.02228371
#
# Stress axis : x y z
#
# Youngs Moduli (GPa) = 74.82092 89.23351 105.63585
#
# Poissons Ratio (x) = 0.29590 0.41651
# Poissons Ratio (y) = 0.24811 -0.14595
# Poissons Ratio (z) = 0.29501 -0.12328
#
# Static dielectric constant tensor:
#      x y z
#    x 1.569570 0.000000 0.000000 
#    y 0.000000 1.665570 0.000000 
#    z 0.000000 0.000000 1.615370 
# 
# From -- ./inp_files/67618.got.cif
#   From: 2010.05.17/outbox.cif.g08.bks.cpg/sg74_34_cif.got.tgz:67618.got - 2010.06.03 17:57:02.
