data_PCOD9537650
_publ_section_title
;
Structure prediction by ZEFSAII (Michael W. Deem and Ramdas Pophale) SiO2 
 PCOD9537650
Probable space group: I M M A
;
_chemical_formula_sum "Si O2"
_cell_formula_units_Z 80
_cell_length_a 9.821801
_cell_length_b 27.304608
_cell_length_c 16.514393
_cell_angle_alpha 90.000000
_cell_angle_beta 90.000000
_cell_angle_gamma 90.000000
_cell_volume 4428.836952
_symmetry_space_group_name_H-M "I M M A"
_symmetry_group_IT_number 74
_symmetry_cell_setting 'orthorhombic'
loop_
_space_group_symop_operation_xyz
x,y,z
-x,1/2-y,z
x,-y,-z
-x,1/2+y,-z
-x,-y,-z
x,1/2+y,-z
-x,y,z
x,1/2-y,z
1/2+x,1/2+y,1/2+z
1/2-x,-y,1/2+z
1/2+x,1/2-y,1/2-z
1/2-x,y,1/2-z
1/2-x,1/2-y,1/2-z
1/2+x,y,1/2-z
1/2-x,1/2+y,1/2+z
1/2+x,-y,1/2+z
loop_
_atom_site_type_symbol
_atom_site_label
_atom_site_fract_x
_atom_site_fract_y
_atom_site_fract_z
Si Si1 0.160079 0.556975 0.503611
Si Si2 0.500000 0.691862 0.123933
Si Si3 0.219600 0.850011 0.065051
Si Si4 0.154826 0.307810 0.109593
Si Si5 0.659727 0.108791 0.177106
Si Si6 0.000000 0.309415 0.814757
O O1 0.196021 0.500000 0.500000
O O2 0.256827 0.592384 0.451064
O O3 0.169484 0.576703 0.595528
O O4 0.000000 0.561890 0.478839
O O5 0.500000 0.750000 0.117783
O O6 0.631650 0.671198 0.080497
O O7 0.500000 0.679864 0.219457
O O8 0.128148 0.833459 0.140099
O O9 0.161388 0.825356 0.983747
O O10 0.180805 0.250000 0.114678
O O11 0.267585 0.339677 0.155527
O O12 0.000000 0.317227 0.138940
O O13 0.500000 0.113756 0.196890
O O14 0.750000 0.087456 0.250000
O O15 0.000000 0.250000 0.825418
#
# Coordination Sequence:
#
# PCOD9537650 Si02
#       6
#    16   8  16  16  16   8
#     4   9  19  39  65  85 108 147 193 241 292 337
#     4  11  22  34  53  82 117 159 204 237 282 350
#     4  11  20  36  57  83 112 154 195 238 287 345
#     4  10  20  34  55  81 112 151 189 230 278 332
#     4  10  21  37  59  85 114 147 183 229 281 336
#     4  11  22  36  53  80 123 163 190 239 296 336
#
# _framework density 18.063433
#
# number of rings (size 3 to 8) (size 9 to 14) (size 15 to 20)
#    0.000    1.800    2.000    3.000    1.400    2.400 
#    0.000    2.500    0.000    0.000    0.000    0.000 
#    0.000    0.000    0.000    0.000    0.000    0.000 
#
# Total GULP energy -223250.581941 kJ/mol
# GULP energy per Si atom -5581.264549 kJ/mol
# Density = 1.802232 g / cm^3
# Si number density = 18.063433 Si / 1000 Ang^3
#
#
#
# Elastic Constant Matrix: (Units=GPa)
#
#
# Indices 1 2 3 4 5 6 
#
# 1 115.7651 40.6597 16.5700 0.0000 0.0000 0.0000
# 2 40.6597 114.5503 30.1439 0.0000 0.0000 0.0000
# 3 16.5700 30.1439 41.7968 0.0001 0.0000 0.0000
# 4 0.0000 0.0000 0.0001 14.0864 0.0000 0.0000
# 5 0.0000 0.0000 0.0000 0.0000 37.6194 0.0000
# 6 0.0000 0.0000 0.0000 0.0000 0.0000 22.7112
#
#
#
# Elastic Compliance Matrix: (Units=1/GPa)
#
#
# Indices 1 2 3 4 5 6 
#
# 1 0.009969 -0.003084 -0.001728 0.000000 0.000000 0.000000
# 2 -0.003084 0.011729 -0.007236 0.000000 0.000000 0.000000
# 3 -0.001728 -0.007236 0.029829 0.000000 0.000000 0.000000
# 4 0.000000 0.000000 0.000000 0.070990 0.000000 0.000000
# 5 0.000000 0.000000 0.000000 0.000000 0.026582 0.000000
# 6 0.000000 0.000000 0.000000 0.000000 0.000000 0.044031
#
#
# Mechanical properties :
#
#
# Convention : Reuss Voigt Hill
#
# Bulk Modulus (GPa) = 36.45573 49.65104 43.05338
# Shear Modulus (GPa) = 22.08786 27.19931 24.64358
#
# Velocity S-wave (km/s) = 3.50064 3.88463 3.69762
# Velocity P-wave (km/s) = 6.04692 6.90414 6.48970
#
# Compressibility (1/GPa) = 0.02743053
#
# Stress axis : x y z
#
# Youngs Moduli (GPa) = 100.31527 85.26234 33.52435
#
# Poissons Ratio (x) = 0.26292 0.05793
# Poissons Ratio (y) = 0.30933 0.24259
# Poissons Ratio (z) = 0.17335 0.61697
#
# Static dielectric constant tensor:
#      x y z
#    x 1.783100 0.000000 0.000000 
#    y 0.000000 1.594670 0.000000 
#    z 0.000000 0.000000 1.625510 
# 
# From -- ./inp_files/39761.got.cif
#   From: 2010.05.17/outbox.cif.g08.bks.cpg/sg74_20_cif.got.tgz:39761.got - 2010.06.03 17:57:02.
