data_PCOD9537851
_publ_section_title
;
Structure prediction by ZEFSAII (Michael W. Deem and Ramdas Pophale) SiO2 
 PCOD9537851
Probable space group: I M M A
;
_chemical_formula_sum "Si O2"
_cell_formula_units_Z 56
_cell_length_a 7.516742
_cell_length_b 10.407764
_cell_length_c 29.721419
_cell_angle_alpha 90.000000
_cell_angle_beta 90.000000
_cell_angle_gamma 90.000000
_cell_volume 2325.180222
_symmetry_space_group_name_H-M "I M M A"
_symmetry_group_IT_number 74
_symmetry_cell_setting 'orthorhombic'
loop_
_space_group_symop_operation_xyz
x,y,z
-x,1/2-y,z
x,-y,-z
-x,1/2+y,-z
-x,-y,-z
x,1/2+y,-z
-x,y,z
x,1/2-y,z
1/2+x,1/2+y,1/2+z
1/2-x,-y,1/2+z
1/2+x,1/2-y,1/2-z
1/2-x,y,1/2-z
1/2-x,1/2-y,1/2-z
1/2+x,y,1/2-z
1/2-x,1/2+y,1/2+z
1/2+x,-y,1/2+z
loop_
_atom_site_type_symbol
_atom_site_label
_atom_site_fract_x
_atom_site_fract_y
_atom_site_fract_z
Si Si1 0.288206 0.250000 0.302926
Si Si2 0.292659 0.614026 0.103441
Si Si3 0.712228 0.029030 0.697476
Si Si4 0.283594 0.101235 0.039527
O O1 0.500000 0.250000 0.311161
O O2 0.250000 0.250000 0.250000
O O3 0.215174 0.387644 0.316142
O O4 0.500000 0.615765 0.090484
O O5 0.214749 0.750000 0.086403
O O6 0.280303 0.614900 0.157260
O O7 0.221943 0.480465 0.083225
O O8 0.500000 0.027687 0.694487
O O9 0.750000 0.058207 0.750000
O O10 0.500000 0.110861 0.039334
O O11 0.220439 0.250000 0.036835
O O12 0.236032 0.000000 0.000000
#
# Coordination Sequence:
#
# PCOD9537851 Si02
#       4
#     8  16  16  16
#     4   8  16  30  48  72 100 132 172 220 270 318
#     4  10  21  35  52  79 114 149 186 230 277 327
#     4  10  20  35  55  79 109 147 189 233 280 330
#     4   9  17  31  54  83 113 145 181 225 276 329
#
# _framework density 24.084157000000001
#
# number of rings (size 3 to 8) (size 9 to 14) (size 15 to 20)
#    0.000    2.571    0.000    1.714    2.000    5.714 
#    0.000    0.000    0.000    0.857    0.000    0.000 
#    0.000    0.000    0.000    0.000    0.000    0.000 
#
# Total GULP energy -155985.713056 kJ/mol
# GULP energy per Si atom -5570.918323 kJ/mol
# Density = 2.402934 g / cm^3
# Si number density = 24.084157 Si / 1000 Ang^3
#
#
#
# Elastic Constant Matrix: (Units=GPa)
#
#
# Indices 1 2 3 4 5 6 
#
# 1 70.1713 7.2752 -11.5300 0.0000 0.0000 0.0000
# 2 7.2752 262.1694 83.5151 0.0000 0.0000 0.0000
# 3 -11.5300 83.5151 122.6722 0.0000 0.0000 0.0000
# 4 0.0000 0.0000 0.0000 45.2957 0.0000 0.0000
# 5 0.0000 0.0000 0.0000 0.0000 3.4670 0.0000
# 6 0.0000 0.0000 0.0000 0.0000 0.0000 -47.2962
#
#
#
# Elastic Compliance Matrix: (Units=1/GPa)
#
#
# Indices 1 2 3 4 5 6 
#
# 1 0.014712 -0.001084 0.002121 0.000000 0.000000 0.000000
# 2 -0.001084 0.004950 -0.003472 0.000000 0.000000 0.000000
# 3 0.002121 -0.003472 0.010715 0.000000 0.000000 0.000000
# 4 0.000000 0.000000 0.000000 0.022077 0.000000 0.000000
# 5 0.000000 0.000000 0.000000 0.000000 0.288437 0.000000
# 6 0.000000 0.000000 0.000000 0.000000 0.000000 -0.021143
#
#
# Mechanical properties :
#
#
# Convention : Reuss Voigt Hill
#
# Bulk Modulus (GPa) = 39.20582 68.17038 53.68810
# Shear Modulus (GPa) = 15.00959 25.34346 20.17652
#
# Velocity S-wave (km/s) = 2.49913 3.24742 2.89753
# Velocity P-wave (km/s) = 4.96403 6.51364 5.79090
#
# Compressibility (1/GPa) = 0.02550642
#
# Stress axis : x y z
#
# Youngs Moduli (GPa) = 67.97334 202.00119 93.32754
#
# Poissons Ratio (x) = 0.21892 -0.19791
# Poissons Ratio (y) = 0.07367 0.32405
# Poissons Ratio (z) = -0.14414 0.70138
#
# Static dielectric constant tensor:
#      x y z
#    x 1.965110 0.000000 0.000000 
#    y 0.000000 2.059910 0.000000 
#    z 0.000000 0.000000 1.930520 
# 
# From -- ./inp_files/63263.got.cif
#   From: 2010.05.17/outbox.cif.g08.bks.cpg/sg74_32_cif.got.tgz:63263.got - 2010.06.03 17:57:02.
