data_PCOD9537727
_publ_section_title
;
Structure prediction by ZEFSAII (Michael W. Deem and Ramdas Pophale) SiO2 
 PCOD9537727
Probable space group: I M M A
;
_chemical_formula_sum "Si O2"
_cell_formula_units_Z 96
_cell_length_a 15.181594
_cell_length_b 23.960274
_cell_length_c 12.882137
_cell_angle_alpha 90.000000
_cell_angle_beta 90.000000
_cell_angle_gamma 90.000000
_cell_volume 4685.943702
_symmetry_space_group_name_H-M "I M M A"
_symmetry_group_IT_number 74
_symmetry_cell_setting 'orthorhombic'
loop_
_space_group_symop_operation_xyz
x,y,z
-x,1/2-y,z
x,-y,-z
-x,1/2+y,-z
-x,-y,-z
x,1/2+y,-z
-x,y,z
x,1/2-y,z
1/2+x,1/2+y,1/2+z
1/2-x,-y,1/2+z
1/2+x,1/2-y,1/2-z
1/2-x,y,1/2-z
1/2-x,1/2-y,1/2-z
1/2+x,y,1/2-z
1/2-x,1/2+y,1/2+z
1/2+x,-y,1/2+z
loop_
_atom_site_type_symbol
_atom_site_label
_atom_site_fract_x
_atom_site_fract_y
_atom_site_fract_z
Si Si1 0.343719 0.128175 0.869538
Si Si2 0.891493 0.047986 0.204430
Si Si3 0.351502 0.923460 0.339722
Si Si4 0.894406 0.055614 0.443244
Si Si5 0.400176 0.864176 0.540740
Si Si6 0.850186 0.250000 0.714098
Si Si7 0.396724 0.250000 0.547485
O O1 0.388665 0.096797 0.771445
O O2 0.242439 0.107564 0.856331
O O3 0.362299 0.193187 0.849680
O O4 0.372199 0.106692 0.981451
O O5 0.866324 0.057909 0.323981
O O6 0.860249 0.098691 0.131814
O O7 0.000000 0.042967 0.197016
O O8 0.850008 0.989971 0.165769
O O9 0.404247 0.902525 0.438658
O O10 0.000000 0.050941 0.440081
O O11 0.858706 0.000000 0.500000
O O12 0.500000 0.851940 0.575271
O O13 0.357674 0.806126 0.502806
O O14 0.750000 0.250000 0.750000
O O15 0.895101 0.250000 0.827313
O O16 0.500000 0.250000 0.523218
#
# Coordination Sequence:
#
# PCOD9537727 Si02
#       7
#    16  16  16  16  16   8   8
#     4  11  23  36  57  85 114 149 190 235 283 340
#     4  10  21  38  59  84 119 156 186 231 290 341
#     4  11  20  35  55  86 115 148 184 238 286 342
#     4  10  21  38  58  79 112 153 192 231 280 343
#     4  10  20  35  56  85 115 147 190 235 285 337
#     4  12  20  40  59  78 116 152 187 233 294 333
#     4  10  20  34  57  86 113 146 189 236 281 338
#
# _framework density 20.486802000000001
#
# number of rings (size 3 to 8) (size 9 to 14) (size 15 to 20)
#    0.000    1.500    5.000    1.000    0.000    4.000 
#    0.000    0.833    0.000    2.000    0.000    3.500 
#    0.000    0.000    0.000    0.000    0.000    0.000 
#
# Total GULP energy -267843.165605 kJ/mol
# GULP energy per Si atom -5580.065950 kJ/mol
# Density = 2.044017 g / cm^3
# Si number density = 20.486802 Si / 1000 Ang^3
#
#
#
# Elastic Constant Matrix: (Units=GPa)
#
#
# Indices 1 2 3 4 5 6 
#
# 1 25.2205 6.6895 17.0099 0.0000 0.0000 0.0000
# 2 6.6895 214.1808 109.9699 0.0000 0.0000 0.0000
# 3 17.0099 109.9699 139.6540 -0.0001 0.0001 0.0000
# 4 0.0000 0.0000 -0.0001 40.9528 0.0000 0.0000
# 5 0.0000 0.0000 0.0001 0.0000 10.2169 0.0000
# 6 0.0000 0.0000 0.0000 0.0000 0.0000 16.1851
#
#
#
# Elastic Compliance Matrix: (Units=1/GPa)
#
#
# Indices 1 2 3 4 5 6 
#
# 1 0.043867 0.002305 -0.007158 0.000000 0.000000 0.000000
# 2 0.002305 0.007959 -0.006548 0.000000 0.000000 0.000000
# 3 -0.007158 -0.006548 0.013189 0.000000 0.000000 0.000000
# 4 0.000000 0.000000 0.000000 0.024418 0.000000 0.000000
# 5 0.000000 0.000000 0.000000 0.000000 0.097877 0.000000
# 6 0.000000 0.000000 0.000000 0.000000 0.000000 0.061785
#
#
# Mechanical properties :
#
#
# Convention : Reuss Voigt Hill
#
# Bulk Modulus (GPa) = 23.68980 71.82155 47.75568
# Shear Modulus (GPa) = 17.48450 29.83004 23.65727
#
# Velocity S-wave (km/s) = 2.92456 3.81998 3.40186
# Velocity P-wave (km/s) = 4.79506 7.38850 6.22826
#
# Compressibility (1/GPa) = 0.04221225
#
# Stress axis : x y z
#
# Youngs Moduli (GPa) = 22.79636 125.64355 75.82257
#
# Poissons Ratio (x) = -0.28964 0.54276
# Poissons Ratio (y) = -0.05255 0.49649
# Poissons Ratio (z) = 0.16318 0.82272
#
# Static dielectric constant tensor:
#      x y z
#    x 1.820190 0.000000 0.000000 
#    y 0.000000 1.900310 0.000000 
#    z 0.000000 0.000000 1.744630 
# 
# From -- ./inp_files/22541.got.cif
#   From: 2010.05.17/outbox.cif.g08.bks.cpg/sg74_12_cif.got.tgz:22541.got - 2010.06.03 17:57:02.
