data_PCOD9537283
_publ_section_title
;
Structure prediction by ZEFSAII (Michael W. Deem and Ramdas Pophale) SiO2 
 PCOD9537283
Probable space group: I M M A
;
_chemical_formula_sum "Si O2"
_cell_formula_units_Z 96
_cell_length_a 23.749997
_cell_length_b 9.339813
_cell_length_c 22.024583
_cell_angle_alpha 90.000000
_cell_angle_beta 90.000000
_cell_angle_gamma 90.000000
_cell_volume 4885.504690
_symmetry_space_group_name_H-M "I M M A"
_symmetry_group_IT_number 74
_symmetry_cell_setting 'orthorhombic'
loop_
_space_group_symop_operation_xyz
x,y,z
-x,1/2-y,z
x,-y,-z
-x,1/2+y,-z
-x,-y,-z
x,1/2+y,-z
-x,y,z
x,1/2-y,z
1/2+x,1/2+y,1/2+z
1/2-x,-y,1/2+z
1/2+x,1/2-y,1/2-z
1/2-x,y,1/2-z
1/2-x,1/2-y,1/2-z
1/2+x,y,1/2-z
1/2-x,1/2+y,1/2+z
1/2+x,-y,1/2+z
loop_
_atom_site_type_symbol
_atom_site_label
_atom_site_fract_x
_atom_site_fract_y
_atom_site_fract_z
Si Si1 0.313940 0.919495 0.439835
Si Si2 0.064857 0.917485 0.774020
Si Si3 0.747171 0.084377 0.681654
Si Si4 0.378613 0.085785 0.830132
Si Si5 0.932121 0.914908 0.559993
Si Si6 0.562189 0.415367 0.601665
O O1 0.300295 0.750000 0.443888
O O2 0.289518 0.973677 0.374734
O O3 0.381713 0.934032 0.437109
O O4 0.292840 0.000000 0.500000
O O5 0.079350 0.750000 0.771268
O O6 0.000000 0.932970 0.751776
O O7 0.105443 0.012815 0.733303
O O8 0.065776 0.977058 0.842040
O O9 0.727057 0.250000 0.690137
O O10 0.750000 0.019872 0.750000
O O11 0.811756 0.085159 0.660638
O O12 0.398244 0.250000 0.830962
O O13 0.408124 0.994191 0.881868
O O14 0.913976 0.750000 0.557714
O O15 0.000000 0.917240 0.562594
O O16 0.914373 0.000000 0.500000
O O17 0.500000 0.433742 0.572865
O O18 0.564201 0.250000 0.624324
#
# Coordination Sequence:
#
# PCOD9537283 Si02
#       6
#    16  16  16  16  16  16
#     4  10  21  38  59  83 114 148 183 229 282 336
#     4  10  20  33  51  79 114 146 177 221 276 328
#     4   9  19  37  59  81 107 145 192 236 278 326
#     4  11  21  33  54  80 105 139 183 227 272 328
#     4  10  21  37  55  76 106 142 179 223 276 332
#     4   9  18  34  57  83 109 142 184 224 265 320
#
# _framework density 19.649965000000002
#
# number of rings (size 3 to 8) (size 9 to 14) (size 15 to 20)
#    0.000    2.167    0.000    3.000    0.000    8.333 
#    0.000    3.333    0.000    3.500    0.000    0.000 
#    0.000    0.000    0.000    0.000    0.000    0.000 
#
# Total GULP energy -267743.170545 kJ/mol
# GULP energy per Si atom -5577.982720 kJ/mol
# Density = 1.960524 g / cm^3
# Si number density = 19.649965 Si / 1000 Ang^3
#
#
#
# Elastic Constant Matrix: (Units=GPa)
#
#
# Indices 1 2 3 4 5 6 
#
# 1 37.5540 30.9700 17.6219 0.0000 0.0000 0.0000
# 2 30.9700 99.8697 42.0252 0.0000 0.0000 0.0000
# 3 17.6219 42.0252 102.3570 0.0000 0.0000 0.0000
# 4 0.0000 0.0000 0.0000 31.7705 0.0000 0.0000
# 5 0.0000 0.0000 0.0000 0.0000 9.5189 0.0000
# 6 0.0000 0.0000 0.0000 0.0000 0.0000 -21.4657
#
#
#
# Elastic Compliance Matrix: (Units=1/GPa)
#
#
# Indices 1 2 3 4 5 6 
#
# 1 0.036099 -0.010371 -0.001957 0.000000 0.000000 0.000000
# 2 -0.010371 0.015084 -0.004408 0.000000 0.000000 0.000000
# 3 -0.001957 -0.004408 0.011916 0.000000 0.000000 0.000000
# 4 0.000000 0.000000 0.000000 0.031476 0.000000 0.000000
# 5 0.000000 0.000000 0.000000 0.000000 0.105054 0.000000
# 6 0.000000 0.000000 0.000000 0.000000 0.000000 -0.046586
#
#
# Mechanical properties :
#
#
# Convention : Reuss Voigt Hill
#
# Bulk Modulus (GPa) = 33.75121 46.77941 40.26531
# Shear Modulus (GPa) = 25.45948 13.90900 19.68424
#
# Velocity S-wave (km/s) = 3.60342 2.66341 3.16847
# Velocity P-wave (km/s) = 5.87591 5.77203 5.82420
#
# Compressibility (1/GPa) = 0.02962857
#
# Stress axis : x y z
#
# Youngs Moduli (GPa) = 27.70130 66.29590 83.91907
#
# Poissons Ratio (x) = 0.68756 0.16421
# Poissons Ratio (y) = 0.28729 0.36988
# Poissons Ratio (z) = 0.05420 0.29220
#
# Static dielectric constant tensor:
#      x y z
#    x 1.703840 0.000000 0.000000 
#    y 0.000000 1.671190 0.000000 
#    z 0.000000 0.000000 1.703670 
# 
# From -- ./inp_files/55035.got.cif
#   From: 2010.05.17/outbox.cif.g08.bks.cpg/sg74_28_cif.got.tgz:55035.got - 2010.06.03 17:57:02.
