data_PCOD9537847
_publ_section_title
;
Structure prediction by ZEFSAII (Michael W. Deem and Ramdas Pophale) SiO2 
 PCOD9537847
Probable space group: I M M A
;
_chemical_formula_sum "Si O2"
_cell_formula_units_Z 104
_cell_length_a 21.754775
_cell_length_b 9.313357
_cell_length_c 27.701293
_cell_angle_alpha 90.000000
_cell_angle_beta 90.000000
_cell_angle_gamma 90.000000
_cell_volume 5612.558588
_symmetry_space_group_name_H-M "I M M A"
_symmetry_group_IT_number 74
_symmetry_cell_setting 'orthorhombic'
loop_
_space_group_symop_operation_xyz
x,y,z
-x,1/2-y,z
x,-y,-z
-x,1/2+y,-z
-x,-y,-z
x,1/2+y,-z
-x,y,z
x,1/2-y,z
1/2+x,1/2+y,1/2+z
1/2-x,-y,1/2+z
1/2+x,1/2-y,1/2-z
1/2-x,y,1/2-z
1/2-x,1/2-y,1/2-z
1/2+x,y,1/2-z
1/2-x,1/2+y,1/2+z
1/2+x,-y,1/2+z
loop_
_atom_site_type_symbol
_atom_site_label
_atom_site_fract_x
_atom_site_fract_y
_atom_site_fract_z
Si Si1 0.589969 0.082359 0.860840
Si Si2 0.195429 0.416020 0.210339
Si Si3 0.264472 0.583591 0.127887
Si Si4 0.197365 0.920170 0.949253
Si Si5 0.000000 0.422765 0.552467
Si Si6 0.567518 0.577739 0.761741
Si Si7 0.434956 0.078557 0.448259
O O1 0.573995 0.250000 0.852999
O O2 0.663518 0.071413 0.861314
O O3 0.557839 0.041793 0.911842
O O4 0.569250 0.990776 0.814932
O O5 0.189056 0.250000 0.192583
O O6 0.250000 0.414203 0.250000
O O7 0.221516 0.520849 0.169795
O O8 0.129562 0.462446 0.232517
O O9 0.250142 0.750000 0.118595
O O10 0.250553 0.486117 0.082140
O O11 0.203029 0.750000 0.955073
O O12 0.130656 0.953317 0.924787
O O13 0.196895 0.000000 0.000000
O O14 0.000000 0.500000 0.500000
O O15 0.000000 0.250000 0.544331
O O16 0.500000 0.542109 0.739948
O O17 0.570782 0.750000 0.766324
O O18 0.500000 0.041870 0.423541
O O19 0.434880 0.250000 0.456616
O O20 0.435233 0.000000 0.500000
#
# Coordination Sequence:
#
# PCOD9537847 Si02
#       7
#    16  16  16  16   8  16  16
#     4  10  21  37  58  82 111 147 190 238 289 344
#     4  10  20  36  58  85 115 147 186 237 293 350
#     4  11  23  37  56  84 115 150 195 239 285 344
#     4  10  20  35  55  78 109 148 187 233 286 337
#     4  10  22  40  58  82 116 152 192 242 295 346
#     4  10  20  35  59  89 117 147 189 236 287 351
#     4   8  14  26  46  71  95 124 167 214 261 314
#
# _framework density 18.529874
#
# number of rings (size 3 to 8) (size 9 to 14) (size 15 to 20)
#    0.000    2.154    2.308    0.923    0.000    3.385 
#    0.000    2.308    0.000    4.615    0.000    0.000 
#    0.000    0.000    0.000    0.000    0.000    0.000 
#
# Total GULP energy -289609.362675 kJ/mol
# GULP energy per Si atom -5569.410821 kJ/mol
# Density = 1.848770 g / cm^3
# Si number density = 18.529874 Si / 1000 Ang^3
#
#
#
# Elastic Constant Matrix: (Units=GPa)
#
#
# Indices 1 2 3 4 5 6 
#
# 1 130.4965 42.4624 42.0488 0.0000 0.0000 0.0000
# 2 42.4624 55.9717 33.1110 0.0000 0.0000 0.0000
# 3 42.0488 33.1110 60.2850 0.0000 0.0000 0.0000
# 4 0.0000 0.0000 0.0000 30.6253 0.0000 0.0000
# 5 0.0000 0.0000 0.0000 0.0000 22.3873 0.0000
# 6 0.0000 0.0000 0.0000 0.0000 0.0000 2.6288
#
#
#
# Elastic Compliance Matrix: (Units=1/GPa)
#
#
# Indices 1 2 3 4 5 6 
#
# 1 0.010960 -0.005618 -0.004559 0.000000 0.000000 0.000000
# 2 -0.005618 0.029344 -0.012199 0.000000 0.000000 0.000000
# 3 -0.004559 -0.012199 0.026468 0.000000 0.000000 0.000000
# 4 0.000000 0.000000 0.000000 0.032653 0.000000 0.000000
# 5 0.000000 0.000000 0.000000 0.000000 0.044668 0.000000
# 6 0.000000 0.000000 0.000000 0.000000 0.000000 0.380406
#
#
# Mechanical properties :
#
#
# Convention : Reuss Voigt Hill
#
# Bulk Modulus (GPa) = 45.41101 53.55529 49.48315
# Shear Modulus (GPa) = 8.67165 19.73700 14.20433
#
# Velocity S-wave (km/s) = 2.16564 3.26720 2.77169
# Velocity P-wave (km/s) = 5.55098 6.57249 6.08322
#
# Compressibility (1/GPa) = 0.02202109
#
# Stress axis : x y z
#
# Youngs Moduli (GPa) = 91.24048 34.07806 37.78154
#
# Poissons Ratio (x) = 0.19144 0.17225
# Poissons Ratio (y) = 0.51256 0.46089
# Poissons Ratio (z) = 0.41598 0.41571
#
# Static dielectric constant tensor:
#      x y z
#    x 1.750890 0.000000 0.000000 
#    y 0.000000 1.616800 0.000000 
#    z 0.000000 0.000000 1.651850 
# 
# From -- ./inp_files/68214.got.cif
#   From: 2010.05.17/outbox.cif.g08.bks.cpg/sg74_35_cif.got.tgz:68214.got - 2010.06.03 17:57:02.
