data_PCOD9537799
_publ_section_title
;
Structure prediction by ZEFSAII (Michael W. Deem and Ramdas Pophale) SiO2 
 PCOD9537799
Probable space group: I M M A
;
_chemical_formula_sum "Si O2"
_cell_formula_units_Z 72
_cell_length_a 14.763801
_cell_length_b 14.092767
_cell_length_c 18.334668
_cell_angle_alpha 90.000000
_cell_angle_beta 90.000000
_cell_angle_gamma 90.000000
_cell_volume 3814.762499
_symmetry_space_group_name_H-M "I M M A"
_symmetry_group_IT_number 74
_symmetry_cell_setting 'orthorhombic'
loop_
_space_group_symop_operation_xyz
x,y,z
-x,1/2-y,z
x,-y,-z
-x,1/2+y,-z
-x,-y,-z
x,1/2+y,-z
-x,y,z
x,1/2-y,z
1/2+x,1/2+y,1/2+z
1/2-x,-y,1/2+z
1/2+x,1/2-y,1/2-z
1/2-x,y,1/2-z
1/2-x,1/2-y,1/2-z
1/2+x,y,1/2-z
1/2-x,1/2+y,1/2+z
1/2+x,-y,1/2+z
loop_
_atom_site_type_symbol
_atom_site_label
_atom_site_fract_x
_atom_site_fract_y
_atom_site_fract_z
Si Si1 0.401354 0.750000 0.714710
Si Si2 0.396643 0.750000 0.442205
Si Si3 0.898878 0.456461 0.876825
Si Si4 0.236261 0.250000 0.079941
Si Si5 0.144633 0.952192 0.728945
Si Si6 0.293565 0.458818 0.077076
O O1 0.500000 0.750000 0.678050
O O2 0.323864 0.750000 0.653461
O O3 0.393601 0.846207 0.761074
O O4 0.500000 0.750000 0.469529
O O5 0.385199 0.845926 0.395414
O O6 0.329267 0.750000 0.509981
O O7 0.896692 0.480656 0.790927
O O8 0.812600 0.511400 0.910488
O O9 0.000000 0.484599 0.904036
O O10 0.293549 0.345405 0.077567
O O11 0.250000 0.943434 0.750000
O O12 0.146779 0.989600 0.646554
O O13 0.322735 0.500000 0.000000
#
# Coordination Sequence:
#
# PCOD9537799 Si02
#       6
#     8   8  16   8  16  16
#     4  12  21  32  56  84 109 145 177 215 274 327
#     4  10  21  33  49  79 115 144 171 219 268 318
#     4  10  20  35  54  78 107 142 184 221 263 318
#     4  12  20  32  51  83 116 139 170 213 267 329
#     4  10  20  35  53  77 111 144 179 223 262 320
#     4  11  22  36  55  78 112 147 178 220 272 320
#
# _framework density 18.874044999999999
#
# number of rings (size 3 to 8) (size 9 to 14) (size 15 to 20)
#    0.000    1.333    6.667    2.000    0.000    1.333 
#    0.000    6.111    0.000    2.667    0.000    1.556 
#    0.000    0.000    0.000    0.000    0.000    0.000 
#
# Total GULP energy -200903.575243 kJ/mol
# GULP energy per Si atom -5580.654868 kJ/mol
# Density = 1.883109 g / cm^3
# Si number density = 18.874045 Si / 1000 Ang^3
#
#
#
# Elastic Constant Matrix: (Units=GPa)
#
#
# Indices 1 2 3 4 5 6 
#
# 1 21.6636 1.6751 2.4478 0.0000 0.0000 0.0000
# 2 1.6751 60.9770 23.1205 0.0000 0.0000 0.0000
# 3 2.4478 23.1205 143.3867 0.0000 0.0000 0.0000
# 4 0.0000 0.0000 0.0000 23.0733 0.0000 0.0000
# 5 0.0000 0.0000 0.0000 0.0000 3.4547 0.0000
# 6 0.0000 0.0000 0.0000 0.0000 0.0000 7.7782
#
#
#
# Elastic Compliance Matrix: (Units=1/GPa)
#
#
# Indices 1 2 3 4 5 6 
#
# 1 0.046311 -0.001036 -0.000624 0.000000 0.000000 0.000000
# 2 -0.001036 0.017491 -0.002803 0.000000 0.000000 0.000000
# 3 -0.000624 -0.002803 0.007437 0.000000 0.000000 0.000000
# 4 0.000000 0.000000 0.000000 0.043340 0.000000 0.000000
# 5 0.000000 0.000000 0.000000 0.000000 0.289459 0.000000
# 6 0.000000 0.000000 0.000000 0.000000 0.000000 0.128564
#
#
# Mechanical properties :
#
#
# Convention : Reuss Voigt Hill
#
# Bulk Modulus (GPa) = 16.04762 31.16822 23.60792
# Shear Modulus (GPa) = 8.89210 20.11350 14.50280
#
# Velocity S-wave (km/s) = 2.17290 3.26800 2.77501
# Velocity P-wave (km/s) = 3.84919 5.54882 4.77523
#
# Compressibility (1/GPa) = 0.06231453
#
# Stress axis : x y z
#
# Youngs Moduli (GPa) = 21.59313 57.17306 134.46812
#
# Poissons Ratio (x) = 0.05922 0.08385
# Poissons Ratio (y) = 0.02237 0.37686
# Poissons Ratio (z) = 0.01347 0.16023
#
# Static dielectric constant tensor:
#      x y z
#    x 1.665030 0.000000 0.000000 
#    y 0.000000 1.639420 0.000000 
#    z 0.000000 0.000000 1.685910 
# 
# From -- ./inp_files/40983.got.cif
#   From: 2010.05.17/outbox.cif.g08.bks.cpg/sg74_21_cif.got.tgz:40983.got - 2010.06.03 17:57:02.
