data_PCOD9537605
_publ_section_title
;
Structure prediction by ZEFSAII (Michael W. Deem and Ramdas Pophale) SiO2 
 PCOD9537605
Probable space group: I M M A
;
_chemical_formula_sum "Si O2"
_cell_formula_units_Z 80
_cell_length_a 23.507018
_cell_length_b 7.934182
_cell_length_c 20.226592
_cell_angle_alpha 90.000000
_cell_angle_beta 90.000000
_cell_angle_gamma 90.000000
_cell_volume 3772.440620
_symmetry_space_group_name_H-M "I M M A"
_symmetry_group_IT_number 74
_symmetry_cell_setting 'orthorhombic'
loop_
_space_group_symop_operation_xyz
x,y,z
-x,1/2-y,z
x,-y,-z
-x,1/2+y,-z
-x,-y,-z
x,1/2+y,-z
-x,y,z
x,1/2-y,z
1/2+x,1/2+y,1/2+z
1/2-x,-y,1/2+z
1/2+x,1/2-y,1/2-z
1/2-x,y,1/2-z
1/2-x,1/2-y,1/2-z
1/2+x,y,1/2-z
1/2-x,1/2+y,1/2+z
1/2+x,-y,1/2+z
loop_
_atom_site_type_symbol
_atom_site_label
_atom_site_fract_x
_atom_site_fract_y
_atom_site_fract_z
Si Si1 0.117481 0.563515 0.798459
Si Si2 0.065432 0.950663 0.074747
Si Si3 0.870513 0.046109 0.573651
Si Si4 0.201658 0.939394 0.298627
Si Si5 0.500000 0.058382 0.907734
Si Si6 0.000000 0.056576 0.749260
O O1 0.140021 0.750000 0.786273
O O2 0.111281 0.526423 0.875541
O O3 0.151015 0.433296 0.754078
O O4 0.054045 0.543940 0.772770
O O5 0.066232 0.750000 0.081712
O O6 0.000000 0.008186 0.088541
O O7 0.077612 0.000000 0.000000
O O8 0.873563 0.250000 0.581050
O O9 0.828442 0.988815 0.634102
O O10 0.937010 0.983271 0.576787
O O11 0.849444 0.000000 0.500000
O O12 0.222129 0.750000 0.315985
O O13 0.250000 0.019293 0.250000
O O14 0.500000 0.250000 0.936097
O O15 0.500000 0.068724 0.829032
O O16 0.000000 0.250000 0.775522
#
# Coordination Sequence:
#
# PCOD9537605 Si02
#       6
#    16  16  16  16   8   8
#     4  12  23  35  56  87 120 151 191 244 300 360
#     4  10  20  34  54  80 115 154 190 234 289 349
#     4  10  20  36  58  88 121 155 193 240 298 360
#     4  10  22  42  65  84 109 155 209 252 295 354
#     4   9  17  32  56  85 120 154 189 232 286 355
#     4  11  19  34  57  83 117 155 194 235 284 351
#
# _framework density 21.206430999999998
#
# number of rings (size 3 to 8) (size 9 to 14) (size 15 to 20)
#    0.000    1.600    3.000    3.000    0.000    2.000 
#    0.000    1.000    0.000    2.400    0.000    0.000 
#    0.000    0.000    0.000    0.000    0.000    0.000 
#
# Total GULP energy -222766.035943 kJ/mol
# GULP energy per Si atom -5569.150899 kJ/mol
# Density = 2.115816 g / cm^3
# Si number density = 21.206431 Si / 1000 Ang^3
#
#
#
# Elastic Constant Matrix: (Units=GPa)
#
#
# Indices 1 2 3 4 5 6 
#
# 1 91.7860 -1.7110 49.9974 0.0000 0.0000 0.0000
# 2 -1.7110 57.7252 10.3983 0.0000 0.0000 0.0000
# 3 49.9974 10.3983 166.2682 0.0000 0.0000 0.0000
# 4 0.0000 0.0000 0.0000 20.7595 0.0000 0.0000
# 5 0.0000 0.0000 0.0000 0.0000 4.7637 0.0000
# 6 0.0000 0.0000 0.0000 0.0000 0.0000 6.0148
#
#
#
# Elastic Compliance Matrix: (Units=1/GPa)
#
#
# Indices 1 2 3 4 5 6 
#
# 1 0.013099 0.001110 -0.004008 0.000000 0.000000 0.000000
# 2 0.001110 0.017615 -0.001436 0.000000 0.000000 0.000000
# 3 -0.004008 -0.001436 0.007309 0.000000 0.000000 0.000000
# 4 0.000000 0.000000 0.000000 0.048171 0.000000 0.000000
# 5 0.000000 0.000000 0.000000 0.000000 0.209921 0.000000
# 6 0.000000 0.000000 0.000000 0.000000 0.000000 0.166256
#
#
# Mechanical properties :
#
#
# Convention : Reuss Voigt Hill
#
# Bulk Modulus (GPa) = 34.06418 48.12765 41.09592
# Shear Modulus (GPa) = 10.39881 23.44725 16.92303
#
# Velocity S-wave (km/s) = 2.21681 3.32876 2.82798
# Velocity P-wave (km/s) = 4.75924 6.12522 5.48492
#
# Compressibility (1/GPa) = 0.02935635
#
# Stress axis : x y z
#
# Youngs Moduli (GPa) = 76.34159 56.76994 136.80866
#
# Poissons Ratio (x) = -0.06303 0.54838
# Poissons Ratio (y) = -0.08476 0.19639
# Poissons Ratio (z) = 0.30600 0.08149
#
# Static dielectric constant tensor:
#      x y z
#    x 1.977370 0.000000 0.000000 
#    y 0.000000 1.815270 0.000000 
#    z 0.000000 0.000000 1.790120 
# 
# From -- ./inp_files/54409.got.cif
#   From: 2010.05.17/outbox.cif.g08.bks.cpg/sg74_28_cif.got.tgz:54409.got - 2010.06.03 17:57:02.
