data_PCOD9537720
_publ_section_title
;
Structure prediction by ZEFSAII (Michael W. Deem and Ramdas Pophale) SiO2 
 PCOD9537720
Probable space group: I M M A
;
_chemical_formula_sum "Si O2"
_cell_formula_units_Z 104
_cell_length_a 24.931668
_cell_length_b 22.979268
_cell_length_c 9.605665
_cell_angle_alpha 90.000000
_cell_angle_beta 90.000000
_cell_angle_gamma 90.000000
_cell_volume 5503.195758
_symmetry_space_group_name_H-M "I M M A"
_symmetry_group_IT_number 74
_symmetry_cell_setting 'orthorhombic'
loop_
_space_group_symop_operation_xyz
x,y,z
-x,1/2-y,z
x,-y,-z
-x,1/2+y,-z
-x,-y,-z
x,1/2+y,-z
-x,y,z
x,1/2-y,z
1/2+x,1/2+y,1/2+z
1/2-x,-y,1/2+z
1/2+x,1/2-y,1/2-z
1/2-x,y,1/2-z
1/2-x,1/2-y,1/2-z
1/2+x,y,1/2-z
1/2-x,1/2+y,1/2+z
1/2+x,-y,1/2+z
loop_
_atom_site_type_symbol
_atom_site_label
_atom_site_fract_x
_atom_site_fract_y
_atom_site_fract_z
Si Si1 0.602802 0.600893 0.733523
Si Si2 0.722766 0.183938 0.901509
Si Si3 0.250000 0.514678 0.750000
Si Si4 0.390759 0.379551 0.935460
Si Si5 0.860242 0.530212 0.220371
Si Si6 0.500000 0.181153 0.278958
Si Si7 0.307011 0.098862 0.462192
Si Si8 0.500000 0.185696 0.943255
O O1 0.609599 0.531607 0.695488
O O2 0.551486 0.639666 0.689619
O O3 0.653141 0.626770 0.650389
O O4 0.609039 0.604550 0.900484
O O5 0.718581 0.250000 0.954031
O O6 0.750000 0.185399 0.750000
O O7 0.663778 0.155562 0.902659
O O8 0.764429 0.144808 0.985058
O O9 0.197728 0.479626 0.706289
O O10 0.272512 0.551457 0.621976
O O11 0.393070 0.433782 0.831972
O O12 0.444618 0.344278 0.904604
O O13 0.842276 0.567371 0.083743
O O14 0.500000 0.250000 0.330120
O O15 0.500000 0.187079 0.111583
O O16 0.500000 0.250000 0.885197
#
# Coordination Sequence:
#
# PCOD9537720 Si02
#       8
#    16  16   8  16  16   8  16   8
#     4  10  22  37  62  88 118 153 205 244 298 357
#     4  11  22  37  58  85 120 159 195 241 300 359
#     4  10  20  34  57  82 121 156 198 234 296 360
#     4  11  21  38  60  90 117 159 199 250 301 351
#     4  11  21  36  56  87 125 157 194 244 305 358
#     4   9  20  41  63  85 117 157 200 255 306 348
#     4  11  22  39  56  88 122 160 198 246 298 361
#     4   9  20  39  62  85 114 155 208 253 292 354
#
# _framework density 18.898109000000002
#
# number of rings (size 3 to 8) (size 9 to 14) (size 15 to 20)
#    0.000    1.538    1.538    5.538    0.000    4.308 
#    0.000    7.308    0.000    0.923    0.000    0.000 
#    0.000    0.000    0.000    0.000    0.000    0.000 
#
# Total GULP energy -289776.275686 kJ/mol
# GULP energy per Si atom -5572.620686 kJ/mol
# Density = 1.885510 g / cm^3
# Si number density = 18.898109 Si / 1000 Ang^3
#
#
#
# Elastic Constant Matrix: (Units=GPa)
#
#
# Indices 1 2 3 4 5 6 
#
# 1 124.8020 71.9269 36.7812 0.0000 0.0000 0.0000
# 2 71.9269 111.4559 23.3548 0.0000 0.0000 0.0000
# 3 36.7812 23.3548 63.9572 0.0000 0.0000 0.0000
# 4 0.0000 0.0000 0.0000 -6.3816 0.0000 0.0000
# 5 0.0000 0.0000 0.0000 0.0000 13.2356 0.0000
# 6 0.0000 0.0000 0.0000 0.0000 0.0000 28.8853
#
#
#
# Elastic Compliance Matrix: (Units=1/GPa)
#
#
# Indices 1 2 3 4 5 6 
#
# 1 0.014203 -0.008072 -0.005221 0.000000 0.000000 0.000000
# 2 -0.008072 0.014303 -0.000581 0.000000 0.000000 0.000000
# 3 -0.005221 -0.000581 0.018850 0.000000 0.000000 0.000000
# 4 0.000000 0.000000 0.000000 -0.156701 0.000000 0.000000
# 5 0.000000 0.000000 0.000000 0.000000 0.075554 0.000000
# 6 0.000000 0.000000 0.000000 0.000000 0.000000 0.034620
#
#
# Mechanical properties :
#
#
# Convention : Reuss Voigt Hill
#
# Bulk Modulus (GPa) = 50.99598 62.70456 56.85027
# Shear Modulus (GPa) = 142.39942 18.35802 80.37872
#
# Velocity S-wave (km/s) = 8.68992 3.12014 6.52878
# Velocity P-wave (km/s) = 11.30175 6.79947 9.32637
#
# Compressibility (1/GPa) = 0.01960939
#
# Stress axis : x y z
#
# Youngs Moduli (GPa) = 70.40527 69.91490 53.05079
#
# Poissons Ratio (x) = 0.56436 0.27696
# Poissons Ratio (y) = 0.56832 0.03081
# Poissons Ratio (z) = 0.36756 0.04060
#
# Static dielectric constant tensor:
#      x y z
#    x 1.721180 0.000000 0.000000 
#    y 0.000000 1.714800 0.000000 
#    z 0.000000 0.000000 1.676320 
# 
# From -- ./inp_files/15262.got.cif
#   From: 2010.05.17/outbox.cif.g08.bks.cpg/sg74_8_cif.got.tgz:15262.got - 2010.06.03 17:57:02.
