data_PCOD9537391
_publ_section_title
;
Structure prediction by ZEFSAII (Michael W. Deem and Ramdas Pophale) SiO2 
 PCOD9537391
Probable space group: I M M A
;
_chemical_formula_sum "Si O2"
_cell_formula_units_Z 96
_cell_length_a 26.468782
_cell_length_b 9.107288
_cell_length_c 29.864727
_cell_angle_alpha 90.000000
_cell_angle_beta 90.000000
_cell_angle_gamma 90.000000
_cell_volume 7199.155871
_symmetry_space_group_name_H-M "I M M A"
_symmetry_group_IT_number 74
_symmetry_cell_setting 'orthorhombic'
loop_
_space_group_symop_operation_xyz
x,y,z
-x,1/2-y,z
x,-y,-z
-x,1/2+y,-z
-x,-y,-z
x,1/2+y,-z
-x,y,z
x,1/2-y,z
1/2+x,1/2+y,1/2+z
1/2-x,-y,1/2+z
1/2+x,1/2-y,1/2-z
1/2-x,y,1/2-z
1/2-x,1/2-y,1/2-z
1/2+x,y,1/2-z
1/2-x,1/2+y,1/2+z
1/2+x,-y,1/2+z
loop_
_atom_site_type_symbol
_atom_site_label
_atom_site_fract_x
_atom_site_fract_y
_atom_site_fract_z
Si Si1 0.648078 0.575146 0.305242
Si Si2 0.441331 0.574496 0.642844
Si Si3 0.804771 0.918868 0.725286
Si Si4 0.217805 0.574798 0.954518
Si Si5 0.098536 0.074489 0.045727
Si Si6 0.757916 0.427524 0.143703
O O1 0.649578 0.750000 0.307746
O O2 0.596306 0.511187 0.324792
O O3 0.659289 0.519988 0.254806
O O4 0.693155 0.505761 0.335279
O O5 0.500000 0.549145 0.652736
O O6 0.431089 0.750000 0.646234
O O7 0.429531 0.531775 0.591299
O O8 0.822618 0.750000 0.726245
O O9 0.750000 0.920986 0.750000
O O10 0.790247 0.963065 0.674767
O O11 0.220906 0.750000 0.959548
O O12 0.158145 0.537796 0.948799
O O13 0.245389 0.533551 0.908454
O O14 0.235936 0.500000 0.000000
O O15 0.094363 0.250000 0.040901
O O16 0.080293 0.000000 0.000000
O O17 0.765613 0.250000 0.147046
#
# Coordination Sequence:
#
# PCOD9537391 Si02
#       6
#    16  16  16  16  16  16
#     4  11  20  28  41  60  82  99 119 160 206 242
#     4  10  20  34  48  57  70  99 135 166 200 244
#     4   8  15  27  44  60  76 100 128 154 187 231
#     4   9  16  26  40  57  79 102 129 162 196 233
#     4   9  17  29  43  57  73  94 125 165 206 244
#     4   9  16  29  45  59  77 104 133 159 187 230
#
# _framework density 13.334897
#
# number of rings (size 3 to 8) (size 9 to 14) (size 15 to 20)
#    0.000    2.667    1.667    2.500    0.000    5.000 
#    0.000    0.000    0.000    0.000    0.000    0.000 
#    0.000    0.000    0.000    0.000    0.000    0.833 
#
# Total GULP energy -267382.182789 kJ/mol
# GULP energy per Si atom -5570.462141 kJ/mol
# Density = 1.330455 g / cm^3
# Si number density = 13.334897 Si / 1000 Ang^3
#
#
#
# Elastic Constant Matrix: (Units=GPa)
#
#
# Indices 1 2 3 4 5 6 
#
# 1 43.3366 34.0010 48.4450 0.0000 0.0000 0.0000
# 2 34.0010 41.4794 47.7098 0.0000 0.0000 0.0000
# 3 48.4450 47.7098 115.2483 0.0000 0.0000 0.0000
# 4 0.0000 0.0000 0.0000 20.4658 0.0000 0.0000
# 5 0.0000 0.0000 0.0000 0.0000 17.3034 0.0000
# 6 0.0000 0.0000 0.0000 0.0000 0.0000 7.5542
#
#
#
# Elastic Compliance Matrix: (Units=1/GPa)
#
#
# Indices 1 2 3 4 5 6 
#
# 1 0.071318 -0.045773 -0.011030 0.000000 0.000000 0.000000
# 2 -0.045773 0.075400 -0.011973 0.000000 0.000000 0.000000
# 3 -0.011030 -0.011973 0.018270 0.000000 0.000000 0.000000
# 4 0.000000 0.000000 0.000000 0.048862 0.000000 0.000000
# 5 0.000000 0.000000 0.000000 0.000000 0.057792 0.000000
# 6 0.000000 0.000000 0.000000 0.000000 0.000000 0.132376
#
#
# Mechanical properties :
#
#
# Convention : Reuss Voigt Hill
#
# Bulk Modulus (GPa) = 36.44825 51.15287 43.80056
# Shear Modulus (GPa) = 9.07910 13.72526 11.40218
#
# Velocity S-wave (km/s) = 2.61215 3.21171 2.92732
# Velocity P-wave (km/s) = 6.04070 7.22474 6.65909
#
# Compressibility (1/GPa) = 0.02743616
#
# Stress axis : x y z
#
# Youngs Moduli (GPa) = 14.02170 13.26253 54.73530
#
# Poissons Ratio (x) = 0.60707 0.60372
# Poissons Ratio (y) = 0.64182 0.65533
# Poissons Ratio (z) = 0.15466 0.15879
#
# Static dielectric constant tensor:
#      x y z
#    x 1.411700 0.000000 0.000000 
#    y 0.000000 1.445190 0.000000 
#    z 0.000000 0.000000 1.462230 
# 
# From -- ./inp_files/68584.got.cif
#   From: 2010.05.17/outbox.cif.g08.bks.cpg/sg74_35_cif.got.tgz:68584.got - 2010.06.03 17:57:02.
