data_PCOD9537715
_publ_section_title
;
Structure prediction by ZEFSAII (Michael W. Deem and Ramdas Pophale) SiO2 
 PCOD9537715
Probable space group: I M M A
;
_chemical_formula_sum "Si O2"
_cell_formula_units_Z 80
_cell_length_a 15.876041
_cell_length_b 21.920403
_cell_length_c 12.166384
_cell_angle_alpha 90.000000
_cell_angle_beta 90.000000
_cell_angle_gamma 90.000000
_cell_volume 4234.013767
_symmetry_space_group_name_H-M "I M M A"
_symmetry_group_IT_number 74
_symmetry_cell_setting 'orthorhombic'
loop_
_space_group_symop_operation_xyz
x,y,z
-x,1/2-y,z
x,-y,-z
-x,1/2+y,-z
-x,-y,-z
x,1/2+y,-z
-x,y,z
x,1/2-y,z
1/2+x,1/2+y,1/2+z
1/2-x,-y,1/2+z
1/2+x,1/2-y,1/2-z
1/2-x,y,1/2-z
1/2-x,1/2-y,1/2-z
1/2+x,y,1/2-z
1/2-x,1/2+y,1/2+z
1/2+x,-y,1/2+z
loop_
_atom_site_type_symbol
_atom_site_label
_atom_site_fract_x
_atom_site_fract_y
_atom_site_fract_z
Si Si1 0.596540 0.819441 0.798725
Si Si2 0.000000 0.895871 0.997997
Si Si3 0.662944 0.322974 0.437347
Si Si4 0.675430 0.401646 0.029951
Si Si5 0.669399 0.980777 0.176429
Si Si6 0.500000 0.498378 0.683491
O O1 0.500000 0.820344 0.759721
O O2 0.617107 0.750000 0.831842
O O3 0.653536 0.835088 0.693894
O O4 0.607745 0.863810 0.900641
O O5 0.081928 0.853562 0.992661
O O6 0.000000 0.941689 0.893275
O O7 0.000000 0.939905 0.103211
O O8 0.664839 0.250000 0.451723
O O9 0.745004 0.357253 0.479833
O O10 0.696555 0.459703 0.106647
O O11 0.649268 0.428514 0.912840
O O12 0.750000 0.963518 0.250000
O O13 0.585436 0.996289 0.245007
#
# Coordination Sequence:
#
# PCOD9537715 Si02
#       6
#    16   8  16  16  16   8
#     4  10  20  34  56  88 120 149 188 241 299 358
#     4  11  21  38  64  91 117 155 198 250 305 362
#     4  11  21  37  62  92 120 154 196 251 306 353
#     4  11  23  36  61  83 122 156 196 241 297 354
#     4  11  24  40  58  90 120 159 206 245 292 360
#     4  11  24  39  64  87 124 163 196 248 309 345
#
# _framework density 18.894601000000002
#
# number of rings (size 3 to 8) (size 9 to 14) (size 15 to 20)
#    0.000    1.200    1.000    6.300    2.800    5.600 
#    0.000    0.000    0.000   13.200    0.000    0.000 
#    0.000    0.000    0.000    0.000    0.000    0.000 
#
# Total GULP energy -223557.356450 kJ/mol
# GULP energy per Si atom -5588.933911 kJ/mol
# Density = 1.885160 g / cm^3
# Si number density = 18.894601 Si / 1000 Ang^3
#
#
#
# Elastic Constant Matrix: (Units=GPa)
#
#
# Indices 1 2 3 4 5 6 
#
# 1 75.0048 21.7437 6.7561 0.0000 0.0000 0.0000
# 2 21.7437 91.7591 30.9293 0.0000 0.0000 0.0000
# 3 6.7561 30.9293 60.4770 0.0000 -0.0001 0.0000
# 4 0.0000 0.0000 0.0000 33.7996 0.0000 0.0000
# 5 0.0000 0.0000 -0.0001 0.0000 92.8119 0.0000
# 6 0.0000 0.0000 0.0000 0.0000 0.0000 34.3355
#
#
#
# Elastic Compliance Matrix: (Units=1/GPa)
#
#
# Indices 1 2 3 4 5 6 
#
# 1 0.014317 -0.003448 0.000164 0.000000 0.000000 0.000000
# 2 -0.003448 0.013998 -0.006774 0.000000 0.000000 0.000000
# 3 0.000164 -0.006774 0.019981 0.000000 0.000000 0.000000
# 4 0.000000 0.000000 0.000000 0.029586 0.000000 0.000000
# 5 0.000000 0.000000 0.000000 0.000000 0.010774 0.000000
# 6 0.000000 0.000000 0.000000 0.000000 0.000000 0.029124
#
#
# Mechanical properties :
#
#
# Convention : Reuss Voigt Hill
#
# Bulk Modulus (GPa) = 35.48485 38.45546 36.97016
# Shear Modulus (GPa) = 33.94626 43.37685 38.66155
#
# Velocity S-wave (km/s) = 4.24324 4.79657 4.52837
# Velocity P-wave (km/s) = 6.54431 7.14653 6.85204
#
# Compressibility (1/GPa) = 0.02818104
#
# Stress axis : x y z
#
# Youngs Moduli (GPa) = 69.84575 71.43649 50.04687
#
# Poissons Ratio (x) = 0.24631 -0.00820
# Poissons Ratio (y) = 0.24082 0.33902
# Poissons Ratio (z) = -0.01145 0.48391
#
# Static dielectric constant tensor:
#      x y z
#    x 1.655590 0.000000 0.000000 
#    y 0.000000 1.658700 0.000000 
#    z 0.000000 0.000000 1.640250 
# 
# From -- ./inp_files/20571.got.cif
#   From: 2010.05.17/outbox.cif.g08.bks.cpg/sg74_11_cif.got.tgz:20571.got - 2010.06.03 17:57:02.
