data_PCOD9537578
_publ_section_title
;
Structure prediction by ZEFSAII (Michael W. Deem and Ramdas Pophale) SiO2 
 PCOD9537578
Probable space group: I M M A
;
_chemical_formula_sum "Si O2"
_cell_formula_units_Z 104
_cell_length_a 8.773376
_cell_length_b 21.541323
_cell_length_c 28.540198
_cell_angle_alpha 90.000000
_cell_angle_beta 90.000000
_cell_angle_gamma 90.000000
_cell_volume 5393.815622
_symmetry_space_group_name_H-M "I M M A"
_symmetry_group_IT_number 74
_symmetry_cell_setting 'orthorhombic'
loop_
_space_group_symop_operation_xyz
x,y,z
-x,1/2-y,z
x,-y,-z
-x,1/2+y,-z
-x,-y,-z
x,1/2+y,-z
-x,y,z
x,1/2-y,z
1/2+x,1/2+y,1/2+z
1/2-x,-y,1/2+z
1/2+x,1/2-y,1/2-z
1/2-x,y,1/2-z
1/2-x,1/2-y,1/2-z
1/2+x,y,1/2-z
1/2-x,1/2+y,1/2+z
1/2+x,-y,1/2+z
loop_
_atom_site_type_symbol
_atom_site_label
_atom_site_fract_x
_atom_site_fract_y
_atom_site_fract_z
Si Si1 0.820941 0.925425 0.699124
Si Si2 0.820711 0.322582 0.372690
Si Si3 0.817542 0.250000 0.697684
Si Si4 0.320210 0.406295 0.451691
Si Si5 0.682832 0.652943 0.374278
Si Si6 0.680924 0.818224 0.026565
Si Si7 0.683699 0.990761 0.382663
O O1 0.750000 0.930915 0.750000
O O2 0.800367 0.857072 0.676761
O O3 0.000000 0.938353 0.701496
O O4 0.746468 0.971610 0.661572
O O5 0.789599 0.250000 0.370566
O O6 0.715831 0.357940 0.409831
O O7 0.000000 0.331242 0.386511
O O8 0.750000 0.250000 0.750000
O O9 0.758873 0.309420 0.668072
O O10 0.000000 0.250000 0.699470
O O11 0.500000 0.409840 0.461655
O O12 0.237490 0.375867 0.495802
O O13 0.267928 0.472487 0.430040
O O14 0.500000 0.657317 0.369801
O O15 0.736403 0.680660 0.423625
O O16 0.728349 0.580638 0.377528
O O17 0.500000 0.822499 0.033318
O O18 0.711933 0.750000 0.003907
O O19 0.500000 0.993673 0.382366
#
# Coordination Sequence:
#
# PCOD9537578 Si02
#       7
#    16  16   8  16  16  16  16
#     4  10  20  34  54  78 107 146 189 237 292 349
#     4   9  18  33  51  74 108 148 192 241 291 343
#     4  12  26  46  70  98 128 158 196 244 301 364
#     4  10  20  35  56  84 117 155 199 243 290 345
#     4  11  23  42  67  92 119 153 194 241 295 350
#     4  11  23  38  58  86 123 162 199 242 292 349
#     4   9  21  40  60  84 116 152 193 244 296 351
#
# _framework density 19.281341000000001
#
# number of rings (size 3 to 8) (size 9 to 14) (size 15 to 20)
#    0.000    1.846    0.769    3.000    0.000    7.077 
#    0.000    3.077    0.000    0.000    0.000    0.000 
#    0.000    0.000    0.000    0.000    0.000    0.000 
#
# Total GULP energy -290365.682387 kJ/mol
# GULP energy per Si atom -5583.955431 kJ/mol
# Density = 1.923746 g / cm^3
# Si number density = 19.281341 Si / 1000 Ang^3
#
#
#
# Elastic Constant Matrix: (Units=GPa)
#
#
# Indices 1 2 3 4 5 6 
#
# 1 48.0824 44.3896 31.6681 0.0000 0.0000 0.0000
# 2 44.3896 139.2534 44.6216 0.0000 0.0000 0.0000
# 3 31.6681 44.6216 108.5267 0.0000 0.0000 0.0000
# 4 0.0000 0.0000 0.0000 27.6340 0.0000 0.0000
# 5 0.0000 0.0000 0.0000 0.0000 34.1831 0.0000
# 6 0.0000 0.0000 0.0000 0.0000 0.0000 18.0119
#
#
#
# Elastic Compliance Matrix: (Units=1/GPa)
#
#
# Indices 1 2 3 4 5 6 
#
# 1 0.032570 -0.008450 -0.006030 0.000000 0.000000 0.000000
# 2 -0.008450 0.010463 -0.001836 0.000000 0.000000 0.000000
# 3 -0.006030 -0.001836 0.011729 0.000000 0.000000 0.000000
# 4 0.000000 0.000000 0.000000 0.036187 0.000000 0.000000
# 5 0.000000 0.000000 0.000000 0.000000 0.029254 0.000000
# 6 0.000000 0.000000 0.000000 0.000000 0.000000 0.055519
#
#
# Mechanical properties :
#
#
# Convention : Reuss Voigt Hill
#
# Bulk Modulus (GPa) = 45.18768 59.69123 52.43945
# Shear Modulus (GPa) = 23.17699 27.64469 25.41084
#
# Velocity S-wave (km/s) = 3.47081 3.79060 3.63422
# Velocity P-wave (km/s) = 6.28879 7.08403 6.69822
#
# Compressibility (1/GPa) = 0.02212993
#
# Stress axis : x y z
#
# Youngs Moduli (GPa) = 30.70303 95.57291 85.26059
#
# Poissons Ratio (x) = 0.80761 0.51409
# Poissons Ratio (y) = 0.25945 0.15656
# Poissons Ratio (z) = 0.18513 0.17550
#
# Static dielectric constant tensor:
#      x y z
#    x 1.649510 0.000000 0.000000 
#    y 0.000000 1.696510 0.000000 
#    z 0.000000 0.000000 1.659190 
# 
# From -- ./inp_files/64426.got.cif
#   From: 2010.05.17/outbox.cif.g08.bks.cpg/sg74_33_cif.got.tgz:64426.got - 2010.06.03 17:57:02.
