data_PCOD9537613
_publ_section_title
;
Structure prediction by ZEFSAII (Michael W. Deem and Ramdas Pophale) SiO2 
 PCOD9537613
Probable space group: I M M A
;
_chemical_formula_sum "Si O2"
_cell_formula_units_Z 96
_cell_length_a 8.880696
_cell_length_b 27.414746
_cell_length_c 19.436485
_cell_angle_alpha 90.000000
_cell_angle_beta 90.000000
_cell_angle_gamma 90.000000
_cell_volume 4732.046000
_symmetry_space_group_name_H-M "I M M A"
_symmetry_group_IT_number 74
_symmetry_cell_setting 'orthorhombic'
loop_
_space_group_symop_operation_xyz
x,y,z
-x,1/2-y,z
x,-y,-z
-x,1/2+y,-z
-x,-y,-z
x,1/2+y,-z
-x,y,z
x,1/2-y,z
1/2+x,1/2+y,1/2+z
1/2-x,-y,1/2+z
1/2+x,1/2-y,1/2-z
1/2-x,y,1/2-z
1/2-x,1/2-y,1/2-z
1/2+x,y,1/2-z
1/2-x,1/2+y,1/2+z
1/2+x,-y,1/2+z
loop_
_atom_site_type_symbol
_atom_site_label
_atom_site_fract_x
_atom_site_fract_y
_atom_site_fract_z
Si Si1 0.168880 0.692601 0.035727
Si Si2 0.829635 0.444403 0.686671
Si Si3 0.820661 0.191853 0.393873
Si Si4 0.680220 0.399276 0.324641
Si Si5 0.824729 0.476384 0.429474
Si Si6 0.681431 0.333164 0.821505
O O1 0.152489 0.750000 0.024311
O O2 0.250830 0.687647 0.108619
O O3 0.000000 0.670692 0.036442
O O4 0.267327 0.676037 0.970678
O O5 0.750000 0.469672 0.750000
O O6 0.824963 0.477447 0.620932
O O7 0.769746 0.390151 0.675257
O O8 0.000000 0.437039 0.708682
O O9 0.789305 0.250000 0.383898
O O10 0.734053 0.155685 0.342827
O O11 0.000000 0.185212 0.387332
O O12 0.500000 0.402367 0.321443
O O13 0.750000 0.412424 0.250000
O O14 0.741063 0.434040 0.386675
O O15 0.762834 0.500000 0.500000
O O16 0.000000 0.538953 0.558329
O O17 0.500000 0.328419 0.821036
O O18 0.750000 0.313329 0.750000
#
# Coordination Sequence:
#
# PCOD9537613 Si02
#       6
#    16  16  16  16  16  16
#     4  10  21  37  57  84 119 157 198 250 311 374
#     4   9  19  35  55  81 111 153 197 244 299 354
#     4  10  22  42  68  96 126 164 209 258 316 381
#     4  12  26  44  67  97 132 171 213 261 315 374
#     4  10  22  40  63  92 127 166 206 255 311 366
#     4  10  20  34  54  81 113 154 205 255 309 369
#
# _framework density 20.287208
#
# number of rings (size 3 to 8) (size 9 to 14) (size 15 to 20)
#    0.000    1.833    0.000    3.500    2.333    5.667 
#    0.000    0.000    0.000    0.000    0.000    0.000 
#    0.000    0.000    0.000    0.000    0.000    0.000 
#
# Total GULP energy -267717.282673 kJ/mol
# GULP energy per Si atom -5577.443389 kJ/mol
# Density = 2.024103 g / cm^3
# Si number density = 20.287208 Si / 1000 Ang^3
#
#
#
# Elastic Constant Matrix: (Units=GPa)
#
#
# Indices 1 2 3 4 5 6 
#
# 1 105.9273 42.0992 55.8344 0.0000 0.0000 0.0000
# 2 42.0992 63.2594 37.2074 0.0000 0.0000 0.0000
# 3 55.8344 37.2074 110.1126 0.0001 0.0000 0.0000
# 4 0.0000 0.0000 0.0001 16.6730 0.0000 0.0000
# 5 0.0000 0.0000 0.0000 0.0000 31.3162 0.0000
# 6 0.0000 0.0000 0.0000 0.0000 0.0000 28.3587
#
#
#
# Elastic Compliance Matrix: (Units=1/GPa)
#
#
# Indices 1 2 3 4 5 6 
#
# 1 0.014933 -0.006845 -0.005259 0.000000 0.000000 0.000000
# 2 -0.006845 0.022866 -0.004256 0.000000 0.000000 0.000000
# 3 -0.005259 -0.004256 0.013186 0.000000 0.000000 0.000000
# 4 0.000000 0.000000 0.000000 0.059977 0.000000 0.000000
# 5 0.000000 0.000000 0.000000 0.000000 0.031932 0.000000
# 6 0.000000 0.000000 0.000000 0.000000 0.000000 0.035263
#
#
# Mechanical properties :
#
#
# Convention : Reuss Voigt Hill
#
# Bulk Modulus (GPa) = 54.74581 61.06460 57.90521
# Shear Modulus (GPa) = 23.04515 24.88014 23.96264
#
# Velocity S-wave (km/s) = 3.37403 3.50579 3.44054
# Velocity P-wave (km/s) = 6.49791 6.82296 6.66242
#
# Compressibility (1/GPa) = 0.01826624
#
# Stress axis : x y z
#
# Youngs Moduli (GPa) = 66.96676 43.73272 75.83557
#
# Poissons Ratio (x) = 0.29933 0.39883
# Poissons Ratio (y) = 0.45836 0.32275
# Poissons Ratio (z) = 0.35219 0.18612
#
# Static dielectric constant tensor:
#      x y z
#    x 1.729650 0.000000 0.000000 
#    y 0.000000 1.746530 0.000000 
#    z 0.000000 0.000000 1.890530 
# 
# From -- ./inp_files/49138.got.cif
#   From: 2010.05.17/outbox.cif.g08.bks.cpg/sg74_25_cif.got.tgz:49138.got - 2010.06.03 17:57:02.
