data_PCOD9537584
_publ_section_title
;
Structure prediction by ZEFSAII (Michael W. Deem and Ramdas Pophale) SiO2 
 PCOD9537584
Probable space group: I M M A
;
_chemical_formula_sum "Si O2"
_cell_formula_units_Z 96
_cell_length_a 11.805763
_cell_length_b 14.925285
_cell_length_c 26.001556
_cell_angle_alpha 90.000000
_cell_angle_beta 90.000000
_cell_angle_gamma 90.000000
_cell_volume 4581.587987
_symmetry_space_group_name_H-M "I M M A"
_symmetry_group_IT_number 74
_symmetry_cell_setting 'orthorhombic'
loop_
_space_group_symop_operation_xyz
x,y,z
-x,1/2-y,z
x,-y,-z
-x,1/2+y,-z
-x,-y,-z
x,1/2+y,-z
-x,y,z
x,1/2-y,z
1/2+x,1/2+y,1/2+z
1/2-x,-y,1/2+z
1/2+x,1/2-y,1/2-z
1/2-x,y,1/2-z
1/2-x,1/2-y,1/2-z
1/2+x,y,1/2-z
1/2-x,1/2+y,1/2+z
1/2+x,-y,1/2+z
loop_
_atom_site_type_symbol
_atom_site_label
_atom_site_fract_x
_atom_site_fract_y
_atom_site_fract_z
Si Si1 0.367645 0.355068 0.776398
Si Si2 0.500000 0.360101 0.362222
Si Si3 0.130906 0.110245 0.400345
Si Si4 0.279717 0.146308 0.305089
Si Si5 0.500000 0.357546 0.480129
Si Si6 0.750502 0.604091 0.003565
Si Si7 0.629550 0.394141 0.895443
O O1 0.500000 0.390732 0.767516
O O2 0.373860 0.250000 0.762251
O O3 0.250000 0.390437 0.750000
O O4 0.346409 0.362877 0.837731
O O5 0.500000 0.250000 0.363578
O O6 0.611110 0.393582 0.333100
O O7 0.500000 0.389265 0.421046
O O8 0.179718 0.144813 0.346522
O O9 0.203592 0.142585 0.449577
O O10 0.000000 0.133880 0.407902
O O11 0.139433 0.002381 0.395537
O O12 0.310541 0.250000 0.294974
O O13 0.250000 0.105656 0.250000
O O14 0.500000 0.250000 0.480364
O O15 0.615116 0.389643 0.505257
O O16 0.701738 0.640948 0.056692
O O17 0.715289 0.500000 0.000000
O O18 0.500000 0.370768 0.906778
#
# Coordination Sequence:
#
# PCOD9537584 Si02
#       7
#    16   8  16  16   8  16  16
#     4   9  18  35  59  82 108 142 177 218 272 329
#     4   9  18  35  53  71 101 141 176 215 267 313
#     4  10  20  34  54  79 106 137 177 223 266 310
#     4  10  21  35  53  75 103 142 184 222 264 312
#     4  11  21  35  55  77 109 145 177 217 265 315
#     4  10  20  36  56  78 107 142 177 215 265 322
#     4   9  19  36  57  80 107 138 174 216 265 320
#
# _framework density 20.953434000000001
#
# number of rings (size 3 to 8) (size 9 to 14) (size 15 to 20)
#    0.000    2.333    1.667    0.750    1.167    3.667 
#    1.500    0.000    0.000    3.000    0.000    0.000 
#    0.000    0.000    0.000    0.000    0.000    0.000 
#
# Total GULP energy -267637.312739 kJ/mol
# GULP energy per Si atom -5575.777349 kJ/mol
# Density = 2.090574 g / cm^3
# Si number density = 20.953434 Si / 1000 Ang^3
#
#
#
# Elastic Constant Matrix: (Units=GPa)
#
#
# Indices 1 2 3 4 5 6 
#
# 1 132.6539 -7.4264 78.4006 0.0000 0.0000 0.0000
# 2 -7.4264 38.9469 -3.2339 0.0000 0.0000 0.0000
# 3 78.4006 -3.2339 138.0672 0.0000 0.0000 0.0000
# 4 0.0000 0.0000 0.0000 18.7467 0.0000 0.0000
# 5 0.0000 0.0000 0.0000 0.0000 44.0997 0.0000
# 6 0.0000 0.0000 0.0000 0.0000 0.0000 100.2509
#
#
#
# Elastic Compliance Matrix: (Units=1/GPa)
#
#
# Indices 1 2 3 4 5 6 
#
# 1 0.011451 0.001647 -0.006464 0.000000 0.000000 0.000000
# 2 0.001647 0.025963 -0.000327 0.000000 0.000000 0.000000
# 3 -0.006464 -0.000327 0.010906 0.000000 0.000000 0.000000
# 4 0.000000 0.000000 0.000000 0.053343 0.000000 0.000000
# 5 0.000000 0.000000 0.000000 0.000000 0.022676 0.000000
# 6 0.000000 0.000000 0.000000 0.000000 0.000000 0.009975
#
#
# Mechanical properties :
#
#
# Convention : Reuss Voigt Hill
#
# Bulk Modulus (GPa) = 26.29410 49.46095 37.87753
# Shear Modulus (GPa) = 31.79094 48.74798 40.26946
#
# Velocity S-wave (km/s) = 3.89937 4.82860 4.38865
# Velocity P-wave (km/s) = 5.73145 7.39889 6.61790
#
# Compressibility (1/GPa) = 0.03803134
#
# Stress axis : x y z
#
# Youngs Moduli (GPa) = 87.33073 38.51656 91.69658
#
# Poissons Ratio (x) = -0.06343 0.59269
# Poissons Ratio (y) = -0.14381 0.02998
# Poissons Ratio (z) = 0.56448 0.01259
#
# Static dielectric constant tensor:
#      x y z
#    x 1.757360 0.000000 0.000000 
#    y 0.000000 1.818000 0.000000 
#    z 0.000000 0.000000 1.743630 
# 
# From -- ./inp_files/50807.got.cif
#   From: 2010.05.17/outbox.cif.g08.bks.cpg/sg74_26_cif.got.tgz:50807.got - 2010.06.03 17:57:02.
