data_PCOD9537517
_publ_section_title
;
Structure prediction by ZEFSAII (Michael W. Deem and Ramdas Pophale) SiO2 
 PCOD9537517
Probable space group: I M M A
;
_chemical_formula_sum "Si O2"
_cell_formula_units_Z 80
_cell_length_a 27.777717
_cell_length_b 8.969995
_cell_length_c 18.295318
_cell_angle_alpha 90.000000
_cell_angle_beta 90.000000
_cell_angle_gamma 90.000000
_cell_volume 4558.570886
_symmetry_space_group_name_H-M "I M M A"
_symmetry_group_IT_number 74
_symmetry_cell_setting 'orthorhombic'
loop_
_space_group_symop_operation_xyz
x,y,z
-x,1/2-y,z
x,-y,-z
-x,1/2+y,-z
-x,-y,-z
x,1/2+y,-z
-x,y,z
x,1/2-y,z
1/2+x,1/2+y,1/2+z
1/2-x,-y,1/2+z
1/2+x,1/2-y,1/2-z
1/2-x,y,1/2-z
1/2-x,1/2-y,1/2-z
1/2+x,y,1/2-z
1/2-x,1/2+y,1/2+z
1/2+x,-y,1/2+z
loop_
_atom_site_type_symbol
_atom_site_label
_atom_site_fract_x
_atom_site_fract_y
_atom_site_fract_z
Si Si1 0.786688 0.927783 0.575870
Si Si2 0.810885 0.428340 0.866525
Si Si3 0.553738 0.929643 0.263901
Si Si4 0.416494 0.927008 0.425229
Si Si5 0.848545 0.572193 0.719400
O O1 0.782221 0.750000 0.567875
O O2 0.822767 0.959162 0.642731
O O3 0.802925 0.000000 0.500000
O O4 0.735051 0.996262 0.597148
O O5 0.804984 0.250000 0.863006
O O6 0.859926 0.460152 0.911209
O O7 0.819951 0.493223 0.785565
O O8 0.500000 0.963735 0.237450
O O9 0.561009 0.750000 0.260536
O O10 0.558044 0.972515 0.349711
O O11 0.597231 0.010062 0.223008
O O12 0.422046 0.750000 0.431893
O O13 0.433341 0.000000 0.500000
O O14 0.848169 0.750000 0.731581
#
# Coordination Sequence:
#
# PCOD9537517 Si02
#       5
#    16  16  16  16  16
#     4  11  23  36  52  77 108 139 171 211 257 306
#     4  10  20  34  53  76 105 143 180 211 248 298
#     4   9  19  36  55  74  98 131 172 216 263 315
#     4   9  18  30  45  70 103 136 169 205 244 289
#     4  10  21  36  54  78 106 134 170 216 259 304
#
# _framework density 17.54936
#
# number of rings (size 3 to 8) (size 9 to 14) (size 15 to 20)
#    0.000    2.200    0.000    4.200    0.000   12.000 
#    0.000    0.000    0.000    0.600    0.000    0.000 
#    0.000    0.000    0.000    0.000    0.000    0.000 
#
# Total GULP energy -223346.523338 kJ/mol
# GULP energy per Si atom -5583.663083 kJ/mol
# Density = 1.750942 g / cm^3
# Si number density = 17.549360 Si / 1000 Ang^3
#
#
#
# Elastic Constant Matrix: (Units=GPa)
#
#
# Indices 1 2 3 4 5 6 
#
# 1 58.0451 22.6382 14.1710 0.0000 0.0000 0.0000
# 2 22.6382 31.9382 28.9949 0.0000 0.0000 0.0000
# 3 14.1710 28.9949 68.7721 0.0000 0.0000 0.0000
# 4 0.0000 0.0000 0.0000 31.5193 0.0000 0.0000
# 5 0.0000 0.0000 0.0000 0.0000 -0.5394 0.0000
# 6 0.0000 0.0000 0.0000 0.0000 0.0000 91.2751
#
#
#
# Elastic Compliance Matrix: (Units=1/GPa)
#
#
# Indices 1 2 3 4 5 6 
#
# 1 0.024367 -0.020597 0.003663 0.000000 0.000000 0.000000
# 2 -0.020597 0.068136 -0.024483 0.000000 0.000000 0.000000
# 3 0.003663 -0.024483 0.024108 0.000000 0.000000 0.000000
# 4 0.000000 0.000000 0.000000 0.031727 0.000000 0.000000
# 5 0.000000 0.000000 0.000000 0.000000 -1.853893 0.000000
# 6 0.000000 0.000000 0.000000 0.000000 0.000000 0.010956
#
#
# Mechanical properties :
#
#
# Convention : Reuss Voigt Hill
#
# Bulk Modulus (GPa) = 29.60523 32.26264 30.93394
# Shear Modulus (GPa) = -3.12401 30.64775 13.76187
#
# Velocity S-wave (km/s) = -1.33566 4.18350 2.80336
# Velocity P-wave (km/s) = 3.81152 6.46215 5.30505
#
# Compressibility (1/GPa) = 0.03377781
#
# Stress axis : x y z
#
# Youngs Moduli (GPa) = 41.03967 14.67653 41.47975
#
# Poissons Ratio (x) = 0.30229 -0.15193
# Poissons Ratio (y) = 0.84528 1.01553
# Poissons Ratio (z) = -0.15032 0.35932
#
# Static dielectric constant tensor:
#      x y z
#    x 1.597160 0.000000 0.000000 
#    y 0.000000 1.585360 0.000000 
#    z 0.000000 0.000000 1.582560 
# 
# From -- ./inp_files/39674.got.cif
#   From: 2010.05.17/outbox.cif.g08.bks.cpg/sg74_20_cif.got.tgz:39674.got - 2010.06.03 17:57:02.
