data_PCOD9537675
_publ_section_title
;
Structure prediction by ZEFSAII (Michael W. Deem and Ramdas Pophale) SiO2 
 PCOD9537675
Probable space group: I M M A
;
_chemical_formula_sum "Si O2"
_cell_formula_units_Z 116
_cell_length_a 28.587263
_cell_length_b 18.437671
_cell_length_c 12.692243
_cell_angle_alpha 90.000000
_cell_angle_beta 90.000000
_cell_angle_gamma 90.000000
_cell_volume 6689.859805
_symmetry_space_group_name_H-M "I M M A"
_symmetry_group_IT_number 74
_symmetry_cell_setting 'orthorhombic'
loop_
_space_group_symop_operation_xyz
x,y,z
-x,1/2-y,z
x,-y,-z
-x,1/2+y,-z
-x,-y,-z
x,1/2+y,-z
-x,y,z
x,1/2-y,z
1/2+x,1/2+y,1/2+z
1/2-x,-y,1/2+z
1/2+x,1/2-y,1/2-z
1/2-x,y,1/2-z
1/2-x,1/2-y,1/2-z
1/2+x,y,1/2-z
1/2-x,1/2+y,1/2+z
1/2+x,-y,1/2+z
loop_
_atom_site_type_symbol
_atom_site_label
_atom_site_fract_x
_atom_site_fract_y
_atom_site_fract_z
Si Si1 0.636441 0.332912 0.107671
Si Si2 0.699496 0.335745 0.898732
Si Si3 0.791758 0.915309 0.018926
Si Si4 0.651280 0.565691 0.278770
Si Si5 0.304297 0.407064 0.280648
Si Si6 0.000000 0.250000 0.778832
Si Si7 0.053209 0.084641 0.475986
Si Si8 0.449482 0.890930 0.214886
O O1 0.620728 0.250000 0.110966
O O2 0.669481 0.351314 0.205339
O O3 0.591859 0.384882 0.101389
O O4 0.666293 0.343774 0.000937
O O5 0.704424 0.250000 0.875590
O O6 0.748741 0.371672 0.930917
O O7 0.676458 0.379540 0.802526
O O8 0.833632 0.914291 0.102755
O O9 0.806061 0.887469 0.903909
O O10 0.777761 0.000000 0.000000
O O11 0.671732 0.485237 0.261813
O O12 0.595897 0.570089 0.259437
O O13 0.250000 0.412406 0.250000
O O14 0.040032 0.185408 0.770259
O O15 0.057911 0.123067 0.590154
O O16 0.000000 0.094793 0.439338
O O17 0.060861 0.000000 0.500000
O O18 0.500000 0.931834 0.221284
#
# Coordination Sequence:
#
# PCOD9537675 Si02
#       8
#    16  16  16  16  16   4  16  16
#     4  11  24  35  57  84 114 156 193 232 281 336
#     4  11  23  35  53  87 118 147 184 233 295 339
#     4  10  22  39  57  80 110 153 199 235 285 338
#     4  11  21  35  60  86 113 145 188 245 292 339
#     4  11  22  40  60  77 112 161 201 234 274 343
#     4   8  20  32  54  80 108 158 170 216 294 362
#     4  10  20  34  55  86 115 148 189 232 286 340
#     4   9  19  33  54  77 113 142 181 220 285 352
#
# _framework density 17.339675
#
# number of rings (size 3 to 8) (size 9 to 14) (size 15 to 20)
#    0.414    1.241    2.759    2.897    1.931    2.207 
#    0.000    0.000    0.000    4.552    0.000    0.000 
#    0.000    0.000    0.000    0.000    0.000    0.000 
#
# Total GULP energy -323028.904278 kJ/mol
# GULP energy per Si atom -5569.463867 kJ/mol
# Density = 1.730021 g / cm^3
# Si number density = 17.339675 Si / 1000 Ang^3
#
#
#
# Elastic Constant Matrix: (Units=GPa)
#
#
# Indices 1 2 3 4 5 6 
#
# 1 120.8705 27.6262 25.5095 0.0000 0.0000 0.0000
# 2 27.6262 25.3300 15.1976 0.0000 0.0000 0.0000
# 3 25.5095 15.1976 82.7307 0.0000 0.0000 0.0000
# 4 0.0000 0.0000 0.0000 11.5749 0.0000 0.0000
# 5 0.0000 0.0000 0.0000 0.0000 16.9352 0.0000
# 6 0.0000 0.0000 0.0000 0.0000 0.0000 9.5545
#
#
#
# Elastic Compliance Matrix: (Units=1/GPa)
#
#
# Indices 1 2 3 4 5 6 
#
# 1 0.011154 -0.011353 -0.001354 0.000000 0.000000 0.000000
# 2 -0.011353 0.055924 -0.006773 0.000000 0.000000 0.000000
# 3 -0.001354 -0.006773 0.013749 0.000000 0.000000 0.000000
# 4 0.000000 0.000000 0.000000 0.086394 0.000000 0.000000
# 5 0.000000 0.000000 0.000000 0.000000 0.059048 0.000000
# 6 0.000000 0.000000 0.000000 0.000000 0.000000 0.104662
#
#
# Mechanical properties :
#
#
# Convention : Reuss Voigt Hill
#
# Bulk Modulus (GPa) = 23.88414 40.62199 32.25307
# Shear Modulus (GPa) = 13.02603 18.31944 15.67274
#
# Velocity S-wave (km/s) = 2.74383 3.25392 3.00970
# Velocity P-wave (km/s) = 4.88286 6.13151 5.54246
#
# Compressibility (1/GPa) = 0.04186878
#
# Stress axis : x y z
#
# Youngs Moduli (GPa) = 89.65550 17.88126 72.73264
#
# Poissons Ratio (x) = 0.20300 0.09846
# Poissons Ratio (y) = 1.01784 0.49260
# Poissons Ratio (z) = 0.12137 0.12111
#
# Static dielectric constant tensor:
#      x y z
#    x 1.590670 0.000000 0.000000 
#    y 0.000000 1.592360 0.000000 
#    z 0.000000 0.000000 1.591820 
# 
# From -- ./inp_files/27394.got.cif
#   From: 2010.05.17/outbox.cif.g08.bks.cpg/sg74_14_cif.got.tgz:27394.got - 2010.06.03 17:57:02.
