data_PCOD9537649
_publ_section_title
;
Structure prediction by ZEFSAII (Michael W. Deem and Ramdas Pophale) SiO2 
 PCOD9537649
Probable space group: I M M A
;
_chemical_formula_sum "Si O2"
_cell_formula_units_Z 72
_cell_length_a 9.110587
_cell_length_b 29.531547
_cell_length_c 14.228782
_cell_angle_alpha 90.000000
_cell_angle_beta 90.000000
_cell_angle_gamma 90.000000
_cell_volume 3828.249930
_symmetry_space_group_name_H-M "I M M A"
_symmetry_group_IT_number 74
_symmetry_cell_setting 'orthorhombic'
loop_
_space_group_symop_operation_xyz
x,y,z
-x,1/2-y,z
x,-y,-z
-x,1/2+y,-z
-x,-y,-z
x,1/2+y,-z
-x,y,z
x,1/2-y,z
1/2+x,1/2+y,1/2+z
1/2-x,-y,1/2+z
1/2+x,1/2-y,1/2-z
1/2-x,y,1/2-z
1/2-x,1/2-y,1/2-z
1/2+x,y,1/2-z
1/2-x,1/2+y,1/2+z
1/2+x,-y,1/2+z
loop_
_atom_site_type_symbol
_atom_site_label
_atom_site_fract_x
_atom_site_fract_y
_atom_site_fract_z
Si Si1 0.324312 0.839156 0.032421
Si Si2 0.676278 0.930848 0.453103
Si Si3 0.175910 0.024131 0.150416
Si Si4 0.675732 0.750000 0.149879
Si Si5 0.673004 0.304243 0.348468
O O1 0.500000 0.841292 0.024924
O O2 0.283550 0.795247 0.093521
O O3 0.259656 0.885359 0.073486
O O4 0.251709 0.830859 0.931305
O O5 0.500000 0.924467 0.450757
O O6 0.711231 0.973176 0.385478
O O7 0.716186 0.944713 0.560670
O O8 0.250000 0.034523 0.250000
O O9 0.000000 0.027073 0.160870
O O10 0.500000 0.750000 0.159628
O O11 0.750000 0.750000 0.250000
O O12 0.500000 0.314266 0.345340
O O13 0.690213 0.250000 0.364617
O O14 0.750000 0.314710 0.250000
#
# Coordination Sequence:
#
# PCOD9537649 Si02
#       5
#    16  16  16   8  16
#     4  11  22  38  58  83 116 151 190 241 286 333
#     4   9  20  38  57  82 114 150 187 227 281 345
#     4   9  19  37  60  83 113 147 183 230 283 339
#     4  10  24  42  59  80 111 150 195 240 284 330
#     4  10  20  34  55  81 109 146 187 229 279 335
#
# _framework density 18.807549000000002
#
# number of rings (size 3 to 8) (size 9 to 14) (size 15 to 20)
#    0.000    2.222    1.111    2.667    0.000    6.222 
#    0.000    8.889    0.000    0.000    0.000    0.000 
#    0.000    0.000    0.000    0.000    0.000    0.000 
#
# Total GULP energy -201035.848057 kJ/mol
# GULP energy per Si atom -5584.329113 kJ/mol
# Density = 1.876474 g / cm^3
# Si number density = 18.807549 Si / 1000 Ang^3
#
#
#
# Elastic Constant Matrix: (Units=GPa)
#
#
# Indices 1 2 3 4 5 6 
#
# 1 33.2221 32.4945 10.5049 0.0000 0.0000 0.0000
# 2 32.4945 95.8041 8.9425 0.0000 0.0000 0.0000
# 3 10.5049 8.9425 49.6153 0.0003 0.0000 0.0000
# 4 0.0000 0.0000 0.0003 6.3948 0.0000 0.0000
# 5 0.0000 0.0000 0.0000 0.0000 35.0749 0.0000
# 6 0.0000 0.0000 0.0000 0.0000 0.0000 20.8809
#
#
#
# Elastic Compliance Matrix: (Units=1/GPa)
#
#
# Indices 1 2 3 4 5 6 
#
# 1 0.047492 -0.015429 -0.007274 0.000000 0.000000 0.000000
# 2 -0.015429 0.015629 0.000450 0.000000 0.000000 0.000000
# 3 -0.007274 0.000450 0.021614 -0.000001 0.000000 0.000000
# 4 0.000000 0.000000 -0.000001 0.156377 0.000000 0.000000
# 5 0.000000 0.000000 0.000000 0.000000 0.028510 0.000000
# 6 0.000000 0.000000 0.000000 0.000000 0.000000 0.047891
#
#
# Mechanical properties :
#
#
# Convention : Reuss Voigt Hill
#
# Bulk Modulus (GPa) = 24.85846 31.39170 28.12508
# Shear Modulus (GPa) = 13.31804 20.91676 17.11740
#
# Velocity S-wave (km/s) = 2.66394 3.33850 3.02012
# Velocity P-wave (km/s) = 4.76530 5.62033 5.21038
#
# Compressibility (1/GPa) = 0.04022776
#
# Stress axis : x y z
#
# Youngs Moduli (GPa) = 21.05622 63.98284 46.26590
#
# Poissons Ratio (x) = 0.98720 0.33656
# Poissons Ratio (y) = 0.32488 -0.02081
# Poissons Ratio (z) = 0.15317 -0.02878
#
# Static dielectric constant tensor:
#      x y z
#    x 1.617130 0.000000 0.000000 
#    y 0.000000 1.680510 0.000000 
#    z 0.000000 0.000000 1.638530 
# 
# From -- ./inp_files/29133.got.cif
#   From: 2010.05.17/outbox.cif.g08.bks.cpg/sg74_15_cif.got.tgz:29133.got - 2010.06.03 17:57:02.
