data_PCOD9537683
_publ_section_title
;
Structure prediction by ZEFSAII (Michael W. Deem and Ramdas Pophale) SiO2 
 PCOD9537683
Probable space group: I M M A
;
_chemical_formula_sum "Si O2"
_cell_formula_units_Z 112
_cell_length_a 14.385712
_cell_length_b 15.241942
_cell_length_c 23.195640
_cell_angle_alpha 90.000000
_cell_angle_beta 90.000000
_cell_angle_gamma 90.000000
_cell_volume 5086.019559
_symmetry_space_group_name_H-M "I M M A"
_symmetry_group_IT_number 74
_symmetry_cell_setting 'orthorhombic'
loop_
_space_group_symop_operation_xyz
x,y,z
-x,1/2-y,z
x,-y,-z
-x,1/2+y,-z
-x,-y,-z
x,1/2+y,-z
-x,y,z
x,1/2-y,z
1/2+x,1/2+y,1/2+z
1/2-x,-y,1/2+z
1/2+x,1/2-y,1/2-z
1/2-x,y,1/2-z
1/2-x,1/2-y,1/2-z
1/2+x,y,1/2-z
1/2-x,1/2+y,1/2+z
1/2+x,-y,1/2+z
loop_
_atom_site_type_symbol
_atom_site_label
_atom_site_fract_x
_atom_site_fract_y
_atom_site_fract_z
Si Si1 0.230660 0.848340 0.682192
Si Si2 0.105622 0.590133 0.893053
Si Si3 0.107476 0.115477 0.878492
Si Si4 0.389722 0.015709 0.841544
Si Si5 0.386672 0.655262 0.250889
Si Si6 0.893857 0.854037 0.449582
Si Si7 0.205534 0.350744 0.998439
O O1 0.191916 0.750000 0.674526
O O2 0.250000 0.862015 0.750000
O O3 0.327401 0.855941 0.648220
O O4 0.166086 0.925466 0.657505
O O5 0.107398 0.489469 0.873245
O O6 0.146993 0.592552 0.957336
O O7 0.000000 0.621901 0.893119
O O8 0.141991 0.150432 0.817349
O O9 0.000000 0.143494 0.887368
O O10 0.166996 0.141717 0.933651
O O11 0.500000 0.998219 0.835638
O O12 0.356463 0.073475 0.787022
O O13 0.378669 0.080171 0.896285
O O14 0.500000 0.652202 0.250824
O O15 0.359609 0.750000 0.226089
O O16 0.883455 0.750000 0.433400
O O17 0.814386 0.873323 0.496108
O O18 0.000000 0.865406 0.469789
O O19 0.195657 0.250000 0.017380
#
# Coordination Sequence:
#
# PCOD9537683 Si02
#       7
#    16  16  16  16  16  16  16
#     4  11  25  43  63  88 118 156 205 260 314 367
#     4  11  24  43  66  89 116 156 205 254 307 366
#     4  10  20  34  55  86 125 164 200 248 309 367
#     4  10  20  37  62  90 123 164 206 251 305 365
#     4   9  17  31  56  92 130 165 202 245 298 364
#     4   9  19  37  61  90 125 164 204 248 303 367
#     4  11  22  36  58  88 121 159 204 252 302 361
#
# _framework density 22.021149999999999
#
# number of rings (size 3 to 8) (size 9 to 14) (size 15 to 20)
#    0.000    1.857    0.000    3.857    0.000    7.429 
#    0.000    2.143    0.000    9.429    0.000    0.000 
#    0.000    0.000    0.000    0.000    0.000    0.000 
#
# Total GULP energy -313286.184433 kJ/mol
# GULP energy per Si atom -5594.396151 kJ/mol
# Density = 2.197103 g / cm^3
# Si number density = 22.021150 Si / 1000 Ang^3
#
#
#
# Elastic Constant Matrix: (Units=GPa)
#
#
# Indices 1 2 3 4 5 6 
#
# 1 116.3960 48.3875 38.1346 0.0000 0.0000 0.0000
# 2 48.3875 111.8299 15.0540 0.0000 0.0000 0.0000
# 3 38.1346 15.0540 40.3532 0.0000 0.0000 0.0000
# 4 0.0000 0.0000 0.0000 8.4560 0.0000 0.0000
# 5 0.0000 0.0000 0.0000 0.0000 23.7606 0.0000
# 6 0.0000 0.0000 0.0000 0.0000 0.0000 21.3226
#
#
#
# Elastic Compliance Matrix: (Units=1/GPa)
#
#
# Indices 1 2 3 4 5 6 
#
# 1 0.014415 -0.004636 -0.011893 0.000000 0.000000 0.000000
# 2 -0.004636 0.010906 0.000313 0.000000 0.000000 0.000000
# 3 -0.011893 0.000313 0.035904 0.000000 0.000000 0.000000
# 4 0.000000 0.000000 0.000000 0.118259 0.000000 0.000000
# 5 0.000000 0.000000 0.000000 0.000000 0.042087 0.000000
# 6 0.000000 0.000000 0.000000 0.000000 0.000000 0.046899
#
#
# Mechanical properties :
#
#
# Convention : Reuss Voigt Hill
#
# Bulk Modulus (GPa) = 34.73203 52.41458 43.57331
# Shear Modulus (GPa) = 16.10309 21.84137 18.97223
#
# Velocity S-wave (km/s) = 2.70711 3.15276 2.93839
# Velocity P-wave (km/s) = 5.05743 6.09153 5.59841
#
# Compressibility (1/GPa) = 0.02879187
#
# Stress axis : x y z
#
# Youngs Moduli (GPa) = 69.37097 91.69161 27.85229
#
# Poissons Ratio (x) = 0.42511 0.33125
# Poissons Ratio (y) = 0.32163 -0.00871
# Poissons Ratio (z) = 0.82503 -0.02868
#
# Static dielectric constant tensor:
#      x y z
#    x 1.830940 0.000000 0.000000 
#    y 0.000000 1.805920 0.000000 
#    z 0.000000 0.000000 1.770660 
# 
# From -- ./inp_files/60171.got.cif
#   From: 2010.05.17/outbox.cif.g08.bks.cpg/sg74_31_cif.got.tgz:60171.got - 2010.06.03 17:57:02.
