data_PCOD9537980
_publ_section_title
;
Structure prediction by ZEFSAII (Michael W. Deem and Ramdas Pophale) SiO2 
 PCOD9537980
Probable space group: I M M A
;
_chemical_formula_sum "Si O2"
_cell_formula_units_Z 116
_cell_length_a 26.123026
_cell_length_b 14.551620
_cell_length_c 13.588087
_cell_angle_alpha 90.000000
_cell_angle_beta 90.000000
_cell_angle_gamma 90.000000
_cell_volume 5165.271411
_symmetry_space_group_name_H-M "I M M A"
_symmetry_group_IT_number 74
_symmetry_cell_setting 'orthorhombic'
loop_
_space_group_symop_operation_xyz
x,y,z
-x,1/2-y,z
x,-y,-z
-x,1/2+y,-z
-x,-y,-z
x,1/2+y,-z
-x,y,z
x,1/2-y,z
1/2+x,1/2+y,1/2+z
1/2-x,-y,1/2+z
1/2+x,1/2-y,1/2-z
1/2-x,y,1/2-z
1/2-x,1/2-y,1/2-z
1/2+x,y,1/2-z
1/2-x,1/2+y,1/2+z
1/2+x,-y,1/2+z
loop_
_atom_site_type_symbol
_atom_site_label
_atom_site_fract_x
_atom_site_fract_y
_atom_site_fract_z
Si Si1 0.796593 0.361434 0.498598
Si Si2 0.924005 0.395466 0.006107
Si Si3 0.812610 0.138546 0.076850
Si Si4 0.921323 0.606991 0.211310
Si Si5 0.307778 0.638535 0.218556
Si Si6 0.334456 0.854593 0.791730
Si Si7 0.554858 0.609706 0.722082
Si Si8 0.500000 0.250000 0.789860
O O1 0.800791 0.250000 0.500021
O O2 0.737251 0.385236 0.484035
O O3 0.815412 0.390783 0.605017
O O4 0.822712 0.395270 0.398180
O O5 0.863223 0.395291 0.023878
O O6 0.944120 0.356472 0.108598
O O7 0.942191 0.500000 0.000000
O O8 0.934566 0.356340 0.898819
O O9 0.816175 0.250000 0.081224
O O10 0.811601 0.104517 0.190434
O O11 0.859733 0.609995 0.225304
O O12 0.937798 0.500703 0.218857
O O13 0.954496 0.669779 0.283381
O O14 0.306960 0.750000 0.225240
O O15 0.250000 0.608791 0.250000
O O16 0.314097 0.750000 0.795133
O O17 0.395128 0.853090 0.774988
O O18 0.500000 0.632675 0.766427
#
# Coordination Sequence:
#
# PCOD9537980 Si02
#       8
#    16  16  16  16  16  16  16   4
#     4   9  17  31  55  79 112 147 184 227 289 336
#     4   9  20  33  51  77 114 144 174 221 282 340
#     4   9  16  29  51  82 108 142 180 226 274 339
#     4  11  22  38  56  84 115 148 195 229 282 335
#     4  10  20  35  57  84 116 151 187 236 285 338
#     4   9  18  34  55  81 108 143 188 234 282 344
#     4  10  21  38  57  77 112 149 182 238 293 329
#     4  12  24  36  60  84 108 162 196 238 258 342
#
# _framework density 22.457677
#
# number of rings (size 3 to 8) (size 9 to 14) (size 15 to 20)
#    0.000    2.345    1.379    1.241    1.931    3.862 
#    0.000    6.207    1.517    0.828    0.000    0.000 
#    0.000    0.000    0.000    0.000    0.000    0.000 
#
# Total GULP energy -323263.709593 kJ/mol
# GULP energy per Si atom -5573.512234 kJ/mol
# Density = 2.240656 g / cm^3
# Si number density = 22.457677 Si / 1000 Ang^3
#
#
#
# Elastic Constant Matrix: (Units=GPa)
#
#
# Indices 1 2 3 4 5 6 
#
# 1 116.9068 5.3946 12.8975 0.0000 0.0000 0.0000
# 2 5.3946 91.2230 3.5356 0.0000 0.0000 0.0000
# 3 12.8975 3.5356 60.1680 0.0000 0.0000 0.0000
# 4 0.0000 0.0000 0.0000 -0.9630 0.0000 0.0000
# 5 0.0000 0.0000 0.0000 0.0000 -6.3203 0.0000
# 6 0.0000 0.0000 0.0000 0.0000 0.0000 -66.0874
#
#
#
# Elastic Compliance Matrix: (Units=1/GPa)
#
#
# Indices 1 2 3 4 5 6 
#
# 1 0.008779 -0.000447 -0.001856 0.000000 0.000000 0.000000
# 2 -0.000447 0.011010 -0.000551 0.000000 0.000000 0.000000
# 3 -0.001856 -0.000551 0.017050 0.000000 0.000000 0.000000
# 4 0.000000 0.000000 0.000000 -1.038411 0.000000 0.000000
# 5 0.000000 0.000000 0.000000 0.000000 -0.158220 0.000000
# 6 0.000000 0.000000 0.000000 0.000000 0.000000 -0.015131
#
#
# Mechanical properties :
#
#
# Convention : Reuss Voigt Hill
#
# Bulk Modulus (GPa) = 32.12182 34.66148 33.39165
# Shear Modulus (GPa) = -4.31467 1.75720 -1.27873
#
# Velocity S-wave (km/s) = -1.38759 0.88552 -0.75540
# Velocity P-wave (km/s) = 3.43032 4.06364 3.76034
#
# Compressibility (1/GPa) = 0.03113149
#
# Stress axis : x y z
#
# Youngs Moduli (GPa) = 113.90585 90.82693 58.65010
#
# Poissons Ratio (x) = 0.04062 0.10883
# Poissons Ratio (y) = 0.05094 0.03232
# Poissons Ratio (z) = 0.21136 0.05005
#
# Static dielectric constant tensor:
#      x y z
#    x 1.825230 0.000000 0.000000 
#    y 0.000000 1.889200 0.000000 
#    z 0.000000 0.000000 1.835660 
# 
# From -- ./inp_files/36726.got.cif
#   From: 2010.05.17/outbox.cif.g08.bks.cpg/sg74_19_cif.got.tgz:36726.got - 2010.06.03 17:57:02.
