data_PCOD9537971
_publ_section_title
;
Structure prediction by ZEFSAII (Michael W. Deem and Ramdas Pophale) SiO2 
 PCOD9537971
Probable space group: I M M A
;
_chemical_formula_sum "Si O2"
_cell_formula_units_Z 104
_cell_length_a 23.599961
_cell_length_b 15.557467
_cell_length_c 14.270288
_cell_angle_alpha 90.000000
_cell_angle_beta 90.000000
_cell_angle_gamma 90.000000
_cell_volume 5239.416359
_symmetry_space_group_name_H-M "I M M A"
_symmetry_group_IT_number 74
_symmetry_cell_setting 'orthorhombic'
loop_
_space_group_symop_operation_xyz
x,y,z
-x,1/2-y,z
x,-y,-z
-x,1/2+y,-z
-x,-y,-z
x,1/2+y,-z
-x,y,z
x,1/2-y,z
1/2+x,1/2+y,1/2+z
1/2-x,-y,1/2+z
1/2+x,1/2-y,1/2-z
1/2-x,y,1/2-z
1/2-x,1/2-y,1/2-z
1/2+x,y,1/2-z
1/2-x,1/2+y,1/2+z
1/2+x,-y,1/2+z
loop_
_atom_site_type_symbol
_atom_site_label
_atom_site_fract_x
_atom_site_fract_y
_atom_site_fract_z
Si Si1 0.339410 0.149204 0.749960
Si Si2 0.433134 0.976633 0.300658
Si Si3 0.120586 0.000000 0.000000
Si Si4 0.061778 0.149983 0.509792
Si Si5 0.314625 0.086020 0.941304
Si Si6 0.433940 0.655328 0.784271
Si Si7 0.802038 0.344263 0.966159
O O1 0.339432 0.250000 0.778512
O O2 0.401062 0.106044 0.740122
O O3 0.308234 0.092534 0.828811
O O4 0.313466 0.145750 0.645733
O O5 0.500000 0.970545 0.284810
O O6 0.417758 0.982004 0.410047
O O7 0.410417 0.066382 0.256337
O O8 0.162070 0.081179 0.014804
O O9 0.061679 0.250000 0.537770
O O10 0.119620 0.109448 0.544924
O O11 0.065389 0.148020 0.396752
O O12 0.000000 0.112178 0.537185
O O13 0.265251 0.147492 0.980282
O O14 0.305118 0.000000 0.000000
O O15 0.500000 0.657567 0.753853
O O16 0.409266 0.750000 0.760028
O O17 0.822136 0.250000 0.994213
#
# Coordination Sequence:
#
# PCOD9537971 Si02
#       7
#    16  16   8  16  16  16  16
#     4  10  22  38  57  82 116 158 197 237 291 353
#     4  10  20  35  57  83 114 150 191 243 296 352
#     4  10  21  38  56  84 111 146 194 248 302 350
#     4   9  18  32  50  75 109 143 176 220 274 333
#     4  12  22  34  57  86 112 148 193 242 284 339
#     4   8  15  30  51  76 109 148 182 216 271 341
#     4  10  21  40  60  80 112 153 198 246 295 348
#
# _framework density 19.849540000000001
#
# number of rings (size 3 to 8) (size 9 to 14) (size 15 to 20)
#    0.000    2.154    0.769    3.923    0.000    3.077 
#    0.000    0.000    0.000    2.769    0.000    5.385 
#    0.000    0.000    0.000    0.000    0.000    0.000 
#
# Total GULP energy -289778.098801 kJ/mol
# GULP energy per Si atom -5572.655746 kJ/mol
# Density = 1.980436 g / cm^3
# Si number density = 19.849540 Si / 1000 Ang^3
#
#
#
# Elastic Constant Matrix: (Units=GPa)
#
#
# Indices 1 2 3 4 5 6 
#
# 1 79.7207 30.8729 -6.5090 0.0000 0.0000 0.0000
# 2 30.8729 98.6503 16.9074 0.0000 0.0000 0.0000
# 3 -6.5090 16.9074 30.7876 0.0000 0.0000 0.0000
# 4 0.0000 0.0000 0.0000 19.1064 0.0000 0.0000
# 5 0.0000 0.0000 0.0000 0.0000 5.8516 0.0000
# 6 0.0000 0.0000 0.0000 0.0000 0.0000 14.8412
#
#
#
# Elastic Compliance Matrix: (Units=1/GPa)
#
#
# Indices 1 2 3 4 5 6 
#
# 1 0.015369 -0.005924 0.006503 0.000000 0.000000 0.000000
# 2 -0.005924 0.013474 -0.008652 0.000000 0.000000 0.000000
# 3 0.006503 -0.008652 0.038606 0.000000 0.000000 0.000000
# 4 0.000000 0.000000 0.000000 0.052339 0.000000 0.000000
# 5 0.000000 0.000000 0.000000 0.000000 0.170894 0.000000
# 6 0.000000 0.000000 0.000000 0.000000 0.000000 0.067380
#
#
# Mechanical properties :
#
#
# Convention : Reuss Voigt Hill
#
# Bulk Modulus (GPa) = 19.49225 32.41125 25.95175
# Shear Modulus (GPa) = 12.77763 19.15232 15.96498
#
# Velocity S-wave (km/s) = 2.53992 3.10961 2.83909
# Velocity P-wave (km/s) = 4.29452 5.40896 4.88363
#
# Compressibility (1/GPa) = 0.05130244
#
# Stress axis : x y z
#
# Youngs Moduli (GPa) = 65.06639 74.21932 25.90239
#
# Poissons Ratio (x) = 0.43969 -0.16843
# Poissons Ratio (y) = 0.38547 0.22410
# Poissons Ratio (z) = -0.42310 0.64212
#
# Static dielectric constant tensor:
#      x y z
#    x 1.717610 0.000000 0.000000 
#    y 0.000000 1.735000 0.000000 
#    z 0.000000 0.000000 1.705010 
# 
# From -- ./inp_files/36528.got.cif
#   From: 2010.05.17/outbox.cif.g08.bks.cpg/sg74_19_cif.got.tgz:36528.got - 2010.06.03 17:57:02.
