data_PCOD9537865
_publ_section_title
;
Structure prediction by ZEFSAII (Michael W. Deem and Ramdas Pophale) SiO2 
 PCOD9537865
Probable space group: I M M A
;
_chemical_formula_sum "Si O2"
_cell_formula_units_Z 112
_cell_length_a 15.240044
_cell_length_b 15.039873
_cell_length_c 25.939949
_cell_angle_alpha 90.000000
_cell_angle_beta 90.000000
_cell_angle_gamma 90.000000
_cell_volume 5945.652294
_symmetry_space_group_name_H-M "I M M A"
_symmetry_group_IT_number 74
_symmetry_cell_setting 'orthorhombic'
loop_
_space_group_symop_operation_xyz
x,y,z
-x,1/2-y,z
x,-y,-z
-x,1/2+y,-z
-x,-y,-z
x,1/2+y,-z
-x,y,z
x,1/2-y,z
1/2+x,1/2+y,1/2+z
1/2-x,-y,1/2+z
1/2+x,1/2-y,1/2-z
1/2-x,y,1/2-z
1/2-x,1/2-y,1/2-z
1/2+x,y,1/2-z
1/2-x,1/2+y,1/2+z
1/2+x,-y,1/2+z
loop_
_atom_site_type_symbol
_atom_site_label
_atom_site_fract_x
_atom_site_fract_y
_atom_site_fract_z
Si Si1 0.785134 0.851585 0.086313
Si Si2 0.142698 0.649786 0.871760
Si Si3 0.100447 0.461182 0.833016
Si Si4 0.898829 0.894015 0.989847
Si Si5 0.599150 0.856428 0.119034
Si Si6 0.808185 0.846911 0.697709
Si Si7 0.395762 0.031413 0.781166
O O1 0.788686 0.750000 0.106087
O O2 0.838318 0.915667 0.124631
O O3 0.833581 0.854342 0.031760
O O4 0.682670 0.878777 0.083434
O O5 0.109824 0.750000 0.860610
O O6 0.098669 0.567310 0.842505
O O7 0.242172 0.647745 0.850674
O O8 0.130515 0.630168 0.932142
O O9 0.138841 0.446445 0.775869
O O10 0.000000 0.427836 0.838005
O O11 0.000000 0.864631 0.996860
O O12 0.897568 0.000000 0.000000
O O13 0.500000 0.887724 0.104914
O O14 0.594718 0.750000 0.122148
O O15 0.622701 0.897463 0.174610
O O16 0.853320 0.750000 0.696347
O O17 0.750000 0.847773 0.750000
O O18 0.865417 0.934714 0.700521
O O19 0.500000 0.028887 0.774102
#
# Coordination Sequence:
#
# PCOD9537865 Si02
#       7
#    16  16  16  16  16  16  16
#     4  11  23  38  60  84 111 153 194 235 288 340
#     4  11  22  36  56  79 110 153 191 228 278 330
#     4  11  22  35  52  83 119 152 195 236 276 338
#     4  11  23  39  58  84 118 152 187 231 282 339
#     4   9  20  39  61  86 113 144 189 240 291 347
#     4  10  20  35  55  81 111 147 194 240 278 331
#     4  10  21  35  56  82 114 153 188 237 293 336
#
# _framework density 18.837294
#
# number of rings (size 3 to 8) (size 9 to 14) (size 15 to 20)
#    0.000    1.571    2.857    2.143    0.000    3.714 
#    0.000    4.286    0.000    1.286    0.000    2.000 
#    0.000    0.000    0.000    0.000    0.000    0.000 
#
# Total GULP energy -312395.455461 kJ/mol
# GULP energy per Si atom -5578.490276 kJ/mol
# Density = 1.879442 g / cm^3
# Si number density = 18.837294 Si / 1000 Ang^3
#
#
#
# Elastic Constant Matrix: (Units=GPa)
#
#
# Indices 1 2 3 4 5 6 
#
# 1 66.9537 15.6750 53.1726 0.0000 0.0000 0.0000
# 2 15.6750 36.4667 -3.4813 0.0000 0.0000 0.0000
# 3 53.1726 -3.4813 82.9030 0.0000 0.0000 0.0000
# 4 0.0000 0.0000 0.0000 13.5397 0.0000 0.0000
# 5 0.0000 0.0000 0.0000 0.0000 22.1827 0.0000
# 6 0.0000 0.0000 0.0000 0.0000 0.0000 22.0570
#
#
#
# Elastic Compliance Matrix: (Units=1/GPa)
#
#
# Indices 1 2 3 4 5 6 
#
# 1 0.041632 -0.020527 -0.027564 0.000000 0.000000 0.000000
# 2 -0.020527 0.037653 0.014747 0.000000 0.000000 0.000000
# 3 -0.027564 0.014747 0.030361 0.000000 0.000000 0.000000
# 4 0.000000 0.000000 0.000000 0.073857 0.000000 0.000000
# 5 0.000000 0.000000 0.000000 0.000000 0.045080 0.000000
# 6 0.000000 0.000000 0.000000 0.000000 0.000000 0.045337
#
#
# Mechanical properties :
#
#
# Convention : Reuss Voigt Hill
#
# Bulk Modulus (GPa) = 23.27864 35.22845 29.25354
# Shear Modulus (GPa) = 14.08741 19.61968 16.85354
#
# Velocity S-wave (km/s) = 2.73765 3.23078 2.99438
# Velocity P-wave (km/s) = 4.73049 5.71483 5.24580
#
# Compressibility (1/GPa) = 0.04295784
#
# Stress axis : x y z
#
# Youngs Moduli (GPa) = 24.02014 26.55806 32.93750
#
# Poissons Ratio (x) = 0.54515 0.90788
# Poissons Ratio (y) = 0.49305 -0.48571
# Poissons Ratio (z) = 0.66209 -0.39164
#
# Static dielectric constant tensor:
#      x y z
#    x 1.691090 0.000000 0.000000 
#    y 0.000000 1.675760 0.000000 
#    z 0.000000 0.000000 1.645520 
# 
# From -- ./inp_files/67203.got.cif
#   From: 2010.05.17/outbox.cif.g08.bks.cpg/sg74_34_cif.got.tgz:67203.got - 2010.06.03 17:57:02.
