data_PCOD9537348
_publ_section_title
;
Structure prediction by ZEFSAII (Michael W. Deem and Ramdas Pophale) SiO2 
 PCOD9537348
Probable space group: I M M A
;
_chemical_formula_sum "Si O2"
_cell_formula_units_Z 96
_cell_length_a 24.217724
_cell_length_b 8.704259
_cell_length_c 25.627022
_cell_angle_alpha 90.000000
_cell_angle_beta 90.000000
_cell_angle_gamma 90.000000
_cell_volume 5402.108123
_symmetry_space_group_name_H-M "I M M A"
_symmetry_group_IT_number 74
_symmetry_cell_setting 'orthorhombic'
loop_
_space_group_symop_operation_xyz
x,y,z
-x,1/2-y,z
x,-y,-z
-x,1/2+y,-z
-x,-y,-z
x,1/2+y,-z
-x,y,z
x,1/2-y,z
1/2+x,1/2+y,1/2+z
1/2-x,-y,1/2+z
1/2+x,1/2-y,1/2-z
1/2-x,y,1/2-z
1/2-x,1/2-y,1/2-z
1/2+x,y,1/2-z
1/2-x,1/2+y,1/2+z
1/2+x,-y,1/2+z
loop_
_atom_site_type_symbol
_atom_site_label
_atom_site_fract_x
_atom_site_fract_y
_atom_site_fract_z
Si Si1 0.000000 0.435380 0.188601
Si Si2 0.812276 0.066913 0.442525
Si Si3 0.807207 0.066996 0.942517
Si Si4 0.882007 0.566653 0.350171
Si Si5 0.000000 0.435263 0.694317
Si Si6 0.380848 0.565394 0.647812
Si Si7 0.814514 0.934054 0.745959
O O1 0.000000 0.498976 0.247277
O O2 0.056098 0.481289 0.159257
O O3 0.000000 0.250000 0.192173
O O4 0.808980 0.250000 0.445026
O O5 0.823489 0.000000 0.500000
O O6 0.752299 0.001492 0.426027
O O7 0.857514 0.013711 0.401111
O O8 0.802987 0.250000 0.945527
O O9 0.852896 0.015861 0.901140
O O10 0.818916 0.000000 0.000000
O O11 0.880911 0.750000 0.357476
O O12 0.843901 0.520463 0.301248
O O13 0.944260 0.518339 0.335508
O O14 0.000000 0.250000 0.698112
O O15 0.379145 0.750000 0.639815
O O16 0.345603 0.531634 0.699953
O O17 0.818967 0.750000 0.736725
O O18 0.750000 0.972779 0.750000
#
# Coordination Sequence:
#
# PCOD9537348 Si02
#       7
#     8  16  16  16   8  16  16
#     4  10  20  36  59  82 111 156 199 237 283 341
#     4  11  22  39  62  87 116 150 189 235 287 343
#     4  11  22  38  61  87 116 151 189 233 288 346
#     4  11  22  37  57  84 116 151 193 236 284 339
#     4  10  22  38  57  82 117 156 193 239 285 335
#     4  10  20  35  55  83 117 151 194 239 285 340
#     4  10  20  33  53  82 115 149 185 232 289 342
#
# _framework density 17.77084
#
# number of rings (size 3 to 8) (size 9 to 14) (size 15 to 20)
#    0.000    1.500    1.667    5.500    0.000    3.667 
#    0.000    0.833    0.000    0.000    0.000    0.000 
#    0.000    0.000    0.000    0.000    0.000    0.000 
#
# Total GULP energy -268277.382106 kJ/mol
# GULP energy per Si atom -5589.112127 kJ/mol
# Density = 1.773039 g / cm^3
# Si number density = 17.770840 Si / 1000 Ang^3
#
#
#
# Elastic Constant Matrix: (Units=GPa)
#
#
# Indices 1 2 3 4 5 6 
#
# 1 168.0024 61.5325 88.5295 0.0000 0.0000 0.0000
# 2 61.5325 89.6411 55.1873 0.0000 0.0000 0.0000
# 3 88.5295 55.1873 100.3638 0.0000 0.0000 0.0000
# 4 0.0000 0.0000 0.0000 34.5487 0.0000 0.0000
# 5 0.0000 0.0000 0.0000 0.0000 15.1257 0.0000
# 6 0.0000 0.0000 0.0000 0.0000 0.0000 8.3842
#
#
#
# Elastic Compliance Matrix: (Units=1/GPa)
#
#
# Indices 1 2 3 4 5 6 
#
# 1 0.011478 -0.002488 -0.008756 0.000000 0.000000 0.000000
# 2 -0.002488 0.017404 -0.007376 0.000000 0.000000 0.000000
# 3 -0.008756 -0.007376 0.021743 0.000000 0.000000 0.000000
# 4 0.000000 0.000000 0.000000 0.028945 0.000000 0.000000
# 5 0.000000 0.000000 0.000000 0.000000 0.066113 0.000000
# 6 0.000000 0.000000 0.000000 0.000000 0.000000 0.119272
#
#
# Mechanical properties :
#
#
# Convention : Reuss Voigt Hill
#
# Bulk Modulus (GPa) = 74.70739 85.38955 80.04847
# Shear Modulus (GPa) = 16.30497 21.79559 19.05028
#
# Velocity S-wave (km/s) = 3.03233 3.50591 3.27769
# Velocity P-wave (km/s) = 7.37500 8.03388 7.71148
#
# Compressibility (1/GPa) = 0.01338556
#
# Stress axis : x y z
#
# Youngs Moduli (GPa) = 87.12599 57.45781 45.99153
#
# Poissons Ratio (x) = 0.14295 0.40271
# Poissons Ratio (y) = 0.21676 0.33921
# Poissons Ratio (z) = 0.76290 0.42378
#
# Static dielectric constant tensor:
#      x y z
#    x 1.600850 0.000000 0.000000 
#    y 0.000000 1.603950 0.000000 
#    z 0.000000 0.000000 1.571180 
# 
# From -- ./inp_files/61926.got.cif
#   From: 2010.05.17/outbox.cif.g08.bks.cpg/sg74_31_cif.got.tgz:61926.got - 2010.06.03 17:57:02.
