data_PCOD9537196
_publ_section_title
;
Structure prediction by ZEFSAII (Michael W. Deem and Ramdas Pophale) SiO2 
 PCOD9537196
Probable space group: I M M A
;
_chemical_formula_sum "Si O2"
_cell_formula_units_Z 120
_cell_length_a 29.021763
_cell_length_b 7.866683
_cell_length_c 28.654431
_cell_angle_alpha 90.000000
_cell_angle_beta 90.000000
_cell_angle_gamma 90.000000
_cell_volume 6541.950145
_symmetry_space_group_name_H-M "I M M A"
_symmetry_group_IT_number 74
_symmetry_cell_setting 'orthorhombic'
loop_
_space_group_symop_operation_xyz
x,y,z
-x,1/2-y,z
x,-y,-z
-x,1/2+y,-z
-x,-y,-z
x,1/2+y,-z
-x,y,z
x,1/2-y,z
1/2+x,1/2+y,1/2+z
1/2-x,-y,1/2+z
1/2+x,1/2-y,1/2-z
1/2-x,y,1/2-z
1/2-x,1/2-y,1/2-z
1/2+x,y,1/2-z
1/2-x,1/2+y,1/2+z
1/2+x,-y,1/2+z
loop_
_atom_site_type_symbol
_atom_site_label
_atom_site_fract_x
_atom_site_fract_y
_atom_site_fract_z
Si Si1 0.717057 0.944309 0.795960
Si Si2 0.862080 0.044634 0.233849
Si Si3 0.223923 0.548421 0.051385
Si Si4 0.588664 0.452533 0.885365
Si Si5 0.000000 0.547918 0.554306
Si Si6 0.300321 0.953659 0.648950
Si Si7 0.947885 0.954413 0.286625
Si Si8 0.828763 0.455210 0.552360
O O1 0.706656 0.750000 0.810282
O O2 0.750000 0.936595 0.750000
O O3 0.670206 0.023305 0.776404
O O4 0.750236 0.025018 0.834580
O O5 0.858403 0.250000 0.234751
O O6 0.839106 0.985887 0.185320
O O7 0.914053 0.996810 0.244330
O O8 0.226889 0.750000 0.053433
O O9 0.193668 0.489895 0.094870
O O10 0.276383 0.478531 0.056811
O O11 0.207245 0.500000 0.000000
O O12 0.595115 0.250000 0.880185
O O13 0.545521 0.479933 0.919804
O O14 0.574603 0.521999 0.834721
O O15 0.635256 0.520561 0.909219
O O16 0.000000 0.500000 0.500000
O O17 0.000000 0.750000 0.558552
O O18 0.297577 0.750000 0.655025
O O19 0.950151 0.750000 0.290535
O O20 0.000000 0.018012 0.281696
O O21 0.844947 0.500000 0.500000
O O22 0.827488 0.250000 0.555470
#
# Coordination Sequence:
#
# PCOD9537196 Si02
#       8
#    16  16  16  16   8  16  16  16
#     4   7  12  25  44  67  95 125 155 189 234 284
#     4   9  18  32  51  74  98 127 165 206 245 293
#     4  10  20  33  49  72 101 132 166 201 240 287
#     4  10  20  37  53  66  91 125 161 205 258 306
#     4  12  24  36  52  72  90 114 156 212 267 316
#     4   9  17  31  50  72 101 133 163 199 244 291
#     4  10  21  36  52  69  96 131 163 204 261 310
#     4   9  19  33  49  67  90 122 162 205 247 294
#
# _framework density 18.343153999999998
#
# number of rings (size 3 to 8) (size 9 to 14) (size 15 to 20)
#    0.000    2.667    0.667    3.000    1.867    3.467 
#    0.000    0.000    0.000    2.400    0.000    0.000 
#    0.000    0.533    0.000    1.733    0.000    2.533 
#
# Total GULP energy -334625.329773 kJ/mol
# GULP energy per Si atom -5577.088830 kJ/mol
# Density = 1.830140 g / cm^3
# Si number density = 18.343154 Si / 1000 Ang^3
#
#
#
# Elastic Constant Matrix: (Units=GPa)
#
#
# Indices 1 2 3 4 5 6 
#
# 1 80.2667 5.1464 59.0121 0.0000 0.0000 0.0000
# 2 5.1464 23.6879 3.1729 0.0000 0.0000 0.0000
# 3 59.0121 3.1729 126.6858 0.0000 0.0000 0.0000
# 4 0.0000 0.0000 0.0000 15.7883 0.0000 0.0000
# 5 0.0000 0.0000 0.0000 0.0000 10.9346 0.0000
# 6 0.0000 0.0000 0.0000 0.0000 0.0000 12.9113
#
#
#
# Elastic Compliance Matrix: (Units=1/GPa)
#
#
# Indices 1 2 3 4 5 6 
#
# 1 0.019154 -0.002976 -0.008848 0.000000 0.000000 0.000000
# 2 -0.002976 0.042820 0.000314 0.000000 0.000000 0.000000
# 3 -0.008848 0.000314 0.012007 0.000000 0.000000 0.000000
# 4 0.000000 0.000000 0.000000 0.063338 0.000000 0.000000
# 5 0.000000 0.000000 0.000000 0.000000 0.091453 0.000000
# 6 0.000000 0.000000 0.000000 0.000000 0.000000 0.077452
#
#
# Mechanical properties :
#
#
# Convention : Reuss Voigt Hill
#
# Bulk Modulus (GPa) = 19.62274 40.58923 30.10599
# Shear Modulus (GPa) = 14.44120 18.81409 16.62764
#
# Velocity S-wave (km/s) = 2.80890 3.20609 3.01404
# Velocity P-wave (km/s) = 4.60876 5.99008 5.34424
#
# Compressibility (1/GPa) = 0.05096127
#
# Stress axis : x y z
#
# Youngs Moduli (GPa) = 52.20798 23.35349 83.28416
#
# Poissons Ratio (x) = 0.06951 0.73688
# Poissons Ratio (y) = 0.15539 -0.02615
# Poissons Ratio (z) = 0.46192 -0.00733
#
# Static dielectric constant tensor:
#      x y z
#    x 1.643860 0.000000 0.000000 
#    y 0.000000 1.670790 0.000000 
#    z 0.000000 0.000000 1.643090 
# 
# From -- ./inp_files/69039.got.cif
#   From: 2010.05.17/outbox.cif.g08.bks.cpg/sg74_35_cif.got.tgz:69039.got - 2010.06.03 17:57:02.
