data_PCOD9537739
_publ_section_title
;
Structure prediction by ZEFSAII (Michael W. Deem and Ramdas Pophale) SiO2 
 PCOD9537739
Probable space group: I M M A
;
_chemical_formula_sum "Si O2"
_cell_formula_units_Z 96
_cell_length_a 21.221793
_cell_length_b 20.032199
_cell_length_c 10.474122
_cell_angle_alpha 90.000000
_cell_angle_beta 90.000000
_cell_angle_gamma 90.000000
_cell_volume 4452.750161
_symmetry_space_group_name_H-M "I M M A"
_symmetry_group_IT_number 74
_symmetry_cell_setting 'orthorhombic'
loop_
_space_group_symop_operation_xyz
x,y,z
-x,1/2-y,z
x,-y,-z
-x,1/2+y,-z
-x,-y,-z
x,1/2+y,-z
-x,y,z
x,1/2-y,z
1/2+x,1/2+y,1/2+z
1/2-x,-y,1/2+z
1/2+x,1/2-y,1/2-z
1/2-x,y,1/2-z
1/2-x,1/2-y,1/2-z
1/2+x,y,1/2-z
1/2-x,1/2+y,1/2+z
1/2+x,-y,1/2+z
loop_
_atom_site_type_symbol
_atom_site_label
_atom_site_fract_x
_atom_site_fract_y
_atom_site_fract_z
Si Si1 0.570188 0.173996 0.215282
Si Si2 0.815470 0.986588 0.773891
Si Si3 0.367126 0.924476 0.966027
Si Si4 0.341096 0.366342 0.445525
Si Si5 0.929375 0.556253 0.111919
Si Si6 0.277486 0.674984 0.107138
O O1 0.500000 0.161887 0.270510
O O2 0.573236 0.250000 0.169182
O O3 0.581283 0.122211 0.100884
O O4 0.623340 0.165099 0.324160
O O5 0.750000 0.023956 0.750000
O O6 0.820031 0.939094 0.651789
O O7 0.816750 0.938828 0.897175
O O8 0.879095 0.028559 0.787185
O O9 0.328502 0.881290 0.068933
O O10 0.387814 0.000000 0.000000
O O11 0.395794 0.380340 0.548617
O O12 0.281973 0.331243 0.510254
O O13 0.000000 0.567563 0.160039
O O14 0.933961 0.500000 0.000000
O O15 0.304508 0.750000 0.093183
O O16 0.250000 0.669426 0.250000
#
# Coordination Sequence:
#
# PCOD9537739 Si02
#       6
#    16  16  16  16  16  16
#     4  10  22  43  70  97 128 170 223 280 335 395
#     4  10  20  34  57  93 126 172 213 269 334 394
#     4  11  25  39  64  95 132 172 216 275 338 398
#     4  10  20  36  64  91 127 166 219 273 325 389
#     4   9  19  33  54  88 132 170 206 260 328 394
#     4  11  25  43  65  94 134 178 223 269 330 407
#
# _framework density 21.559711
#
# number of rings (size 3 to 8) (size 9 to 14) (size 15 to 20)
#    0.000    1.833    1.667    1.500    4.667    4.333 
#    0.000    2.500    0.000    0.000    0.000    4.667 
#    0.000    0.000    0.000    0.000    0.000    0.000 
#
# Total GULP energy -267723.515667 kJ/mol
# GULP energy per Si atom -5577.573243 kJ/mol
# Density = 2.151064 g / cm^3
# Si number density = 21.559711 Si / 1000 Ang^3
#
#
#
# Elastic Constant Matrix: (Units=GPa)
#
#
# Indices 1 2 3 4 5 6 
#
# 1 116.6180 32.7542 24.3702 0.0000 0.0000 0.0000
# 2 32.7542 128.1051 37.6248 0.0000 0.0000 0.0000
# 3 24.3702 37.6248 81.2993 0.0000 0.0000 0.0000
# 4 0.0000 0.0000 0.0000 29.4304 0.0000 0.0000
# 5 0.0000 0.0000 0.0000 0.0000 33.2024 0.0000
# 6 0.0000 0.0000 0.0000 0.0000 0.0000 24.4508
#
#
#
# Elastic Compliance Matrix: (Units=1/GPa)
#
#
# Indices 1 2 3 4 5 6 
#
# 1 0.009511 -0.001845 -0.001997 0.000000 0.000000 0.000000
# 2 -0.001845 0.009392 -0.003793 0.000000 0.000000 0.000000
# 3 -0.001997 -0.003793 0.014654 0.000000 0.000000 0.000000
# 4 0.000000 0.000000 0.000000 0.033978 0.000000 0.000000
# 5 0.000000 0.000000 0.000000 0.000000 0.030118 0.000000
# 6 0.000000 0.000000 0.000000 0.000000 0.000000 0.040899
#
#
# Mechanical properties :
#
#
# Convention : Reuss Voigt Hill
#
# Bulk Modulus (GPa) = 54.68708 57.28009 55.98359
# Shear Modulus (GPa) = 31.26589 32.83493 32.05041
#
# Velocity S-wave (km/s) = 3.81228 3.90677 3.85981
# Velocity P-wave (km/s) = 6.69316 6.85392 6.77402
#
# Compressibility (1/GPa) = 0.01828585
#
# Stress axis : x y z
#
# Youngs Moduli (GPa) = 105.14622 106.47338 68.23879
#
# Poissons Ratio (x) = 0.19646 0.13627
# Poissons Ratio (y) = 0.19401 0.25886
# Poissons Ratio (z) = 0.20997 0.40390
#
# Static dielectric constant tensor:
#      x y z
#    x 1.823800 0.000000 0.000000 
#    y 0.000000 1.817890 0.000000 
#    z 0.000000 0.000000 1.813740 
# 
# From -- ./inp_files/23895.got.cif
#   From: 2010.05.17/outbox.cif.g08.bks.cpg/sg74_12_cif.got.tgz:23895.got - 2010.06.03 17:57:02.
