data_PCOD9537764
_publ_section_title
;
Structure prediction by ZEFSAII (Michael W. Deem and Ramdas Pophale) SiO2 
 PCOD9537764
Probable space group: I M M A
;
_chemical_formula_sum "Si O2"
_cell_formula_units_Z 40
_cell_length_a 10.563948
_cell_length_b 10.232653
_cell_length_c 16.902442
_cell_angle_alpha 90.000000
_cell_angle_beta 90.000000
_cell_angle_gamma 90.000000
_cell_volume 1827.106893
_symmetry_space_group_name_H-M "I M M A"
_symmetry_group_IT_number 74
_symmetry_cell_setting 'orthorhombic'
loop_
_space_group_symop_operation_xyz
x,y,z
-x,1/2-y,z
x,-y,-z
-x,1/2+y,-z
-x,-y,-z
x,1/2+y,-z
-x,y,z
x,1/2-y,z
1/2+x,1/2+y,1/2+z
1/2-x,-y,1/2+z
1/2+x,1/2-y,1/2-z
1/2-x,y,1/2-z
1/2-x,1/2-y,1/2-z
1/2+x,y,1/2-z
1/2-x,1/2+y,1/2+z
1/2+x,-y,1/2+z
loop_
_atom_site_type_symbol
_atom_site_label
_atom_site_fract_x
_atom_site_fract_y
_atom_site_fract_z
Si Si1 0.340392 0.250000 0.328184
Si Si2 0.244865 0.479915 0.593448
Si Si3 0.000000 0.382049 0.941244
Si Si4 0.863306 0.250000 0.688314
O O1 0.500000 0.250000 0.318551
O O2 0.250000 0.250000 0.250000
O O3 0.289090 0.379894 0.372842
O O4 0.215558 0.500000 0.500000
O O5 0.371932 0.394661 0.604595
O O6 0.146345 0.384844 0.636887
O O7 0.000000 0.250000 0.990288
O O8 0.000000 0.500000 0.000000
O O9 0.750000 0.250000 0.750000
O O10 0.000000 0.250000 0.728321
#
# Coordination Sequence:
#
# PCOD9537764 Si02
#       4
#     8  16   8   8
#     4  12  27  44  68 104 146 188 229 292 360 434
#     4  11  24  43  74 106 138 179 239 297 355 417
#     4  10  20  34  68 108 140 172 227 292 356 410
#     4  12  29  48  72 102 142 190 237 292 360 432
#
# _framework density 21.892534000000001
#
# number of rings (size 3 to 8) (size 9 to 14) (size 15 to 20)
#    0.000    0.800    4.000    2.400   11.200    5.600 
#    0.000    2.000    0.000    0.000    0.000    0.000 
#    0.000    0.000    0.000    0.000    0.000    0.000 
#
# Total GULP energy -111343.580849 kJ/mol
# GULP energy per Si atom -5567.179042 kJ/mol
# Density = 2.184271 g / cm^3
# Si number density = 21.892534 Si / 1000 Ang^3
#
#
#
# Elastic Constant Matrix: (Units=GPa)
#
#
# Indices 1 2 3 4 5 6 
#
# 1 143.2735 39.1737 52.5862 0.0000 0.0000 0.0000
# 2 39.1737 226.3048 68.5267 0.0000 0.0000 0.0000
# 3 52.5862 68.5267 135.4001 0.0000 0.0000 0.0000
# 4 0.0000 0.0000 0.0000 40.1760 0.0000 0.0000
# 5 0.0000 0.0000 0.0000 0.0000 28.6240 0.0000
# 6 0.0000 0.0000 0.0000 0.0000 0.0000 8.1146
#
#
#
# Elastic Compliance Matrix: (Units=1/GPa)
#
#
# Indices 1 2 3 4 5 6 
#
# 1 0.008195 -0.000537 -0.002911 0.000000 0.000000 0.000000
# 2 -0.000537 0.005254 -0.002450 0.000000 0.000000 0.000000
# 3 -0.002911 -0.002450 0.009756 0.000000 0.000000 0.000000
# 4 0.000000 0.000000 0.000000 0.024890 0.000000 0.000000
# 5 0.000000 0.000000 0.000000 0.000000 0.034936 0.000000
# 6 0.000000 0.000000 0.000000 0.000000 0.000000 0.123235
#
#
# Mechanical properties :
#
#
# Convention : Reuss Voigt Hill
#
# Bulk Modulus (GPa) = 87.65656 91.72796 89.69226
# Shear Modulus (GPa) = 22.53617 38.36237 30.44927
#
# Velocity S-wave (km/s) = 3.21191 4.19059 3.73346
# Velocity P-wave (km/s) = 7.34040 8.08733 7.72290
#
# Compressibility (1/GPa) = 0.01140816
#
# Stress axis : x y z
#
# Youngs Moduli (GPa) = 122.02709 190.33907 102.49915
#
# Poissons Ratio (x) = 0.10223 0.29836
# Poissons Ratio (y) = 0.06554 0.25116
# Poissons Ratio (z) = 0.35521 0.46640
#
# Static dielectric constant tensor:
#      x y z
#    x 1.905670 0.000000 0.000000 
#    y 0.000000 1.838670 0.000000 
#    z 0.000000 0.000000 1.868010 
# 
# From -- ./inp_files/40286.got.cif
#   From: 2010.05.17/outbox.cif.g08.bks.cpg/sg74_21_cif.got.tgz:40286.got - 2010.06.03 17:57:02.
