data_PCOD9537964
_publ_section_title
;
Structure prediction by ZEFSAII (Michael W. Deem and Ramdas Pophale) SiO2 
 PCOD9537964
Probable space group: I M M A
;
_chemical_formula_sum "Si O2"
_cell_formula_units_Z 116
_cell_length_a 24.868430
_cell_length_b 7.439640
_cell_length_c 27.579205
_cell_angle_alpha 90.000000
_cell_angle_beta 90.000000
_cell_angle_gamma 90.000000
_cell_volume 5102.488469
_symmetry_space_group_name_H-M "I M M A"
_symmetry_group_IT_number 74
_symmetry_cell_setting 'orthorhombic'
loop_
_space_group_symop_operation_xyz
x,y,z
-x,1/2-y,z
x,-y,-z
-x,1/2+y,-z
-x,-y,-z
x,1/2+y,-z
-x,y,z
x,1/2-y,z
1/2+x,1/2+y,1/2+z
1/2-x,-y,1/2+z
1/2+x,1/2-y,1/2-z
1/2-x,y,1/2-z
1/2-x,1/2-y,1/2-z
1/2+x,y,1/2-z
1/2-x,1/2+y,1/2+z
1/2+x,-y,1/2+z
loop_
_atom_site_type_symbol
_atom_site_label
_atom_site_fract_x
_atom_site_fract_y
_atom_site_fract_z
Si Si1 0.000000 0.250000 0.722730
Si Si2 0.666904 0.465940 0.607779
Si Si3 0.733225 0.464324 0.945514
Si Si4 0.644375 0.031020 0.871055
Si Si5 0.097366 0.042776 0.270421
Si Si6 0.059890 0.464183 0.552123
Si Si7 0.439011 0.034456 0.556789
Si Si8 0.700013 0.963649 0.716085
O O1 0.952372 0.408449 0.722758
O O2 0.663391 0.250000 0.606764
O O3 0.706865 0.529061 0.565242
O O4 0.607071 0.532401 0.593946
O O5 0.697888 0.507675 0.658160
O O6 0.732915 0.250000 0.940357
O O7 0.694142 0.531437 0.903272
O O8 0.715385 0.500000 0.000000
O O9 0.645708 0.250000 0.867671
O O10 0.593231 0.973045 0.902740
O O11 0.634866 0.956949 0.818310
O O12 0.080912 0.250000 0.260128
O O13 0.140538 0.971504 0.231483
O O14 0.085654 0.500000 0.500000
O O15 0.056379 0.250000 0.556813
O O16 0.000000 0.540684 0.551343
O O17 0.500000 0.965757 0.565260
O O18 0.441234 0.250000 0.562167
O O19 0.425356 0.000000 0.500000
O O20 0.699637 0.750000 0.724216
O O21 0.750000 0.032940 0.750000
#
# Coordination Sequence:
#
# PCOD9537964 Si02
#       8
#     4  16  16  16  16  16  16  16
#     4  12  26  48  70  94 138 176 218 294 344 386
#     4  10  21  36  58  88 121 162 211 257 317 394
#     4  10  21  35  54  88 127 167 214 263 324 397
#     4  10  20  35  57  82 117 160 208 264 323 383
#     4  11  25  44  69 100 129 175 229 275 342 414
#     4   9  18  30  46  68  99 139 187 239 298 364
#     4   9  18  34  55  83 118 159 206 254 305 371
#     4  10  23  44  67  96 131 164 215 278 335 404
#
# _framework density 22.734005
#
# number of rings (size 3 to 8) (size 9 to 14) (size 15 to 20)
#    0.000    2.069    0.690    1.862    1.931    2.483 
#    1.241    0.000    0.000    0.000    0.000    0.000 
#    0.000    0.000    0.000    0.000    0.000    0.000 
#
# Total GULP energy -323040.232811 kJ/mol
# GULP energy per Si atom -5569.659186 kJ/mol
# Density = 2.268226 g / cm^3
# Si number density = 22.734005 Si / 1000 Ang^3
#
#
#
# Elastic Constant Matrix: (Units=GPa)
#
#
# Indices 1 2 3 4 5 6 
#
# 1 139.4605 27.6526 44.7768 0.0000 0.0000 0.0000
# 2 27.6526 99.9905 -4.7411 0.0000 0.0000 0.0000
# 3 44.7768 -4.7411 76.6435 0.0000 0.0000 0.0000
# 4 0.0000 0.0000 0.0000 17.0162 0.0000 0.0000
# 5 0.0000 0.0000 0.0000 0.0000 30.5869 0.0000
# 6 0.0000 0.0000 0.0000 0.0000 0.0000 10.8584
#
#
#
# Elastic Compliance Matrix: (Units=1/GPa)
#
#
# Indices 1 2 3 4 5 6 
#
# 1 0.009614 -0.002934 -0.005798 0.000000 0.000000 0.000000
# 2 -0.002934 0.010926 0.002390 0.000000 0.000000 0.000000
# 3 -0.005798 0.002390 0.016583 0.000000 0.000000 0.000000
# 4 0.000000 0.000000 0.000000 0.058768 0.000000 0.000000
# 5 0.000000 0.000000 0.000000 0.000000 0.032694 0.000000
# 6 0.000000 0.000000 0.000000 0.000000 0.000000 0.092095
#
#
# Mechanical properties :
#
#
# Convention : Reuss Voigt Hill
#
# Bulk Modulus (GPa) = 40.91980 50.16346 45.54163
# Shear Modulus (GPa) = 20.70325 28.25271 24.47798
#
# Velocity S-wave (km/s) = 3.02101 3.52909 3.28489
# Velocity P-wave (km/s) = 5.49610 6.22248 5.87054
#
# Compressibility (1/GPa) = 0.02443804
#
# Stress axis : x y z
#
# Youngs Moduli (GPa) = 104.01758 91.52851 60.30420
#
# Poissons Ratio (x) = 0.26851 0.34965
# Poissons Ratio (y) = 0.30515 -0.14411
# Poissons Ratio (z) = 0.60310 -0.21873
#
# Static dielectric constant tensor:
#      x y z
#    x 1.877800 0.000000 0.000000 
#    y 0.000000 1.860330 0.000000 
#    z 0.000000 0.000000 1.558090 
# 
# From -- ./inp_files/68784.got.cif
#   From: 2010.05.17/outbox.cif.g08.bks.cpg/sg74_35_cif.got.tgz:68784.got - 2010.06.03 17:57:02.
