data_PCOD9537260
_publ_section_title
;
Structure prediction by ZEFSAII (Michael W. Deem and Ramdas Pophale) SiO2 
 PCOD9537260
Probable space group: I M M A
;
_chemical_formula_sum "Si O2"
_cell_formula_units_Z 80
_cell_length_a 10.770841
_cell_length_b 16.919254
_cell_length_c 26.261205
_cell_angle_alpha 90.000000
_cell_angle_beta 90.000000
_cell_angle_gamma 90.000000
_cell_volume 4785.700049
_symmetry_space_group_name_H-M "I M M A"
_symmetry_group_IT_number 74
_symmetry_cell_setting 'orthorhombic'
loop_
_space_group_symop_operation_xyz
x,y,z
-x,1/2-y,z
x,-y,-z
-x,1/2+y,-z
-x,-y,-z
x,1/2+y,-z
-x,y,z
x,1/2-y,z
1/2+x,1/2+y,1/2+z
1/2-x,-y,1/2+z
1/2+x,1/2-y,1/2-z
1/2-x,y,1/2-z
1/2-x,1/2-y,1/2-z
1/2+x,y,1/2-z
1/2-x,1/2+y,1/2+z
1/2+x,-y,1/2+z
loop_
_atom_site_type_symbol
_atom_site_label
_atom_site_fract_x
_atom_site_fract_y
_atom_site_fract_z
Si Si1 0.853267 0.250000 0.294795
Si Si2 0.648188 0.921492 0.841322
Si Si3 0.639358 0.338992 0.881561
Si Si4 0.250000 0.972506 0.250000
Si Si5 0.353672 0.996682 0.056597
Si Si6 0.866921 0.661281 0.195657
O O1 0.750000 0.250000 0.250000
O O2 0.835472 0.170442 0.327692
O O3 0.000000 0.250000 0.277279
O O4 0.500000 0.938354 0.839143
O O5 0.694102 0.948103 0.897283
O O6 0.713496 0.973314 0.797625
O O7 0.500000 0.348250 0.859118
O O8 0.646218 0.250000 0.902785
O O9 0.653983 0.407462 0.922678
O O10 0.748922 0.346442 0.840910
O O11 0.142997 0.910591 0.234619
O O12 0.500000 0.017785 0.051795
O O13 0.298346 0.000000 0.000000
O O14 0.863062 0.750000 0.218489
O O15 0.000000 0.655742 0.168314
#
# Coordination Sequence:
#
# PCOD9537260 Si02
#       6
#     8  16  16   8  16  16
#     4  10  20  36  54  80 112 142 176 219 274 324
#     4  10  20  33  51  76 106 137 171 218 269 316
#     4   9  17  31  51  74 101 134 169 208 253 303
#     4  12  19  31  52  72 104 140 176 207 255 312
#     4   9  17  32  52  75 103 133 171 220 266 310
#     4  10  21  33  47  74 107 139 171 206 250 303
#
# _framework density 16.716467999999999
#
# number of rings (size 3 to 8) (size 9 to 14) (size 15 to 20)
#    0.000    2.200    3.000    0.900    0.000    0.800 
#    1.800    2.000    0.000    0.600    0.000    0.000 
#    0.000    0.000    0.000    0.000    0.000    0.000 
#
# Total GULP energy -222669.057429 kJ/mol
# GULP energy per Si atom -5566.726436 kJ/mol
# Density = 1.667842 g / cm^3
# Si number density = 16.716468 Si / 1000 Ang^3
#
#
#
# Elastic Constant Matrix: (Units=GPa)
#
#
# Indices 1 2 3 4 5 6 
#
# 1 80.3469 32.8941 39.9042 0.0000 0.0000 0.0000
# 2 32.8941 125.1558 62.8335 0.0000 0.0000 0.0000
# 3 39.9042 62.8335 121.9057 0.0000 0.0000 0.0000
# 4 0.0000 0.0000 0.0000 7.5547 0.0000 0.0000
# 5 0.0000 0.0000 0.0000 0.0000 15.3656 0.0000
# 6 0.0000 0.0000 0.0000 0.0000 0.0000 55.3353
#
#
#
# Elastic Compliance Matrix: (Units=1/GPa)
#
#
# Indices 1 2 3 4 5 6 
#
# 1 0.015233 -0.002024 -0.003943 0.000000 0.000000 0.000000
# 2 -0.002024 0.011048 -0.005032 0.000000 0.000000 0.000000
# 3 -0.003943 -0.005032 0.012087 0.000000 0.000000 0.000000
# 4 0.000000 0.000000 0.000000 0.132367 0.000000 0.000000
# 5 0.000000 0.000000 0.000000 0.000000 0.065080 0.000000
# 6 0.000000 0.000000 0.000000 0.000000 0.000000 0.018072
#
#
# Mechanical properties :
#
#
# Convention : Reuss Voigt Hill
#
# Bulk Modulus (GPa) = 61.08583 66.51913 63.80248
# Shear Modulus (GPa) = 17.77190 28.43622 23.10406
#
# Velocity S-wave (km/s) = 3.26412 4.12890 3.72171
# Velocity P-wave (km/s) = 7.12935 7.91261 7.53117
#
# Compressibility (1/GPa) = 0.01637041
#
# Stress axis : x y z
#
# Youngs Moduli (GPa) = 65.64692 90.51152 82.73045
#
# Poissons Ratio (x) = 0.18320 0.32621
# Poissons Ratio (y) = 0.13287 0.41631
# Poissons Ratio (z) = 0.25885 0.45546
#
# Static dielectric constant tensor:
#      x y z
#    x 1.590800 0.000000 0.000000 
#    y 0.000000 1.578390 0.000000 
#    z 0.000000 0.000000 1.569880 
# 
# From -- ./inp_files/64036.got.cif
#   From: 2010.05.17/outbox.cif.g08.bks.cpg/sg74_33_cif.got.tgz:64036.got - 2010.06.03 17:57:02.
