data_PCOD9537832
_publ_section_title
;
Structure prediction by ZEFSAII (Michael W. Deem and Ramdas Pophale) SiO2 
 PCOD9537832
Probable space group: I M M A
;
_chemical_formula_sum "Si O2"
_cell_formula_units_Z 116
_cell_length_a 23.845656
_cell_length_b 7.971348
_cell_length_c 29.516737
_cell_angle_alpha 90.000000
_cell_angle_beta 90.000000
_cell_angle_gamma 90.000000
_cell_volume 5610.601060
_symmetry_space_group_name_H-M "I M M A"
_symmetry_group_IT_number 74
_symmetry_cell_setting 'orthorhombic'
loop_
_space_group_symop_operation_xyz
x,y,z
-x,1/2-y,z
x,-y,-z
-x,1/2+y,-z
-x,-y,-z
x,1/2+y,-z
-x,y,z
x,1/2-y,z
1/2+x,1/2+y,1/2+z
1/2-x,-y,1/2+z
1/2+x,1/2-y,1/2-z
1/2-x,y,1/2-z
1/2-x,1/2-y,1/2-z
1/2+x,y,1/2-z
1/2-x,1/2+y,1/2+z
1/2+x,-y,1/2+z
loop_
_atom_site_type_symbol
_atom_site_label
_atom_site_fract_x
_atom_site_fract_y
_atom_site_fract_z
Si Si1 0.419203 0.942910 0.595422
Si Si2 0.694750 0.053879 0.451536
Si Si3 0.319592 0.440231 0.949426
Si Si4 0.600133 0.053120 0.692276
Si Si5 0.500000 0.250000 0.570410
Si Si6 0.336502 0.443680 0.147561
Si Si7 0.561741 0.049469 0.790514
Si Si8 0.272388 0.950335 0.698706
O O1 0.432978 0.750000 0.580803
O O2 0.353243 0.967698 0.585134
O O3 0.426003 0.960097 0.649333
O O4 0.452068 0.097465 0.572947
O O5 0.710847 0.250000 0.452764
O O6 0.670079 0.000000 0.500000
O O7 0.752021 0.953917 0.445774
O O8 0.337687 0.250000 0.944188
O O9 0.342109 0.539048 0.906214
O O10 0.334172 0.500000 0.000000
O O11 0.585355 0.250000 0.687407
O O12 0.578439 0.987109 0.740493
O O13 0.667471 0.034784 0.692628
O O14 0.333967 0.250000 0.160450
O O15 0.389335 0.514927 0.174055
O O16 0.276830 0.514358 0.165372
O O17 0.500000 0.986195 0.803680
O O18 0.558767 0.250000 0.786335
O O19 0.281117 0.750000 0.691238
O O20 0.250000 0.973437 0.750000
#
# Coordination Sequence:
#
# PCOD9537832 Si02
#       8
#    16  16  16  16   4  16  16  16
#     4  11  25  42  63  89 118 159 209 266 321 377
#     4  10  21  38  64  92 123 157 198 248 312 379
#     4  11  22  37  63  95 126 159 198 243 306 372
#     4  11  22  36  61  88 121 162 210 260 312 372
#     4  12  26  44  66  82 120 156 218 262 328 364
#     4  11  22  38  60  87 126 162 202 254 306 365
#     4  10  23  40  59  84 118 162 210 255 302 358
#     4  10  20  35  54  83 124 163 201 250 310 367
#
# _framework density 20.675146000000002
#
# number of rings (size 3 to 8) (size 9 to 14) (size 15 to 20)
#    0.000    1.379    2.069    4.345    2.897    5.517 
#    0.000    0.345    0.000    0.414    0.000    0.000 
#    0.000    0.000    0.000    0.000    0.000    0.000 
#
# Total GULP energy -323523.455136 kJ/mol
# GULP energy per Si atom -5577.990606 kJ/mol
# Density = 2.062809 g / cm^3
# Si number density = 20.675146 Si / 1000 Ang^3
#
#
#
# Elastic Constant Matrix: (Units=GPa)
#
#
# Indices 1 2 3 4 5 6 
#
# 1 55.4146 4.3942 4.6836 0.0000 0.0000 0.0000
# 2 4.3942 71.6554 -9.8058 0.0000 0.0000 0.0000
# 3 4.6836 -9.8058 73.6334 0.0000 0.0000 0.0000
# 4 0.0000 0.0000 0.0000 23.1487 0.0000 0.0000
# 5 0.0000 0.0000 0.0000 0.0000 -67.9035 0.0000
# 6 0.0000 0.0000 0.0000 0.0000 0.0000 -78.3638
#
#
#
# Elastic Compliance Matrix: (Units=1/GPa)
#
#
# Indices 1 2 3 4 5 6 
#
# 1 0.018262 -0.001303 -0.001335 0.000000 0.000000 0.000000
# 2 -0.001303 0.014308 0.001988 0.000000 0.000000 0.000000
# 3 -0.001335 0.001988 0.013930 0.000000 0.000000 0.000000
# 4 0.000000 0.000000 0.000000 0.043199 0.000000 0.000000
# 5 0.000000 0.000000 0.000000 0.000000 -0.014727 0.000000
# 6 0.000000 0.000000 0.000000 0.000000 0.000000 -0.012761
#
#
# Mechanical properties :
#
#
# Convention : Reuss Voigt Hill
#
# Bulk Modulus (GPa) = 22.12329 22.13857 22.13093
# Shear Modulus (GPa) = 63.63179 -11.19496 26.21841
#
# Velocity S-wave (km/s) = 5.55372 -2.32947 3.56492
# Velocity P-wave (km/s) = 7.20060 1.86971 5.26044
#
# Compressibility (1/GPa) = 0.04520123
#
# Stress axis : x y z
#
# Youngs Moduli (GPa) = 54.75875 69.89268 71.78499
#
# Poissons Ratio (x) = 0.09104 0.09584
# Poissons Ratio (y) = 0.07133 -0.14272
# Poissons Ratio (z) = 0.07311 -0.13896
#
# Static dielectric constant tensor:
#      x y z
#    x 1.731980 0.000000 0.000000 
#    y 0.000000 1.732370 0.000000 
#    z 0.000000 0.000000 1.773200 
# 
# From -- ./inp_files/68752.got.cif
#   From: 2010.05.17/outbox.cif.g08.bks.cpg/sg74_35_cif.got.tgz:68752.got - 2010.06.03 17:57:02.
