data_PCOD9537596
_publ_section_title
;
Structure prediction by ZEFSAII (Michael W. Deem and Ramdas Pophale) SiO2 
 PCOD9537596
Probable space group: I M M A
;
_chemical_formula_sum "Si O2"
_cell_formula_units_Z 72
_cell_length_a 20.214133
_cell_length_b 10.833915
_cell_length_c 15.128607
_cell_angle_alpha 90.000000
_cell_angle_beta 90.000000
_cell_angle_gamma 90.000000
_cell_volume 3313.137682
_symmetry_space_group_name_H-M "I M M A"
_symmetry_group_IT_number 74
_symmetry_cell_setting 'orthorhombic'
loop_
_space_group_symop_operation_xyz
x,y,z
-x,1/2-y,z
x,-y,-z
-x,1/2+y,-z
-x,-y,-z
x,1/2+y,-z
-x,y,z
x,1/2-y,z
1/2+x,1/2+y,1/2+z
1/2-x,-y,1/2+z
1/2+x,1/2-y,1/2-z
1/2-x,y,1/2-z
1/2-x,1/2-y,1/2-z
1/2+x,y,1/2-z
1/2-x,1/2+y,1/2+z
1/2+x,-y,1/2+z
loop_
_atom_site_type_symbol
_atom_site_label
_atom_site_fract_x
_atom_site_fract_y
_atom_site_fract_z
Si Si1 0.250000 0.499231 0.250000
Si Si2 0.393173 0.610896 0.246268
Si Si3 0.219976 0.111470 0.437657
Si Si4 0.422299 0.617405 0.451813
Si Si5 0.072160 0.887423 0.621224
O O1 0.315039 0.583384 0.249187
O O2 0.245265 0.416760 0.338445
O O3 0.406407 0.750000 0.212906
O O4 0.417808 0.603825 0.346721
O O5 0.423453 0.501162 0.188545
O O6 0.238327 0.250000 0.465643
O O7 0.139315 0.107110 0.434817
O O8 0.241676 0.000000 0.500000
O O9 0.392457 0.500000 0.500000
O O10 0.500000 0.622029 0.475578
O O11 0.392642 0.750000 0.476520
O O12 0.075151 0.750000 0.664829
O O13 0.000000 0.892922 0.575974
#
# Coordination Sequence:
#
# PCOD9537596 Si02
#       5
#     8  16  16  16  16
#     4  10  22  40  60  82 116 156 196 238 288 346
#     4  10  20  34  54  80 108 142 187 238 287 335
#     4  10  22  40  62  87 117 154 196 242 292 347
#     4   9  18  32  49  72 103 136 173 221 277 335
#     4   9  19  36  57  82 113 149 187 228 282 349
#
# _framework density 21.731666000000001
#
# number of rings (size 3 to 8) (size 9 to 14) (size 15 to 20)
#    0.000    2.444    0.000    1.333    0.000    8.889 
#    0.000    4.444    0.000    0.000    0.000    0.000 
#    0.000    0.000    0.000    0.000    0.000    0.000 
#
# Total GULP energy -200888.273588 kJ/mol
# GULP energy per Si atom -5580.229822 kJ/mol
# Density = 2.168220 g / cm^3
# Si number density = 21.731666 Si / 1000 Ang^3
#
#
#
# Elastic Constant Matrix: (Units=GPa)
#
#
# Indices 1 2 3 4 5 6 
#
# 1 98.5660 17.8792 7.9724 0.0000 0.0000 0.0000
# 2 17.8792 242.8441 70.9868 0.0000 0.0000 0.0000
# 3 7.9724 70.9868 50.4670 0.0000 0.0000 0.0000
# 4 0.0000 0.0000 0.0000 -13.8946 0.0000 0.0000
# 5 0.0000 0.0000 0.0000 0.0000 30.3618 0.0000
# 6 0.0000 0.0000 0.0000 0.0000 0.0000 -2.6757
#
#
#
# Elastic Compliance Matrix: (Units=1/GPa)
#
#
# Indices 1 2 3 4 5 6 
#
# 1 0.010310 -0.000481 -0.000953 0.000000 0.000000 0.000000
# 2 -0.000481 0.007016 -0.009792 0.000000 0.000000 0.000000
# 3 -0.000953 -0.009792 0.033739 0.000000 0.000000 0.000000
# 4 0.000000 0.000000 0.000000 -0.071971 0.000000 0.000000
# 5 0.000000 0.000000 0.000000 0.000000 0.032936 0.000000
# 6 0.000000 0.000000 0.000000 0.000000 0.000000 -0.373737
#
#
# Mechanical properties :
#
#
# Convention : Reuss Voigt Hill
#
# Bulk Modulus (GPa) = 34.94850 65.06154 50.00502
# Shear Modulus (GPa) = -15.16450 22.42756 3.63153
#
# Velocity S-wave (km/s) = -2.64447 3.21600 1.29410
# Velocity P-wave (km/s) = 2.60623 6.61768 5.02922
#
# Compressibility (1/GPa) = 0.02861353
#
# Stress axis : x y z
#
# Youngs Moduli (GPa) = 96.99588 142.53768 29.63902
#
# Poissons Ratio (x) = 0.06850 0.02824
# Poissons Ratio (y) = 0.04661 0.29024
# Poissons Ratio (z) = 0.09241 1.39578
#
# Static dielectric constant tensor:
#      x y z
#    x 1.820490 0.000000 0.000000 
#    y 0.000000 1.789170 0.000000 
#    z 0.000000 0.000000 1.752210 
# 
# From -- ./inp_files/36094.got.cif
#   From: 2010.05.17/outbox.cif.g08.bks.cpg/sg74_19_cif.got.tgz:36094.got - 2010.06.03 17:57:02.
