data_PCOD9537570
_publ_section_title
;
Structure prediction by ZEFSAII (Michael W. Deem and Ramdas Pophale) SiO2 
 PCOD9537570
Probable space group: I M M A
;
_chemical_formula_sum "Si O2"
_cell_formula_units_Z 80
_cell_length_a 27.692077
_cell_length_b 8.423741
_cell_length_c 19.211480
_cell_angle_alpha 90.000000
_cell_angle_beta 90.000000
_cell_angle_gamma 90.000000
_cell_volume 4481.478930
_symmetry_space_group_name_H-M "I M M A"
_symmetry_group_IT_number 74
_symmetry_cell_setting 'orthorhombic'
loop_
_space_group_symop_operation_xyz
x,y,z
-x,1/2-y,z
x,-y,-z
-x,1/2+y,-z
-x,-y,-z
x,1/2+y,-z
-x,y,z
x,1/2-y,z
1/2+x,1/2+y,1/2+z
1/2-x,-y,1/2+z
1/2+x,1/2-y,1/2-z
1/2-x,y,1/2-z
1/2-x,1/2-y,1/2-z
1/2+x,y,1/2-z
1/2-x,1/2+y,1/2+z
1/2+x,-y,1/2+z
loop_
_atom_site_type_symbol
_atom_site_label
_atom_site_fract_x
_atom_site_fract_y
_atom_site_fract_z
Si Si1 0.103012 0.558015 0.782840
Si Si2 0.053522 0.556998 0.640173
Si Si3 0.555915 0.441478 0.425705
Si Si4 0.654163 0.439898 0.075925
Si Si5 0.200289 0.060144 0.715186
O O1 0.105607 0.750000 0.783171
O O2 0.066389 0.515295 0.720139
O O3 0.084686 0.503562 0.857877
O O4 0.154941 0.492153 0.761887
O O5 0.052808 0.750000 0.636444
O O6 0.099510 0.502751 0.595002
O O7 0.000000 0.499744 0.620502
O O8 0.574907 0.500000 0.500000
O O9 0.500000 0.493735 0.419862
O O10 0.556226 0.250000 0.425614
O O11 0.653342 0.250000 0.076348
O O12 0.688926 0.495621 0.138084
O O13 0.668066 0.500000 0.000000
O O14 0.201803 0.250000 0.711284
O O15 0.250000 0.002933 0.750000
#
# Coordination Sequence:
#
# PCOD9537570 Si02
#       5
#    16  16  16  16  16
#     4   9  17  30  50  73  97 129 167 207 249 295
#     4   8  14  26  46  72 100 131 166 200 236 282
#     4   9  17  29  46  70 101 135 168 202 244 295
#     4  10  20  34  54  78 105 136 167 202 243 289
#     4  10  21  37  56  76  98 126 163 209 257 301
#
# _framework density 17.851248999999999
#
# number of rings (size 3 to 8) (size 9 to 14) (size 15 to 20)
#    0.000    2.800    0.000    3.000    0.000    5.200 
#    0.000    1.000    0.000   21.600    0.000    0.000 
#    0.000    0.000    0.000    0.000    0.000    0.000 
#
# Total GULP energy -222992.382323 kJ/mol
# GULP energy per Si atom -5574.809558 kJ/mol
# Density = 1.781062 g / cm^3
# Si number density = 17.851249 Si / 1000 Ang^3
#
#
#
# Elastic Constant Matrix: (Units=GPa)
#
#
# Indices 1 2 3 4 5 6 
#
# 1 101.4855 16.6124 60.6311 0.0000 0.0000 0.0000
# 2 16.6124 20.4342 23.9064 0.0000 0.0000 0.0000
# 3 60.6311 23.9064 156.8216 0.0000 0.0000 0.0000
# 4 0.0000 0.0000 0.0000 26.6269 0.0000 0.0000
# 5 0.0000 0.0000 0.0000 0.0000 10.8392 0.0000
# 6 0.0000 0.0000 0.0000 0.0000 0.0000 13.5172
#
#
#
# Elastic Compliance Matrix: (Units=1/GPa)
#
#
# Indices 1 2 3 4 5 6 
#
# 1 0.013367 -0.005867 -0.004274 0.000000 0.000000 0.000000
# 2 -0.005867 0.062135 -0.007204 0.000000 0.000000 0.000000
# 3 -0.004274 -0.007204 0.009127 0.000000 0.000000 0.000000
# 4 0.000000 0.000000 0.000000 0.037556 0.000000 0.000000
# 5 0.000000 0.000000 0.000000 0.000000 0.092258 0.000000
# 6 0.000000 0.000000 0.000000 0.000000 0.000000 0.073980
#
#
# Mechanical properties :
#
#
# Convention : Reuss Voigt Hill
#
# Bulk Modulus (GPa) = 20.02390 53.44900 36.73645
# Shear Modulus (GPa) = 14.71630 22.03608 18.37619
#
# Velocity S-wave (km/s) = 2.87432 3.51725 3.21192
# Velocity P-wave (km/s) = 4.71774 6.81917 5.86337
#
# Compressibility (1/GPa) = 0.04994033
#
# Stress axis : x y z
#
# Youngs Moduli (GPa) = 74.80922 16.09392 109.56336
#
# Poissons Ratio (x) = 0.09443 0.46824
# Poissons Ratio (y) = 0.43893 0.78925
# Poissons Ratio (z) = 0.31971 0.11593
#
# Static dielectric constant tensor:
#      x y z
#    x 1.606200 0.000000 0.000000 
#    y 0.000000 1.616260 0.000000 
#    z 0.000000 0.000000 1.605130 
# 
# From -- ./inp_files/39709.got.cif
#   From: 2010.05.17/outbox.cif.g08.bks.cpg/sg74_20_cif.got.tgz:39709.got - 2010.06.03 17:57:02.
