data_PCOD9537090
_publ_section_title
;
Structure prediction by ZEFSAII (Michael W. Deem and Ramdas Pophale) SiO2 
 PCOD9537090
Probable space group: I M M A
;
_chemical_formula_sum "Si O2"
_cell_formula_units_Z 88
_cell_length_a 13.349579
_cell_length_b 24.984593
_cell_length_c 17.218276
_cell_angle_alpha 90.000000
_cell_angle_beta 90.000000
_cell_angle_gamma 90.000000
_cell_volume 5742.876990
_symmetry_space_group_name_H-M "I M M A"
_symmetry_group_IT_number 74
_symmetry_cell_setting 'orthorhombic'
loop_
_space_group_symop_operation_xyz
x,y,z
-x,1/2-y,z
x,-y,-z
-x,1/2+y,-z
-x,-y,-z
x,1/2+y,-z
-x,y,z
x,1/2-y,z
1/2+x,1/2+y,1/2+z
1/2-x,-y,1/2+z
1/2+x,1/2-y,1/2-z
1/2-x,y,1/2-z
1/2-x,1/2-y,1/2-z
1/2+x,y,1/2-z
1/2-x,1/2+y,1/2+z
1/2+x,-y,1/2+z
loop_
_atom_site_type_symbol
_atom_site_label
_atom_site_fract_x
_atom_site_fract_y
_atom_site_fract_z
Si Si1 0.000000 0.426011 0.267864
Si Si2 0.720888 0.688079 0.662585
Si Si3 0.500000 0.189232 0.288810
Si Si4 0.000000 0.554198 0.550279
Si Si5 0.820060 0.515747 0.819221
Si Si6 0.718735 0.905449 0.944280
Si Si7 0.389579 0.555318 0.450594
O O1 0.095450 0.446353 0.218797
O O2 0.000000 0.361158 0.269602
O O3 0.000000 0.449740 0.354921
O O4 0.750580 0.750000 0.654626
O O5 0.750000 0.670729 0.750000
O O6 0.600457 0.684384 0.660685
O O7 0.770505 0.650421 0.599782
O O8 0.500000 0.250000 0.254730
O O9 0.000000 0.500000 0.500000
O O10 0.894954 0.583174 0.531767
O O11 0.750000 0.497119 0.750000
O O12 0.754830 0.550181 0.880691
O O13 0.868553 0.466288 0.864638
O O14 0.798774 0.911049 0.013712
O O15 0.392270 0.500000 0.500000
O O16 0.500000 0.580278 0.457973
#
# Coordination Sequence:
#
# PCOD9537090 Si02
#       7
#     8  16   8   8  16  16  16
#     4  12  20  30  52  68  99 134 168 205 250 304
#     4  10  20  33  49  72  97 129 174 215 250 291
#     4  10  20  32  49  75 100 126 170 216 247 289
#     4  12  24  36  46  70  98 135 169 204 256 302
#     4  11  19  31  48  71  94 127 170 203 249 298
#     4  11  21  33  49  68 100 133 163 203 254 300
#     4   9  19  31  47  69  94 127 162 206 246 302
#
# _framework density 15.32333
#
# number of rings (size 3 to 8) (size 9 to 14) (size 15 to 20)
#    0.000    1.455    4.545    3.273    2.545    0.000 
#    0.000    0.455    0.000    0.000    0.000    0.000 
#    0.000    0.727    0.000    0.545    0.000    0.000 
#
# Total GULP energy -245371.404611 kJ/mol
# GULP energy per Si atom -5576.622832 kJ/mol
# Density = 1.528845 g / cm^3
# Si number density = 15.323330 Si / 1000 Ang^3
#
#
#
# Elastic Constant Matrix: (Units=GPa)
#
#
# Indices 1 2 3 4 5 6 
#
# 1 135.2155 38.7645 33.2944 0.0000 0.0000 0.0000
# 2 38.7645 72.9645 37.9928 0.0000 0.0000 0.0000
# 3 33.2944 37.9928 61.7400 0.0000 0.0000 0.0000
# 4 0.0000 0.0000 0.0000 24.4857 0.0000 0.0000
# 5 0.0000 0.0000 0.0000 0.0000 18.0481 0.0000
# 6 0.0000 0.0000 0.0000 0.0000 0.0000 17.2077
#
#
#
# Elastic Compliance Matrix: (Units=1/GPa)
#
#
# Indices 1 2 3 4 5 6 
#
# 1 0.009048 -0.003335 -0.002827 0.000000 0.000000 0.000000
# 2 -0.003335 0.021397 -0.011368 0.000000 0.000000 0.000000
# 3 -0.002827 -0.011368 0.024717 0.000000 0.000000 0.000000
# 4 0.000000 0.000000 0.000000 0.040840 0.000000 0.000000
# 5 0.000000 0.000000 0.000000 0.000000 0.055407 0.000000
# 6 0.000000 0.000000 0.000000 0.000000 0.000000 0.058113
#
#
# Mechanical properties :
#
#
# Convention : Reuss Voigt Hill
#
# Bulk Modulus (GPa) = 49.74864 54.44706 52.09785
# Shear Modulus (GPa) = 19.89785 22.60619 21.25202
#
# Velocity S-wave (km/s) = 3.60743 3.84510 3.72816
# Velocity P-wave (km/s) = 7.06313 7.43790 7.25294
#
# Compressibility (1/GPa) = 0.02010105
#
# Stress axis : x y z
#
# Youngs Moduli (GPa) = 110.52457 46.73639 40.45764
#
# Poissons Ratio (x) = 0.15586 0.11437
# Poissons Ratio (y) = 0.36858 0.45994
# Poissons Ratio (z) = 0.31245 0.53132
#
# Static dielectric constant tensor:
#      x y z
#    x 1.570290 0.000000 0.000000 
#    y 0.000000 1.498000 0.000000 
#    z 0.000000 0.000000 1.504440 
# 
# From -- ./inp_files/31015.got.cif
#   From: 2010.05.17/outbox.cif.g08.bks.cpg/sg74_16_cif.got.tgz:31015.got - 2010.06.03 17:57:02.
