data_PCOD9537432
_publ_section_title
;
Structure prediction by ZEFSAII (Michael W. Deem and Ramdas Pophale) SiO2 
 PCOD9537432
Probable space group: I M M A
;
_chemical_formula_sum "Si O2"
_cell_formula_units_Z 88
_cell_length_a 7.519122
_cell_length_b 19.305208
_cell_length_c 28.440385
_cell_angle_alpha 90.000000
_cell_angle_beta 90.000000
_cell_angle_gamma 90.000000
_cell_volume 4128.355497
_symmetry_space_group_name_H-M "I M M A"
_symmetry_group_IT_number 74
_symmetry_cell_setting 'orthorhombic'
loop_
_space_group_symop_operation_xyz
x,y,z
-x,1/2-y,z
x,-y,-z
-x,1/2+y,-z
-x,-y,-z
x,1/2+y,-z
-x,y,z
x,1/2-y,z
1/2+x,1/2+y,1/2+z
1/2-x,-y,1/2+z
1/2+x,1/2-y,1/2-z
1/2-x,y,1/2-z
1/2-x,1/2-y,1/2-z
1/2+x,y,1/2-z
1/2-x,1/2+y,1/2+z
1/2+x,-y,1/2+z
loop_
_atom_site_type_symbol
_atom_site_label
_atom_site_fract_x
_atom_site_fract_y
_atom_site_fract_z
Si Si1 0.215193 0.937450 0.465654
Si Si2 0.707353 0.539260 0.357667
Si Si3 0.786548 0.173887 0.805394
Si Si4 0.713476 0.250000 0.305270
Si Si5 0.285260 0.671509 0.960480
Si Si6 0.211025 0.613696 0.858605
O O1 0.283833 0.947890 0.413424
O O2 0.272629 0.867895 0.492491
O O3 0.000000 0.937983 0.462737
O O4 0.268024 0.000000 0.500000
O O5 0.500000 0.535944 0.343719
O O6 0.785556 0.606417 0.331909
O O7 0.784791 0.462800 0.347622
O O8 0.719072 0.250000 0.820814
O O9 0.750000 0.167606 0.750000
O O10 0.000000 0.175077 0.812192
O O11 0.500000 0.250000 0.312221
O O12 0.750000 0.250000 0.250000
O O13 0.783023 0.179821 0.329965
O O14 0.500000 0.673082 0.961263
O O15 0.219391 0.750000 0.957021
O O16 0.234527 0.629703 0.913781
O O17 0.000000 0.611060 0.849353
#
# Coordination Sequence:
#
# PCOD9537432 Si02
#       6
#    16  16  16   8  16  16
#     4  10  20  34  51  76 109 141 175 218 264 310
#     4  10  21  35  55  82 110 141 179 222 266 319
#     4   9  19  37  58  80 108 140 176 220 270 323
#     4  10  22  38  54  76 106 138 174 224 273 316
#     4  10  20  34  53  76 103 139 182 220 259 311
#     4  10  20  35  54  76 104 138 178 220 265 316
#
# _framework density 21.315995000000001
#
# number of rings (size 3 to 8) (size 9 to 14) (size 15 to 20)
#    0.000    2.182    2.727    0.000    0.000    4.000 
#    0.000    0.000    0.000    0.000    0.000    0.000 
#    0.000    0.000    0.000    0.000    0.000    0.000 
#
# Total GULP energy -245656.958600 kJ/mol
# GULP energy per Si atom -5583.112695 kJ/mol
# Density = 2.126748 g / cm^3
# Si number density = 21.315995 Si / 1000 Ang^3
#
#
#
# Elastic Constant Matrix: (Units=GPa)
#
#
# Indices 1 2 3 4 5 6 
#
# 1 56.3850 14.9104 -7.6983 0.0000 0.0000 0.0000
# 2 14.9104 242.1977 79.4606 0.0000 0.0000 0.0000
# 3 -7.6983 79.4606 77.3018 0.0000 0.0000 0.0000
# 4 0.0000 0.0000 0.0000 51.5637 0.0000 0.0000
# 5 0.0000 0.0000 0.0000 0.0000 24.4098 0.0000
# 6 0.0000 0.0000 0.0000 0.0000 0.0000 -5.9219
#
#
#
# Elastic Compliance Matrix: (Units=1/GPa)
#
#
# Indices 1 2 3 4 5 6 
#
# 1 0.019094 -0.002715 0.004692 0.000000 0.000000 0.000000
# 2 -0.002715 0.006616 -0.007071 0.000000 0.000000 0.000000
# 3 0.004692 -0.007071 0.020672 0.000000 0.000000 0.000000
# 4 0.000000 0.000000 0.000000 0.019393 0.000000 0.000000
# 5 0.000000 0.000000 0.000000 0.000000 0.040967 0.000000
# 6 0.000000 0.000000 0.000000 0.000000 0.000000 -0.168865
#
#
# Mechanical properties :
#
#
# Convention : Reuss Voigt Hill
#
# Bulk Modulus (GPa) = 27.62866 61.02556 44.32711
# Shear Modulus (GPa) = -125.40551 33.29112 -46.05720
#
# Velocity S-wave (km/s) = -7.67850 3.95624 -4.65336
# Velocity P-wave (km/s) = 8.10080 7.03990 2.83396
#
# Compressibility (1/GPa) = 0.03619430
#
# Stress axis : x y z
#
# Youngs Moduli (GPa) = 52.37314 151.15210 48.37454
#
# Poissons Ratio (x) = 0.41036 -0.22698
# Poissons Ratio (y) = 0.14219 0.34206
# Poissons Ratio (z) = -0.24575 1.06879
#
# Static dielectric constant tensor:
#      x y z
#    x 1.802140 0.000000 0.000000 
#    y 0.000000 1.819520 0.000000 
#    z 0.000000 0.000000 1.696320 
# 
# From -- ./inp_files/56956.got.cif
#   From: 2010.05.17/outbox.cif.g08.bks.cpg/sg74_29_cif.got.tgz:56956.got - 2010.06.03 17:57:02.
