data_PCOD9537485
_publ_section_title
;
Structure prediction by ZEFSAII (Michael W. Deem and Ramdas Pophale) SiO2 
 PCOD9537485
Probable space group: I M M A
;
_chemical_formula_sum "Si O2"
_cell_formula_units_Z 96
_cell_length_a 8.230814
_cell_length_b 30.152981
_cell_length_c 16.871177
_cell_angle_alpha 90.000000
_cell_angle_beta 90.000000
_cell_angle_gamma 90.000000
_cell_volume 4187.149076
_symmetry_space_group_name_H-M "I M M A"
_symmetry_group_IT_number 74
_symmetry_cell_setting 'orthorhombic'
loop_
_space_group_symop_operation_xyz
x,y,z
-x,1/2-y,z
x,-y,-z
-x,1/2+y,-z
-x,-y,-z
x,1/2+y,-z
-x,y,z
x,1/2-y,z
1/2+x,1/2+y,1/2+z
1/2-x,-y,1/2+z
1/2+x,1/2-y,1/2-z
1/2-x,y,1/2-z
1/2-x,1/2-y,1/2-z
1/2+x,y,1/2-z
1/2-x,1/2+y,1/2+z
1/2+x,-y,1/2+z
loop_
_atom_site_type_symbol
_atom_site_label
_atom_site_fract_x
_atom_site_fract_y
_atom_site_fract_z
Si Si1 0.192108 0.434260 0.059721
Si Si2 0.320261 0.799037 0.532532
Si Si3 0.185401 0.360959 0.337682
Si Si4 0.194339 0.991861 0.335963
Si Si5 0.186244 0.299677 0.634521
Si Si6 0.196594 0.896427 0.388468
O O1 0.293378 0.410003 0.128849
O O2 0.228346 0.484767 0.086366
O O3 0.000000 0.427148 0.067407
O O4 0.246210 0.410804 0.977447
O O5 0.500000 0.805532 0.496614
O O6 0.313752 0.750000 0.567040
O O7 0.290016 0.832624 0.601667
O O8 0.193544 0.801110 0.461368
O O9 0.250000 0.357301 0.250000
O O10 0.000000 0.346482 0.342251
O O11 0.250000 0.009525 0.250000
O O12 0.241677 0.939928 0.339312
O O13 0.000000 0.994882 0.342520
O O14 0.256603 0.250000 0.655215
O O15 0.257592 0.349325 0.648479
O O16 0.000000 0.299161 0.662987
O O17 0.000000 0.892489 0.392153
#
# Coordination Sequence:
#
# PCOD9537485 Si02
#       6
#    16  16  16  16  16  16
#     4  12  24  39  60  87 117 152 195 243 294 349
#     4  10  20  34  52  77 109 145 188 239 293 345
#     4  12  24  38  55  76 108 150 196 242 293 348
#     4  11  24  42  62  86 120 158 198 244 297 353
#     4   9  17  32  57  87 117 152 193 237 288 346
#     4  10  21  38  62  91 121 156 196 243 292 345
#
# _framework density 22.927295000000001
#
# number of rings (size 3 to 8) (size 9 to 14) (size 15 to 20)
#    0.000    1.333    1.667    5.000    0.000    4.667 
#    0.000    0.000    0.000    0.500    0.000    0.000 
#    0.000    0.000    0.000    0.000    0.000    0.167 
#
# Total GULP energy -267721.500330 kJ/mol
# GULP energy per Si atom -5577.531257 kJ/mol
# Density = 2.287511 g / cm^3
# Si number density = 22.927295 Si / 1000 Ang^3
#
#
#
# Elastic Constant Matrix: (Units=GPa)
#
#
# Indices 1 2 3 4 5 6 
#
# 1 44.8467 1.6339 -3.1730 0.0000 0.0000 0.0000
# 2 1.6339 132.1708 11.5261 0.0001 0.0000 0.0000
# 3 -3.1730 11.5261 87.6737 0.0000 0.0000 0.0000
# 4 0.0000 0.0001 0.0000 49.9260 0.0000 0.0000
# 5 0.0000 0.0000 0.0000 0.0000 6.1695 0.0000
# 6 0.0000 0.0000 0.0000 0.0000 0.0000 18.9015
#
#
#
# Elastic Compliance Matrix: (Units=1/GPa)
#
#
# Indices 1 2 3 4 5 6 
#
# 1 0.022372 -0.000351 0.000856 0.000000 0.000000 0.000000
# 2 -0.000351 0.007659 -0.001020 0.000000 0.000000 0.000000
# 3 0.000856 -0.001020 0.011571 0.000000 0.000000 0.000000
# 4 0.000000 0.000000 0.000000 0.020030 0.000000 0.000000
# 5 0.000000 0.000000 0.000000 0.000000 0.162087 0.000000
# 6 0.000000 0.000000 0.000000 0.000000 0.000000 0.052906
#
#
# Mechanical properties :
#
#
# Convention : Reuss Voigt Hill
#
# Bulk Modulus (GPa) = 24.64772 31.62946 28.13859
# Shear Modulus (GPa) = 17.17162 31.97968 24.57565
#
# Velocity S-wave (km/s) = 2.73968 3.73879 3.27753
# Velocity P-wave (km/s) = 4.55868 5.69768 5.15971
#
# Compressibility (1/GPa) = 0.04057170
#
# Stress axis : x y z
#
# Youngs Moduli (GPa) = 44.69967 130.56147 86.42337
#
# Poissons Ratio (x) = 0.04585 -0.07396
# Poissons Ratio (y) = 0.01570 0.08812
# Poissons Ratio (z) = -0.03826 0.13312
#
# Static dielectric constant tensor:
#      x y z
#    x 1.814900 0.000000 0.000000 
#    y 0.000000 1.993490 0.000000 
#    z 0.000000 0.000000 1.785340 
# 
# From -- ./inp_files/49137.got.cif
#   From: 2010.05.17/outbox.cif.g08.bks.cpg/sg74_25_cif.got.tgz:49137.got - 2010.06.03 17:57:02.
