data_PCOD9537369
_publ_section_title
;
Structure prediction by ZEFSAII (Michael W. Deem and Ramdas Pophale) SiO2 
 PCOD9537369
Probable space group: I M M A
;
_chemical_formula_sum "Si O2"
_cell_formula_units_Z 96
_cell_length_a 27.616935
_cell_length_b 21.604843
_cell_length_c 8.019318
_cell_angle_alpha 90.000000
_cell_angle_beta 90.000000
_cell_angle_gamma 90.000000
_cell_volume 4784.802628
_symmetry_space_group_name_H-M "I M M A"
_symmetry_group_IT_number 74
_symmetry_cell_setting 'orthorhombic'
loop_
_space_group_symop_operation_xyz
x,y,z
-x,1/2-y,z
x,-y,-z
-x,1/2+y,-z
-x,-y,-z
x,1/2+y,-z
-x,y,z
x,1/2-y,z
1/2+x,1/2+y,1/2+z
1/2-x,-y,1/2+z
1/2+x,1/2-y,1/2-z
1/2-x,y,1/2-z
1/2-x,1/2-y,1/2-z
1/2+x,y,1/2-z
1/2-x,1/2+y,1/2+z
1/2+x,-y,1/2+z
loop_
_atom_site_type_symbol
_atom_site_label
_atom_site_fract_x
_atom_site_fract_y
_atom_site_fract_z
Si Si1 0.296939 0.461376 0.664974
Si Si2 0.947439 0.999817 0.198801
Si Si3 0.139837 0.050904 0.366714
Si Si4 0.444928 0.823195 0.656414
Si Si5 0.392899 0.377230 0.669746
Si Si6 0.379233 0.319513 0.018997
O O1 0.285543 0.500000 0.500000
O O2 0.250000 0.431891 0.750000
O O3 0.315678 0.516421 0.783899
O O4 0.341279 0.412886 0.643522
O O5 0.928763 0.930963 0.235806
O O6 0.000000 0.011835 0.273493
O O7 0.906252 0.048902 0.244806
O O8 0.950629 0.000000 0.000000
O O9 0.151159 0.118535 0.435444
O O10 0.123165 0.000000 0.500000
O O11 0.500000 0.848874 0.650979
O O12 0.447593 0.750000 0.620669
O O13 0.412913 0.850314 0.503794
O O14 0.422471 0.825565 0.844130
O O15 0.390724 0.329102 0.823298
O O16 0.358956 0.250000 0.042756
#
# Coordination Sequence:
#
# PCOD9537369 Si02
#       6
#    16  16  16  16  16  16
#     4  11  23  39  67 100 125 160 211 272 333 396
#     4  10  20  33  54  84 120 163 210 263 321 381
#     4  11  20  39  58  87 122 158 206 262 319 378
#     4  10  22  39  60  91 133 181 227 267 315 382
#     4  11  21  40  62  91 131 170 216 272 329 387
#     4  11  23  39  63  90 126 172 217 262 316 379
#
# _framework density 20.063524000000001
#
# number of rings (size 3 to 8) (size 9 to 14) (size 15 to 20)
#    0.000    1.333    3.333    5.500    0.000    3.667 
#    0.000    1.667    0.000    2.500    0.000    0.000 
#    0.000    0.000    0.000    0.000    0.000    0.000 
#
# Total GULP energy -267463.550602 kJ/mol
# GULP energy per Si atom -5572.157304 kJ/mol
# Density = 2.001786 g / cm^3
# Si number density = 20.063524 Si / 1000 Ang^3
#
#
#
# Elastic Constant Matrix: (Units=GPa)
#
#
# Indices 1 2 3 4 5 6 
#
# 1 95.5723 19.2596 36.5991 0.0000 0.0000 0.0000
# 2 19.2596 111.8013 16.8130 0.0000 0.0000 0.0000
# 3 36.5991 16.8130 115.0749 0.0000 0.0000 0.0000
# 4 0.0000 0.0000 0.0000 38.9507 0.0000 0.0000
# 5 0.0000 0.0000 0.0000 0.0000 -28.5909 0.0000
# 6 0.0000 0.0000 0.0000 0.0000 0.0000 23.6365
#
#
#
# Elastic Compliance Matrix: (Units=1/GPa)
#
#
# Indices 1 2 3 4 5 6 
#
# 1 0.012171 -0.001549 -0.003645 0.000000 0.000000 0.000000
# 2 -0.001549 0.009342 -0.000872 0.000000 0.000000 0.000000
# 3 -0.003645 -0.000872 0.009977 0.000000 0.000000 0.000000
# 4 0.000000 0.000000 0.000000 0.025673 0.000000 0.000000
# 5 0.000000 0.000000 0.000000 0.000000 -0.034976 0.000000
# 6 0.000000 0.000000 0.000000 0.000000 0.000000 0.042307
#
#
# Mechanical properties :
#
#
# Convention : Reuss Voigt Hill
#
# Bulk Modulus (GPa) = 51.65645 51.97689 51.81667
# Shear Modulus (GPa) = 60.18349 23.45104 41.81726
#
# Velocity S-wave (km/s) = 5.48285 3.42254 4.57030
# Velocity P-wave (km/s) = 8.11692 6.44831 7.33025
#
# Compressibility (1/GPa) = 0.01935867
#
# Stress axis : x y z
#
# Youngs Moduli (GPa) = 82.16197 107.03876 100.23401
#
# Poissons Ratio (x) = 0.16576 0.36532
# Poissons Ratio (y) = 0.12723 0.08745
# Poissons Ratio (z) = 0.29946 0.09339
#
# Static dielectric constant tensor:
#      x y z
#    x 1.768940 0.000000 0.000000 
#    y 0.000000 1.797280 0.000000 
#    z 0.000000 0.000000 1.853600 
# 
# From -- ./inp_files/13916.got.cif
#   From: 2010.05.17/outbox.cif.g08.bks.cpg/sg74_7_cif.got.tgz:13916.got - 2010.06.03 17:57:02.
