data_PCOD9537385
_publ_section_title
;
Structure prediction by ZEFSAII (Michael W. Deem and Ramdas Pophale) SiO2 
 PCOD9537385
Probable space group: I M M A
;
_chemical_formula_sum "Si O2"
_cell_formula_units_Z 72
_cell_length_a 26.681941
_cell_length_b 16.617742
_cell_length_c 7.583545
_cell_angle_alpha 90.000000
_cell_angle_beta 90.000000
_cell_angle_gamma 90.000000
_cell_volume 3362.495406
_symmetry_space_group_name_H-M "I M M A"
_symmetry_group_IT_number 74
_symmetry_cell_setting 'orthorhombic'
loop_
_space_group_symop_operation_xyz
x,y,z
-x,1/2-y,z
x,-y,-z
-x,1/2+y,-z
-x,-y,-z
x,1/2+y,-z
-x,y,z
x,1/2-y,z
1/2+x,1/2+y,1/2+z
1/2-x,-y,1/2+z
1/2+x,1/2-y,1/2-z
1/2-x,y,1/2-z
1/2-x,1/2-y,1/2-z
1/2+x,y,1/2-z
1/2-x,1/2+y,1/2+z
1/2+x,-y,1/2+z
loop_
_atom_site_type_symbol
_atom_site_label
_atom_site_fract_x
_atom_site_fract_y
_atom_site_fract_z
Si Si1 0.357930 0.661551 0.896731
Si Si2 0.654810 0.341563 0.529375
Si Si3 0.916794 0.500000 0.500000
Si Si4 0.445840 0.071821 0.640146
Si Si5 0.758418 0.090486 0.459972
O O1 0.379501 0.750000 0.941743
O O2 0.352951 0.658903 0.683533
O O3 0.386466 0.580339 0.946864
O O4 0.303614 0.652146 0.988749
O O5 0.662787 0.250000 0.585213
O O6 0.604637 0.376540 0.616696
O O7 0.706123 0.391127 0.557285
O O8 0.945779 0.529555 0.329044
O O9 0.500000 0.113906 0.613139
O O10 0.442095 0.000000 0.500000
O O11 0.750000 0.095076 0.250000
O O12 0.774765 0.000000 0.500000
#
# Coordination Sequence:
#
# PCOD9537385 Si02
#       5
#    16  16   8  16  16
#     4  10  21  38  61  96 135 172 215 264 326 398
#     4  10  21  39  63  92 130 172 217 271 325 386
#     4  12  23  42  68  98 132 172 209 276 334 394
#     4  11  24  43  67  93 123 167 219 270 330 392
#     4  10  20  33  58  91 128 173 213 261 323 390
#
# _framework density 21.412669000000001
#
# number of rings (size 3 to 8) (size 9 to 14) (size 15 to 20)
#    0.000    1.556    3.333    1.667    3.111    4.000 
#    0.000    0.000    0.000    6.000    0.000    0.000 
#    0.000    0.000    0.000    0.000    0.000    0.000 
#
# Total GULP energy -200968.607076 kJ/mol
# GULP energy per Si atom -5582.461308 kJ/mol
# Density = 2.136393 g / cm^3
# Si number density = 21.412669 Si / 1000 Ang^3
#
#
#
# Elastic Constant Matrix: (Units=GPa)
#
#
# Indices 1 2 3 4 5 6 
#
# 1 114.4208 42.5839 14.7505 0.0000 0.0000 0.0000
# 2 42.5839 129.6698 9.3514 0.0000 0.0000 0.0000
# 3 14.7505 9.3514 62.9739 0.0000 0.0000 0.0000
# 4 0.0000 0.0000 0.0000 23.5687 0.0000 0.0000
# 5 0.0000 0.0000 0.0000 0.0000 4.3255 0.0000
# 6 0.0000 0.0000 0.0000 0.0000 0.0000 15.1398
#
#
#
# Elastic Compliance Matrix: (Units=1/GPa)
#
#
# Indices 1 2 3 4 5 6 
#
# 1 0.010178 -0.003205 -0.001908 0.000000 0.000000 0.000000
# 2 -0.003205 0.008805 -0.000557 0.000000 0.000000 0.000000
# 3 -0.001908 -0.000557 0.016409 0.000000 0.000000 0.000000
# 4 0.000000 0.000000 0.000000 0.042429 0.000000 0.000000
# 5 0.000000 0.000000 0.000000 0.000000 0.231186 0.000000
# 6 0.000000 0.000000 0.000000 0.000000 0.000000 0.066051
#
#
# Mechanical properties :
#
#
# Convention : Reuss Voigt Hill
#
# Bulk Modulus (GPa) = 41.57589 48.93734 45.25661
# Shear Modulus (GPa) = 12.67697 24.63204 18.65450
#
# Velocity S-wave (km/s) = 2.43581 3.39536 2.95479
# Velocity P-wave (km/s) = 5.23159 6.18670 5.72908
#
# Compressibility (1/GPa) = 0.02405240
#
# Stress axis : x y z
#
# Youngs Moduli (GPa) = 98.24650 113.57713 60.94132
#
# Poissons Ratio (x) = 0.36402 0.11629
# Poissons Ratio (y) = 0.31488 0.03393
# Poissons Ratio (z) = 0.18747 0.06323
#
# Static dielectric constant tensor:
#      x y z
#    x 1.801210 0.000000 0.000000 
#    y 0.000000 1.748080 0.000000 
#    z 0.000000 0.000000 1.792210 
# 
# From -- ./inp_files/15934.got.cif
#   From: 2010.05.17/outbox.cif.g08.bks.cpg/sg74_8_cif.got.tgz:15934.got - 2010.06.03 17:57:02.
