data_PCOD9537292
_publ_section_title
;
Structure prediction by ZEFSAII (Michael W. Deem and Ramdas Pophale) SiO2 
 PCOD9537292
Probable space group: I M M A
;
_chemical_formula_sum "Si O2"
_cell_formula_units_Z 112
_cell_length_a 20.748448
_cell_length_b 24.534495
_cell_length_c 12.792447
_cell_angle_alpha 90.000000
_cell_angle_beta 90.000000
_cell_angle_gamma 90.000000
_cell_volume 6512.029605
_symmetry_space_group_name_H-M "I M M A"
_symmetry_group_IT_number 74
_symmetry_cell_setting 'orthorhombic'
loop_
_space_group_symop_operation_xyz
x,y,z
-x,1/2-y,z
x,-y,-z
-x,1/2+y,-z
-x,-y,-z
x,1/2+y,-z
-x,y,z
x,1/2-y,z
1/2+x,1/2+y,1/2+z
1/2-x,-y,1/2+z
1/2+x,1/2-y,1/2-z
1/2-x,y,1/2-z
1/2-x,1/2-y,1/2-z
1/2+x,y,1/2-z
1/2-x,1/2+y,1/2+z
1/2+x,-y,1/2+z
loop_
_atom_site_type_symbol
_atom_site_label
_atom_site_fract_x
_atom_site_fract_y
_atom_site_fract_z
Si Si1 0.929163 0.814386 0.227638
Si Si2 0.573957 0.991126 0.176148
Si Si3 0.269439 0.081289 0.510938
Si Si4 0.923716 0.309641 0.522796
Si Si5 0.120420 0.576765 0.510643
Si Si6 0.791892 0.184475 0.856280
Si Si7 0.190735 0.512237 0.829527
O O1 0.933077 0.750000 0.202778
O O2 0.917431 0.816194 0.352011
O O3 0.865339 0.833525 0.169545
O O4 0.000000 0.838833 0.204984
O O5 0.500000 0.986064 0.209442
O O6 0.625024 0.001721 0.267164
O O7 0.594288 0.939616 0.104252
O O8 0.582626 0.040882 0.094510
O O9 0.195901 0.064796 0.485905
O O10 0.269545 0.143230 0.553031
O O11 0.309992 0.063537 0.409058
O O12 0.293285 0.041581 0.603081
O O13 0.898428 0.250000 0.494580
O O14 0.890156 0.359986 0.469503
O O15 0.000000 0.311407 0.501034
O O16 0.789087 0.250000 0.879595
O O17 0.750000 0.176684 0.750000
O O18 0.250000 0.520182 0.750000
#
# Coordination Sequence:
#
# PCOD9537292 Si02
#       7
#    16  16  16  16  16  16  16
#     4   8  15  28  44  65  99 143 178 205 252 311
#     4  11  22  36  57  82 107 137 181 233 276 317
#     4  11  22  34  58  82 105 145 187 216 262 338
#     4   9  17  28  44  73 112 143 169 210 269 327
#     4  11  19  33  55  82 109 137 182 226 270 332
#     4  10  20  33  51  82 116 142 176 224 269 317
#     4  11  20  40  56  77 106 143 182 221 271 322
#
# _framework density 17.198938999999999
#
# number of rings (size 3 to 8) (size 9 to 14) (size 15 to 20)
#    0.000    1.857    2.857    4.714    2.000    1.714 
#    0.000    2.143    0.000    1.286    0.000    0.000 
#    0.000    0.000    0.000    0.000    0.000    0.000 
#
# Total GULP energy -312253.084626 kJ/mol
# GULP energy per Si atom -5575.947940 kJ/mol
# Density = 1.715979 g / cm^3
# Si number density = 17.198939 Si / 1000 Ang^3
#
#
#
# Elastic Constant Matrix: (Units=GPa)
#
#
# Indices 1 2 3 4 5 6 
#
# 1 78.4932 9.5136 18.2660 0.0000 0.0000 0.0000
# 2 9.5136 103.6494 24.9597 0.0000 0.0000 0.0000
# 3 18.2660 24.9597 60.5654 0.0000 0.0000 0.0000
# 4 0.0000 0.0000 0.0000 19.3019 0.0000 0.0000
# 5 0.0000 0.0000 0.0000 0.0000 21.9858 0.0000
# 6 0.0000 0.0000 0.0000 0.0000 0.0000 17.8883
#
#
#
# Elastic Compliance Matrix: (Units=1/GPa)
#
#
# Indices 1 2 3 4 5 6 
#
# 1 0.013710 -0.000292 -0.004014 0.000000 0.000000 0.000000
# 2 -0.000292 0.010717 -0.004329 0.000000 0.000000 0.000000
# 3 -0.004014 -0.004329 0.019506 0.000000 0.000000 0.000000
# 4 0.000000 0.000000 0.000000 0.051809 0.000000 0.000000
# 5 0.000000 0.000000 0.000000 0.000000 0.045484 0.000000
# 6 0.000000 0.000000 0.000000 0.000000 0.000000 0.055903
#
#
# Mechanical properties :
#
#
# Convention : Reuss Voigt Hill
#
# Bulk Modulus (GPa) = 37.50558 38.68741 38.09649
# Shear Modulus (GPa) = 22.39297 24.49976 23.44636
#
# Velocity S-wave (km/s) = 3.61223 3.77834 3.69622
# Velocity P-wave (km/s) = 6.26513 6.44805 6.35725
#
# Compressibility (1/GPa) = 0.02666270
#
# Stress axis : x y z
#
# Youngs Moduli (GPa) = 72.94204 93.30917 51.26708
#
# Poissons Ratio (x) = 0.02721 0.20581
# Poissons Ratio (y) = 0.02127 0.22192
# Poissons Ratio (z) = 0.29283 0.40390
#
# Static dielectric constant tensor:
#      x y z
#    x 1.615410 0.000000 0.000000 
#    y 0.000000 1.624260 0.000000 
#    z 0.000000 0.000000 1.566210 
# 
# From -- ./inp_files/24178.got.cif
#   From: 2010.05.17/outbox.cif.g08.bks.cpg/sg74_13_cif.got.tgz:24178.got - 2010.06.03 17:57:02.
