data_PCOD9537742
_publ_section_title
;
Structure prediction by ZEFSAII (Michael W. Deem and Ramdas Pophale) SiO2 
 PCOD9537742
Probable space group: I M M A
;
_chemical_formula_sum "Si O2"
_cell_formula_units_Z 104
_cell_length_a 7.662812
_cell_length_b 25.990319
_cell_length_c 23.322734
_cell_angle_alpha 90.000000
_cell_angle_beta 90.000000
_cell_angle_gamma 90.000000
_cell_volume 4644.930709
_symmetry_space_group_name_H-M "I M M A"
_symmetry_group_IT_number 74
_symmetry_cell_setting 'orthorhombic'
loop_
_space_group_symop_operation_xyz
x,y,z
-x,1/2-y,z
x,-y,-z
-x,1/2+y,-z
-x,-y,-z
x,1/2+y,-z
-x,y,z
x,1/2-y,z
1/2+x,1/2+y,1/2+z
1/2-x,-y,1/2+z
1/2+x,1/2-y,1/2-z
1/2-x,y,1/2-z
1/2-x,1/2-y,1/2-z
1/2+x,y,1/2-z
1/2-x,1/2+y,1/2+z
1/2+x,-y,1/2+z
loop_
_atom_site_type_symbol
_atom_site_label
_atom_site_fract_x
_atom_site_fract_y
_atom_site_fract_z
Si Si1 0.803755 0.464607 0.183630
Si Si2 0.297842 0.639928 0.864766
Si Si3 0.799255 0.490143 0.936287
Si Si4 0.711608 0.874709 0.083865
Si Si5 0.787680 0.691284 0.524539
Si Si6 0.793073 0.750000 0.816250
Si Si7 0.290798 0.193181 0.816001
O O1 0.750000 0.474670 0.250000
O O2 0.795385 0.403106 0.172784
O O3 0.720939 0.487082 0.123846
O O4 0.000000 0.484366 0.181507
O O5 0.500000 0.624241 0.866754
O O6 0.227013 0.649375 0.928793
O O7 0.285009 0.697469 0.840464
O O8 0.793742 0.429035 0.929630
O O9 0.000000 0.509742 0.939201
O O10 0.720101 0.500000 0.000000
O O11 0.500000 0.881370 0.083207
O O12 0.772324 0.852406 0.144315
O O13 0.753981 0.831044 0.037292
O O14 0.725719 0.750000 0.533743
O O15 0.000000 0.692990 0.529747
O O16 0.750000 0.750000 0.750000
O O17 0.000000 0.750000 0.826600
O O18 0.500000 0.194773 0.823002
O O19 0.223699 0.250000 0.832393
O O20 0.250000 0.184958 0.750000
#
# Coordination Sequence:
#
# PCOD9537742 Si02
#       7
#    16  16  16  16  16   8  16
#     4  11  24  42  63  87 117 156 198 245 299 356
#     4  11  21  37  60  87 117 151 191 237 287 339
#     4  10  23  43  63  84 116 155 194 243 303 357
#     4  10  20  34  58  87 112 145 192 241 287 343
#     4   9  17  32  56  86 119 152 188 235 289 342
#     4  12  24  38  56  80 114 152 191 230 271 328
#     4   9  18  33  53  80 115 153 189 229 281 341
#
# _framework density 22.390001000000002
#
# number of rings (size 3 to 8) (size 9 to 14) (size 15 to 20)
#    0.000    1.846    0.769    3.462    0.000    4.615 
#    0.000    3.846    0.000    0.923    0.000    0.000 
#    0.000    0.000    0.000    0.000    0.000    0.000 
#
# Total GULP energy -290128.857146 kJ/mol
# GULP energy per Si atom -5579.401099 kJ/mol
# Density = 2.233904 g / cm^3
# Si number density = 22.390001 Si / 1000 Ang^3
#
#
#
# Elastic Constant Matrix: (Units=GPa)
#
#
# Indices 1 2 3 4 5 6 
#
# 1 49.8094 0.5787 7.6969 0.0000 0.0000 0.0000
# 2 0.5787 74.1221 64.4884 0.0000 0.0000 0.0000
# 3 7.6969 64.4884 139.8287 0.0000 0.0000 0.0000
# 4 0.0000 0.0000 0.0000 51.8341 0.0000 0.0000
# 5 0.0000 0.0000 0.0000 0.0000 2.8966 0.0000
# 6 0.0000 0.0000 0.0000 0.0000 0.0000 -43.6890
#
#
#
# Elastic Compliance Matrix: (Units=1/GPa)
#
#
# Indices 1 2 3 4 5 6 
#
# 1 0.020331 0.001361 -0.001747 0.000000 0.000000 0.000000
# 2 0.001361 0.022624 -0.010509 0.000000 0.000000 0.000000
# 3 -0.001747 -0.010509 0.012094 0.000000 0.000000 0.000000
# 4 0.000000 0.000000 0.000000 0.019292 0.000000 0.000000
# 5 0.000000 0.000000 0.000000 0.000000 0.345231 0.000000
# 6 0.000000 0.000000 0.000000 0.000000 0.000000 -0.022889
#
#
# Mechanical properties :
#
#
# Convention : Reuss Voigt Hill
#
# Bulk Modulus (GPa) = 30.06662 45.47647 37.77155
# Shear Modulus (GPa) = 11.63984 14.94141 13.29063
#
# Velocity S-wave (km/s) = 2.28253 2.58607 2.43903
# Velocity P-wave (km/s) = 4.51712 5.41037 4.98380
#
# Compressibility (1/GPa) = 0.03325947
#
# Stress axis : x y z
#
# Youngs Moduli (GPa) = 49.18686 44.20148 82.68279
#
# Poissons Ratio (x) = -0.06016 0.14443
# Poissons Ratio (y) = -0.06695 0.86890
# Poissons Ratio (z) = 0.08592 0.46451
#
# Static dielectric constant tensor:
#      x y z
#    x 2.022120 0.000000 0.000000 
#    y 0.000000 1.764780 0.000000 
#    z 0.000000 0.000000 1.880330 
# 
# From -- ./inp_files/49335.got.cif
#   From: 2010.05.17/outbox.cif.g08.bks.cpg/sg74_25_cif.got.tgz:49335.got - 2010.06.03 17:57:02.
