data_PCOD9537792
_publ_section_title
;
Structure prediction by ZEFSAII (Michael W. Deem and Ramdas Pophale) SiO2 
 PCOD9537792
Probable space group: I M M A
;
_chemical_formula_sum "Si O2"
_cell_formula_units_Z 104
_cell_length_a 21.663720
_cell_length_b 9.319926
_cell_length_c 28.129215
_cell_angle_alpha 90.000000
_cell_angle_beta 90.000000
_cell_angle_gamma 90.000000
_cell_volume 5679.408544
_symmetry_space_group_name_H-M "I M M A"
_symmetry_group_IT_number 74
_symmetry_cell_setting 'orthorhombic'
loop_
_space_group_symop_operation_xyz
x,y,z
-x,1/2-y,z
x,-y,-z
-x,1/2+y,-z
-x,-y,-z
x,1/2+y,-z
-x,y,z
x,1/2-y,z
1/2+x,1/2+y,1/2+z
1/2-x,-y,1/2+z
1/2+x,1/2-y,1/2-z
1/2-x,y,1/2-z
1/2-x,1/2-y,1/2-z
1/2+x,y,1/2-z
1/2-x,1/2+y,1/2+z
1/2+x,-y,1/2+z
loop_
_atom_site_type_symbol
_atom_site_label
_atom_site_fract_x
_atom_site_fract_y
_atom_site_fract_z
Si Si1 0.843926 0.084835 0.370734
Si Si2 0.928152 0.421762 0.702764
Si Si3 0.500000 0.579798 0.449909
Si Si4 0.745022 0.079589 0.449342
Si Si5 0.428036 0.915179 0.699741
Si Si6 0.111112 0.582901 0.902974
Si Si7 0.431167 0.087352 0.041072
O O1 0.830761 0.250000 0.355414
O O2 0.787459 0.032046 0.404278
O O3 0.898430 0.087620 0.409261
O O4 0.873820 0.991856 0.328808
O O5 0.924795 0.250000 0.700187
O O6 0.919318 0.478909 0.756397
O O7 0.000000 0.463086 0.689285
O O8 0.500000 0.750000 0.455400
O O9 0.500000 0.500000 0.500000
O O10 0.439620 0.524661 0.422733
O O11 0.759063 0.250000 0.456121
O O12 0.674903 0.065222 0.430964
O O13 0.752725 0.000000 0.500000
O O14 0.500000 0.927386 0.683981
O O15 0.419439 0.750000 0.715984
O O16 0.385572 0.939968 0.653852
O O17 0.091004 0.750000 0.909164
O O18 0.500000 0.027655 0.047293
O O19 0.434629 0.250000 0.024156
O O20 0.397803 0.000000 0.000000
#
# Coordination Sequence:
#
# PCOD9537792 Si02
#       7
#    16  16   8  16  16  16  16
#     4  10  20  35  53  75 104 145 190 227 272 331
#     4  10  21  35  54  83 114 142 181 236 287 333
#     4  12  24  36  56  86 118 150 186 232 283 336
#     4  10  22  38  58  82 112 149 190 233 276 332
#     4   9  17  33  58  83 109 145 182 223 279 339
#     4  10  20  38  60  85 115 147 187 231 279 336
#     4   9  17  28  44  67  95 127 167 217 269 323
#
# _framework density 18.311765000000001
#
# number of rings (size 3 to 8) (size 9 to 14) (size 15 to 20)
#    0.000    2.154    0.769    2.538    0.000    5.231 
#    0.000    2.308    0.000    4.615    0.000    0.000 
#    0.000    0.000    0.000    0.000    0.000    0.000 
#
# Total GULP energy -289722.911026 kJ/mol
# GULP energy per Si atom -5571.594443 kJ/mol
# Density = 1.827009 g / cm^3
# Si number density = 18.311765 Si / 1000 Ang^3
#
#
#
# Elastic Constant Matrix: (Units=GPa)
#
#
# Indices 1 2 3 4 5 6 
#
# 1 73.7852 38.0282 35.3483 0.0000 0.0000 0.0000
# 2 38.0282 76.8776 54.5065 0.0000 0.0000 0.0000
# 3 35.3483 54.5065 88.9213 0.0000 0.0000 0.0000
# 4 0.0000 0.0000 0.0000 32.3023 0.0000 0.0000
# 5 0.0000 0.0000 0.0000 0.0000 45.6681 0.0000
# 6 0.0000 0.0000 0.0000 0.0000 0.0000 18.3839
#
#
#
# Elastic Compliance Matrix: (Units=1/GPa)
#
#
# Indices 1 2 3 4 5 6 
#
# 1 0.018665 -0.007026 -0.003113 0.000000 0.000000 0.000000
# 2 -0.007026 0.025651 -0.012930 0.000000 0.000000 0.000000
# 3 -0.003113 -0.012930 0.020410 0.000000 0.000000 0.000000
# 4 0.000000 0.000000 0.000000 0.030958 0.000000 0.000000
# 5 0.000000 0.000000 0.000000 0.000000 0.021897 0.000000
# 6 0.000000 0.000000 0.000000 0.000000 0.000000 0.054395
#
#
# Mechanical properties :
#
#
# Convention : Reuss Voigt Hill
#
# Bulk Modulus (GPa) = 53.80156 55.03891 54.42023
# Shear Modulus (GPa) = 22.29062 26.71762 24.50412
#
# Velocity S-wave (km/s) = 3.49274 3.82388 3.66206
# Velocity P-wave (km/s) = 6.76094 7.04400 6.90392
#
# Compressibility (1/GPa) = 0.01858682
#
# Stress axis : x y z
#
# Youngs Moduli (GPa) = 53.57533 38.98548 48.99673
#
# Poissons Ratio (x) = 0.27389 0.15255
# Poissons Ratio (y) = 0.37640 0.63354
# Poissons Ratio (z) = 0.16680 0.50410
#
# Static dielectric constant tensor:
#      x y z
#    x 1.703670 0.000000 0.000000 
#    y 0.000000 1.635140 0.000000 
#    z 0.000000 0.000000 1.629530 
# 
# From -- ./inp_files/68280.got.cif
#   From: 2010.05.17/outbox.cif.g08.bks.cpg/sg74_35_cif.got.tgz:68280.got - 2010.06.03 17:57:02.
