data_PCOD9537639
_publ_section_title
;
Structure prediction by ZEFSAII (Michael W. Deem and Ramdas Pophale) SiO2 
 PCOD9537639
Probable space group: I M M A
;
_chemical_formula_sum "Si O2"
_cell_formula_units_Z 116
_cell_length_a 17.455058
_cell_length_b 24.752364
_cell_length_c 15.298654
_cell_angle_alpha 90.000000
_cell_angle_beta 90.000000
_cell_angle_gamma 90.000000
_cell_volume 6609.843879
_symmetry_space_group_name_H-M "I M M A"
_symmetry_group_IT_number 74
_symmetry_cell_setting 'orthorhombic'
loop_
_space_group_symop_operation_xyz
x,y,z
-x,1/2-y,z
x,-y,-z
-x,1/2+y,-z
-x,-y,-z
x,1/2+y,-z
-x,y,z
x,1/2-y,z
1/2+x,1/2+y,1/2+z
1/2-x,-y,1/2+z
1/2+x,1/2-y,1/2-z
1/2-x,y,1/2-z
1/2-x,1/2-y,1/2-z
1/2+x,y,1/2-z
1/2-x,1/2+y,1/2+z
1/2+x,-y,1/2+z
loop_
_atom_site_type_symbol
_atom_site_label
_atom_site_fract_x
_atom_site_fract_y
_atom_site_fract_z
Si Si1 0.907397 0.390271 0.719948
Si Si2 0.088822 0.312545 0.880823
Si Si3 0.705747 0.687720 0.539036
Si Si4 0.711657 0.414875 0.344636
Si Si5 0.635061 0.951539 0.931048
Si Si6 0.628663 0.344617 0.965190
Si Si7 0.411898 0.512320 0.741336
Si Si8 0.500000 0.250000 0.968240
O O1 0.891530 0.350508 0.799976
O O2 0.867815 0.368967 0.632484
O O3 0.884439 0.450654 0.746883
O O4 0.000000 0.390449 0.704122
O O5 0.094915 0.250000 0.852767
O O6 0.000000 0.322554 0.904769
O O7 0.143772 0.320459 0.962681
O O8 0.700634 0.750000 0.569636
O O9 0.692207 0.642535 0.612487
O O10 0.789679 0.677335 0.498300
O O11 0.750000 0.405686 0.250000
O O12 0.775210 0.443469 0.405939
O O13 0.640299 0.453555 0.324356
O O14 0.594511 0.963342 0.839059
O O15 0.607758 0.895475 0.973255
O O16 0.624259 0.000000 0.000000
O O17 0.566697 0.297441 0.967236
O O18 0.500000 0.511893 0.713035
#
# Coordination Sequence:
#
# PCOD9537639 Si02
#       8
#    16  16  16  16  16  16  16   4
#     4  10  20  34  54  84 118 154 188 229 294 351
#     4   9  20  36  56  80 114 153 189 236 284 338
#     4  10  21  39  59  84 111 146 203 246 286 350
#     4   9  21  39  57  81 115 149 187 241 297 342
#     4  10  20  37  59  86 115 152 195 236 294 349
#     4  11  22  35  57  85 117 159 190 239 294 351
#     4  10  21  36  57  84 116 148 194 242 289 355
#     4  12  24  36  54  86 124 156 196 234 300 362
#
# _framework density 17.549582000000001
#
# number of rings (size 3 to 8) (size 9 to 14) (size 15 to 20)
#    0.000    2.069    2.759    0.000    1.931    3.862 
#    2.483    1.379    0.000    2.897    0.000    0.000 
#    0.000    0.000    0.000    0.000    0.000    0.000 
#
# Total GULP energy -323106.390049 kJ/mol
# GULP energy per Si atom -5570.799828 kJ/mol
# Density = 1.750964 g / cm^3
# Si number density = 17.549582 Si / 1000 Ang^3
#
#
#
# Elastic Constant Matrix: (Units=GPa)
#
#
# Indices 1 2 3 4 5 6 
#
# 1 65.2059 57.8015 30.6942 0.0000 0.0000 0.0000
# 2 57.8015 136.0967 51.1930 0.0000 0.0000 0.0000
# 3 30.6942 51.1930 41.5047 0.0000 0.0000 0.0000
# 4 0.0000 0.0000 0.0000 23.8015 0.0000 0.0000
# 5 0.0000 0.0000 0.0000 0.0000 10.7261 0.0000
# 6 0.0000 0.0000 0.0000 0.0000 0.0000 20.0537
#
#
#
# Elastic Compliance Matrix: (Units=1/GPa)
#
#
# Indices 1 2 3 4 5 6 
#
# 1 0.026987 -0.007377 -0.010859 0.000000 0.000000 0.000000
# 2 -0.007377 0.015724 -0.013939 0.000000 0.000000 0.000000
# 3 -0.010859 -0.013939 0.049316 0.000000 0.000000 0.000000
# 4 0.000000 0.000000 0.000000 0.042014 0.000000 0.000000
# 5 0.000000 0.000000 0.000000 0.000000 0.093231 0.000000
# 6 0.000000 0.000000 0.000000 0.000000 0.000000 0.049866
#
#
# Mechanical properties :
#
#
# Convention : Reuss Voigt Hill
#
# Bulk Modulus (GPa) = 36.12941 58.02052 47.07497
# Shear Modulus (GPa) = 14.25669 17.79084 16.02377
#
# Velocity S-wave (km/s) = 2.85330 3.18739 3.02496
# Velocity P-wave (km/s) = 5.61131 6.83218 6.25162
#
# Compressibility (1/GPa) = 0.02767828
#
# Stress axis : x y z
#
# Youngs Moduli (GPa) = 37.05504 63.59769 20.27735
#
# Poissons Ratio (x) = 0.46917 0.22018
# Poissons Ratio (y) = 0.27336 0.28264
# Poissons Ratio (z) = 0.40237 0.88646
#
# Static dielectric constant tensor:
#      x y z
#    x 1.603180 0.000000 0.000000 
#    y 0.000000 1.590320 0.000000 
#    z 0.000000 0.000000 1.569020 
# 
# From -- ./inp_files/34531.got.cif
#   From: 2010.05.17/outbox.cif.g08.bks.cpg/sg74_18_cif.got.tgz:34531.got - 2010.06.03 17:57:02.
