data_PCOD9537178
_publ_section_title
;
Structure prediction by ZEFSAII (Michael W. Deem and Ramdas Pophale) SiO2 
 PCOD9537178
Probable space group: I M M A
;
_chemical_formula_sum "Si O2"
_cell_formula_units_Z 104
_cell_length_a 9.136855
_cell_length_b 25.191026
_cell_length_c 25.283703
_cell_angle_alpha 90.000000
_cell_angle_beta 90.000000
_cell_angle_gamma 90.000000
_cell_volume 5819.467795
_symmetry_space_group_name_H-M "I M M A"
_symmetry_group_IT_number 74
_symmetry_cell_setting 'orthorhombic'
loop_
_space_group_symop_operation_xyz
x,y,z
-x,1/2-y,z
x,-y,-z
-x,1/2+y,-z
-x,-y,-z
x,1/2+y,-z
-x,y,z
x,1/2-y,z
1/2+x,1/2+y,1/2+z
1/2-x,-y,1/2+z
1/2+x,1/2-y,1/2-z
1/2-x,y,1/2-z
1/2-x,1/2-y,1/2-z
1/2+x,y,1/2-z
1/2-x,1/2+y,1/2+z
1/2+x,-y,1/2+z
loop_
_atom_site_type_symbol
_atom_site_label
_atom_site_fract_x
_atom_site_fract_y
_atom_site_fract_z
Si Si1 0.170837 0.527007 0.588142
Si Si2 0.330399 0.030518 0.303727
Si Si3 0.175166 0.750000 0.693895
Si Si4 0.826378 0.608919 0.981106
Si Si5 0.669790 0.189491 0.094585
Si Si6 0.829205 0.898981 0.411101
Si Si7 0.831088 0.401002 0.803462
O O1 0.241909 0.545644 0.643591
O O2 0.258782 0.554175 0.540957
O O3 0.179901 0.463345 0.586322
O O4 0.000000 0.541432 0.585209
O O5 0.500000 0.047516 0.305735
O O6 0.250000 0.048042 0.250000
O O7 0.330225 0.965786 0.303144
O O8 0.250000 0.750000 0.750000
O O9 0.211543 0.699554 0.656087
O O10 0.000000 0.750000 0.699409
O O11 0.773485 0.651812 0.938153
O O12 0.000000 0.605763 0.984898
O O13 0.755303 0.621689 0.037657
O O14 0.500000 0.171763 0.091838
O O15 0.674539 0.250000 0.072892
O O16 0.753574 0.883431 0.356046
O O17 0.000000 0.884480 0.412189
O O18 0.750000 0.383923 0.750000
O O19 0.000000 0.384404 0.804173
#
# Coordination Sequence:
#
# PCOD9537178 Si02
#       7
#    16  16   8  16  16  16  16
#     4  10  20  33  48  66  93 132 173 210 249 298
#     4   9  16  27  43  62  86 118 158 203 248 291
#     4   8  16  32  58  84 104 128 159 202 257 312
#     4  12  23  33  49  73 100 129 163 207 255 306
#     4   8  18  37  57  76  99 129 162 200 251 306
#     4  10  20  33  49  69  96 134 174 209 249 297
#     4   9  16  27  44  66  92 123 161 203 243 284
#
# _framework density 17.871051000000001
#
# number of rings (size 3 to 8) (size 9 to 14) (size 15 to 20)
#    0.462    2.000    0.000    3.692    0.000    8.308 
#    0.000    0.769    0.000    1.846    0.000    0.000 
#    0.000    0.615    0.000    2.308    0.000    3.538 
#
# Total GULP energy -289929.479142 kJ/mol
# GULP energy per Si atom -5575.566907 kJ/mol
# Density = 1.783038 g / cm^3
# Si number density = 17.871051 Si / 1000 Ang^3
#
#
#
# Elastic Constant Matrix: (Units=GPa)
#
#
# Indices 1 2 3 4 5 6 
#
# 1 165.2318 13.3495 94.6781 0.0000 0.0000 0.0000
# 2 13.3495 18.9181 12.1778 0.0000 0.0000 0.0000
# 3 94.6781 12.1778 166.5355 0.0000 0.0000 0.0000
# 4 0.0000 0.0000 0.0000 10.4765 0.0000 0.0000
# 5 0.0000 0.0000 0.0000 0.0000 36.4401 0.0000
# 6 0.0000 0.0000 0.0000 0.0000 0.0000 13.9363
#
#
#
# Elastic Compliance Matrix: (Units=1/GPa)
#
#
# Indices 1 2 3 4 5 6 
#
# 1 0.009165 -0.003267 -0.004971 0.000000 0.000000 0.000000
# 2 -0.003267 0.056635 -0.002284 0.000000 0.000000 0.000000
# 3 -0.004971 -0.002284 0.008998 0.000000 0.000000 0.000000
# 4 0.000000 0.000000 0.000000 0.095452 0.000000 0.000000
# 5 0.000000 0.000000 0.000000 0.000000 0.027442 0.000000
# 6 0.000000 0.000000 0.000000 0.000000 0.000000 0.071755
#
#
# Mechanical properties :
#
#
# Convention : Reuss Voigt Hill
#
# Bulk Modulus (GPa) = 18.60360 65.67735 42.14048
# Shear Modulus (GPa) = 16.21221 27.53590 21.87406
#
# Velocity S-wave (km/s) = 3.01521 3.92957 3.50236
# Velocity P-wave (km/s) = 4.74915 7.57755 6.32351
#
# Compressibility (1/GPa) = 0.05375304
#
# Stress axis : x y z
#
# Youngs Moduli (GPa) = 109.11507 17.65689 111.13525
#
# Poissons Ratio (x) = 0.05768 0.55249
# Poissons Ratio (y) = 0.35647 0.25385
# Poissons Ratio (z) = 0.54245 0.04033
#
# Static dielectric constant tensor:
#      x y z
#    x 1.591770 0.000000 0.000000 
#    y 0.000000 1.620880 0.000000 
#    z 0.000000 0.000000 1.614180 
# 
# From -- ./inp_files/57856.got.cif
#   From: 2010.05.17/outbox.cif.g08.bks.cpg/sg74_29_cif.got.tgz:57856.got - 2010.06.03 17:57:02.
