data_PCOD9537505
_publ_section_title
;
Structure prediction by ZEFSAII (Michael W. Deem and Ramdas Pophale) SiO2 
 PCOD9537505
Probable space group: I M M A
;
_chemical_formula_sum "Si O2"
_cell_formula_units_Z 88
_cell_length_a 8.914163
_cell_length_b 19.498536
_cell_length_c 27.899103
_cell_angle_alpha 90.000000
_cell_angle_beta 90.000000
_cell_angle_gamma 90.000000
_cell_volume 4849.230365
_symmetry_space_group_name_H-M "I M M A"
_symmetry_group_IT_number 74
_symmetry_cell_setting 'orthorhombic'
loop_
_space_group_symop_operation_xyz
x,y,z
-x,1/2-y,z
x,-y,-z
-x,1/2+y,-z
-x,-y,-z
x,1/2+y,-z
-x,y,z
x,1/2-y,z
1/2+x,1/2+y,1/2+z
1/2-x,-y,1/2+z
1/2+x,1/2-y,1/2-z
1/2-x,y,1/2-z
1/2-x,1/2-y,1/2-z
1/2+x,y,1/2-z
1/2-x,1/2+y,1/2+z
1/2+x,-y,1/2+z
loop_
_atom_site_type_symbol
_atom_site_label
_atom_site_fract_x
_atom_site_fract_y
_atom_site_fract_z
Si Si1 0.673237 0.440170 0.558125
Si Si2 0.821970 0.250000 0.697760
Si Si3 0.179947 0.973328 0.700786
Si Si4 0.681176 0.328623 0.479518
Si Si5 0.178885 0.576825 0.594742
Si Si6 0.172752 0.612019 0.166441
O O1 0.500000 0.458065 0.546601
O O2 0.728109 0.383509 0.520307
O O3 0.765851 0.509910 0.564950
O O4 0.672486 0.406345 0.610493
O O5 0.750000 0.250000 0.750000
O O6 0.761098 0.181863 0.673043
O O7 0.000000 0.250000 0.700094
O O8 0.250000 0.944806 0.750000
O O9 0.246888 0.049531 0.693475
O O10 0.000000 0.975982 0.704552
O O11 0.218941 0.934615 0.650867
O O12 0.500000 0.329553 0.478605
O O13 0.728187 0.250000 0.488838
O O14 0.744769 0.357950 0.429846
O O15 0.000000 0.581575 0.591596
O O16 0.000000 0.618599 0.182936
#
# Coordination Sequence:
#
# PCOD9537505 Si02
#       6
#    16   8  16  16  16  16
#     4   9  19  35  57  80 106 142 183 222 262 312
#     4  12  24  36  48  66  98 140 182 224 271 320
#     4  10  20  35  55  79 106 135 173 220 268 320
#     4  10  21  36  56  81 110 144 183 224 264 315
#     4  10  21  36  55  81 113 143 176 221 270 321
#     4  10  20  34  53  75 102 137 177 222 267 315
#
# _framework density 18.147209
#
# number of rings (size 3 to 8) (size 9 to 14) (size 15 to 20)
#    0.000    2.000    0.000    3.545    1.273    6.182 
#    0.000    0.000    0.000    0.545    0.000    0.000 
#    0.000    0.000    0.000    0.000    0.000    0.000 
#
# Total GULP energy -245622.626080 kJ/mol
# GULP energy per Si atom -5582.332411 kJ/mol
# Density = 1.810591 g / cm^3
# Si number density = 18.147209 Si / 1000 Ang^3
#
#
#
# Elastic Constant Matrix: (Units=GPa)
#
#
# Indices 1 2 3 4 5 6 
#
# 1 57.7547 18.3896 27.9525 0.0000 0.0000 0.0000
# 2 18.3896 58.0745 43.4105 0.0000 0.0000 0.0000
# 3 27.9525 43.4105 109.3606 0.0000 0.0000 0.0000
# 4 0.0000 0.0000 0.0000 9.7089 0.0000 0.0000
# 5 0.0000 0.0000 0.0000 0.0000 27.2180 0.0000
# 6 0.0000 0.0000 0.0000 0.0000 0.0000 24.8687
#
#
#
# Elastic Compliance Matrix: (Units=1/GPa)
#
#
# Indices 1 2 3 4 5 6 
#
# 1 0.020281 -0.003622 -0.003746 0.000000 0.000000 0.000000
# 2 -0.003622 0.025131 -0.009050 0.000000 0.000000 0.000000
# 3 -0.003746 -0.009050 0.013694 0.000000 0.000000 0.000000
# 4 0.000000 0.000000 0.000000 0.102998 0.000000 0.000000
# 5 0.000000 0.000000 0.000000 0.000000 0.036740 0.000000
# 6 0.000000 0.000000 0.000000 0.000000 0.000000 0.040211
#
#
# Mechanical properties :
#
#
# Convention : Reuss Voigt Hill
#
# Bulk Modulus (GPa) = 38.06628 44.96613 41.51621
# Shear Modulus (GPa) = 17.81591 21.38828 19.60209
#
# Velocity S-wave (km/s) = 3.13668 3.43680 3.29016
# Velocity P-wave (km/s) = 5.84297 6.37033 6.11234
#
# Compressibility (1/GPa) = 0.02626997
#
# Stress axis : x y z
#
# Youngs Moduli (GPa) = 49.30748 39.79159 73.02508
#
# Poissons Ratio (x) = 0.14412 0.27356
# Poissons Ratio (y) = 0.17858 0.66087
# Poissons Ratio (z) = 0.18471 0.36011
#
# Static dielectric constant tensor:
#      x y z
#    x 1.612190 0.000000 0.000000 
#    y 0.000000 1.586840 0.000000 
#    z 0.000000 0.000000 1.637160 
# 
# From -- ./inp_files/70275.got.cif
#   From: 2010.05.17/outbox.cif.g08.bks.cpg/sg74_36_cif.got.tgz:70275.got - 2010.06.03 17:57:02.
