data_PCOD9537192
_publ_section_title
;
Structure prediction by ZEFSAII (Michael W. Deem and Ramdas Pophale) SiO2 
 PCOD9537192
Probable space group: I M M A
;
_chemical_formula_sum "Si O2"
_cell_formula_units_Z 80
_cell_length_a 8.928010
_cell_length_b 19.049109
_cell_length_c 22.826311
_cell_angle_alpha 90.000000
_cell_angle_beta 90.000000
_cell_angle_gamma 90.000000
_cell_volume 3882.085221
_symmetry_space_group_name_H-M "I M M A"
_symmetry_group_IT_number 74
_symmetry_cell_setting 'orthorhombic'
loop_
_space_group_symop_operation_xyz
x,y,z
-x,1/2-y,z
x,-y,-z
-x,1/2+y,-z
-x,-y,-z
x,1/2+y,-z
-x,y,z
x,1/2-y,z
1/2+x,1/2+y,1/2+z
1/2-x,-y,1/2+z
1/2+x,1/2-y,1/2-z
1/2-x,y,1/2-z
1/2-x,1/2-y,1/2-z
1/2+x,y,1/2-z
1/2-x,1/2+y,1/2+z
1/2+x,-y,1/2+z
loop_
_atom_site_type_symbol
_atom_site_label
_atom_site_fract_x
_atom_site_fract_y
_atom_site_fract_z
Si Si1 0.827005 0.250000 0.485055
Si Si2 0.325866 0.604398 0.515737
Si Si3 0.828288 0.750000 0.372137
Si Si4 0.325782 0.395944 0.625791
Si Si5 0.679914 0.328221 0.314709
Si Si6 0.177670 0.039463 0.380053
O O1 0.738382 0.180580 0.467558
O O2 0.830251 0.250000 0.556464
O O3 0.000000 0.250000 0.464971
O O4 0.500000 0.596182 0.532210
O O5 0.317090 0.602040 0.445475
O O6 0.230170 0.549320 0.552635
O O7 0.746204 0.822170 0.354748
O O8 0.000000 0.750000 0.352145
O O9 0.500000 0.398851 0.642061
O O10 0.240033 0.466121 0.644810
O O11 0.500000 0.334751 0.312506
O O12 0.715184 0.250000 0.339014
O O13 0.750000 0.329908 0.250000
O O14 0.749237 0.393742 0.348472
O O15 0.000000 0.041319 0.375881
#
# Coordination Sequence:
#
# PCOD9537192 Si02
#       6
#     8  16   8  16  16  16
#     4   9  17  29  45  67  96 135 180 223 265 317
#     4  10  20  33  49  71 105 146 186 230 277 328
#     4   9  17  31  51  73 102 139 180 221 267 319
#     4  10  20  35  53  76 108 148 190 230 276 330
#     4  10  22  42  65  86 111 143 182 231 286 341
#     4  12  24  35  53  80 110 143 184 231 280 333
#
# _framework density 20.607482000000001
#
# number of rings (size 3 to 8) (size 9 to 14) (size 15 to 20)
#    0.000    1.800    0.000    4.800    1.400    8.400 
#    0.000    0.000    0.000    0.000    0.000    0.700 
#    0.000    0.000    0.000    0.000    0.000    0.000 
#
# Total GULP energy -223520.790962 kJ/mol
# GULP energy per Si atom -5588.019774 kJ/mol
# Density = 2.056058 g / cm^3
# Si number density = 20.607482 Si / 1000 Ang^3
#
#
#
# Elastic Constant Matrix: (Units=GPa)
#
#
# Indices 1 2 3 4 5 6 
#
# 1 173.0941 101.5145 14.5012 0.0000 0.0000 0.0000
# 2 101.5145 193.0514 17.6571 0.0000 0.0000 0.0000
# 3 14.5012 17.6571 21.2336 0.0000 0.0000 0.0000
# 4 0.0000 0.0000 0.0000 20.0360 0.0000 0.0000
# 5 0.0000 0.0000 0.0000 0.0000 18.2491 0.0000
# 6 0.0000 0.0000 0.0000 0.0000 0.0000 35.8753
#
#
#
# Elastic Compliance Matrix: (Units=1/GPa)
#
#
# Indices 1 2 3 4 5 6 
#
# 1 0.008451 -0.004238 -0.002247 0.000000 0.000000 0.000000
# 2 -0.004238 0.007732 -0.003535 0.000000 0.000000 0.000000
# 3 -0.002247 -0.003535 0.051569 0.000000 0.000000 0.000000
# 4 0.000000 0.000000 0.000000 0.049910 0.000000 0.000000
# 5 0.000000 0.000000 0.000000 0.000000 0.054797 0.000000
# 6 0.000000 0.000000 0.000000 0.000000 0.000000 0.027874
#
#
# Mechanical properties :
#
#
# Convention : Reuss Voigt Hill
#
# Bulk Modulus (GPa) = 20.95937 72.74721 46.85329
# Shear Modulus (GPa) = 21.16138 31.74582 26.45360
#
# Velocity S-wave (km/s) = 3.20797 3.92918 3.58675
# Velocity P-wave (km/s) = 4.89022 7.48081 6.31969
#
# Compressibility (1/GPa) = 0.04771135
#
# Stress axis : x y z
#
# Youngs Moduli (GPa) = 118.32650 129.33158 19.39135
#
# Poissons Ratio (x) = 0.54817 0.04357
# Poissons Ratio (y) = 0.50152 0.06855
# Poissons Ratio (z) = 0.26589 0.45720
#
# Static dielectric constant tensor:
#      x y z
#    x 1.684890 0.000000 0.000000 
#    y 0.000000 1.918710 0.000000 
#    z 0.000000 0.000000 1.788840 
# 
# From -- ./inp_files/64016.got.cif
#   From: 2010.05.17/outbox.cif.g08.bks.cpg/sg74_33_cif.got.tgz:64016.got - 2010.06.03 17:57:02.
