data_PCOD9537722
_publ_section_title
;
Structure prediction by ZEFSAII (Michael W. Deem and Ramdas Pophale) SiO2 
 PCOD9537722
Probable space group: I M M A
;
_chemical_formula_sum "Si O2"
_cell_formula_units_Z 116
_cell_length_a 24.699448
_cell_length_b 7.973350
_cell_length_c 29.395893
_cell_angle_alpha 90.000000
_cell_angle_beta 90.000000
_cell_angle_gamma 90.000000
_cell_volume 5789.149083
_symmetry_space_group_name_H-M "I M M A"
_symmetry_group_IT_number 74
_symmetry_cell_setting 'orthorhombic'
loop_
_space_group_symop_operation_xyz
x,y,z
-x,1/2-y,z
x,-y,-z
-x,1/2+y,-z
-x,-y,-z
x,1/2+y,-z
-x,y,z
x,1/2-y,z
1/2+x,1/2+y,1/2+z
1/2-x,-y,1/2+z
1/2+x,1/2-y,1/2-z
1/2-x,y,1/2-z
1/2-x,1/2-y,1/2-z
1/2+x,y,1/2-z
1/2-x,1/2+y,1/2+z
1/2+x,-y,1/2+z
loop_
_atom_site_type_symbol
_atom_site_label
_atom_site_fract_x
_atom_site_fract_y
_atom_site_fract_z
Si Si1 0.189722 0.052951 0.645031
Si Si2 0.000000 0.750000 0.342591
Si Si3 0.921963 0.946984 0.684386
Si Si4 0.225136 0.451290 0.449250
Si Si5 0.941340 0.056317 0.884882
Si Si6 0.591352 0.942566 0.710945
Si Si7 0.286426 0.050607 0.705134
Si Si8 0.847632 0.553434 0.950362
O O1 0.185947 0.250000 0.656591
O O2 0.248061 0.993776 0.663899
O O3 0.140645 0.961009 0.669690
O O4 0.189651 0.026154 0.591202
O O5 0.953601 0.597357 0.340470
O O6 0.938132 0.750000 0.677576
O O7 0.927142 0.987201 0.738272
O O8 0.207584 0.500000 0.500000
O O9 0.224048 0.250000 0.444864
O O10 0.287099 0.519114 0.443946
O O11 0.942442 0.250000 0.898121
O O12 0.000000 0.979766 0.896613
O O13 0.933062 0.044061 0.830789
O O14 0.889999 0.982597 0.910835
O O15 0.576358 0.750000 0.703050
O O16 0.656291 0.961531 0.708878
O O17 0.297806 0.250000 0.700543
O O18 0.250000 0.027051 0.750000
O O19 0.839575 0.750000 0.952440
O O20 0.868599 0.500000 0.000000
#
# Coordination Sequence:
#
# PCOD9537722 Si02
#       8
#    16   4  16  16  16  16  16  16
#     4  11  21  37  61  92 129 166 205 252 307 369
#     4  12  26  44  68  84 126 164 214 256 322 358
#     4  11  25  42  64  93 122 164 213 261 309 369
#     4  10  21  37  60  92 127 160 197 243 306 375
#     4  11  25  40  58  80 108 153 209 263 315 364
#     4  11  24  38  56  84 120 158 206 258 315 368
#     4  10  20  34  57  84 120 164 204 244 301 375
#     4  10  21  39  62  86 117 154 197 249 310 373
#
# _framework density 20.037486999999999
#
# number of rings (size 3 to 8) (size 9 to 14) (size 15 to 20)
#    0.000    1.379    2.069    3.103    2.897    6.621 
#    0.000    0.000    0.000    0.000    0.000    0.483 
#    0.000    0.000    0.000    0.000    0.000    0.000 
#
# Total GULP energy -323464.351345 kJ/mol
# GULP energy per Si atom -5576.971575 kJ/mol
# Density = 1.999188 g / cm^3
# Si number density = 20.037487 Si / 1000 Ang^3
#
#
#
# Elastic Constant Matrix: (Units=GPa)
#
#
# Indices 1 2 3 4 5 6 
#
# 1 42.1966 6.1141 -1.3197 0.0000 0.0000 0.0000
# 2 6.1141 63.0506 -0.3214 0.0000 0.0000 0.0000
# 3 -1.3197 -0.3214 72.3696 0.0000 0.0000 0.0000
# 4 0.0000 0.0000 0.0000 26.2902 0.0000 0.0000
# 5 0.0000 0.0000 0.0000 0.0000 -7.9274 0.0000
# 6 0.0000 0.0000 0.0000 0.0000 0.0000 19.9778
#
#
#
# Elastic Compliance Matrix: (Units=1/GPa)
#
#
# Indices 1 2 3 4 5 6 
#
# 1 0.024050 -0.002330 0.000428 0.000000 0.000000 0.000000
# 2 -0.002330 0.016086 0.000029 0.000000 0.000000 0.000000
# 3 0.000428 0.000029 0.013826 0.000000 0.000000 0.000000
# 4 0.000000 0.000000 0.000000 0.038037 0.000000 0.000000
# 5 0.000000 0.000000 0.000000 0.000000 -0.126144 0.000000
# 6 0.000000 0.000000 0.000000 0.000000 0.000000 0.050056
#
#
# Mechanical properties :
#
#
# Convention : Reuss Voigt Hill
#
# Bulk Modulus (GPa) = 19.91386 20.72920 20.32153
# Shear Modulus (GPa) = 137.38404 19.21103 78.29753
#
# Velocity S-wave (km/s) = 8.28929 3.09973 6.25782
# Velocity P-wave (km/s) = 10.07851 4.81444 7.89795
#
# Compressibility (1/GPa) = 0.05021629
#
# Stress axis : x y z
#
# Youngs Moduli (GPa) = 41.58077 62.16444 72.32806
#
# Poissons Ratio (x) = 0.14484 -0.03097
# Poissons Ratio (y) = 0.09688 -0.00209
# Poissons Ratio (z) = -0.01781 -0.00180
#
# Static dielectric constant tensor:
#      x y z
#    x 1.748090 0.000000 0.000000 
#    y 0.000000 1.733450 0.000000 
#    z 0.000000 0.000000 1.704870 
# 
# From -- ./inp_files/68734.got.cif
#   From: 2010.05.17/outbox.cif.g08.bks.cpg/sg74_35_cif.got.tgz:68734.got - 2010.06.03 17:57:02.
