data_PCOD9537356
_publ_section_title
;
Structure prediction by ZEFSAII (Michael W. Deem and Ramdas Pophale) SiO2 
 PCOD9537356
Probable space group: I M M A
;
_chemical_formula_sum "Si O2"
_cell_formula_units_Z 116
_cell_length_a 30.167371
_cell_length_b 7.809935
_cell_length_c 25.004552
_cell_angle_alpha 90.000000
_cell_angle_beta 90.000000
_cell_angle_gamma 90.000000
_cell_volume 5891.202641
_symmetry_space_group_name_H-M "I M M A"
_symmetry_group_IT_number 74
_symmetry_cell_setting 'orthorhombic'
loop_
_space_group_symop_operation_xyz
x,y,z
-x,1/2-y,z
x,-y,-z
-x,1/2+y,-z
-x,-y,-z
x,1/2+y,-z
-x,y,z
x,1/2-y,z
1/2+x,1/2+y,1/2+z
1/2-x,-y,1/2+z
1/2+x,1/2-y,1/2-z
1/2-x,y,1/2-z
1/2-x,1/2-y,1/2-z
1/2+x,y,1/2-z
1/2-x,1/2+y,1/2+z
1/2+x,-y,1/2+z
loop_
_atom_site_type_symbol
_atom_site_label
_atom_site_fract_x
_atom_site_fract_y
_atom_site_fract_z
Si Si1 0.158818 0.045678 0.439696
Si Si2 0.699236 0.040178 0.251640
Si Si3 0.161561 0.447309 0.136160
Si Si4 0.500000 0.250000 0.409358
Si Si5 0.933156 0.549880 0.123612
Si Si6 0.238800 0.949459 0.061193
Si Si7 0.873629 0.044817 0.329960
Si Si8 0.450566 0.954777 0.251962
O O1 0.160425 0.250000 0.438037
O O2 0.128223 0.981564 0.391023
O O3 0.145385 0.000000 0.500000
O O4 0.209202 0.984626 0.429794
O O5 0.699744 0.250000 0.252507
O O6 0.750000 0.983359 0.250000
O O7 0.674808 0.982408 0.305597
O O8 0.670212 0.983657 0.201331
O O9 0.148277 0.250000 0.143189
O O10 0.119121 0.539553 0.111368
O O11 0.205532 0.455132 0.100459
O O12 0.538422 0.404908 0.406219
O O13 0.947488 0.750000 0.116946
O O14 0.937698 0.501716 0.186983
O O15 0.230437 0.750000 0.068543
O O16 0.229799 0.000000 0.000000
O O17 0.870866 0.250000 0.332228
O O18 0.915443 0.006204 0.292743
O O19 0.500000 0.024036 0.241815
O O20 0.452455 0.750000 0.250811
#
# Coordination Sequence:
#
# PCOD9537356 Si02
#       8
#    16  16  16   4  16  16  16  16
#     4  10  20  36  57  81 108 145 191 240 286 340
#     4   9  17  29  48  75 110 150 188 224 271 343
#     4  11  20  34  56  82 117 154 187 231 291 343
#     4  12  22  36  60  82 112 160 194 236 304 338
#     4  11  22  36  55  85 118 150 195 241 286 352
#     4  11  22  37  57  81 112 149 194 243 284 334
#     4  10  20  33  54  80 107 144 191 231 281 347
#     4  10  21  35  52  77 113 147 183 236 290 339
#
# _framework density 19.690376000000001
#
# number of rings (size 3 to 8) (size 9 to 14) (size 15 to 20)
#    0.000    1.655    2.759    3.931    0.966    3.586 
#    0.000    0.000    0.000    2.483    0.000    0.483 
#    0.000    0.000    0.000    0.000    0.000    0.000 
#
# Total GULP energy -323235.490485 kJ/mol
# GULP energy per Si atom -5573.025698 kJ/mol
# Density = 1.964556 g / cm^3
# Si number density = 19.690376 Si / 1000 Ang^3
#
#
#
# Elastic Constant Matrix: (Units=GPa)
#
#
# Indices 1 2 3 4 5 6 
#
# 1 37.7514 -4.7882 -17.5406 0.0000 0.0000 0.0000
# 2 -4.7882 72.0263 -12.1663 0.0000 0.0000 0.0000
# 3 -17.5406 -12.1663 25.0609 0.0000 0.0000 0.0000
# 4 0.0000 0.0000 0.0000 17.2281 0.0000 0.0000
# 5 0.0000 0.0000 0.0000 0.0000 9.0991 0.0000
# 6 0.0000 0.0000 0.0000 0.0000 0.0000 21.0744
#
#
#
# Elastic Compliance Matrix: (Units=1/GPa)
#
#
# Indices 1 2 3 4 5 6 
#
# 1 0.043864 0.008826 0.034986 0.000000 0.000000 0.000000
# 2 0.008826 0.016900 0.014382 0.000000 0.000000 0.000000
# 3 0.034986 0.014382 0.071372 0.000000 0.000000 0.000000
# 4 0.000000 0.000000 0.000000 0.058045 0.000000 0.000000
# 5 0.000000 0.000000 0.000000 0.000000 0.109901 0.000000
# 6 0.000000 0.000000 0.000000 0.000000 0.000000 0.047451
#
#
# Mechanical properties :
#
#
# Convention : Reuss Voigt Hill
#
# Bulk Modulus (GPa) = 4.02378 7.31647 5.67013
# Shear Modulus (GPa) = 15.92426 20.76925 18.34676
#
# Velocity S-wave (km/s) = 2.84691 3.25128 3.05579
# Velocity P-wave (km/s) = 3.58531 4.22117 3.91617
#
# Compressibility (1/GPa) = 0.24852257
#
# Stress axis : x y z
#
# Youngs Moduli (GPa) = 22.79764 59.17220 14.01111
#
# Poissons Ratio (x) = -0.52224 -0.49019
# Poissons Ratio (y) = -0.20121 -0.20150
# Poissons Ratio (z) = -0.79760 -0.85099
#
# Static dielectric constant tensor:
#      x y z
#    x 1.699450 0.000000 0.000000 
#    y 0.000000 1.724510 0.000000 
#    z 0.000000 0.000000 1.997310 
# 
# From -- ./inp_files/62743.got.cif
#   From: 2010.05.17/outbox.cif.g08.bks.cpg/sg74_32_cif.got.tgz:62743.got - 2010.06.03 17:57:02.
