data_PCOD9537929
_publ_section_title
;
Structure prediction by ZEFSAII (Michael W. Deem and Ramdas Pophale) SiO2 
 PCOD9537929
Probable space group: I M M A
;
_chemical_formula_sum "Si O2"
_cell_formula_units_Z 88
_cell_length_a 8.640894
_cell_length_b 23.032593
_cell_length_c 23.246244
_cell_angle_alpha 90.000000
_cell_angle_beta 90.000000
_cell_angle_gamma 90.000000
_cell_volume 4626.518498
_symmetry_space_group_name_H-M "I M M A"
_symmetry_group_IT_number 74
_symmetry_cell_setting 'orthorhombic'
loop_
_space_group_symop_operation_xyz
x,y,z
-x,1/2-y,z
x,-y,-z
-x,1/2+y,-z
-x,-y,-z
x,1/2+y,-z
-x,y,z
x,1/2-y,z
1/2+x,1/2+y,1/2+z
1/2-x,-y,1/2+z
1/2+x,1/2-y,1/2-z
1/2-x,y,1/2-z
1/2-x,1/2-y,1/2-z
1/2+x,y,1/2-z
1/2-x,1/2+y,1/2+z
1/2+x,-y,1/2+z
loop_
_atom_site_type_symbol
_atom_site_label
_atom_site_fract_x
_atom_site_fract_y
_atom_site_fract_z
Si Si1 0.685267 0.433718 0.981956
Si Si2 0.685801 0.581975 0.891209
Si Si3 0.184021 0.985597 0.188958
Si Si4 0.186523 0.186432 0.313844
Si Si5 0.814621 0.250000 0.684103
Si Si6 0.185638 0.630986 0.130799
O O1 0.500000 0.436083 0.970678
O O2 0.761535 0.398629 0.929619
O O3 0.732236 0.500000 0.000000
O O4 0.717622 0.403296 0.042804
O O5 0.500000 0.576024 0.886545
O O6 0.755120 0.523600 0.864316
O O7 0.743784 0.634253 0.852248
O O8 0.250000 0.006278 0.250000
O O9 0.227992 0.918800 0.177334
O O10 0.000000 0.989896 0.190549
O O11 0.231102 0.250000 0.336194
O O12 0.250000 0.180689 0.250000
O O13 0.000000 0.183862 0.312123
O O14 0.750000 0.250000 0.750000
O O15 0.758821 0.192140 0.649920
O O16 0.000000 0.250000 0.687074
O O17 0.000000 0.637340 0.129801
#
# Coordination Sequence:
#
# PCOD9537929 Si02
#       6
#    16  16  16  16   8  16
#     4  10  20  37  61  88 120 159 201 247 301 363
#     4  10  20  35  56  82 115 153 196 245 297 357
#     4  11  23  36  56  86 118 153 193 244 304 365
#     4   9  18  33  52  75 106 144 185 232 284 342
#     4  12  26  46  72  98 128 166 211 264 323 386
#     4  11  24  42  64  91 125 164 207 255 312 376
#
# _framework density 19.020783000000002
#
# number of rings (size 3 to 8) (size 9 to 14) (size 15 to 20)
#    0.000    1.636    1.818    3.000    0.000    6.909 
#    1.636    0.000    0.000    0.000    0.000    0.000 
#    0.000    0.000    0.000    0.000    0.000    0.000 
#
# Total GULP energy -245458.448209 kJ/mol
# GULP energy per Si atom -5578.601096 kJ/mol
# Density = 1.897749 g / cm^3
# Si number density = 19.020783 Si / 1000 Ang^3
#
#
#
# Elastic Constant Matrix: (Units=GPa)
#
#
# Indices 1 2 3 4 5 6 
#
# 1 42.0739 39.5766 33.9776 0.0000 0.0000 0.0000
# 2 39.5766 132.1624 57.8528 0.0000 0.0000 0.0000
# 3 33.9776 57.8528 100.5130 0.0000 0.0000 -0.0001
# 4 0.0000 0.0000 0.0000 22.5337 0.0000 -0.0001
# 5 0.0000 0.0000 0.0000 0.0000 27.6954 0.0000
# 6 0.0000 0.0000 -0.0001 -0.0001 0.0000 447.8659
#
#
#
# Elastic Compliance Matrix: (Units=1/GPa)
#
#
# Indices 1 2 3 4 5 6 
#
# 1 0.037688 -0.007632 -0.008347 0.000000 0.000000 0.000000
# 2 -0.007632 0.011660 -0.004132 0.000000 0.000000 0.000000
# 3 -0.008347 -0.004132 0.015149 0.000000 0.000000 0.000000
# 4 0.000000 0.000000 0.000000 0.044378 0.000000 0.000000
# 5 0.000000 0.000000 0.000000 0.000000 0.036107 0.000000
# 6 0.000000 0.000000 0.000000 0.000000 0.000000 0.002233
#
#
# Mechanical properties :
#
#
# Convention : Reuss Voigt Hill
#
# Bulk Modulus (GPa) = 41.19406 59.72926 50.46166
# Shear Modulus (GPa) = 25.57186 109.17517 67.37351
#
# Velocity S-wave (km/s) = 3.67061 7.58435 5.95801
# Velocity P-wave (km/s) = 6.29832 10.40033 8.59755
#
# Compressibility (1/GPa) = 0.02427535
#
# Stress axis : x y z
#
# Youngs Moduli (GPa) = 26.53399 85.76069 66.01209
#
# Poissons Ratio (x) = 0.65450 0.55102
# Poissons Ratio (y) = 0.20250 0.27273
# Poissons Ratio (z) = 0.22149 0.35433
#
# Static dielectric constant tensor:
#      x y z
#    x 1.651010 0.000000 0.000000 
#    y 0.000000 1.688040 0.000000 
#    z 0.000000 0.000000 1.686010 
# 
# From -- ./inp_files/48777.got.cif
#   From: 2010.05.17/outbox.cif.g08.bks.cpg/sg74_25_cif.got.tgz:48777.got - 2010.06.03 17:57:02.
