data_PCOD9537689
_publ_section_title
;
Structure prediction by ZEFSAII (Michael W. Deem and Ramdas Pophale) SiO2 
 PCOD9537689
Probable space group: I M M A
;
_chemical_formula_sum "Si O2"
_cell_formula_units_Z 116
_cell_length_a 26.554375
_cell_length_b 7.824762
_cell_length_c 26.405828
_cell_angle_alpha 90.000000
_cell_angle_beta 90.000000
_cell_angle_gamma 90.000000
_cell_volume 5486.646893
_symmetry_space_group_name_H-M "I M M A"
_symmetry_group_IT_number 74
_symmetry_cell_setting 'orthorhombic'
loop_
_space_group_symop_operation_xyz
x,y,z
-x,1/2-y,z
x,-y,-z
-x,1/2+y,-z
-x,-y,-z
x,1/2+y,-z
-x,y,z
x,1/2-y,z
1/2+x,1/2+y,1/2+z
1/2-x,-y,1/2+z
1/2+x,1/2-y,1/2-z
1/2-x,y,1/2-z
1/2-x,1/2-y,1/2-z
1/2+x,y,1/2-z
1/2-x,1/2+y,1/2+z
1/2+x,-y,1/2+z
loop_
_atom_site_type_symbol
_atom_site_label
_atom_site_fract_x
_atom_site_fract_y
_atom_site_fract_z
Si Si1 0.250129 0.446866 0.843010
Si Si2 0.153170 0.451606 0.786383
Si Si3 0.697847 0.953619 0.555728
Si Si4 0.500000 0.250000 0.050357
Si Si5 0.553325 0.550533 0.336247
Si Si6 0.579906 0.046971 0.444597
Si Si7 0.554195 0.559835 0.095078
Si Si8 0.360957 0.053779 0.171892
O O1 0.261453 0.250000 0.828597
O O2 0.207579 0.519302 0.804546
O O3 0.225378 0.455632 0.898272
O O4 0.302978 0.542308 0.845136
O O5 0.156486 0.250000 0.798900
O O6 0.105498 0.527270 0.816410
O O7 0.140814 0.473516 0.727710
O O8 0.701146 0.750000 0.563013
O O9 0.638951 0.003217 0.556690
O O10 0.717567 0.000000 0.500000
O O11 0.543637 0.403180 0.057075
O O12 0.500000 0.474931 0.318412
O O13 0.553623 0.750000 0.320986
O O14 0.554925 0.539881 0.396739
O O15 0.575912 0.250000 0.438072
O O16 0.560380 0.000000 0.500000
O O17 0.500000 0.557319 0.124731
O O18 0.557437 0.750000 0.071311
O O19 0.600701 0.532389 0.132511
O O20 0.376922 0.250000 0.176260
#
# Coordination Sequence:
#
# PCOD9537689 Si02
#       8
#    16  16  16   4  16  16  16  16
#     4  11  22  37  57  80 109 143 183 230 282 342
#     4  10  22  38  53  73 104 143 188 233 287 347
#     4  10  20  35  57  83 109 141 179 223 281 343
#     4   8  14  32  52  78 106 140 184 224 270 322
#     4  10  21  38  57  77 104 138 183 235 290 345
#     4  10  20  34  56  79 104 135 177 226 286 346
#     4   9  17  32  53  76 108 143 180 228 272 319
#     4  12  23  36  54  80 112 146 192 236 279 338
#
# _framework density 21.142239
#
# number of rings (size 3 to 8) (size 9 to 14) (size 15 to 20)
#    0.414    1.379    2.069    2.897    0.000    5.517 
#    0.000    1.379    0.000    0.000    0.000    0.000 
#    0.000    0.552    0.000    3.310    0.000    6.483 
#
# Total GULP energy -323033.810667 kJ/mol
# GULP energy per Si atom -5569.548460 kJ/mol
# Density = 2.109412 g / cm^3
# Si number density = 21.142239 Si / 1000 Ang^3
#
#
#
# Elastic Constant Matrix: (Units=GPa)
#
#
# Indices 1 2 3 4 5 6 
#
# 1 106.3436 15.9624 15.0245 0.0000 0.0000 0.0000
# 2 15.9624 73.1325 -0.7959 0.0000 0.0000 0.0000
# 3 15.0245 -0.7959 43.5903 0.0000 0.0000 0.0000
# 4 0.0000 0.0000 0.0000 20.3117 0.0000 0.0000
# 5 0.0000 0.0000 0.0000 0.0000 70.1026 0.0000
# 6 0.0000 0.0000 0.0000 0.0000 0.0000 -2.3130
#
#
#
# Elastic Compliance Matrix: (Units=1/GPa)
#
#
# Indices 1 2 3 4 5 6 
#
# 1 0.010250 -0.002276 -0.003575 0.000000 0.000000 0.000000
# 2 -0.002276 0.014182 0.001043 0.000000 0.000000 0.000000
# 3 -0.003575 0.001043 0.024192 0.000000 0.000000 0.000000
# 4 0.000000 0.000000 0.000000 0.049233 0.000000 0.000000
# 5 0.000000 0.000000 0.000000 0.000000 0.014265 0.000000
# 6 0.000000 0.000000 0.000000 0.000000 0.000000 -0.432347
#
#
# Mechanical properties :
#
#
# Convention : Reuss Voigt Hill
#
# Bulk Modulus (GPa) = 25.63465 31.49427 28.56446
# Shear Modulus (GPa) = -16.80064 30.47863 6.83900
#
# Velocity S-wave (km/s) = -2.82201 3.80096 1.80049
# Velocity P-wave (km/s) = 1.23809 5.84737 4.22638
#
# Compressibility (1/GPa) = 0.03900970
#
# Stress axis : x y z
#
# Youngs Moduli (GPa) = 97.55942 70.51201 41.33597
#
# Poissons Ratio (x) = 0.16050 0.14776
# Poissons Ratio (y) = 0.22206 -0.04313
# Poissons Ratio (z) = 0.34873 -0.07358
#
# Static dielectric constant tensor:
#      x y z
#    x 1.805880 0.000000 0.000000 
#    y 0.000000 1.783460 0.000000 
#    z 0.000000 0.000000 1.755470 
# 
# From -- ./inp_files/73743.got.cif
#   From: 2010.05.17/outbox.cif.g08.bks.cpg/sg74_37_cif.got.tgz:73743.got - 2010.06.03 17:57:02.
