data_PCOD9537225
_publ_section_title
;
Structure prediction by ZEFSAII (Michael W. Deem and Ramdas Pophale) SiO2 
 PCOD9537225
Probable space group: I M M A
;
_chemical_formula_sum "Si O2"
_cell_formula_units_Z 96
_cell_length_a 23.848037
_cell_length_b 8.251151
_cell_length_c 27.059347
_cell_angle_alpha 90.000000
_cell_angle_beta 90.000000
_cell_angle_gamma 90.000000
_cell_volume 5324.569299
_symmetry_space_group_name_H-M "I M M A"
_symmetry_group_IT_number 74
_symmetry_cell_setting 'orthorhombic'
loop_
_space_group_symop_operation_xyz
x,y,z
-x,1/2-y,z
x,-y,-z
-x,1/2+y,-z
-x,-y,-z
x,1/2+y,-z
-x,y,z
x,1/2-y,z
1/2+x,1/2+y,1/2+z
1/2-x,-y,1/2+z
1/2+x,1/2-y,1/2-z
1/2-x,y,1/2-z
1/2-x,1/2-y,1/2-z
1/2+x,y,1/2-z
1/2-x,1/2+y,1/2+z
1/2+x,-y,1/2+z
loop_
_atom_site_type_symbol
_atom_site_label
_atom_site_fract_x
_atom_site_fract_y
_atom_site_fract_z
Si Si1 0.770261 0.555323 0.443838
Si Si2 0.119234 0.446309 0.773045
Si Si3 0.000000 0.445656 0.736809
Si Si4 0.894312 0.055878 0.443118
Si Si5 0.790257 0.930394 0.702361
Si Si6 0.000000 0.554013 0.622821
Si Si7 0.197109 0.064005 0.860627
O O1 0.765576 0.500000 0.500000
O O2 0.769216 0.750000 0.441307
O O3 0.832306 0.500229 0.426728
O O4 0.717361 0.489823 0.412264
O O5 0.123014 0.250000 0.773745
O O6 0.055558 0.498045 0.765925
O O7 0.152103 0.507458 0.724693
O O8 0.151127 0.506818 0.822731
O O9 0.000000 0.501107 0.679853
O O10 0.000000 0.250000 0.736031
O O11 0.894571 0.250000 0.443299
O O12 0.944364 0.999027 0.407144
O O13 0.903220 0.000000 0.500000
O O14 0.795348 0.750000 0.680179
O O15 0.750000 0.917305 0.750000
O O16 0.756508 0.053064 0.668220
O O17 0.000000 0.750000 0.622022
O O18 0.180511 0.250000 0.868891
#
# Coordination Sequence:
#
# PCOD9537225 Si02
#       7
#    16  16   8  16  16   8  16
#     4  10  20  33  50  74  99 125 156 197 246 293
#     4   9  18  34  50  69  95 125 161 201 240 284
#     4  10  22  35  51  72  96 127 167 206 241 284
#     4  10  20  35  52  70  94 127 164 206 246 286
#     4   9  17  28  45  70  95 121 156 194 233 281
#     4  10  23  37  49  68  96 131 167 204 250 284
#     4   9  18  32  51  70  95 127 158 194 242 291
#
# _framework density 18.029627000000001
#
# number of rings (size 3 to 8) (size 9 to 14) (size 15 to 20)
#    0.000    2.500    0.000    2.750    2.333    5.333 
#    0.000    0.000    0.000    0.000    0.000    0.583 
#    0.000    0.000    0.000    0.000    0.000    0.000 
#
# Total GULP energy -267384.808008 kJ/mol
# GULP energy per Si atom -5570.516834 kJ/mol
# Density = 1.798859 g / cm^3
# Si number density = 18.029627 Si / 1000 Ang^3
#
#
#
# Elastic Constant Matrix: (Units=GPa)
#
#
# Indices 1 2 3 4 5 6 
#
# 1 130.0184 7.5285 58.2088 0.0000 0.0000 0.0000
# 2 7.5285 26.8216 2.5452 0.0000 0.0000 0.0000
# 3 58.2088 2.5452 76.8423 0.0000 0.0000 0.0000
# 4 0.0000 0.0000 0.0000 17.6257 0.0000 0.0000
# 5 0.0000 0.0000 0.0000 0.0000 30.8979 0.0000
# 6 0.0000 0.0000 0.0000 0.0000 0.0000 11.0948
#
#
#
# Elastic Compliance Matrix: (Units=1/GPa)
#
#
# Indices 1 2 3 4 5 6 
#
# 1 0.011799 -0.002471 -0.008856 0.000000 0.000000 0.000000
# 2 -0.002471 0.037919 0.000616 0.000000 0.000000 0.000000
# 3 -0.008856 0.000616 0.019702 0.000000 0.000000 0.000000
# 4 0.000000 0.000000 0.000000 0.056735 0.000000 0.000000
# 5 0.000000 0.000000 0.000000 0.000000 0.032365 0.000000
# 6 0.000000 0.000000 0.000000 0.000000 0.000000 0.090132
#
#
# Mechanical properties :
#
#
# Convention : Reuss Voigt Hill
#
# Bulk Modulus (GPa) = 20.83469 41.13859 30.98664
# Shear Modulus (GPa) = 17.47803 22.95035 20.21419
#
# Velocity S-wave (km/s) = 3.11691 3.57168 3.35201
# Velocity P-wave (km/s) = 4.95322 6.31474 5.67496
#
# Compressibility (1/GPa) = 0.04799687
#
# Stress axis : x y z
#
# Youngs Moduli (GPa) = 84.75150 26.37229 50.75655
#
# Poissons Ratio (x) = 0.06518 0.44951
# Poissons Ratio (y) = 0.20946 -0.03128
# Poissons Ratio (z) = 0.75057 -0.01625
#
# Static dielectric constant tensor:
#      x y z
#    x 1.630550 0.000000 0.000000 
#    y 0.000000 1.658290 0.000000 
#    z 0.000000 0.000000 1.662020 
# 
# From -- ./inp_files/68602.got.cif
#   From: 2010.05.17/outbox.cif.g08.bks.cpg/sg74_35_cif.got.tgz:68602.got - 2010.06.03 17:57:02.
