data_PCOD9537127
_publ_section_title
;
Structure prediction by ZEFSAII (Michael W. Deem and Ramdas Pophale) SiO2 
 PCOD9537127
Probable space group: I M M A
;
_chemical_formula_sum "Si O2"
_cell_formula_units_Z 88
_cell_length_a 28.284629
_cell_length_b 26.985745
_cell_length_c 6.549515
_cell_angle_alpha 90.000000
_cell_angle_beta 90.000000
_cell_angle_gamma 90.000000
_cell_volume 4999.125504
_symmetry_space_group_name_H-M "I M M A"
_symmetry_group_IT_number 74
_symmetry_cell_setting 'orthorhombic'
loop_
_space_group_symop_operation_xyz
x,y,z
-x,1/2-y,z
x,-y,-z
-x,1/2+y,-z
-x,-y,-z
x,1/2+y,-z
-x,y,z
x,1/2-y,z
1/2+x,1/2+y,1/2+z
1/2-x,-y,1/2+z
1/2+x,1/2-y,1/2-z
1/2-x,y,1/2-z
1/2-x,1/2-y,1/2-z
1/2+x,y,1/2-z
1/2-x,1/2+y,1/2+z
1/2+x,-y,1/2+z
loop_
_atom_site_type_symbol
_atom_site_label
_atom_site_fract_x
_atom_site_fract_y
_atom_site_fract_z
Si Si1 0.695983 0.195228 0.462483
Si Si2 0.705252 0.945328 0.911237
Si Si3 0.136658 0.637885 0.663409
Si Si4 0.750000 0.121106 0.750000
Si Si5 0.945608 0.808372 0.898659
Si Si6 0.108999 0.304662 0.722851
O O1 0.716721 0.250000 0.447873
O O2 0.678012 0.174262 0.247615
O O3 0.727812 0.156415 0.579572
O O4 0.649935 0.197959 0.607284
O O5 0.750000 0.945435 0.750000
O O6 0.659875 0.916495 0.816449
O O7 0.716979 0.913638 0.114016
O O8 0.696553 0.000000 0.000000
O O9 0.122816 0.653573 0.435958
O O10 0.090053 0.653377 0.790866
O O11 0.933952 0.750000 0.852290
O O12 0.937466 0.813449 0.142267
O O13 0.000000 0.816508 0.842733
O O14 0.106229 0.250000 0.622982
#
# Coordination Sequence:
#
# PCOD9537127 Si02
#       6
#    16  16  16   8  16  16
#     4  10  20  32  50  80 116 150 182 223 279 354
#     4  12  25  41  60  81 110 153 207 259 298 339
#     4  11  20  35  57  83 113 153 195 243 291 341
#     4  12  21  38  54  78 116 150 193 238 292 350
#     4   9  19  35  56  85 120 154 190 233 287 362
#     4   9  17  30  49  76 112 148 180 219 277 344
#
# _framework density 17.603079000000001
#
# number of rings (size 3 to 8) (size 9 to 14) (size 15 to 20)
#    0.000    1.636    4.545    3.000    0.000    0.727 
#    0.000    2.727    0.000    0.545    0.000    1.273 
#    0.000    0.000    0.000    0.000    0.000    0.000 
#
# Total GULP energy -245118.398295 kJ/mol
# GULP energy per Si atom -5570.872689 kJ/mol
# Density = 1.756301 g / cm^3
# Si number density = 17.603079 Si / 1000 Ang^3
#
#
#
# Elastic Constant Matrix: (Units=GPa)
#
#
# Indices 1 2 3 4 5 6 
#
# 1 85.1252 62.2447 27.5486 0.0000 0.0000 0.0000
# 2 62.2447 128.1037 29.2525 0.0000 0.0000 0.0000
# 3 27.5486 29.2525 63.9725 0.0000 0.0000 0.0000
# 4 0.0000 0.0000 0.0000 28.9322 0.0000 0.0000
# 5 0.0000 0.0000 0.0000 0.0000 20.8068 0.0000
# 6 0.0000 0.0000 0.0000 0.0000 0.0000 53.1554
#
#
#
# Elastic Compliance Matrix: (Units=1/GPa)
#
#
# Indices 1 2 3 4 5 6 
#
# 1 0.019314 -0.008358 -0.004495 0.000000 0.000000 0.000000
# 2 -0.008358 0.012333 -0.002040 0.000000 0.000000 0.000000
# 3 -0.004495 -0.002040 0.018501 0.000000 0.000000 0.000000
# 4 0.000000 0.000000 0.000000 0.034564 0.000000 0.000000
# 5 0.000000 0.000000 0.000000 0.000000 0.048061 0.000000
# 6 0.000000 0.000000 0.000000 0.000000 0.000000 0.018813
#
#
# Mechanical properties :
#
#
# Convention : Reuss Voigt Hill
#
# Bulk Modulus (GPa) = 49.11538 57.25479 53.18508
# Shear Modulus (GPa) = 26.57337 31.12259 28.84798
#
# Velocity S-wave (km/s) = 3.88955 4.20934 4.05260
# Velocity P-wave (km/s) = 6.93784 7.49805 7.22338
#
# Compressibility (1/GPa) = 0.02036022
#
# Stress axis : x y z
#
# Youngs Moduli (GPa) = 51.77721 81.08258 54.05255
#
# Poissons Ratio (x) = 0.67767 0.24298
# Poissons Ratio (y) = 0.43274 0.11029
# Poissons Ratio (z) = 0.23275 0.16544
#
# Static dielectric constant tensor:
#      x y z
#    x 1.647410 0.000000 0.000000 
#    y 0.000000 1.606280 0.000000 
#    z 0.000000 0.000000 1.652340 
# 
# From -- ./inp_files/5140.got.cif
#   From: 2010.05.17/outbox.cif.g08.bks.cpg/sg74_3_cif.got.tgz:5140.got - 2010.06.03 17:57:02.
