data_PCOD9537228
_publ_section_title
;
Structure prediction by ZEFSAII (Michael W. Deem and Ramdas Pophale) SiO2 
 PCOD9537228
Probable space group: I M M A
;
_chemical_formula_sum "Si O2"
_cell_formula_units_Z 96
_cell_length_a 8.020642
_cell_length_b 20.622049
_cell_length_c 30.358418
_cell_angle_alpha 90.000000
_cell_angle_beta 90.000000
_cell_angle_gamma 90.000000
_cell_volume 5021.345250
_symmetry_space_group_name_H-M "I M M A"
_symmetry_group_IT_number 74
_symmetry_cell_setting 'orthorhombic'
loop_
_space_group_symop_operation_xyz
x,y,z
-x,1/2-y,z
x,-y,-z
-x,1/2+y,-z
-x,-y,-z
x,1/2+y,-z
-x,y,z
x,1/2-y,z
1/2+x,1/2+y,1/2+z
1/2-x,-y,1/2+z
1/2+x,1/2-y,1/2-z
1/2-x,y,1/2-z
1/2-x,1/2-y,1/2-z
1/2+x,y,1/2-z
1/2-x,1/2+y,1/2+z
1/2+x,-y,1/2+z
loop_
_atom_site_type_symbol
_atom_site_label
_atom_site_fract_x
_atom_site_fract_y
_atom_site_fract_z
Si Si1 0.695573 0.322223 0.420783
Si Si2 0.795866 0.960710 0.456040
Si Si3 0.696875 0.949007 0.876656
Si Si4 0.800522 0.460491 0.800972
Si Si5 0.798817 0.319482 0.801705
Si Si6 0.196041 0.678068 0.480360
O O1 0.500000 0.322305 0.431458
O O2 0.741977 0.250000 0.405103
O O3 0.729410 0.378688 0.386332
O O4 0.788247 0.333900 0.467079
O O5 0.734395 0.886477 0.457554
O O6 0.000000 0.958647 0.455855
O O7 0.747312 0.000000 0.500000
O O8 0.738716 0.001058 0.413865
O O9 0.500000 0.943005 0.882911
O O10 0.732639 0.981278 0.830020
O O11 0.750000 0.465731 0.750000
O O12 0.739130 0.389572 0.818499
O O13 0.000000 0.460895 0.803576
O O14 0.738477 0.250000 0.820448
O O15 0.750000 0.319208 0.750000
O O16 0.000000 0.319433 0.804593
O O17 0.268529 0.750000 0.471285
O O18 0.000000 0.681145 0.469650
#
# Coordination Sequence:
#
# PCOD9537228 Si02
#       6
#    16  16  16  16  16  16
#     4  10  20  33  50  75 105 133 167 214 262 310
#     4   9  16  29  48  73 103 133 168 213 254 296
#     4  11  21  34  54  77 104 138 177 216 261 313
#     4  10  20  35  54  77 106 137 176 221 268 315
#     4   8  14  26  46  70  95 126 164 206 250 297
#     4   9  16  29  50  72  98 138 181 215 253 304
#
# _framework density 19.118383999999999
#
# number of rings (size 3 to 8) (size 9 to 14) (size 15 to 20)
#    0.000    2.500    1.667    1.500    0.000    1.667 
#    0.000    3.333    0.000    1.500    0.000    0.000 
#    0.000    0.000    0.000    0.000    0.000    0.000 
#
# Total GULP energy -267555.268744 kJ/mol
# GULP energy per Si atom -5574.068099 kJ/mol
# Density = 1.907487 g / cm^3
# Si number density = 19.118384 Si / 1000 Ang^3
#
#
#
# Elastic Constant Matrix: (Units=GPa)
#
#
# Indices 1 2 3 4 5 6 
#
# 1 21.4824 7.9958 -4.4611 0.0000 0.0000 0.0000
# 2 7.9958 164.3389 39.7499 0.0000 0.0000 0.0000
# 3 -4.4611 39.7499 41.4870 0.0000 0.0000 0.0000
# 4 0.0000 0.0000 0.0000 24.7163 0.0000 0.0000
# 5 0.0000 0.0000 0.0000 0.0000 0.7335 0.0000
# 6 0.0000 0.0000 0.0000 0.0000 0.0000 12.6686
#
#
#
# Elastic Compliance Matrix: (Units=1/GPa)
#
#
# Indices 1 2 3 4 5 6 
#
# 1 0.050479 -0.004906 0.010128 0.000000 0.000000 0.000000
# 2 -0.004906 0.008397 -0.008573 0.000000 0.000000 0.000000
# 3 0.010128 -0.008573 0.033407 0.000000 0.000000 0.000000
# 4 0.000000 0.000000 0.000000 0.040459 0.000000 0.000000
# 5 0.000000 0.000000 0.000000 0.000000 1.363419 0.000000
# 6 0.000000 0.000000 0.000000 0.000000 0.000000 0.078935
#
#
# Mechanical properties :
#
#
# Convention : Reuss Voigt Hill
#
# Bulk Modulus (GPa) = 11.68468 34.87528 23.27998
# Shear Modulus (GPa) = 3.10496 19.89192 11.49844
#
# Velocity S-wave (km/s) = 1.27577 3.22912 2.45507
# Velocity P-wave (km/s) = 2.88013 5.67312 4.49886
#
# Compressibility (1/GPa) = 0.08558211
#
# Stress axis : x y z
#
# Youngs Moduli (GPa) = 19.81023 119.08520 29.93362
#
# Poissons Ratio (x) = 0.58421 -0.30318
# Poissons Ratio (y) = 0.09719 0.25663
# Poissons Ratio (z) = -0.20064 1.02095
#
# Static dielectric constant tensor:
#      x y z
#    x 1.687440 0.000000 0.000000 
#    y 0.000000 1.723960 0.000000 
#    z 0.000000 0.000000 1.625640 
# 
# From -- ./inp_files/64328.got.cif
#   From: 2010.05.17/outbox.cif.g08.bks.cpg/sg74_33_cif.got.tgz:64328.got - 2010.06.03 17:57:02.
