data_PCOD9537736
_publ_section_title
;
Structure prediction by ZEFSAII (Michael W. Deem and Ramdas Pophale) SiO2 
 PCOD9537736
Probable space group: I M M A
;
_chemical_formula_sum "Si O2"
_cell_formula_units_Z 68
_cell_length_a 7.726268
_cell_length_b 22.863932
_cell_length_c 18.690450
_cell_angle_alpha 90.000000
_cell_angle_beta 90.000000
_cell_angle_gamma 90.000000
_cell_volume 3301.721562
_symmetry_space_group_name_H-M "I M M A"
_symmetry_group_IT_number 74
_symmetry_cell_setting 'orthorhombic'
loop_
_space_group_symop_operation_xyz
x,y,z
-x,1/2-y,z
x,-y,-z
-x,1/2+y,-z
-x,-y,-z
x,1/2+y,-z
-x,y,z
x,1/2-y,z
1/2+x,1/2+y,1/2+z
1/2-x,-y,1/2+z
1/2+x,1/2-y,1/2-z
1/2-x,y,1/2-z
1/2-x,1/2-y,1/2-z
1/2+x,y,1/2-z
1/2-x,1/2+y,1/2+z
1/2+x,-y,1/2+z
loop_
_atom_site_type_symbol
_atom_site_label
_atom_site_fract_x
_atom_site_fract_y
_atom_site_fract_z
Si Si1 0.208925 0.507293 0.417857
Si Si2 0.727078 0.250000 0.663148
Si Si3 0.000000 0.816279 0.601722
Si Si4 0.000000 0.250000 0.537696
Si Si5 0.708400 0.878398 0.169910
Si Si6 0.303114 0.606895 0.667036
O O1 0.263080 0.500000 0.500000
O O2 0.248099 0.570983 0.386216
O O3 0.287698 0.456642 0.369025
O O4 0.000000 0.500240 0.414678
O O5 0.750000 0.250000 0.750000
O O6 0.683235 0.180790 0.658310
O O7 0.843472 0.250000 0.591957
O O8 0.832106 0.851103 0.627071
O O9 0.000000 0.750000 0.631969
O O10 0.000000 0.805082 0.516238
O O11 0.500000 0.864205 0.166696
O O12 0.750000 0.900086 0.250000
O O13 0.500000 0.628137 0.661560
O O14 0.250000 0.603216 0.750000
#
# Coordination Sequence:
#
# PCOD9537736 Si02
#       6
#    16   8   8   4  16  16
#     4  10  22  37  64  93 133 182 237 284 360 420
#     4  10  20  36  66  97 131 180 228 273 346 415
#     4  10  26  44  74 107 133 192 234 298 372 413
#     4  10  22  42  72  94 146 172 238 286 350 422
#     4  10  20  34  57  89 123 170 219 275 329 406
#     4  12  24  45  71 100 141 186 241 301 365 444
#
# _framework density 20.595317000000001
#
# number of rings (size 3 to 8) (size 9 to 14) (size 15 to 20)
#    0.353    1.176    3.529    0.706    3.294    4.235 
#    0.000    0.000    2.588    0.000    0.000    0.000 
#    0.000    0.000    0.000    0.000    0.000    0.000 
#
# Total GULP energy -189369.249652 kJ/mol
# GULP energy per Si atom -5569.683813 kJ/mol
# Density = 2.054844 g / cm^3
# Si number density = 20.595317 Si / 1000 Ang^3
#
#
#
# Elastic Constant Matrix: (Units=GPa)
#
#
# Indices 1 2 3 4 5 6 
#
# 1 127.9492 59.1287 57.2204 0.0000 0.0000 0.0000
# 2 59.1287 148.6333 70.3916 0.0000 0.0000 0.0000
# 3 57.2204 70.3916 185.2258 0.0000 0.0000 0.0000
# 4 0.0000 0.0000 0.0000 35.9316 0.0000 0.0000
# 5 0.0000 0.0000 0.0000 0.0000 25.3741 0.0000
# 6 0.0000 0.0000 0.0000 0.0000 0.0000 5.1095
#
#
#
# Elastic Compliance Matrix: (Units=1/GPa)
#
#
# Indices 1 2 3 4 5 6 
#
# 1 0.010121 -0.003104 -0.001947 0.000000 0.000000 0.000000
# 2 -0.003104 0.009157 -0.002521 0.000000 0.000000 0.000000
# 3 -0.001947 -0.002521 0.006958 0.000000 0.000000 0.000000
# 4 0.000000 0.000000 0.000000 0.027831 0.000000 0.000000
# 5 0.000000 0.000000 0.000000 0.000000 0.039410 0.000000
# 6 0.000000 0.000000 0.000000 0.000000 0.000000 0.195715
#
#
# Mechanical properties :
#
#
# Convention : Reuss Voigt Hill
#
# Bulk Modulus (GPa) = 90.15575 92.80995 91.48285
# Shear Modulus (GPa) = 16.23206 31.62089 23.92647
#
# Velocity S-wave (km/s) = 2.81043 3.92260 3.41213
# Velocity P-wave (km/s) = 7.37572 8.10414 7.74850
#
# Compressibility (1/GPa) = 0.01109192
#
# Stress axis : x y z
#
# Youngs Moduli (GPa) = 98.80657 109.20913 143.71413
#
# Poissons Ratio (x) = 0.33901 0.27979
# Poissons Ratio (y) = 0.30672 0.36229
# Poissons Ratio (z) = 0.19236 0.27530
#
# Static dielectric constant tensor:
#      x y z
#    x 1.780500 0.000000 0.000000 
#    y 0.000000 1.714740 0.000000 
#    z 0.000000 0.000000 1.692230 
# 
# From -- ./inp_files/39227.got.cif
#   From: 2010.05.17/outbox.cif.g08.bks.cpg/sg74_20_cif.got.tgz:39227.got - 2010.06.03 17:57:02.
