data_PCOD9537695
_publ_section_title
;
Structure prediction by ZEFSAII (Michael W. Deem and Ramdas Pophale) SiO2 
 PCOD9537695
Probable space group: I M M A
;
_chemical_formula_sum "Si O2"
_cell_formula_units_Z 72
_cell_length_a 12.928682
_cell_length_b 17.084831
_cell_length_c 12.807196
_cell_angle_alpha 90.000000
_cell_angle_beta 90.000000
_cell_angle_gamma 90.000000
_cell_volume 2828.909126
_symmetry_space_group_name_H-M "I M M A"
_symmetry_group_IT_number 74
_symmetry_cell_setting 'orthorhombic'
loop_
_space_group_symop_operation_xyz
x,y,z
-x,1/2-y,z
x,-y,-z
-x,1/2+y,-z
-x,-y,-z
x,1/2+y,-z
-x,y,z
x,1/2-y,z
1/2+x,1/2+y,1/2+z
1/2-x,-y,1/2+z
1/2+x,1/2-y,1/2-z
1/2-x,y,1/2-z
1/2-x,1/2-y,1/2-z
1/2+x,y,1/2-z
1/2-x,1/2+y,1/2+z
1/2+x,-y,1/2+z
loop_
_atom_site_type_symbol
_atom_site_label
_atom_site_fract_x
_atom_site_fract_y
_atom_site_fract_z
Si Si1 0.323275 0.419390 0.536935
Si Si2 0.883680 0.750000 0.596157
Si Si3 0.878919 0.750000 0.275766
Si Si4 0.116980 0.081131 0.400403
Si Si5 0.379994 0.923150 0.230463
Si Si6 0.177426 0.250000 0.961028
O O1 0.210816 0.419614 0.481622
O O2 0.371534 0.494689 0.170894
O O3 0.316574 0.424161 0.661874
O O4 0.370634 0.334238 0.510417
O O5 0.875919 0.666679 0.654626
O O6 0.790821 0.750000 0.513511
O O7 0.000000 0.750000 0.547815
O O8 0.867159 0.662628 0.323398
O O9 0.000000 0.750000 0.244302
O O10 0.818143 0.750000 0.165083
O O11 0.000000 0.078029 0.446579
O O12 0.500000 0.922339 0.265847
O O13 0.375121 0.000000 0.500000
#
# Coordination Sequence:
#
# PCOD9537695 Si02
#       6
#    16   8   8  16  16   8
#     4  10  20  34  56  82 114 148 188 236 288 340
#     4   8  14  28  53  81 108 140 182 233 284 335
#     4   8  14  28  53  81 108 140 182 233 284 335
#     4   9  18  34  57  84 113 147 188 234 285 341
#     4   9  18  34  57  84 113 147 188 234 285 341
#     4   8  16  32  50  76 108 144 184 234 288 336
#
# _framework density 25.451506999999999
#
# number of rings (size 3 to 8) (size 9 to 14) (size 15 to 20)
#    0.000    3.111    0.000    0.000    0.000    1.778 
#    0.000    2.222    0.000    9.333    0.000    0.000 
#    0.000    0.000    0.000    0.000    0.000    0.000 
#
# Total GULP energy -200897.494664 kJ/mol
# GULP energy per Si atom -5580.485963 kJ/mol
# Density = 2.539358 g / cm^3
# Si number density = 25.451507 Si / 1000 Ang^3
#
#
#
# Elastic Constant Matrix: (Units=GPa)
#
#
# Indices 1 2 3 4 5 6 
#
# 1 102.8209 38.9135 13.0840 0.0000 0.0000 0.0000
# 2 38.9135 370.2277 64.1725 0.0000 0.0000 0.0000
# 3 13.0840 64.1725 50.9208 0.0000 0.0000 0.0000
# 4 0.0000 0.0000 0.0000 37.9213 0.0000 0.0000
# 5 0.0000 0.0000 0.0000 0.0000 -2.2258 0.0000
# 6 0.0000 0.0000 0.0000 0.0000 0.0000 22.3357
#
#
#
# Elastic Compliance Matrix: (Units=1/GPa)
#
#
# Indices 1 2 3 4 5 6 
#
# 1 0.010233 -0.000793 -0.001630 0.000000 0.000000 0.000000
# 2 -0.000793 0.003517 -0.004229 0.000000 0.000000 0.000000
# 3 -0.001630 -0.004229 0.025387 0.000000 0.000000 0.000000
# 4 0.000000 0.000000 0.000000 0.026370 0.000000 0.000000
# 5 0.000000 0.000000 0.000000 0.000000 -0.449276 0.000000
# 6 0.000000 0.000000 0.000000 0.000000 0.000000 0.044771
#
#
# Mechanical properties :
#
#
# Convention : Reuss Voigt Hill
#
# Bulk Modulus (GPa) = 38.70973 84.03438 61.37206
# Shear Modulus (GPa) = -15.76883 38.79287 11.51202
#
# Velocity S-wave (km/s) = -2.49180 3.90832 2.12907
# Velocity P-wave (km/s) = 2.63883 7.31134 5.49633
#
# Compressibility (1/GPa) = 0.02583330
#
# Stress axis : x y z
#
# Youngs Moduli (GPa) = 97.72117 284.29888 39.39061
#
# Poissons Ratio (x) = 0.22546 0.06420
# Poissons Ratio (y) = 0.07750 0.16658
# Poissons Ratio (z) = 0.15928 1.20231
#
# Static dielectric constant tensor:
#      x y z
#    x 2.100990 0.000000 0.000000 
#    y 0.000000 2.040250 0.000000 
#    z 0.000000 0.000000 1.978690 
# 
# From -- ./inp_files/31970.got.cif
#   From: 2010.05.17/outbox.cif.g08.bks.cpg/sg74_16_cif.got.tgz:31970.got - 2010.06.03 17:57:02.
