data_PCOD9537803
_publ_section_title
;
Structure prediction by ZEFSAII (Michael W. Deem and Ramdas Pophale) SiO2 
 PCOD9537803
Probable space group: I M M A
;
_chemical_formula_sum "Si O2"
_cell_formula_units_Z 104
_cell_length_a 29.123398
_cell_length_b 7.548769
_cell_length_c 23.441327
_cell_angle_alpha 90.000000
_cell_angle_beta 90.000000
_cell_angle_gamma 90.000000
_cell_volume 5153.477381
_symmetry_space_group_name_H-M "I M M A"
_symmetry_group_IT_number 74
_symmetry_cell_setting 'orthorhombic'
loop_
_space_group_symop_operation_xyz
x,y,z
-x,1/2-y,z
x,-y,-z
-x,1/2+y,-z
-x,-y,-z
x,1/2+y,-z
-x,y,z
x,1/2-y,z
1/2+x,1/2+y,1/2+z
1/2-x,-y,1/2+z
1/2+x,1/2-y,1/2-z
1/2-x,y,1/2-z
1/2-x,1/2-y,1/2-z
1/2+x,y,1/2-z
1/2-x,1/2+y,1/2+z
1/2+x,-y,1/2+z
loop_
_atom_site_type_symbol
_atom_site_label
_atom_site_fract_x
_atom_site_fract_y
_atom_site_fract_z
Si Si1 0.000000 0.037639 0.067836
Si Si2 0.199574 0.456565 0.736608
Si Si3 0.228438 0.960749 0.565172
Si Si4 0.098409 0.037508 0.066968
Si Si5 0.552046 0.536920 0.066701
Si Si6 0.359031 0.455081 0.868746
Si Si7 0.815405 0.034802 0.137992
O O1 0.049056 0.969166 0.088928
O O2 0.000000 0.250000 0.075373
O O3 0.000000 0.000000 0.000000
O O4 0.207351 0.250000 0.721148
O O5 0.250000 0.536940 0.750000
O O6 0.167932 0.533474 0.686238
O O7 0.176635 0.470014 0.798183
O O8 0.224850 0.750000 0.571280
O O9 0.267358 0.024111 0.609580
O O10 0.241581 0.000000 0.500000
O O11 0.179139 0.038663 0.581471
O O12 0.097964 0.250000 0.073576
O O13 0.142899 0.971092 0.099066
O O14 0.101963 0.000000 0.000000
O O15 0.500000 0.472057 0.078877
O O16 0.551361 0.750000 0.072453
O O17 0.593230 0.468723 0.107050
O O18 0.561929 0.500000 0.000000
O O19 0.368691 0.250000 0.854156
O O20 0.814513 0.250000 0.138498
#
# Coordination Sequence:
#
# PCOD9537803 Si02
#       7
#     8  16  16  16  16  16  16
#     4   8  14  26  46  68  92 122 156 194 235 284
#     4  10  20  35  54  73  95 129 170 208 244 288
#     4  11  22  33  48  73 104 134 163 199 246 296
#     4   9  17  30  48  72  98 127 161 199 246 294
#     4   9  18  33  54  79 105 132 163 204 254 305
#     4  10  20  35  54  75 100 132 170 207 248 297
#     4  10  21  34  49  71  99 131 166 204 246 293
#
# _framework density 20.180547000000001
#
# number of rings (size 3 to 8) (size 9 to 14) (size 15 to 20)
#    0.000    2.308    1.538    1.385    0.000    4.000 
#    0.000    0.000    1.692    0.000    0.000    0.000 
#    0.000    0.000    0.000    0.000    0.000    0.000 
#
# Total GULP energy -289985.804063 kJ/mol
# GULP energy per Si atom -5576.650078 kJ/mol
# Density = 2.013462 g / cm^3
# Si number density = 20.180547 Si / 1000 Ang^3
#
#
#
# Elastic Constant Matrix: (Units=GPa)
#
#
# Indices 1 2 3 4 5 6 
#
# 1 171.6055 9.3148 64.3354 0.0000 0.0000 0.0000
# 2 9.3148 54.4637 -0.7433 0.0000 0.0000 0.0000
# 3 64.3354 -0.7433 106.3807 0.0000 0.0000 0.0000
# 4 0.0000 0.0000 0.0000 17.1386 0.0000 0.0000
# 5 0.0000 0.0000 0.0000 0.0000 13.0569 0.0000
# 6 0.0000 0.0000 0.0000 0.0000 0.0000 6.8972
#
#
#
# Elastic Compliance Matrix: (Units=1/GPa)
#
#
# Indices 1 2 3 4 5 6 
#
# 1 0.007637 -0.001369 -0.004628 0.000000 0.000000 0.000000
# 2 -0.001369 0.018608 0.000958 0.000000 0.000000 0.000000
# 3 -0.004628 0.000958 0.012206 0.000000 0.000000 0.000000
# 4 0.000000 0.000000 0.000000 0.058348 0.000000 0.000000
# 5 0.000000 0.000000 0.000000 0.000000 0.076588 0.000000
# 6 0.000000 0.000000 0.000000 0.000000 0.000000 0.144987
#
#
# Mechanical properties :
#
#
# Convention : Reuss Voigt Hill
#
# Bulk Modulus (GPa) = 35.24568 53.14041 44.19305
# Shear Modulus (GPa) = 14.79689 24.72139 19.75914
#
# Velocity S-wave (km/s) = 2.71075 3.50381 3.13248
# Velocity P-wave (km/s) = 5.22500 6.53901 5.91858
#
# Compressibility (1/GPa) = 0.02837227
#
# Stress axis : x y z
#
# Youngs Moduli (GPa) = 130.94687 53.74001 81.92867
#
# Poissons Ratio (x) = 0.07358 0.37916
# Poissons Ratio (y) = 0.17930 -0.07849
# Poissons Ratio (z) = 0.60602 -0.05149
#
# Static dielectric constant tensor:
#      x y z
#    x 1.767410 0.000000 0.000000 
#    y 0.000000 1.798270 0.000000 
#    z 0.000000 0.000000 1.697760 
# 
# From -- ./inp_files/57859.got.cif
#   From: 2010.05.17/outbox.cif.g08.bks.cpg/sg74_29_cif.got.tgz:57859.got - 2010.06.03 17:57:02.
