data_PCOD9537509
_publ_section_title
;
Structure prediction by ZEFSAII (Michael W. Deem and Ramdas Pophale) SiO2 
 PCOD9537509
Probable space group: I M M A
;
_chemical_formula_sum "Si O2"
_cell_formula_units_Z 112
_cell_length_a 18.791100
_cell_length_b 7.561048
_cell_length_c 37.103408
_cell_angle_alpha 90.000000
_cell_angle_beta 90.000000
_cell_angle_gamma 90.000000
_cell_volume 5271.667387
_symmetry_space_group_name_H-M "I M M A"
_symmetry_group_IT_number 74
_symmetry_cell_setting 'orthorhombic'
loop_
_space_group_symop_operation_xyz
x,y,z
-x,1/2-y,z
x,-y,-z
-x,1/2+y,-z
-x,-y,-z
x,1/2+y,-z
-x,y,z
x,1/2-y,z
1/2+x,1/2+y,1/2+z
1/2-x,-y,1/2+z
1/2+x,1/2-y,1/2-z
1/2-x,y,1/2-z
1/2-x,1/2-y,1/2-z
1/2+x,y,1/2-z
1/2-x,1/2+y,1/2+z
1/2+x,-y,1/2+z
loop_
_atom_site_type_symbol
_atom_site_label
_atom_site_fract_x
_atom_site_fract_y
_atom_site_fract_z
Si Si1 0.581284 0.463250 0.180881
Si Si2 0.666804 0.033066 0.110220
Si Si3 0.581179 0.037871 0.459405
Si Si4 0.328815 0.537959 0.607844
Si Si5 0.581281 0.961850 0.959663
Si Si6 0.330315 0.039149 0.747295
Si Si7 0.580971 0.962568 0.320971
O O1 0.500000 0.527994 0.183068
O O2 0.578543 0.250000 0.179128
O O3 0.621123 0.524446 0.144740
O O4 0.626291 0.510446 0.216105
O O5 0.666750 0.250000 0.110477
O O6 0.748341 0.972630 0.112567
O O7 0.629996 0.974658 0.073030
O O8 0.500000 0.970019 0.455642
O O9 0.577817 0.250000 0.455688
O O10 0.632322 0.969550 0.428088
O O11 0.605754 0.000000 0.500000
O O12 0.323617 0.750000 0.604231
O O13 0.377100 0.501171 0.642451
O O14 0.500000 0.030253 0.956914
O O15 0.577706 0.750000 0.956229
O O16 0.607907 0.000000 0.000000
O O17 0.324044 0.250000 0.741748
O O18 0.250000 0.967579 0.750000
O O19 0.374656 0.968581 0.713261
O O20 0.500000 0.030158 0.321815
O O21 0.576843 0.750000 0.317543
#
# Coordination Sequence:
#
# PCOD9537509 Si02
#       7
#    16  16  16  16  16  16  16
#     4  10  20  34  54  79 104 134 175 215 251 300
#     4   9  18  33  52  74 102 135 168 207 258 306
#     4   9  18  32  49  70  96 126 161 201 246 297
#     4  10  20  34  53  76 101 130 168 213 255 296
#     4   9  17  31  51  73 100 135 172 209 250 298
#     4  10  21  37  56  78 106 138 170 208 257 308
#     4  10  21  36  53  74 102 135 168 202 247 304
#
# _framework density 21.245650999999999
#
# number of rings (size 3 to 8) (size 9 to 14) (size 15 to 20)
#    0.000    2.429    0.000    2.143    0.000    5.429 
#    0.000    2.857    0.000    1.714    0.000    0.000 
#    0.000    0.000    0.000    0.000    0.000    0.000 
#
# Total GULP energy -312851.088520 kJ/mol
# GULP energy per Si atom -5586.626581 kJ/mol
# Density = 2.119729 g / cm^3
# Si number density = 21.245651 Si / 1000 Ang^3
#
#
#
# Elastic Constant Matrix: (Units=GPa)
#
#
# Indices 1 2 3 4 5 6 
#
# 1 213.3749 3.5797 143.4460 0.0000 0.0000 0.0000
# 2 3.5797 47.0202 -9.1236 0.0000 0.0000 0.0000
# 3 143.4460 -9.1236 215.6173 0.0000 0.0000 0.0000
# 4 0.0000 0.0000 0.0000 16.3835 0.0000 0.0000
# 5 0.0000 0.0000 0.0000 0.0000 68.0936 0.0000
# 6 0.0000 0.0000 0.0000 0.0000 0.0000 10.0997
#
#
#
# Elastic Compliance Matrix: (Units=1/GPa)
#
#
# Indices 1 2 3 4 5 6 
#
# 1 0.008625 -0.001785 -0.005813 0.000000 0.000000 0.000000
# 2 -0.001785 0.021813 0.002110 0.000000 0.000000 0.000000
# 3 -0.005813 0.002110 0.008595 0.000000 0.000000 0.000000
# 4 0.000000 0.000000 0.000000 0.061037 0.000000 0.000000
# 5 0.000000 0.000000 0.000000 0.000000 0.014686 0.000000
# 6 0.000000 0.000000 0.000000 0.000000 0.000000 0.099013
#
#
# Mechanical properties :
#
#
# Convention : Reuss Voigt Hill
#
# Bulk Modulus (GPa) = 35.64213 83.53519 59.58866
# Shear Modulus (GPa) = 21.35881 41.45605 31.40743
#
# Velocity S-wave (km/s) = 3.17413 4.42211 3.84904
# Velocity P-wave (km/s) = 5.49964 8.09182 6.91822
#
# Compressibility (1/GPa) = 0.02805668
#
# Stress axis : x y z
#
# Youngs Moduli (GPa) = 115.94641 45.84471 116.35153
#
# Poissons Ratio (x) = 0.08181 0.67639
# Poissons Ratio (y) = 0.20692 -0.24553
# Poissons Ratio (z) = 0.67404 -0.09674
#
# Static dielectric constant tensor:
#      x y z
#    x 1.747830 0.000000 0.000000 
#    y 0.000000 1.806680 0.000000 
#    z 0.000000 0.000000 1.716170 
# 
# From -- ./inp_files/72498.got.cif
#   From: 2010.05.17/outbox.cif.g08.bks.cpg/sg74_37_cif.got.tgz:72498.got - 2010.06.03 17:57:02.
