data_PCOD9537546
_publ_section_title
;
Structure prediction by ZEFSAII (Michael W. Deem and Ramdas Pophale) SiO2 
 PCOD9537546
Probable space group: I M M A
;
_chemical_formula_sum "Si O2"
_cell_formula_units_Z 96
_cell_length_a 9.259757
_cell_length_b 30.213789
_cell_length_c 19.425554
_cell_angle_alpha 90.000000
_cell_angle_beta 90.000000
_cell_angle_gamma 90.000000
_cell_volume 5434.732780
_symmetry_space_group_name_H-M "I M M A"
_symmetry_group_IT_number 74
_symmetry_cell_setting 'orthorhombic'
loop_
_space_group_symop_operation_xyz
x,y,z
-x,1/2-y,z
x,-y,-z
-x,1/2+y,-z
-x,-y,-z
x,1/2+y,-z
-x,y,z
x,1/2-y,z
1/2+x,1/2+y,1/2+z
1/2-x,-y,1/2+z
1/2+x,1/2-y,1/2-z
1/2-x,y,1/2-z
1/2-x,1/2-y,1/2-z
1/2+x,y,1/2-z
1/2-x,1/2+y,1/2+z
1/2+x,-y,1/2+z
loop_
_atom_site_type_symbol
_atom_site_label
_atom_site_fract_x
_atom_site_fract_y
_atom_site_fract_z
Si Si1 0.170612 0.875121 0.418051
Si Si2 0.174139 0.199385 0.323933
Si Si3 0.669910 0.024923 0.429071
Si Si4 0.670575 0.699686 0.184607
Si Si5 0.330643 0.945695 0.322966
Si Si6 0.173354 0.882653 0.577876
O O1 0.194891 0.827838 0.383454
O O2 0.261760 0.909602 0.373886
O O3 0.206590 0.873348 0.497960
O O4 0.000000 0.886253 0.411460
O O5 0.207565 0.250000 0.348376
O O6 0.250000 0.193831 0.250000
O O7 0.217152 0.159032 0.374483
O O8 0.000000 0.197234 0.316044
O O9 0.500000 0.034942 0.440233
O O10 0.752404 0.069935 0.410437
O O11 0.720558 0.000000 0.500000
O O12 0.683114 0.991268 0.365531
O O13 0.500000 0.699881 0.198711
O O14 0.721446 0.750000 0.176924
O O15 0.750000 0.678909 0.250000
O O16 0.500000 0.936547 0.311886
O O17 0.250000 0.946651 0.250000
O O18 0.000000 0.887343 0.585071
#
# Coordination Sequence:
#
# PCOD9537546 Si02
#       6
#    16  16  16  16  16  16
#     4  10  20  34  53  79 108 140 178 221 271 323
#     4   9  19  37  59  84 116 152 190 234 286 342
#     4  10  21  39  58  78 108 147 185 226 280 334
#     4   9  18  32  49  70  99 135 173 213 258 308
#     4  11  23  38  57  80 108 142 182 224 271 327
#     4  10  21  35  57  86 112 143 184 229 277 330
#
# _framework density 17.664162000000001
#
# number of rings (size 3 to 8) (size 9 to 14) (size 15 to 20)
#    0.000    2.167    1.667    1.000    0.000    5.667 
#    0.000    6.667    0.000    0.000    0.000    7.000 
#    0.000    0.000    0.000    0.000    0.000    0.000 
#
# Total GULP energy -267635.440095 kJ/mol
# GULP energy per Si atom -5575.738335 kJ/mol
# Density = 1.762396 g / cm^3
# Si number density = 17.664162 Si / 1000 Ang^3
#
#
#
# Elastic Constant Matrix: (Units=GPa)
#
#
# Indices 1 2 3 4 5 6 
#
# 1 36.8346 52.3591 54.1489 0.0000 0.0000 0.0000
# 2 52.3591 121.7962 70.4430 0.0000 0.0000 0.0000
# 3 54.1489 70.4430 114.1681 -0.0001 0.0000 0.0000
# 4 0.0000 0.0000 -0.0001 34.8858 0.0000 0.0000
# 5 0.0000 0.0000 0.0000 0.0000 24.1066 0.0000
# 6 0.0000 0.0000 0.0000 0.0000 0.0000 21.7627
#
#
#
# Elastic Compliance Matrix: (Units=1/GPa)
#
#
# Indices 1 2 3 4 5 6 
#
# 1 0.152240 -0.036827 -0.049483 0.000000 0.000000 0.000000
# 2 -0.036827 0.021675 0.004093 0.000000 0.000000 0.000000
# 3 -0.049483 0.004093 0.029703 0.000000 0.000000 0.000000
# 4 0.000000 0.000000 0.000000 0.028665 0.000000 0.000000
# 5 0.000000 0.000000 0.000000 0.000000 0.041482 0.000000
# 6 0.000000 0.000000 0.000000 0.000000 0.000000 0.045950
#
#
# Mechanical properties :
#
#
# Convention : Reuss Voigt Hill
#
# Bulk Modulus (GPa) = 25.52115 69.63342 47.57729
# Shear Modulus (GPa) = 10.05613 22.54091 16.29852
#
# Velocity S-wave (km/s) = 2.38858 3.57610 3.04087
# Velocity P-wave (km/s) = 4.69962 7.52048 6.27073
#
# Compressibility (1/GPa) = 0.03918318
#
# Stress axis : x y z
#
# Youngs Moduli (GPa) = 6.56860 46.13682 33.66678
#
# Poissons Ratio (x) = 1.69908 1.66594
# Poissons Ratio (y) = 0.24190 -0.13780
# Poissons Ratio (z) = 0.32503 -0.18885
#
# Static dielectric constant tensor:
#      x y z
#    x 1.613880 0.000000 0.000000 
#    y 0.000000 1.612470 0.000000 
#    z 0.000000 0.000000 1.591990 
# 
# From -- ./inp_files/49173.got.cif
#   From: 2010.05.17/outbox.cif.g08.bks.cpg/sg74_25_cif.got.tgz:49173.got - 2010.06.03 17:57:02.
