data_PCOD9537195
_publ_section_title
;
Structure prediction by ZEFSAII (Michael W. Deem and Ramdas Pophale) SiO2 
 PCOD9537195
Probable space group: I M M A
;
_chemical_formula_sum "Si O2"
_cell_formula_units_Z 80
_cell_length_a 14.388962
_cell_length_b 19.055225
_cell_length_c 13.939484
_cell_angle_alpha 90.000000
_cell_angle_beta 90.000000
_cell_angle_gamma 90.000000
_cell_volume 3821.996144
_symmetry_space_group_name_H-M "I M M A"
_symmetry_group_IT_number 74
_symmetry_cell_setting 'orthorhombic'
loop_
_space_group_symop_operation_xyz
x,y,z
-x,1/2-y,z
x,-y,-z
-x,1/2+y,-z
-x,-y,-z
x,1/2+y,-z
-x,y,z
x,1/2-y,z
1/2+x,1/2+y,1/2+z
1/2-x,-y,1/2+z
1/2+x,1/2-y,1/2-z
1/2-x,y,1/2-z
1/2-x,1/2-y,1/2-z
1/2+x,y,1/2-z
1/2-x,1/2+y,1/2+z
1/2+x,-y,1/2+z
loop_
_atom_site_type_symbol
_atom_site_label
_atom_site_fract_x
_atom_site_fract_y
_atom_site_fract_z
Si Si1 0.854301 0.670957 0.788941
Si Si2 0.613753 0.828946 0.090286
Si Si3 0.112902 0.466376 0.099554
Si Si4 0.113782 0.961141 0.295117
Si Si5 0.395701 0.406347 0.097235
O O1 0.885403 0.750000 0.812919
O O2 0.750000 0.674784 0.750000
O O3 0.860490 0.613595 0.873259
O O4 0.903032 0.638284 0.695008
O O5 0.500000 0.825826 0.088733
O O6 0.647504 0.750000 0.103447
O O7 0.641039 0.884228 0.171571
O O8 0.646063 0.860975 0.988308
O O9 0.142666 0.513981 0.190068
O O10 0.000000 0.466604 0.097789
O O11 0.145374 0.500000 0.000000
O O12 0.000000 0.964213 0.296535
O O13 0.147787 0.020010 0.370931
O O14 0.500000 0.423417 0.063467
#
# Coordination Sequence:
#
# PCOD9537195 Si02
#       5
#    16  16  16  16  16
#     4  10  20  33  49  72 101 127 156 204 262 311
#     4   9  15  22  36  62  94 121 144 177 225 282
#     4   9  18  34  54  72  94 129 173 216 251 292
#     4   8  14  25  41  62  89 118 148 188 236 280
#     4   9  16  27  45  66  89 120 157 194 236 293
#
# _framework density 20.931470000000001
#
# number of rings (size 3 to 8) (size 9 to 14) (size 15 to 20)
#    0.000    3.000    0.000    3.000    0.000    4.800 
#    0.000    5.000    0.000    3.600    0.000    0.000 
#    0.000   18.400    0.000    0.000    0.000    0.000 
#
# Total GULP energy -223135.385075 kJ/mol
# GULP energy per Si atom -5578.384627 kJ/mol
# Density = 2.088383 g / cm^3
# Si number density = 20.931470 Si / 1000 Ang^3
#
#
#
# Elastic Constant Matrix: (Units=GPa)
#
#
# Indices 1 2 3 4 5 6 
#
# 1 44.9284 10.1024 4.4377 0.0000 0.0000 0.0000
# 2 10.1024 232.2597 116.2261 0.0000 0.0000 0.0000
# 3 4.4377 116.2261 114.9653 0.0000 0.0000 0.0000
# 4 0.0000 0.0000 0.0000 23.7899 0.0000 0.0000
# 5 0.0000 0.0000 0.0000 0.0000 9.0771 0.0000
# 6 0.0000 0.0000 0.0000 0.0000 0.0000 27.6197
#
#
#
# Elastic Compliance Matrix: (Units=1/GPa)
#
#
# Indices 1 2 3 4 5 6 
#
# 1 0.022481 -0.001100 0.000244 0.000000 0.000000 0.000000
# 2 -0.001100 0.008768 -0.008821 0.000000 0.000000 0.000000
# 3 0.000244 -0.008821 0.017607 0.000000 0.000000 0.000000
# 4 0.000000 0.000000 0.000000 0.042035 0.000000 0.000000
# 5 0.000000 0.000000 0.000000 0.000000 0.110167 0.000000
# 6 0.000000 0.000000 0.000000 0.000000 0.000000 0.036206
#
#
# Mechanical properties :
#
#
# Convention : Reuss Voigt Hill
#
# Bulk Modulus (GPa) = 33.89675 72.63174 53.26425
# Shear Modulus (GPa) = 18.76516 29.52317 24.14417
#
# Velocity S-wave (km/s) = 2.99742 3.75969 3.39999
# Velocity P-wave (km/s) = 5.31118 7.32272 6.39652
#
# Compressibility (1/GPa) = 0.02950135
#
# Stress axis : x y z
#
# Youngs Moduli (GPa) = 44.48231 114.05432 56.79554
#
# Poissons Ratio (x) = 0.12548 -0.01388
# Poissons Ratio (y) = 0.04894 0.50102
# Poissons Ratio (z) = -0.01087 1.00612
#
# Static dielectric constant tensor:
#      x y z
#    x 1.775470 0.000000 0.000000 
#    y 0.000000 1.749400 0.000000 
#    z 0.000000 0.000000 1.730050 
# 
# From -- ./inp_files/33976.got.cif
#   From: 2010.05.17/outbox.cif.g08.bks.cpg/sg74_17_cif.got.tgz:33976.got - 2010.06.03 17:57:02.
