data_PCOD9537716
_publ_section_title
;
Structure prediction by ZEFSAII (Michael W. Deem and Ramdas Pophale) SiO2 
 PCOD9537716
Probable space group: I M M A
;
_chemical_formula_sum "Si O2"
_cell_formula_units_Z 80
_cell_length_a 8.917927
_cell_length_b 14.944756
_cell_length_c 28.815323
_cell_angle_alpha 90.000000
_cell_angle_beta 90.000000
_cell_angle_gamma 90.000000
_cell_volume 3840.397991
_symmetry_space_group_name_H-M "I M M A"
_symmetry_group_IT_number 74
_symmetry_cell_setting 'orthorhombic'
loop_
_space_group_symop_operation_xyz
x,y,z
-x,1/2-y,z
x,-y,-z
-x,1/2+y,-z
-x,-y,-z
x,1/2+y,-z
-x,y,z
x,1/2-y,z
1/2+x,1/2+y,1/2+z
1/2-x,-y,1/2+z
1/2+x,1/2-y,1/2-z
1/2-x,y,1/2-z
1/2-x,1/2-y,1/2-z
1/2+x,y,1/2-z
1/2-x,1/2+y,1/2+z
1/2+x,-y,1/2+z
loop_
_atom_site_type_symbol
_atom_site_label
_atom_site_fract_x
_atom_site_fract_y
_atom_site_fract_z
Si Si1 0.673127 0.400567 0.978999
Si Si2 0.175264 0.143254 0.169675
Si Si3 0.677897 0.468618 0.797753
Si Si4 0.821295 0.856182 0.118438
Si Si5 0.168296 0.647875 0.577873
O O1 0.500000 0.375058 0.969467
O O2 0.765024 0.386891 0.932455
O O3 0.675922 0.500000 0.000000
O O4 0.724767 0.350219 0.025304
O O5 0.202735 0.250000 0.177735
O O6 0.275541 0.073153 0.197517
O O7 0.215687 0.116148 0.116317
O O8 0.000000 0.127414 0.178625
O O9 0.500000 0.461066 0.796633
O O10 0.750000 0.434235 0.750000
O O11 0.742315 0.413651 0.841443
O O12 0.787832 0.750000 0.123224
O O13 0.000000 0.868183 0.121703
O O14 0.146087 0.750000 0.591319
O O15 0.000000 0.604261 0.579717
#
# Coordination Sequence:
#
# PCOD9537716 Si02
#       5
#    16  16  16  16  16
#     4  10  20  34  56  88 124 163 206 251 302 361
#     4  10  21  38  62  94 132 170 208 254 311 377
#     4  12  26  45  69  93 121 159 206 263 323 383
#     4  11  25  44  66  94 128 166 212 266 321 377
#     4   9  17  30  50  79 118 162 203 241 286 347
#
# _framework density 20.831174000000001
#
# number of rings (size 3 to 8) (size 9 to 14) (size 15 to 20)
#    0.000    1.600    0.000    4.800    0.000    7.200 
#    0.000    2.000    0.000    0.000    0.000    0.000 
#    0.000    0.000    0.000    0.000    0.000    0.000 
#
# Total GULP energy -223168.680053 kJ/mol
# GULP energy per Si atom -5579.217001 kJ/mol
# Density = 2.078376 g / cm^3
# Si number density = 20.831174 Si / 1000 Ang^3
#
#
#
# Elastic Constant Matrix: (Units=GPa)
#
#
# Indices 1 2 3 4 5 6 
#
# 1 103.0730 40.5963 59.2572 0.0000 0.0000 0.0000
# 2 40.5963 72.1607 31.6971 0.0000 0.0000 0.0000
# 3 59.2572 31.6971 115.0948 0.0000 0.0000 0.0000
# 4 0.0000 0.0000 0.0000 14.3782 0.0000 0.0000
# 5 0.0000 0.0000 0.0000 0.0000 38.7053 0.0000
# 6 0.0000 0.0000 0.0000 0.0000 0.0000 21.8808
#
#
#
# Elastic Compliance Matrix: (Units=1/GPa)
#
#
# Indices 1 2 3 4 5 6 
#
# 1 0.015805 -0.006049 -0.006471 0.000000 0.000000 0.000000
# 2 -0.006049 0.018080 -0.001865 0.000000 0.000000 0.000000
# 3 -0.006471 -0.001865 0.012534 0.000000 0.000000 0.000000
# 4 0.000000 0.000000 0.000000 0.069550 0.000000 0.000000
# 5 0.000000 0.000000 0.000000 0.000000 0.025836 0.000000
# 6 0.000000 0.000000 0.000000 0.000000 0.000000 0.045702
#
#
# Mechanical properties :
#
#
# Convention : Reuss Voigt Hill
#
# Bulk Modulus (GPa) = 56.66218 61.49220 59.07719
# Shear Modulus (GPa) = 22.50633 25.57805 24.04219
#
# Velocity S-wave (km/s) = 3.29053 3.50790 3.40096
# Velocity P-wave (km/s) = 6.45729 6.78164 6.62145
#
# Compressibility (1/GPa) = 0.01764846
#
# Stress axis : x y z
#
# Youngs Moduli (GPa) = 63.27269 55.30927 79.78387
#
# Poissons Ratio (x) = 0.33456 0.51630
# Poissons Ratio (y) = 0.38273 0.14880
# Poissons Ratio (z) = 0.40945 0.10315
#
# Static dielectric constant tensor:
#      x y z
#    x 1.729480 0.000000 0.000000 
#    y 0.000000 5.870200 0.000000 
#    z 0.000000 0.000000 1.761480 
# 
# From -- ./inp_files/63937.got.cif
#   From: 2010.05.17/outbox.cif.g08.bks.cpg/sg74_32_cif.got.tgz:63937.got - 2010.06.03 17:57:02.
