data_PCOD9537543
_publ_section_title
;
Structure prediction by ZEFSAII (Michael W. Deem and Ramdas Pophale) SiO2 
 PCOD9537543
Probable space group: I M M A
;
_chemical_formula_sum "Si O2"
_cell_formula_units_Z 104
_cell_length_a 25.908025
_cell_length_b 9.219789
_cell_length_c 21.819511
_cell_angle_alpha 90.000000
_cell_angle_beta 90.000000
_cell_angle_gamma 90.000000
_cell_volume 5211.950746
_symmetry_space_group_name_H-M "I M M A"
_symmetry_group_IT_number 74
_symmetry_cell_setting 'orthorhombic'
loop_
_space_group_symop_operation_xyz
x,y,z
-x,1/2-y,z
x,-y,-z
-x,1/2+y,-z
-x,-y,-z
x,1/2+y,-z
-x,y,z
x,1/2-y,z
1/2+x,1/2+y,1/2+z
1/2-x,-y,1/2+z
1/2+x,1/2-y,1/2-z
1/2-x,y,1/2-z
1/2-x,1/2-y,1/2-z
1/2+x,y,1/2-z
1/2-x,1/2+y,1/2+z
1/2+x,-y,1/2+z
loop_
_atom_site_type_symbol
_atom_site_label
_atom_site_fract_x
_atom_site_fract_y
_atom_site_fract_z
Si Si1 0.108706 0.080308 0.374178
Si Si2 0.124111 0.083862 0.938958
Si Si3 0.637099 0.424020 0.751009
Si Si4 0.000000 0.575643 0.565686
Si Si5 0.439142 0.579218 0.657164
Si Si6 0.780421 0.915348 0.156585
Si Si7 0.213035 0.082131 0.437886
O O1 0.106880 0.250000 0.354461
O O2 0.151553 0.071153 0.427327
O O3 0.052124 0.037843 0.397631
O O4 0.128321 0.982070 0.318738
O O5 0.109880 0.250000 0.952095
O O6 0.171404 0.086447 0.891056
O O7 0.078382 0.997390 0.905543
O O8 0.139388 0.000000 0.000000
O O9 0.632641 0.250000 0.747152
O O10 0.593235 0.499747 0.709908
O O11 0.692531 0.461563 0.720181
O O12 0.000000 0.500000 0.500000
O O13 0.000000 0.750000 0.557546
O O14 0.500000 0.564525 0.667322
O O15 0.426097 0.750000 0.655627
O O16 0.760611 0.750000 0.162823
O O17 0.739428 0.015377 0.122604
O O18 0.227653 0.250000 0.443468
O O19 0.227885 0.000000 0.500000
#
# Coordination Sequence:
#
# PCOD9537543 Si02
#       7
#    16  16  16   8  16  16  16
#     4  10  23  41  61  89 122 157 197 243 299 358
#     4  10  20  34  53  78 109 147 193 242 293 351
#     4  10  22  39  60  87 117 152 196 244 293 350
#     4  10  22  42  66  90 122 160 199 246 299 354
#     4  10  21  36  55  78 108 148 190 239 296 352
#     4   9  20  38  58  83 116 154 194 239 292 348
#     4  11  23  38  60  89 120 156 198 245 295 353
#
# _framework density 19.954142000000001
#
# number of rings (size 3 to 8) (size 9 to 14) (size 15 to 20)
#    0.000    2.000    0.000    3.692    1.077    8.923 
#    0.000    3.077    0.000    0.000    0.000    0.000 
#    0.000    0.000    0.000    0.000    0.000    0.000 
#
# Total GULP energy -290518.988251 kJ/mol
# GULP energy per Si atom -5586.903620 kJ/mol
# Density = 1.990873 g / cm^3
# Si number density = 19.954142 Si / 1000 Ang^3
#
#
#
# Elastic Constant Matrix: (Units=GPa)
#
#
# Indices 1 2 3 4 5 6 
#
# 1 101.4961 59.4260 33.5152 0.0000 0.0000 0.0000
# 2 59.4260 107.3367 49.2209 0.0000 0.0000 0.0000
# 3 33.5152 49.2209 93.9715 0.0000 0.0000 0.0000
# 4 0.0000 0.0000 0.0000 37.0635 0.0000 0.0000
# 5 0.0000 0.0000 0.0000 0.0000 18.6604 0.0000
# 6 0.0000 0.0000 0.0000 0.0000 0.0000 22.0594
#
#
#
# Elastic Compliance Matrix: (Units=1/GPa)
#
#
# Indices 1 2 3 4 5 6 
#
# 1 0.014696 -0.007545 -0.001289 0.000000 0.000000 0.000000
# 2 -0.007545 0.016135 -0.005760 0.000000 0.000000 0.000000
# 3 -0.001289 -0.005760 0.014119 0.000000 0.000000 0.000000
# 4 0.000000 0.000000 0.000000 0.026981 0.000000 0.000000
# 5 0.000000 0.000000 0.000000 0.000000 0.053589 0.000000
# 6 0.000000 0.000000 0.000000 0.000000 0.000000 0.045332
#
#
# Mechanical properties :
#
#
# Convention : Reuss Voigt Hill
#
# Bulk Modulus (GPa) = 63.45128 65.23651 64.34389
# Shear Modulus (GPa) = 24.35515 26.26613 25.31064
#
# Velocity S-wave (km/s) = 3.49744 3.63205 3.56538
# Velocity P-wave (km/s) = 6.94097 7.09600 7.01891
#
# Compressibility (1/GPa) = 0.01576012
#
# Stress axis : x y z
#
# Youngs Moduli (GPa) = 68.04582 61.97605 70.82833
#
# Poissons Ratio (x) = 0.46761 0.09133
# Poissons Ratio (y) = 0.51341 0.40800
# Poissons Ratio (z) = 0.08774 0.35701
#
# Static dielectric constant tensor:
#      x y z
#    x 1.710360 0.000000 0.000000 
#    y 0.000000 1.676180 0.000000 
#    z 0.000000 0.000000 1.711200 
# 
# From -- ./inp_files/55189.got.cif
#   From: 2010.05.17/outbox.cif.g08.bks.cpg/sg74_28_cif.got.tgz:55189.got - 2010.06.03 17:57:02.
