data_PCOD9537466
_publ_section_title
;
Structure prediction by ZEFSAII (Michael W. Deem and Ramdas Pophale) SiO2 
 PCOD9537466
Probable space group: I M M A
;
_chemical_formula_sum "Si O2"
_cell_formula_units_Z 88
_cell_length_a 14.651682
_cell_length_b 22.899772
_cell_length_c 14.127203
_cell_angle_alpha 90.000000
_cell_angle_beta 90.000000
_cell_angle_gamma 90.000000
_cell_volume 4739.961654
_symmetry_space_group_name_H-M "I M M A"
_symmetry_group_IT_number 74
_symmetry_cell_setting 'orthorhombic'
loop_
_space_group_symop_operation_xyz
x,y,z
-x,1/2-y,z
x,-y,-z
-x,1/2+y,-z
-x,-y,-z
x,1/2+y,-z
-x,y,z
x,1/2-y,z
1/2+x,1/2+y,1/2+z
1/2-x,-y,1/2+z
1/2+x,1/2-y,1/2-z
1/2-x,y,1/2-z
1/2-x,1/2-y,1/2-z
1/2+x,y,1/2-z
1/2-x,1/2+y,1/2+z
1/2+x,-y,1/2+z
loop_
_atom_site_type_symbol
_atom_site_label
_atom_site_fract_x
_atom_site_fract_y
_atom_site_fract_z
Si Si1 0.750000 0.656535 0.750000
Si Si2 0.904206 0.985557 0.889493
Si Si3 0.394333 0.624459 0.041194
Si Si4 0.109534 0.250000 0.236583
Si Si5 0.391098 0.250000 0.034204
Si Si6 0.146843 0.558668 0.277683
Si Si7 0.800070 0.058305 0.382110
O O1 0.828606 0.695779 0.798408
O O2 0.808568 0.615801 0.680837
O O3 0.900370 0.041922 0.820903
O O4 0.000000 0.954017 0.866207
O O5 0.807817 0.954346 0.876223
O O6 0.905936 0.000000 0.000000
O O7 0.500000 0.619962 0.009390
O O8 0.359254 0.689266 0.013759
O O9 0.390386 0.607379 0.151546
O O10 0.335645 0.576088 0.984805
O O11 0.122392 0.250000 0.352047
O O12 0.000000 0.250000 0.217569
O O13 0.500000 0.250000 0.019241
O O14 0.250000 0.573818 0.250000
O O15 0.149877 0.497088 0.335914
#
# Coordination Sequence:
#
# PCOD9537466 Si02
#       7
#     8  16  16   8   8  16  16
#     4  11  20  34  56  80 112 155 190 226 292 347
#     4  10  20  34  52  75 109 150 183 220 280 350
#     4  11  22  36  58  84 113 149 191 241 289 341
#     4  10  21  37  54  78 115 157 198 239 285 340
#     4   9  19  35  54  77 107 148 193 239 289 336
#     4  10  20  36  54  82 115 145 179 233 290 351
#     4  11  20  35  53  83 113 145 184 231 289 346
#
# _framework density 18.565550999999999
#
# number of rings (size 3 to 8) (size 9 to 14) (size 15 to 20)
#    0.000    1.636    4.545    3.273    0.000    2.909 
#    0.000    0.455    0.000    0.000    0.000    0.000 
#    0.000    0.000    0.000    0.000    0.000    0.000 
#
# Total GULP energy -244981.963913 kJ/mol
# GULP energy per Si atom -5567.771907 kJ/mol
# Density = 1.852330 g / cm^3
# Si number density = 18.565551 Si / 1000 Ang^3
#
#
#
# Elastic Constant Matrix: (Units=GPa)
#
#
# Indices 1 2 3 4 5 6 
#
# 1 67.9537 -0.6796 -5.1184 0.0000 0.0000 0.0000
# 2 -0.6796 59.4969 17.5912 0.0002 0.0000 0.0000
# 3 -5.1184 17.5912 89.0937 0.0003 0.0000 0.0000
# 4 0.0000 0.0002 0.0003 22.9204 0.0000 0.0000
# 5 0.0000 0.0000 0.0000 0.0000 119.9585 -0.0001
# 6 0.0000 0.0000 0.0000 0.0000 -0.0001 7.5549
#
#
#
# Elastic Compliance Matrix: (Units=1/GPa)
#
#
# Indices 1 2 3 4 5 6 
#
# 1 0.014780 -0.000087 0.000866 0.000000 0.000000 0.000000
# 2 -0.000087 0.017850 -0.003529 0.000000 0.000000 0.000000
# 3 0.000866 -0.003529 0.011971 0.000000 0.000000 0.000000
# 4 0.000000 0.000000 0.000000 0.043629 0.000000 0.000000
# 5 0.000000 0.000000 0.000000 0.000000 0.008336 0.000000
# 6 0.000000 0.000000 0.000000 0.000000 0.000000 0.132364
#
#
# Mechanical properties :
#
#
# Convention : Reuss Voigt Hill
#
# Bulk Modulus (GPa) = 25.57521 26.68120 26.12820
# Shear Modulus (GPa) = 20.20488 43.73683 31.97086
#
# Velocity S-wave (km/s) = 3.30252 4.85893 4.15426
# Velocity P-wave (km/s) = 5.32426 6.77359 6.09217
#
# Compressibility (1/GPa) = 0.03910036
#
# Stress axis : x y z
#
# Youngs Moduli (GPa) = 67.65774 56.02193 83.53665
#
# Poissons Ratio (x) = 0.00489 -0.07237
# Poissons Ratio (y) = 0.00591 0.29484
# Poissons Ratio (z) = -0.05862 0.19773
#
# Static dielectric constant tensor:
#      x y z
#    x 1.685720 0.000000 0.000000 
#    y 0.000000 1.678560 0.000000 
#    z 0.000000 0.000000 1.691210 
# 
# From -- ./inp_files/32263.got.cif
#   From: 2010.05.17/outbox.cif.g08.bks.cpg/sg74_17_cif.got.tgz:32263.got - 2010.06.03 17:57:02.
