data_PCOD9537029
_publ_section_title
;
Structure prediction by ZEFSAII (Michael W. Deem and Ramdas Pophale) SiO2 
 PCOD9537029
Probable space group: I M M A
;
_chemical_formula_sum "Si O2"
_cell_formula_units_Z 96
_cell_length_a 20.539479
_cell_length_b 13.976463
_cell_length_c 12.657203
_cell_angle_alpha 90.000000
_cell_angle_beta 90.000000
_cell_angle_gamma 90.000000
_cell_volume 3633.494004
_symmetry_space_group_name_H-M "I M M A"
_symmetry_group_IT_number 74
_symmetry_cell_setting 'orthorhombic'
loop_
_space_group_symop_operation_xyz
x,y,z
-x,1/2-y,z
x,-y,-z
-x,1/2+y,-z
-x,-y,-z
x,1/2+y,-z
-x,y,z
x,1/2-y,z
1/2+x,1/2+y,1/2+z
1/2-x,-y,1/2+z
1/2+x,1/2-y,1/2-z
1/2-x,y,1/2-z
1/2-x,1/2-y,1/2-z
1/2+x,y,1/2-z
1/2-x,1/2+y,1/2+z
1/2+x,-y,1/2+z
loop_
_atom_site_type_symbol
_atom_site_label
_atom_site_fract_x
_atom_site_fract_y
_atom_site_fract_z
Si Si1 0.926388 0.069938 0.345482
Si Si2 0.604010 0.140308 0.852073
Si Si3 0.245068 0.563680 0.376884
Si Si4 0.216424 0.645977 0.632510
Si Si5 0.615856 0.858022 0.397786
Si Si6 0.923425 0.142861 0.120549
O O1 0.862110 0.128727 0.379773
O O2 0.910408 0.073799 0.219010
O O3 0.000000 0.109807 0.361230
O O4 0.927044 0.960791 0.387906
O O5 0.583887 0.250000 0.879678
O O6 0.678441 0.122776 0.887414
O O7 0.596368 0.130209 0.724500
O O8 0.250000 0.550187 0.250000
O O9 0.243920 0.452546 0.414505
O O10 0.307652 0.625044 0.401880
O O11 0.231683 0.750000 0.586691
O O12 0.250000 0.649344 0.750000
O O13 0.594976 0.750000 0.418198
O O14 0.592325 0.901619 0.507870
O O15 0.893662 0.250000 0.140130
O O16 0.000000 0.154993 0.122224
#
# Coordination Sequence:
#
# PCOD9537029 Si02
#       6
#    16  16  16  16  16  16
#     4  10  20  32  47  67  93 128 165 199 236 278
#     4   9  17  28  42  61  85 114 152 198 242 281
#     4   8  14  26  44  64  82 104 142 192 242 285
#     4   9  17  30  48  67  86 113 152 198 245 285
#     4   9  16  27  44  62  82 113 152 193 234 275
#     4   9  18  31  45  64  92 126 164 201 233 270
#
# _framework density 26.420850000000002
#
# number of rings (size 3 to 8) (size 9 to 14) (size 15 to 20)
#    0.000    3.000    0.000    2.000    0.000    4.667 
#    0.000    3.333    0.000    1.000    0.000    0.000 
#    0.000    0.000    0.000   12.000    0.000   68.333 
#
# Total GULP energy -267595.638926 kJ/mol
# GULP energy per Si atom -5574.909144 kJ/mol
# Density = 2.636072 g / cm^3
# Si number density = 26.420850 Si / 1000 Ang^3
#
#
#
# Elastic Constant Matrix: (Units=GPa)
#
#
# Indices 1 2 3 4 5 6 
#
# 1 65.0242 5.2057 0.8776 0.0000 0.0000 0.0000
# 2 5.2057 175.6117 48.5597 0.0000 0.0000 0.0000
# 3 0.8776 48.5597 77.7026 0.0000 0.0000 0.0000
# 4 0.0000 0.0000 0.0000 -55.4884 0.0000 0.0000
# 5 0.0000 0.0000 0.0000 0.0000 30.4977 0.0000
# 6 0.0000 0.0000 0.0000 0.0000 0.0000 -0.2701
#
#
#
# Elastic Compliance Matrix: (Units=1/GPa)
#
#
# Indices 1 2 3 4 5 6 
#
# 1 0.015417 -0.000494 0.000135 0.000000 0.000000 0.000000
# 2 -0.000494 0.006900 -0.004306 0.000000 0.000000 0.000000
# 3 0.000135 -0.004306 0.015559 0.000000 0.000000 0.000000
# 4 0.000000 0.000000 0.000000 -0.018022 0.000000 0.000000
# 5 0.000000 0.000000 0.000000 0.000000 0.032789 0.000000
# 6 0.000000 0.000000 0.000000 0.000000 0.000000 -3.702518
#
#
# Mechanical properties :
#
#
# Convention : Reuss Voigt Hill
#
# Bulk Modulus (GPa) = 35.03367 47.51382 41.27374
# Shear Modulus (GPa) = -1.37702 12.52755 5.57527
#
# Velocity S-wave (km/s) = -0.72272 2.17987 1.45422
# Velocity P-wave (km/s) = 3.54855 4.93541 4.29828
#
# Compressibility (1/GPa) = 0.02854397
#
# Stress axis : x y z
#
# Youngs Moduli (GPa) = 64.86501 144.93106 64.27012
#
# Poissons Ratio (x) = 0.07163 -0.00866
# Poissons Ratio (y) = 0.03206 0.27677
# Poissons Ratio (z) = -0.00874 0.62413
#
# Static dielectric constant tensor:
#      x y z
#    x 1.929500 0.000000 0.000000 
#    y 0.000000 2.062700 0.000000 
#    z 0.000000 0.000000 2.345250 
# 
# From -- ./inp_files/35279.got.cif
#   From: 2010.05.17/outbox.cif.g08.bks.cpg/sg74_18_cif.got.tgz:35279.got - 2010.06.03 17:57:02.
