data_PCOD9537156
_publ_section_title
;
Structure prediction by ZEFSAII (Michael W. Deem and Ramdas Pophale) SiO2 
 PCOD9537156
Probable space group: I M M A
;
_chemical_formula_sum "Si O2"
_cell_formula_units_Z 112
_cell_length_a 15.507570
_cell_length_b 23.737087
_cell_length_c 15.387126
_cell_angle_alpha 90.000000
_cell_angle_beta 90.000000
_cell_angle_gamma 90.000000
_cell_volume 5664.070911
_symmetry_space_group_name_H-M "I M M A"
_symmetry_group_IT_number 74
_symmetry_cell_setting 'orthorhombic'
loop_
_space_group_symop_operation_xyz
x,y,z
-x,1/2-y,z
x,-y,-z
-x,1/2+y,-z
-x,-y,-z
x,1/2+y,-z
-x,y,z
x,1/2-y,z
1/2+x,1/2+y,1/2+z
1/2-x,-y,1/2+z
1/2+x,1/2-y,1/2-z
1/2-x,y,1/2-z
1/2-x,1/2-y,1/2-z
1/2+x,y,1/2-z
1/2-x,1/2+y,1/2+z
1/2+x,-y,1/2+z
loop_
_atom_site_type_symbol
_atom_site_label
_atom_site_fract_x
_atom_site_fract_y
_atom_site_fract_z
Si Si1 0.273619 0.750000 0.351129
Si Si2 0.091508 0.750000 0.452902
Si Si3 0.595828 0.415825 0.317103
Si Si4 0.780084 0.491560 0.897274
Si Si5 0.095477 0.463095 0.373758
Si Si6 0.154854 0.137400 0.485474
Si Si7 0.275551 0.871576 0.351325
Si Si8 0.208801 0.684361 0.846654
O O1 0.250000 0.750000 0.250000
O O2 0.180578 0.750000 0.399027
O O3 0.317890 0.810196 0.369870
O O4 0.096517 0.807093 0.508358
O O5 0.000000 0.750000 0.403557
O O6 0.500000 0.429334 0.349186
O O7 0.666549 0.458334 0.354385
O O8 0.596774 0.425796 0.213763
O O9 0.622957 0.352737 0.340994
O O10 0.679453 0.497255 0.869864
O O11 0.819409 0.431246 0.870831
O O12 0.783140 0.500000 0.000000
O O13 0.110211 0.419075 0.451889
O O14 0.000000 0.489660 0.380016
O O15 0.196283 0.127599 0.580206
O O16 0.229653 0.154388 0.417120
O O17 0.250000 0.872096 0.250000
O O18 0.197794 0.750000 0.869539
O O19 0.250000 0.681473 0.750000
#
# Coordination Sequence:
#
# PCOD9537156 Si02
#       8
#     8   8  16  16  16  16  16  16
#     4   8  18  36  58  83 112 155 208 247 302 372
#     4  10  20  32  53  89 128 161 200 251 306 372
#     4  11  23  39  60  86 121 165 212 262 309 368
#     4  12  22  40  63  87 121 162 206 257 314 377
#     4  11  22  37  58  88 128 164 197 251 318 380
#     4  11  19  36  55  87 123 165 202 250 309 370
#     4  10  20  36  61  87 117 158 204 254 307 371
#     4  11  20  35  60  86 124 170 216 257 312 378
#
# _framework density 19.773764
#
# number of rings (size 3 to 8) (size 9 to 14) (size 15 to 20)
#    0.000    1.286    5.000    1.714    0.000    0.857 
#    0.000    0.714    0.000    7.714    0.000    7.000 
#    0.000    0.000    0.000    0.000    0.000    0.000 
#
# Total GULP energy -312266.293991 kJ/mol
# GULP energy per Si atom -5576.183821 kJ/mol
# Density = 1.972876 g / cm^3
# Si number density = 19.773764 Si / 1000 Ang^3
#
#
#
# Elastic Constant Matrix: (Units=GPa)
#
#
# Indices 1 2 3 4 5 6 
#
# 1 71.9268 28.8703 30.8637 0.0000 0.0000 0.0000
# 2 28.8703 116.2508 -1.7100 -0.0001 0.0000 0.0000
# 3 30.8637 -1.7100 80.3261 -0.0001 0.0000 0.0000
# 4 0.0000 -0.0001 -0.0001 28.8006 0.0000 0.0000
# 5 0.0000 0.0000 0.0000 0.0000 6.4527 0.0000
# 6 0.0000 0.0000 0.0000 0.0000 0.0000 -1.3286
#
#
#
# Elastic Compliance Matrix: (Units=1/GPa)
#
#
# Indices 1 2 3 4 5 6 
#
# 1 0.019024 -0.004833 -0.007412 0.000000 0.000000 0.000000
# 2 -0.004833 0.009833 0.002066 0.000000 0.000000 0.000000
# 3 -0.007412 0.002066 0.015341 0.000000 0.000000 0.000000
# 4 0.000000 0.000000 0.000000 0.034722 0.000000 0.000000
# 5 0.000000 0.000000 0.000000 0.000000 0.154974 -0.000001
# 6 0.000000 0.000000 0.000000 0.000000 -0.000001 -0.752693
#
#
# Mechanical properties :
#
#
# Convention : Reuss Voigt Hill
#
# Bulk Modulus (GPa) = 41.94780 42.72797 42.33788
# Shear Modulus (GPa) = -10.19379 20.81693 5.31157
#
# Velocity S-wave (km/s) = -2.27297 3.24814 1.64073
# Velocity P-wave (km/s) = 3.79096 5.97683 5.00469
#
# Compressibility (1/GPa) = 0.02383915
#
# Stress axis : x y z
#
# Youngs Moduli (GPa) = 52.56583 101.69978 65.18346
#
# Poissons Ratio (x) = 0.49156 0.48317
# Poissons Ratio (y) = 0.25408 -0.13470
# Poissons Ratio (z) = 0.38964 -0.21016
#
# Static dielectric constant tensor:
#      x y z
#    x 1.715520 0.000000 0.000000 
#    y 0.000000 1.756370 0.000000 
#    z 0.000000 0.000000 1.735310 
# 
# From -- ./inp_files/33000.got.cif
#   From: 2010.05.17/outbox.cif.g08.bks.cpg/sg74_17_cif.got.tgz:33000.got - 2010.06.03 17:57:02.
