data_PCOD9537093
_publ_section_title
;
Structure prediction by ZEFSAII (Michael W. Deem and Ramdas Pophale) SiO2 
 PCOD9537093
Probable space group: I M M A
;
_chemical_formula_sum "Si O2"
_cell_formula_units_Z 104
_cell_length_a 7.984089
_cell_length_b 21.902014
_cell_length_c 28.934635
_cell_angle_alpha 90.000000
_cell_angle_beta 90.000000
_cell_angle_gamma 90.000000
_cell_volume 5059.731020
_symmetry_space_group_name_H-M "I M M A"
_symmetry_group_IT_number 74
_symmetry_cell_setting 'orthorhombic'
loop_
_space_group_symop_operation_xyz
x,y,z
-x,1/2-y,z
x,-y,-z
-x,1/2+y,-z
-x,-y,-z
x,1/2+y,-z
-x,y,z
x,1/2-y,z
1/2+x,1/2+y,1/2+z
1/2-x,-y,1/2+z
1/2+x,1/2-y,1/2-z
1/2-x,y,1/2-z
1/2-x,1/2-y,1/2-z
1/2+x,y,1/2-z
1/2-x,1/2+y,1/2+z
1/2+x,-y,1/2+z
loop_
_atom_site_type_symbol
_atom_site_label
_atom_site_fract_x
_atom_site_fract_y
_atom_site_fract_z
Si Si1 0.189886 0.906589 0.375475
Si Si2 0.193724 0.501948 0.696953
Si Si3 0.197569 0.376192 0.150614
Si Si4 0.297405 0.819651 0.558345
Si Si5 0.306268 0.322847 0.699636
Si Si6 0.299694 0.250000 0.196650
Si Si7 0.201247 0.819578 0.452898
O O1 0.271399 0.960061 0.344187
O O2 0.190680 0.851266 0.339033
O O3 0.268616 0.873990 0.420382
O O4 0.000000 0.925688 0.388103
O O5 0.250000 0.495037 0.750000
O O6 0.215310 0.571196 0.679976
O O7 0.000000 0.484431 0.697591
O O8 0.259044 0.366495 0.097905
O O9 0.225601 0.310696 0.173874
O O10 0.000000 0.390218 0.150141
O O11 0.500000 0.819698 0.559013
O O12 0.242415 0.750000 0.569727
O O13 0.238870 0.832195 0.506497
O O14 0.500000 0.339343 0.691435
O O15 0.293568 0.250000 0.699046
O O16 0.250000 0.344743 0.750000
O O17 0.500000 0.250000 0.191487
O O18 0.250000 0.250000 0.250000
O O19 0.263706 0.750000 0.442411
O O20 0.000000 0.818071 0.446502
#
# Coordination Sequence:
#
# PCOD9537093 Si02
#       7
#    16  16  16  16  16   8  16
#     4  10  21  37  56  78 110 150 193 239 286 337
#     4  11  24  41  59  82 112 152 197 240 288 344
#     4  11  22  40  62  86 117 152 190 235 286 341
#     4   9  18  35  58  85 116 148 183 230 285 340
#     4  10  20  32  49  75 105 138 181 233 289 347
#     4  12  24  38  60  90 122 152 186 232 285 344
#     4   9  18  33  56  86 116 148 189 238 289 340
#
# _framework density 20.554451
#
# number of rings (size 3 to 8) (size 9 to 14) (size 15 to 20)
#    0.000    1.846    0.769    3.462    0.000    5.846 
#    0.000    2.308    0.000    4.615    0.000    0.000 
#    0.000    0.000    0.000    0.000    0.000    0.000 
#
# Total GULP energy -290118.266176 kJ/mol
# GULP energy per Si atom -5579.197426 kJ/mol
# Density = 2.050767 g / cm^3
# Si number density = 20.554451 Si / 1000 Ang^3
#
#
#
# Elastic Constant Matrix: (Units=GPa)
#
#
# Indices 1 2 3 4 5 6 
#
# 1 25.1437 1.2425 -8.2337 0.0000 0.0000 0.0000
# 2 1.2425 91.4122 55.1251 0.0000 0.0000 0.0000
# 3 -8.2337 55.1251 121.5657 0.0000 0.0000 0.0000
# 4 0.0000 0.0000 0.0000 52.8562 0.0000 0.0000
# 5 0.0000 0.0000 0.0000 0.0000 26.2168 0.0000
# 6 0.0000 0.0000 0.0000 0.0000 0.0000 14.6879
#
#
#
# Elastic Compliance Matrix: (Units=1/GPa)
#
#
# Indices 1 2 3 4 5 6 
#
# 1 0.041300 -0.003094 0.004200 0.000000 0.000000 0.000000
# 2 -0.003094 0.015289 -0.007142 0.000000 0.000000 0.000000
# 3 0.004200 -0.007142 0.011749 0.000000 0.000000 0.000000
# 4 0.000000 0.000000 0.000000 0.018919 0.000000 0.000000
# 5 0.000000 0.000000 0.000000 0.000000 0.038143 0.000000
# 6 0.000000 0.000000 0.000000 0.000000 0.000000 0.068083
#
#
# Mechanical properties :
#
#
# Convention : Reuss Voigt Hill
#
# Bulk Modulus (GPa) = 17.77303 37.15436 27.46370
# Shear Modulus (GPa) = 22.29048 31.41804 26.85426
#
# Velocity S-wave (km/s) = 3.29669 3.91388 3.61847
# Velocity P-wave (km/s) = 4.81211 6.20805 5.55411
#
# Compressibility (1/GPa) = 0.05626503
#
# Stress axis : x y z
#
# Youngs Moduli (GPa) = 24.21323 65.40806 85.11167
#
# Poissons Ratio (x) = 0.20240 -0.35751
# Poissons Ratio (y) = 0.07493 0.60790
# Poissons Ratio (z) = -0.10171 0.46717
#
# Static dielectric constant tensor:
#      x y z
#    x 1.785080 0.000000 0.000000 
#    y 0.000000 1.739920 0.000000 
#    z 0.000000 0.000000 1.730230 
# 
# From -- ./inp_files/64429.got.cif
#   From: 2010.05.17/outbox.cif.g08.bks.cpg/sg74_33_cif.got.tgz:64429.got - 2010.06.03 17:57:02.
