data_PCOD9537055
_publ_section_title
;
Structure prediction by ZEFSAII (Michael W. Deem and Ramdas Pophale) SiO2 
 PCOD9537055
Probable space group: I M M A
;
_chemical_formula_sum "Si O2"
_cell_formula_units_Z 84
_cell_length_a 16.240627
_cell_length_b 10.988558
_cell_length_c 20.532052
_cell_angle_alpha 90.000000
_cell_angle_beta 90.000000
_cell_angle_gamma 90.000000
_cell_volume 3664.172005
_symmetry_space_group_name_H-M "I M M A"
_symmetry_group_IT_number 74
_symmetry_cell_setting 'orthorhombic'
loop_
_space_group_symop_operation_xyz
x,y,z
-x,1/2-y,z
x,-y,-z
-x,1/2+y,-z
-x,-y,-z
x,1/2+y,-z
-x,y,z
x,1/2-y,z
1/2+x,1/2+y,1/2+z
1/2-x,-y,1/2+z
1/2+x,1/2-y,1/2-z
1/2-x,y,1/2-z
1/2-x,1/2-y,1/2-z
1/2+x,y,1/2-z
1/2-x,1/2+y,1/2+z
1/2+x,-y,1/2+z
loop_
_atom_site_type_symbol
_atom_site_label
_atom_site_fract_x
_atom_site_fract_y
_atom_site_fract_z
Si Si1 0.403790 0.115443 0.414338
Si Si2 0.668920 0.113189 0.815498
Si Si3 0.660864 0.620483 0.383644
Si Si4 0.403445 0.383195 0.256804
Si Si5 0.000000 0.250000 0.843508
Si Si6 0.099198 0.883579 0.460795
O O1 0.500000 0.100461 0.433366
O O2 0.378256 0.250000 0.437057
O O3 0.398733 0.117798 0.335184
O O4 0.351209 0.995829 0.428737
O O5 0.651003 0.250000 0.788572
O O6 0.765182 0.105374 0.833088
O O7 0.624197 0.107048 0.885497
O O8 0.640531 0.997939 0.774749
O O9 0.678758 0.750000 0.418107
O O10 0.572983 0.646284 0.349675
O O11 0.500000 0.390699 0.239601
O O12 0.372012 0.250000 0.234174
O O13 0.126674 0.750000 0.485090
O O14 0.000000 0.885256 0.464657
O O15 0.131240 0.000000 0.500000
#
# Coordination Sequence:
#
# PCOD9537055 Si02
#       6
#    16  16  16  16   4  16
#     4   9  16  29  46  63  87 124 168 201 235 279
#     4  10  20  32  47  72  98 118 156 198 237 274
#     4   9  17  30  48  67  91 119 158 202 238 278
#     4   9  19  32  45  63  94 134 164 194 235 282
#     4   8  16  32  50  66  92 120 166 196 240 290
#     4   9  18  33  52  72  96 123 150 179 219 275
#
# _framework density 22.924686999999999
#
# number of rings (size 3 to 8) (size 9 to 14) (size 15 to 20)
#    0.571    2.286    0.952    1.714    0.000    4.190 
#    0.000    7.619    0.000    0.000    0.000    0.667 
#    0.000    0.000    0.000    0.000    0.000    0.000 
#
# Total GULP energy -233948.078010 kJ/mol
# GULP energy per Si atom -5570.192334 kJ/mol
# Density = 2.287251 g / cm^3
# Si number density = 22.924687 Si / 1000 Ang^3
#
#
#
# Elastic Constant Matrix: (Units=GPa)
#
#
# Indices 1 2 3 4 5 6 
#
# 1 62.4210 50.6556 17.7857 0.0000 0.0000 0.0000
# 2 50.6556 247.7564 64.6562 0.0000 0.0000 0.0000
# 3 17.7857 64.6562 65.0831 0.0000 0.0000 0.0000
# 4 0.0000 0.0000 0.0000 -30.2430 0.0000 0.0000
# 5 0.0000 0.0000 0.0000 0.0000 0.8553 0.0000
# 6 0.0000 0.0000 0.0000 0.0000 0.0000 22.0351
#
#
#
# Elastic Compliance Matrix: (Units=1/GPa)
#
#
# Indices 1 2 3 4 5 6 
#
# 1 0.019368 -0.003481 -0.001834 0.000000 0.000000 0.000000
# 2 -0.003481 0.006075 -0.005083 0.000000 0.000000 0.000000
# 3 -0.001834 -0.005083 0.020916 0.000000 0.000000 0.000000
# 4 0.000000 0.000000 0.000000 -0.033065 0.000000 0.000000
# 5 0.000000 0.000000 0.000000 0.000000 1.169246 0.000000
# 6 0.000000 0.000000 0.000000 0.000000 0.000000 0.045382
#
#
# Mechanical properties :
#
#
# Convention : Reuss Voigt Hill
#
# Bulk Modulus (GPa) = 39.12240 71.27280 55.19760
# Shear Modulus (GPa) = 3.97697 14.67367 9.32532
#
# Velocity S-wave (km/s) = 1.31855 2.53273 2.01907
# Velocity P-wave (km/s) = 4.40690 6.30162 5.43742
#
# Compressibility (1/GPa) = 0.02556080
#
# Stress axis : x y z
#
# Youngs Moduli (GPa) = 51.63161 164.62056 47.80954
#
# Poissons Ratio (x) = 0.57308 0.08770
# Poissons Ratio (y) = 0.17974 0.24303
# Poissons Ratio (z) = 0.09472 0.83683
#
# Static dielectric constant tensor:
#      x y z
#    x 1.821940 0.000000 0.000000 
#    y 0.000000 1.964230 0.000000 
#    z 0.000000 0.000000 1.873900 
# 
# From -- ./inp_files/59829.got.cif
#   From: 2010.05.17/outbox.cif.g08.bks.cpg/sg74_30_cif.got.tgz:59829.got - 2010.06.03 17:57:02.
