data_PCOD9537254
_publ_section_title
;
Structure prediction by ZEFSAII (Michael W. Deem and Ramdas Pophale) SiO2 
 PCOD9537254
Probable space group: I M M A
;
_chemical_formula_sum "Si O2"
_cell_formula_units_Z 80
_cell_length_a 28.472352
_cell_length_b 9.237782
_cell_length_c 17.737282
_cell_angle_alpha 90.000000
_cell_angle_beta 90.000000
_cell_angle_gamma 90.000000
_cell_volume 4665.284403
_symmetry_space_group_name_H-M "I M M A"
_symmetry_group_IT_number 74
_symmetry_cell_setting 'orthorhombic'
loop_
_space_group_symop_operation_xyz
x,y,z
-x,1/2-y,z
x,-y,-z
-x,1/2+y,-z
-x,-y,-z
x,1/2+y,-z
-x,y,z
x,1/2-y,z
1/2+x,1/2+y,1/2+z
1/2-x,-y,1/2+z
1/2+x,1/2-y,1/2-z
1/2-x,y,1/2-z
1/2-x,1/2-y,1/2-z
1/2+x,y,1/2-z
1/2-x,1/2+y,1/2+z
1/2+x,-y,1/2+z
loop_
_atom_site_type_symbol
_atom_site_label
_atom_site_fract_x
_atom_site_fract_y
_atom_site_fract_z
Si Si1 0.642071 0.921251 0.210132
Si Si2 0.445231 0.075398 0.256979
Si Si3 0.218299 0.077972 0.578555
Si Si4 0.288736 0.084446 0.316947
Si Si5 0.057025 0.414302 0.072622
O O1 0.638153 0.750000 0.223278
O O2 0.675289 0.942546 0.137279
O O3 0.591437 0.995549 0.203656
O O4 0.668266 0.999457 0.279729
O O5 0.500000 0.043559 0.242033
O O6 0.439788 0.250000 0.253860
O O7 0.434031 0.028130 0.343379
O O8 0.225437 0.250000 0.569299
O O9 0.208259 0.000000 0.500000
O O10 0.263803 0.003083 0.616288
O O11 0.300683 0.250000 0.337539
O O12 0.250000 0.090603 0.250000
O O13 0.074276 0.250000 0.069045
O O14 0.000000 0.409804 0.067630
O O15 0.074610 0.500000 0.000000
#
# Coordination Sequence:
#
# PCOD9537254 Si02
#       5
#    16  16  16  16  16
#     4  10  20  33  51  76 104 133 168 211 254 300
#     4   9  18  32  49  70  98 134 176 218 258 303
#     4  10  20  34  53  78 106 133 164 205 253 306
#     4   9  17  31  52  75  99 129 162 197 243 299
#     4   8  14  25  41  61  85 114 150 193 239 284
#
# _framework density 17.147936000000001
#
# number of rings (size 3 to 8) (size 9 to 14) (size 15 to 20)
#    0.000    2.800    0.000    3.000    0.000    6.000 
#    0.000    3.000    0.000    3.000    0.000    0.000 
#    0.000    0.000    0.000    0.000    0.000    0.000 
#
# Total GULP energy -222887.991131 kJ/mol
# GULP energy per Si atom -5572.199778 kJ/mol
# Density = 1.710891 g / cm^3
# Si number density = 17.147936 Si / 1000 Ang^3
#
#
#
# Elastic Constant Matrix: (Units=GPa)
#
#
# Indices 1 2 3 4 5 6 
#
# 1 89.0243 58.0001 37.6778 0.0000 0.0000 0.0000
# 2 58.0001 105.5086 61.4414 0.0000 0.0000 0.0000
# 3 37.6778 61.4414 69.4764 0.0000 0.0000 0.0000
# 4 0.0000 0.0000 0.0000 29.2838 0.0000 0.0000
# 5 0.0000 0.0000 0.0000 0.0000 13.6833 0.0000
# 6 0.0000 0.0000 0.0000 0.0000 0.0000 25.4457
#
#
#
# Elastic Compliance Matrix: (Units=1/GPa)
#
#
# Indices 1 2 3 4 5 6 
#
# 1 0.017640 -0.008508 -0.002043 0.000000 0.000000 0.000000
# 2 -0.008508 0.023645 -0.016296 0.000000 0.000000 0.000000
# 3 -0.002043 -0.016296 0.029913 0.000000 0.000000 0.000000
# 4 0.000000 0.000000 0.000000 0.034149 0.000000 0.000000
# 5 0.000000 0.000000 0.000000 0.000000 0.073082 0.000000
# 6 0.000000 0.000000 0.000000 0.000000 0.000000 0.039299
#
#
# Mechanical properties :
#
#
# Convention : Reuss Voigt Hill
#
# Bulk Modulus (GPa) = 57.12904 64.24979 60.68942
# Shear Modulus (GPa) = 18.03390 20.80857 19.42123
#
# Velocity S-wave (km/s) = 3.24646 3.48727 3.36902
# Velocity P-wave (km/s) = 6.88770 7.33240 7.11352
#
# Compressibility (1/GPa) = 0.01750423
#
# Stress axis : x y z
#
# Youngs Moduli (GPa) = 56.68859 42.29294 33.43041
#
# Poissons Ratio (x) = 0.35981 0.06829
# Poissons Ratio (y) = 0.48228 0.54479
# Poissons Ratio (z) = 0.11581 0.68922
#
# Static dielectric constant tensor:
#      x y z
#    x 1.591090 0.000000 0.000000 
#    y 0.000000 1.579070 0.000000 
#    z 0.000000 0.000000 1.577640 
# 
# From -- ./inp_files/39722.got.cif
#   From: 2010.05.17/outbox.cif.g08.bks.cpg/sg74_20_cif.got.tgz:39722.got - 2010.06.03 17:57:02.
