data_PCOD9537405
_publ_section_title
;
Structure prediction by ZEFSAII (Michael W. Deem and Ramdas Pophale) SiO2 
 PCOD9537405
Probable space group: I M M A
;
_chemical_formula_sum "Si O2"
_cell_formula_units_Z 80
_cell_length_a 7.975381
_cell_length_b 25.906154
_cell_length_c 21.382094
_cell_angle_alpha 90.000000
_cell_angle_beta 90.000000
_cell_angle_gamma 90.000000
_cell_volume 4417.785411
_symmetry_space_group_name_H-M "I M M A"
_symmetry_group_IT_number 74
_symmetry_cell_setting 'orthorhombic'
loop_
_space_group_symop_operation_xyz
x,y,z
-x,1/2-y,z
x,-y,-z
-x,1/2+y,-z
-x,-y,-z
x,1/2+y,-z
-x,y,z
x,1/2-y,z
1/2+x,1/2+y,1/2+z
1/2-x,-y,1/2+z
1/2+x,1/2-y,1/2-z
1/2-x,y,1/2-z
1/2-x,1/2-y,1/2-z
1/2+x,y,1/2-z
1/2-x,1/2+y,1/2+z
1/2+x,-y,1/2+z
loop_
_atom_site_type_symbol
_atom_site_label
_atom_site_fract_x
_atom_site_fract_y
_atom_site_fract_z
Si Si1 0.701893 0.861579 0.137626
Si Si2 0.699357 0.527930 0.317715
Si Si3 0.201748 0.968593 0.939529
Si Si4 0.702993 0.638155 0.993507
Si Si5 0.194586 0.250000 0.646229
Si Si6 0.695315 0.750000 0.993675
O O1 0.500000 0.856630 0.135582
O O2 0.744977 0.912712 0.175012
O O3 0.768254 0.806217 0.162803
O O4 0.759632 0.870120 0.065635
O O5 0.500000 0.527518 0.321519
O O6 0.750000 0.507726 0.250000
O O7 0.766732 0.494572 0.375971
O O8 0.244492 0.909060 0.950556
O O9 0.000000 0.973101 0.939188
O O10 0.265828 0.000000 0.000000
O O11 0.500000 0.639994 0.994926
O O12 0.767227 0.694867 0.973825
O O13 0.195754 0.250000 0.569884
O O14 0.000000 0.250000 0.667091
O O15 0.500000 0.750000 0.974631
#
# Coordination Sequence:
#
# PCOD9537405 Si02
#       6
#    16  16  16  16   8   8
#     4   9  16  29  49  72  97 127 164 202 240 283
#     4  11  23  37  51  68  96 131 164 204 248 292
#     4  10  20  34  50  71 101 130 159 201 251 292
#     4   9  16  27  49  76 101 129 162 198 235 286
#     4   7  12  24  44  68  95 126 159 199 240 276
#     4   7  12  24  41  70 105 128 151 193 243 278
#
# _framework density 18.108619999999998
#
# number of rings (size 3 to 8) (size 9 to 14) (size 15 to 20)
#    0.000    2.800    2.000    3.000    0.000    2.000 
#    0.000    1.500    0.000    3.600    0.000    0.700 
#    0.000    0.000    0.000    0.000    0.000    0.000 
#
# Total GULP energy -222888.697263 kJ/mol
# GULP energy per Si atom -5572.217432 kJ/mol
# Density = 1.806740 g / cm^3
# Si number density = 18.108620 Si / 1000 Ang^3
#
#
#
# Elastic Constant Matrix: (Units=GPa)
#
#
# Indices 1 2 3 4 5 6 
#
# 1 15.6159 1.1965 7.8502 0.0000 0.0000 0.0000
# 2 1.1965 134.1427 60.7908 0.0000 0.0000 0.0000
# 3 7.8502 60.7908 95.1406 0.0000 0.0000 0.0000
# 4 0.0000 0.0000 0.0000 14.4686 0.0000 0.0000
# 5 0.0000 0.0000 0.0000 0.0000 14.0285 0.0000
# 6 0.0000 0.0000 0.0000 0.0000 0.0000 43.5433
#
#
#
# Elastic Compliance Matrix: (Units=1/GPa)
#
#
# Indices 1 2 3 4 5 6 
#
# 1 0.067499 0.002705 -0.007298 0.000000 0.000000 0.000000
# 2 0.002705 0.010602 -0.006997 0.000000 0.000000 0.000000
# 3 -0.007298 -0.006997 0.015584 0.000000 0.000000 0.000000
# 4 0.000000 0.000000 0.000000 0.069115 0.000000 0.000000
# 5 0.000000 0.000000 0.000000 0.000000 0.071284 0.000000
# 6 0.000000 0.000000 0.000000 0.000000 0.000000 0.022966
#
#
# Mechanical properties :
#
#
# Convention : Reuss Voigt Hill
#
# Bulk Modulus (GPa) = 14.18354 42.73049 28.45701
# Shear Modulus (GPa) = 16.46199 26.07884 21.27041
#
# Velocity S-wave (km/s) = 3.01835 3.79903 3.43096
# Velocity P-wave (km/s) = 4.47177 6.54916 5.60750
#
# Compressibility (1/GPa) = 0.07050428
#
# Stress axis : x y z
#
# Youngs Moduli (GPa) = 14.81510 94.32533 64.16904
#
# Poissons Ratio (x) = -0.25517 0.46831
# Poissons Ratio (y) = -0.04008 0.44900
# Poissons Ratio (z) = 0.10812 0.66001
#
# Static dielectric constant tensor:
#      x y z
#    x 1.648910 0.000000 0.000000 
#    y 0.000000 1.667000 0.000000 
#    z 0.000000 0.000000 1.528950 
# 
# From -- ./inp_files/39810.got.cif
#   From: 2010.05.17/outbox.cif.g08.bks.cpg/sg74_20_cif.got.tgz:39810.got - 2010.06.03 17:57:02.
