data_PCOD9537984
_publ_section_title
;
Structure prediction by ZEFSAII (Michael W. Deem and Ramdas Pophale) SiO2 
 PCOD9537984
Probable space group: I M M A
;
_chemical_formula_sum "Si O2"
_cell_formula_units_Z 96
_cell_length_a 14.570165
_cell_length_b 18.054129
_cell_length_c 15.756423
_cell_angle_alpha 90.000000
_cell_angle_beta 90.000000
_cell_angle_gamma 90.000000
_cell_volume 4144.752886
_symmetry_space_group_name_H-M "I M M A"
_symmetry_group_IT_number 74
_symmetry_cell_setting 'orthorhombic'
loop_
_space_group_symop_operation_xyz
x,y,z
-x,1/2-y,z
x,-y,-z
-x,1/2+y,-z
-x,-y,-z
x,1/2+y,-z
-x,y,z
x,1/2-y,z
1/2+x,1/2+y,1/2+z
1/2-x,-y,1/2+z
1/2+x,1/2-y,1/2-z
1/2-x,y,1/2-z
1/2-x,1/2-y,1/2-z
1/2+x,y,1/2-z
1/2-x,1/2+y,1/2+z
1/2+x,-y,1/2+z
loop_
_atom_site_type_symbol
_atom_site_label
_atom_site_fract_x
_atom_site_fract_y
_atom_site_fract_z
Si Si1 0.388171 0.940565 0.833278
Si Si2 0.393534 0.332542 0.020063
Si Si3 0.888141 0.833946 0.823222
Si Si4 0.104975 0.579870 0.986980
Si Si5 0.861866 0.336417 0.841600
Si Si6 0.152758 0.610152 0.337492
O O1 0.500000 0.951256 0.835074
O O2 0.357339 0.893622 0.915064
O O3 0.364790 0.891318 0.751177
O O4 0.344314 0.021506 0.833267
O O5 0.500000 0.325093 0.045293
O O6 0.351604 0.250000 0.025117
O O7 0.391378 0.362500 0.924583
O O8 0.854608 0.750000 0.809469
O O9 0.000000 0.829434 0.823396
O O10 0.857232 0.867202 0.913558
O O11 0.102414 0.619908 0.077198
O O12 0.000000 0.564802 0.958350
O O13 0.151394 0.500000 0.000000
O O14 0.879554 0.250000 0.851724
O O15 0.894392 0.362903 0.749237
O O16 0.753399 0.353806 0.840590
#
# Coordination Sequence:
#
# PCOD9537984 Si02
#       6
#    16  16  16  16  16  16
#     4  10  20  35  57  85 115 147 186 230 275 328
#     4  10  20  35  57  85 115 147 185 229 276 328
#     4   9  17  32  55  83 116 150 182 223 278 335
#     4  10  21  37  59  89 118 144 181 228 278 334
#     4  11  24  41  59  80 110 149 190 231 278 332
#     4  11  22  38  56  78 110 149 190 234 281 327
#
# _framework density 23.161816000000002
#
# number of rings (size 3 to 8) (size 9 to 14) (size 15 to 20)
#    0.000    1.833    0.000    5.000    0.000    8.333 
#    0.000    0.000    0.000    0.000    0.000    9.333 
#    0.000    0.000    0.000    0.000    0.000    0.000 
#
# Total GULP energy -268434.536090 kJ/mol
# GULP energy per Si atom -5592.386169 kJ/mol
# Density = 2.310910 g / cm^3
# Si number density = 23.161816 Si / 1000 Ang^3
#
#
#
# Elastic Constant Matrix: (Units=GPa)
#
#
# Indices 1 2 3 4 5 6 
#
# 1 51.8517 -14.2601 -13.9219 0.0000 0.0000 0.0000
# 2 -14.2601 202.5374 59.1918 0.0001 0.0000 0.0000
# 3 -13.9219 59.1918 126.6248 0.0001 0.0000 0.0000
# 4 0.0000 0.0001 0.0001 40.4766 0.0000 0.0000
# 5 0.0000 0.0000 0.0000 0.0000 22.0364 0.0000
# 6 0.0000 0.0000 0.0000 0.0000 0.0000 56.0458
#
#
#
# Elastic Compliance Matrix: (Units=1/GPa)
#
#
# Indices 1 2 3 4 5 6 
#
# 1 0.020009 0.000887 0.001785 0.000000 0.000000 0.000000
# 2 0.000887 0.005758 -0.002594 0.000000 0.000000 0.000000
# 3 0.001785 -0.002594 0.009306 0.000000 0.000000 0.000000
# 4 0.000000 0.000000 0.000000 0.024706 0.000000 0.000000
# 5 0.000000 0.000000 0.000000 0.000000 0.045380 0.000000
# 6 0.000000 0.000000 0.000000 0.000000 0.000000 0.017843
#
#
# Mechanical properties :
#
#
# Convention : Reuss Voigt Hill
#
# Bulk Modulus (GPa) = 28.38516 49.22596 38.80556
# Shear Modulus (GPa) = 37.15051 47.04538 42.09794
#
# Velocity S-wave (km/s) = 4.00929 4.51173 4.26791
# Velocity P-wave (km/s) = 5.80640 6.95990 6.40915
#
# Compressibility (1/GPa) = 0.03522967
#
# Stress axis : x y z
#
# Youngs Moduli (GPa) = 49.97742 173.67344 107.45467
#
# Poissons Ratio (x) = -0.15406 -0.19183
# Poissons Ratio (y) = -0.04433 0.27874
# Poissons Ratio (z) = -0.08922 0.45052
#
# Static dielectric constant tensor:
#      x y z
#    x 1.961170 0.000000 0.000000 
#    y 0.000000 1.831080 0.000000 
#    z 0.000000 0.000000 1.836120 
# 
# From -- ./inp_files/35264.got.cif
#   From: 2010.05.17/outbox.cif.g08.bks.cpg/sg74_18_cif.got.tgz:35264.got - 2010.06.03 17:57:02.
