data_PCOD9537040
_publ_section_title
;
Structure prediction by ZEFSAII (Michael W. Deem and Ramdas Pophale) SiO2 
 PCOD9537040
Probable space group: I M M A
;
_chemical_formula_sum "Si O2"
_cell_formula_units_Z 96
_cell_length_a 17.154487
_cell_length_b 19.134721
_cell_length_c 18.155278
_cell_angle_alpha 90.000000
_cell_angle_beta 90.000000
_cell_angle_gamma 90.000000
_cell_volume 5959.403240
_symmetry_space_group_name_H-M "I M M A"
_symmetry_group_IT_number 74
_symmetry_cell_setting 'orthorhombic'
loop_
_space_group_symop_operation_xyz
x,y,z
-x,1/2-y,z
x,-y,-z
-x,1/2+y,-z
-x,-y,-z
x,1/2+y,-z
-x,y,z
x,1/2-y,z
1/2+x,1/2+y,1/2+z
1/2-x,-y,1/2+z
1/2+x,1/2-y,1/2-z
1/2-x,y,1/2-z
1/2-x,1/2-y,1/2-z
1/2+x,y,1/2-z
1/2-x,1/2+y,1/2+z
1/2+x,-y,1/2+z
loop_
_atom_site_type_symbol
_atom_site_label
_atom_site_fract_x
_atom_site_fract_y
_atom_site_fract_z
Si Si1 0.908784 0.058566 0.687427
Si Si2 0.246353 0.330515 0.054605
Si Si3 0.335691 0.914578 0.346280
Si Si4 0.729128 0.454154 0.165110
Si Si5 0.311614 0.831672 0.110045
Si Si6 0.411329 0.331002 0.525181
O O1 0.880835 0.079445 0.769655
O O2 0.884661 0.122432 0.634515
O O3 0.000000 0.043548 0.685568
O O4 0.853533 0.994058 0.664532
O O5 0.259989 0.250000 0.076568
O O6 0.271102 0.386681 0.114300
O O7 0.288618 0.341886 0.975720
O O8 0.154379 0.339415 0.036766
O O9 0.262663 0.861072 0.344490
O O10 0.390778 0.884934 0.410117
O O11 0.293943 0.989064 0.361497
O O12 0.750000 0.438033 0.250000
O O13 0.322590 0.750000 0.123230
O O14 0.500000 0.339798 0.500060
O O15 0.402598 0.250000 0.552154
#
# Coordination Sequence:
#
# PCOD9537040 Si02
#       6
#    16  16  16  16  16  16
#     4  10  20  32  47  69  98 129 161 201 238 268
#     4   9  18  34  53  70  92 123 158 197 240 287
#     4   9  17  30  48  70  99 132 160 185 224 283
#     4   9  19  35  52  70  92 120 158 200 240 288
#     4   9  18  31  47  70  99 130 162 193 227 275
#     4   9  17  29  47  75 107 131 152 184 228 279
#
# _framework density 16.108995
#
# number of rings (size 3 to 8) (size 9 to 14) (size 15 to 20)
#    0.000    2.833    0.000    3.500    0.000    8.667 
#    0.000    6.667    0.000    1.500    0.000    0.000 
#    0.000    0.000    0.000    0.000    0.000    0.000 
#
# Total GULP energy -267458.519274 kJ/mol
# GULP energy per Si atom -5572.052485 kJ/mol
# Density = 1.607233 g / cm^3
# Si number density = 16.108995 Si / 1000 Ang^3
#
#
#
# Elastic Constant Matrix: (Units=GPa)
#
#
# Indices 1 2 3 4 5 6 
#
# 1 96.4129 53.8877 37.4527 0.0000 0.0000 0.0000
# 2 53.8877 120.8589 72.4292 0.0000 0.0000 0.0000
# 3 37.4527 72.4292 49.1117 0.0000 0.0000 0.0000
# 4 0.0000 0.0000 0.0000 -367.8281 0.0000 0.0001
# 5 0.0000 0.0000 0.0000 0.0000 9.1591 0.0000
# 6 0.0000 0.0000 0.0000 0.0001 0.0000 13.0339
#
#
#
# Elastic Compliance Matrix: (Units=1/GPa)
#
#
# Indices 1 2 3 4 5 6 
#
# 1 0.014766 0.001417 -0.013350 0.000000 0.000000 0.000000
# 2 0.001417 0.071354 -0.106312 0.000000 0.000000 0.000000
# 3 -0.013350 -0.106312 0.187330 0.000000 0.000000 0.000000
# 4 0.000000 0.000000 0.000000 -0.002719 0.000000 0.000000
# 5 0.000000 0.000000 0.000000 0.000000 0.109181 0.000000
# 6 0.000000 0.000000 0.000000 0.000000 0.000000 0.076723
#
#
# Mechanical properties :
#
#
# Convention : Reuss Voigt Hill
#
# Bulk Modulus (GPa) = 27.05682 65.99142 46.52412
# Shear Modulus (GPa) = 7.08772 -62.28610 -27.59919
#
# Velocity S-wave (km/s) = 2.09986 -6.22490 -4.14367
# Velocity P-wave (km/s) = 4.76569 3.25750 2.45972
#
# Compressibility (1/GPa) = 0.03695926
#
# Stress axis : x y z
#
# Youngs Moduli (GPa) = 67.72222 14.01465 5.33819
#
# Poissons Ratio (x) = -0.01985 0.07126
# Poissons Ratio (y) = -0.09593 0.56751
# Poissons Ratio (z) = 0.90408 1.48992
#
# Static dielectric constant tensor:
#      x y z
#    x 1.542580 0.000000 0.000000 
#    y 0.000000 1.536770 0.000000 
#    z 0.000000 0.000000 1.528730 
# 
# From -- ./inp_files/32402.got.cif
#   From: 2010.05.17/outbox.cif.g08.bks.cpg/sg74_17_cif.got.tgz:32402.got - 2010.06.03 17:57:02.
