data_PCOD9537146
_publ_section_title
;
Structure prediction by ZEFSAII (Michael W. Deem and Ramdas Pophale) SiO2 
 PCOD9537146
Probable space group: I M M A
;
_chemical_formula_sum "Si O2"
_cell_formula_units_Z 88
_cell_length_a 7.697707
_cell_length_b 23.044560
_cell_length_c 23.467877
_cell_angle_alpha 90.000000
_cell_angle_beta 90.000000
_cell_angle_gamma 90.000000
_cell_volume 4162.973057
_symmetry_space_group_name_H-M "I M M A"
_symmetry_group_IT_number 74
_symmetry_cell_setting 'orthorhombic'
loop_
_space_group_symop_operation_xyz
x,y,z
-x,1/2-y,z
x,-y,-z
-x,1/2+y,-z
-x,-y,-z
x,1/2+y,-z
-x,y,z
x,1/2-y,z
1/2+x,1/2+y,1/2+z
1/2-x,-y,1/2+z
1/2+x,1/2-y,1/2-z
1/2-x,y,1/2-z
1/2-x,1/2-y,1/2-z
1/2+x,y,1/2-z
1/2-x,1/2+y,1/2+z
1/2+x,-y,1/2+z
loop_
_atom_site_type_symbol
_atom_site_label
_atom_site_fract_x
_atom_site_fract_y
_atom_site_fract_z
Si Si1 0.708524 0.008977 0.686598
Si Si2 0.211452 0.909712 0.899699
Si Si3 0.794323 0.374067 0.862811
Si Si4 0.208162 0.684852 0.811985
Si Si5 0.199947 0.062048 0.521165
Si Si6 0.209618 0.250000 0.817723
O O1 0.500000 0.010145 0.681984
O O2 0.750000 0.987835 0.750000
O O3 0.777382 0.074151 0.677017
O O4 0.767606 0.967305 0.635132
O O5 0.270400 0.856468 0.861211
O O6 0.000000 0.910590 0.903129
O O7 0.285255 0.903499 0.962412
O O8 0.774293 0.400832 0.926497
O O9 0.725205 0.309872 0.847652
O O10 0.000000 0.370425 0.852120
O O11 0.279122 0.750000 0.814828
O O12 0.250000 0.660296 0.750000
O O13 0.000000 0.687684 0.816513
O O14 0.000000 0.050418 0.536307
O O15 0.280575 0.000000 0.500000
O O16 0.250000 0.250000 0.750000
O O17 0.000000 0.250000 0.823307
#
# Coordination Sequence:
#
# PCOD9537146 Si02
#       6
#    16  16  16  16  16   8
#     4  10  20  32  52  81 110 142 180 225 279 334
#     4  10  20  35  55  78 108 147 186 225 276 339
#     4  10  21  39  60  83 114 153 193 231 283 347
#     4   9  18  33  53  78 108 142 179 219 266 321
#     4  11  23  38  58  84 111 144 187 236 287 336
#     4  10  22  40  64  92 120 156 199 242 293 352
#
# _framework density 21.138739000000001
#
# number of rings (size 3 to 8) (size 9 to 14) (size 15 to 20)
#    0.000    2.000    1.818    1.636    0.000    3.636 
#    1.636    0.000    0.000    0.000    0.000    0.000 
#    0.000    0.000    0.000    0.000    0.000    0.000 
#
# Total GULP energy -245479.242327 kJ/mol
# GULP energy per Si atom -5579.073689 kJ/mol
# Density = 2.109063 g / cm^3
# Si number density = 21.138739 Si / 1000 Ang^3
#
#
#
# Elastic Constant Matrix: (Units=GPa)
#
#
# Indices 1 2 3 4 5 6 
#
# 1 35.3907 6.5171 -12.9107 0.0000 0.0000 0.0000
# 2 6.5171 116.8691 50.9808 0.0000 0.0000 0.0000
# 3 -12.9107 50.9808 119.6650 0.0000 0.0000 0.0000
# 4 0.0000 0.0000 0.0000 63.2759 0.0000 0.0000
# 5 0.0000 0.0000 0.0000 0.0000 28.0513 0.0000
# 6 0.0000 0.0000 0.0000 0.0000 0.0000 -5.5863
#
#
#
# Elastic Compliance Matrix: (Units=1/GPa)
#
#
# Indices 1 2 3 4 5 6 
#
# 1 0.030788 -0.003889 0.004978 0.000000 0.000000 0.000000
# 2 -0.003889 0.011001 -0.005106 0.000000 0.000000 0.000000
# 3 0.004978 -0.005106 0.011069 0.000000 0.000000 0.000000
# 4 0.000000 0.000000 0.000000 0.015804 0.000000 0.000000
# 5 0.000000 0.000000 0.000000 0.000000 0.035649 0.000000
# 6 0.000000 0.000000 0.000000 0.000000 0.000000 -0.179009
#
#
# Mechanical properties :
#
#
# Convention : Reuss Voigt Hill
#
# Bulk Modulus (GPa) = 22.30873 40.12214 31.21544
# Shear Modulus (GPa) = -96.66754 32.30403 -32.18175
#
# Velocity S-wave (km/s) = -6.76974 3.91345 -3.90604
# Velocity P-wave (km/s) = 7.10840 6.28026 2.35453
#
# Compressibility (1/GPa) = 0.04482549
#
# Stress axis : x y z
#
# Youngs Moduli (GPa) = 32.47993 90.90191 90.34088
#
# Poissons Ratio (x) = 0.35348 -0.44975
# Poissons Ratio (y) = 0.12630 0.46130
# Poissons Ratio (z) = -0.16170 0.46417
#
# Static dielectric constant tensor:
#      x y z
#    x 1.784290 0.000000 0.000000 
#    y 0.000000 1.820740 0.000000 
#    z 0.000000 0.000000 1.737600 
# 
# From -- ./inp_files/48695.got.cif
#   From: 2010.05.17/outbox.cif.g08.bks.cpg/sg74_25_cif.got.tgz:48695.got - 2010.06.03 17:57:02.
