data_PCOD9537552
_publ_section_title
;
Structure prediction by ZEFSAII (Michael W. Deem and Ramdas Pophale) SiO2 
 PCOD9537552
Probable space group: I M M A
;
_chemical_formula_sum "Si O2"
_cell_formula_units_Z 96
_cell_length_a 17.686899
_cell_length_b 27.393435
_cell_length_c 9.413559
_cell_angle_alpha 90.000000
_cell_angle_beta 90.000000
_cell_angle_gamma 90.000000
_cell_volume 4560.915632
_symmetry_space_group_name_H-M "I M M A"
_symmetry_group_IT_number 74
_symmetry_cell_setting 'orthorhombic'
loop_
_space_group_symop_operation_xyz
x,y,z
-x,1/2-y,z
x,-y,-z
-x,1/2+y,-z
-x,-y,-z
x,1/2+y,-z
-x,y,z
x,1/2-y,z
1/2+x,1/2+y,1/2+z
1/2-x,-y,1/2+z
1/2+x,1/2-y,1/2-z
1/2-x,y,1/2-z
1/2-x,1/2-y,1/2-z
1/2+x,y,1/2-z
1/2-x,1/2+y,1/2+z
1/2+x,-y,1/2+z
loop_
_atom_site_type_symbol
_atom_site_label
_atom_site_fract_x
_atom_site_fract_y
_atom_site_fract_z
Si Si1 0.585173 0.380388 0.521339
Si Si2 0.412527 0.401437 0.829877
Si Si3 0.735598 0.847528 0.590639
Si Si4 0.312240 0.547422 0.929897
Si Si5 0.413768 0.025896 0.346446
Si Si6 0.176854 0.694430 0.344582
O O1 0.500000 0.360475 0.544761
O O2 0.605214 0.411562 0.663998
O O3 0.652316 0.344122 0.478473
O O4 0.581280 0.417550 0.391344
O O5 0.500000 0.407651 0.855662
O O6 0.389032 0.344630 0.831243
O O7 0.369630 0.431954 0.949607
O O8 0.750000 0.832555 0.750000
O O9 0.758431 0.905466 0.586730
O O10 0.791672 0.814506 0.500596
O O11 0.355197 0.528342 0.786671
O O12 0.274101 0.500000 0.000000
O O13 0.500000 0.010137 0.302790
O O14 0.398414 0.000000 0.500000
O O15 0.156563 0.750000 0.313695
O O16 0.250000 0.680225 0.250000
#
# Coordination Sequence:
#
# PCOD9537552 Si02
#       6
#    16  16  16  16  16  16
#     4  10  20  37  58  82 115 156 201 248 302 361
#     4  10  21  38  63  91 122 162 203 254 306 361
#     4  11  22  41  60  88 119 159 205 249 305 363
#     4  11  23  37  56  88 122 163 206 259 298 359
#     4  10  20  34  53  79 116 161 205 248 296 355
#     4  10  21  39  64  91 121 155 195 249 307 369
#
# _framework density 21.048406
#
# number of rings (size 3 to 8) (size 9 to 14) (size 15 to 20)
#    0.000    1.667    3.333    1.500    0.000    4.000 
#    3.000    0.000    0.000    0.500    0.000    0.000 
#    0.000    0.000    0.000    0.000    0.000    0.000 
#
# Total GULP energy -267515.317662 kJ/mol
# GULP energy per Si atom -5573.235785 kJ/mol
# Density = 2.100050 g / cm^3
# Si number density = 21.048406 Si / 1000 Ang^3
#
#
#
# Elastic Constant Matrix: (Units=GPa)
#
#
# Indices 1 2 3 4 5 6 
#
# 1 72.8084 4.1364 29.7067 0.0000 0.0000 0.0000
# 2 4.1364 29.0726 -10.9441 0.0000 0.0000 0.0000
# 3 29.7067 -10.9441 112.2646 0.0000 -0.0002 0.0000
# 4 0.0000 0.0000 0.0000 1.5255 0.0000 0.0000
# 5 0.0000 0.0000 -0.0002 0.0000 28.7215 0.0000
# 6 0.0000 0.0000 0.0000 0.0000 0.0000 9.0678
#
#
#
# Elastic Compliance Matrix: (Units=1/GPa)
#
#
# Indices 1 2 3 4 5 6 
#
# 1 0.015827 -0.003974 -0.004576 0.000000 0.000000 0.000000
# 2 -0.003974 0.036705 0.004630 -0.000001 0.000000 0.000000
# 3 -0.004576 0.004630 0.010570 0.000000 0.000000 0.000000
# 4 0.000000 -0.000001 0.000000 0.655524 0.000000 0.000000
# 5 0.000000 0.000000 0.000000 0.000000 0.034817 0.000000
# 6 0.000000 0.000000 0.000000 0.000000 0.000000 0.110280
#
#
# Mechanical properties :
#
#
# Convention : Reuss Voigt Hill
#
# Bulk Modulus (GPa) = 18.09569 28.88265 23.48917
# Shear Modulus (GPa) = 5.61808 20.61275 13.11542
#
# Velocity S-wave (km/s) = 1.63552 3.13278 2.49892
# Velocity P-wave (km/s) = 3.49033 5.18049 4.41701
#
# Compressibility (1/GPa) = 0.05526178
#
# Stress axis : x y z
#
# Youngs Moduli (GPa) = 63.18177 27.24430 94.61078
#
# Poissons Ratio (x) = 0.10828 0.43290
# Poissons Ratio (y) = 0.25110 -0.43803
# Poissons Ratio (z) = 0.28909 -0.12614
#
# Static dielectric constant tensor:
#      x y z
#    x 1.794960 0.000000 0.000000 
#    y 0.000000 1.812150 0.000000 
#    z 0.000000 0.000000 1.721370 
# 
# From -- ./inp_files/12646.got.cif
#   From: 2010.05.17/outbox.cif.g08.bks.cpg/sg74_7_cif.got.tgz:12646.got - 2010.06.03 17:57:02.
