data_PCOD9537610
_publ_section_title
;
Structure prediction by ZEFSAII (Michael W. Deem and Ramdas Pophale) SiO2 
 PCOD9537610
Probable space group: I M M A
;
_chemical_formula_sum "Si O2"
_cell_formula_units_Z 88
_cell_length_a 7.864156
_cell_length_b 17.083630
_cell_length_c 31.465061
_cell_angle_alpha 90.000000
_cell_angle_beta 90.000000
_cell_angle_gamma 90.000000
_cell_volume 4227.278442
_symmetry_space_group_name_H-M "I M M A"
_symmetry_group_IT_number 74
_symmetry_cell_setting 'orthorhombic'
loop_
_space_group_symop_operation_xyz
x,y,z
-x,1/2-y,z
x,-y,-z
-x,1/2+y,-z
-x,-y,-z
x,1/2+y,-z
-x,y,z
x,1/2-y,z
1/2+x,1/2+y,1/2+z
1/2-x,-y,1/2+z
1/2+x,1/2-y,1/2-z
1/2-x,y,1/2-z
1/2-x,1/2-y,1/2-z
1/2+x,y,1/2-z
1/2-x,1/2+y,1/2+z
1/2+x,-y,1/2+z
loop_
_atom_site_type_symbol
_atom_site_label
_atom_site_fract_x
_atom_site_fract_y
_atom_site_fract_z
Si Si1 0.798925 0.433358 0.125025
Si Si2 0.204761 0.339104 0.204678
Si Si3 0.807228 0.343312 0.950367
Si Si4 0.294163 0.250000 0.800076
Si Si5 0.791655 0.341537 0.042994
Si Si6 0.804550 0.608705 0.359480
O O1 0.726595 0.384658 0.164356
O O2 0.732705 0.399400 0.080313
O O3 0.777939 0.523876 0.136240
O O4 0.000000 0.417423 0.123067
O O5 0.268824 0.250000 0.204188
O O6 0.250000 0.375524 0.250000
O O7 0.000000 0.336800 0.202161
O O8 0.820203 0.250000 0.955047
O O9 0.707148 0.358611 0.907413
O O10 0.000000 0.375231 0.944673
O O11 0.735877 0.369201 0.996006
O O12 0.500000 0.250000 0.803483
O O13 0.250000 0.250000 0.750000
O O14 0.232959 0.172861 0.826202
O O15 0.743276 0.250000 0.050829
O O16 0.000000 0.341813 0.041118
O O17 0.000000 0.596271 0.347556
#
# Coordination Sequence:
#
# PCOD9537610 Si02
#       6
#    16  16  16   8  16  16
#     4  10  20  34  54  81 111 143 182 225 268 316
#     4   9  18  33  54  78 105 141 180 217 263 318
#     4   9  17  32  57  83 105 138 184 226 265 316
#     4  10  24  44  64  82 102 136 180 230 283 334
#     4   8  15  30  54  83 112 143 183 229 267 304
#     4  11  23  39  56  78 110 143 175 217 277 333
#
# _framework density 20.817176
#
# number of rings (size 3 to 8) (size 9 to 14) (size 15 to 20)
#    0.000    2.545    0.909    2.182    0.000    5.818 
#    0.000    8.182    0.000    2.727    0.000    0.000 
#    0.000    0.000    0.000    0.000    0.000    0.000 
#
# Total GULP energy -245260.611623 kJ/mol
# GULP energy per Si atom -5574.104810 kJ/mol
# Density = 2.076980 g / cm^3
# Si number density = 20.817176 Si / 1000 Ang^3
#
#
#
# Elastic Constant Matrix: (Units=GPa)
#
#
# Indices 1 2 3 4 5 6 
#
# 1 17.5881 -7.1172 -1.6484 0.0000 0.0000 0.0000
# 2 -7.1172 72.7255 71.4606 0.0000 0.0000 0.0000
# 3 -1.6484 71.4606 185.2245 0.0000 0.0000 0.0000
# 4 0.0000 0.0000 0.0000 15.7439 0.0000 0.0000
# 5 0.0000 0.0000 0.0000 0.0000 19.8981 0.0000
# 6 0.0000 0.0000 0.0000 0.0000 0.0000 -0.6127
#
#
#
# Elastic Compliance Matrix: (Units=1/GPa)
#
#
# Indices 1 2 3 4 5 6 
#
# 1 0.060085 0.008624 -0.002792 0.000000 0.000000 0.000000
# 2 0.008624 0.023383 -0.008945 0.000000 0.000000 0.000000
# 3 -0.002792 -0.008945 0.008825 0.000000 0.000000 0.000000
# 4 0.000000 0.000000 0.000000 0.063516 0.000000 0.000000
# 5 0.000000 0.000000 0.000000 0.000000 0.050256 0.000000
# 6 0.000000 0.000000 0.000000 0.000000 0.000000 -1.632056
#
#
# Mechanical properties :
#
#
# Convention : Reuss Voigt Hill
#
# Bulk Modulus (GPa) = 11.61890 44.54759 28.08324
# Shear Modulus (GPa) = -3.59434 21.19541 8.80053
#
# Velocity S-wave (km/s) = -1.31544 3.19434 2.05833
# Velocity P-wave (km/s) = 1.81283 5.92038 4.37820
#
# Compressibility (1/GPa) = 0.08606667
#
# Stress axis : x y z
#
# Youngs Moduli (GPa) = 16.64317 42.76534 113.31550
#
# Poissons Ratio (x) = -0.36881 0.31643
# Poissons Ratio (y) = -0.14353 1.01357
# Poissons Ratio (z) = 0.04648 0.38252
#
# Static dielectric constant tensor:
#      x y z
#    x 1.693390 0.000000 0.000000 
#    y 0.000000 1.750570 0.000000 
#    z 0.000000 0.000000 1.775350 
# 
# From -- ./inp_files/70262.got.cif
#   From: 2010.05.17/outbox.cif.g08.bks.cpg/sg74_36_cif.got.tgz:70262.got - 2010.06.03 17:57:02.
