data_PCOD9537302
_publ_section_title
;
Structure prediction by ZEFSAII (Michael W. Deem and Ramdas Pophale) SiO2 
 PCOD9537302
Probable space group: I M M A
;
_chemical_formula_sum "Si O2"
_cell_formula_units_Z 64
_cell_length_a 17.119220
_cell_length_b 14.312818
_cell_length_c 11.695690
_cell_angle_alpha 90.000000
_cell_angle_beta 90.000000
_cell_angle_gamma 90.000000
_cell_volume 2865.728023
_symmetry_space_group_name_H-M "I M M A"
_symmetry_group_IT_number 74
_symmetry_cell_setting 'orthorhombic'
loop_
_space_group_symop_operation_xyz
x,y,z
-x,1/2-y,z
x,-y,-z
-x,1/2+y,-z
-x,-y,-z
x,1/2+y,-z
-x,y,z
x,1/2-y,z
1/2+x,1/2+y,1/2+z
1/2-x,-y,1/2+z
1/2+x,1/2-y,1/2-z
1/2-x,y,1/2-z
1/2-x,1/2-y,1/2-z
1/2+x,y,1/2-z
1/2-x,1/2+y,1/2+z
1/2+x,-y,1/2+z
loop_
_atom_site_type_symbol
_atom_site_label
_atom_site_fract_x
_atom_site_fract_y
_atom_site_fract_z
Si Si1 0.000000 0.145953 0.271815
Si Si2 0.500000 0.392899 0.969123
Si Si3 0.691933 0.864171 0.426270
Si Si4 0.147692 0.639744 0.313948
Si Si5 0.669086 0.635405 0.686566
O O1 0.085052 0.104266 0.238484
O O2 0.000000 0.250000 0.218279
O O3 0.000000 0.154467 0.408137
O O4 0.426067 0.371662 0.892440
O O5 0.500000 0.500000 0.000000
O O6 0.690988 0.750000 0.434821
O O7 0.777199 0.896403 0.382948
O O8 0.639554 0.893228 0.317164
O O9 0.672723 0.894924 0.554062
O O10 0.162811 0.750000 0.302248
O O11 0.669407 0.750000 0.693380
O O12 0.750000 0.606287 0.750000
#
# Coordination Sequence:
#
# PCOD9537302 Si02
#       5
#     8   8  16  16  16
#     4  10  20  33  52  77 102 135 178 217 264 322
#     4  12  24  35  50  70 108 143 177 224 267 320
#     4   8  15  29  54  85 107 127 167 223 271 313
#     4   9  17  32  56  80 102 134 177 222 268 316
#     4   9  16  27  48  80 113 136 163 214 272 322
#
# _framework density 22.332894
#
# number of rings (size 3 to 8) (size 9 to 14) (size 15 to 20)
#    0.000    2.750    0.000    4.125    0.000    5.000 
#    0.000    3.750   16.500    1.500    0.000    0.000 
#    0.000    0.000    0.000    0.000    0.000    0.000 
#
# Total GULP energy -178485.023216 kJ/mol
# GULP energy per Si atom -5577.656976 kJ/mol
# Density = 2.228206 g / cm^3
# Si number density = 22.332894 Si / 1000 Ang^3
#
#
#
# Elastic Constant Matrix: (Units=GPa)
#
#
# Indices 1 2 3 4 5 6 
#
# 1 170.1133 11.3080 128.9228 0.0000 0.0000 0.0000
# 2 11.3080 49.2746 5.4628 0.0000 0.0000 0.0000
# 3 128.9228 5.4628 246.0486 0.0000 0.0000 0.0000
# 4 0.0000 0.0000 0.0000 13.9808 0.0000 0.0000
# 5 0.0000 0.0000 0.0000 0.0000 29.0506 0.0000
# 6 0.0000 0.0000 0.0000 0.0000 0.0000 35.4399
#
#
#
# Elastic Compliance Matrix: (Units=1/GPa)
#
#
# Indices 1 2 3 4 5 6 
#
# 1 0.009890 -0.001699 -0.005144 0.000000 0.000000 0.000000
# 2 -0.001699 0.020637 0.000432 0.000000 0.000000 0.000000
# 3 -0.005144 0.000432 0.006750 0.000000 0.000000 0.000000
# 4 0.000000 0.000000 0.000000 0.071527 0.000000 0.000000
# 5 0.000000 0.000000 0.000000 0.000000 0.034423 0.000000
# 6 0.000000 0.000000 0.000000 0.000000 0.000000 0.028217
#
#
# Mechanical properties :
#
#
# Convention : Reuss Voigt Hill
#
# Bulk Modulus (GPa) = 40.89354 84.09152 62.49253
# Shear Modulus (GPa) = 25.98513 37.01043 31.49778
#
# Velocity S-wave (km/s) = 3.41476 4.07531 3.75957
# Velocity P-wave (km/s) = 5.82221 7.73819 6.84754
#
# Compressibility (1/GPa) = 0.02445374
#
# Stress axis : x y z
#
# Youngs Moduli (GPa) = 101.11007 48.45781 148.14367
#
# Poissons Ratio (x) = 0.08235 0.76212
# Poissons Ratio (y) = 0.17182 -0.06404
# Poissons Ratio (z) = 0.52016 -0.02095
#
# Static dielectric constant tensor:
#      x y z
#    x 1.795840 0.000000 0.000000 
#    y 0.000000 1.881410 0.000000 
#    z 0.000000 0.000000 1.770760 
# 
# From -- ./inp_files/21618.got.cif
#   From: 2010.05.17/outbox.cif.g08.bks.cpg/sg74_11_cif.got.tgz:21618.got - 2010.06.03 17:57:02.
