data_PCOD9537527
_publ_section_title
;
Structure prediction by ZEFSAII (Michael W. Deem and Ramdas Pophale) SiO2 
 PCOD9537527
Probable space group: I M M A
;
_chemical_formula_sum "Si O2"
_cell_formula_units_Z 96
_cell_length_a 20.917562
_cell_length_b 7.881876
_cell_length_c 28.766940
_cell_angle_alpha 90.000000
_cell_angle_beta 90.000000
_cell_angle_gamma 90.000000
_cell_volume 4742.794751
_symmetry_space_group_name_H-M "I M M A"
_symmetry_group_IT_number 74
_symmetry_cell_setting 'orthorhombic'
loop_
_space_group_symop_operation_xyz
x,y,z
-x,1/2-y,z
x,-y,-z
-x,1/2+y,-z
-x,-y,-z
x,1/2+y,-z
-x,y,z
x,1/2-y,z
1/2+x,1/2+y,1/2+z
1/2-x,-y,1/2+z
1/2+x,1/2-y,1/2-z
1/2-x,y,1/2-z
1/2-x,1/2-y,1/2-z
1/2+x,y,1/2-z
1/2-x,1/2+y,1/2+z
1/2+x,-y,1/2+z
loop_
_atom_site_type_symbol
_atom_site_label
_atom_site_fract_x
_atom_site_fract_y
_atom_site_fract_z
Si Si1 0.427238 0.544856 0.895825
Si Si2 0.572240 0.545189 0.553000
Si Si3 0.313506 0.041846 0.277091
Si Si4 0.199951 0.947429 0.446613
Si Si5 0.072503 0.956941 0.710787
Si Si6 0.685010 0.450368 0.382409
O O1 0.500000 0.490384 0.907037
O O2 0.426590 0.750000 0.896733
O O3 0.372205 0.482981 0.929905
O O4 0.412911 0.491898 0.842463
O O5 0.588390 0.500000 0.500000
O O6 0.500000 0.484085 0.562707
O O7 0.571269 0.750000 0.555911
O O8 0.626098 0.478259 0.587695
O O9 0.313824 0.250000 0.277361
O O10 0.250000 0.989320 0.250000
O O11 0.375442 0.986422 0.247974
O O12 0.311638 0.981104 0.330174
O O13 0.212997 0.750000 0.443228
O O14 0.208928 0.000000 0.500000
O O15 0.249911 0.033047 0.411519
O O16 0.073065 0.750000 0.710790
O O17 0.000000 0.010144 0.721668
O O18 0.672695 0.250000 0.377288
#
# Coordination Sequence:
#
# PCOD9537527 Si02
#       6
#    16  16  16  16  16  16
#     4   9  18  35  59  84 110 140 175 216 261 311
#     4   9  18  32  50  73 100 131 167 208 256 307
#     4   9  16  26  45  73 103 135 170 209 252 298
#     4  12  25  39  56  77 104 138 177 222 269 320
#     4   8  14  26  48  79 110 138 171 212 256 303
#     4  10  20  34  53  77 107 141 177 218 261 309
#
# _framework density 20.241230000000002
#
# number of rings (size 3 to 8) (size 9 to 14) (size 15 to 20)
#    0.000    2.500    0.000    4.000    0.000    6.000 
#    0.000    3.333    0.000    4.500    0.000    0.000 
#    0.000    0.000    0.000    0.000    0.000    0.000 
#
# Total GULP energy -267947.241557 kJ/mol
# GULP energy per Si atom -5582.234199 kJ/mol
# Density = 2.019516 g / cm^3
# Si number density = 20.241230 Si / 1000 Ang^3
#
#
#
# Elastic Constant Matrix: (Units=GPa)
#
#
# Indices 1 2 3 4 5 6 
#
# 1 81.7625 -0.8465 52.1371 0.0000 0.0000 0.0000
# 2 -0.8465 17.7168 6.9248 0.0000 0.0000 0.0000
# 3 52.1371 6.9248 93.7227 0.0000 0.0000 0.0000
# 4 0.0000 0.0000 0.0000 11.3843 0.0000 0.0000
# 5 0.0000 0.0000 0.0000 0.0000 50.5969 0.0000
# 6 0.0000 0.0000 0.0000 0.0000 0.0000 -29.4653
#
#
#
# Elastic Compliance Matrix: (Units=1/GPa)
#
#
# Indices 1 2 3 4 5 6 
#
# 1 0.019427 0.005305 -0.011199 0.000000 0.000000 0.000000
# 2 0.005305 0.059571 -0.007353 0.000000 0.000000 0.000000
# 3 -0.011199 -0.007353 0.017443 0.000000 0.000000 0.000000
# 4 0.000000 0.000000 0.000000 0.087841 0.000000 0.000000
# 5 0.000000 0.000000 0.000000 0.000000 0.019764 0.000000
# 6 0.000000 0.000000 0.000000 0.000000 0.000000 -0.033938
#
#
# Mechanical properties :
#
#
# Convention : Reuss Voigt Hill
#
# Bulk Modulus (GPa) = 14.29634 34.40364 24.34999
# Shear Modulus (GPa) = 22.73603 15.50228 19.11915
#
# Velocity S-wave (km/s) = 3.35513 2.77045 3.07671
# Velocity P-wave (km/s) = 4.69974 5.22184 4.96765
#
# Compressibility (1/GPa) = 0.06994797
#
# Stress axis : x y z
#
# Youngs Moduli (GPa) = 51.47591 16.78668 57.33016
#
# Poissons Ratio (x) = -0.08906 0.64203
# Poissons Ratio (y) = -0.27310 0.42153
# Poissons Ratio (z) = 0.57647 0.12343
#
# Static dielectric constant tensor:
#      x y z
#    x 1.708090 0.000000 0.000000 
#    y 0.000000 1.753820 0.000000 
#    z 0.000000 0.000000 1.697770 
# 
# From -- ./inp_files/64290.got.cif
#   From: 2010.05.17/outbox.cif.g08.bks.cpg/sg74_33_cif.got.tgz:64290.got - 2010.06.03 17:57:02.
