data_PCOD9537798
_publ_section_title
;
Structure prediction by ZEFSAII (Michael W. Deem and Ramdas Pophale) SiO2 
 PCOD9537798
Probable space group: I M M A
;
_chemical_formula_sum "Si O2"
_cell_formula_units_Z 96
_cell_length_a 14.556010
_cell_length_b 14.563965
_cell_length_c 20.822644
_cell_angle_alpha 90.000000
_cell_angle_beta 90.000000
_cell_angle_gamma 90.000000
_cell_volume 4414.259354
_symmetry_space_group_name_H-M "I M M A"
_symmetry_group_IT_number 74
_symmetry_cell_setting 'orthorhombic'
loop_
_space_group_symop_operation_xyz
x,y,z
-x,1/2-y,z
x,-y,-z
-x,1/2+y,-z
-x,-y,-z
x,1/2+y,-z
-x,y,z
x,1/2-y,z
1/2+x,1/2+y,1/2+z
1/2-x,-y,1/2+z
1/2+x,1/2-y,1/2-z
1/2-x,y,1/2-z
1/2-x,1/2-y,1/2-z
1/2+x,y,1/2-z
1/2-x,1/2+y,1/2+z
1/2+x,-y,1/2+z
loop_
_atom_site_type_symbol
_atom_site_label
_atom_site_fract_x
_atom_site_fract_y
_atom_site_fract_z
Si Si1 0.389991 0.959776 0.159920
Si Si2 0.104051 0.894949 0.477240
Si Si3 0.607063 0.637809 0.425863
Si Si4 0.786008 0.853060 0.953107
Si Si5 0.887478 0.856223 0.213744
Si Si6 0.784304 0.359266 0.323032
O O1 0.500000 0.954480 0.157986
O O2 0.361357 0.903484 0.096256
O O3 0.355987 0.912529 0.224901
O O4 0.362875 0.066414 0.163030
O O5 0.180345 0.851083 0.522657
O O6 0.000000 0.857028 0.479932
O O7 0.098143 0.000000 0.500000
O O8 0.500000 0.614739 0.432208
O O9 0.613459 0.750000 0.423076
O O10 0.660720 0.602234 0.487739
O O11 0.641846 0.606887 0.355915
O O12 0.823270 0.750000 0.949834
O O13 0.787744 0.885400 0.879754
O O14 0.860701 0.750000 0.220659
O O15 0.000000 0.857961 0.212765
O O16 0.806634 0.250000 0.331635
O O17 0.750000 0.369544 0.250000
#
# Coordination Sequence:
#
# PCOD9537798 Si02
#       6
#    16  16  16  16  16  16
#     4  10  20  35  57  82 109 146 186 225 277 331
#     4  10  20  35  53  77 108 142 181 225 274 325
#     4   8  15  31  56  84 113 143 176 218 272 338
#     4  10  20  35  57  82 107 142 185 228 280 333
#     4   8  15  30  53  83 118 148 174 213 270 340
#     4  10  22  39  55  75 105 143 189 238 284 327
#
# _framework density 21.747702
#
# number of rings (size 3 to 8) (size 9 to 14) (size 15 to 20)
#    0.000    2.667    1.667    1.000    0.000    2.667 
#    0.000    4.167    0.000    7.000    0.000    0.000 
#    0.000    0.000    0.000    0.000    0.000    0.000 
#
# Total GULP energy -267621.218094 kJ/mol
# GULP energy per Si atom -5575.442044 kJ/mol
# Density = 2.169820 g / cm^3
# Si number density = 21.747702 Si / 1000 Ang^3
#
#
#
# Elastic Constant Matrix: (Units=GPa)
#
#
# Indices 1 2 3 4 5 6 
#
# 1 30.4167 -6.3518 33.0724 0.0000 0.0000 0.0000
# 2 -6.3518 67.2321 21.1633 0.0000 0.0000 0.0000
# 3 33.0724 21.1633 215.4077 0.0000 0.0000 0.0000
# 4 0.0000 0.0000 0.0000 21.1642 0.0000 0.0000
# 5 0.0000 0.0000 0.0000 0.0000 20.7091 0.0000
# 6 0.0000 0.0000 0.0000 0.0000 0.0000 -182.2009
#
#
#
# Elastic Compliance Matrix: (Units=1/GPa)
#
#
# Indices 1 2 3 4 5 6 
#
# 1 0.041799 0.006160 -0.007023 0.000000 0.000000 0.000000
# 2 0.006160 0.016256 -0.002543 0.000000 0.000000 0.000000
# 3 -0.007023 -0.002543 0.005970 0.000000 0.000000 0.000000
# 4 0.000000 0.000000 0.000000 0.047250 0.000000 0.000000
# 5 0.000000 0.000000 0.000000 0.000000 0.048288 0.000000
# 6 0.000000 0.000000 0.000000 0.000000 0.000000 -0.005488
#
#
# Mechanical properties :
#
#
# Convention : Reuss Voigt Hill
#
# Bulk Modulus (GPa) = 17.47843 45.42493 31.45168
# Shear Modulus (GPa) = 27.78433 -10.38735 8.69849
#
# Velocity S-wave (km/s) = 3.57820 -2.18785 2.00210
# Velocity P-wave (km/s) = 5.01255 3.81449 4.45399
#
# Compressibility (1/GPa) = 0.05721338
#
# Stress axis : x y z
#
# Youngs Moduli (GPa) = 23.92418 61.51495 167.49274
#
# Poissons Ratio (x) = -0.37890 1.17625
# Poissons Ratio (y) = -0.14736 0.42591
# Poissons Ratio (z) = 0.16801 0.15642
#
# Static dielectric constant tensor:
#      x y z
#    x 1.803930 0.000000 0.000000 
#    y 0.000000 1.796780 0.000000 
#    z 0.000000 0.000000 1.851290 
# 
# From -- ./inp_files/51926.got.cif
#   From: 2010.05.17/outbox.cif.g08.bks.cpg/sg74_26_cif.got.tgz:51926.got - 2010.06.03 17:57:02.
