data_PCOD9537276
_publ_section_title
;
Structure prediction by ZEFSAII (Michael W. Deem and Ramdas Pophale) SiO2 
 PCOD9537276
Probable space group: I M M A
;
_chemical_formula_sum "Si O2"
_cell_formula_units_Z 80
_cell_length_a 30.580087
_cell_length_b 15.419235
_cell_length_c 7.581732
_cell_angle_alpha 90.000000
_cell_angle_beta 90.000000
_cell_angle_gamma 90.000000
_cell_volume 3574.950007
_symmetry_space_group_name_H-M "I M M A"
_symmetry_group_IT_number 74
_symmetry_cell_setting 'orthorhombic'
loop_
_space_group_symop_operation_xyz
x,y,z
-x,1/2-y,z
x,-y,-z
-x,1/2+y,-z
-x,-y,-z
x,1/2+y,-z
-x,y,z
x,1/2-y,z
1/2+x,1/2+y,1/2+z
1/2-x,-y,1/2+z
1/2+x,1/2-y,1/2-z
1/2-x,y,1/2-z
1/2-x,1/2-y,1/2-z
1/2+x,y,1/2-z
1/2-x,1/2+y,1/2+z
1/2+x,-y,1/2+z
loop_
_atom_site_type_symbol
_atom_site_label
_atom_site_fract_x
_atom_site_fract_y
_atom_site_fract_z
Si Si1 0.359134 0.847520 0.263684
Si Si2 0.698838 0.495756 0.213156
Si Si3 0.546393 0.151584 0.201560
Si Si4 0.360302 0.152042 0.153060
Si Si5 0.451480 0.595637 0.413033
O O1 0.352373 0.750000 0.337037
O O2 0.325531 0.924615 0.309852
O O3 0.408965 0.877502 0.303105
O O4 0.351398 0.840307 0.053878
O O5 0.750000 0.495178 0.250000
O O6 0.674095 0.406249 0.255460
O O7 0.693354 0.500000 0.000000
O O8 0.500000 0.111135 0.148651
O O9 0.547646 0.250000 0.128938
O O10 0.591904 0.107526 0.157178
O O11 0.546885 0.155018 0.413100
O O12 0.362800 0.250000 0.225497
O O13 0.446826 0.500000 0.500000
O O14 0.500000 0.600442 0.326665
#
# Coordination Sequence:
#
# PCOD9537276 Si02
#       5
#    16  16  16  16  16
#     4  10  21  37  57  81 111 146 184 226 272 327
#     4  10  22  39  57  78 106 139 179 232 287 335
#     4   9  17  30  49  75 108 142 175 214 259 309
#     4   9  19  36  57  82 111 144 184 228 275 329
#     4  10  20  33  51  78 112 147 183 223 266 316
#
# _framework density 22.377934
#
# number of rings (size 3 to 8) (size 9 to 14) (size 15 to 20)
#    0.000    2.400    0.000    1.800    0.000    5.200 
#    0.000    2.000    0.000    7.200    0.000    0.000 
#    0.000    0.000    0.000    0.000    0.000    0.000 
#
# Total GULP energy -222932.074277 kJ/mol
# GULP energy per Si atom -5573.301857 kJ/mol
# Density = 2.232700 g / cm^3
# Si number density = 22.377934 Si / 1000 Ang^3
#
#
#
# Elastic Constant Matrix: (Units=GPa)
#
#
# Indices 1 2 3 4 5 6 
#
# 1 169.8215 74.2197 -14.4857 0.0000 0.0000 0.0000
# 2 74.2197 125.4125 -0.0649 0.0000 0.0000 0.0000
# 3 -14.4857 -0.0649 32.8767 0.0000 0.0000 0.0000
# 4 0.0000 0.0000 0.0000 8.4592 0.0000 0.0000
# 5 0.0000 0.0000 0.0000 0.0000 31.3200 0.0000
# 6 0.0000 0.0000 0.0000 0.0000 0.0000 -11.6628
#
#
#
# Elastic Compliance Matrix: (Units=1/GPa)
#
#
# Indices 1 2 3 4 5 6 
#
# 1 0.008365 -0.004948 0.003676 0.000000 0.000000 0.000000
# 2 -0.004948 0.010901 -0.002159 0.000000 0.000000 0.000000
# 3 0.003676 -0.002159 0.032032 0.000000 0.000000 0.000000
# 4 0.000000 0.000000 0.000000 0.118215 0.000000 0.000000
# 5 0.000000 0.000000 0.000000 0.000000 0.031928 0.000000
# 6 0.000000 0.000000 0.000000 0.000000 0.000000 -0.085743
#
#
# Mechanical properties :
#
#
# Convention : Reuss Voigt Hill
#
# Bulk Modulus (GPa) = 22.50476 49.71654 36.11065
# Shear Modulus (GPa) = 36.39736 23.51940 29.95838
#
# Velocity S-wave (km/s) = 4.03734 3.24544 3.66286
# Velocity P-wave (km/s) = 5.64022 6.02568 5.83613
#
# Compressibility (1/GPa) = 0.04443504
#
# Stress axis : x y z
#
# Youngs Moduli (GPa) = 119.54921 91.73425 31.21881
#
# Poissons Ratio (x) = 0.45394 -0.11475
# Poissons Ratio (y) = 0.59158 0.06739
# Poissons Ratio (z) = -0.43944 0.19803
#
# Static dielectric constant tensor:
#      x y z
#    x 1.837240 0.000000 0.000000 
#    y 0.000000 1.912000 0.000000 
#    z 0.000000 0.000000 1.838290 
# 
# From -- ./inp_files/14948.got.cif
#   From: 2010.05.17/outbox.cif.g08.bks.cpg/sg74_8_cif.got.tgz:14948.got - 2010.06.03 17:57:02.
