data_PCOD9537425
_publ_section_title
;
Structure prediction by ZEFSAII (Michael W. Deem and Ramdas Pophale) SiO2 
 PCOD9537425
Probable space group: I M M A
;
_chemical_formula_sum "Si O2"
_cell_formula_units_Z 64
_cell_length_a 25.199743
_cell_length_b 11.001870
_cell_length_c 11.851562
_cell_angle_alpha 90.000000
_cell_angle_beta 90.000000
_cell_angle_gamma 90.000000
_cell_volume 3285.777969
_symmetry_space_group_name_H-M "I M M A"
_symmetry_group_IT_number 74
_symmetry_cell_setting 'orthorhombic'
loop_
_space_group_symop_operation_xyz
x,y,z
-x,1/2-y,z
x,-y,-z
-x,1/2+y,-z
-x,-y,-z
x,1/2+y,-z
-x,y,z
x,1/2-y,z
1/2+x,1/2+y,1/2+z
1/2-x,-y,1/2+z
1/2+x,1/2-y,1/2-z
1/2-x,y,1/2-z
1/2-x,1/2-y,1/2-z
1/2+x,y,1/2-z
1/2-x,1/2+y,1/2+z
1/2+x,-y,1/2+z
loop_
_atom_site_type_symbol
_atom_site_label
_atom_site_fract_x
_atom_site_fract_y
_atom_site_fract_z
Si Si1 0.670322 0.882105 0.957612
Si Si2 0.060302 0.612800 0.914964
Si Si3 0.727947 0.879901 0.377590
Si Si4 0.829747 0.614184 0.806362
O O1 0.644421 0.750000 0.970177
O O2 0.722672 0.880716 0.036564
O O3 0.683954 0.103052 0.174207
O O4 0.639015 0.000000 0.000000
O O5 0.064589 0.750000 0.966613
O O6 0.106998 0.607583 0.823510
O O7 0.000000 0.602880 0.870765
O O8 0.067928 0.500000 0.000000
O O9 0.698708 0.750000 0.395648
O O10 0.750000 0.875417 0.250000
O O11 0.805482 0.003477 0.123607
O O12 0.811871 0.750000 0.841804
#
# Coordination Sequence:
#
# PCOD9537425 Si02
#       4
#    16  16  16  16
#     4  10  20  34  51  73 105 145 185 223 265 316
#     4   9  19  38  62  86 110 138 179 232 286 335
#     4  10  20  34  51  76 109 149 188 223 265 318
#     4  10  21  36  56  81 108 143 183 228 278 328
#
# _framework density 19.477884
#
# number of rings (size 3 to 8) (size 9 to 14) (size 15 to 20)
#    0.000    2.250    2.500    0.000    0.000    3.500 
#    0.000    5.000    0.000    0.750    0.000    0.000 
#    0.000    0.000    0.000    0.000    0.000    0.000 
#
# Total GULP energy -178372.994137 kJ/mol
# GULP energy per Si atom -5574.156067 kJ/mol
# Density = 1.943355 g / cm^3
# Si number density = 19.477884 Si / 1000 Ang^3
#
#
#
# Elastic Constant Matrix: (Units=GPa)
#
#
# Indices 1 2 3 4 5 6 
#
# 1 70.9520 28.5350 39.7030 0.0000 0.0000 0.0000
# 2 28.5350 200.7918 38.4104 0.0000 0.0000 0.0000
# 3 39.7030 38.4104 119.5208 0.0000 0.0000 0.0000
# 4 0.0000 0.0000 0.0000 7.3042 0.0000 0.0000
# 5 0.0000 0.0000 0.0000 0.0000 10.2887 0.0000
# 6 0.0000 0.0000 0.0000 0.0000 0.0000 21.4403
#
#
#
# Elastic Compliance Matrix: (Units=1/GPa)
#
#
# Indices 1 2 3 4 5 6 
#
# 1 0.017717 -0.001483 -0.005409 0.000000 0.000000 0.000000
# 2 -0.001483 0.005431 -0.001253 0.000000 0.000000 0.000000
# 3 -0.005409 -0.001253 0.010566 0.000000 0.000000 0.000000
# 4 0.000000 0.000000 0.000000 0.136908 0.000000 0.000000
# 5 0.000000 0.000000 0.000000 0.000000 0.097194 0.000000
# 6 0.000000 0.000000 0.000000 0.000000 0.000000 0.046641
#
#
# Mechanical properties :
#
#
# Convention : Reuss Voigt Hill
#
# Bulk Modulus (GPa) = 57.38927 67.17352 62.28139
# Shear Modulus (GPa) = 14.85647 26.78105 20.81876
#
# Velocity S-wave (km/s) = 2.76476 3.71205 3.27286
# Velocity P-wave (km/s) = 6.30235 7.27560 6.80639
#
# Compressibility (1/GPa) = 0.01742486
#
# Stress axis : x y z
#
# Youngs Moduli (GPa) = 56.44258 184.13938 94.64341
#
# Poissons Ratio (x) = 0.27311 0.51190
# Poissons Ratio (y) = 0.08371 0.11855
# Poissons Ratio (z) = 0.30528 0.23065
#
# Static dielectric constant tensor:
#      x y z
#    x 1.661920 0.000000 0.000000 
#    y 0.000000 1.837330 0.000000 
#    z 0.000000 0.000000 1.683830 
# 
# From -- ./inp_files/35962.got.cif
#   From: 2010.05.17/outbox.cif.g08.bks.cpg/sg74_18_cif.got.tgz:35962.got - 2010.06.03 17:57:02.
