data_PCOD9537575
_publ_section_title
;
Structure prediction by ZEFSAII (Michael W. Deem and Ramdas Pophale) SiO2 
 PCOD9537575
Probable space group: I M M A
;
_chemical_formula_sum "Si O2"
_cell_formula_units_Z 56
_cell_length_a 7.975435
_cell_length_b 9.567060
_cell_length_c 41.017259
_cell_angle_alpha 90.000000
_cell_angle_beta 90.000000
_cell_angle_gamma 90.000000
_cell_volume 3129.676959
_symmetry_space_group_name_H-M "I M M A"
_symmetry_group_IT_number 74
_symmetry_cell_setting 'orthorhombic'
loop_
_space_group_symop_operation_xyz
x,y,z
-x,1/2-y,z
x,-y,-z
-x,1/2+y,-z
-x,-y,-z
x,1/2+y,-z
-x,y,z
x,1/2-y,z
1/2+x,1/2+y,1/2+z
1/2-x,-y,1/2+z
1/2+x,1/2-y,1/2-z
1/2-x,y,1/2-z
1/2-x,1/2-y,1/2-z
1/2+x,y,1/2-z
1/2-x,1/2+y,1/2+z
1/2+x,-y,1/2+z
loop_
_atom_site_type_symbol
_atom_site_label
_atom_site_fract_x
_atom_site_fract_y
_atom_site_fract_z
Si Si1 0.201141 0.091967 0.846800
Si Si2 0.800588 0.408523 0.285367
Si Si3 0.306693 0.919905 0.418910
Si Si4 0.500000 0.419421 0.965997
O O1 0.267981 0.250000 0.842740
O O2 0.250429 0.035621 0.882540
O O3 0.000000 0.100731 0.848430
O O4 0.246034 0.998393 0.816136
O O5 0.730948 0.250000 0.287462
O O6 0.750000 0.467241 0.250000
O O7 0.000000 0.400865 0.285906
O O8 0.500000 0.965691 0.425290
O O9 0.311275 0.750000 0.417594
O O10 0.167174 0.957542 0.445414
O O11 0.500000 0.250000 0.970289
O O12 0.500000 0.500000 0.000000
#
# Coordination Sequence:
#
# PCOD9537575 Si02
#       4
#    16  16  16   8
#     4   9  18  33  54  78 100 126 168 218 260 303
#     4  10  21  35  50  70  99 137 174 208 254 311
#     4   8  16  32  53  77 104 135 172 211 256 311
#     4  10  20  34  54  78 106 140 172 210 260 308
#
# _framework density 17.893219999999999
#
# number of rings (size 3 to 8) (size 9 to 14) (size 15 to 20)
#    0.000    2.857    0.000    2.571    2.000    3.429 
#    0.000    1.429    0.000    1.714    0.000    0.000 
#    0.000    0.000    0.000    0.000    0.000    0.000 
#
# Total GULP energy -155994.913409 kJ/mol
# GULP energy per Si atom -5571.246907 kJ/mol
# Density = 1.785249 g / cm^3
# Si number density = 17.893220 Si / 1000 Ang^3
#
#
#
# Elastic Constant Matrix: (Units=GPa)
#
#
# Indices 1 2 3 4 5 6 
#
# 1 70.8001 22.9891 74.3961 0.0000 0.0000 0.0000
# 2 22.9891 33.9393 60.9236 0.0000 0.0000 0.0000
# 3 74.3961 60.9236 208.0618 0.0000 0.0000 0.0000
# 4 0.0000 0.0000 0.0000 33.5270 0.0000 0.0000
# 5 0.0000 0.0000 0.0000 0.0000 37.1846 0.0000
# 6 0.0000 0.0000 0.0000 0.0000 0.0000 10.7432
#
#
#
# Elastic Compliance Matrix: (Units=1/GPa)
#
#
# Indices 1 2 3 4 5 6 
#
# 1 0.022671 -0.001697 -0.007610 0.000000 0.000000 0.000000
# 2 -0.001697 0.062239 -0.017618 0.000000 0.000000 0.000000
# 3 -0.007610 -0.017618 0.012686 0.000000 0.000000 0.000000
# 4 0.000000 0.000000 0.000000 0.029827 0.000000 0.000000
# 5 0.000000 0.000000 0.000000 0.000000 0.026893 0.000000
# 6 0.000000 0.000000 0.000000 0.000000 0.000000 0.093082
#
#
# Mechanical properties :
#
#
# Convention : Reuss Voigt Hill
#
# Bulk Modulus (GPa) = 22.85821 69.93546 46.39683
# Shear Modulus (GPa) = 15.83134 26.59045 21.21090
#
# Velocity S-wave (km/s) = 2.97773 3.85913 3.44672
# Velocity P-wave (km/s) = 4.96236 7.68290 6.46730
#
# Compressibility (1/GPa) = 0.04374796
#
# Stress axis : x y z
#
# Youngs Moduli (GPa) = 44.10836 16.06711 78.82676
#
# Poissons Ratio (x) = 0.02726 0.59985
# Poissons Ratio (y) = 0.07483 1.38876
# Poissons Ratio (z) = 0.33565 0.28307
#
# Static dielectric constant tensor:
#      x y z
#    x 1.597070 0.000000 0.000000 
#    y 0.000000 1.624170 0.000000 
#    z 0.000000 0.000000 1.621930 
# 
# From -- ./inp_files/63254.got.cif
#   From: 2010.05.17/outbox.cif.g08.bks.cpg/sg74_32_cif.got.tgz:63254.got - 2010.06.03 17:57:02.
