data_PCOD9537920
_publ_section_title
;
Structure prediction by ZEFSAII (Michael W. Deem and Ramdas Pophale) SiO2 
 PCOD9537920
Probable space group: I M M A
;
_chemical_formula_sum "Si O2"
_cell_formula_units_Z 88
_cell_length_a 15.597162
_cell_length_b 10.846379
_cell_length_c 27.605753
_cell_angle_alpha 90.000000
_cell_angle_beta 90.000000
_cell_angle_gamma 90.000000
_cell_volume 4670.140609
_symmetry_space_group_name_H-M "I M M A"
_symmetry_group_IT_number 74
_symmetry_cell_setting 'orthorhombic'
loop_
_space_group_symop_operation_xyz
x,y,z
-x,1/2-y,z
x,-y,-z
-x,1/2+y,-z
-x,-y,-z
x,1/2+y,-z
-x,y,z
x,1/2-y,z
1/2+x,1/2+y,1/2+z
1/2-x,-y,1/2+z
1/2+x,1/2-y,1/2-z
1/2-x,y,1/2-z
1/2-x,1/2-y,1/2-z
1/2+x,y,1/2-z
1/2-x,1/2+y,1/2+z
1/2+x,-y,1/2+z
loop_
_atom_site_type_symbol
_atom_site_label
_atom_site_fract_x
_atom_site_fract_y
_atom_site_fract_z
Si Si1 0.791969 0.388154 0.380292
Si Si2 0.096554 0.110874 0.286366
Si Si3 0.102457 0.881398 0.526666
Si Si4 0.000000 0.393971 0.958117
Si Si5 0.154004 0.114686 0.773162
Si Si6 0.666560 0.388737 0.610514
O O1 0.752728 0.250000 0.381383
O O2 0.832297 0.408759 0.327569
O O3 0.870144 0.386812 0.417891
O O4 0.730061 0.497055 0.396533
O O5 0.108610 0.250000 0.266587
O O6 0.000000 0.106115 0.307054
O O7 0.106139 0.003247 0.247753
O O8 0.133816 0.750000 0.506578
O O9 0.000000 0.882795 0.522638
O O10 0.138422 0.000000 0.500000
O O11 0.082914 0.405737 0.922940
O O12 0.000000 0.250000 0.976611
O O13 0.000000 0.500000 0.000000
O O14 0.119085 0.250000 0.758596
O O15 0.250000 0.109551 0.750000
O O16 0.150706 0.109722 0.831388
O O17 0.700958 0.250000 0.600042
#
# Coordination Sequence:
#
# PCOD9537920 Si02
#       6
#    16  16  16   8  16  16
#     4  10  20  35  56  81 112 150 188 229 281 342
#     4  10  21  35  53  82 120 159 196 234 281 341
#     4   9  18  33  52  75 105 142 182 223 268 320
#     4  10  24  46  68  88 116 154 198 256 315 366
#     4  10  20  36  58  84 115 152 195 239 289 352
#     4  10  22  40  61  85 113 146 187 239 298 353
#
# _framework density 18.843115999999998
#
# number of rings (size 3 to 8) (size 9 to 14) (size 15 to 20)
#    0.000    2.182    1.818    0.545    1.273    5.818 
#    0.000    3.636    0.000    3.273    0.000    0.000 
#    0.000    0.000    0.000    0.000    0.000    0.000 
#
# Total GULP energy -245084.115688 kJ/mol
# GULP energy per Si atom -5570.093538 kJ/mol
# Density = 1.880023 g / cm^3
# Si number density = 18.843116 Si / 1000 Ang^3
#
#
#
# Elastic Constant Matrix: (Units=GPa)
#
#
# Indices 1 2 3 4 5 6 
#
# 1 40.8066 44.9736 8.4175 0.0000 0.0000 0.0000
# 2 44.9736 169.6148 52.1514 0.0000 0.0000 0.0000
# 3 8.4175 52.1514 72.5946 0.0000 0.0000 0.0000
# 4 0.0000 0.0000 0.0000 31.9023 0.0000 0.0000
# 5 0.0000 0.0000 0.0000 0.0000 20.9817 0.0000
# 6 0.0000 0.0000 0.0000 0.0000 0.0000 -4.9812
#
#
#
# Elastic Compliance Matrix: (Units=1/GPa)
#
#
# Indices 1 2 3 4 5 6 
#
# 1 0.035256 -0.010385 0.003373 0.000000 0.000000 0.000000
# 2 -0.010385 0.010626 -0.006430 0.000000 0.000000 0.000000
# 3 0.003373 -0.006430 0.018003 0.000000 0.000000 0.000000
# 4 0.000000 0.000000 0.000000 0.031346 0.000000 0.000000
# 5 0.000000 0.000000 0.000000 0.000000 0.047661 0.000000
# 6 0.000000 0.000000 0.000000 0.000000 0.000000 -0.200757
#
#
# Mechanical properties :
#
#
# Convention : Reuss Voigt Hill
#
# Bulk Modulus (GPa) = 27.02651 54.90011 40.96331
# Shear Modulus (GPa) = -268.12760 21.41215 -123.35773
#
# Velocity S-wave (km/s) = -11.94168 3.37462 -8.09986
# Velocity P-wave (km/s) = 13.25761 6.66203 8.10498
#
# Compressibility (1/GPa) = 0.03700071
#
# Stress axis : x y z
#
# Youngs Moduli (GPa) = 28.36424 94.10670 55.54610
#
# Poissons Ratio (x) = 0.97730 -0.18733
# Poissons Ratio (y) = 0.29456 0.35714
# Poissons Ratio (z) = -0.09566 0.60507
#
# Static dielectric constant tensor:
#      x y z
#    x 1.652390 0.000000 0.000000 
#    y 0.000000 1.699420 0.000000 
#    z 0.000000 0.000000 1.641960 
# 
# From -- ./inp_files/70288.got.cif
#   From: 2010.05.17/outbox.cif.g08.bks.cpg/sg74_36_cif.got.tgz:70288.got - 2010.06.03 17:57:02.
