data_PCOD9537595
_publ_section_title
;
Structure prediction by ZEFSAII (Michael W. Deem and Ramdas Pophale) SiO2 
 PCOD9537595
Probable space group: I M M A
;
_chemical_formula_sum "Si O2"
_cell_formula_units_Z 96
_cell_length_a 19.244665
_cell_length_b 14.900418
_cell_length_c 15.766566
_cell_angle_alpha 90.000000
_cell_angle_beta 90.000000
_cell_angle_gamma 90.000000
_cell_volume 4521.118815
_symmetry_space_group_name_H-M "I M M A"
_symmetry_group_IT_number 74
_symmetry_cell_setting 'orthorhombic'
loop_
_space_group_symop_operation_xyz
x,y,z
-x,1/2-y,z
x,-y,-z
-x,1/2+y,-z
-x,-y,-z
x,1/2+y,-z
-x,y,z
x,1/2-y,z
1/2+x,1/2+y,1/2+z
1/2-x,-y,1/2+z
1/2+x,1/2-y,1/2-z
1/2-x,y,1/2-z
1/2-x,1/2-y,1/2-z
1/2+x,y,1/2-z
1/2-x,1/2+y,1/2+z
1/2+x,-y,1/2+z
loop_
_atom_site_type_symbol
_atom_site_label
_atom_site_fract_x
_atom_site_fract_y
_atom_site_fract_z
Si Si1 0.184039 0.354031 0.200233
Si Si2 0.920799 0.882478 0.652279
Si Si3 0.079502 0.097163 0.670563
Si Si4 0.832093 0.608579 0.489750
Si Si5 0.080272 0.358649 0.859524
Si Si6 0.327615 0.354352 0.486049
O O1 0.204049 0.250000 0.183012
O O2 0.250000 0.395699 0.250000
O O3 0.118982 0.354702 0.262782
O O4 0.167527 0.394926 0.108540
O O5 0.874916 0.856670 0.570963
O O6 0.000000 0.850989 0.646960
O O7 0.923321 0.990601 0.654970
O O8 0.128143 0.133680 0.596347
O O9 0.105248 0.112747 0.766114
O O10 0.000000 0.132057 0.664871
O O11 0.830218 0.500000 0.500000
O O12 0.753280 0.640877 0.490238
O O13 0.081346 0.250000 0.859569
O O14 0.000000 0.387978 0.868231
O O15 0.125986 0.392516 0.938042
O O16 0.349547 0.250000 0.479080
#
# Coordination Sequence:
#
# PCOD9537595 Si02
#       6
#    16  16  16  16  16  16
#     4  10  20  36  55  75 105 142 175 216 268 316
#     4  10  20  35  56  81 107 139 179 220 263 317
#     4   9  19  36  55  78 109 142 176 220 266 309
#     4  10  20  34  54  80 108 142 176 214 264 323
#     4   9  19  37  57  77 105 143 183 221 265 317
#     4  10  21  36  55  78 107 140 175 221 270 316
#
# _framework density 21.233682000000002
#
# number of rings (size 3 to 8) (size 9 to 14) (size 15 to 20)
#    0.000    2.333    1.667    0.500    0.000    5.667 
#    0.000    3.333    0.000    6.500    0.000    0.000 
#    0.000    0.000    0.000    0.000    0.000    0.000 
#
# Total GULP energy -268007.345547 kJ/mol
# GULP energy per Si atom -5583.486366 kJ/mol
# Density = 2.118535 g / cm^3
# Si number density = 21.233682 Si / 1000 Ang^3
#
#
#
# Elastic Constant Matrix: (Units=GPa)
#
#
# Indices 1 2 3 4 5 6 
#
# 1 103.6663 -7.3419 94.6491 0.0000 0.0000 0.0000
# 2 -7.3419 42.2849 2.3796 0.0000 0.0000 0.0000
# 3 94.6491 2.3796 232.2182 0.0000 0.0000 0.0000
# 4 0.0000 0.0000 0.0000 20.0537 0.0000 0.0000
# 5 0.0000 0.0000 0.0000 0.0000 46.8557 0.0000
# 6 0.0000 0.0000 0.0000 0.0000 0.0000 21.7041
#
#
#
# Elastic Compliance Matrix: (Units=1/GPa)
#
#
# Indices 1 2 3 4 5 6 
#
# 1 0.015759 0.003100 -0.006455 0.000000 0.000000 0.000000
# 2 0.003100 0.024272 -0.001512 0.000000 0.000000 0.000000
# 3 -0.006455 -0.001512 0.006953 0.000000 0.000000 0.000000
# 4 0.000000 0.000000 0.000000 0.049866 0.000000 0.000000
# 5 0.000000 0.000000 0.000000 0.000000 0.021342 0.000000
# 6 0.000000 0.000000 0.000000 0.000000 0.000000 0.046074
#
#
# Mechanical properties :
#
#
# Convention : Reuss Voigt Hill
#
# Bulk Modulus (GPa) = 26.84605 61.94924 44.39765
# Shear Modulus (GPa) = 26.82133 36.95488 31.88811
#
# Velocity S-wave (km/s) = 3.55794 4.17632 3.87947
# Velocity P-wave (km/s) = 5.43591 7.24527 6.40481
#
# Compressibility (1/GPa) = 0.03724942
#
# Stress axis : x y z
#
# Youngs Moduli (GPa) = 63.45380 41.19911 143.82655
#
# Poissons Ratio (x) = -0.12770 0.92842
# Poissons Ratio (y) = -0.19668 0.21748
# Poissons Ratio (z) = 0.40960 0.06230
#
# Static dielectric constant tensor:
#      x y z
#    x 1.730920 0.000000 0.000000 
#    y 0.000000 1.825320 0.000000 
#    z 0.000000 0.000000 1.766490 
# 
# From -- ./inp_files/32330.got.cif
#   From: 2010.05.17/outbox.cif.g08.bks.cpg/sg74_17_cif.got.tgz:32330.got - 2010.06.03 17:57:02.
