data_PCOD9537458
_publ_section_title
;
Structure prediction by ZEFSAII (Michael W. Deem and Ramdas Pophale) SiO2 
 PCOD9537458
Probable space group: I M M A
;
_chemical_formula_sum "Si O2"
_cell_formula_units_Z 96
_cell_length_a 18.694379
_cell_length_b 9.781457
_cell_length_c 30.284133
_cell_angle_alpha 90.000000
_cell_angle_beta 90.000000
_cell_angle_gamma 90.000000
_cell_volume 5537.703997
_symmetry_space_group_name_H-M "I M M A"
_symmetry_group_IT_number 74
_symmetry_cell_setting 'orthorhombic'
loop_
_space_group_symop_operation_xyz
x,y,z
-x,1/2-y,z
x,-y,-z
-x,1/2+y,-z
-x,-y,-z
x,1/2+y,-z
-x,y,z
x,1/2-y,z
1/2+x,1/2+y,1/2+z
1/2-x,-y,1/2+z
1/2+x,1/2-y,1/2-z
1/2-x,y,1/2-z
1/2-x,1/2-y,1/2-z
1/2+x,y,1/2-z
1/2-x,1/2+y,1/2+z
1/2+x,-y,1/2+z
loop_
_atom_site_type_symbol
_atom_site_label
_atom_site_fract_x
_atom_site_fract_y
_atom_site_fract_z
Si Si1 0.917100 0.590182 0.298167
Si Si2 0.344783 0.090515 0.129191
Si Si3 0.585987 0.905922 0.960766
Si Si4 0.682954 0.910343 0.281952
Si Si5 0.677322 0.910064 0.630099
Si Si6 0.585337 0.412561 0.456352
O O1 0.910859 0.750000 0.310634
O O2 0.868075 0.499887 0.329745
O O3 0.886693 0.578310 0.248864
O O4 0.000000 0.549809 0.301499
O O5 0.361557 0.250000 0.138084
O O6 0.388991 0.044144 0.086683
O O7 0.261210 0.081219 0.118289
O O8 0.500000 0.905164 0.961933
O O9 0.611191 0.750000 0.966014
O O10 0.612920 0.000000 0.000000
O O11 0.694853 0.750000 0.293289
O O12 0.750000 0.951221 0.250000
O O13 0.671955 0.999411 0.325689
O O14 0.661011 0.750000 0.639838
O O15 0.629047 0.951132 0.588000
O O16 0.604828 0.500000 0.500000
O O17 0.500000 0.431327 0.448926
O O18 0.597770 0.250000 0.464128
#
# Coordination Sequence:
#
# PCOD9537458 Si02
#       6
#    16  16  16  16  16  16
#     4  10  21  36  54  77 104 136 176 219 262 312
#     4  10  20  34  52  75 104 136 172 214 261 315
#     4   9  18  32  48  67  94 128 164 204 250 298
#     4  10  20  36  55  76 106 142 178 219 270 323
#     4  10  21  35  55  82 109 140 179 221 268 322
#     4   9  19  37  58  81 112 147 184 229 279 330
#
# _framework density 17.335704
#
# number of rings (size 3 to 8) (size 9 to 14) (size 15 to 20)
#    0.000    2.333    1.667    0.500    0.000    4.667 
#    0.000    1.667    0.000    0.000    0.000    0.000 
#    0.000    0.000    0.000    0.000    0.000    0.000 
#
# Total GULP energy -267562.137301 kJ/mol
# GULP energy per Si atom -5574.211194 kJ/mol
# Density = 1.729625 g / cm^3
# Si number density = 17.335704 Si / 1000 Ang^3
#
#
#
# Elastic Constant Matrix: (Units=GPa)
#
#
# Indices 1 2 3 4 5 6 
#
# 1 54.7051 28.6789 38.6150 0.0000 0.0000 0.0000
# 2 28.6789 54.1318 71.4516 0.0000 0.0000 0.0000
# 3 38.6150 71.4516 133.3592 0.0000 0.0000 0.0000
# 4 0.0000 0.0000 0.0000 36.9562 0.0000 0.0000
# 5 0.0000 0.0000 0.0000 0.0000 34.5281 0.0000
# 6 0.0000 0.0000 0.0000 0.0000 0.0000 20.1797
#
#
#
# Elastic Compliance Matrix: (Units=1/GPa)
#
#
# Indices 1 2 3 4 5 6 
#
# 1 0.025319 -0.012763 -0.000493 0.000000 0.000000 0.000000
# 2 -0.012763 0.069529 -0.033557 0.000000 0.000000 0.000000
# 3 -0.000493 -0.033557 0.025620 0.000000 0.000000 0.000000
# 4 0.000000 0.000000 0.000000 0.027059 0.000000 0.000000
# 5 0.000000 0.000000 0.000000 0.000000 0.028962 0.000000
# 6 0.000000 0.000000 0.000000 0.000000 0.000000 0.049555
#
#
# Mechanical properties :
#
#
# Convention : Reuss Voigt Hill
#
# Bulk Modulus (GPa) = 37.25459 57.74300 47.49880
# Shear Modulus (GPa) = 15.21529 25.22950 20.22239
#
# Velocity S-wave (km/s) = 2.96579 3.81904 3.41914
# Velocity P-wave (km/s) = 5.76755 7.26827 6.56096
#
# Compressibility (1/GPa) = 0.02684233
#
# Stress axis : x y z
#
# Youngs Moduli (GPa) = 39.49630 14.38253 39.03147
#
# Poissons Ratio (x) = 0.18357 0.01924
# Poissons Ratio (y) = 0.50410 1.30977
# Poissons Ratio (z) = 0.01947 0.48263
#
# Static dielectric constant tensor:
#      x y z
#    x 1.594790 0.000000 0.000000 
#    y 0.000000 1.567150 0.000000 
#    z 0.000000 0.000000 1.567060 
# 
# From -- ./inp_files/64349.got.cif
#   From: 2010.05.17/outbox.cif.g08.bks.cpg/sg74_33_cif.got.tgz:64349.got - 2010.06.03 17:57:02.
