data_PCOD9537618
_publ_section_title
;
Structure prediction by ZEFSAII (Michael W. Deem and Ramdas Pophale) SiO2 
 PCOD9537618
Probable space group: I M M A
;
_chemical_formula_sum "Si O2"
_cell_formula_units_Z 80
_cell_length_a 7.944151
_cell_length_b 18.000346
_cell_length_c 31.363243
_cell_angle_alpha 90.000000
_cell_angle_beta 90.000000
_cell_angle_gamma 90.000000
_cell_volume 4484.864296
_symmetry_space_group_name_H-M "I M M A"
_symmetry_group_IT_number 74
_symmetry_cell_setting 'orthorhombic'
loop_
_space_group_symop_operation_xyz
x,y,z
-x,1/2-y,z
x,-y,-z
-x,1/2+y,-z
-x,-y,-z
x,1/2+y,-z
-x,y,z
x,1/2-y,z
1/2+x,1/2+y,1/2+z
1/2-x,-y,1/2+z
1/2+x,1/2-y,1/2-z
1/2-x,y,1/2-z
1/2-x,1/2-y,1/2-z
1/2+x,y,1/2-z
1/2-x,1/2+y,1/2+z
1/2+x,-y,1/2+z
loop_
_atom_site_type_symbol
_atom_site_label
_atom_site_fract_x
_atom_site_fract_y
_atom_site_fract_z
Si Si1 0.811583 0.087326 0.430692
Si Si2 0.697849 0.666402 0.653367
Si Si3 0.500000 0.161697 0.583897
Si Si4 0.000000 0.411599 0.008556
Si Si5 0.199929 0.974469 0.702599
Si Si6 0.301703 0.433408 0.880583
O O1 0.793703 0.138089 0.388628
O O2 0.666002 0.105564 0.463844
O O3 0.000000 0.094103 0.448444
O O4 0.787899 0.003168 0.413242
O O5 0.500000 0.666181 0.642686
O O6 0.747762 0.750000 0.665254
O O7 0.725408 0.605466 0.689880
O O8 0.500000 0.250000 0.585851
O O9 0.500000 0.132623 0.535356
O O10 0.667670 0.127802 0.605685
O O11 0.000000 0.500000 0.000000
O O12 0.250000 0.996857 0.750000
O O13 0.000000 0.966866 0.700046
O O14 0.247033 0.032618 0.665572
O O15 0.500000 0.411241 0.879891
#
# Coordination Sequence:
#
# PCOD9537618 Si02
#       6
#    16  16   8   8  16  16
#     4  10  20  36  61  86 113 158 209 244 288 344
#     4  10  20  34  54  81 122 167 200 241 293 342
#     4  12  26  40  62  90 118 158 192 240 312 359
#     4  12  22  38  60  88 120 152 196 256 284 344
#     4  10  21  35  58  90 114 149 201 246 292 350
#     4   9  20  39  61  87 116 151 197 242 289 352
#
# _framework density 17.837776000000002
#
# number of rings (size 3 to 8) (size 9 to 14) (size 15 to 20)
#    0.000    1.800    3.000    2.400    5.600    4.400 
#    0.000    0.000    0.000    0.600    0.000    0.000 
#    0.000    0.000    0.000    0.000    0.000    0.000 
#
# Total GULP energy -223323.773009 kJ/mol
# GULP energy per Si atom -5583.094325 kJ/mol
# Density = 1.779718 g / cm^3
# Si number density = 17.837776 Si / 1000 Ang^3
#
#
#
# Elastic Constant Matrix: (Units=GPa)
#
#
# Indices 1 2 3 4 5 6 
#
# 1 112.2296 60.2692 58.0487 0.0000 0.0000 0.0000
# 2 60.2692 102.9435 53.0212 0.0000 0.0000 0.0000
# 3 58.0487 53.0212 103.4947 0.0000 0.0000 0.0000
# 4 0.0000 0.0000 0.0000 -15.7819 0.0000 0.0000
# 5 0.0000 0.0000 0.0000 0.0000 17.7746 0.0000
# 6 0.0000 0.0000 0.0000 0.0000 0.0000 19.3534
#
#
#
# Elastic Compliance Matrix: (Units=1/GPa)
#
#
# Indices 1 2 3 4 5 6 
#
# 1 0.014843 -0.005980 -0.005262 0.000000 0.000000 0.000000
# 2 -0.005980 0.015605 -0.004641 0.000000 0.000000 0.000000
# 3 -0.005262 -0.004641 0.014991 0.000000 0.000000 0.000000
# 4 0.000000 0.000000 0.000000 -0.063364 0.000000 0.000000
# 5 0.000000 0.000000 0.000000 0.000000 0.056260 0.000000
# 6 0.000000 0.000000 0.000000 0.000000 0.000000 0.051670
#
#
# Mechanical properties :
#
#
# Convention : Reuss Voigt Hill
#
# Bulk Modulus (GPa) = 73.12747 73.48288 73.30518
# Shear Modulus (GPa) = 39.57913 14.09114 26.83513
#
# Velocity S-wave (km/s) = 4.71556 2.81367 3.88287
# Velocity P-wave (km/s) = 8.41033 7.20001 7.82859
#
# Compressibility (1/GPa) = 0.01367475
#
# Stress axis : x y z
#
# Youngs Moduli (GPa) = 67.37074 64.08086 66.70683
#
# Poissons Ratio (x) = 0.38321 0.35099
# Poissons Ratio (y) = 0.40288 0.30956
# Poissons Ratio (z) = 0.35449 0.29737
#
# Static dielectric constant tensor:
#      x y z
#    x 1.651020 0.000000 0.000000 
#    y 0.000000 1.589460 0.000000 
#    z 0.000000 0.000000 1.632360 
# 
# From -- ./inp_files/63988.got.cif
#   From: 2010.05.17/outbox.cif.g08.bks.cpg/sg74_32_cif.got.tgz:63988.got - 2010.06.03 17:57:02.
