data_PCOD9537215
_publ_section_title
;
Structure prediction by ZEFSAII (Michael W. Deem and Ramdas Pophale) SiO2 
 PCOD9537215
Probable space group: I M M A
;
_chemical_formula_sum "Si O2"
_cell_formula_units_Z 104
_cell_length_a 25.583849
_cell_length_b 9.289324
_cell_length_c 21.581351
_cell_angle_alpha 90.000000
_cell_angle_beta 90.000000
_cell_angle_gamma 90.000000
_cell_volume 5128.951852
_symmetry_space_group_name_H-M "I M M A"
_symmetry_group_IT_number 74
_symmetry_cell_setting 'orthorhombic'
loop_
_space_group_symop_operation_xyz
x,y,z
-x,1/2-y,z
x,-y,-z
-x,1/2+y,-z
-x,-y,-z
x,1/2+y,-z
-x,y,z
x,1/2-y,z
1/2+x,1/2+y,1/2+z
1/2-x,-y,1/2+z
1/2+x,1/2-y,1/2-z
1/2-x,y,1/2-z
1/2-x,1/2-y,1/2-z
1/2+x,y,1/2-z
1/2-x,1/2+y,1/2+z
1/2+x,-y,1/2+z
loop_
_atom_site_type_symbol
_atom_site_label
_atom_site_fract_x
_atom_site_fract_y
_atom_site_fract_z
Si Si1 0.599710 0.081490 0.880810
Si Si2 0.440851 0.417697 0.644967
Si Si3 0.629772 0.588380 0.558750
Si Si4 0.500000 0.922948 0.933108
Si Si5 0.778087 0.585350 0.839342
Si Si6 0.210176 0.918348 0.436962
Si Si7 0.351443 0.918911 0.251915
O O1 0.582765 0.250000 0.877718
O O2 0.647525 0.072658 0.929065
O O3 0.625901 0.043221 0.815041
O O4 0.551652 0.980647 0.898302
O O5 0.500000 0.452711 0.663404
O O6 0.438790 0.250000 0.626797
O O7 0.420426 0.513748 0.588944
O O8 0.400120 0.434942 0.700990
O O9 0.648322 0.500000 0.500000
O O10 0.618198 0.750000 0.539740
O O11 0.674238 0.589357 0.611080
O O12 0.500000 0.750000 0.938780
O O13 0.500000 0.000000 0.000000
O O14 0.760767 0.750000 0.828838
O O15 0.735721 0.490307 0.876006
O O16 0.804028 0.513069 0.778828
O O17 0.225140 0.750000 0.439932
O O18 0.225361 0.000000 0.500000
O O19 0.335897 0.750000 0.250983
#
# Coordination Sequence:
#
# PCOD9537215 Si02
#       7
#    16  16  16   8  16  16  16
#     4  10  23  42  66  94 125 162 203 252 307 367
#     4   9  18  32  52  77 103 139 186 236 288 344
#     4  10  20  33  50  73 103 142 187 235 290 348
#     4  12  26  44  68  96 128 166 207 256 311 370
#     4  10  21  37  58  85 119 158 197 245 300 355
#     4  11  23  39  61  90 121 158 203 250 304 365
#     4   9  19  37  61  87 118 156 199 246 296 357
#
# _framework density 20.277048000000001
#
# number of rings (size 3 to 8) (size 9 to 14) (size 15 to 20)
#    0.000    2.000    0.000    3.000    1.077    7.385 
#    0.000    3.077    0.000    0.000    0.000    0.000 
#    0.000    0.000    0.000    0.000    0.000    0.000 
#
# Total GULP energy -290546.937010 kJ/mol
# GULP energy per Si atom -5587.441096 kJ/mol
# Density = 2.023090 g / cm^3
# Si number density = 20.277048 Si / 1000 Ang^3
#
#
#
# Elastic Constant Matrix: (Units=GPa)
#
#
# Indices 1 2 3 4 5 6 
#
# 1 102.7630 73.9903 27.7729 0.0000 0.0000 0.0000
# 2 73.9903 144.3322 71.0657 0.0000 0.0000 0.0000
# 3 27.7729 71.0657 106.3005 0.0000 0.0000 0.0000
# 4 0.0000 0.0000 0.0000 29.0789 0.0000 0.0000
# 5 0.0000 0.0000 0.0000 0.0000 4.8415 0.0000
# 6 0.0000 0.0000 0.0000 0.0000 0.0000 24.7814
#
#
#
# Elastic Compliance Matrix: (Units=1/GPa)
#
#
# Indices 1 2 3 4 5 6 
#
# 1 0.015679 -0.008975 0.001904 0.000000 0.000000 0.000000
# 2 -0.008975 0.015466 -0.007994 0.000000 0.000000 0.000000
# 3 0.001904 -0.007994 0.014255 0.000000 0.000000 0.000000
# 4 0.000000 0.000000 0.000000 0.034389 0.000000 0.000000
# 5 0.000000 0.000000 0.000000 0.000000 0.206546 0.000000
# 6 0.000000 0.000000 0.000000 0.000000 0.000000 0.040353
#
#
# Mechanical properties :
#
#
# Convention : Reuss Voigt Hill
#
# Bulk Modulus (GPa) = 65.49871 77.67261 71.58566
# Shear Modulus (GPa) = 13.81571 23.77815 18.79693
#
# Velocity S-wave (km/s) = 2.61309 3.42813 3.04798
# Velocity P-wave (km/s) = 6.44022 7.35243 6.91139
#
# Compressibility (1/GPa) = 0.01526748
#
# Stress axis : x y z
#
# Youngs Moduli (GPa) = 63.78146 64.65992 70.15321
#
# Poissons Ratio (x) = 0.58030 -0.13355
# Poissons Ratio (y) = 0.57242 0.56084
# Poissons Ratio (z) = -0.12142 0.51692
#
# Static dielectric constant tensor:
#      x y z
#    x 1.718310 0.000000 0.000000 
#    y 0.000000 1.702280 0.000000 
#    z 0.000000 0.000000 1.720940 
# 
# From -- ./inp_files/55203.got.cif
#   From: 2010.05.17/outbox.cif.g08.bks.cpg/sg74_28_cif.got.tgz:55203.got - 2010.06.03 17:57:02.
