data_PCOD9537780
_publ_section_title
;
Structure prediction by ZEFSAII (Michael W. Deem and Ramdas Pophale) SiO2 
 PCOD9537780
Probable space group: I M M A
;
_chemical_formula_sum "Si O2"
_cell_formula_units_Z 80
_cell_length_a 11.201947
_cell_length_b 31.166655
_cell_length_c 11.564858
_cell_angle_alpha 90.000000
_cell_angle_beta 90.000000
_cell_angle_gamma 90.000000
_cell_volume 4037.606694
_symmetry_space_group_name_H-M "I M M A"
_symmetry_group_IT_number 74
_symmetry_cell_setting 'orthorhombic'
loop_
_space_group_symop_operation_xyz
x,y,z
-x,1/2-y,z
x,-y,-z
-x,1/2+y,-z
-x,-y,-z
x,1/2+y,-z
-x,y,z
x,1/2-y,z
1/2+x,1/2+y,1/2+z
1/2-x,-y,1/2+z
1/2+x,1/2-y,1/2-z
1/2-x,y,1/2-z
1/2-x,1/2-y,1/2-z
1/2+x,y,1/2-z
1/2-x,1/2+y,1/2+z
1/2+x,-y,1/2+z
loop_
_atom_site_type_symbol
_atom_site_label
_atom_site_fract_x
_atom_site_fract_y
_atom_site_fract_z
Si Si1 0.371854 0.482800 0.869389
Si Si2 0.132841 0.562522 0.067404
Si Si3 0.371578 0.336219 0.611909
Si Si4 0.868825 0.933253 0.793225
Si Si5 0.370850 0.698875 0.125795
O O1 0.500000 0.459029 0.850743
O O2 0.247795 0.457150 0.870702
O O3 0.370869 0.523475 0.783857
O O4 0.377107 0.500000 0.000000
O O5 0.132701 0.612838 0.096254
O O6 0.000000 0.545005 0.096652
O O7 0.145200 0.556827 0.929080
O O8 0.500000 0.321130 0.563642
O O9 0.372733 0.323060 0.747352
O O10 0.248930 0.316825 0.563664
O O11 0.750000 0.909147 0.750000
O O12 0.000000 0.912668 0.778985
O O13 0.500000 0.689167 0.070746
O O14 0.362913 0.750000 0.143125
#
# Coordination Sequence:
#
# PCOD9537780 Si02
#       5
#    16  16  16  16  16
#     4  10  20  35  53  72  93 126 174 221 264 307
#     4  10  21  35  51  72  99 130 168 213 259 306
#     4   9  17  30  47  71 101 132 164 198 242 295
#     4  10  20  35  53  71  93 125 168 217 263 306
#     4   9  17  31  52  76 103 135 166 196 236 292
#
# _framework density 19.813718999999999
#
# number of rings (size 3 to 8) (size 9 to 14) (size 15 to 20)
#    0.000    2.400    2.000    1.200    0.000    3.200 
#    3.600    0.000    0.000    0.000    0.000    0.000 
#    0.000    3.200    0.000    9.200    0.000    6.800 
#
# Total GULP energy -222904.984791 kJ/mol
# GULP energy per Si atom -5572.624620 kJ/mol
# Density = 1.976862 g / cm^3
# Si number density = 19.813719 Si / 1000 Ang^3
#
#
#
# Elastic Constant Matrix: (Units=GPa)
#
#
# Indices 1 2 3 4 5 6 
#
# 1 246.0739 32.0516 16.7754 -0.0008 -0.0161 -0.0005
# 2 32.0516 54.4477 19.9761 -0.0002 -0.0078 -0.0001
# 3 16.7754 19.9761 86.0580 -0.0028 -0.0510 -0.0015
# 4 -0.0008 -0.0002 -0.0028 7.5930 -0.0023 -0.0003
# 5 -0.0161 -0.0078 -0.0510 -0.0023 -193.1914 -0.0034
# 6 -0.0005 -0.0001 -0.0015 -0.0003 -0.0034 29.4280
#
#
#
# Elastic Compliance Matrix: (Units=1/GPa)
#
#
# Indices 1 2 3 4 5 6 
#
# 1 0.004407 -0.002492 -0.000281 0.000000 0.000000 0.000000
# 2 -0.002492 0.021484 -0.004501 -0.000001 0.000001 0.000000
# 3 -0.000281 -0.004501 0.012720 0.000005 -0.000003 0.000001
# 4 0.000000 -0.000001 0.000005 0.131699 -0.000002 0.000001
# 5 0.000000 0.000001 -0.000003 -0.000002 -0.005176 -0.000001
# 6 0.000000 0.000000 0.000001 0.000001 -0.000001 0.033981
#
#
# Mechanical properties :
#
#
# Convention : Reuss Voigt Hill
#
# Bulk Modulus (GPa) = 41.55554 58.24287 49.89920
# Shear Modulus (GPa) = 22.55453 -10.04897 6.25278
#
# Velocity S-wave (km/s) = 3.37757 -2.25449 1.77838
# Velocity P-wave (km/s) = 6.01908 4.76257 5.42731
#
# Compressibility (1/GPa) = 0.02406418
#
# Stress axis : x y z
#
# Youngs Moduli (GPa) = 226.88658 46.54533 78.61833
#
# Poissons Ratio (x) = 0.11597 0.02208
# Poissons Ratio (y) = 0.56529 0.35389
# Poissons Ratio (z) = 0.06371 0.20952
#
# Static dielectric constant tensor:
#      x y z
#    x 1.879400 0.000000 0.000000 
#    y 0.000000 1.669450 0.000000 
#    z 0.000000 0.000000 1.681800 
# 
# From -- ./inp_files/18991.got.cif
#   From: 2010.05.17/outbox.cif.g08.bks.cpg/sg74_10_cif.got.tgz:18991.got - 2010.06.03 17:57:02.
