data_PCOD9537815
_publ_section_title
;
Structure prediction by ZEFSAII (Michael W. Deem and Ramdas Pophale) SiO2 
 PCOD9537815
Probable space group: I M M A
;
_chemical_formula_sum "Si O2"
_cell_formula_units_Z 96
_cell_length_a 20.541163
_cell_length_b 8.438751
_cell_length_c 30.767883
_cell_angle_alpha 90.000000
_cell_angle_beta 90.000000
_cell_angle_gamma 90.000000
_cell_volume 5333.358985
_symmetry_space_group_name_H-M "I M M A"
_symmetry_group_IT_number 74
_symmetry_cell_setting 'orthorhombic'
loop_
_space_group_symop_operation_xyz
x,y,z
-x,1/2-y,z
x,-y,-z
-x,1/2+y,-z
-x,-y,-z
x,1/2+y,-z
-x,y,z
x,1/2-y,z
1/2+x,1/2+y,1/2+z
1/2-x,-y,1/2+z
1/2+x,1/2-y,1/2-z
1/2-x,y,1/2-z
1/2-x,1/2-y,1/2-z
1/2+x,y,1/2-z
1/2-x,1/2+y,1/2+z
1/2+x,-y,1/2+z
loop_
_atom_site_type_symbol
_atom_site_label
_atom_site_fract_x
_atom_site_fract_y
_atom_site_fract_z
Si Si1 0.788663 0.560522 0.706331
Si Si2 0.295205 0.060807 0.625987
Si Si3 0.926932 0.058749 0.732153
Si Si4 0.288535 0.560447 0.950770
Si Si5 0.928343 0.942874 0.165991
Si Si6 0.430488 0.441520 0.049949
O O1 0.784587 0.750000 0.704377
O O2 0.750000 0.506979 0.750000
O O3 0.752654 0.489969 0.664762
O O4 0.864158 0.510973 0.708576
O O5 0.297490 0.250000 0.624355
O O6 0.367176 0.000201 0.638428
O O7 0.267161 0.998521 0.580953
O O8 0.924248 0.250000 0.729584
O O9 0.920551 0.014271 0.783221
O O10 0.000000 0.009714 0.717761
O O11 0.288501 0.750000 0.951585
O O12 0.360024 0.506417 0.932846
O O13 0.281693 0.500000 0.000000
O O14 0.928144 0.750000 0.164920
O O15 0.000000 0.996009 0.151441
O O16 0.500000 0.495086 0.069616
O O17 0.430715 0.250000 0.050329
O O18 0.430840 0.500000 0.000000
#
# Coordination Sequence:
#
# PCOD9537815 Si02
#       6
#    16  16  16  16  16  16
#     4  11  22  34  50  76 111 144 175 215 262 314
#     4  11  21  34  56  80 105 139 179 220 268 319
#     4   9  17  32  54  77 103 139 182 223 264 314
#     4  10  20  35  54  77 107 137 174 221 269 321
#     4   8  15  29  51  78 103 130 170 218 265 316
#     4   8  14  26  46  70  94 124 161 202 248 296
#
# _framework density 17.999912999999999
#
# number of rings (size 3 to 8) (size 9 to 14) (size 15 to 20)
#    0.000    2.500    1.667    2.500    0.000    1.667 
#    0.000    0.833    0.000    5.500    0.000    0.000 
#    0.000    0.000    0.000    0.000    0.000    0.000 
#
# Total GULP energy -267520.230264 kJ/mol
# GULP energy per Si atom -5573.338130 kJ/mol
# Density = 1.795894 g / cm^3
# Si number density = 17.999913 Si / 1000 Ang^3
#
#
#
# Elastic Constant Matrix: (Units=GPa)
#
#
# Indices 1 2 3 4 5 6 
#
# 1 173.4100 21.4975 57.5774 0.0000 0.0000 0.0000
# 2 21.4975 24.6044 15.0973 0.0000 0.0000 0.0000
# 3 57.5774 15.0973 62.2241 0.0000 0.0000 0.0000
# 4 0.0000 0.0000 0.0000 22.6187 0.0000 0.0000
# 5 0.0000 0.0000 0.0000 0.0000 50.4815 0.0000
# 6 0.0000 0.0000 0.0000 0.0000 0.0000 15.4086
#
#
#
# Elastic Compliance Matrix: (Units=1/GPa)
#
#
# Indices 1 2 3 4 5 6 
#
# 1 0.008516 -0.003061 -0.007137 0.000000 0.000000 0.000000
# 2 -0.003061 0.048853 -0.009020 0.000000 0.000000 0.000000
# 3 -0.007137 -0.009020 0.024864 0.000000 0.000000 0.000000
# 4 0.000000 0.000000 0.000000 0.044211 0.000000 0.000000
# 5 0.000000 0.000000 0.000000 0.000000 0.019809 0.000000
# 6 0.000000 0.000000 0.000000 0.000000 0.000000 0.064899
#
#
# Mechanical properties :
#
#
# Convention : Reuss Voigt Hill
#
# Bulk Modulus (GPa) = 22.83379 49.84255 36.33817
# Shear Modulus (GPa) = 18.92593 28.77284 23.84939
#
# Velocity S-wave (km/s) = 3.24612 4.00246 3.64397
# Velocity P-wave (km/s) = 5.17327 7.00786 6.15926
#
# Compressibility (1/GPa) = 0.04379475
#
# Stress axis : x y z
#
# Youngs Moduli (GPa) = 117.42636 20.46969 40.21907
#
# Poissons Ratio (x) = 0.06266 0.28706
# Poissons Ratio (y) = 0.35946 0.36279
# Poissons Ratio (z) = 0.83811 0.18464
#
# Static dielectric constant tensor:
#      x y z
#    x 1.671340 0.000000 0.000000 
#    y 0.000000 1.623680 0.000000 
#    z 0.000000 0.000000 1.556370 
# 
# From -- ./inp_files/64310.got.cif
#   From: 2010.05.17/outbox.cif.g08.bks.cpg/sg74_33_cif.got.tgz:64310.got - 2010.06.03 17:57:02.
