data_PCOD9537755
_publ_section_title
;
Structure prediction by ZEFSAII (Michael W. Deem and Ramdas Pophale) SiO2 
 PCOD9537755
Probable space group: I M M A
;
_chemical_formula_sum "Si O2"
_cell_formula_units_Z 88
_cell_length_a 12.409730
_cell_length_b 20.597795
_cell_length_c 18.392710
_cell_angle_alpha 90.000000
_cell_angle_beta 90.000000
_cell_angle_gamma 90.000000
_cell_volume 4701.417152
_symmetry_space_group_name_H-M "I M M A"
_symmetry_group_IT_number 74
_symmetry_cell_setting 'orthorhombic'
loop_
_space_group_symop_operation_xyz
x,y,z
-x,1/2-y,z
x,-y,-z
-x,1/2+y,-z
-x,-y,-z
x,1/2+y,-z
-x,y,z
x,1/2-y,z
1/2+x,1/2+y,1/2+z
1/2-x,-y,1/2+z
1/2+x,1/2-y,1/2-z
1/2-x,y,1/2-z
1/2-x,1/2-y,1/2-z
1/2+x,y,1/2-z
1/2-x,1/2+y,1/2+z
1/2+x,-y,1/2+z
loop_
_atom_site_type_symbol
_atom_site_label
_atom_site_fract_x
_atom_site_fract_y
_atom_site_fract_z
Si Si1 0.321960 0.643803 0.636127
Si Si2 0.624451 0.176472 0.049380
Si Si3 0.500000 0.453936 0.575683
Si Si4 0.000000 0.327846 0.016334
Si Si5 0.377783 0.939038 0.054429
Si Si6 0.118309 0.250000 0.243710
Si Si7 0.289111 0.007541 0.667440
O O1 0.203381 0.671780 0.617803
O O2 0.395067 0.654425 0.564677
O O3 0.384520 0.684011 0.696598
O O4 0.302499 0.569831 0.657236
O O5 0.500000 0.160937 0.067257
O O6 0.629286 0.250000 0.021448
O O7 0.660855 0.123562 0.990508
O O8 0.500000 0.500000 0.500000
O O9 0.500000 0.379438 0.548851
O O10 0.602236 0.466839 0.627950
O O11 0.000000 0.250000 0.001269
O O12 0.500000 0.926039 0.078081
O O13 0.304227 0.960722 0.119553
O O14 0.378315 0.000000 0.000000
O O15 0.250000 0.250000 0.250000
O O16 0.000000 0.250000 0.285627
O O17 0.250000 0.019707 0.750000
#
# Coordination Sequence:
#
# PCOD9537755 Si02
#       7
#    16  16   8   8  16   8  16
#     4  12  20  39  61  89 127 170 210 268 326 390
#     4  10  20  34  60  93 123 156 208 264 323 388
#     4  12  24  44  72  94 129 178 225 280 330 393
#     4  12  22  40  74  96 126 162 228 282 328 388
#     4  10  20  38  63  88 122 166 213 264 323 389
#     4  12  26  42  58  86 134 190 226 262 333 415
#     4  12  26  40  62  95 133 169 218 272 332 395
#
# _framework density 18.717759999999998
#
# number of rings (size 3 to 8) (size 9 to 14) (size 15 to 20)
#    0.000    0.727    6.364    2.182    1.273    0.727 
#    0.000    0.000    0.000    2.182    0.000    0.000 
#    0.000    0.000    0.000    0.000    0.000    0.000 
#
# Total GULP energy -245162.023854 kJ/mol
# GULP energy per Si atom -5571.864179 kJ/mol
# Density = 1.867516 g / cm^3
# Si number density = 18.717760 Si / 1000 Ang^3
#
#
#
# Elastic Constant Matrix: (Units=GPa)
#
#
# Indices 1 2 3 4 5 6 
#
# 1 122.7036 16.3167 50.6475 0.0000 0.0000 0.0000
# 2 16.3167 68.4956 32.7394 0.0000 0.0000 0.0000
# 3 50.6475 32.7394 87.3313 0.0000 0.0000 0.0000
# 4 0.0000 0.0000 0.0000 52.7424 0.0000 0.0000
# 5 0.0000 0.0000 0.0000 0.0000 22.0818 0.0000
# 6 0.0000 0.0000 0.0000 0.0000 0.0000 54.3079
#
#
#
# Elastic Compliance Matrix: (Units=1/GPa)
#
#
# Indices 1 2 3 4 5 6 
#
# 1 0.010729 0.000510 -0.006413 0.000000 0.000000 0.000000
# 2 0.000510 0.017811 -0.006973 0.000000 0.000000 0.000000
# 3 -0.006413 -0.006973 0.017784 0.000000 0.000000 0.000000
# 4 0.000000 0.000000 0.000000 0.018960 0.000000 0.000000
# 5 0.000000 0.000000 0.000000 0.000000 0.045286 0.000000
# 6 0.000000 0.000000 0.000000 0.000000 0.000000 0.018414
#
#
# Mechanical properties :
#
#
# Convention : Reuss Voigt Hill
#
# Bulk Modulus (GPa) = 48.61157 53.10421 50.85789
# Shear Modulus (GPa) = 30.94181 37.74820 34.34500
#
# Velocity S-wave (km/s) = 4.07021 4.49565 4.28821
# Velocity P-wave (km/s) = 6.93657 7.44180 7.19362
#
# Compressibility (1/GPa) = 0.02057123
#
# Stress axis : x y z
#
# Youngs Moduli (GPa) = 93.20398 56.14561 56.23032
#
# Poissons Ratio (x) = -0.02861 0.36063
# Poissons Ratio (y) = -0.04750 0.39207
# Poissons Ratio (z) = 0.59775 0.39148
#
# Static dielectric constant tensor:
#      x y z
#    x 1.724870 0.000000 0.000000 
#    y 0.000000 1.635160 0.000000 
#    z 0.000000 0.000000 1.755880 
# 
# From -- ./inp_files/41330.got.cif
#   From: 2010.05.17/outbox.cif.g08.bks.cpg/sg74_21_cif.got.tgz:41330.got - 2010.06.03 17:57:02.
