data_PCOD9537681
_publ_section_title
;
Structure prediction by ZEFSAII (Michael W. Deem and Ramdas Pophale) SiO2 
 PCOD9537681
Probable space group: I M M A
;
_chemical_formula_sum "Si O2"
_cell_formula_units_Z 80
_cell_length_a 16.310351
_cell_length_b 28.279271
_cell_length_c 8.769534
_cell_angle_alpha 90.000000
_cell_angle_beta 90.000000
_cell_angle_gamma 90.000000
_cell_volume 4044.902272
_symmetry_space_group_name_H-M "I M M A"
_symmetry_group_IT_number 74
_symmetry_cell_setting 'orthorhombic'
loop_
_space_group_symop_operation_xyz
x,y,z
-x,1/2-y,z
x,-y,-z
-x,1/2+y,-z
-x,-y,-z
x,1/2+y,-z
-x,y,z
x,1/2-y,z
1/2+x,1/2+y,1/2+z
1/2-x,-y,1/2+z
1/2+x,1/2-y,1/2-z
1/2-x,y,1/2-z
1/2-x,1/2-y,1/2-z
1/2+x,y,1/2-z
1/2-x,1/2+y,1/2+z
1/2+x,-y,1/2+z
loop_
_atom_site_type_symbol
_atom_site_label
_atom_site_fract_x
_atom_site_fract_y
_atom_site_fract_z
Si Si1 0.093813 0.886737 0.900301
Si Si2 0.677663 0.194530 0.527191
Si Si3 0.272590 0.948351 0.427634
Si Si4 0.592167 0.803907 0.161434
Si Si5 0.832164 0.630672 0.569328
O O1 0.100803 0.832703 0.956028
O O2 0.138335 0.883459 0.736716
O O3 0.000000 0.902345 0.888942
O O4 0.146270 0.918929 0.018804
O O5 0.681837 0.250000 0.496398
O O6 0.660366 0.188238 0.708107
O O7 0.755864 0.167456 0.455314
O O8 0.250000 0.951348 0.250000
O O9 0.198949 0.917730 0.497093
O O10 0.278359 0.000000 0.500000
O O11 0.500000 0.805923 0.226072
O O12 0.604281 0.750000 0.103709
O O13 0.600087 0.842518 0.030026
#
# Coordination Sequence:
#
# PCOD9537681 Si02
#       5
#    16  16  16  16  16
#     4  11  24  40  60  89 124 158 194 245 303 353
#     4  10  20  35  55  81 118 164 210 249 291 350
#     4  11  23  43  69  92 117 151 194 243 295 356
#     4  10  20  34  55  86 124 165 207 251 298 347
#     4  11  21  37  60  86 119 159 203 246 294 353
#
# _framework density 19.777981
#
# number of rings (size 3 to 8) (size 9 to 14) (size 15 to 20)
#    0.000    1.400    0.000    8.400    0.000    5.600 
#    0.000    1.000    0.000    4.200    0.000    0.000 
#    0.000    0.000    0.000    0.000    0.000    0.000 
#
# Total GULP energy -223028.691828 kJ/mol
# GULP energy per Si atom -5575.717296 kJ/mol
# Density = 1.973297 g / cm^3
# Si number density = 19.777981 Si / 1000 Ang^3
#
#
#
# Elastic Constant Matrix: (Units=GPa)
#
#
# Indices 1 2 3 4 5 6 
#
# 1 121.5053 46.6987 61.5025 -0.0001 0.0001 -0.0001
# 2 46.6987 112.8508 53.7126 -0.0011 0.0001 -0.0008
# 3 61.5025 53.7126 128.0142 -0.0079 0.0021 0.0004
# 4 -0.0001 -0.0011 -0.0079 30.8990 0.0005 0.0006
# 5 0.0001 0.0001 0.0021 0.0005 28.8427 -0.0002
# 6 -0.0001 -0.0008 0.0004 0.0006 -0.0002 15.8673
#
#
#
# Elastic Compliance Matrix: (Units=1/GPa)
#
#
# Indices 1 2 3 4 5 6 
#
# 1 0.011478 -0.002655 -0.004400 -0.000001 0.000000 0.000000
# 2 -0.002655 0.011687 -0.003628 -0.000001 0.000000 0.000001
# 3 -0.004400 -0.003628 0.011448 0.000003 -0.000001 0.000000
# 4 -0.000001 -0.000001 0.000003 0.032364 -0.000001 -0.000001
# 5 0.000000 0.000000 -0.000001 -0.000001 0.034671 0.000000
# 6 0.000000 0.000001 0.000000 -0.000001 0.000000 0.063023
#
#
# Mechanical properties :
#
#
# Convention : Reuss Voigt Hill
#
# Bulk Modulus (GPa) = 75.49643 76.24422 75.87033
# Shear Modulus (GPa) = 26.25337 28.48556 27.36946
#
# Velocity S-wave (km/s) = 3.64731 3.79920 3.72403
# Velocity P-wave (km/s) = 7.48278 7.60782 7.54556
#
# Compressibility (1/GPa) = 0.01324566
#
# Stress axis : x y z
#
# Youngs Moduli (GPa) = 87.12391 85.56681 87.35251
#
# Poissons Ratio (x) = 0.22721 0.38437
# Poissons Ratio (y) = 0.23134 0.31690
# Poissons Ratio (z) = 0.38337 0.31043
#
# Static dielectric constant tensor:
#      x y z
#    x 1.755210 0.000000 0.000000 
#    y 0.000000 1.672340 0.000000 
#    z 0.000000 0.000000 1.752510 
# 
# From -- ./inp_files/10898.got.cif
#   From: 2010.05.17/outbox.cif.g08.bks.cpg/sg74_6_cif.got.tgz:10898.got - 2010.06.03 17:57:02.
