data_PCOD9537135
_publ_section_title
;
Structure prediction by ZEFSAII (Michael W. Deem and Ramdas Pophale) SiO2 
 PCOD9537135
Probable space group: I M M A
;
_chemical_formula_sum "Si O2"
_cell_formula_units_Z 80
_cell_length_a 9.449227
_cell_length_b 19.045139
_cell_length_c 22.799369
_cell_angle_alpha 90.000000
_cell_angle_beta 90.000000
_cell_angle_gamma 90.000000
_cell_volume 4103.016434
_symmetry_space_group_name_H-M "I M M A"
_symmetry_group_IT_number 74
_symmetry_cell_setting 'orthorhombic'
loop_
_space_group_symop_operation_xyz
x,y,z
-x,1/2-y,z
x,-y,-z
-x,1/2+y,-z
-x,-y,-z
x,1/2+y,-z
-x,y,z
x,1/2-y,z
1/2+x,1/2+y,1/2+z
1/2-x,-y,1/2+z
1/2+x,1/2-y,1/2-z
1/2-x,y,1/2-z
1/2-x,1/2-y,1/2-z
1/2+x,y,1/2-z
1/2-x,1/2+y,1/2+z
1/2+x,-y,1/2+z
loop_
_atom_site_type_symbol
_atom_site_label
_atom_site_fract_x
_atom_site_fract_y
_atom_site_fract_z
Si Si1 0.337242 0.383389 0.987388
Si Si2 0.339775 0.250000 0.513459
Si Si3 0.667408 0.955501 0.128341
Si Si4 0.336839 0.750000 0.629826
Si Si5 0.830846 0.828550 0.187962
Si Si6 0.167811 0.111290 0.373311
O O1 0.500000 0.360006 0.982218
O O2 0.238113 0.320155 0.967796
O O3 0.319945 0.447215 0.942372
O O4 0.312031 0.394736 0.056128
O O5 0.500000 0.250000 0.533378
O O6 0.336190 0.250000 0.441758
O O7 0.500000 0.945187 0.141904
O O8 0.761871 0.893715 0.154264
O O9 0.707511 0.033691 0.149196
O O10 0.500000 0.750000 0.648907
O O11 0.255969 0.821412 0.647728
O O12 0.808127 0.750000 0.161900
O O13 0.750000 0.827971 0.250000
O O14 0.000000 0.837681 0.194790
O O15 0.000000 0.122466 0.363195
#
# Coordination Sequence:
#
# PCOD9537135 Si02
#       6
#    16   8  16   8  16  16
#     4   9  17  29  45  67  98 136 174 212 251 296
#     4   9  17  27  39  59  90 129 172 211 247 291
#     4  10  20  32  51  77 102 131 170 215 261 308
#     4   9  17  29  45  65  94 133 172 209 249 291
#     4  10  22  40  59  78 102 134 171 216 266 315
#     4   9  17  31  49  71 101 138 177 213 250 299
#
# _framework density 19.49785
#
# number of rings (size 3 to 8) (size 9 to 14) (size 15 to 20)
#    0.000    2.600    0.000    1.800    1.400    7.600 
#    0.000    0.000    0.000    6.000    0.000    0.700 
#    0.000    0.000    0.000    0.000    0.000    0.000 
#
# Total GULP energy -222985.286451 kJ/mol
# GULP energy per Si atom -5574.632161 kJ/mol
# Density = 1.945347 g / cm^3
# Si number density = 19.497850 Si / 1000 Ang^3
#
#
#
# Elastic Constant Matrix: (Units=GPa)
#
#
# Indices 1 2 3 4 5 6 
#
# 1 89.7608 101.5733 16.5959 0.0000 0.0000 0.0000
# 2 101.5733 183.4939 12.3981 0.0000 0.0000 0.0000
# 3 16.5959 12.3981 11.6896 0.0000 0.0000 0.0000
# 4 0.0000 0.0000 0.0000 16.1191 0.0000 0.0000
# 5 0.0000 0.0000 0.0000 0.0000 18.1970 0.0000
# 6 0.0000 0.0000 0.0000 0.0000 0.0000 21.3176
#
#
#
# Elastic Compliance Matrix: (Units=1/GPa)
#
#
# Indices 1 2 3 4 5 6 
#
# 1 0.040314 -0.019873 -0.036157 0.000000 0.000000 0.000000
# 2 -0.019873 0.015667 0.011597 0.000000 0.000000 0.000000
# 3 -0.036157 0.011597 0.124579 0.000000 0.000000 0.000000
# 4 0.000000 0.000000 0.000000 0.062038 0.000000 0.000000
# 5 0.000000 0.000000 0.000000 0.000000 0.054954 0.000000
# 6 0.000000 0.000000 0.000000 0.000000 0.000000 0.046910
#
#
# Mechanical properties :
#
#
# Convention : Reuss Voigt Hill
#
# Bulk Modulus (GPa) = 10.90577 60.67542 35.79060
# Shear Modulus (GPa) = 10.77841 21.41854 16.09848
#
# Velocity S-wave (km/s) = 2.35372 3.31797 2.87654
# Velocity P-wave (km/s) = 3.60446 6.77238 5.42482
#
# Compressibility (1/GPa) = 0.09169454
#
# Stress axis : x y z
#
# Youngs Moduli (GPa) = 24.80545 63.82942 8.02706
#
# Poissons Ratio (x) = 1.26846 0.29023
# Poissons Ratio (y) = 0.49295 -0.09309
# Poissons Ratio (z) = 0.89688 -0.74025
#
# Static dielectric constant tensor:
#      x y z
#    x 1.644450 0.000000 0.000000 
#    y 0.000000 1.690990 0.000000 
#    z 0.000000 0.000000 1.708600 
# 
# From -- ./inp_files/64015.got.cif
#   From: 2010.05.17/outbox.cif.g08.bks.cpg/sg74_33_cif.got.tgz:64015.got - 2010.06.03 17:57:02.
