data_PCOD9537772
_publ_section_title
;
Structure prediction by ZEFSAII (Michael W. Deem and Ramdas Pophale) SiO2 
 PCOD9537772
Probable space group: I M M A
;
_chemical_formula_sum "Si O2"
_cell_formula_units_Z 116
_cell_length_a 23.348330
_cell_length_b 8.082734
_cell_length_c 26.925849
_cell_angle_alpha 90.000000
_cell_angle_beta 90.000000
_cell_angle_gamma 90.000000
_cell_volume 5081.401546
_symmetry_space_group_name_H-M "I M M A"
_symmetry_group_IT_number 74
_symmetry_cell_setting 'orthorhombic'
loop_
_space_group_symop_operation_xyz
x,y,z
-x,1/2-y,z
x,-y,-z
-x,1/2+y,-z
-x,-y,-z
x,1/2+y,-z
-x,y,z
x,1/2-y,z
1/2+x,1/2+y,1/2+z
1/2-x,-y,1/2+z
1/2+x,1/2-y,1/2-z
1/2-x,y,1/2-z
1/2-x,1/2-y,1/2-z
1/2+x,y,1/2-z
1/2-x,1/2+y,1/2+z
1/2+x,-y,1/2+z
loop_
_atom_site_type_symbol
_atom_site_label
_atom_site_fract_x
_atom_site_fract_y
_atom_site_fract_z
Si Si1 0.123530 0.060057 0.787049
Si Si2 0.063136 0.553303 0.690660
Si Si3 0.784442 0.559320 0.592636
Si Si4 0.163652 0.940738 0.056136
Si Si5 0.000000 0.750000 0.455104
Si Si6 0.744170 0.946920 0.308765
Si Si7 0.086470 0.047430 0.425956
Si Si8 0.937824 0.441116 0.123600
O O1 0.138846 0.250000 0.780370
O O2 0.179124 0.987687 0.815132
O O3 0.107544 0.998617 0.732730
O O4 0.072606 0.039773 0.825686
O O5 0.060157 0.750000 0.693890
O O6 0.075379 0.517760 0.633037
O O7 0.000000 0.482027 0.702406
O O8 0.772810 0.750000 0.581596
O O9 0.728528 0.461636 0.575554
O O10 0.785848 0.534976 0.652461
O O11 0.845463 0.519651 0.568092
O O12 0.148323 0.750000 0.060320
O O13 0.114611 0.032961 0.086672
O O14 0.163023 0.000000 0.000000
O O15 0.950365 0.597899 0.451931
O O16 0.750243 0.750000 0.318617
O O17 0.750000 0.973197 0.250000
O O18 0.073513 0.250000 0.435252
O O19 0.938389 0.250000 0.138660
O O20 0.000000 0.483134 0.101561
#
# Coordination Sequence:
#
# PCOD9537772 Si02
#       8
#    16  16  16  16   4  16  16  16
#     4  11  22  33  52  82 118 167 218 275 327 387
#     4  10  20  35  51  75 119 166 219 275 321 378
#     4  11  23  41  66  95 133 171 214 272 328 387
#     4  12  26  46  73 101 132 165 213 271 332 401
#     4  12  22  36  68  90 132 184 222 268 340 386
#     4  10  21  36  54  84 126 171 221 271 321 387
#     4  10  23  39  59  94 134 172 225 278 325 391
#     4  11  24  43  65  91 126 169 214 265 337 401
#
# _framework density 22.828347000000001
#
# number of rings (size 3 to 8) (size 9 to 14) (size 15 to 20)
#    0.000    1.241    2.069    3.931    2.897    4.138 
#    0.000    0.000    0.000    0.000    0.000    0.483 
#    0.000    0.000    0.000    0.000    0.000    0.000 
#
# Total GULP energy -323419.358919 kJ/mol
# GULP energy per Si atom -5576.195843 kJ/mol
# Density = 2.277639 g / cm^3
# Si number density = 22.828347 Si / 1000 Ang^3
#
#
#
# Elastic Constant Matrix: (Units=GPa)
#
#
# Indices 1 2 3 4 5 6 
#
# 1 108.2184 21.8764 14.8192 0.0000 0.0000 0.0000
# 2 21.8764 59.8074 13.2233 0.0000 0.0000 0.0000
# 3 14.8192 13.2233 76.3832 0.0000 0.0000 0.0000
# 4 0.0000 0.0000 0.0000 28.1752 0.0000 0.0000
# 5 0.0000 0.0000 0.0000 0.0000 -1.8488 0.0000
# 6 0.0000 0.0000 0.0000 0.0000 0.0000 37.8636
#
#
#
# Elastic Compliance Matrix: (Units=1/GPa)
#
#
# Indices 1 2 3 4 5 6 
#
# 1 0.010115 -0.003396 -0.001375 0.000000 0.000000 0.000000
# 2 -0.003396 0.018526 -0.002548 0.000000 0.000000 0.000000
# 3 -0.001375 -0.002548 0.013800 0.000000 0.000000 0.000000
# 4 0.000000 0.000000 0.000000 0.035492 0.000000 0.000000
# 5 0.000000 0.000000 0.000000 0.000000 -0.540891 0.000000
# 6 0.000000 0.000000 0.000000 0.000000 0.000000 0.026411
#
#
# Mechanical properties :
#
#
# Convention : Reuss Voigt Hill
#
# Bulk Modulus (GPa) = 35.96715 38.24963 37.10839
# Shear Modulus (GPa) = -12.11704 25.80402 6.84349
#
# Velocity S-wave (km/s) = -2.30639 3.36572 1.73329
# Velocity P-wave (km/s) = 2.94909 5.64763 4.50516
#
# Compressibility (1/GPa) = 0.02780315
#
# Stress axis : x y z
#
# Youngs Moduli (GPa) = 98.85997 53.97821 72.46523
#
# Poissons Ratio (x) = 0.18331 0.09961
# Poissons Ratio (y) = 0.33574 0.18466
# Poissons Ratio (z) = 0.13589 0.13755
#
# Static dielectric constant tensor:
#      x y z
#    x 1.975660 0.000000 0.000000 
#    y 0.000000 1.805110 0.000000 
#    z 0.000000 0.000000 1.852590 
# 
# From -- ./inp_files/68780.got.cif
#   From: 2010.05.17/outbox.cif.g08.bks.cpg/sg74_35_cif.got.tgz:68780.got - 2010.06.03 17:57:02.
