data_PCOD9537766
_publ_section_title
;
Structure prediction by ZEFSAII (Michael W. Deem and Ramdas Pophale) SiO2 
 PCOD9537766
Probable space group: I M M A
;
_chemical_formula_sum "Si O2"
_cell_formula_units_Z 80
_cell_length_a 13.517442
_cell_length_b 24.788255
_cell_length_c 12.812067
_cell_angle_alpha 90.000000
_cell_angle_beta 90.000000
_cell_angle_gamma 90.000000
_cell_volume 4292.987966
_symmetry_space_group_name_H-M "I M M A"
_symmetry_group_IT_number 74
_symmetry_cell_setting 'orthorhombic'
loop_
_space_group_symop_operation_xyz
x,y,z
-x,1/2-y,z
x,-y,-z
-x,1/2+y,-z
-x,-y,-z
x,1/2+y,-z
-x,y,z
x,1/2-y,z
1/2+x,1/2+y,1/2+z
1/2-x,-y,1/2+z
1/2+x,1/2-y,1/2-z
1/2-x,y,1/2-z
1/2-x,1/2-y,1/2-z
1/2+x,y,1/2-z
1/2-x,1/2+y,1/2+z
1/2+x,-y,1/2+z
loop_
_atom_site_type_symbol
_atom_site_label
_atom_site_fract_x
_atom_site_fract_y
_atom_site_fract_z
Si Si1 0.120790 0.996576 0.330545
Si Si2 0.179199 0.311150 0.395633
Si Si3 0.881094 0.913767 0.501899
Si Si4 0.119074 0.029364 0.105100
Si Si5 0.885633 0.653849 0.832784
O O1 0.149273 0.944141 0.396492
O O2 0.000000 0.998259 0.330128
O O3 0.151541 0.048449 0.400258
O O4 0.152072 0.999998 0.210952
O O5 0.143478 0.250000 0.407803
O O6 0.155326 0.353218 0.486096
O O7 0.130566 0.337764 0.291497
O O8 0.297505 0.310972 0.380141
O O9 0.000000 0.913362 0.505202
O O10 0.135426 0.093036 0.126577
O O11 0.000000 0.024831 0.101310
O O12 0.155599 0.000000 0.000000
O O13 0.000000 0.666895 0.856902
#
# Coordination Sequence:
#
# PCOD9537766 Si02
#       5
#    16  16  16  16  16
#     4   8  14  27  49  75 104 137 169 206 261 318
#     4  11  22  33  49  76 102 134 184 223 258 314
#     4   9  16  29  50  75 105 137 168 210 262 313
#     4   9  16  29  50  75 105 138 171 211 256 313
#     4  10  20  35  49  69 105 140 172 214 267 318
#
# _framework density 18.63504
#
# number of rings (size 3 to 8) (size 9 to 14) (size 15 to 20)
#    0.000    2.600    2.000    3.000    0.000    2.800 
#    3.600    0.000    0.000    0.000    0.000    4.200 
#    0.000   16.000    0.000    0.000    0.000    1.200 
#
# Total GULP energy -223150.148006 kJ/mol
# GULP energy per Si atom -5578.753700 kJ/mol
# Density = 1.859263 g / cm^3
# Si number density = 18.635040 Si / 1000 Ang^3
#
#
#
# Elastic Constant Matrix: (Units=GPa)
#
#
# Indices 1 2 3 4 5 6 
#
# 1 78.3710 13.4210 11.9097 0.0000 0.0000 0.0000
# 2 13.4210 142.7275 73.0205 0.0000 0.0000 0.0000
# 3 11.9097 73.0205 113.7114 0.0000 0.0000 0.0000
# 4 0.0000 0.0000 0.0000 10.3482 0.0000 0.0000
# 5 0.0000 0.0000 0.0000 0.0000 14.0170 0.0000
# 6 0.0000 0.0000 0.0000 0.0000 0.0000 19.8625
#
#
#
# Elastic Compliance Matrix: (Units=1/GPa)
#
#
# Indices 1 2 3 4 5 6 
#
# 1 0.013025 -0.000785 -0.000860 0.000000 0.000000 0.000000
# 2 -0.000785 0.010482 -0.006649 0.000000 0.000000 0.000000
# 3 -0.000860 -0.006649 0.013154 0.000000 0.000000 0.000000
# 4 0.000000 0.000000 0.000000 0.096635 0.000000 0.000000
# 5 0.000000 0.000000 0.000000 0.000000 0.071342 0.000000
# 6 0.000000 0.000000 0.000000 0.000000 0.000000 0.050346
#
#
# Mechanical properties :
#
#
# Convention : Reuss Voigt Hill
#
# Bulk Modulus (GPa) = 49.81789 59.05693 54.43741
# Shear Modulus (GPa) = 17.96867 24.60944 21.28906
#
# Velocity S-wave (km/s) = 3.10859 3.63795 3.38364
# Velocity P-wave (km/s) = 6.29888 7.02897 6.67392
#
# Compressibility (1/GPa) = 0.02007311
#
# Stress axis : x y z
#
# Youngs Moduli (GPa) = 76.77586 95.40471 76.02363
#
# Poissons Ratio (x) = 0.07485 0.06541
# Poissons Ratio (y) = 0.06024 0.50546
# Poissons Ratio (z) = 0.06605 0.63432
#
# Static dielectric constant tensor:
#      x y z
#    x 1.725640 0.000000 0.000000 
#    y 0.000000 1.636680 0.000000 
#    z 0.000000 0.000000 1.639040 
# 
# From -- ./inp_files/20448.got.cif
#   From: 2010.05.17/outbox.cif.g08.bks.cpg/sg74_11_cif.got.tgz:20448.got - 2010.06.03 17:57:02.
