data_PCOD9537811
_publ_section_title
;
Structure prediction by ZEFSAII (Michael W. Deem and Ramdas Pophale) SiO2 
 PCOD9537811
Probable space group: I M M A
;
_chemical_formula_sum "Si O2"
_cell_formula_units_Z 96
_cell_length_a 8.454597
_cell_length_b 27.538429
_cell_length_c 19.912506
_cell_angle_alpha 90.000000
_cell_angle_beta 90.000000
_cell_angle_gamma 90.000000
_cell_volume 4636.155478
_symmetry_space_group_name_H-M "I M M A"
_symmetry_group_IT_number 74
_symmetry_cell_setting 'orthorhombic'
loop_
_space_group_symop_operation_xyz
x,y,z
-x,1/2-y,z
x,-y,-z
-x,1/2+y,-z
-x,-y,-z
x,1/2+y,-z
-x,y,z
x,1/2-y,z
1/2+x,1/2+y,1/2+z
1/2-x,-y,1/2+z
1/2+x,1/2-y,1/2-z
1/2-x,y,1/2-z
1/2-x,1/2-y,1/2-z
1/2+x,y,1/2-z
1/2-x,1/2+y,1/2+z
1/2+x,-y,1/2+z
loop_
_atom_site_type_symbol
_atom_site_label
_atom_site_fract_x
_atom_site_fract_y
_atom_site_fract_z
Si Si1 0.320077 0.691995 0.035891
Si Si2 0.819333 0.449721 0.679422
Si Si3 0.689345 0.194688 0.392019
Si Si4 0.308109 0.402588 0.324206
Si Si5 0.685946 0.515366 0.572129
Si Si6 0.319677 0.333073 0.820574
O O1 0.500000 0.671714 0.033972
O O2 0.330148 0.750000 0.033881
O O3 0.243647 0.679840 0.107826
O O4 0.231310 0.678271 0.967888
O O5 0.750000 0.467099 0.750000
O O6 0.711962 0.469521 0.620273
O O7 0.820052 0.391469 0.681383
O O8 0.000000 0.466206 0.670471
O O9 0.500000 0.196991 0.386680
O O10 0.750577 0.250000 0.380773
O O11 0.745238 0.152227 0.342584
O O12 0.500000 0.404076 0.323936
O O13 0.250000 0.415950 0.250000
O O14 0.252410 0.439318 0.383287
O O15 0.755835 0.500000 0.500000
O O16 0.500000 0.525349 0.561615
O O17 0.500000 0.315014 0.823906
O O18 0.250000 0.315567 0.750000
#
# Coordination Sequence:
#
# PCOD9537811 Si02
#       6
#    16  16  16  16  16  16
#     4   9  18  33  52  75 106 141 177 222 273 323
#     4  10  20  35  54  76 105 141 180 222 267 317
#     4   9  19  36  57  82 110 140 178 223 271 326
#     4  10  22  39  58  83 113 145 180 222 272 322
#     4  10  22  38  56  81 111 144 181 222 269 320
#     4   9  19  33  49  74 105 139 180 224 270 320
#
# _framework density 20.706813
#
# number of rings (size 3 to 8) (size 9 to 14) (size 15 to 20)
#    0.000    2.500    0.000    1.000    2.333    5.000 
#    0.000    0.000    0.000    0.000    0.000    0.000 
#    0.000    0.000    0.000    0.000    0.000    0.000 
#
# Total GULP energy -267531.615031 kJ/mol
# GULP energy per Si atom -5573.575313 kJ/mol
# Density = 2.065968 g / cm^3
# Si number density = 20.706813 Si / 1000 Ang^3
#
#
#
# Elastic Constant Matrix: (Units=GPa)
#
#
# Indices 1 2 3 4 5 6 
#
# 1 -3.4250 16.3366 -1.0010 0.0000 0.0000 0.0000
# 2 16.3366 58.7698 51.4066 0.0000 0.0000 0.0000
# 3 -1.0010 51.4066 146.6121 0.0000 0.0000 0.0000
# 4 0.0000 0.0000 0.0000 -12.8752 0.0000 0.0000
# 5 0.0000 0.0000 0.0000 0.0000 29.3737 0.0000
# 6 0.0000 0.0000 0.0000 0.0000 0.0000 13.5425
#
#
#
# Elastic Compliance Matrix: (Units=1/GPa)
#
#
# Indices 1 2 3 4 5 6 
#
# 1 -0.097405 0.039893 -0.014653 0.000000 0.000000 0.000000
# 2 0.039893 0.008204 -0.002604 0.000000 0.000000 0.000000
# 3 -0.014653 -0.002604 0.007634 0.000000 0.000000 0.000000
# 4 0.000000 0.000000 0.000000 -0.077669 0.000000 0.000000
# 5 0.000000 0.000000 0.000000 0.000000 0.034044 0.000000
# 6 0.000000 0.000000 0.000000 0.000000 0.000000 0.073841
#
#
# Mechanical properties :
#
#
# Convention : Reuss Voigt Hill
#
# Bulk Modulus (GPa) = -27.55193 37.27126 4.85966
# Shear Modulus (GPa) = -45.98900 15.02253 -15.48323
#
# Velocity S-wave (km/s) = -4.71782 2.69641 -2.73744
# Velocity P-wave (km/s) = 6.55833 5.26619 2.76396
#
# Compressibility (1/GPa) = -0.03629509
#
# Stress axis : x y z
#
# Youngs Moduli (GPa) = -10.26636 121.88921 130.99617
#
# Poissons Ratio (x) = -4.86256 1.91946
# Poissons Ratio (y) = 0.40956 0.34115
# Poissons Ratio (z) = -0.15043 0.31743
#
# Static dielectric constant tensor:
#      x y z
#    x 1.750610 0.000000 0.000000 
#    y 0.000000 1.767580 0.000000 
#    z 0.000000 0.000000 1.763250 
# 
# From -- ./inp_files/49140.got.cif
#   From: 2010.05.17/outbox.cif.g08.bks.cpg/sg74_25_cif.got.tgz:49140.got - 2010.06.03 17:57:02.
