data_PCOD9537657
_publ_section_title
;
Structure prediction by ZEFSAII (Michael W. Deem and Ramdas Pophale) SiO2 
 PCOD9537657
Probable space group: I M M A
;
_chemical_formula_sum "Si O2"
_cell_formula_units_Z 112
_cell_length_a 15.042575
_cell_length_b 28.965706
_cell_length_c 13.875299
_cell_angle_alpha 90.000000
_cell_angle_beta 90.000000
_cell_angle_gamma 90.000000
_cell_volume 6045.728698
_symmetry_space_group_name_H-M "I M M A"
_symmetry_group_IT_number 74
_symmetry_cell_setting 'orthorhombic'
loop_
_space_group_symop_operation_xyz
x,y,z
-x,1/2-y,z
x,-y,-z
-x,1/2+y,-z
-x,-y,-z
x,1/2+y,-z
-x,y,z
x,1/2-y,z
1/2+x,1/2+y,1/2+z
1/2-x,-y,1/2+z
1/2+x,1/2-y,1/2-z
1/2-x,y,1/2-z
1/2-x,1/2-y,1/2-z
1/2+x,y,1/2-z
1/2-x,1/2+y,1/2+z
1/2+x,-y,1/2+z
loop_
_atom_site_type_symbol
_atom_site_label
_atom_site_fract_x
_atom_site_fract_y
_atom_site_fract_z
Si Si1 0.286332 0.362874 0.148271
Si Si2 0.897174 0.305316 0.498727
Si Si3 0.608855 0.802785 0.216191
Si Si4 0.601240 0.557011 0.113052
Si Si5 0.702431 0.032300 0.153395
Si Si6 0.222651 0.080752 0.994859
Si Si7 0.395991 0.106784 0.680715
O O1 0.250000 0.345488 0.250000
O O2 0.349683 0.329196 0.090443
O O3 0.327127 0.414343 0.169299
O O4 0.211859 0.376270 0.068090
O O5 0.892824 0.250000 0.489810
O O6 0.862224 0.315524 0.607163
O O7 0.000000 0.319511 0.498380
O O8 0.500000 0.803648 0.214253
O O9 0.635211 0.750000 0.237666
O O10 0.637108 0.841657 0.291855
O O11 0.500000 0.563652 0.080299
O O12 0.627499 0.503166 0.121656
O O13 0.676096 0.579605 0.045785
O O14 0.610069 0.578637 0.219526
O O15 0.750000 0.015510 0.250000
O O16 0.776135 0.038085 0.069399
O O17 0.159008 0.083788 0.904728
O O18 0.500000 0.109205 0.654392
#
# Coordination Sequence:
#
# PCOD9537657 Si02
#       7
#    16  16  16  16  16  16  16
#     4   9  20  35  51  74  99 138 178 221 270 319
#     4   9  17  31  53  79 104 133 173 223 277 327
#     4   8  15  30  53  82 114 142 172 218 272 324
#     4  11  22  34  54  84 108 137 178 225 277 330
#     4   9  20  37  54  73 104 141 178 224 273 319
#     4  10  20  35  54  75 108 141 177 222 267 316
#     4  10  20  34  55  82 112 147 183 215 267 332
#
# _framework density 18.525475
#
# number of rings (size 3 to 8) (size 9 to 14) (size 15 to 20)
#    0.857    1.714    0.000    3.429    0.000    3.714 
#    0.000    2.143    0.000    6.857    0.000    2.000 
#    0.000    0.000    0.000    0.000    0.000    0.000 
#
# Total GULP energy -311797.868099 kJ/mol
# GULP energy per Si atom -5567.819073 kJ/mol
# Density = 1.848331 g / cm^3
# Si number density = 18.525475 Si / 1000 Ang^3
#
#
#
# Elastic Constant Matrix: (Units=GPa)
#
#
# Indices 1 2 3 4 5 6 
#
# 1 51.8223 15.7726 46.1789 0.0000 0.0000 0.0000
# 2 15.7726 59.9573 22.4186 0.0001 0.0000 0.0000
# 3 46.1789 22.4186 114.8591 0.0000 0.0000 0.0000
# 4 0.0000 0.0001 0.0000 10.1332 0.0000 0.0000
# 5 0.0000 0.0000 0.0000 0.0000 13.5459 0.0000
# 6 0.0000 0.0000 0.0000 0.0000 0.0000 15.6173
#
#
#
# Elastic Compliance Matrix: (Units=1/GPa)
#
#
# Indices 1 2 3 4 5 6 
#
# 1 0.030832 -0.003749 -0.011664 0.000000 0.000000 0.000000
# 2 -0.003749 0.018448 -0.002093 0.000000 0.000000 0.000000
# 3 -0.011664 -0.002093 0.013804 0.000000 0.000000 0.000000
# 4 0.000000 0.000000 0.000000 0.098686 0.000000 0.000000
# 5 0.000000 0.000000 0.000000 0.000000 0.073823 0.000000
# 6 0.000000 0.000000 0.000000 0.000000 0.000000 0.064032
#
#
# Mechanical properties :
#
#
# Convention : Reuss Voigt Hill
#
# Bulk Modulus (GPa) = 35.62479 43.93098 39.77789
# Shear Modulus (GPa) = 14.53513 17.34385 15.93949
#
# Velocity S-wave (km/s) = 2.80411 3.06308 2.93646
# Velocity P-wave (km/s) = 5.45490 6.02290 5.74592
#
# Compressibility (1/GPa) = 0.02807034
#
# Stress axis : x y z
#
# Youngs Moduli (GPa) = 32.43414 54.20776 72.44077
#
# Poissons Ratio (x) = 0.20325 0.84495
# Poissons Ratio (y) = 0.12161 0.15163
# Poissons Ratio (z) = 0.37831 0.11347
#
# Static dielectric constant tensor:
#      x y z
#    x 1.635900 0.000000 0.000000 
#    y 0.000000 1.694900 0.000000 
#    z 0.000000 0.000000 1.647020 
# 
# From -- ./inp_files/32957.got.cif
#   From: 2010.05.17/outbox.cif.g08.bks.cpg/sg74_17_cif.got.tgz:32957.got - 2010.06.03 17:57:02.
