data_PCOD9537608
_publ_section_title
;
Structure prediction by ZEFSAII (Michael W. Deem and Ramdas Pophale) SiO2 
 PCOD9537608
Probable space group: I M M A
;
_chemical_formula_sum "Si O2"
_cell_formula_units_Z 80
_cell_length_a 8.851865
_cell_length_b 18.787644
_cell_length_c 26.585275
_cell_angle_alpha 90.000000
_cell_angle_beta 90.000000
_cell_angle_gamma 90.000000
_cell_volume 4421.282459
_symmetry_space_group_name_H-M "I M M A"
_symmetry_group_IT_number 74
_symmetry_cell_setting 'orthorhombic'
loop_
_space_group_symop_operation_xyz
x,y,z
-x,1/2-y,z
x,-y,-z
-x,1/2+y,-z
-x,-y,-z
x,1/2+y,-z
-x,y,z
x,1/2-y,z
1/2+x,1/2+y,1/2+z
1/2-x,-y,1/2+z
1/2+x,1/2-y,1/2-z
1/2-x,y,1/2-z
1/2-x,1/2-y,1/2-z
1/2+x,y,1/2-z
1/2-x,1/2+y,1/2+z
1/2+x,-y,1/2+z
loop_
_atom_site_type_symbol
_atom_site_label
_atom_site_fract_x
_atom_site_fract_y
_atom_site_fract_z
Si Si1 0.825496 0.164260 0.892230
Si Si2 0.319562 0.424795 0.302614
Si Si3 0.181692 0.165564 0.392073
Si Si4 0.174456 0.336529 0.504576
Si Si5 0.679507 0.581937 0.198033
O O1 0.812785 0.250000 0.890268
O O2 0.723955 0.129867 0.849214
O O3 0.000000 0.144942 0.883771
O O4 0.772420 0.140897 0.947807
O O5 0.500000 0.427695 0.299050
O O6 0.250000 0.397286 0.250000
O O7 0.266095 0.377094 0.348987
O O8 0.252569 0.504044 0.309247
O O9 0.211980 0.250000 0.387703
O O10 0.224880 0.141504 0.448710
O O11 0.000000 0.156104 0.387625
O O12 0.175380 0.250000 0.503657
O O13 0.000000 0.358421 0.511874
O O14 0.500000 0.575399 0.203141
O O15 0.750000 0.611086 0.250000
#
# Coordination Sequence:
#
# PCOD9537608 Si02
#       5
#    16  16  16  16  16
#     4  10  20  34  54  81 111 140 173 214 258 307
#     4  11  22  37  56  77 105 139 176 217 264 317
#     4   9  18  34  56  81 109 140 176 217 260 309
#     4   8  15  30  52  77 106 140 174 210 257 309
#     4  11  22  38  58  77 103 138 176 217 263 315
#
# _framework density 18.094297999999998
#
# number of rings (size 3 to 8) (size 9 to 14) (size 15 to 20)
#    0.000    2.200    0.000    6.600    0.000    3.200 
#    0.000    3.000    0.000    6.000    0.000    0.000 
#    0.000    0.000    0.000    0.000    0.000    0.000 
#
# Total GULP energy -223227.269419 kJ/mol
# GULP energy per Si atom -5580.681735 kJ/mol
# Density = 1.805311 g / cm^3
# Si number density = 18.094298 Si / 1000 Ang^3
#
#
#
# Elastic Constant Matrix: (Units=GPa)
#
#
# Indices 1 2 3 4 5 6 
#
# 1 123.0003 32.0219 74.7435 0.0000 0.0000 0.0000
# 2 32.0219 17.4984 37.1021 0.0000 0.0000 0.0000
# 3 74.7435 37.1021 150.3565 0.0000 0.0000 0.0000
# 4 0.0000 0.0000 0.0000 129.8170 0.0000 0.0000
# 5 0.0000 0.0000 0.0000 0.0000 36.6869 0.0000
# 6 0.0000 0.0000 0.0000 0.0000 0.0000 23.7871
#
#
#
# Elastic Compliance Matrix: (Units=1/GPa)
#
#
# Indices 1 2 3 4 5 6 
#
# 1 0.015687 -0.025530 -0.001498 0.000000 0.000000 0.000000
# 2 -0.025530 0.161410 -0.027138 0.000000 0.000000 0.000000
# 3 -0.001498 -0.027138 0.014092 0.000000 0.000000 0.000000
# 4 0.000000 0.000000 0.000000 0.007703 0.000000 0.000000
# 5 0.000000 0.000000 0.000000 0.000000 0.027258 0.000000
# 6 0.000000 0.000000 0.000000 0.000000 0.000000 0.042040
#
#
# Mechanical properties :
#
#
# Convention : Reuss Voigt Hill
#
# Bulk Modulus (GPa) = 12.06921 64.28780 38.17850
# Shear Modulus (GPa) = 12.37188 47.85737 30.11463
#
# Velocity S-wave (km/s) = 2.61769 5.14843 4.08403
# Velocity P-wave (km/s) = 3.97757 8.42307 6.58670
#
# Compressibility (1/GPa) = 0.08285545
#
# Stress axis : x y z
#
# Youngs Moduli (GPa) = 63.74652 6.19541 70.96066
#
# Poissons Ratio (x) = 0.15817 0.10632
# Poissons Ratio (y) = 1.62748 1.92574
# Poissons Ratio (z) = 0.09551 0.16813
#
# Static dielectric constant tensor:
#      x y z
#    x 1.606820 0.000000 0.000000 
#    y 0.000000 1.602140 0.000000 
#    z 0.000000 0.000000 1.625620 
# 
# From -- ./inp_files/63928.got.cif
#   From: 2010.05.17/outbox.cif.g08.bks.cpg/sg74_32_cif.got.tgz:63928.got - 2010.06.03 17:57:02.
