data_PCOD9537569
_publ_section_title
;
Structure prediction by ZEFSAII (Michael W. Deem and Ramdas Pophale) SiO2 
 PCOD9537569
Probable space group: I M M A
;
_chemical_formula_sum "Si O2"
_cell_formula_units_Z 88
_cell_length_a 9.142277
_cell_length_b 31.082863
_cell_length_c 18.300396
_cell_angle_alpha 90.000000
_cell_angle_beta 90.000000
_cell_angle_gamma 90.000000
_cell_volume 5200.389557
_symmetry_space_group_name_H-M "I M M A"
_symmetry_group_IT_number 74
_symmetry_cell_setting 'orthorhombic'
loop_
_space_group_symop_operation_xyz
x,y,z
-x,1/2-y,z
x,-y,-z
-x,1/2+y,-z
-x,-y,-z
x,1/2+y,-z
-x,y,z
x,1/2-y,z
1/2+x,1/2+y,1/2+z
1/2-x,-y,1/2+z
1/2+x,1/2-y,1/2-z
1/2-x,y,1/2-z
1/2-x,1/2-y,1/2-z
1/2+x,y,1/2-z
1/2-x,1/2+y,1/2+z
1/2+x,-y,1/2+z
loop_
_atom_site_type_symbol
_atom_site_label
_atom_site_fract_x
_atom_site_fract_y
_atom_site_fract_z
Si Si1 0.325295 0.547145 0.472844
Si Si2 0.675421 0.299231 0.328482
Si Si3 0.670873 0.921016 0.174044
Si Si4 0.675395 0.863364 0.540703
Si Si5 0.172361 0.250000 0.827517
Si Si6 0.669978 0.670673 0.103136
O O1 0.281932 0.500000 0.500000
O O2 0.500000 0.547146 0.459577
O O3 0.245416 0.557969 0.397014
O O4 0.297848 0.585236 0.532251
O O5 0.500000 0.300399 0.319525
O O6 0.712879 0.250000 0.353531
O O7 0.750000 0.305814 0.250000
O O8 0.713630 0.336739 0.386260
O O9 0.500000 0.932504 0.177737
O O10 0.750000 0.931361 0.250000
O O11 0.680780 0.869930 0.157601
O O12 0.500000 0.857033 0.528670
O O13 0.769837 0.843970 0.475041
O O14 0.250000 0.250000 0.750000
O O15 0.227948 0.208428 0.869696
O O16 0.000000 0.250000 0.818844
O O17 0.500000 0.683691 0.099471
#
# Coordination Sequence:
#
# PCOD9537569 Si02
#       6
#    16  16  16  16   8  16
#     4   9  18  34  55  77 104 137 172 213 264 317
#     4   9  18  32  50  73 101 133 171 212 259 312
#     4  10  20  34  54  77 103 134 172 215 259 310
#     4   9  18  33  53  76 102 135 173 213 258 312
#     4  12  24  36  50  70 101 138 173 210 252 296
#     4  10  21  35  51  75 103 134 173 214 255 302
#
# _framework density 16.921809
#
# number of rings (size 3 to 8) (size 9 to 14) (size 15 to 20)
#    0.000    2.364    0.000    2.455    1.273    4.727 
#    0.000    0.909    0.000    2.182    0.000    0.000 
#    0.000    0.000    0.000    0.000    0.000    0.000 
#
# Total GULP energy -245284.337899 kJ/mol
# GULP energy per Si atom -5574.644043 kJ/mol
# Density = 1.688329 g / cm^3
# Si number density = 16.921809 Si / 1000 Ang^3
#
#
#
# Elastic Constant Matrix: (Units=GPa)
#
#
# Indices 1 2 3 4 5 6 
#
# 1 75.7270 60.3965 43.8044 0.0000 0.0000 0.0000
# 2 60.3965 123.0536 70.8343 0.0001 0.0000 0.0000
# 3 43.8044 70.8343 100.5940 0.0002 0.0000 0.0000
# 4 0.0000 0.0001 0.0002 6.6049 0.0000 0.0000
# 5 0.0000 0.0000 0.0000 0.0000 29.7689 0.0000
# 6 0.0000 0.0000 0.0000 0.0000 0.0000 18.1975
#
#
#
# Elastic Compliance Matrix: (Units=1/GPa)
#
#
# Indices 1 2 3 4 5 6 
#
# 1 0.022362 -0.009031 -0.003379 0.000000 0.000000 0.000000
# 2 -0.009031 0.017313 -0.008259 0.000000 0.000000 0.000000
# 3 -0.003379 -0.008259 0.017228 -0.000001 0.000000 0.000000
# 4 0.000000 0.000000 -0.000001 0.151404 0.000000 0.000000
# 5 0.000000 0.000000 0.000000 0.000000 0.033592 0.000000
# 6 0.000000 0.000000 0.000000 0.000000 0.000000 0.054953
#
#
# Mechanical properties :
#
#
# Convention : Reuss Voigt Hill
#
# Bulk Modulus (GPa) = 64.23971 72.16056 68.20014
# Shear Modulus (GPa) = 14.56128 19.20353 16.88240
#
# Velocity S-wave (km/s) = 2.93662 3.37239 3.16202
# Velocity P-wave (km/s) = 7.03871 7.60921 7.32951
#
# Compressibility (1/GPa) = 0.01556669
#
# Stress axis : x y z
#
# Youngs Moduli (GPa) = 44.71806 57.76019 58.04654
#
# Poissons Ratio (x) = 0.52162 0.19612
# Poissons Ratio (y) = 0.40384 0.47938
# Poissons Ratio (z) = 0.15109 0.47702
#
# Static dielectric constant tensor:
#      x y z
#    x 1.558690 0.000000 0.000000 
#    y 0.000000 1.591230 0.000000 
#    z 0.000000 0.000000 1.576710 
# 
# From -- ./inp_files/40072.got.cif
#   From: 2010.05.17/outbox.cif.g08.bks.cpg/sg74_21_cif.got.tgz:40072.got - 2010.06.03 17:57:02.
