data_PCOD9537397
_publ_section_title
;
Structure prediction by ZEFSAII (Michael W. Deem and Ramdas Pophale) SiO2 
 PCOD9537397
Probable space group: I M M A
;
_chemical_formula_sum "Si O2"
_cell_formula_units_Z 104
_cell_length_a 23.131133
_cell_length_b 8.128140
_cell_length_c 31.389023
_cell_angle_alpha 90.000000
_cell_angle_beta 90.000000
_cell_angle_gamma 90.000000
_cell_volume 5901.547124
_symmetry_space_group_name_H-M "I M M A"
_symmetry_group_IT_number 74
_symmetry_cell_setting 'orthorhombic'
loop_
_space_group_symop_operation_xyz
x,y,z
-x,1/2-y,z
x,-y,-z
-x,1/2+y,-z
-x,-y,-z
x,1/2+y,-z
-x,y,z
x,1/2-y,z
1/2+x,1/2+y,1/2+z
1/2-x,-y,1/2+z
1/2+x,1/2-y,1/2-z
1/2-x,y,1/2-z
1/2-x,1/2-y,1/2-z
1/2+x,y,1/2-z
1/2-x,1/2+y,1/2+z
1/2+x,-y,1/2+z
loop_
_atom_site_type_symbol
_atom_site_label
_atom_site_fract_x
_atom_site_fract_y
_atom_site_fract_z
Si Si1 0.433675 0.948386 0.807683
Si Si2 0.348424 0.051387 0.452539
Si Si3 0.566887 0.451942 0.377777
Si Si4 0.929666 0.059367 0.215455
Si Si5 0.500000 0.949034 0.049212
Si Si6 0.716511 0.053578 0.047415
Si Si7 0.110640 0.054411 0.603272
O O1 0.500000 0.006083 0.814776
O O2 0.435741 0.750000 0.804393
O O3 0.412756 0.012421 0.761415
O O4 0.396793 0.993218 0.848642
O O5 0.347801 0.250000 0.451156
O O6 0.391479 0.993511 0.415665
O O7 0.282315 0.992643 0.445958
O O8 0.366608 0.000000 0.500000
O O9 0.500000 0.499495 0.384747
O O10 0.567568 0.250000 0.376576
O O11 0.586196 0.511418 0.330689
O O12 0.910350 0.250000 0.215054
O O13 0.000000 0.060671 0.215973
O O14 0.500000 0.750000 0.050293
O O15 0.442903 0.008919 0.074297
O O16 0.500000 0.000000 0.000000
O O17 0.717668 0.250000 0.048640
O O18 0.670660 0.992949 0.081597
O O19 0.698149 0.000000 0.000000
O O20 0.105952 0.250000 0.603995
#
# Coordination Sequence:
#
# PCOD9537397 Si02
#       7
#    16  16  16  16   8  16  16
#     4   9  16  27  45  69  94 120 150 188 234 278
#     4   9  18  31  48  70  96 125 157 192 228 270
#     4   8  13  24  45  73 101 126 152 186 230 274
#     4   7  11  21  40  67  95 120 150 187 225 269
#     4  10  22  34  44  62  88 114 142 182 231 278
#     4  10  20  34  49  66  88 119 160 197 230 272
#     4  11  21  33  47  66  91 120 154 192 235 280
#
# _framework density 17.622496000000002
#
# number of rings (size 3 to 8) (size 9 to 14) (size 15 to 20)
#    0.000    2.923    0.769    3.231    0.000    3.385 
#    0.000    0.000    0.000    1.846    0.000    8.615 
#    0.000    0.000    0.000    0.000    0.000    0.000 
#
# Total GULP energy -289673.568485 kJ/mol
# GULP energy per Si atom -5570.645548 kJ/mol
# Density = 1.758239 g / cm^3
# Si number density = 17.622496 Si / 1000 Ang^3
#
#
#
# Elastic Constant Matrix: (Units=GPa)
#
#
# Indices 1 2 3 4 5 6 
#
# 1 67.9223 7.2981 90.7052 0.0000 0.0000 0.0000
# 2 7.2981 12.2442 12.1805 0.0000 0.0000 0.0000
# 3 90.7052 12.1805 211.2369 0.0000 0.0000 0.0000
# 4 0.0000 0.0000 0.0000 18.3190 0.0000 0.0000
# 5 0.0000 0.0000 0.0000 0.0000 18.2006 0.0000
# 6 0.0000 0.0000 0.0000 0.0000 0.0000 10.0648
#
#
#
# Elastic Compliance Matrix: (Units=1/GPa)
#
#
# Indices 1 2 3 4 5 6 
#
# 1 0.034961 -0.006264 -0.014651 0.000000 0.000000 0.000000
# 2 -0.006264 0.087763 -0.002371 0.000000 0.000000 0.000000
# 3 -0.014651 -0.002371 0.011162 0.000000 0.000000 0.000000
# 4 0.000000 0.000000 0.000000 0.054588 0.000000 0.000000
# 5 0.000000 0.000000 0.000000 0.000000 0.054943 0.000000
# 6 0.000000 0.000000 0.000000 0.000000 0.000000 0.099356
#
#
# Mechanical properties :
#
#
# Convention : Reuss Voigt Hill
#
# Bulk Modulus (GPa) = 11.45281 56.86345 34.15813
# Shear Modulus (GPa) = 11.94885 21.39820 16.67352
#
# Velocity S-wave (km/s) = 2.60675 3.48840 3.07929
# Velocity P-wave (km/s) = 3.94630 6.96870 5.66287
#
# Compressibility (1/GPa) = 0.08731483
#
# Stress axis : x y z
#
# Youngs Moduli (GPa) = 28.60296 11.39430 89.58958
#
# Poissons Ratio (x) = 0.07137 1.31260
# Poissons Ratio (y) = 0.17916 0.21243
# Poissons Ratio (z) = 0.41907 0.02702
#
# Static dielectric constant tensor:
#      x y z
#    x 1.589140 0.000000 0.000000 
#    y 0.000000 1.640810 0.000000 
#    z 0.000000 0.000000 1.618580 
# 
# From -- ./inp_files/68675.got.cif
#   From: 2010.05.17/outbox.cif.g08.bks.cpg/sg74_35_cif.got.tgz:68675.got - 2010.06.03 17:57:02.
