data_PCOD9537253
_publ_section_title
;
Structure prediction by ZEFSAII (Michael W. Deem and Ramdas Pophale) SiO2 
 PCOD9537253
Probable space group: I M M A
;
_chemical_formula_sum "Si O2"
_cell_formula_units_Z 120
_cell_length_a 8.837221
_cell_length_b 27.023781
_cell_length_c 30.144113
_cell_angle_alpha 90.000000
_cell_angle_beta 90.000000
_cell_angle_gamma 90.000000
_cell_volume 7198.870113
_symmetry_space_group_name_H-M "I M M A"
_symmetry_group_IT_number 74
_symmetry_cell_setting 'orthorhombic'
loop_
_space_group_symop_operation_xyz
x,y,z
-x,1/2-y,z
x,-y,-z
-x,1/2+y,-z
-x,-y,-z
x,1/2+y,-z
-x,y,z
x,1/2-y,z
1/2+x,1/2+y,1/2+z
1/2-x,-y,1/2+z
1/2+x,1/2-y,1/2-z
1/2-x,y,1/2-z
1/2-x,1/2-y,1/2-z
1/2+x,y,1/2-z
1/2-x,1/2+y,1/2+z
1/2+x,-y,1/2+z
loop_
_atom_site_type_symbol
_atom_site_label
_atom_site_fract_x
_atom_site_fract_y
_atom_site_fract_z
Si Si1 0.179609 0.655455 0.342469
Si Si2 0.828690 0.448799 0.962026
Si Si3 0.682842 0.549839 0.200590
Si Si4 0.181620 0.591065 0.944383
Si Si5 0.671054 0.834325 0.436200
Si Si6 0.318524 0.694999 0.973716
Si Si7 0.180806 0.488010 0.385340
Si Si8 0.178109 0.250000 0.797520
O O1 0.226606 0.603087 0.320739
O O2 0.224579 0.662119 0.393447
O O3 0.263544 0.700506 0.319935
O O4 0.000000 0.659560 0.336955
O O5 0.841502 0.390931 0.951423
O O6 0.727539 0.472920 0.923835
O O7 0.000000 0.469763 0.958832
O O8 0.775391 0.444863 0.013387
O O9 0.500000 0.548977 0.204001
O O10 0.750000 0.543563 0.250000
O O11 0.726649 0.509499 0.162889
O O12 0.251651 0.645850 0.950173
O O13 0.240096 0.562605 0.901003
O O14 0.000000 0.595149 0.945373
O O15 0.500000 0.816047 0.426622
O O16 0.747716 0.806378 0.476982
O O17 0.500000 0.689879 0.976030
O O18 0.284446 0.750000 0.954529
O O19 0.000000 0.482258 0.385523
O O20 0.250000 0.250000 0.750000
O O21 0.000000 0.250000 0.795991
#
# Coordination Sequence:
#
# PCOD9537253 Si02
#       8
#    16  16  16  16  16  16  16   8
#     4  11  22  39  58  76 100 132 174 225 277 330
#     4   9  18  32  49  72 103 136 172 211 254 307
#     4  10  23  39  57  80 104 136 177 222 273 329
#     4  10  21  35  52  78 108 141 179 217 262 317
#     4  10  20  33  51  76 103 136 175 217 262 312
#     4  10  21  36  54  76 106 144 181 221 266 311
#     4  11  21  34  52  78 107 138 175 218 268 322
#     4  12  26  42  56  74  94 122 166 222 284 336
#
# _framework density 16.669283
#
# number of rings (size 3 to 8) (size 9 to 14) (size 15 to 20)
#    0.000    1.733    1.333    4.200    0.933    8.533 
#    0.000    0.000    0.000    0.000    0.000    0.000 
#    0.000    0.533    0.000    1.733    0.000    2.133 
#
# Total GULP energy -334660.567683 kJ/mol
# GULP energy per Si atom -5577.676128 kJ/mol
# Density = 1.663134 g / cm^3
# Si number density = 16.669283 Si / 1000 Ang^3
#
#
#
# Elastic Constant Matrix: (Units=GPa)
#
#
# Indices 1 2 3 4 5 6 
#
# 1 72.4975 42.9419 36.9098 0.0000 0.0000 0.0000
# 2 42.9419 110.1784 61.1185 0.0000 0.0000 0.0000
# 3 36.9098 61.1185 91.6301 0.0000 0.0000 0.0000
# 4 0.0000 0.0000 0.0000 4.9068 0.0000 0.0000
# 5 0.0000 0.0000 0.0000 0.0000 26.4802 0.0000
# 6 0.0000 0.0000 0.0000 0.0000 0.0000 137.6556
#
#
#
# Elastic Compliance Matrix: (Units=1/GPa)
#
#
# Indices 1 2 3 4 5 6 
#
# 1 0.018942 -0.005000 -0.004295 0.000000 0.000000 0.000000
# 2 -0.005000 0.015727 -0.008476 0.000000 0.000000 0.000000
# 3 -0.004295 -0.008476 0.018297 0.000000 0.000000 0.000000
# 4 0.000000 0.000000 0.000000 0.203798 0.000000 0.000000
# 5 0.000000 0.000000 0.000000 0.000000 0.037764 0.000000
# 6 0.000000 0.000000 0.000000 0.000000 0.000000 0.007265
#
#
# Mechanical properties :
#
#
# Convention : Reuss Voigt Hill
#
# Bulk Modulus (GPa) = 57.39237 61.80514 59.59875
# Shear Modulus (GPa) = 14.57125 42.69757 28.63441
#
# Velocity S-wave (km/s) = 2.95979 5.06657 4.14913
# Velocity P-wave (km/s) = 6.79597 8.44894 7.66713
#
# Compressibility (1/GPa) = 0.01742392
#
# Stress axis : x y z
#
# Youngs Moduli (GPa) = 52.79313 63.58609 54.65386
#
# Poissons Ratio (x) = 0.31794 0.23473
# Poissons Ratio (y) = 0.26397 0.46324
# Poissons Ratio (z) = 0.22674 0.53894
#
# Static dielectric constant tensor:
#      x y z
#    x 1.559800 0.000000 0.000000 
#    y 0.000000 1.583510 0.000000 
#    z 0.000000 0.000000 1.597590 
# 
# From -- ./inp_files/65090.got.cif
#   From: 2010.05.17/outbox.cif.g08.bks.cpg/sg74_33_cif.got.tgz:65090.got - 2010.06.03 17:57:02.
