data_PCOD9537148
_publ_section_title
;
Structure prediction by ZEFSAII (Michael W. Deem and Ramdas Pophale) SiO2 
 PCOD9537148
Probable space group: I M M A
;
_chemical_formula_sum "Si O2"
_cell_formula_units_Z 96
_cell_length_a 29.539114
_cell_length_b 14.650765
_cell_length_c 10.122494
_cell_angle_alpha 90.000000
_cell_angle_beta 90.000000
_cell_angle_gamma 90.000000
_cell_volume 4380.717979
_symmetry_space_group_name_H-M "I M M A"
_symmetry_group_IT_number 74
_symmetry_cell_setting 'orthorhombic'
loop_
_space_group_symop_operation_xyz
x,y,z
-x,1/2-y,z
x,-y,-z
-x,1/2+y,-z
-x,-y,-z
x,1/2+y,-z
-x,y,z
x,1/2-y,z
1/2+x,1/2+y,1/2+z
1/2-x,-y,1/2+z
1/2+x,1/2-y,1/2-z
1/2-x,y,1/2-z
1/2-x,1/2-y,1/2-z
1/2+x,y,1/2-z
1/2-x,1/2+y,1/2+z
1/2+x,-y,1/2+z
loop_
_atom_site_type_symbol
_atom_site_label
_atom_site_fract_x
_atom_site_fract_y
_atom_site_fract_z
Si Si1 0.227938 0.638491 0.114297
Si Si2 0.876558 0.639083 0.085828
Si Si3 0.448505 0.621543 0.897600
Si Si4 0.131361 0.851787 0.791620
Si Si5 0.213856 0.145225 0.367033
Si Si6 0.448011 0.090060 0.810611
O O1 0.227864 0.750000 0.109952
O O2 0.250000 0.607580 0.250000
O O3 0.175450 0.611667 0.112227
O O4 0.259184 0.607153 0.992540
O O5 0.880160 0.750000 0.092592
O O6 0.912590 0.604004 0.192943
O O7 0.882934 0.608882 0.933131
O O8 0.500000 0.652086 0.880205
O O9 0.412189 0.658801 0.797712
O O10 0.448705 0.514642 0.858061
O O11 0.435764 0.638648 0.050559
O O12 0.150696 0.750000 0.824439
O O13 0.169403 0.898767 0.699742
O O14 0.200754 0.250000 0.405245
O O15 0.250000 0.149068 0.250000
O O16 0.500000 0.115348 0.773700
#
# Coordination Sequence:
#
# PCOD9537148 Si02
#       6
#    16  16  16  16  16  16
#     4   9  17  28  45  74 108 139 173 212 252 307
#     4  10  20  33  51  82 115 139 173 221 271 318
#     4   9  20  39  58  76 100 137 184 225 268 326
#     4  10  20  32  52  83 112 140 175 219 269 319
#     4   9  15  28  47  70 106 144 172 203 251 309
#     4   9  20  39  58  75 101 139 181 225 273 324
#
# _framework density 21.914217000000001
#
# number of rings (size 3 to 8) (size 9 to 14) (size 15 to 20)
#    0.000    2.667    1.667    1.000    2.333    2.667 
#    0.000    5.000    0.000    1.000    0.000    0.000 
#    0.000    0.000    0.000    0.000    0.000    0.000 
#
# Total GULP energy -267700.301453 kJ/mol
# GULP energy per Si atom -5577.089614 kJ/mol
# Density = 2.186434 g / cm^3
# Si number density = 21.914217 Si / 1000 Ang^3
#
#
#
# Elastic Constant Matrix: (Units=GPa)
#
#
# Indices 1 2 3 4 5 6 
#
# 1 162.6280 14.3250 150.0685 0.0000 0.0000 0.0000
# 2 14.3250 49.3403 20.8392 0.0000 0.0000 0.0000
# 3 150.0685 20.8392 234.0026 0.0000 0.0000 0.0000
# 4 0.0000 0.0000 0.0000 35.9575 0.0000 0.0000
# 5 0.0000 0.0000 0.0000 0.0000 55.2409 0.0000
# 6 0.0000 0.0000 0.0000 0.0000 0.0000 -37.5612
#
#
#
# Elastic Compliance Matrix: (Units=1/GPa)
#
#
# Indices 1 2 3 4 5 6 
#
# 1 0.015067 -0.000305 -0.009636 0.000000 0.000000 0.000000
# 2 -0.000305 0.021066 -0.001681 0.000000 0.000000 0.000000
# 3 -0.009636 -0.001681 0.010603 0.000000 0.000000 0.000000
# 4 0.000000 0.000000 0.000000 0.027811 0.000000 0.000000
# 5 0.000000 0.000000 0.000000 0.000000 0.018103 0.000000
# 6 0.000000 0.000000 0.000000 0.000000 0.000000 -0.026623
#
#
# Mechanical properties :
#
#
# Convention : Reuss Voigt Hill
#
# Bulk Modulus (GPa) = 42.56489 90.71514 66.64001
# Shear Modulus (GPa) = 51.49372 28.11000 39.80186
#
# Velocity S-wave (km/s) = 4.85272 3.58541 4.26638
# Velocity P-wave (km/s) = 7.13191 7.65674 7.39898
#
# Compressibility (1/GPa) = 0.02349354
#
# Stress axis : x y z
#
# Youngs Moduli (GPa) = 66.36803 47.47059 94.31584
#
# Poissons Ratio (x) = 0.01447 0.90881
# Poissons Ratio (y) = 0.02023 0.15850
# Poissons Ratio (z) = 0.63951 0.07978
#
# Static dielectric constant tensor:
#      x y z
#    x 1.740770 0.000000 0.000000 
#    y 0.000000 1.962770 0.000000 
#    z 0.000000 0.000000 1.794360 
# 
# From -- ./inp_files/15133.got.cif
#   From: 2010.05.17/outbox.cif.g08.bks.cpg/sg74_8_cif.got.tgz:15133.got - 2010.06.03 17:57:02.
