data_PCOD9537329
_publ_section_title
;
Structure prediction by ZEFSAII (Michael W. Deem and Ramdas Pophale) SiO2 
 PCOD9537329
Probable space group: I M M A
;
_chemical_formula_sum "Si O2"
_cell_formula_units_Z 72
_cell_length_a 27.077024
_cell_length_b 22.883221
_cell_length_c 5.651025
_cell_angle_alpha 90.000000
_cell_angle_beta 90.000000
_cell_angle_gamma 90.000000
_cell_volume 3501.428912
_symmetry_space_group_name_H-M "I M M A"
_symmetry_group_IT_number 74
_symmetry_cell_setting 'orthorhombic'
loop_
_space_group_symop_operation_xyz
x,y,z
-x,1/2-y,z
x,-y,-z
-x,1/2+y,-z
-x,-y,-z
x,1/2+y,-z
-x,y,z
x,1/2-y,z
1/2+x,1/2+y,1/2+z
1/2-x,-y,1/2+z
1/2+x,1/2-y,1/2-z
1/2-x,y,1/2-z
1/2-x,1/2-y,1/2-z
1/2+x,y,1/2-z
1/2-x,1/2+y,1/2+z
1/2+x,-y,1/2+z
loop_
_atom_site_type_symbol
_atom_site_label
_atom_site_fract_x
_atom_site_fract_y
_atom_site_fract_z
Si Si1 0.555889 0.075673 0.652690
Si Si2 0.056379 0.681855 0.505020
Si Si3 0.620713 0.000000 0.000000
Si Si4 0.129572 0.392914 0.219766
Si Si5 0.722142 0.929824 0.500274
O O1 0.500000 0.056934 0.642922
O O2 0.580714 0.081200 0.400882
O O3 0.557942 0.138763 0.780827
O O4 0.587185 0.031459 0.807671
O O5 0.059328 0.750000 0.446055
O O6 0.105102 0.662771 0.654272
O O7 0.000000 0.672770 0.611244
O O8 0.649124 0.055483 0.106865
O O9 0.171985 0.391324 0.022104
O O10 0.750000 0.917102 0.750000
O O11 0.711098 0.000000 0.500000
O O12 0.750000 0.918202 0.250000
#
# Coordination Sequence:
#
# PCOD9537329 Si02
#       5
#    16  16   8  16  16
#     4  10  20  33  52  81 116 154 192 238 300 369
#     4   9  20  38  59  85 118 158 206 255 304 363
#     4  10  21  32  52  80 118 156 190 236 299 374
#     4  11  22  35  59  84 118 154 200 250 307 367
#     4  10  23  38  61  89 123 162 207 254 312 375
#
# _framework density 20.563034999999999
#
# number of rings (size 3 to 8) (size 9 to 14) (size 15 to 20)
#    0.000    2.000    0.000    3.000   10.889    4.444 
#    0.000    2.222    0.000    1.333    0.000    0.000 
#    0.000    0.000    0.000    0.000    0.000    0.000 
#
# Total GULP energy -200558.351157 kJ/mol
# GULP energy per Si atom -5571.065310 kJ/mol
# Density = 2.051623 g / cm^3
# Si number density = 20.563035 Si / 1000 Ang^3
#
#
#
# Elastic Constant Matrix: (Units=GPa)
#
#
# Indices 1 2 3 4 5 6 
#
# 1 82.7907 26.5425 16.6853 0.0000 0.0000 0.0000
# 2 26.5425 118.5858 27.1462 0.0000 0.0000 0.0000
# 3 16.6853 27.1462 48.3584 0.0000 0.0000 0.0000
# 4 0.0000 0.0000 0.0000 9.9812 0.0000 0.0000
# 5 0.0000 0.0000 0.0000 0.0000 35.3588 0.0000
# 6 0.0000 0.0000 0.0000 0.0000 0.0000 23.2097
#
#
#
# Elastic Compliance Matrix: (Units=1/GPa)
#
#
# Indices 1 2 3 4 5 6 
#
# 1 0.013481 -0.002241 -0.003394 0.000000 0.000000 0.000000
# 2 -0.002241 0.010048 -0.004868 0.000000 0.000000 0.000000
# 3 -0.003394 -0.004868 0.024582 0.000000 0.000000 0.000000
# 4 0.000000 0.000000 0.000000 0.100188 0.000000 0.000000
# 5 0.000000 0.000000 0.000000 0.000000 0.028281 0.000000
# 6 0.000000 0.000000 0.000000 0.000000 0.000000 0.043085
#
#
# Mechanical properties :
#
#
# Convention : Reuss Voigt Hill
#
# Bulk Modulus (GPa) = 36.88945 43.38699 40.13822
# Shear Modulus (GPa) = 20.02350 25.66734 22.84542
#
# Velocity S-wave (km/s) = 3.12390 3.53686 3.33677
# Velocity P-wave (km/s) = 5.56689 6.15016 5.86578
#
# Compressibility (1/GPa) = 0.02710802
#
# Stress axis : x y z
#
# Youngs Moduli (GPa) = 74.17909 99.51735 40.67953
#
# Poissons Ratio (x) = 0.22297 0.13805
# Poissons Ratio (y) = 0.16620 0.19802
# Poissons Ratio (z) = 0.25174 0.48442
#
# Static dielectric constant tensor:
#      x y z
#    x 1.824210 0.000000 0.000000 
#    y 0.000000 1.735100 0.000000 
#    z 0.000000 0.000000 1.796250 
# 
# From -- ./inp_files/5061.got.cif
#   From: 2010.05.17/outbox.cif.g08.bks.cpg/sg74_3_cif.got.tgz:5061.got - 2010.06.03 17:57:02.
