data_PCOD9537066
_publ_section_title
;
Structure prediction by ZEFSAII (Michael W. Deem and Ramdas Pophale) SiO2 
 PCOD9537066
Probable space group: I M M A
;
_chemical_formula_sum "Si O2"
_cell_formula_units_Z 80
_cell_length_a 8.994669
_cell_length_b 19.006200
_cell_length_c 27.652722
_cell_angle_alpha 90.000000
_cell_angle_beta 90.000000
_cell_angle_gamma 90.000000
_cell_volume 4727.356653
_symmetry_space_group_name_H-M "I M M A"
_symmetry_group_IT_number 74
_symmetry_cell_setting 'orthorhombic'
loop_
_space_group_symop_operation_xyz
x,y,z
-x,1/2-y,z
x,-y,-z
-x,1/2+y,-z
-x,-y,-z
x,1/2+y,-z
-x,y,z
x,1/2-y,z
1/2+x,1/2+y,1/2+z
1/2-x,-y,1/2+z
1/2+x,1/2-y,1/2-z
1/2-x,y,1/2-z
1/2-x,1/2-y,1/2-z
1/2+x,y,1/2-z
1/2-x,1/2+y,1/2+z
1/2+x,-y,1/2+z
loop_
_atom_site_type_symbol
_atom_site_label
_atom_site_fract_x
_atom_site_fract_y
_atom_site_fract_z
Si Si1 0.823264 0.830324 0.302661
Si Si2 0.821462 0.670437 0.603931
Si Si3 0.323044 0.959333 0.354547
Si Si4 0.177297 0.395799 0.198375
Si Si5 0.179019 0.028515 0.447423
O O1 0.795778 0.750000 0.318975
O O2 0.750000 0.838133 0.250000
O O3 0.752747 0.888266 0.336988
O O4 0.000000 0.840554 0.298743
O O5 0.781384 0.750000 0.589761
O O6 0.744577 0.649766 0.654516
O O7 0.783808 0.610049 0.564765
O O8 0.000000 0.667635 0.610899
O O9 0.500000 0.951325 0.357514
O O10 0.291853 0.023031 0.316848
O O11 0.256735 0.984116 0.405434
O O12 0.250000 0.379937 0.250000
O O13 0.000000 0.386215 0.200648
O O14 0.000000 0.021410 0.443254
O O15 0.222574 0.000000 0.500000
#
# Coordination Sequence:
#
# PCOD9537066 Si02
#       5
#    16  16  16  16  16
#     4  10  20  33  50  73 102 136 171 207 250 300
#     4   9  18  33  52  73  98 129 164 202 244 291
#     4  10  20  33  51  74 100 131 168 210 252 298
#     4  10  20  32  48  72 100 132 167 201 240 288
#     4   9  18  34  55  76  99 129 166 209 256 302
#
# _framework density 16.922777
#
# number of rings (size 3 to 8) (size 9 to 14) (size 15 to 20)
#    0.000    2.400    0.000    2.400    0.000    6.400 
#    0.000    1.000    0.000    3.600    0.000    0.000 
#    0.000    0.000    0.000    0.000    0.000    0.000 
#
# Total GULP energy -223150.307208 kJ/mol
# GULP energy per Si atom -5578.757680 kJ/mol
# Density = 1.688426 g / cm^3
# Si number density = 16.922777 Si / 1000 Ang^3
#
#
#
# Elastic Constant Matrix: (Units=GPa)
#
#
# Indices 1 2 3 4 5 6 
#
# 1 37.4293 58.0314 36.6441 0.0000 0.0000 0.0000
# 2 58.0314 153.9294 75.9926 0.0000 0.0000 0.0000
# 3 36.6441 75.9926 104.4668 0.0000 0.0000 0.0000
# 4 0.0000 0.0000 0.0000 11.2896 0.0000 0.0000
# 5 0.0000 0.0000 0.0000 0.0000 25.5900 0.0000
# 6 0.0000 0.0000 0.0000 0.0000 0.0000 19.7995
#
#
#
# Elastic Compliance Matrix: (Units=1/GPa)
#
#
# Indices 1 2 3 4 5 6 
#
# 1 0.068508 -0.021789 -0.008181 0.000000 0.000000 0.000000
# 2 -0.021789 0.017067 -0.004772 0.000000 0.000000 0.000000
# 3 -0.008181 -0.004772 0.015913 0.000000 0.000000 0.000000
# 4 0.000000 0.000000 0.000000 0.088577 0.000000 0.000000
# 5 0.000000 0.000000 0.000000 0.000000 0.039078 0.000000
# 6 0.000000 0.000000 0.000000 0.000000 0.000000 0.050506
#
#
# Mechanical properties :
#
#
# Convention : Reuss Voigt Hill
#
# Bulk Modulus (GPa) = 31.24524 70.79574 51.02049
# Shear Modulus (GPa) = 13.89658 19.67967 16.78812
#
# Velocity S-wave (km/s) = 2.86873 3.41385 3.15309
# Velocity P-wave (km/s) = 5.42921 7.58054 6.59321
#
# Compressibility (1/GPa) = 0.03200487
#
# Stress axis : x y z
#
# Youngs Moduli (GPa) = 14.59681 58.59366 62.84034
#
# Poissons Ratio (x) = 1.27668 0.51409
# Poissons Ratio (y) = 0.31805 0.29987
# Poissons Ratio (z) = 0.11942 0.27961
#
# Static dielectric constant tensor:
#      x y z
#    x 1.559270 0.000000 0.000000 
#    y 0.000000 1.585060 0.000000 
#    z 0.000000 0.000000 1.533370 
# 
# From -- ./inp_files/63893.got.cif
#   From: 2010.05.17/outbox.cif.g08.bks.cpg/sg74_32_cif.got.tgz:63893.got - 2010.06.03 17:57:02.
