data_PCOD9537424
_publ_section_title
;
Structure prediction by ZEFSAII (Michael W. Deem and Ramdas Pophale) SiO2 
 PCOD9537424
Probable space group: I M M A
;
_chemical_formula_sum "Si O2"
_cell_formula_units_Z 104
_cell_length_a 9.488707
_cell_length_b 21.475219
_cell_length_c 28.245524
_cell_angle_alpha 90.000000
_cell_angle_beta 90.000000
_cell_angle_gamma 90.000000
_cell_volume 5755.648635
_symmetry_space_group_name_H-M "I M M A"
_symmetry_group_IT_number 74
_symmetry_cell_setting 'orthorhombic'
loop_
_space_group_symop_operation_xyz
x,y,z
-x,1/2-y,z
x,-y,-z
-x,1/2+y,-z
-x,-y,-z
x,1/2+y,-z
-x,y,z
x,1/2-y,z
1/2+x,1/2+y,1/2+z
1/2-x,-y,1/2+z
1/2+x,1/2-y,1/2-z
1/2-x,y,1/2-z
1/2-x,1/2-y,1/2-z
1/2+x,y,1/2-z
1/2-x,1/2+y,1/2+z
1/2+x,-y,1/2+z
loop_
_atom_site_type_symbol
_atom_site_label
_atom_site_fract_x
_atom_site_fract_y
_atom_site_fract_z
Si Si1 0.836147 0.322920 0.353026
Si Si2 0.831302 0.651453 0.120452
Si Si3 0.334312 0.910809 0.944674
Si Si4 0.168781 0.819045 0.474063
Si Si5 0.165990 0.081120 0.203595
Si Si6 0.831302 0.250000 0.799393
Si Si7 0.665494 0.506731 0.387272
O O1 0.808912 0.250000 0.359429
O O2 0.819843 0.360580 0.402079
O O3 0.733666 0.354799 0.315324
O O4 0.000000 0.330677 0.338302
O O5 0.748034 0.677412 0.075530
O O6 0.796710 0.690117 0.167739
O O7 0.797349 0.578239 0.122227
O O8 0.000000 0.658484 0.113253
O O9 0.500000 0.925056 0.949770
O O10 0.252527 0.972144 0.928220
O O11 0.284548 0.874894 0.991558
O O12 0.193352 0.750000 0.495397
O O13 0.000000 0.824888 0.467528
O O14 0.250000 0.061200 0.250000
O O15 0.000000 0.087150 0.212793
O O16 0.186662 0.032139 0.160982
O O17 0.750000 0.250000 0.750000
O O18 0.000000 0.250000 0.791077
O O19 0.500000 0.503683 0.399201
#
# Coordination Sequence:
#
# PCOD9537424 Si02
#       7
#    16  16  16  16  16   8  16
#     4   9  17  31  51  73 100 136 177 219 263 310
#     4  10  21  39  59  81 110 143 178 219 271 326
#     4   9  18  33  53  79 110 144 181 221 266 314
#     4  10  20  34  55  83 114 146 182 224 267 315
#     4  10  20  34  51  72  99 132 172 218 268 319
#     4  10  22  40  62  86 112 142 180 228 281 336
#     4   9  20  37  55  76 106 141 179 223 268 323
#
# _framework density 18.069206999999999
#
# number of rings (size 3 to 8) (size 9 to 14) (size 15 to 20)
#    0.000    2.462    0.769    0.923    0.000    6.154 
#    0.000    3.077    0.000    2.769    0.000    0.000 
#    0.000    0.000    0.000    0.000    0.000    0.000 
#
# Total GULP energy -290077.572023 kJ/mol
# GULP energy per Si atom -5578.414847 kJ/mol
# Density = 1.802808 g / cm^3
# Si number density = 18.069207 Si / 1000 Ang^3
#
#
#
# Elastic Constant Matrix: (Units=GPa)
#
#
# Indices 1 2 3 4 5 6 
#
# 1 45.7731 48.8435 53.0903 0.0000 0.0000 0.0000
# 2 48.8435 136.7810 50.2106 0.0000 0.0000 0.0000
# 3 53.0903 50.2106 104.1526 0.0000 0.0000 0.0000
# 4 0.0000 0.0000 0.0000 9.9653 0.0000 0.0000
# 5 0.0000 0.0000 0.0000 0.0000 31.5178 0.0000
# 6 0.0000 0.0000 0.0000 0.0000 0.0000 25.0143
#
#
#
# Elastic Compliance Matrix: (Units=1/GPa)
#
#
# Indices 1 2 3 4 5 6 
#
# 1 0.071893 -0.014848 -0.029489 0.000000 0.000000 0.000000
# 2 -0.014848 0.011949 0.001808 0.000000 0.000000 0.000000
# 3 -0.029489 0.001808 0.023761 0.000000 0.000000 0.000000
# 4 0.000000 0.000000 0.000000 0.100348 0.000000 0.000000
# 5 0.000000 0.000000 0.000000 0.000000 0.031728 0.000000
# 6 0.000000 0.000000 0.000000 0.000000 0.000000 0.039977
#
#
# Mechanical properties :
#
#
# Convention : Reuss Voigt Hill
#
# Bulk Modulus (GPa) = 44.35256 65.66615 55.00936
# Shear Modulus (GPa) = 13.43260 22.27031 17.85146
#
# Velocity S-wave (km/s) = 2.72949 3.51451 3.14658
# Velocity P-wave (km/s) = 5.87645 7.27251 6.61143
#
# Compressibility (1/GPa) = 0.02254661
#
# Stress axis : x y z
#
# Youngs Moduli (GPa) = 13.90958 83.68687 42.08541
#
# Poissons Ratio (x) = 1.24254 1.24104
# Poissons Ratio (y) = 0.20652 -0.07608
# Poissons Ratio (z) = 0.41017 -0.15128
#
# Static dielectric constant tensor:
#      x y z
#    x 1.600540 0.000000 0.000000 
#    y 0.000000 1.632440 0.000000 
#    z 0.000000 0.000000 1.604440 
# 
# From -- ./inp_files/64443.got.cif
#   From: 2010.05.17/outbox.cif.g08.bks.cpg/sg74_33_cif.got.tgz:64443.got - 2010.06.03 17:57:02.
