data_PCOD9537797
_publ_section_title
;
Structure prediction by ZEFSAII (Michael W. Deem and Ramdas Pophale) SiO2 
 PCOD9537797
Probable space group: I M M A
;
_chemical_formula_sum "Si O2"
_cell_formula_units_Z 76
_cell_length_a 18.571419
_cell_length_b 7.351854
_cell_length_c 25.842576
_cell_angle_alpha 90.000000
_cell_angle_beta 90.000000
_cell_angle_gamma 90.000000
_cell_volume 3528.399602
_symmetry_space_group_name_H-M "I M M A"
_symmetry_group_IT_number 74
_symmetry_cell_setting 'orthorhombic'
loop_
_space_group_symop_operation_xyz
x,y,z
-x,1/2-y,z
x,-y,-z
-x,1/2+y,-z
-x,-y,-z
x,1/2+y,-z
-x,y,z
x,1/2-y,z
1/2+x,1/2+y,1/2+z
1/2-x,-y,1/2+z
1/2+x,1/2-y,1/2-z
1/2-x,y,1/2-z
1/2-x,1/2-y,1/2-z
1/2+x,y,1/2-z
1/2-x,1/2+y,1/2+z
1/2+x,-y,1/2+z
loop_
_atom_site_type_symbol
_atom_site_label
_atom_site_fract_x
_atom_site_fract_y
_atom_site_fract_z
Si Si1 0.657237 0.465954 0.939097
Si Si2 0.388761 0.031288 0.323524
Si Si3 0.078033 0.031465 0.296107
Si Si4 0.500000 0.533650 0.061869
Si Si5 0.227507 0.043751 0.339563
Si Si6 0.000000 0.750000 0.135049
O O1 0.657056 0.250000 0.932363
O O2 0.578044 0.538176 0.921611
O O3 0.717109 0.544068 0.901382
O O4 0.666669 0.500000 0.000000
O O5 0.392227 0.250000 0.333874
O O6 0.417804 0.000671 0.265395
O O7 0.305255 0.970773 0.325048
O O8 0.437239 0.909968 0.360543
O O9 0.077444 0.250000 0.304172
O O10 0.152983 0.959069 0.319049
O O11 0.000000 0.962265 0.315401
O O12 0.500000 0.750000 0.069911
O O13 0.500000 0.500000 0.000000
O O14 0.227996 0.250000 0.318981
#
# Coordination Sequence:
#
# PCOD9537797 Si02
#       6
#    16  16  16   8  16   4
#     4  10  20  35  53  76 111 148 193 237 284 336
#     4  10  21  39  59  84 119 152 194 242 290 348
#     4   9  17  34  57  80 114 159 196 228 278 339
#     4   8  16  30  47  68  98 143 182 226 267 314
#     4  10  21  35  56  84 115 151 191 235 291 341
#     4  12  22  36  64  86 112 154 202 236 296 350
#
# _framework density 21.539511999999998
#
# number of rings (size 3 to 8) (size 9 to 14) (size 15 to 20)
#    0.000    2.316    1.053    1.579    2.947    3.368 
#    1.895    1.053    0.000    0.000    0.000    0.737 
#    0.000    0.000    0.000    0.000    0.000    0.000 
#
# Total GULP energy -211602.883384 kJ/mol
# GULP energy per Si atom -5568.496931 kJ/mol
# Density = 2.149049 g / cm^3
# Si number density = 21.539512 Si / 1000 Ang^3
#
#
#
# Elastic Constant Matrix: (Units=GPa)
#
#
# Indices 1 2 3 4 5 6 
#
# 1 205.8775 21.2100 26.9213 0.0000 0.0000 0.0000
# 2 21.2100 104.3847 -0.5975 0.0000 0.0000 0.0000
# 3 26.9213 -0.5975 45.3374 0.0000 0.0000 0.0000
# 4 0.0000 0.0000 0.0000 3.0499 0.0000 0.0000
# 5 0.0000 0.0000 0.0000 0.0000 -96.2814 0.0000
# 6 0.0000 0.0000 0.0000 0.0000 0.0000 49.8724
#
#
#
# Elastic Compliance Matrix: (Units=1/GPa)
#
#
# Indices 1 2 3 4 5 6 
#
# 1 0.005393 -0.001114 -0.003217 0.000000 0.000000 0.000000
# 2 -0.001114 0.009811 0.000791 0.000000 0.000000 0.000000
# 3 -0.003217 0.000791 0.023977 0.000000 0.000000 0.000000
# 4 0.000000 0.000000 0.000000 0.327877 0.000000 0.000000
# 5 0.000000 0.000000 0.000000 0.000000 -0.010386 0.000000
# 6 0.000000 0.000000 0.000000 0.000000 0.000000 0.020051
#
#
# Mechanical properties :
#
#
# Convention : Reuss Voigt Hill
#
# Bulk Modulus (GPa) = 31.15193 50.07411 40.61302
# Shear Modulus (GPa) = 12.67416 11.86590 12.27003
#
# Velocity S-wave (km/s) = 2.42836 2.34965 2.38933
# Velocity P-wave (km/s) = 4.72828 5.53707 5.14858
#
# Compressibility (1/GPa) = 0.03210074
#
# Stress axis : x y z
#
# Youngs Moduli (GPa) = 185.43628 101.92783 41.70589
#
# Poissons Ratio (x) = 0.11356 0.13416
# Poissons Ratio (y) = 0.20661 -0.03298
# Poissons Ratio (z) = 0.59652 -0.08061
#
# Static dielectric constant tensor:
#      x y z
#    x 1.813390 0.000000 0.000000 
#    y 0.000000 1.832600 0.000000 
#    z 0.000000 0.000000 1.756940 
# 
# From -- ./inp_files/72908.got.cif
#   From: 2010.05.17/outbox.cif.g08.bks.cpg/sg74_37_cif.got.tgz:72908.got - 2010.06.03 17:57:02.
