data_PCOD9537666
_publ_section_title
;
Structure prediction by ZEFSAII (Michael W. Deem and Ramdas Pophale) SiO2 
 PCOD9537666
Probable space group: I M M A
;
_chemical_formula_sum "Si O2"
_cell_formula_units_Z 120
_cell_length_a 27.782096
_cell_length_b 8.615113
_cell_length_c 28.267178
_cell_angle_alpha 90.000000
_cell_angle_beta 90.000000
_cell_angle_gamma 90.000000
_cell_volume 6765.633058
_symmetry_space_group_name_H-M "I M M A"
_symmetry_group_IT_number 74
_symmetry_cell_setting 'orthorhombic'
loop_
_space_group_symop_operation_xyz
x,y,z
-x,1/2-y,z
x,-y,-z
-x,1/2+y,-z
-x,-y,-z
x,1/2+y,-z
-x,y,z
x,1/2-y,z
1/2+x,1/2+y,1/2+z
1/2-x,-y,1/2+z
1/2+x,1/2-y,1/2-z
1/2-x,y,1/2-z
1/2-x,1/2-y,1/2-z
1/2+x,y,1/2-z
1/2-x,1/2+y,1/2+z
1/2+x,-y,1/2+z
loop_
_atom_site_type_symbol
_atom_site_label
_atom_site_fract_x
_atom_site_fract_y
_atom_site_fract_z
Si Si1 0.089349 0.936472 0.612651
Si Si2 0.709188 0.563696 0.552284
Si Si3 0.696007 0.063534 0.264533
Si Si4 0.348465 0.563444 0.360166
Si Si5 0.000000 0.935294 0.446885
Si Si6 0.603041 0.436201 0.784301
Si Si7 0.180723 0.436943 0.447794
Si Si8 0.946321 0.438721 0.813640
O O1 0.086793 0.750000 0.611666
O O2 0.140491 0.985678 0.589746
O O3 0.046772 0.004746 0.580962
O O4 0.086131 0.994558 0.666272
O O5 0.698616 0.500000 0.500000
O O6 0.707429 0.750000 0.551859
O O7 0.673132 0.499289 0.591381
O O8 0.764498 0.515333 0.563941
O O9 0.692246 0.250000 0.264620
O O10 0.750000 0.020522 0.250000
O O11 0.682732 0.999627 0.316234
O O12 0.656360 0.995325 0.228833
O O13 0.346905 0.750000 0.359769
O O14 0.403396 0.513320 0.348702
O O15 0.000000 0.750000 0.448159
O O16 0.000000 0.000000 0.500000
O O17 0.603007 0.250000 0.786884
O O18 0.569920 0.482757 0.739511
O O19 0.168984 0.500000 0.500000
O O20 0.180146 0.250000 0.449904
O O21 0.947166 0.250000 0.814487
O O22 0.000000 0.494698 0.824549
#
# Coordination Sequence:
#
# PCOD9537666 Si02
#       8
#    16  16  16  16   8  16  16  16
#     4  11  23  39  58  82 111 144 185 234 286 343
#     4  10  20  36  57  83 115 149 184 224 273 328
#     4  10  21  36  54  76 110 153 190 229 278 332
#     4  10  20  34  55  84 112 143 185 229 279 337
#     4  12  26  44  62  82 108 144 190 242 301 350
#     4  10  21  35  54  83 112 144 186 232 282 334
#     4   9  20  36  55  77 104 139 179 223 272 328
#     4   8  16  33  56  79 108 142 179 224 273 329
#
# _framework density 17.736699000000002
#
# number of rings (size 3 to 8) (size 9 to 14) (size 15 to 20)
#    0.000    2.133    0.000    3.800    2.800    3.733 
#    0.000    0.000    0.000    8.400    0.000    0.000 
#    0.000    0.000    0.000    0.000    0.000    0.000 
#
# Total GULP energy -334992.660865 kJ/mol
# GULP energy per Si atom -5583.211014 kJ/mol
# Density = 1.769633 g / cm^3
# Si number density = 17.736699 Si / 1000 Ang^3
#
#
#
# Elastic Constant Matrix: (Units=GPa)
#
#
# Indices 1 2 3 4 5 6 
#
# 1 145.4321 40.4320 90.6736 0.0000 0.0000 0.0000
# 2 40.4320 55.9329 38.5036 0.0000 0.0000 0.0000
# 3 90.6736 38.5036 133.6849 0.0000 0.0000 0.0000
# 4 0.0000 0.0000 0.0000 35.0635 0.0000 0.0000
# 5 0.0000 0.0000 0.0000 0.0000 10.3623 0.0000
# 6 0.0000 0.0000 0.0000 0.0000 0.0000 21.5880
#
#
#
# Elastic Compliance Matrix: (Units=1/GPa)
#
#
# Indices 1 2 3 4 5 6 
#
# 1 0.012601 -0.004023 -0.007388 0.000000 0.000000 0.000000
# 2 -0.004023 0.023584 -0.004064 0.000000 0.000000 0.000000
# 3 -0.007388 -0.004064 0.013662 0.000000 0.000000 0.000000
# 4 0.000000 0.000000 0.000000 0.028520 0.000000 0.000000
# 5 0.000000 0.000000 0.000000 0.000000 0.096504 0.000000
# 6 0.000000 0.000000 0.000000 0.000000 0.000000 0.046322
#
#
# Mechanical properties :
#
#
# Convention : Reuss Voigt Hill
#
# Bulk Modulus (GPa) = 52.91869 74.91869 63.91869
# Shear Modulus (GPa) = 19.34680 24.43214 21.88947
#
# Velocity S-wave (km/s) = 3.30628 3.71548 3.51684
# Velocity P-wave (km/s) = 6.66901 7.79343 7.25304
#
# Compressibility (1/GPa) = 0.01889691
#
# Stress axis : x y z
#
# Youngs Moduli (GPa) = 79.36087 42.40119 73.19684
#
# Poissons Ratio (x) = 0.17057 0.54077
# Poissons Ratio (y) = 0.31925 0.29748
# Poissons Ratio (z) = 0.58631 0.17232
#
# Static dielectric constant tensor:
#      x y z
#    x 1.612830 0.000000 0.000000 
#    y 0.000000 1.600100 0.000000 
#    z 0.000000 0.000000 1.570940 
# 
# From -- ./inp_files/69041.got.cif
#   From: 2010.05.17/outbox.cif.g08.bks.cpg/sg74_35_cif.got.tgz:69041.got - 2010.06.03 17:57:02.
