data_PCOD9537239
_publ_section_title
;
Structure prediction by ZEFSAII (Michael W. Deem and Ramdas Pophale) SiO2 
 PCOD9537239
Probable space group: I M M A
;
_chemical_formula_sum "Si O2"
_cell_formula_units_Z 88
_cell_length_a 31.037306
_cell_length_b 9.168306
_cell_length_c 19.304489
_cell_angle_alpha 90.000000
_cell_angle_beta 90.000000
_cell_angle_gamma 90.000000
_cell_volume 5493.276101
_symmetry_space_group_name_H-M "I M M A"
_symmetry_group_IT_number 74
_symmetry_cell_setting 'orthorhombic'
loop_
_space_group_symop_operation_xyz
x,y,z
-x,1/2-y,z
x,-y,-z
-x,1/2+y,-z
-x,-y,-z
x,1/2+y,-z
-x,y,z
x,1/2-y,z
1/2+x,1/2+y,1/2+z
1/2-x,-y,1/2+z
1/2+x,1/2-y,1/2-z
1/2-x,y,1/2-z
1/2-x,1/2-y,1/2-z
1/2+x,y,1/2-z
1/2-x,1/2+y,1/2+z
1/2+x,-y,1/2+z
loop_
_atom_site_type_symbol
_atom_site_label
_atom_site_fract_x
_atom_site_fract_y
_atom_site_fract_z
Si Si1 0.344703 0.924512 0.573367
Si Si2 0.548840 0.079063 0.206112
Si Si3 0.622744 0.423797 0.709173
Si Si4 0.000000 0.575039 0.574157
Si Si5 0.242868 0.422624 0.428061
Si Si6 0.291552 0.422170 0.797603
O O1 0.350541 0.750000 0.569513
O O2 0.293639 0.953637 0.586643
O O3 0.355157 0.000000 0.500000
O O4 0.371189 0.993977 0.636351
O O5 0.500000 0.066820 0.235452
O O6 0.561192 0.250000 0.209205
O O7 0.540558 0.038867 0.124942
O O8 0.582277 0.982555 0.247519
O O9 0.620105 0.250000 0.697993
O O10 0.665449 0.453841 0.754782
O O11 0.000000 0.500000 0.500000
O O12 0.000000 0.750000 0.566052
O O13 0.232218 0.500000 0.500000
O O14 0.238175 0.250000 0.434514
O O15 0.214218 0.484950 0.366478
O O16 0.291147 0.250000 0.814906
O O17 0.250000 0.451514 0.750000
#
# Coordination Sequence:
#
# PCOD9537239 Si02
#       6
#    16  16  16   8  16  16
#     4  10  20  33  51  75 104 138 177 219 260 309
#     4   8  18  36  55  78 107 139 171 211 262 311
#     4  11  21  33  54  81 106 137 176 218 262 310
#     4   8  16  32  56  82 107 136 169 208 258 308
#     4  10  20  33  51  72  99 138 181 221 263 310
#     4  10  20  34  50  72 107 143 176 218 262 307
#
# _framework density 16.019583999999998
#
# number of rings (size 3 to 8) (size 9 to 14) (size 15 to 20)
#    0.545    1.818    1.818    1.636    0.000    4.364 
#    0.000    0.909    0.000    2.727    0.000    0.000 
#    0.000    0.000    0.000    0.000    0.000    0.000 
#
# Total GULP energy -245153.491270 kJ/mol
# GULP energy per Si atom -5571.670256 kJ/mol
# Density = 1.598312 g / cm^3
# Si number density = 16.019584 Si / 1000 Ang^3
#
#
#
# Elastic Constant Matrix: (Units=GPa)
#
#
# Indices 1 2 3 4 5 6 
#
# 1 59.8081 39.9575 47.8706 0.0000 0.0000 0.0000
# 2 39.9575 62.4149 75.5437 0.0000 0.0000 0.0000
# 3 47.8706 75.5437 138.0896 0.0000 0.0000 0.0000
# 4 0.0000 0.0000 0.0000 36.5065 0.0000 0.0000
# 5 0.0000 0.0000 0.0000 0.0000 19.5819 0.0000
# 6 0.0000 0.0000 0.0000 0.0000 0.0000 13.8118
#
#
#
# Elastic Compliance Matrix: (Units=1/GPa)
#
#
# Indices 1 2 3 4 5 6 
#
# 1 0.029221 -0.019080 0.000308 0.000000 0.000000 0.000000
# 2 -0.019080 0.059879 -0.026144 0.000000 0.000000 0.000000
# 3 0.000308 -0.026144 0.021437 0.000000 0.000000 0.000000
# 4 0.000000 0.000000 0.000000 0.027392 0.000000 0.000000
# 5 0.000000 0.000000 0.000000 0.000000 0.051067 0.000000
# 6 0.000000 0.000000 0.000000 0.000000 0.000000 0.072402
#
#
# Mechanical properties :
#
#
# Convention : Reuss Voigt Hill
#
# Bulk Modulus (GPa) = 48.29367 65.22847 56.76107
# Shear Modulus (GPa) = 13.96136 20.44277 17.20207
#
# Velocity S-wave (km/s) = 2.95535 3.57615 3.28047
# Velocity P-wave (km/s) = 6.46974 7.60645 7.06101
#
# Compressibility (1/GPa) = 0.02070665
#
# Stress axis : x y z
#
# Youngs Moduli (GPa) = 34.22240 16.70024 46.64820
#
# Poissons Ratio (x) = 0.31864 -0.01437
# Poissons Ratio (y) = 0.65296 1.21955
# Poissons Ratio (z) = -0.01054 0.43660
#
# Static dielectric constant tensor:
#      x y z
#    x 1.522560 0.000000 0.000000 
#    y 0.000000 1.528940 0.000000 
#    z 0.000000 0.000000 1.522860 
# 
# From -- ./inp_files/47039.got.cif
#   From: 2010.05.17/outbox.cif.g08.bks.cpg/sg74_24_cif.got.tgz:47039.got - 2010.06.03 17:57:02.
