data_PCOD9537829
_publ_section_title
;
Structure prediction by ZEFSAII (Michael W. Deem and Ramdas Pophale) SiO2 
 PCOD9537829
Probable space group: I M M A
;
_chemical_formula_sum "Si O2"
_cell_formula_units_Z 96
_cell_length_a 15.397594
_cell_length_b 14.556980
_cell_length_c 20.298981
_cell_angle_alpha 90.000000
_cell_angle_beta 90.000000
_cell_angle_gamma 90.000000
_cell_volume 4549.863697
_symmetry_space_group_name_H-M "I M M A"
_symmetry_group_IT_number 74
_symmetry_cell_setting 'orthorhombic'
loop_
_space_group_symop_operation_xyz
x,y,z
-x,1/2-y,z
x,-y,-z
-x,1/2+y,-z
-x,-y,-z
x,1/2+y,-z
-x,y,z
x,1/2-y,z
1/2+x,1/2+y,1/2+z
1/2-x,-y,1/2+z
1/2+x,1/2-y,1/2-z
1/2-x,y,1/2-z
1/2-x,1/2-y,1/2-z
1/2+x,y,1/2-z
1/2-x,1/2+y,1/2+z
1/2+x,-y,1/2+z
loop_
_atom_site_type_symbol
_atom_site_label
_atom_site_fract_x
_atom_site_fract_y
_atom_site_fract_z
Si Si1 0.402898 0.971094 0.156200
Si Si2 0.099482 0.894626 0.477345
Si Si3 0.600711 0.637798 0.421993
Si Si4 0.781963 0.854664 0.959859
Si Si5 0.848771 0.856845 0.224441
Si Si6 0.779762 0.359242 0.325381
O O1 0.500000 0.991859 0.134801
O O2 0.371211 0.900865 0.099268
O O3 0.400626 0.919595 0.225257
O O4 0.354814 0.067211 0.162665
O O5 0.180300 0.854858 0.518218
O O6 0.000000 0.857367 0.483502
O O7 0.095936 0.000000 0.500000
O O8 0.500000 0.609695 0.427927
O O9 0.602357 0.750000 0.422327
O O10 0.660523 0.602999 0.481940
O O11 0.638975 0.612197 0.350638
O O12 0.811900 0.750000 0.956546
O O13 0.786693 0.886730 0.884200
O O14 0.875786 0.750000 0.228984
O O15 0.750000 0.863349 0.250000
O O16 0.800648 0.250000 0.334131
O O17 0.750000 0.370128 0.250000
#
# Coordination Sequence:
#
# PCOD9537829 Si02
#       6
#    16  16  16  16  16  16
#     4  11  22  36  57  84 117 154 187 230 295 356
#     4  10  20  35  54  81 113 145 184 233 291 350
#     4   9  18  34  57  86 120 155 192 237 292 359
#     4  10  20  36  60  84 109 149 194 239 295 354
#     4  10  20  35  58  89 123 158 195 235 288 358
#     4  10  22  40  59  81 109 146 198 252 296 342
#
# _framework density 21.099533999999998
#
# number of rings (size 3 to 8) (size 9 to 14) (size 15 to 20)
#    0.000    2.000    1.667    2.000    0.000    3.667 
#    0.000    4.167    0.000    3.500    0.000    0.000 
#    0.000    0.000    0.000    0.000    0.000    0.000 
#
# Total GULP energy -267624.735788 kJ/mol
# GULP energy per Si atom -5575.515329 kJ/mol
# Density = 2.105151 g / cm^3
# Si number density = 21.099534 Si / 1000 Ang^3
#
#
#
# Elastic Constant Matrix: (Units=GPa)
#
#
# Indices 1 2 3 4 5 6 
#
# 1 73.9747 9.1614 56.8114 0.0000 0.0000 0.0000
# 2 9.1614 50.4719 24.6113 0.0000 0.0000 0.0000
# 3 56.8114 24.6113 205.5722 0.0000 0.0000 0.0000
# 4 0.0000 0.0000 0.0000 16.3716 0.0000 0.0000
# 5 0.0000 0.0000 0.0000 0.0000 15.1418 0.0000
# 6 0.0000 0.0000 0.0000 0.0000 0.0000 -56.1646
#
#
#
# Elastic Compliance Matrix: (Units=1/GPa)
#
#
# Indices 1 2 3 4 5 6 
#
# 1 0.017195 -0.000854 -0.004650 0.000000 0.000000 0.000000
# 2 -0.000854 0.021084 -0.002288 0.000000 0.000000 0.000000
# 3 -0.004650 -0.002288 0.006423 0.000000 0.000000 0.000000
# 4 0.000000 0.000000 0.000000 0.061081 0.000000 0.000000
# 5 0.000000 0.000000 0.000000 0.000000 0.066042 0.000000
# 6 0.000000 0.000000 0.000000 0.000000 0.000000 -0.017805
#
#
# Mechanical properties :
#
#
# Convention : Reuss Voigt Hill
#
# Bulk Modulus (GPa) = 34.34243 56.79858 45.57050
# Shear Modulus (GPa) = 27.88461 11.03208 19.45834
#
# Velocity S-wave (km/s) = 3.63929 2.28909 3.04010
# Velocity P-wave (km/s) = 5.82846 5.82790 5.82818
#
# Compressibility (1/GPa) = 0.02911850
#
# Stress axis : x y z
#
# Youngs Moduli (GPa) = 58.15724 47.42985 155.68103
#
# Poissons Ratio (x) = 0.04050 0.72387
# Poissons Ratio (y) = 0.04966 0.35623
# Poissons Ratio (z) = 0.27041 0.10853
#
# Static dielectric constant tensor:
#      x y z
#    x 1.800520 0.000000 0.000000 
#    y 0.000000 1.755650 0.000000 
#    z 0.000000 0.000000 1.821470 
# 
# From -- ./inp_files/51925.got.cif
#   From: 2010.05.17/outbox.cif.g08.bks.cpg/sg74_26_cif.got.tgz:51925.got - 2010.06.03 17:57:02.
