data_PCOD9537642
_publ_section_title
;
Structure prediction by ZEFSAII (Michael W. Deem and Ramdas Pophale) SiO2 
 PCOD9537642
Probable space group: I M M A
;
_chemical_formula_sum "Si O2"
_cell_formula_units_Z 88
_cell_length_a 8.846988
_cell_length_b 31.393567
_cell_length_c 18.153468
_cell_angle_alpha 90.000000
_cell_angle_beta 90.000000
_cell_angle_gamma 90.000000
_cell_volume 5041.917163
_symmetry_space_group_name_H-M "I M M A"
_symmetry_group_IT_number 74
_symmetry_cell_setting 'orthorhombic'
loop_
_space_group_symop_operation_xyz
x,y,z
-x,1/2-y,z
x,-y,-z
-x,1/2+y,-z
-x,-y,-z
x,1/2+y,-z
-x,y,z
x,1/2-y,z
1/2+x,1/2+y,1/2+z
1/2-x,-y,1/2+z
1/2+x,1/2-y,1/2-z
1/2-x,y,1/2-z
1/2-x,1/2-y,1/2-z
1/2+x,y,1/2-z
1/2-x,1/2+y,1/2+z
1/2+x,-y,1/2+z
loop_
_atom_site_type_symbol
_atom_site_label
_atom_site_fract_x
_atom_site_fract_y
_atom_site_fract_z
Si Si1 0.322157 0.832124 0.902138
Si Si2 0.181394 0.365665 0.947114
Si Si3 0.681772 0.201136 0.832010
Si Si4 0.176491 0.579050 0.671990
Si Si5 0.820288 0.250000 0.169555
Si Si6 0.817797 0.452234 0.019533
O O1 0.500000 0.825073 0.916902
O O2 0.310287 0.870358 0.843322
O O3 0.241941 0.790996 0.871602
O O4 0.238414 0.845749 0.976385
O O5 0.253968 0.336638 0.883243
O O6 0.000000 0.363558 0.940287
O O7 0.225330 0.415692 0.959488
O O8 0.500000 0.198101 0.829352
O O9 0.719128 0.250000 0.857953
O O10 0.750000 0.197112 0.750000
O O11 0.250000 0.567844 0.750000
O O12 0.253345 0.558985 0.599878
O O13 0.000000 0.567969 0.672909
O O14 0.750000 0.250000 0.250000
O O15 0.000000 0.250000 0.173119
O O16 0.000000 0.451085 0.023716
O O17 0.769706 0.500000 0.000000
#
# Coordination Sequence:
#
# PCOD9537642 Si02
#       6
#    16  16  16  16   8  16
#     4  10  21  36  53  75 105 141 180 221 264 312
#     4  10  20  35  57  83 110 142 181 224 272 330
#     4  10  21  37  57  81 111 147 186 232 282 335
#     4  10  20  34  55  80 106 139 178 221 267 320
#     4  12  24  36  50  72 103 140 179 220 264 308
#     4   9  19  37  59  82 110 143 180 226 278 330
#
# _framework density 17.453678
#
# number of rings (size 3 to 8) (size 9 to 14) (size 15 to 20)
#    0.000    2.000    0.000    3.545    1.273    5.818 
#    0.000    0.909    0.000    0.000    0.000    0.000 
#    0.000    0.000    0.000    0.000    0.000    0.000 
#
# Total GULP energy -245424.396004 kJ/mol
# GULP energy per Si atom -5577.827182 kJ/mol
# Density = 1.741395 g / cm^3
# Si number density = 17.453678 Si / 1000 Ang^3
#
#
#
# Elastic Constant Matrix: (Units=GPa)
#
#
# Indices 1 2 3 4 5 6 
#
# 1 58.1657 58.9538 32.5302 0.0000 0.0000 0.0000
# 2 58.9538 152.3501 67.1564 0.0000 0.0000 0.0000
# 3 32.5302 67.1564 86.8106 0.0000 0.0000 0.0000
# 4 0.0000 0.0000 0.0000 10.6559 0.0000 0.0000
# 5 0.0000 0.0000 0.0000 0.0000 34.1511 0.0000
# 6 0.0000 0.0000 0.0000 0.0000 0.0000 20.7735
#
#
#
# Elastic Compliance Matrix: (Units=1/GPa)
#
#
# Indices 1 2 3 4 5 6 
#
# 1 0.028898 -0.009725 -0.003305 0.000000 0.000000 0.000000
# 2 -0.009725 0.013233 -0.006593 0.000000 0.000000 0.000000
# 3 -0.003305 -0.006593 0.017858 0.000000 0.000000 0.000000
# 4 0.000000 0.000000 0.000000 0.093844 0.000000 0.000000
# 5 0.000000 0.000000 0.000000 0.000000 0.029282 0.000000
# 6 0.000000 0.000000 0.000000 0.000000 0.000000 0.048138
#
#
# Mechanical properties :
#
#
# Convention : Reuss Voigt Hill
#
# Bulk Modulus (GPa) = 48.21072 68.28968 58.25020
# Shear Modulus (GPa) = 18.02352 22.36185 20.19269
#
# Velocity S-wave (km/s) = 3.21697 3.58328 3.40506
# Velocity P-wave (km/s) = 6.44054 7.50540 6.99327
#
# Compressibility (1/GPa) = 0.02074228
#
# Stress axis : x y z
#
# Youngs Moduli (GPa) = 34.60441 75.56639 55.99681
#
# Poissons Ratio (x) = 0.73492 0.18508
# Poissons Ratio (y) = 0.33654 0.36918
# Poissons Ratio (z) = 0.11438 0.49820
#
# Static dielectric constant tensor:
#      x y z
#    x 1.579490 0.000000 0.000000 
#    y 0.000000 1.599200 0.000000 
#    z 0.000000 0.000000 1.553940 
# 
# From -- ./inp_files/40073.got.cif
#   From: 2010.05.17/outbox.cif.g08.bks.cpg/sg74_21_cif.got.tgz:40073.got - 2010.06.03 17:57:02.
