data_PCOD9537956
_publ_section_title
;
Structure prediction by ZEFSAII (Michael W. Deem and Ramdas Pophale) SiO2 
 PCOD9537956
Probable space group: I M M A
;
_chemical_formula_sum "Si O2"
_cell_formula_units_Z 88
_cell_length_a 30.310014
_cell_length_b 9.279580
_cell_length_c 18.109702
_cell_angle_alpha 90.000000
_cell_angle_beta 90.000000
_cell_angle_gamma 90.000000
_cell_volume 5093.610840
_symmetry_space_group_name_H-M "I M M A"
_symmetry_group_IT_number 74
_symmetry_cell_setting 'orthorhombic'
loop_
_space_group_symop_operation_xyz
x,y,z
-x,1/2-y,z
x,-y,-z
-x,1/2+y,-z
-x,-y,-z
x,1/2+y,-z
-x,y,z
x,1/2-y,z
1/2+x,1/2+y,1/2+z
1/2-x,-y,1/2+z
1/2+x,1/2-y,1/2-z
1/2-x,y,1/2-z
1/2-x,1/2-y,1/2-z
1/2+x,y,1/2-z
1/2-x,1/2+y,1/2+z
1/2+x,-y,1/2+z
loop_
_atom_site_type_symbol
_atom_site_label
_atom_site_fract_x
_atom_site_fract_y
_atom_site_fract_z
Si Si1 0.949577 0.576463 0.421298
Si Si2 0.199602 0.580944 0.775441
Si Si3 0.877766 0.918077 0.299137
Si Si4 0.674570 0.081001 0.575041
Si Si5 0.000000 0.081851 0.077306
Si Si6 0.921326 0.588537 0.138211
O O1 0.943247 0.500000 0.500000
O O2 0.947434 0.750000 0.429867
O O3 0.911365 0.535086 0.363478
O O4 0.000000 0.542684 0.395803
O O5 0.189019 0.750000 0.785774
O O6 0.250000 0.568183 0.750000
O O7 0.165679 0.512126 0.716244
O O8 0.193699 0.496233 0.852409
O O9 0.865474 0.750000 0.311800
O O10 0.904315 0.922029 0.221911
O O11 0.686587 0.250000 0.573264
O O12 0.621624 0.073602 0.586763
O O13 0.687026 0.000000 0.500000
O O14 0.000000 0.250000 0.065129
O O15 0.042975 0.030122 0.120738
O O16 0.000000 0.000000 0.000000
O O17 0.939821 0.750000 0.127126
#
# Coordination Sequence:
#
# PCOD9537956 Si02
#       6
#    16  16  16  16   8  16
#     4   9  18  33  54  80 110 144 181 223 273 328
#     4  10  21  37  57  81 110 142 177 223 276 326
#     4   9  19  35  57  80 103 140 181 219 269 322
#     4  10  20  35  57  81 105 137 175 217 264 317
#     4  12  24  34  46  68  99 136 173 210 253 296
#     4   9  19  34  52  73  99 134 173 213 257 304
#
# _framework density 17.276546
#
# number of rings (size 3 to 8) (size 9 to 14) (size 15 to 20)
#    0.000    2.364    0.000    3.545    1.273    7.273 
#    0.000    0.909    0.000    2.182    0.000    0.000 
#    0.000    0.000    0.000    0.000    0.000    0.000 
#
# Total GULP energy -245418.226616 kJ/mol
# GULP energy per Si atom -5577.686969 kJ/mol
# Density = 1.723722 g / cm^3
# Si number density = 17.276546 Si / 1000 Ang^3
#
#
#
# Elastic Constant Matrix: (Units=GPa)
#
#
# Indices 1 2 3 4 5 6 
#
# 1 86.6648 65.7197 47.5451 0.0000 0.0000 0.0000
# 2 65.7197 122.1602 46.4354 0.0000 0.0000 0.0000
# 3 47.5451 46.4354 83.0119 0.0000 0.0000 0.0000
# 4 0.0000 0.0000 0.0000 29.5342 0.0000 0.0000
# 5 0.0000 0.0000 0.0000 0.0000 14.3107 0.0000
# 6 0.0000 0.0000 0.0000 0.0000 0.0000 28.7309
#
#
#
# Elastic Compliance Matrix: (Units=1/GPa)
#
#
# Indices 1 2 3 4 5 6 
#
# 1 0.022978 -0.009347 -0.007933 0.000000 0.000000 0.000000
# 2 -0.009347 0.014198 -0.002589 0.000000 0.000000 0.000000
# 3 -0.007933 -0.002589 0.018038 0.000000 0.000000 0.000000
# 4 0.000000 0.000000 0.000000 0.033859 0.000000 0.000000
# 5 0.000000 0.000000 0.000000 0.000000 0.069878 0.000000
# 6 0.000000 0.000000 0.000000 0.000000 0.000000 0.034806
#
#
# Mechanical properties :
#
#
# Convention : Reuss Voigt Hill
#
# Bulk Modulus (GPa) = 64.60594 67.91526 66.26060
# Shear Modulus (GPa) = 20.95090 23.32426 22.13758
#
# Velocity S-wave (km/s) = 3.48613 3.67829 3.58350
# Velocity P-wave (km/s) = 7.32670 7.57864 7.45373
#
# Compressibility (1/GPa) = 0.01547845
#
# Stress axis : x y z
#
# Youngs Moduli (GPa) = 43.51944 70.43057 55.43815
#
# Poissons Ratio (x) = 0.65828 0.43976
# Poissons Ratio (y) = 0.40676 0.14353
# Poissons Ratio (z) = 0.34522 0.18235
#
# Static dielectric constant tensor:
#      x y z
#    x 1.578350 0.000000 0.000000 
#    y 0.000000 1.586350 0.000000 
#    z 0.000000 0.000000 1.567470 
# 
# From -- ./inp_files/40074.got.cif
#   From: 2010.05.17/outbox.cif.g08.bks.cpg/sg74_21_cif.got.tgz:40074.got - 2010.06.03 17:57:02.
