data_PCOD9537324
_publ_section_title
;
Structure prediction by ZEFSAII (Michael W. Deem and Ramdas Pophale) SiO2 
 PCOD9537324
Probable space group: I M M A
;
_chemical_formula_sum "Si O2"
_cell_formula_units_Z 112
_cell_length_a 14.955334
_cell_length_b 28.237586
_cell_length_c 14.067668
_cell_angle_alpha 90.000000
_cell_angle_beta 90.000000
_cell_angle_gamma 90.000000
_cell_volume 5940.811787
_symmetry_space_group_name_H-M "I M M A"
_symmetry_group_IT_number 74
_symmetry_cell_setting 'orthorhombic'
loop_
_space_group_symop_operation_xyz
x,y,z
-x,1/2-y,z
x,-y,-z
-x,1/2+y,-z
-x,-y,-z
x,1/2+y,-z
-x,y,z
x,1/2-y,z
1/2+x,1/2+y,1/2+z
1/2-x,-y,1/2+z
1/2+x,1/2-y,1/2-z
1/2-x,y,1/2-z
1/2-x,1/2-y,1/2-z
1/2+x,y,1/2-z
1/2-x,1/2+y,1/2+z
1/2+x,-y,1/2+z
loop_
_atom_site_type_symbol
_atom_site_label
_atom_site_fract_x
_atom_site_fract_y
_atom_site_fract_z
Si Si1 0.788478 0.694919 0.977096
Si Si2 0.898917 0.445733 0.092234
Si Si3 0.651483 0.142604 0.290184
Si Si4 0.895589 0.043940 0.571238
Si Si5 0.783190 0.599179 0.073844
Si Si6 0.395703 0.540628 0.292693
Si Si7 0.594751 0.304896 0.106062
O O1 0.807623 0.750000 0.999168
O O2 0.836344 0.678985 0.878447
O O3 0.682857 0.689208 0.955817
O O4 0.806210 0.654084 0.054105
O O5 0.893410 0.404102 0.169491
O O6 0.876492 0.494439 0.144054
O O7 0.000000 0.448711 0.054621
O O8 0.832527 0.430381 0.009571
O O9 0.750000 0.131009 0.250000
O O10 0.601883 0.164868 0.201238
O O11 0.820959 0.084957 0.562501
O O12 0.886800 0.028528 0.681547
O O13 0.000000 0.058163 0.555564
O O14 0.877103 0.000000 0.500000
O O15 0.828254 0.580641 0.170506
O O16 0.500000 0.554241 0.307735
O O17 0.500000 0.314548 0.057007
O O18 0.596447 0.250000 0.135845
#
# Coordination Sequence:
#
# PCOD9537324 Si02
#       7
#    16  16  16  16  16  16  16
#     4   9  19  33  47  69 100 134 178 230 277 318
#     4  10  20  33  52  81 113 143 177 215 255 309
#     4   9  17  28  45  70 103 143 181 220 266 319
#     4  10  22  38  56  82 112 140 172 213 264 321
#     4  11  21  34  57  80 105 144 182 218 262 315
#     4  10  21  37  57  79 107 140 173 214 262 315
#     4   9  16  27  45  68  98 140 184 223 266 316
#
# _framework density 18.852641999999999
#
# number of rings (size 3 to 8) (size 9 to 14) (size 15 to 20)
#    0.000    2.286    0.000    3.000    0.000    8.000 
#    0.000    1.429    0.000   10.286    0.000    2.000 
#    0.000    0.000    0.000    0.000    0.000    0.000 
#
# Total GULP energy -312341.319427 kJ/mol
# GULP energy per Si atom -5577.523561 kJ/mol
# Density = 1.880973 g / cm^3
# Si number density = 18.852642 Si / 1000 Ang^3
#
#
#
# Elastic Constant Matrix: (Units=GPa)
#
#
# Indices 1 2 3 4 5 6 
#
# 1 57.7404 35.7473 18.5442 0.0000 0.0000 0.0000
# 2 35.7473 108.2994 40.0002 0.0000 0.0000 0.0000
# 3 18.5442 40.0002 66.7404 0.0000 -0.0002 -0.0001
# 4 0.0000 0.0000 0.0000 22.4150 -0.0001 0.0000
# 5 0.0000 0.0000 -0.0002 -0.0001 -29.3933 -0.0003
# 6 0.0000 0.0000 -0.0001 0.0000 -0.0003 1.7335
#
#
#
# Elastic Compliance Matrix: (Units=1/GPa)
#
#
# Indices 1 2 3 4 5 6 
#
# 1 0.022030 -0.006435 -0.002264 0.000000 0.000000 0.000000
# 2 -0.006435 0.013739 -0.006446 0.000000 0.000000 0.000000
# 3 -0.002264 -0.006446 0.019476 0.000000 0.000000 0.000001
# 4 0.000000 0.000000 0.000000 0.044613 0.000000 0.000000
# 5 0.000000 0.000000 0.000000 0.000000 -0.034021 -0.000006
# 6 0.000000 0.000000 0.000001 0.000000 -0.000006 0.576876
#
#
# Mechanical properties :
#
#
# Convention : Reuss Voigt Hill
#
# Bulk Modulus (GPa) = 40.07448 46.81817 43.44633
# Shear Modulus (GPa) = 7.33868 8.18359 7.76114
#
# Velocity S-wave (km/s) = 1.97512 2.08572 2.03118
# Velocity P-wave (km/s) = 5.14823 5.53967 5.34754
#
# Compressibility (1/GPa) = 0.02495353
#
# Stress axis : x y z
#
# Youngs Moduli (GPa) = 45.39202 72.78706 51.34544
#
# Poissons Ratio (x) = 0.46842 0.11626
# Poissons Ratio (y) = 0.29212 0.33097
# Poissons Ratio (z) = 0.10278 0.46919
#
# Static dielectric constant tensor:
#      x y z
#    x 1.697990 0.000000 0.000000 
#    y 0.000000 1.644690 0.000000 
#    z 0.000000 0.000000 1.653210 
# 
# From -- ./inp_files/33167.got.cif
#   From: 2010.05.17/outbox.cif.g08.bks.cpg/sg74_17_cif.got.tgz:33167.got - 2010.06.03 17:57:02.
