data_PCOD9537520
_publ_section_title
;
Structure prediction by ZEFSAII (Michael W. Deem and Ramdas Pophale) SiO2 
 PCOD9537520
Probable space group: I M M A
;
_chemical_formula_sum "Si O2"
_cell_formula_units_Z 96
_cell_length_a 21.328340
_cell_length_b 7.730900
_cell_length_c 28.029292
_cell_angle_alpha 90.000000
_cell_angle_beta 90.000000
_cell_angle_gamma 90.000000
_cell_volume 4621.673261
_symmetry_space_group_name_H-M "I M M A"
_symmetry_group_IT_number 74
_symmetry_cell_setting 'orthorhombic'
loop_
_space_group_symop_operation_xyz
x,y,z
-x,1/2-y,z
x,-y,-z
-x,1/2+y,-z
-x,-y,-z
x,1/2+y,-z
-x,y,z
x,1/2-y,z
1/2+x,1/2+y,1/2+z
1/2-x,-y,1/2+z
1/2+x,1/2-y,1/2-z
1/2-x,y,1/2-z
1/2-x,1/2-y,1/2-z
1/2+x,y,1/2-z
1/2-x,1/2+y,1/2+z
1/2+x,-y,1/2+z
loop_
_atom_site_type_symbol
_atom_site_label
_atom_site_fract_x
_atom_site_fract_y
_atom_site_fract_z
Si Si1 0.430197 0.038876 0.289337
Si Si2 0.816168 0.046163 0.619910
Si Si3 0.429509 0.458188 0.944931
Si Si4 0.686088 0.546582 0.770950
Si Si5 0.070249 0.460765 0.099770
Si Si6 0.301219 0.456228 0.445369
O O1 0.500000 0.980621 0.275579
O O2 0.431129 0.250000 0.288196
O O3 0.375799 0.974650 0.254637
O O4 0.419322 0.991721 0.344705
O O5 0.825733 0.250000 0.626473
O O6 0.874738 0.975731 0.589248
O O7 0.813795 0.967686 0.672334
O O8 0.752474 0.021229 0.590177
O O9 0.500000 0.522382 0.934015
O O10 0.430580 0.250000 0.941004
O O11 0.415686 0.500000 0.000000
O O12 0.686182 0.750000 0.758348
O O13 0.750000 0.469291 0.750000
O O14 0.069464 0.250000 0.097818
O O15 0.129387 0.521940 0.069045
O O16 0.000000 0.518849 0.085573
O O17 0.286584 0.500000 0.500000
O O18 0.302078 0.250000 0.440466
#
# Coordination Sequence:
#
# PCOD9537520 Si02
#       6
#    16  16  16  16  16  16
#     4   8  14  27  49  76 103 131 168 213 257 304
#     4  11  23  37  54  77 106 140 177 219 265 314
#     4   9  19  36  56  77 102 134 172 214 261 312
#     4  10  20  34  53  77 104 136 175 217 261 310
#     4   8  15  30  53  79 106 138 175 214 257 305
#     4  11  22  36  55  79 108 141 177 219 264 312
#
# _framework density 20.771698000000001
#
# number of rings (size 3 to 8) (size 9 to 14) (size 15 to 20)
#    0.000    2.500    0.000    3.500    0.000    6.667 
#    0.000    0.000    0.000    1.500    0.000    4.667 
#    0.000    0.000    0.000    0.000    0.000    0.000 
#
# Total GULP energy -267970.247543 kJ/mol
# GULP energy per Si atom -5582.713490 kJ/mol
# Density = 2.072442 g / cm^3
# Si number density = 20.771698 Si / 1000 Ang^3
#
#
#
# Elastic Constant Matrix: (Units=GPa)
#
#
# Indices 1 2 3 4 5 6 
#
# 1 77.6741 4.8869 12.4186 0.0000 0.0000 0.0000
# 2 4.8869 29.1986 -9.1159 0.0000 0.0000 0.0000
# 3 12.4186 -9.1159 26.7987 0.0000 0.0000 0.0000
# 4 0.0000 0.0000 0.0000 16.1505 0.0000 0.0000
# 5 0.0000 0.0000 0.0000 0.0000 45.5338 0.0000
# 6 0.0000 0.0000 0.0000 0.0000 0.0000 5.3221
#
#
#
# Elastic Compliance Matrix: (Units=1/GPa)
#
#
# Indices 1 2 3 4 5 6 
#
# 1 0.014548 -0.005079 -0.008469 0.000000 0.000000 0.000000
# 2 -0.005079 0.040091 0.015991 0.000000 0.000000 0.000000
# 3 -0.008469 0.015991 0.046679 0.000000 0.000000 0.000000
# 4 0.000000 0.000000 0.000000 0.061918 0.000000 0.000000
# 5 0.000000 0.000000 0.000000 0.000000 0.021962 0.000000
# 6 0.000000 0.000000 0.000000 0.000000 0.000000 0.187897
#
#
# Mechanical properties :
#
#
# Convention : Reuss Voigt Hill
#
# Bulk Modulus (GPa) = 9.41589 16.67228 13.04408
# Shear Modulus (GPa) = 12.38819 21.76672 17.07745
#
# Velocity S-wave (km/s) = 2.44477 3.24064 2.87043
# Velocity P-wave (km/s) = 3.53725 4.69534 4.15682
#
# Compressibility (1/GPa) = 0.10620348
#
# Stress axis : x y z
#
# Youngs Moduli (GPa) = 68.73845 24.94345 21.42275
#
# Poissons Ratio (x) = 0.12669 0.18143
# Poissons Ratio (y) = 0.34912 -0.34257
# Poissons Ratio (z) = 0.58216 -0.39887
#
# Static dielectric constant tensor:
#      x y z
#    x 1.780100 0.000000 0.000000 
#    y 0.000000 1.778200 0.000000 
#    z 0.000000 0.000000 1.662210 
# 
# From -- ./inp_files/64359.got.cif
#   From: 2010.05.17/outbox.cif.g08.bks.cpg/sg74_33_cif.got.tgz:64359.got - 2010.06.03 17:57:02.
