data_PCOD9537828
_publ_section_title
;
Structure prediction by ZEFSAII (Michael W. Deem and Ramdas Pophale) SiO2 
 PCOD9537828
Probable space group: I M M A
;
_chemical_formula_sum "Si O2"
_cell_formula_units_Z 96
_cell_length_a 30.769635
_cell_length_b 18.805885
_cell_length_c 9.718449
_cell_angle_alpha 90.000000
_cell_angle_beta 90.000000
_cell_angle_gamma 90.000000
_cell_volume 5623.582626
_symmetry_space_group_name_H-M "I M M A"
_symmetry_group_IT_number 74
_symmetry_cell_setting 'orthorhombic'
loop_
_space_group_symop_operation_xyz
x,y,z
-x,1/2-y,z
x,-y,-z
-x,1/2+y,-z
-x,-y,-z
x,1/2+y,-z
-x,y,z
x,1/2-y,z
1/2+x,1/2+y,1/2+z
1/2-x,-y,1/2+z
1/2+x,1/2-y,1/2-z
1/2-x,y,1/2-z
1/2-x,1/2-y,1/2-z
1/2+x,y,1/2-z
1/2-x,1/2+y,1/2+z
1/2+x,-y,1/2+z
loop_
_atom_site_type_symbol
_atom_site_label
_atom_site_fract_x
_atom_site_fract_y
_atom_site_fract_z
Si Si1 0.706336 0.834471 0.833549
Si Si2 0.879576 0.090627 0.642791
Si Si3 0.621428 0.922745 0.824073
Si Si4 0.050785 0.928113 0.912661
Si Si5 0.050749 0.832661 0.173495
Si Si6 0.790129 0.334973 0.656651
O O1 0.696388 0.750000 0.821503
O O2 0.750000 0.849319 0.750000
O O3 0.665298 0.880746 0.784731
O O4 0.715780 0.849848 0.994332
O O5 0.888067 0.102947 0.480205
O O6 0.919908 0.119590 0.728366
O O7 0.836296 0.130873 0.691488
O O8 0.871530 0.007257 0.664808
O O9 0.582555 0.915102 0.715152
O O10 0.000000 0.935023 0.870518
O O11 0.054867 0.863517 0.019942
O O12 0.061565 0.000000 0.000000
O O13 0.063312 0.750000 0.181296
O O14 0.000000 0.839026 0.211487
O O15 0.793061 0.250000 0.673570
O O16 0.750000 0.360401 0.750000
#
# Coordination Sequence:
#
# PCOD9537828 Si02
#       6
#    16  16  16  16  16  16
#     4   9  19  36  54  75 107 144 183 229 278 329
#     4  10  20  35  54  81 113 142 179 229 277 330
#     4  10  21  35  56  82 110 146 185 225 280 338
#     4  10  20  37  57  80 112 148 186 233 284 336
#     4  10  21  37  57  81 110 145 184 227 276 331
#     4   9  18  33  52  74 103 141 181 221 270 327
#
# _framework density 17.070969000000002
#
# number of rings (size 3 to 8) (size 9 to 14) (size 15 to 20)
#    0.000    2.333    1.667    0.500    0.000    4.000 
#    0.000    3.333    0.000    2.000    0.000    0.000 
#    0.000    0.000    0.000    0.000    0.000    0.000 
#
# Total GULP energy -267611.337994 kJ/mol
# GULP energy per Si atom -5575.236208 kJ/mol
# Density = 1.703211 g / cm^3
# Si number density = 17.070969 Si / 1000 Ang^3
#
#
#
# Elastic Constant Matrix: (Units=GPa)
#
#
# Indices 1 2 3 4 5 6 
#
# 1 120.5452 46.5917 77.1247 0.0000 0.0000 0.0000
# 2 46.5917 54.3484 29.0015 0.0000 0.0000 0.0000
# 3 77.1247 29.0015 68.8226 0.0000 0.0000 0.0000
# 4 0.0000 0.0000 0.0000 20.6833 0.0000 0.0000
# 5 0.0000 0.0000 0.0000 0.0000 36.2577 0.0000
# 6 0.0000 0.0000 0.0000 0.0000 0.0000 28.7669
#
#
#
# Elastic Compliance Matrix: (Units=1/GPa)
#
#
# Indices 1 2 3 4 5 6 
#
# 1 0.034010 -0.011376 -0.033318 0.000000 0.000000 0.000000
# 2 -0.011376 0.027543 0.001142 0.000000 0.000000 0.000000
# 3 -0.033318 0.001142 0.051386 0.000000 0.000000 0.000000
# 4 0.000000 0.000000 0.000000 0.048348 0.000000 0.000000
# 5 0.000000 0.000000 0.000000 0.000000 0.027580 0.000000
# 6 0.000000 0.000000 0.000000 0.000000 0.000000 0.034762
#
#
# Mechanical properties :
#
#
# Convention : Reuss Voigt Hill
#
# Bulk Modulus (GPa) = 38.70860 61.01688 49.86274
# Shear Modulus (GPa) = 15.65697 23.20813 19.43255
#
# Velocity S-wave (km/s) = 3.03177 3.69115 3.37759
# Velocity P-wave (km/s) = 5.91437 7.34757 6.66958
#
# Compressibility (1/GPa) = 0.02583405
#
# Stress axis : x y z
#
# Youngs Moduli (GPa) = 29.40326 36.30680 19.46040
#
# Poissons Ratio (x) = 0.41304 0.64839
# Poissons Ratio (y) = 0.33450 -0.02223
# Poissons Ratio (z) = 0.97967 -0.04147
#
# Static dielectric constant tensor:
#      x y z
#    x 1.565650 0.000000 0.000000 
#    y 0.000000 1.577080 0.000000 
#    z 0.000000 0.000000 1.573060 
# 
# From -- ./inp_files/15146.got.cif
#   From: 2010.05.17/outbox.cif.g08.bks.cpg/sg74_8_cif.got.tgz:15146.got - 2010.06.03 17:57:02.
