data_PCOD9537100
_publ_section_title
;
Structure prediction by ZEFSAII (Michael W. Deem and Ramdas Pophale) SiO2 
 PCOD9537100
Probable space group: I M M A
;
_chemical_formula_sum "Si O2"
_cell_formula_units_Z 96
_cell_length_a 15.025619
_cell_length_b 14.993198
_cell_length_c 22.217119
_cell_angle_alpha 90.000000
_cell_angle_beta 90.000000
_cell_angle_gamma 90.000000
_cell_volume 5005.118796
_symmetry_space_group_name_H-M "I M M A"
_symmetry_group_IT_number 74
_symmetry_cell_setting 'orthorhombic'
loop_
_space_group_symop_operation_xyz
x,y,z
-x,1/2-y,z
x,-y,-z
-x,1/2+y,-z
-x,-y,-z
x,1/2+y,-z
-x,y,z
x,1/2-y,z
1/2+x,1/2+y,1/2+z
1/2-x,-y,1/2+z
1/2+x,1/2-y,1/2-z
1/2-x,y,1/2-z
1/2-x,1/2-y,1/2-z
1/2+x,y,1/2-z
1/2-x,1/2+y,1/2+z
1/2+x,-y,1/2+z
loop_
_atom_site_type_symbol
_atom_site_label
_atom_site_fract_x
_atom_site_fract_y
_atom_site_fract_z
Si Si1 0.788665 0.017128 0.637515
Si Si2 0.289218 0.349816 0.974954
Si Si3 0.596927 0.605903 0.486455
Si Si4 0.896255 0.148460 0.721476
Si Si5 0.902503 0.566391 0.150022
Si Si6 0.604819 0.647457 0.904892
O O1 0.795664 0.073973 0.575339
O O2 0.833496 0.079130 0.687837
O O3 0.683926 0.004526 0.649480
O O4 0.840423 0.925282 0.631724
O O5 0.297369 0.250000 0.948591
O O6 0.191643 0.356271 0.006506
O O7 0.362968 0.361233 0.025997
O O8 0.598938 0.500000 0.500000
O O9 0.500000 0.638868 0.508341
O O10 0.598523 0.616943 0.413918
O O11 0.870163 0.250000 0.708480
O O12 0.893353 0.130715 0.792939
O O13 0.000000 0.136203 0.702935
O O14 0.000000 0.522046 0.154007
O O15 0.500000 0.630523 0.900138
O O16 0.622348 0.750000 0.887036
#
# Coordination Sequence:
#
# PCOD9537100 Si02
#       6
#    16  16  16  16  16  16
#     4  11  20  34  57  79 104 144 189 226 263 318
#     4  10  20  32  49  78 111 142 178 220 271 327
#     4   9  17  31  51  74 103 142 185 223 258 304
#     4  10  21  35  52  80 117 151 183 220 263 317
#     4   9  19  33  50  75 109 145 176 213 264 314
#     4  10  22  39  57  78 105 136 174 225 280 327
#
# _framework density 19.180364000000001
#
# number of rings (size 3 to 8) (size 9 to 14) (size 15 to 20)
#    0.000    2.167    0.000    4.000    0.000    6.333 
#    0.000    5.000    0.000    3.500    0.000    2.333 
#    0.000    0.000    0.000    0.000    0.000    0.000 
#
# Total GULP energy -267750.216309 kJ/mol
# GULP energy per Si atom -5578.129506 kJ/mol
# Density = 1.913671 g / cm^3
# Si number density = 19.180364 Si / 1000 Ang^3
#
#
#
# Elastic Constant Matrix: (Units=GPa)
#
#
# Indices 1 2 3 4 5 6 
#
# 1 135.4041 70.4379 21.3508 0.0000 0.0000 0.0000
# 2 70.4379 95.2113 23.4065 0.0000 0.0000 0.0000
# 3 21.3508 23.4065 34.8111 0.0000 0.0000 0.0000
# 4 0.0000 0.0000 0.0000 8.8949 0.0000 0.0000
# 5 0.0000 0.0000 0.0000 0.0000 24.9216 0.0000
# 6 0.0000 0.0000 0.0000 0.0000 0.0000 -4.5836
#
#
#
# Elastic Compliance Matrix: (Units=1/GPa)
#
#
# Indices 1 2 3 4 5 6 
#
# 1 0.012087 -0.008529 -0.001678 0.000000 0.000000 0.000000
# 2 -0.008529 0.018602 -0.007276 0.000000 0.000000 0.000000
# 3 -0.001678 -0.007276 0.034648 0.000000 0.000000 0.000000
# 4 0.000000 0.000000 0.000000 0.112424 0.000000 0.000000
# 5 0.000000 0.000000 0.000000 0.000000 0.040126 0.000000
# 6 0.000000 0.000000 0.000000 0.000000 0.000000 -0.218168
#
#
# Mechanical properties :
#
#
# Convention : Reuss Voigt Hill
#
# Bulk Modulus (GPa) = 32.92808 55.09075 44.00941
# Shear Modulus (GPa) = 111.58437 15.86200 63.72319
#
# Velocity S-wave (km/s) = 7.63562 2.87887 5.77020
# Velocity P-wave (km/s) = 9.74380 6.31152 8.20905
#
# Compressibility (1/GPa) = 0.03036922
#
# Stress axis : x y z
#
# Youngs Moduli (GPa) = 82.73349 53.75806 28.86147
#
# Poissons Ratio (x) = 0.45853 0.04844
# Poissons Ratio (y) = 0.70567 0.21000
# Poissons Ratio (z) = 0.13885 0.39116
#
# Static dielectric constant tensor:
#      x y z
#    x 1.716230 0.000000 0.000000 
#    y 0.000000 1.655330 0.000000 
#    z 0.000000 0.000000 1.670580 
# 
# From -- ./inp_files/51885.got.cif
#   From: 2010.05.17/outbox.cif.g08.bks.cpg/sg74_26_cif.got.tgz:51885.got - 2010.06.03 17:57:02.
