data_PCOD9537180
_publ_section_title
;
Structure prediction by ZEFSAII (Michael W. Deem and Ramdas Pophale) SiO2 
 PCOD9537180
Probable space group: I M M A
;
_chemical_formula_sum "Si O2"
_cell_formula_units_Z 88
_cell_length_a 20.731361
_cell_length_b 9.021651
_cell_length_c 27.064943
_cell_angle_alpha 90.000000
_cell_angle_beta 90.000000
_cell_angle_gamma 90.000000
_cell_volume 5061.986161
_symmetry_space_group_name_H-M "I M M A"
_symmetry_group_IT_number 74
_symmetry_cell_setting 'orthorhombic'
loop_
_space_group_symop_operation_xyz
x,y,z
-x,1/2-y,z
x,-y,-z
-x,1/2+y,-z
-x,-y,-z
x,1/2+y,-z
-x,y,z
x,1/2-y,z
1/2+x,1/2+y,1/2+z
1/2-x,-y,1/2+z
1/2+x,1/2-y,1/2-z
1/2-x,y,1/2-z
1/2-x,1/2-y,1/2-z
1/2+x,y,1/2-z
1/2-x,1/2+y,1/2+z
1/2+x,-y,1/2+z
loop_
_atom_site_type_symbol
_atom_site_label
_atom_site_fract_x
_atom_site_fract_y
_atom_site_fract_z
Si Si1 0.000000 0.571850 0.054266
Si Si2 0.858920 0.071600 0.946053
Si Si3 0.234954 0.427873 0.858220
Si Si4 0.500000 0.919798 0.168485
Si Si5 0.633625 0.575496 0.712873
Si Si6 0.366842 0.924324 0.831783
Si Si7 0.000000 0.919715 0.211345
O O1 0.930037 0.529962 0.075486
O O2 0.000000 0.750000 0.050513
O O3 0.000000 0.500000 0.000000
O O4 0.857680 0.250000 0.951298
O O5 0.803203 0.029316 0.908057
O O6 0.851875 0.000000 0.000000
O O7 0.236848 0.250000 0.854673
O O8 0.192152 0.493401 0.813760
O O9 0.306141 0.494268 0.855632
O O10 0.500000 0.750000 0.151543
O O11 0.500000 0.916953 0.228637
O O12 0.434937 0.003690 0.153482
O O13 0.634607 0.750000 0.701287
O O14 0.639108 0.559638 0.772171
O O15 0.565519 0.503171 0.697285
O O16 0.366189 0.750000 0.842870
O O17 0.000000 0.750000 0.192959
#
# Coordination Sequence:
#
# PCOD9537180 Si02
#       7
#     8  16  16   8  16  16   8
#     4   8  14  29  50  69  91 121 158 199 242 283
#     4   9  19  34  52  73  97 127 164 207 251 295
#     4  11  22  33  48  73 101 131 168 207 250 297
#     4   9  17  31  52  74  96 126 164 204 244 291
#     4  10  20  33  48  69  99 134 171 208 246 291
#     4  10  20  34  51  72 100 133 167 204 246 293
#     4   9  17  30  48  69  95 131 170 207 248 288
#
# _framework density 17.38448
#
# number of rings (size 3 to 8) (size 9 to 14) (size 15 to 20)
#    0.000    2.364    0.000    2.727    0.000    8.727 
#    0.000    1.818    0.000    2.182    0.000    0.636 
#    0.000    0.000    0.000    0.000    0.000    0.000 
#
# Total GULP energy -245513.654782 kJ/mol
# GULP energy per Si atom -5579.855791 kJ/mol
# Density = 1.734491 g / cm^3
# Si number density = 17.384480 Si / 1000 Ang^3
#
#
#
# Elastic Constant Matrix: (Units=GPa)
#
#
# Indices 1 2 3 4 5 6 
#
# 1 196.0844 81.4419 47.2790 0.0000 0.0000 0.0000
# 2 81.4419 91.7353 38.4145 0.0000 0.0000 0.0000
# 3 47.2790 38.4145 40.2409 0.0000 0.0000 0.0000
# 4 0.0000 0.0000 0.0000 17.2877 0.0000 0.0000
# 5 0.0000 0.0000 0.0000 0.0000 88.0844 0.0000
# 6 0.0000 0.0000 0.0000 0.0000 0.0000 30.9561
#
#
#
# Elastic Compliance Matrix: (Units=1/GPa)
#
#
# Indices 1 2 3 4 5 6 
#
# 1 0.008577 -0.005655 -0.004678 0.000000 0.000000 0.000000
# 2 -0.005655 0.021890 -0.014252 0.000000 0.000000 0.000000
# 3 -0.004678 -0.014252 0.043951 0.000000 0.000000 0.000000
# 4 0.000000 0.000000 0.000000 0.057844 0.000000 0.000000
# 5 0.000000 0.000000 0.000000 0.000000 0.011353 0.000000
# 6 0.000000 0.000000 0.000000 0.000000 0.000000 0.032304
#
#
# Mechanical properties :
#
#
# Convention : Reuss Voigt Hill
#
# Bulk Modulus (GPa) = 39.60777 73.59239 56.60008
# Shear Modulus (GPa) = 21.41282 37.99399 29.70341
#
# Velocity S-wave (km/s) = 3.51339 4.68002 4.13803
# Velocity P-wave (km/s) = 6.26829 8.46331 7.44711
#
# Compressibility (1/GPa) = 0.02524757
#
# Stress axis : x y z
#
# Youngs Moduli (GPa) = 116.59478 45.68362 22.75239
#
# Poissons Ratio (x) = 0.25836 0.10644
# Poissons Ratio (y) = 0.65939 0.32426
# Poissons Ratio (z) = 0.54544 0.65107
#
# Static dielectric constant tensor:
#      x y z
#    x 1.591710 0.000000 0.000000 
#    y 0.000000 1.580120 0.000000 
#    z 0.000000 0.000000 1.566600 
# 
# From -- ./inp_files/70317.got.cif
#   From: 2010.05.17/outbox.cif.g08.bks.cpg/sg74_36_cif.got.tgz:70317.got - 2010.06.03 17:57:02.
