data_PCOD9537154
_publ_section_title
;
Structure prediction by ZEFSAII (Michael W. Deem and Ramdas Pophale) SiO2 
 PCOD9537154
Probable space group: I M M A
;
_chemical_formula_sum "Si O2"
_cell_formula_units_Z 80
_cell_length_a 17.379759
_cell_length_b 10.110735
_cell_length_c 25.933534
_cell_angle_alpha 90.000000
_cell_angle_beta 90.000000
_cell_angle_gamma 90.000000
_cell_volume 4557.096030
_symmetry_space_group_name_H-M "I M M A"
_symmetry_group_IT_number 74
_symmetry_cell_setting 'orthorhombic'
loop_
_space_group_symop_operation_xyz
x,y,z
-x,1/2-y,z
x,-y,-z
-x,1/2+y,-z
-x,-y,-z
x,1/2+y,-z
-x,y,z
x,1/2-y,z
1/2+x,1/2+y,1/2+z
1/2-x,-y,1/2+z
1/2+x,1/2-y,1/2-z
1/2-x,y,1/2-z
1/2-x,1/2-y,1/2-z
1/2+x,y,1/2-z
1/2-x,1/2+y,1/2+z
1/2+x,-y,1/2+z
loop_
_atom_site_type_symbol
_atom_site_label
_atom_site_fract_x
_atom_site_fract_y
_atom_site_fract_z
Si Si1 0.317592 0.490645 0.404250
Si Si2 0.909686 0.750000 0.081664
Si Si3 0.838624 0.904012 0.455334
Si Si4 0.092033 0.750000 0.957533
Si Si5 0.588956 0.097634 0.843950
Si Si6 0.218683 0.597301 0.692347
O O1 0.370036 0.619035 0.396618
O O2 0.244398 0.539537 0.437729
O O3 0.366094 0.378058 0.433496
O O4 0.282652 0.438079 0.350639
O O5 0.000000 0.750000 0.091956
O O6 0.898864 0.750000 0.019415
O O7 0.831360 0.750000 0.471275
O O8 0.892071 0.909722 0.404909
O O9 0.867745 0.000000 0.500000
O O10 0.000000 0.750000 0.946673
O O11 0.500000 0.067204 0.834526
O O12 0.604006 0.250000 0.828513
O O13 0.646958 0.998749 0.816562
O O14 0.196176 0.750000 0.684377
O O15 0.250000 0.582352 0.750000
#
# Coordination Sequence:
#
# PCOD9537154 Si02
#       6
#    16   8  16   8  16  16
#     4  11  21  37  56  82 112 149 192 239 278 337
#     4  11  22  36  55  82 119 157 192 231 284 344
#     4  10  20  32  53  81 112 149 187 225 270 327
#     4  11  22  36  55  80 115 159 192 231 286 336
#     4   9  20  39  59  84 116 146 182 229 281 333
#     4  10  22  41  64  85 109 146 192 238 286 337
#
# _framework density 17.555038
#
# number of rings (size 3 to 8) (size 9 to 14) (size 15 to 20)
#    0.000    1.800    2.000    2.400    2.800    3.600 
#    0.000    2.000    0.000    0.000    0.000    0.000 
#    0.000    0.000    0.000    0.000    0.000    0.000 
#
# Total GULP energy -223375.549758 kJ/mol
# GULP energy per Si atom -5584.388744 kJ/mol
# Density = 1.751508 g / cm^3
# Si number density = 17.555038 Si / 1000 Ang^3
#
#
#
# Elastic Constant Matrix: (Units=GPa)
#
#
# Indices 1 2 3 4 5 6 
#
# 1 107.5177 71.8637 33.9847 0.0000 0.0000 0.0000
# 2 71.8637 150.8751 54.3266 0.0000 0.0000 0.0000
# 3 33.9847 54.3266 61.2352 0.0000 0.0000 0.0000
# 4 0.0000 0.0000 0.0000 26.1290 0.0000 0.0000
# 5 0.0000 0.0000 0.0000 0.0000 5.0797 0.0000
# 6 0.0000 0.0000 0.0000 0.0000 0.0000 24.6741
#
#
#
# Elastic Compliance Matrix: (Units=1/GPa)
#
#
# Indices 1 2 3 4 5 6 
#
# 1 0.013945 -0.005665 -0.002713 0.000000 0.000000 0.000000
# 2 -0.005665 0.012041 -0.007538 0.000000 0.000000 0.000000
# 3 -0.002713 -0.007538 0.024524 0.000000 0.000000 0.000000
# 4 0.000000 0.000000 0.000000 0.038272 0.000000 0.000000
# 5 0.000000 0.000000 0.000000 0.000000 0.196861 0.000000
# 6 0.000000 0.000000 0.000000 0.000000 0.000000 0.040528
#
#
# Mechanical properties :
#
#
# Convention : Reuss Voigt Hill
#
# Bulk Modulus (GPa) = 53.54323 71.10865 62.32594
# Shear Modulus (GPa) = 13.72762 21.80677 17.76720
#
# Velocity S-wave (km/s) = 2.79942 3.52830 3.18478
# Velocity P-wave (km/s) = 6.40433 7.56258 7.00743
#
# Compressibility (1/GPa) = 0.01867650
#
# Stress axis : x y z
#
# Youngs Moduli (GPa) = 71.71052 83.05155 40.77639
#
# Poissons Ratio (x) = 0.47050 0.11064
# Poissons Ratio (y) = 0.40625 0.30738
# Poissons Ratio (z) = 0.19457 0.62606
#
# Static dielectric constant tensor:
#      x y z
#    x 1.576810 0.000000 0.000000 
#    y 0.000000 1.589070 0.000000 
#    z 0.000000 0.000000 1.581990 
# 
# From -- ./inp_files/72875.got.cif
#   From: 2010.05.17/outbox.cif.g08.bks.cpg/sg74_37_cif.got.tgz:72875.got - 2010.06.03 17:57:02.
