data_PCOD9537917
_publ_section_title
;
Structure prediction by ZEFSAII (Michael W. Deem and Ramdas Pophale) SiO2 
 PCOD9537917
Probable space group: I M M A
;
_chemical_formula_sum "Si O2"
_cell_formula_units_Z 80
_cell_length_a 17.974673
_cell_length_b 27.350218
_cell_length_c 8.236207
_cell_angle_alpha 90.000000
_cell_angle_beta 90.000000
_cell_angle_gamma 90.000000
_cell_volume 4049.011813
_symmetry_space_group_name_H-M "I M M A"
_symmetry_group_IT_number 74
_symmetry_cell_setting 'orthorhombic'
loop_
_space_group_symop_operation_xyz
x,y,z
-x,1/2-y,z
x,-y,-z
-x,1/2+y,-z
-x,-y,-z
x,1/2+y,-z
-x,y,z
x,1/2-y,z
1/2+x,1/2+y,1/2+z
1/2-x,-y,1/2+z
1/2+x,1/2-y,1/2-z
1/2-x,y,1/2-z
1/2-x,1/2-y,1/2-z
1/2+x,y,1/2-z
1/2-x,1/2+y,1/2+z
1/2+x,-y,1/2+z
loop_
_atom_site_type_symbol
_atom_site_label
_atom_site_fract_x
_atom_site_fract_y
_atom_site_fract_z
Si Si1 0.664918 0.590644 0.302060
Si Si2 0.833465 0.897454 0.810084
Si Si3 0.339718 0.803031 0.270655
Si Si4 0.087849 0.196528 0.128364
Si Si5 0.083933 0.006512 0.307236
O O1 0.750000 0.581873 0.250000
O O2 0.664897 0.597091 0.495572
O O3 0.637668 0.641782 0.219086
O O4 0.616523 0.543664 0.261888
O O5 0.750000 0.890266 0.750000
O O6 0.881390 0.849130 0.771764
O O7 0.866847 0.946771 0.736750
O O8 0.365140 0.750000 0.200077
O O9 0.250000 0.803477 0.250000
O O10 0.367296 0.801753 0.457831
O O11 0.098005 0.250000 0.206638
O O12 0.000000 0.190144 0.093985
O O13 0.000000 0.014609 0.247179
O O14 0.082964 0.000000 0.500000
#
# Coordination Sequence:
#
# PCOD9537917 Si02
#       5
#    16  16  16  16  16
#     4  10  20  35  56  81 111 144 183 229 278 334
#     4  11  22  36  58  84 113 148 188 233 282 338
#     4   8  15  29  51  80 112 146 184 230 282 333
#     4   9  18  33  54  82 115 149 187 233 283 337
#     4  11  24  40  57  78 108 145 186 235 289 343
#
# _framework density 19.757906999999999
#
# number of rings (size 3 to 8) (size 9 to 14) (size 15 to 20)
#    0.000    2.200    0.000    3.000    0.000    5.200 
#    0.000    0.000    0.000    3.600    0.000    2.800 
#    0.000    3.200    0.000    0.000    0.000    0.000 
#
# Total GULP energy -222908.234483 kJ/mol
# GULP energy per Si atom -5572.705862 kJ/mol
# Density = 1.971294 g / cm^3
# Si number density = 19.757907 Si / 1000 Ang^3
#
#
#
# Elastic Constant Matrix: (Units=GPa)
#
#
# Indices 1 2 3 4 5 6 
#
# 1 81.3655 73.3710 21.4378 0.0000 0.0000 0.0000
# 2 73.3710 183.3636 24.0598 0.0000 0.0000 0.0000
# 3 21.4378 24.0598 34.6325 -0.0002 -0.0001 0.0000
# 4 0.0000 0.0000 -0.0002 -32.5806 0.0000 0.0000
# 5 0.0000 0.0000 -0.0001 0.0000 1.2273 0.0000
# 6 0.0000 0.0000 0.0000 0.0000 0.0000 36.4576
#
#
#
# Elastic Compliance Matrix: (Units=1/GPa)
#
#
# Indices 1 2 3 4 5 6 
#
# 1 0.021019 -0.007376 -0.007887 0.000000 -0.000001 0.000000
# 2 -0.007376 0.008589 -0.001401 0.000000 0.000000 0.000000
# 3 -0.007887 -0.001401 0.034730 0.000000 0.000003 0.000000
# 4 0.000000 0.000000 0.000000 -0.030693 -0.000001 0.000000
# 5 -0.000001 0.000000 0.000003 -0.000001 0.814821 0.000000
# 6 0.000000 0.000000 0.000000 0.000000 0.000000 0.027429
#
#
# Mechanical properties :
#
#
# Convention : Reuss Voigt Hill
#
# Bulk Modulus (GPa) = 32.24731 59.67767 45.96249
# Shear Modulus (GPa) = 5.43738 13.05371 9.24555
#
# Velocity S-wave (km/s) = 1.66072 2.57316 2.16554
# Velocity P-wave (km/s) = 4.47593 6.25286 5.43747
#
# Compressibility (1/GPa) = 0.03101034
#
# Stress axis : x y z
#
# Youngs Moduli (GPa) = 47.57518 116.43015 28.79342
#
# Poissons Ratio (x) = 0.85876 0.22710
# Poissons Ratio (y) = 0.35090 0.04034
# Poissons Ratio (z) = 0.37523 0.16314
#
# Static dielectric constant tensor:
#      x y z
#    x 1.683430 0.000000 0.000000 
#    y 0.000000 1.758370 0.000000 
#    z 0.000000 0.000000 1.686940 
# 
# From -- ./inp_files/10924.got.cif
#   From: 2010.05.17/outbox.cif.g08.bks.cpg/sg74_6_cif.got.tgz:10924.got - 2010.06.03 17:57:02.
