data_PCOD9537700
_publ_section_title
;
Structure prediction by ZEFSAII (Michael W. Deem and Ramdas Pophale) SiO2 
 PCOD9537700
Probable space group: I M M A
;
_chemical_formula_sum "Si O2"
_cell_formula_units_Z 96
_cell_length_a 15.304877
_cell_length_b 14.574942
_cell_length_c 21.106490
_cell_angle_alpha 90.000000
_cell_angle_beta 90.000000
_cell_angle_gamma 90.000000
_cell_volume 4708.176065
_symmetry_space_group_name_H-M "I M M A"
_symmetry_group_IT_number 74
_symmetry_cell_setting 'orthorhombic'
loop_
_space_group_symop_operation_xyz
x,y,z
-x,1/2-y,z
x,-y,-z
-x,1/2+y,-z
-x,-y,-z
x,1/2+y,-z
-x,y,z
x,1/2-y,z
1/2+x,1/2+y,1/2+z
1/2-x,-y,1/2+z
1/2+x,1/2-y,1/2-z
1/2-x,y,1/2-z
1/2-x,1/2-y,1/2-z
1/2+x,y,1/2-z
1/2-x,1/2+y,1/2+z
1/2+x,-y,1/2+z
loop_
_atom_site_type_symbol
_atom_site_label
_atom_site_fract_x
_atom_site_fract_y
_atom_site_fract_z
Si Si1 0.901779 0.535955 0.335258
Si Si2 0.229302 0.450460 0.900285
Si Si3 0.595416 0.856724 0.489266
Si Si4 0.846228 0.852996 0.218805
Si Si5 0.822237 0.852302 0.881562
Si Si6 0.104727 0.852811 0.739838
O O1 0.828859 0.576013 0.382990
O O2 0.902754 0.600154 0.273064
O O3 0.872945 0.436697 0.306462
O O4 0.000000 0.528630 0.361300
O O5 0.178098 0.408838 0.959693
O O6 0.167942 0.415841 0.842345
O O7 0.233159 0.559927 0.900457
O O8 0.500000 0.893028 0.469185
O O9 0.601274 0.750000 0.469681
O O10 0.601666 0.857476 0.565543
O O11 0.874795 0.750000 0.202279
O O12 0.750000 0.847599 0.250000
O O13 0.783906 0.750000 0.888575
O O14 0.853110 0.863065 0.809206
O O15 0.128268 0.750000 0.716736
O O16 0.000000 0.855888 0.747576
#
# Coordination Sequence:
#
# PCOD9537700 Si02
#       6
#    16  16  16  16  16  16
#     4  10  21  36  54  80 114 152 193 234 279 330
#     4  11  21  35  56  82 114 152 188 231 279 337
#     4  10  22  39  59  85 115 147 185 232 288 347
#     4   9  18  33  51  73 104 141 181 228 277 325
#     4  10  20  34  56  84 114 148 186 229 283 342
#     4   9  17  31  53  82 116 150 184 226 276 335
#
# _framework density 20.390062
#
# number of rings (size 3 to 8) (size 9 to 14) (size 15 to 20)
#    0.000    2.167    1.667    1.500    0.000    6.333 
#    0.000    1.667    0.000    2.000    0.000    2.333 
#    0.000    0.000    0.000    0.000    0.000    0.000 
#
# Total GULP energy -267559.738093 kJ/mol
# GULP energy per Si atom -5574.161210 kJ/mol
# Density = 2.034365 g / cm^3
# Si number density = 20.390062 Si / 1000 Ang^3
#
#
#
# Elastic Constant Matrix: (Units=GPa)
#
#
# Indices 1 2 3 4 5 6 
#
# 1 98.7569 20.4712 43.5171 0.0000 0.0000 0.0000
# 2 20.4712 96.9095 9.9573 0.0000 0.0000 0.0000
# 3 43.5171 9.9573 51.0359 0.0000 0.0000 0.0000
# 4 0.0000 0.0000 0.0000 25.8933 0.0000 0.0000
# 5 0.0000 0.0000 0.0000 0.0000 19.9895 0.0000
# 6 0.0000 0.0000 0.0000 0.0000 0.0000 18.2925
#
#
#
# Elastic Compliance Matrix: (Units=1/GPa)
#
#
# Indices 1 2 3 4 5 6 
#
# 1 0.016628 -0.002098 -0.013769 0.000000 0.000000 0.000000
# 2 -0.002098 0.010795 -0.000317 0.000000 0.000000 0.000000
# 3 -0.013769 -0.000317 0.031397 0.000000 0.000000 0.000000
# 4 0.000000 0.000000 0.000000 0.038620 0.000000 0.000000
# 5 0.000000 0.000000 0.000000 0.000000 0.050026 0.000000
# 6 0.000000 0.000000 0.000000 0.000000 0.000000 0.054667
#
#
# Mechanical properties :
#
#
# Convention : Reuss Voigt Hill
#
# Bulk Modulus (GPa) = 37.80599 43.84374 40.82487
# Shear Modulus (GPa) = 20.54923 24.35217 22.45070
#
# Velocity S-wave (km/s) = 3.17804 3.45964 3.32182
# Velocity P-wave (km/s) = 5.66111 6.12437 5.89730
#
# Compressibility (1/GPa) = 0.02645083
#
# Stress axis : x y z
#
# Youngs Moduli (GPa) = 60.13932 92.63851 31.85062
#
# Poissons Ratio (x) = 0.19433 0.43855
# Poissons Ratio (y) = 0.12616 0.01011
# Poissons Ratio (z) = 0.82806 0.02940
#
# Static dielectric constant tensor:
#      x y z
#    x 1.746160 0.000000 0.000000 
#    y 0.000000 1.772890 0.000000 
#    z 0.000000 0.000000 1.738120 
# 
# From -- ./inp_files/51922.got.cif
#   From: 2010.05.17/outbox.cif.g08.bks.cpg/sg74_26_cif.got.tgz:51922.got - 2010.06.03 17:57:02.
