data_PCOD9537663
_publ_section_title
;
Structure prediction by ZEFSAII (Michael W. Deem and Ramdas Pophale) SiO2 
 PCOD9537663
Probable space group: I M M A
;
_chemical_formula_sum "Si O2"
_cell_formula_units_Z 96
_cell_length_a 15.627540
_cell_length_b 14.989613
_cell_length_c 20.874404
_cell_angle_alpha 90.000000
_cell_angle_beta 90.000000
_cell_angle_gamma 90.000000
_cell_volume 4889.845351
_symmetry_space_group_name_H-M "I M M A"
_symmetry_group_IT_number 74
_symmetry_cell_setting 'orthorhombic'
loop_
_space_group_symop_operation_xyz
x,y,z
-x,1/2-y,z
x,-y,-z
-x,1/2+y,-z
-x,-y,-z
x,1/2+y,-z
-x,y,z
x,1/2-y,z
1/2+x,1/2+y,1/2+z
1/2-x,-y,1/2+z
1/2+x,1/2-y,1/2-z
1/2-x,y,1/2-z
1/2-x,1/2-y,1/2-z
1/2+x,y,1/2-z
1/2-x,1/2+y,1/2+z
1/2+x,-y,1/2+z
loop_
_atom_site_type_symbol
_atom_site_label
_atom_site_fract_x
_atom_site_fract_y
_atom_site_fract_z
Si Si1 0.401362 0.648526 0.758601
Si Si2 0.272234 0.351839 0.915159
Si Si3 0.405187 0.104310 0.517607
Si Si4 0.657556 0.152346 0.382998
Si Si5 0.181833 0.033372 0.361856
Si Si6 0.596619 0.852594 0.966906
O O1 0.500000 0.639461 0.778526
O O2 0.372909 0.750000 0.774410
O O3 0.395359 0.640222 0.681960
O O4 0.344580 0.575418 0.794148
O O5 0.280436 0.250000 0.892391
O O6 0.174588 0.368844 0.938054
O O7 0.305259 0.427996 0.867137
O O8 0.332354 0.361795 0.978078
O O9 0.500000 0.122864 0.544441
O O10 0.394647 0.149710 0.448328
O O11 0.399616 0.000000 0.500000
O O12 0.699701 0.250000 0.378930
O O13 0.729296 0.077435 0.383890
O O14 0.114639 0.074645 0.412539
O O15 0.500000 0.863296 0.992136
O O16 0.602864 0.750000 0.941959
#
# Coordination Sequence:
#
# PCOD9537663 Si02
#       6
#    16  16  16  16  16  16
#     4  10  22  38  58  88 121 153 192 237 295 363
#     4  11  23  39  56  81 117 157 203 248 291 341
#     4  11  21  37  61  89 120 158 198 240 296 357
#     4  11  21  36  59  88 120 152 185 233 294 358
#     4  12  21  35  56  83 115 156 196 239 288 348
#     4  10  20  34  55  83 117 155 194 240 296 355
#
# _framework density 19.632522999999999
#
# number of rings (size 3 to 8) (size 9 to 14) (size 15 to 20)
#    0.000    1.167    3.333    4.000    0.000    6.667 
#    0.000    0.000    0.000    2.000    0.000    0.000 
#    0.000    0.000    0.000    0.000    0.000    0.000 
#
# Total GULP energy -268133.971611 kJ/mol
# GULP energy per Si atom -5586.124409 kJ/mol
# Density = 1.958784 g / cm^3
# Si number density = 19.632523 Si / 1000 Ang^3
#
#
#
# Elastic Constant Matrix: (Units=GPa)
#
#
# Indices 1 2 3 4 5 6 
#
# 1 104.8341 26.2165 12.5263 0.0000 0.0000 0.0000
# 2 26.2165 138.4441 36.9520 0.0000 0.0000 0.0000
# 3 12.5263 36.9520 50.2578 0.0000 0.0000 0.0000
# 4 0.0000 0.0000 0.0000 46.4352 0.0000 0.0000
# 5 0.0000 0.0000 0.0000 0.0000 4.1840 0.0000
# 6 0.0000 0.0000 0.0000 0.0000 0.0000 21.1158
#
#
#
# Elastic Compliance Matrix: (Units=1/GPa)
#
#
# Indices 1 2 3 4 5 6 
#
# 1 0.010090 -0.001542 -0.001381 0.000000 0.000000 0.000000
# 2 -0.001542 0.009222 -0.006396 0.000000 0.000000 0.000000
# 3 -0.001381 -0.006396 0.024945 0.000000 0.000000 0.000000
# 4 0.000000 0.000000 0.000000 0.021535 0.000000 0.000000
# 5 0.000000 0.000000 0.000000 0.000000 0.239009 0.000000
# 6 0.000000 0.000000 0.000000 0.000000 0.000000 0.047358
#
#
# Mechanical properties :
#
#
# Convention : Reuss Voigt Hill
#
# Bulk Modulus (GPa) = 39.03557 49.43619 44.23588
# Shear Modulus (GPa) = 13.18092 28.86973 21.02533
#
# Velocity S-wave (km/s) = 2.59391 3.83888 3.27608
# Velocity P-wave (km/s) = 5.37564 6.69961 6.07380
#
# Compressibility (1/GPa) = 0.02561766
#
# Stress axis : x y z
#
# Youngs Moduli (GPa) = 99.11288 108.43167 40.08892
#
# Poissons Ratio (x) = 0.16720 0.05536
# Poissons Ratio (y) = 0.15283 0.25643
# Poissons Ratio (z) = 0.13687 0.69357
#
# Static dielectric constant tensor:
#      x y z
#    x 1.714790 0.000000 0.000000 
#    y 0.000000 1.735570 0.000000 
#    z 0.000000 0.000000 1.684990 
# 
# From -- ./inp_files/51848.got.cif
#   From: 2010.05.17/outbox.cif.g08.bks.cpg/sg74_26_cif.got.tgz:51848.got - 2010.06.03 17:57:02.
