data_PCOD9537830
_publ_section_title
;
Structure prediction by ZEFSAII (Michael W. Deem and Ramdas Pophale) SiO2 
 PCOD9537830
Probable space group: I M M A
;
_chemical_formula_sum "Si O2"
_cell_formula_units_Z 96
_cell_length_a 8.085047
_cell_length_b 27.266924
_cell_length_c 21.247608
_cell_angle_alpha 90.000000
_cell_angle_beta 90.000000
_cell_angle_gamma 90.000000
_cell_volume 4684.127867
_symmetry_space_group_name_H-M "I M M A"
_symmetry_group_IT_number 74
_symmetry_cell_setting 'orthorhombic'
loop_
_space_group_symop_operation_xyz
x,y,z
-x,1/2-y,z
x,-y,-z
-x,1/2+y,-z
-x,-y,-z
x,1/2+y,-z
-x,y,z
x,1/2-y,z
1/2+x,1/2+y,1/2+z
1/2-x,-y,1/2+z
1/2+x,1/2-y,1/2-z
1/2-x,y,1/2-z
1/2-x,1/2-y,1/2-z
1/2+x,y,1/2-z
1/2-x,1/2+y,1/2+z
1/2+x,-y,1/2+z
loop_
_atom_site_type_symbol
_atom_site_label
_atom_site_fract_x
_atom_site_fract_y
_atom_site_fract_z
Si Si1 0.197380 0.368326 0.815603
Si Si2 0.688475 0.525377 0.334403
Si Si3 0.303561 0.695233 0.064073
Si Si4 0.694839 0.363920 0.446694
Si Si5 0.799766 0.913971 0.819308
Si Si6 0.686173 0.949687 0.035441
O O1 0.250000 0.343061 0.750000
O O2 0.271915 0.423766 0.812564
O O3 0.243459 0.341232 0.880547
O O4 0.000000 0.372748 0.816148
O O5 0.500000 0.522817 0.310424
O O6 0.762283 0.470972 0.324650
O O7 0.694116 0.536800 0.407986
O O8 0.500000 0.696553 0.070042
O O9 0.235554 0.750000 0.074686
O O10 0.264721 0.678133 0.992640
O O11 0.500000 0.355110 0.440763
O O12 0.758949 0.379395 0.377049
O O13 0.732276 0.411326 0.489012
O O14 0.750000 0.896236 0.750000
O O15 0.000000 0.916032 0.824262
O O16 0.500000 0.932647 0.054963
O O17 0.664139 0.000000 0.000000
#
# Coordination Sequence:
#
# PCOD9537830 Si02
#       6
#    16  16  16  16  16  16
#     4  11  23  38  60  87 120 163 202 242 288 340
#     4  10  20  35  54  81 119 162 200 235 277 333
#     4  11  25  44  65  89 115 145 190 249 305 358
#     4  11  22  38  61  86 116 154 194 242 297 354
#     4  10  22  37  56  85 122 161 198 236 283 342
#     4  11  21  31  51  84 116 154 198 239 283 336
#
# _framework density 20.494744000000001
#
# number of rings (size 3 to 8) (size 9 to 14) (size 15 to 20)
#    0.000    1.333    3.333    2.500    0.000    5.000 
#    0.000    0.000    0.000    0.500    0.000    0.000 
#    0.000    0.000    0.000    0.000    0.000    0.000 
#
# Total GULP energy -267471.002742 kJ/mol
# GULP energy per Si atom -5572.312557 kJ/mol
# Density = 2.044810 g / cm^3
# Si number density = 20.494744 Si / 1000 Ang^3
#
#
#
# Elastic Constant Matrix: (Units=GPa)
#
#
# Indices 1 2 3 4 5 6 
#
# 1 26.6956 5.4221 19.1269 0.0000 0.0000 0.0000
# 2 5.4221 73.3103 40.9372 0.0000 0.0000 0.0000
# 3 19.1269 40.9372 154.9721 0.0000 0.0000 0.0000
# 4 0.0000 0.0000 0.0000 3.5083 0.0000 0.0000
# 5 0.0000 0.0000 0.0000 0.0000 30.4404 0.0000
# 6 0.0000 0.0000 0.0000 0.0000 0.0000 18.9513
#
#
#
# Elastic Compliance Matrix: (Units=1/GPa)
#
#
# Indices 1 2 3 4 5 6 
#
# 1 0.041097 -0.000243 -0.005008 0.000000 0.000000 0.000000
# 2 -0.000243 0.016002 -0.004197 0.000000 0.000000 0.000000
# 3 -0.005008 -0.004197 0.008180 0.000000 0.000000 0.000000
# 4 0.000000 0.000000 0.000000 0.285036 0.000000 0.000000
# 5 0.000000 0.000000 0.000000 0.000000 0.032851 0.000000
# 6 0.000000 0.000000 0.000000 0.000000 0.000000 0.052767
#
#
# Mechanical properties :
#
#
# Convention : Reuss Voigt Hill
#
# Bulk Modulus (GPa) = 21.55991 42.88338 32.22164
# Shear Modulus (GPa) = 10.63173 23.21280 16.92227
#
# Velocity S-wave (km/s) = 2.28009 3.36910 2.87660
# Velocity P-wave (km/s) = 4.18023 6.00865 5.17582
#
# Compressibility (1/GPa) = 0.04638239
#
# Stress axis : x y z
#
# Youngs Moduli (GPa) = 24.33270 62.49083 122.25552
#
# Poissons Ratio (x) = 0.01519 0.61226
# Poissons Ratio (y) = 0.00591 0.51313
# Poissons Ratio (z) = 0.12186 0.26228
#
# Static dielectric constant tensor:
#      x y z
#    x 1.789860 0.000000 0.000000 
#    y 0.000000 1.760640 0.000000 
#    z 0.000000 0.000000 1.767710 
# 
# From -- ./inp_files/49170.got.cif
#   From: 2010.05.17/outbox.cif.g08.bks.cpg/sg74_25_cif.got.tgz:49170.got - 2010.06.03 17:57:02.
