data_PCOD9537087
_publ_section_title
;
Structure prediction by ZEFSAII (Michael W. Deem and Ramdas Pophale) SiO2 
 PCOD9537087
Probable space group: I M M A
;
_chemical_formula_sum "Si O2"
_cell_formula_units_Z 96
_cell_length_a 25.930416
_cell_length_b 8.853578
_cell_length_c 25.635706
_cell_angle_alpha 90.000000
_cell_angle_beta 90.000000
_cell_angle_gamma 90.000000
_cell_volume 5885.367467
_symmetry_space_group_name_H-M "I M M A"
_symmetry_group_IT_number 74
_symmetry_cell_setting 'orthorhombic'
loop_
_space_group_symop_operation_xyz
x,y,z
-x,1/2-y,z
x,-y,-z
-x,1/2+y,-z
-x,-y,-z
x,1/2+y,-z
-x,y,z
x,1/2-y,z
1/2+x,1/2+y,1/2+z
1/2-x,-y,1/2+z
1/2+x,1/2-y,1/2-z
1/2-x,y,1/2-z
1/2-x,1/2-y,1/2-z
1/2+x,y,1/2-z
1/2-x,1/2+y,1/2+z
1/2+x,-y,1/2+z
loop_
_atom_site_type_symbol
_atom_site_label
_atom_site_fract_x
_atom_site_fract_y
_atom_site_fract_z
Si Si1 0.061225 0.428318 0.635673
Si Si2 0.560132 0.567265 0.639930
Si Si3 0.641477 0.070297 0.057924
Si Si4 0.746061 0.930708 0.058106
Si Si5 0.638886 0.430591 0.557975
Si Si6 0.437458 0.423664 0.243752
O O1 0.069059 0.250000 0.628271
O O2 0.094384 0.519379 0.593931
O O3 0.077136 0.477012 0.694161
O O4 0.000000 0.460046 0.630213
O O5 0.500000 0.523738 0.633070
O O6 0.562226 0.750000 0.637839
O O7 0.596071 0.497178 0.596067
O O8 0.577903 0.522987 0.698479
O O9 0.644640 0.250000 0.053611
O O10 0.695005 0.005237 0.081769
O O11 0.635518 0.000000 0.000000
O O12 0.739516 0.750000 0.055782
O O13 0.803206 0.963931 0.079431
O O14 0.747607 0.000000 0.000000
O O15 0.634261 0.500000 0.500000
O O16 0.634123 0.250000 0.553919
O O17 0.500000 0.421174 0.245432
O O18 0.420464 0.250000 0.236025
#
# Coordination Sequence:
#
# PCOD9537087 Si02
#       6
#    16  16  16  16  16  16
#     4  10  20  33  50  73 100 129 160 195 236 282
#     4   9  18  32  50  72  99 130 162 198 240 286
#     4  11  21  33  51  73  98 128 160 196 239 284
#     4   9  17  31  49  69  93 122 160 200 237 281
#     4  10  20  32  49  72  98 129 162 199 242 287
#     4   8  15  30  50  70  93 124 162 199 235 279
#
# _framework density 16.311640000000001
#
# number of rings (size 3 to 8) (size 9 to 14) (size 15 to 20)
#    0.000    2.500    0.000    5.000    0.000    4.667 
#    0.000    1.667    0.000    1.000    0.000    7.000 
#    0.000    0.000    0.000    0.000    0.000    0.000 
#
# Total GULP energy -267441.473969 kJ/mol
# GULP energy per Si atom -5571.697374 kJ/mol
# Density = 1.627451 g / cm^3
# Si number density = 16.311640 Si / 1000 Ang^3
#
#
#
# Elastic Constant Matrix: (Units=GPa)
#
#
# Indices 1 2 3 4 5 6 
#
# 1 86.7589 55.1560 53.8883 0.0000 0.0000 0.0000
# 2 55.1560 83.0030 45.3465 0.0000 0.0000 0.0000
# 3 53.8883 45.3465 87.5955 0.0000 0.0000 0.0000
# 4 0.0000 0.0000 0.0000 28.1675 0.0000 0.0000
# 5 0.0000 0.0000 0.0000 0.0000 -4.7016 0.0000
# 6 0.0000 0.0000 0.0000 0.0000 0.0000 23.3422
#
#
#
# Elastic Compliance Matrix: (Units=1/GPa)
#
#
# Indices 1 2 3 4 5 6 
#
# 1 0.024316 -0.011135 -0.009195 0.000000 0.000000 0.000000
# 2 -0.011135 0.021898 -0.004486 0.000000 0.000000 0.000000
# 3 -0.009195 -0.004486 0.019395 0.000000 0.000000 0.000000
# 4 0.000000 0.000000 0.000000 0.035502 0.000000 0.000000
# 5 0.000000 0.000000 0.000000 0.000000 -0.212693 0.000000
# 6 0.000000 0.000000 0.000000 0.000000 0.000000 0.042841
#
#
# Mechanical properties :
#
#
# Convention : Reuss Voigt Hill
#
# Bulk Modulus (GPa) = 62.58763 62.90434 62.74598
# Shear Modulus (GPa) = -362.74353 16.22607 -173.25873
#
# Velocity S-wave (km/s) = -14.92870 3.15739 -10.31739
# Velocity P-wave (km/s) = 16.08420 7.20694 10.16763
#
# Compressibility (1/GPa) = 0.01597760
#
# Stress axis : x y z
#
# Youngs Moduli (GPa) = 41.12457 45.66688 51.55951
#
# Poissons Ratio (x) = 0.50850 0.47409
# Poissons Ratio (y) = 0.45792 0.23129
# Poissons Ratio (z) = 0.37814 0.20486
#
# Static dielectric constant tensor:
#      x y z
#    x 1.565050 0.000000 0.000000 
#    y 0.000000 1.547550 0.000000 
#    z 0.000000 0.000000 1.542420 
# 
# From -- ./inp_files/57255.got.cif
#   From: 2010.05.17/outbox.cif.g08.bks.cpg/sg74_29_cif.got.tgz:57255.got - 2010.06.03 17:57:02.
