data_PCOD9537316
_publ_section_title
;
Structure prediction by ZEFSAII (Michael W. Deem and Ramdas Pophale) SiO2 
 PCOD9537316
Probable space group: I M M A
;
_chemical_formula_sum "Si O2"
_cell_formula_units_Z 56
_cell_length_a 14.614290
_cell_length_b 9.915749
_cell_length_c 21.660744
_cell_angle_alpha 90.000000
_cell_angle_beta 90.000000
_cell_angle_gamma 90.000000
_cell_volume 3138.893752
_symmetry_space_group_name_H-M "I M M A"
_symmetry_group_IT_number 74
_symmetry_cell_setting 'orthorhombic'
loop_
_space_group_symop_operation_xyz
x,y,z
-x,1/2-y,z
x,-y,-z
-x,1/2+y,-z
-x,-y,-z
x,1/2+y,-z
-x,y,z
x,1/2-y,z
1/2+x,1/2+y,1/2+z
1/2-x,-y,1/2+z
1/2+x,1/2-y,1/2-z
1/2-x,y,1/2-z
1/2-x,1/2-y,1/2-z
1/2+x,y,1/2-z
1/2-x,1/2+y,1/2+z
1/2+x,-y,1/2+z
loop_
_atom_site_type_symbol
_atom_site_label
_atom_site_fract_x
_atom_site_fract_y
_atom_site_fract_z
Si Si1 0.603902 0.750000 0.191454
Si Si2 0.288037 0.500000 0.500000
Si Si3 0.736527 0.044304 0.870800
Si Si4 0.605773 0.250000 0.660774
Si Si5 0.892284 0.750000 0.935664
Si Si6 0.269847 0.250000 0.323603
O O1 0.500000 0.750000 0.169758
O O2 0.660581 0.875747 0.166457
O O3 0.604153 0.750000 0.265273
O O4 0.227069 0.554964 0.444173
O O5 0.348423 0.381245 0.469070
O O6 0.834468 0.118970 0.858441
O O7 0.731000 0.890567 0.849007
O O8 0.500000 0.250000 0.638169
O O9 0.866627 0.750000 0.862214
O O10 0.000000 0.750000 0.943697
O O11 0.250000 0.250000 0.250000
#
# Coordination Sequence:
#
# PCOD9537316 Si02
#       6
#     8   8  16   8   8   8
#     4  10  20  37  60  81  99 133 185 234 271 305
#     4  10  21  34  53  76 108 144 172 208 264 318
#     4  10  20  36  55  78 109 143 176 219 265 317
#     4  10  20  34  57  84 108 138 178 220 265 313
#     4  10  20  33  52  80 108 139 176 214 255 314
#     4  10  20  34  51  73 108 148 175 208 264 320
#
# _framework density 17.840681
#
# number of rings (size 3 to 8) (size 9 to 14) (size 15 to 20)
#    0.000    2.000    0.000    5.571    0.000    6.857 
#    0.000    2.857    0.000    0.000    0.000    0.000 
#    0.000    0.000    0.000    0.000    0.000    0.000 
#
# Total GULP energy -155957.252647 kJ/mol
# GULP energy per Si atom -5569.901880 kJ/mol
# Density = 1.780007 g / cm^3
# Si number density = 17.840681 Si / 1000 Ang^3
#
#
#
# Elastic Constant Matrix: (Units=GPa)
#
#
# Indices 1 2 3 4 5 6 
#
# 1 57.9494 29.6458 15.0599 0.0000 0.0000 0.0000
# 2 29.6458 120.3645 20.1169 0.0000 0.0000 0.0000
# 3 15.0599 20.1169 122.1803 0.0000 0.0000 0.0000
# 4 0.0000 0.0000 0.0000 45.7119 0.0000 0.0000
# 5 0.0000 0.0000 0.0000 0.0000 22.0877 0.0000
# 6 0.0000 0.0000 0.0000 0.0000 0.0000 0.9100
#
#
#
# Elastic Compliance Matrix: (Units=1/GPa)
#
#
# Indices 1 2 3 4 5 6 
#
# 1 0.020085 -0.004661 -0.001708 0.000000 0.000000 0.000000
# 2 -0.004661 0.009625 -0.001010 0.000000 0.000000 0.000000
# 3 -0.001708 -0.001010 0.008561 0.000000 0.000000 0.000000
# 4 0.000000 0.000000 0.000000 0.021876 0.000000 0.000000
# 5 0.000000 0.000000 0.000000 0.000000 0.045274 0.000000
# 6 0.000000 0.000000 0.000000 0.000000 0.000000 1.098924
#
#
# Mechanical properties :
#
#
# Convention : Reuss Voigt Hill
#
# Bulk Modulus (GPa) = 42.53152 47.79326 45.16239
# Shear Modulus (GPa) = 4.07517 29.45337 16.76427
#
# Velocity S-wave (km/s) = 1.51300 4.06755 3.06872
# Velocity P-wave (km/s) = 5.19072 6.99335 6.15835
#
# Compressibility (1/GPa) = 0.02351198
#
# Stress axis : x y z
#
# Youngs Moduli (GPa) = 49.78830 103.89560 116.80197
#
# Poissons Ratio (x) = 0.48430 0.19952
# Poissons Ratio (y) = 0.23209 0.11799
# Poissons Ratio (z) = 0.08505 0.10495
#
# Static dielectric constant tensor:
#      x y z
#    x 1.587760 0.000000 0.000000 
#    y 0.000000 1.633300 0.000000 
#    z 0.000000 0.000000 1.629030 
# 
# From -- ./inp_files/51417.got.cif
#   From: 2010.05.17/outbox.cif.g08.bks.cpg/sg74_26_cif.got.tgz:51417.got - 2010.06.03 17:57:02.
