data_PCOD9537026
_publ_section_title
;
Structure prediction by ZEFSAII (Michael W. Deem and Ramdas Pophale) SiO2 
 PCOD9537026
Probable space group: I M M A
;
_chemical_formula_sum "Si O2"
_cell_formula_units_Z 80
_cell_length_a 9.075427
_cell_length_b 19.129604
_cell_length_c 23.053898
_cell_angle_alpha 90.000000
_cell_angle_beta 90.000000
_cell_angle_gamma 90.000000
_cell_volume 4002.371662
_symmetry_space_group_name_H-M "I M M A"
_symmetry_group_IT_number 74
_symmetry_cell_setting 'orthorhombic'
loop_
_space_group_symop_operation_xyz
x,y,z
-x,1/2-y,z
x,-y,-z
-x,1/2+y,-z
-x,-y,-z
x,1/2+y,-z
-x,y,z
x,1/2-y,z
1/2+x,1/2+y,1/2+z
1/2-x,-y,1/2+z
1/2+x,1/2-y,1/2-z
1/2-x,y,1/2-z
1/2-x,1/2-y,1/2-z
1/2+x,y,1/2-z
1/2-x,1/2+y,1/2+z
1/2+x,-y,1/2+z
loop_
_atom_site_type_symbol
_atom_site_label
_atom_site_fract_x
_atom_site_fract_y
_atom_site_fract_z
Si Si1 0.328219 0.893133 0.983197
Si Si2 0.676224 0.965592 0.616331
Si Si3 0.322779 0.172935 0.313030
Si Si4 0.169221 0.750000 0.984004
Si Si5 0.328294 0.606383 0.123438
Si Si6 0.669024 0.250000 0.625356
O O1 0.500000 0.897120 0.967305
O O2 0.240231 0.951164 0.947675
O O3 0.254656 0.819424 0.966580
O O4 0.319602 0.895868 0.052891
O O5 0.500000 0.971471 0.614344
O O6 0.719832 0.895872 0.651491
O O7 0.745444 0.036030 0.642345
O O8 0.500000 0.171179 0.307849
O O9 0.283855 0.250000 0.337983
O O10 0.250000 0.169253 0.250000
O O11 0.000000 0.750000 0.963110
O O12 0.165701 0.750000 0.054628
O O13 0.500000 0.605589 0.139476
O O14 0.252052 0.678700 0.142496
O O15 0.500000 0.250000 0.645327
#
# Coordination Sequence:
#
# PCOD9537026 Si02
#       6
#    16  16  16   8  16   8
#     4  10  20  32  46  69 102 140 179 219 260 308
#     4  11  22  33  51  77 104 135 175 220 267 318
#     4   9  20  39  59  79 104 135 173 222 274 322
#     4   9  17  29  45  65  92 131 174 215 255 301
#     4  10  20  34  50  72 106 143 179 219 260 308
#     4   9  17  31  51  71  96 133 176 213 253 303
#
# _framework density 19.988150000000001
#
# number of rings (size 3 to 8) (size 9 to 14) (size 15 to 20)
#    0.000    2.200    0.000    3.000    1.400    8.800 
#    0.000    0.000    0.000    0.000    0.000    0.700 
#    0.000    0.000    0.000    0.000    0.000    0.000 
#
# Total GULP energy -223335.139074 kJ/mol
# GULP energy per Si atom -5583.378477 kJ/mol
# Density = 1.994266 g / cm^3
# Si number density = 19.988150 Si / 1000 Ang^3
#
#
#
# Elastic Constant Matrix: (Units=GPa)
#
#
# Indices 1 2 3 4 5 6 
#
# 1 106.9172 79.4932 10.8172 0.0000 0.0000 0.0000
# 2 79.4932 192.7926 19.7687 0.0000 0.0000 0.0000
# 3 10.8172 19.7687 21.5496 0.0000 0.0000 0.0000
# 4 0.0000 0.0000 0.0000 9.8540 0.0000 0.0000
# 5 0.0000 0.0000 0.0000 0.0000 15.5886 0.0000
# 6 0.0000 0.0000 0.0000 0.0000 0.0000 25.5975
#
#
#
# Elastic Compliance Matrix: (Units=1/GPa)
#
#
# Indices 1 2 3 4 5 6 
#
# 1 0.013555 -0.005399 -0.001851 0.000000 0.000000 0.000000
# 2 -0.005399 0.007876 -0.004515 0.000000 0.000000 0.000000
# 3 -0.001851 -0.004515 0.051476 0.000000 0.000000 0.000000
# 4 0.000000 0.000000 0.000000 0.101482 0.000000 0.000000
# 5 0.000000 0.000000 0.000000 0.000000 0.064150 0.000000
# 6 0.000000 0.000000 0.000000 0.000000 0.000000 0.039066
#
#
# Mechanical properties :
#
#
# Convention : Reuss Voigt Hill
#
# Bulk Modulus (GPa) = 20.25275 60.15750 40.20513
# Shear Modulus (GPa) = 15.74344 24.28670 20.01507
#
# Velocity S-wave (km/s) = 2.80953 3.48955 3.16784
# Velocity P-wave (km/s) = 4.54742 6.81159 5.79124
#
# Compressibility (1/GPa) = 0.04937600
#
# Stress axis : x y z
#
# Youngs Moduli (GPa) = 73.77609 126.96712 19.42665
#
# Poissons Ratio (x) = 0.68550 0.03596
# Poissons Ratio (y) = 0.39832 0.08771
# Poissons Ratio (z) = 0.13656 0.57326
#
# Static dielectric constant tensor:
#      x y z
#    x 1.665880 0.000000 0.000000 
#    y 0.000000 1.521660 0.000000 
#    z 0.000000 0.000000 1.710860 
# 
# From -- ./inp_files/64017.got.cif
#   From: 2010.05.17/outbox.cif.g08.bks.cpg/sg74_33_cif.got.tgz:64017.got - 2010.06.03 17:57:02.
