data_PCOD9537333
_publ_section_title
;
Structure prediction by ZEFSAII (Michael W. Deem and Ramdas Pophale) SiO2 
 PCOD9537333
Probable space group: I M M A
;
_chemical_formula_sum "Si O2"
_cell_formula_units_Z 112
_cell_length_a 16.424088
_cell_length_b 30.074906
_cell_length_c 12.486413
_cell_angle_alpha 90.000000
_cell_angle_beta 90.000000
_cell_angle_gamma 90.000000
_cell_volume 6167.699946
_symmetry_space_group_name_H-M "I M M A"
_symmetry_group_IT_number 74
_symmetry_cell_setting 'orthorhombic'
loop_
_space_group_symop_operation_xyz
x,y,z
-x,1/2-y,z
x,-y,-z
-x,1/2+y,-z
-x,-y,-z
x,1/2+y,-z
-x,y,z
x,1/2-y,z
1/2+x,1/2+y,1/2+z
1/2-x,-y,1/2+z
1/2+x,1/2-y,1/2-z
1/2-x,y,1/2-z
1/2-x,1/2-y,1/2-z
1/2+x,y,1/2-z
1/2-x,1/2+y,1/2+z
1/2+x,-y,1/2+z
loop_
_atom_site_type_symbol
_atom_site_label
_atom_site_fract_x
_atom_site_fract_y
_atom_site_fract_z
Si Si1 0.906014 0.384608 0.614049
Si Si2 0.839128 0.439378 0.802582
Si Si3 0.403887 0.454071 0.047896
Si Si4 0.845276 0.799203 0.275287
Si Si5 0.596394 0.799212 0.465374
Si Si6 0.599072 0.395798 0.480029
Si Si7 0.156823 0.456051 0.216314
O O1 0.899110 0.418420 0.714217
O O2 0.869150 0.411673 0.514513
O O3 0.862980 0.339185 0.645461
O O4 0.000000 0.373735 0.594121
O O5 0.750000 0.431235 0.750000
O O6 0.849090 0.492149 0.816743
O O7 0.857583 0.415845 0.914671
O O8 0.500000 0.454422 0.022188
O O9 0.392703 0.451395 0.173705
O O10 0.368155 0.500000 0.000000
O O11 0.869076 0.750000 0.314722
O O12 0.750000 0.798940 0.250000
O O13 0.889490 0.806808 0.161517
O O14 0.500000 0.796639 0.483538
O O15 0.631748 0.750000 0.490734
O O16 0.624093 0.843712 0.525570
O O17 0.500000 0.398284 0.492473
O O18 0.625795 0.424085 0.377103
O O19 0.250000 0.447080 0.250000
#
# Coordination Sequence:
#
# PCOD9537333 Si02
#       7
#    16  16  16  16  16  16  16
#     4  11  21  34  57  81 108 149 188 229 281 342
#     4  11  23  36  55  84 118 151 184 234 292 347
#     4  10  21  37  56  75 106 150 194 234 280 345
#     4  10  20  33  52  82 115 147 182 229 288 348
#     4   9  18  33  54  81 112 145 183 230 290 354
#     4  11  23  38  60  88 118 152 195 246 295 343
#     4  11  25  38  56  80 114 155 199 241 287 340
#
# _framework density 18.159120000000001
#
# number of rings (size 3 to 8) (size 9 to 14) (size 15 to 20)
#    0.000    1.571    2.857    2.143    2.000    3.143 
#    0.000    0.000    0.000    1.286    0.000    2.000 
#    0.000    0.000    0.000    0.000    0.000    0.000 
#
# Total GULP energy -312515.880725 kJ/mol
# GULP energy per Si atom -5580.640727 kJ/mol
# Density = 1.811779 g / cm^3
# Si number density = 18.159120 Si / 1000 Ang^3
#
#
#
# Elastic Constant Matrix: (Units=GPa)
#
#
# Indices 1 2 3 4 5 6 
#
# 1 29.7073 40.3349 10.2094 0.0000 0.0000 0.0000
# 2 40.3349 169.2015 64.5326 0.0000 0.0000 -0.0001
# 3 10.2094 64.5326 90.6200 0.0004 0.0000 -0.0005
# 4 0.0000 0.0000 0.0004 21.3463 0.0000 -0.0001
# 5 0.0000 0.0000 0.0000 0.0000 17.6077 0.0000
# 6 0.0000 -0.0001 -0.0005 -0.0001 0.0000 14.7673
#
#
#
# Elastic Compliance Matrix: (Units=1/GPa)
#
#
# Indices 1 2 3 4 5 6 
#
# 1 0.050796 -0.013628 0.003982 0.000000 0.000000 0.000000
# 2 -0.013628 0.011770 -0.006846 0.000000 0.000000 0.000000
# 3 0.003982 -0.006846 0.015462 0.000000 0.000000 0.000000
# 4 0.000000 0.000000 0.000000 0.046846 0.000000 0.000000
# 5 0.000000 0.000000 0.000000 0.000000 0.056793 0.000000
# 6 0.000000 0.000000 0.000000 0.000000 0.000000 0.067717
#
#
# Mechanical properties :
#
#
# Convention : Reuss Voigt Hill
#
# Bulk Modulus (GPa) = 22.20074 57.74250 39.97162
# Shear Modulus (GPa) = 16.81330 22.37439 19.59384
#
# Velocity S-wave (km/s) = 3.04614 3.51398 3.28839
# Velocity P-wave (km/s) = 4.96228 6.95206 6.03967
#
# Compressibility (1/GPa) = 0.04504354
#
# Stress axis : x y z
#
# Youngs Moduli (GPa) = 19.68659 84.96304 64.67515
#
# Poissons Ratio (x) = 1.15784 -0.25752
# Poissons Ratio (y) = 0.26828 0.44278
# Poissons Ratio (z) = -0.07839 0.58168
#
# Static dielectric constant tensor:
#      x y z
#    x 1.665660 0.000000 0.000000 
#    y 0.000000 1.659130 0.000000 
#    z 0.000000 0.000000 1.600550 
# 
# From -- ./inp_files/21104.got.cif
#   From: 2010.05.17/outbox.cif.g08.bks.cpg/sg74_11_cif.got.tgz:21104.got - 2010.06.03 17:57:02.
