data_PCOD9537646
_publ_section_title
;
Structure prediction by ZEFSAII (Michael W. Deem and Ramdas Pophale) SiO2 
 PCOD9537646
Probable space group: I M M A
;
_chemical_formula_sum "Si O2"
_cell_formula_units_Z 80
_cell_length_a 26.379401
_cell_length_b 8.758647
_cell_length_c 19.749453
_cell_angle_alpha 90.000000
_cell_angle_beta 90.000000
_cell_angle_gamma 90.000000
_cell_volume 4563.068880
_symmetry_space_group_name_H-M "I M M A"
_symmetry_group_IT_number 74
_symmetry_cell_setting 'orthorhombic'
loop_
_space_group_symop_operation_xyz
x,y,z
-x,1/2-y,z
x,-y,-z
-x,1/2+y,-z
-x,-y,-z
x,1/2+y,-z
-x,y,z
x,1/2-y,z
1/2+x,1/2+y,1/2+z
1/2-x,-y,1/2+z
1/2+x,1/2-y,1/2-z
1/2-x,y,1/2-z
1/2-x,1/2-y,1/2-z
1/2+x,y,1/2-z
1/2-x,1/2+y,1/2+z
1/2+x,-y,1/2+z
loop_
_atom_site_type_symbol
_atom_site_label
_atom_site_fract_x
_atom_site_fract_y
_atom_site_fract_z
Si Si1 0.558926 0.567538 0.827596
Si Si2 0.360207 0.932960 0.575826
Si Si3 0.752630 0.567318 0.575926
Si Si4 0.643696 0.431958 0.924167
Si Si5 0.441280 0.932424 0.321311
O O1 0.500000 0.532640 0.843780
O O2 0.565476 0.750000 0.829976
O O3 0.597157 0.488556 0.879178
O O4 0.568462 0.507727 0.751696
O O5 0.364966 0.750000 0.572211
O O6 0.303388 0.967460 0.603933
O O7 0.364109 0.000000 0.500000
O O8 0.402922 0.002468 0.623531
O O9 0.751065 0.500000 0.500000
O O10 0.758745 0.750000 0.573520
O O11 0.803062 0.493446 0.606588
O O12 0.645248 0.250000 0.928345
O O13 0.639016 0.500000 0.000000
O O14 0.500000 0.965899 0.339481
O O15 0.435858 0.750000 0.315951
#
# Coordination Sequence:
#
# PCOD9537646 Si02
#       5
#    16  16  16  16  16
#     4  10  21  38  58  78 104 139 176 216 264 315
#     4  10  20  34  55  81 108 140 177 219 263 309
#     4   9  17  31  51  76 106 138 173 213 260 311
#     4  11  21  34  55  81 109 140 175 216 260 309
#     4  10  21  37  56  78 106 140 176 216 264 317
#
# _framework density 17.532060000000001
#
# number of rings (size 3 to 8) (size 9 to 14) (size 15 to 20)
#    0.000    2.000    0.000    5.400    0.000    5.600 
#    0.000    1.000    0.000    6.000    0.000    0.000 
#    0.000    0.000    0.000    0.000    0.000    0.000 
#
# Total GULP energy -223190.741507 kJ/mol
# GULP energy per Si atom -5579.768538 kJ/mol
# Density = 1.749216 g / cm^3
# Si number density = 17.532060 Si / 1000 Ang^3
#
#
#
# Elastic Constant Matrix: (Units=GPa)
#
#
# Indices 1 2 3 4 5 6 
#
# 1 158.4500 84.9328 87.3192 0.0000 0.0000 0.0000
# 2 84.9328 113.6749 49.9989 0.0000 0.0000 0.0000
# 3 87.3192 49.9989 71.0942 0.0000 0.0000 0.0000
# 4 0.0000 0.0000 0.0000 31.2893 0.0000 0.0000
# 5 0.0000 0.0000 0.0000 0.0000 -50.3883 0.0000
# 6 0.0000 0.0000 0.0000 0.0000 0.0000 30.4539
#
#
#
# Elastic Compliance Matrix: (Units=1/GPa)
#
#
# Indices 1 2 3 4 5 6 
#
# 1 0.022647 -0.006786 -0.023044 0.000000 0.000000 0.000000
# 2 -0.006786 0.014770 -0.002053 0.000000 0.000000 0.000000
# 3 -0.023044 -0.002053 0.043813 0.000000 0.000000 0.000000
# 4 0.000000 0.000000 0.000000 0.031960 0.000000 0.000000
# 5 0.000000 0.000000 0.000000 0.000000 -0.019846 0.000000
# 6 0.000000 0.000000 0.000000 0.000000 0.000000 0.032837
#
#
# Mechanical properties :
#
#
# Convention : Reuss Voigt Hill
#
# Bulk Modulus (GPa) = 57.25794 87.52455 72.39124
# Shear Modulus (GPa) = 25.54044 10.33553 17.93799
#
# Velocity S-wave (km/s) = 3.82093 2.43064 3.20215
# Velocity P-wave (km/s) = 7.22467 7.60975 7.41971
#
# Compressibility (1/GPa) = 0.01746483
#
# Stress axis : x y z
#
# Youngs Moduli (GPa) = 44.15500 67.70495 22.82433
#
# Poissons Ratio (x) = 0.45941 0.52596
# Poissons Ratio (y) = 0.29961 0.04686
# Poissons Ratio (z) = 1.01751 0.13902
#
# Static dielectric constant tensor:
#      x y z
#    x 1.625890 0.000000 0.000000 
#    y 0.000000 1.582590 0.000000 
#    z 0.000000 0.000000 1.529200 
# 
# From -- ./inp_files/46477.got.cif
#   From: 2010.05.17/outbox.cif.g08.bks.cpg/sg74_24_cif.got.tgz:46477.got - 2010.06.03 17:57:02.
