data_PCOD9537033
_publ_section_title
;
Structure prediction by ZEFSAII (Michael W. Deem and Ramdas Pophale) SiO2 
 PCOD9537033
Probable space group: I M M A
;
_chemical_formula_sum "Si O2"
_cell_formula_units_Z 80
_cell_length_a 9.071278
_cell_length_b 29.591892
_cell_length_c 13.296090
_cell_angle_alpha 90.000000
_cell_angle_beta 90.000000
_cell_angle_gamma 90.000000
_cell_volume 3569.152923
_symmetry_space_group_name_H-M "I M M A"
_symmetry_group_IT_number 74
_symmetry_cell_setting 'orthorhombic'
loop_
_space_group_symop_operation_xyz
x,y,z
-x,1/2-y,z
x,-y,-z
-x,1/2+y,-z
-x,-y,-z
x,1/2+y,-z
-x,y,z
x,1/2-y,z
1/2+x,1/2+y,1/2+z
1/2-x,-y,1/2+z
1/2+x,1/2-y,1/2-z
1/2-x,y,1/2-z
1/2-x,1/2-y,1/2-z
1/2+x,y,1/2-z
1/2-x,1/2+y,1/2+z
1/2+x,-y,1/2+z
loop_
_atom_site_type_symbol
_atom_site_label
_atom_site_fract_x
_atom_site_fract_y
_atom_site_fract_z
Si Si1 0.320915 0.801626 0.077321
Si Si2 0.327252 0.423119 0.350034
Si Si3 0.666110 0.014040 0.883389
Si Si4 0.339505 0.196501 0.153483
Si Si5 0.822267 0.893880 0.078170
O O1 0.500000 0.805510 0.084408
O O2 0.283207 0.750000 0.111297
O O3 0.277691 0.805096 0.959022
O O4 0.240452 0.846132 0.119151
O O5 0.500000 0.418142 0.339516
O O6 0.250000 0.405784 0.250000
O O7 0.280446 0.475546 0.352135
O O8 0.287415 0.400703 0.457681
O O9 0.500000 0.012002 0.839319
O O10 0.738398 0.063309 0.873710
O O11 0.648606 0.000000 0.000000
O O12 0.500000 0.174091 0.152074
O O13 0.358478 0.250000 0.168605
O O14 0.250000 0.182203 0.250000
O O15 0.000000 0.896368 0.089401
#
# Coordination Sequence:
#
# PCOD9537033 Si02
#       5
#    16  16  16  16  16
#     4   9  18  31  44  59  83 117 157 199 238 276
#     4  10  20  33  49  71  98 125 156 195 237 283
#     4   9  17  31  51  71  92 121 154 189 235 289
#     4   8  14  24  36  49  67  95 133 177 223 265
#     4  10  20  32  47  68  94 125 160 198 239 284
#
# _framework density 22.414282
#
# number of rings (size 3 to 8) (size 9 to 14) (size 15 to 20)
#    0.000    2.800    0.000    3.000    0.000    6.800 
#    0.000    6.000    0.000    0.000    0.000    0.000 
#    0.000    0.800    0.000    3.000    0.000    4.600 
#
# Total GULP energy -222871.218423 kJ/mol
# GULP energy per Si atom -5571.780461 kJ/mol
# Density = 2.236327 g / cm^3
# Si number density = 22.414282 Si / 1000 Ang^3
#
#
#
# Elastic Constant Matrix: (Units=GPa)
#
#
# Indices 1 2 3 4 5 6 
#
# 1 42.4302 53.7931 8.3340 0.0000 0.0000 0.0001
# 2 53.7931 203.7526 -5.9492 0.0000 0.0000 0.0001
# 3 8.3340 -5.9492 33.4584 0.0000 -0.0001 0.0007
# 4 0.0000 0.0000 0.0000 -4.6511 0.0000 0.0000
# 5 0.0000 0.0000 -0.0001 0.0000 14.8424 -0.0001
# 6 0.0001 0.0001 0.0007 0.0000 -0.0001 -21.9285
#
#
#
# Elastic Compliance Matrix: (Units=1/GPa)
#
#
# Indices 1 2 3 4 5 6 
#
# 1 0.039556 -0.010787 -0.011771 0.000000 0.000000 0.000000
# 2 -0.010787 0.007875 0.004087 0.000000 0.000000 0.000000
# 3 -0.011771 0.004087 0.033546 0.000000 0.000000 0.000001
# 4 0.000000 0.000000 0.000000 -0.215002 0.000000 0.000000
# 5 0.000000 0.000000 0.000000 0.000000 0.067375 0.000000
# 6 0.000000 0.000000 0.000001 0.000000 0.000000 -0.045603
#
#
# Mechanical properties :
#
#
# Convention : Reuss Voigt Hill
#
# Bulk Modulus (GPa) = 22.70853 43.55523 33.13188
# Shear Modulus (GPa) = -82.46272 12.55011 -34.95631
#
# Velocity S-wave (km/s) = -6.07208 2.36882 -3.95340
# Velocity P-wave (km/s) = 6.24555 5.19190 2.45469
#
# Compressibility (1/GPa) = 0.04403632
#
# Stress axis : x y z
#
# Youngs Moduli (GPa) = 25.28080 126.98232 29.80938
#
# Poissons Ratio (x) = 1.36974 0.35088
# Poissons Ratio (y) = 0.27270 -0.12183
# Poissons Ratio (z) = 0.29757 -0.51899
#
# Static dielectric constant tensor:
#      x y z
#    x 1.803740 0.000000 0.000000 
#    y 0.000000 1.846620 0.000000 
#    z 0.000000 0.000000 1.922790 
# 
# From -- ./inp_files/39747.got.cif
#   From: 2010.05.17/outbox.cif.g08.bks.cpg/sg74_20_cif.got.tgz:39747.got - 2010.06.03 17:57:02.
