data_PCOD9537068
_publ_section_title
;
Structure prediction by ZEFSAII (Michael W. Deem and Ramdas Pophale) SiO2 
 PCOD9537068
Probable space group: I M M A
;
_chemical_formula_sum "Si O2"
_cell_formula_units_Z 104
_cell_length_a 21.110460
_cell_length_b 9.763280
_cell_length_c 28.192340
_cell_angle_alpha 90.000000
_cell_angle_beta 90.000000
_cell_angle_gamma 90.000000
_cell_volume 5810.647978
_symmetry_space_group_name_H-M "I M M A"
_symmetry_group_IT_number 74
_symmetry_cell_setting 'orthorhombic'
loop_
_space_group_symop_operation_xyz
x,y,z
-x,1/2-y,z
x,-y,-z
-x,1/2+y,-z
-x,-y,-z
x,1/2+y,-z
-x,y,z
x,1/2-y,z
1/2+x,1/2+y,1/2+z
1/2-x,-y,1/2+z
1/2+x,1/2-y,1/2-z
1/2-x,y,1/2-z
1/2-x,1/2-y,1/2-z
1/2+x,y,1/2-z
1/2-x,1/2+y,1/2+z
1/2+x,-y,1/2+z
loop_
_atom_site_type_symbol
_atom_site_label
_atom_site_fract_x
_atom_site_fract_y
_atom_site_fract_z
Si Si1 0.924465 0.587603 0.193781
Si Si2 0.873596 0.407466 0.387404
Si Si3 0.500000 0.907860 0.545933
Si Si4 0.425744 0.098953 0.959896
Si Si5 0.249844 0.588513 0.952037
Si Si6 0.425768 0.092700 0.214198
Si Si7 0.375212 0.911627 0.608941
O O1 0.911865 0.750000 0.194858
O O2 0.913170 0.514892 0.244331
O O3 0.884020 0.508445 0.154250
O O4 0.000000 0.569055 0.183518
O O5 0.893566 0.250000 0.398306
O O6 0.918223 0.519816 0.411063
O O7 0.806738 0.429726 0.413854
O O8 0.880026 0.422669 0.331047
O O9 0.500000 0.750000 0.530770
O O10 0.437936 0.930719 0.577433
O O11 0.500000 0.000000 0.500000
O O12 0.500000 0.113278 0.970143
O O13 0.396789 0.250000 0.960142
O O14 0.397986 0.000000 0.000000
O O15 0.249093 0.750000 0.964751
O O16 0.185346 0.556587 0.923566
O O17 0.254756 0.500000 0.000000
O O18 0.500000 0.077466 0.199143
O O19 0.419551 0.250000 0.231836
O O20 0.371653 0.750000 0.622653
#
# Coordination Sequence:
#
# PCOD9537068 Si02
#       7
#    16  16   8  16  16  16  16
#     4  10  20  34  55  84 112 138 173 222 276 326
#     4  10  20  35  54  77 105 141 184 225 269 320
#     4  10  20  32  52  80 108 138 174 218 267 322
#     4  10  20  32  48  72 101 134 174 223 276 326
#     4  10  22  38  56  79 109 145 185 226 268 321
#     4   9  18  33  55  80 107 141 179 221 270 324
#     4  10  20  36  56  79 108 144 182 219 267 327
#
# _framework density 17.898177
#
# number of rings (size 3 to 8) (size 9 to 14) (size 15 to 20)
#    0.000    2.154    0.769    2.308    0.000    5.846 
#    0.000    2.308    0.000    4.615    0.000    0.000 
#    0.000    0.000    0.000    0.000    0.000    0.000 
#
# Total GULP energy -289981.677227 kJ/mol
# GULP energy per Si atom -5576.570716 kJ/mol
# Density = 1.785744 g / cm^3
# Si number density = 17.898177 Si / 1000 Ang^3
#
#
#
# Elastic Constant Matrix: (Units=GPa)
#
#
# Indices 1 2 3 4 5 6 
#
# 1 77.6612 46.8752 48.5782 0.0000 0.0000 0.0000
# 2 46.8752 123.3618 93.1193 0.0000 0.0000 0.0000
# 3 48.5782 93.1193 121.5127 0.0000 0.0000 0.0000
# 4 0.0000 0.0000 0.0000 34.2049 0.0000 0.0000
# 5 0.0000 0.0000 0.0000 0.0000 23.3853 0.0000
# 6 0.0000 0.0000 0.0000 0.0000 0.0000 8.8645
#
#
#
# Elastic Compliance Matrix: (Units=1/GPa)
#
#
# Indices 1 2 3 4 5 6 
#
# 1 0.017715 -0.003287 -0.004563 0.000000 0.000000 0.000000
# 2 -0.003287 0.019840 -0.013890 0.000000 0.000000 0.000000
# 3 -0.004563 -0.013890 0.020698 0.000000 0.000000 0.000000
# 4 0.000000 0.000000 0.000000 0.029236 0.000000 0.000000
# 5 0.000000 0.000000 0.000000 0.000000 0.042762 0.000000
# 6 0.000000 0.000000 0.000000 0.000000 0.000000 0.112809
#
#
# Mechanical properties :
#
#
# Convention : Reuss Voigt Hill
#
# Bulk Modulus (GPa) = 67.69154 77.74233 72.71693
# Shear Modulus (GPa) = 17.15477 22.22183 19.68830
#
# Velocity S-wave (km/s) = 3.09927 3.52741 3.32025
# Velocity P-wave (km/s) = 7.12108 7.75373 7.44413
#
# Compressibility (1/GPa) = 0.01477290
#
# Stress axis : x y z
#
# Youngs Moduli (GPa) = 56.45060 50.40307 48.31302
#
# Poissons Ratio (x) = 0.16566 0.22046
# Poissons Ratio (y) = 0.18554 0.67108
# Poissons Ratio (z) = 0.25760 0.70011
#
# Static dielectric constant tensor:
#      x y z
#    x 1.632510 0.000000 0.000000 
#    y 0.000000 1.626190 0.000000 
#    z 0.000000 0.000000 1.606000 
# 
# From -- ./inp_files/68210.got.cif
#   From: 2010.05.17/outbox.cif.g08.bks.cpg/sg74_35_cif.got.tgz:68210.got - 2010.06.03 17:57:02.
