data_PCOD9537229
_publ_section_title
;
Structure prediction by ZEFSAII (Michael W. Deem and Ramdas Pophale) SiO2 
 PCOD9537229
Probable space group: I M M A
;
_chemical_formula_sum "Si O2"
_cell_formula_units_Z 80
_cell_length_a 8.913708
_cell_length_b 18.259389
_cell_length_c 27.983808
_cell_angle_alpha 90.000000
_cell_angle_beta 90.000000
_cell_angle_gamma 90.000000
_cell_volume 4554.612739
_symmetry_space_group_name_H-M "I M M A"
_symmetry_group_IT_number 74
_symmetry_cell_setting 'orthorhombic'
loop_
_space_group_symop_operation_xyz
x,y,z
-x,1/2-y,z
x,-y,-z
-x,1/2+y,-z
-x,-y,-z
x,1/2+y,-z
-x,y,z
x,1/2-y,z
1/2+x,1/2+y,1/2+z
1/2-x,-y,1/2+z
1/2+x,1/2-y,1/2-z
1/2-x,y,1/2-z
1/2-x,1/2-y,1/2-z
1/2+x,y,1/2-z
1/2-x,1/2+y,1/2+z
1/2+x,-y,1/2+z
loop_
_atom_site_type_symbol
_atom_site_label
_atom_site_fract_x
_atom_site_fract_y
_atom_site_fract_z
Si Si1 0.320646 0.021573 0.798869
Si Si2 0.178178 0.456394 0.400824
Si Si3 0.322208 0.165674 0.464487
Si Si4 0.821622 0.380502 0.564183
Si Si5 0.820554 0.332105 0.837690
O O1 0.500000 0.024885 0.795562
O O2 0.250000 0.993105 0.750000
O O3 0.257769 0.103067 0.808590
O O4 0.281938 0.974409 0.845923
O O5 0.267449 0.390592 0.424384
O O6 0.204491 0.532345 0.429415
O O7 0.000000 0.441299 0.403316
O O8 0.500000 0.157633 0.472329
O O9 0.291385 0.250000 0.451510
O O10 0.237187 0.146673 0.513571
O O11 0.736160 0.341835 0.607846
O O12 0.000000 0.367985 0.569093
O O13 0.782660 0.250000 0.821192
O O14 0.000000 0.341093 0.835868
#
# Coordination Sequence:
#
# PCOD9537229 Si02
#       5
#    16  16  16  16  16
#     4  10  21  37  57  79 102 131 171 216 262 313
#     4   9  20  37  55  77 103 133 172 214 255 304
#     4  11  23  35  50  77 109 139 173 212 255 305
#     4  10  20  34  53  77 106 141 179 214 251 301
#     4  10  20  33  50  75 108 143 178 215 254 299
#
# _framework density 17.564610999999999
#
# number of rings (size 3 to 8) (size 9 to 14) (size 15 to 20)
#    0.000    2.000    0.000    4.800    0.000   13.200 
#    0.000    0.000    0.000    0.600    0.000    0.000 
#    0.000    0.000    0.000    0.000    0.000    0.000 
#
# Total GULP energy -223439.021836 kJ/mol
# GULP energy per Si atom -5585.975546 kJ/mol
# Density = 1.752463 g / cm^3
# Si number density = 17.564611 Si / 1000 Ang^3
#
#
#
# Elastic Constant Matrix: (Units=GPa)
#
#
# Indices 1 2 3 4 5 6 
#
# 1 40.4744 22.1858 16.4959 0.0000 0.0000 0.0000
# 2 22.1858 45.8454 15.9612 0.0000 0.0000 0.0000
# 3 16.4959 15.9612 57.1645 0.0000 0.0000 0.0000
# 4 0.0000 0.0000 0.0000 1.5517 0.0000 0.0000
# 5 0.0000 0.0000 0.0000 0.0000 33.6817 0.0000
# 6 0.0000 0.0000 0.0000 0.0000 0.0000 39.8157
#
#
#
# Elastic Compliance Matrix: (Units=1/GPa)
#
#
# Indices 1 2 3 4 5 6 
#
# 1 0.035402 -0.015037 -0.006017 0.000000 0.000000 0.000000
# 2 -0.015037 0.030548 -0.004190 0.000000 0.000000 0.000000
# 3 -0.006017 -0.004190 0.020400 0.000000 0.000000 0.000000
# 4 0.000000 0.000000 0.000000 0.644457 0.000000 0.000000
# 5 0.000000 0.000000 0.000000 0.000000 0.029690 0.000000
# 6 0.000000 0.000000 0.000000 0.000000 0.000000 0.025116
#
#
# Mechanical properties :
#
#
# Convention : Reuss Voigt Hill
#
# Bulk Modulus (GPa) = 27.88579 28.08557 27.98568
# Shear Modulus (GPa) = 5.89584 20.93259 13.41422
#
# Velocity S-wave (km/s) = 1.83411 3.45592 2.76652
# Velocity P-wave (km/s) = 4.51618 5.65235 5.11590
#
# Compressibility (1/GPa) = 0.03586056
#
# Stress axis : x y z
#
# Youngs Moduli (GPa) = 28.24705 32.73524 49.02012
#
# Poissons Ratio (x) = 0.49224 0.29497
# Poissons Ratio (y) = 0.42475 0.20541
# Poissons Ratio (z) = 0.16997 0.13717
#
# Static dielectric constant tensor:
#      x y z
#    x 1.581220 0.000000 0.000000 
#    y 0.000000 1.587060 0.000000 
#    z 0.000000 0.000000 1.593250 
# 
# From -- ./inp_files/63904.got.cif
#   From: 2010.05.17/outbox.cif.g08.bks.cpg/sg74_32_cif.got.tgz:63904.got - 2010.06.03 17:57:02.
