data_PCOD9537269
_publ_section_title
;
Structure prediction by ZEFSAII (Michael W. Deem and Ramdas Pophale) SiO2 
 PCOD9537269
Probable space group: I M M A
;
_chemical_formula_sum "Si O2"
_cell_formula_units_Z 96
_cell_length_a 17.960103
_cell_length_b 19.127084
_cell_length_c 13.862240
_cell_angle_alpha 90.000000
_cell_angle_beta 90.000000
_cell_angle_gamma 90.000000
_cell_volume 4762.017661
_symmetry_space_group_name_H-M "I M M A"
_symmetry_group_IT_number 74
_symmetry_cell_setting 'orthorhombic'
loop_
_space_group_symop_operation_xyz
x,y,z
-x,1/2-y,z
x,-y,-z
-x,1/2+y,-z
-x,-y,-z
x,1/2+y,-z
-x,y,z
x,1/2-y,z
1/2+x,1/2+y,1/2+z
1/2-x,-y,1/2+z
1/2+x,1/2-y,1/2-z
1/2-x,y,1/2-z
1/2-x,1/2-y,1/2-z
1/2+x,y,1/2-z
1/2-x,1/2+y,1/2+z
1/2+x,-y,1/2+z
loop_
_atom_site_type_symbol
_atom_site_label
_atom_site_fract_x
_atom_site_fract_y
_atom_site_fract_z
Si Si1 0.411431 0.550473 0.408399
Si Si2 0.652279 0.333009 0.467435
Si Si3 0.195076 0.889968 0.623090
Si Si4 0.916371 0.580311 0.461151
Si Si5 0.174289 0.538885 0.283551
Si Si6 0.919800 0.333182 0.228710
O O1 0.399072 0.500000 0.500000
O O2 0.500000 0.559407 0.395065
O O3 0.370666 0.622196 0.439739
O O4 0.374123 0.521203 0.310960
O O5 0.655876 0.250000 0.484760
O O6 0.728926 0.358992 0.418035
O O7 0.590878 0.347358 0.384418
O O8 0.135741 0.882107 0.537450
O O9 0.153409 0.856450 0.714259
O O10 0.202095 0.970734 0.656309
O O11 0.919500 0.500000 0.500000
O O12 0.877756 0.579962 0.357374
O O13 0.000000 0.607420 0.458021
O O14 0.250000 0.575774 0.250000
O O15 0.922958 0.250000 0.240055
O O16 0.000000 0.363567 0.262218
#
# Coordination Sequence:
#
# PCOD9537269 Si02
#       6
#    16  16  16  16  16  16
#     4  11  23  38  59  88 120 157 204 255 305 361
#     4  11  23  39  59  86 122 162 204 249 304 372
#     4  11  20  34  57  83 114 149 189 240 300 361
#     4   9  19  34  53  79 110 146 187 233 290 354
#     4  11  21  34  55  83 115 148 188 241 299 356
#     4  10  20  33  51  77 109 146 187 232 286 348
#
# _framework density 20.159521999999999
#
# number of rings (size 3 to 8) (size 9 to 14) (size 15 to 20)
#    0.000    1.500    0.000    6.500    0.000    7.000 
#    0.000    0.000    0.000    5.500    0.000    0.000 
#    0.000    0.000    0.000    0.000    0.000    0.000 
#
# Total GULP energy -268042.840181 kJ/mol
# GULP energy per Si atom -5584.225837 kJ/mol
# Density = 2.011364 g / cm^3
# Si number density = 20.159522 Si / 1000 Ang^3
#
#
#
# Elastic Constant Matrix: (Units=GPa)
#
#
# Indices 1 2 3 4 5 6 
#
# 1 135.8881 15.4252 39.1448 0.0000 0.0000 0.0000
# 2 15.4252 47.1590 9.1567 0.0000 0.0000 0.0000
# 3 39.1448 9.1567 93.2378 0.0000 0.0000 0.0000
# 4 0.0000 0.0000 0.0000 22.2507 0.0000 0.0000
# 5 0.0000 0.0000 0.0000 0.0000 16.1662 0.0000
# 6 0.0000 0.0000 0.0000 0.0000 0.0000 19.3763
#
#
#
# Elastic Compliance Matrix: (Units=1/GPa)
#
#
# Indices 1 2 3 4 5 6 
#
# 1 0.008580 -0.002148 -0.003391 0.000000 0.000000 0.000000
# 2 -0.002148 0.022155 -0.001274 0.000000 0.000000 0.000000
# 3 -0.003391 -0.001274 0.012274 0.000000 0.000000 0.000000
# 4 0.000000 0.000000 0.000000 0.044942 0.000000 0.000000
# 5 0.000000 0.000000 0.000000 0.000000 0.061857 0.000000
# 6 0.000000 0.000000 0.000000 0.000000 0.000000 0.051609
#
#
# Mechanical properties :
#
#
# Convention : Reuss Voigt Hill
#
# Bulk Modulus (GPa) = 34.03384 44.85980 39.44682
# Shear Modulus (GPa) = 22.23822 25.72918 23.98370
#
# Velocity S-wave (km/s) = 3.32492 3.57638 3.45294
# Velocity P-wave (km/s) = 5.62663 6.27333 5.95876
#
# Compressibility (1/GPa) = 0.02938252
#
# Stress axis : x y z
#
# Youngs Moduli (GPa) = 116.55439 45.13694 81.47224
#
# Poissons Ratio (x) = 0.09695 0.27628
# Poissons Ratio (y) = 0.25034 0.10380
# Poissons Ratio (z) = 0.39525 0.05751
#
# Static dielectric constant tensor:
#      x y z
#    x 1.738900 0.000000 0.000000 
#    y 0.000000 1.726770 0.000000 
#    z 0.000000 0.000000 1.708770 
# 
# From -- ./inp_files/32404.got.cif
#   From: 2010.05.17/outbox.cif.g08.bks.cpg/sg74_17_cif.got.tgz:32404.got - 2010.06.03 17:57:02.
