data_PCOD9537940
_publ_section_title
;
Structure prediction by ZEFSAII (Michael W. Deem and Ramdas Pophale) SiO2 
 PCOD9537940
Probable space group: I M M A
;
_chemical_formula_sum "Si O2"
_cell_formula_units_Z 116
_cell_length_a 7.665353
_cell_length_b 24.038502
_cell_length_c 27.384761
_cell_angle_alpha 90.000000
_cell_angle_beta 90.000000
_cell_angle_gamma 90.000000
_cell_volume 5046.014741
_symmetry_space_group_name_H-M "I M M A"
_symmetry_group_IT_number 74
_symmetry_cell_setting 'orthorhombic'
loop_
_space_group_symop_operation_xyz
x,y,z
-x,1/2-y,z
x,-y,-z
-x,1/2+y,-z
-x,-y,-z
x,1/2+y,-z
-x,y,z
x,1/2-y,z
1/2+x,1/2+y,1/2+z
1/2-x,-y,1/2+z
1/2+x,1/2-y,1/2-z
1/2-x,y,1/2-z
1/2-x,1/2-y,1/2-z
1/2+x,y,1/2-z
1/2-x,1/2+y,1/2+z
1/2+x,-y,1/2+z
loop_
_atom_site_type_symbol
_atom_site_label
_atom_site_fract_x
_atom_site_fract_y
_atom_site_fract_z
Si Si1 0.209867 0.689405 0.036527
Si Si2 0.198873 0.529626 0.592402
Si Si3 0.708593 0.650862 0.929170
Si Si4 0.299975 0.843382 0.194425
Si Si5 0.203405 0.809879 0.823842
Si Si6 0.204588 0.592005 0.105501
Si Si7 0.208727 0.431500 0.197383
Si Si8 0.000000 0.250000 0.824873
O O1 0.274329 0.750000 0.052693
O O2 0.276715 0.638624 0.068700
O O3 0.000000 0.689999 0.041439
O O4 0.251953 0.679669 0.980057
O O5 0.275893 0.586877 0.570849
O O6 0.276113 0.469296 0.583519
O O7 0.210427 0.538727 0.650797
O O8 0.000000 0.527203 0.575892
O O9 0.500000 0.649228 0.921700
O O10 0.785348 0.682161 0.882391
O O11 0.500000 0.821872 0.194468
O O12 0.250000 0.857764 0.250000
O O13 0.289760 0.895660 0.157771
O O14 0.155708 0.798476 0.177089
O O15 0.282059 0.750000 0.810391
O O16 0.278068 0.867557 0.803507
O O17 0.000000 0.808702 0.809916
O O18 0.000000 0.600950 0.112321
O O19 0.250000 0.456189 0.250000
O O20 0.000000 0.430781 0.189880
#
# Coordination Sequence:
#
# PCOD9537940 Si02
#       8
#    16  16  16  16  16  16  16   4
#     4  10  23  41  63  89 124 160 193 240 301 367
#     4  10  22  41  62  85 116 156 202 254 304 362
#     4  10  21  37  59  87 119 154 201 251 299 354
#     4  12  25  42  67  97 130 172 215 263 318 378
#     4   9  18  33  54  80 115 155 197 240 292 359
#     4  11  24  43  65  92 125 159 205 259 313 370
#     4  10  20  35  56  84 113 152 196 243 300 357
#     4  12  24  44  66  98 132 168 226 258 316 378
#
# _framework density 22.988437999999999
#
# number of rings (size 3 to 8) (size 9 to 14) (size 15 to 20)
#    0.000    1.655    1.379    2.483    0.966    6.897 
#    0.000    5.517    0.000    0.000    0.000    0.000 
#    0.000    0.000    0.000    0.000    0.000    0.000 
#
# Total GULP energy -323622.234735 kJ/mol
# GULP energy per Si atom -5579.693702 kJ/mol
# Density = 2.293612 g / cm^3
# Si number density = 22.988438 Si / 1000 Ang^3
#
#
#
# Elastic Constant Matrix: (Units=GPa)
#
#
# Indices 1 2 3 4 5 6 
#
# 1 100.6721 3.1385 -5.4770 0.0000 0.0000 0.0000
# 2 3.1385 106.3625 29.3244 0.0000 0.0000 0.0000
# 3 -5.4770 29.3244 25.7034 0.0000 0.0000 0.0000
# 4 0.0000 0.0000 0.0000 -42.3636 0.0000 0.0000
# 5 0.0000 0.0000 0.0000 0.0000 9.4310 0.0000
# 6 0.0000 0.0000 0.0000 0.0000 0.0000 10.0891
#
#
#
# Elastic Compliance Matrix: (Units=1/GPa)
#
#
# Indices 1 2 3 4 5 6 
#
# 1 0.010173 -0.001310 0.003662 0.000000 0.000000 0.000000
# 2 -0.001310 0.013885 -0.016120 0.000000 0.000000 0.000000
# 3 0.003662 -0.016120 0.058077 0.000000 0.000000 0.000000
# 4 0.000000 0.000000 0.000000 -0.023605 0.000000 0.000000
# 5 0.000000 0.000000 0.000000 0.000000 0.106033 0.000000
# 6 0.000000 0.000000 0.000000 0.000000 0.000000 0.099117
#
#
# Mechanical properties :
#
#
# Convention : Reuss Voigt Hill
#
# Bulk Modulus (GPa) = 18.31522 31.85665 25.08594
# Shear Modulus (GPa) = 16.15956 9.14811 12.65384
#
# Velocity S-wave (km/s) = 2.65418 1.99702 2.34870
# Velocity P-wave (km/s) = 4.16862 4.38237 4.27683
#
# Compressibility (1/GPa) = 0.05459940
#
# Stress axis : x y z
#
# Youngs Moduli (GPa) = 98.29642 72.02140 17.21865
#
# Poissons Ratio (x) = 0.09434 -0.06306
# Poissons Ratio (y) = 0.12875 0.27756
# Poissons Ratio (z) = -0.35998 1.16098
#
# Static dielectric constant tensor:
#      x y z
#    x 1.870120 0.000000 0.000000 
#    y 0.000000 1.899500 0.000000 
#    z 0.000000 0.000000 1.840700 
# 
# From -- ./inp_files/64855.got.cif
#   From: 2010.05.17/outbox.cif.g08.bks.cpg/sg74_33_cif.got.tgz:64855.got - 2010.06.03 17:57:02.
