data_PCOD9537430
_publ_section_title
;
Structure prediction by ZEFSAII (Michael W. Deem and Ramdas Pophale) SiO2 
 PCOD9537430
Probable space group: I M M A
;
_chemical_formula_sum "Si O2"
_cell_formula_units_Z 104
_cell_length_a 17.698727
_cell_length_b 11.980934
_cell_length_c 31.388055
_cell_angle_alpha 90.000000
_cell_angle_beta 90.000000
_cell_angle_gamma 90.000000
_cell_volume 6655.751689
_symmetry_space_group_name_H-M "I M M A"
_symmetry_group_IT_number 74
_symmetry_cell_setting 'orthorhombic'
loop_
_space_group_symop_operation_xyz
x,y,z
-x,1/2-y,z
x,-y,-z
-x,1/2+y,-z
-x,-y,-z
x,1/2+y,-z
-x,y,z
x,1/2-y,z
1/2+x,1/2+y,1/2+z
1/2-x,-y,1/2+z
1/2+x,1/2-y,1/2-z
1/2-x,y,1/2-z
1/2-x,1/2-y,1/2-z
1/2+x,y,1/2-z
1/2-x,1/2+y,1/2+z
1/2+x,-y,1/2+z
loop_
_atom_site_type_symbol
_atom_site_label
_atom_site_fract_x
_atom_site_fract_y
_atom_site_fract_z
Si Si1 0.418949 0.952867 0.192351
Si Si2 0.224843 0.617565 0.798540
Si Si3 0.179720 0.250000 0.784599
Si Si4 0.415885 0.250000 0.913687
Si Si5 0.913090 0.978095 0.213806
Si Si6 0.318103 0.250000 0.832602
Si Si7 0.144745 0.117062 0.369936
Si Si8 0.588505 0.996078 0.049394
O O1 0.500000 0.893538 0.192677
O O2 0.414155 0.016905 0.236877
O O3 0.354106 0.861086 0.187876
O O4 0.415897 0.040626 0.154419
O O5 0.214562 0.750000 0.795402
O O6 0.250000 0.579856 0.750000
O O7 0.146371 0.557200 0.809341
O O8 0.284024 0.597956 0.837337
O O9 0.250000 0.250000 0.750000
O O10 0.126049 0.356960 0.783491
O O11 0.229034 0.250000 0.827558
O O12 0.500000 0.250000 0.893370
O O13 0.349786 0.250000 0.879696
O O14 0.410375 0.365434 0.938619
O O15 0.000000 0.974787 0.198784
O O16 0.131196 0.250000 0.370890
O O17 0.140545 0.066425 0.417717
O O18 0.500000 0.034318 0.052984
O O19 0.610969 0.000000 0.000000
#
# Coordination Sequence:
#
# PCOD9537430 Si02
#       8
#    16  16   8   8  16   8  16  16
#     4  11  20  30  45  69  98 130 174 219 254 296
#     4  10  20  36  53  72 101 136 175 219 265 309
#     4  12  21  32  47  70  99 136 171 212 264 308
#     4  10  20  34  51  74  97 130 172 209 251 302
#     4  11  22  34  49  70 100 135 175 216 258 309
#     4  12  20  30  49  68  93 131 173 215 256 300
#     4  11  22  34  51  73 100 137 177 219 264 314
#     4  10  22  37  53  74 105 141 177 221 265 309
#
# _framework density 15.625584
#
# number of rings (size 3 to 8) (size 9 to 14) (size 15 to 20)
#    0.000    1.231    4.615    2.769    1.077    2.769 
#    0.000    1.538    0.000    0.000    0.000    0.000 
#    0.000    0.615    0.000    0.923    0.000    0.000 
#
# Total GULP energy -289584.816831 kJ/mol
# GULP energy per Si atom -5568.938785 kJ/mol
# Density = 1.559002 g / cm^3
# Si number density = 15.625584 Si / 1000 Ang^3
#
#
#
# Elastic Constant Matrix: (Units=GPa)
#
#
# Indices 1 2 3 4 5 6 
#
# 1 97.5924 31.2048 31.2160 0.0000 0.0000 0.0000
# 2 31.2048 62.1759 24.5650 0.0000 0.0000 0.0000
# 3 31.2160 24.5650 87.9224 0.0000 0.0000 0.0000
# 4 0.0000 0.0000 0.0000 -6.8490 0.0000 0.0000
# 5 0.0000 0.0000 0.0000 0.0000 18.3621 0.0000
# 6 0.0000 0.0000 0.0000 0.0000 0.0000 46.9698
#
#
#
# Elastic Compliance Matrix: (Units=1/GPa)
#
#
# Indices 1 2 3 4 5 6 
#
# 1 0.012925 -0.005254 -0.003121 0.000000 0.000000 0.000000
# 2 -0.005254 0.020215 -0.003783 0.000000 0.000000 0.000000
# 3 -0.003121 -0.003783 0.013539 0.000000 0.000000 0.000000
# 4 0.000000 0.000000 0.000000 -0.146006 0.000000 0.000000
# 5 0.000000 0.000000 0.000000 0.000000 0.054460 0.000000
# 6 0.000000 0.000000 0.000000 0.000000 0.000000 0.021290
#
#
# Mechanical properties :
#
#
# Convention : Reuss Voigt Hill
#
# Bulk Modulus (GPa) = 44.71564 46.85135 45.78349
# Shear Modulus (GPa) = 610.41830 22.41024 316.41427
#
# Velocity S-wave (km/s) = 19.78639 3.79119 14.24560
# Velocity P-wave (km/s) = 23.46659 7.01520 17.31897
#
# Compressibility (1/GPa) = 0.02236354
#
# Stress axis : x y z
#
# Youngs Moduli (GPa) = 77.37060 49.46938 73.86302
#
# Poissons Ratio (x) = 0.25989 0.23053
# Poissons Ratio (y) = 0.40648 0.27939
# Poissons Ratio (z) = 0.24147 0.18712
#
# Static dielectric constant tensor:
#      x y z
#    x 1.550780 0.000000 0.000000 
#    y 0.000000 1.606240 0.000000 
#    z 0.000000 0.000000 1.554370 
# 
# From -- ./inp_files/67790.got.cif
#   From: 2010.05.17/outbox.cif.g08.bks.cpg/sg74_34_cif.got.tgz:67790.got - 2010.06.03 17:57:02.
