data_PCOD9537109
_publ_section_title
;
Structure prediction by ZEFSAII (Michael W. Deem and Ramdas Pophale) SiO2 
 PCOD9537109
Probable space group: I M M A
;
_chemical_formula_sum "Si O2"
_cell_formula_units_Z 72
_cell_length_a 17.022328
_cell_length_b 8.500215
_cell_length_c 21.350792
_cell_angle_alpha 90.000000
_cell_angle_beta 90.000000
_cell_angle_gamma 90.000000
_cell_volume 3089.319708
_symmetry_space_group_name_H-M "I M M A"
_symmetry_group_IT_number 74
_symmetry_cell_setting 'orthorhombic'
loop_
_space_group_symop_operation_xyz
x,y,z
-x,1/2-y,z
x,-y,-z
-x,1/2+y,-z
-x,-y,-z
x,1/2+y,-z
-x,y,z
x,1/2-y,z
1/2+x,1/2+y,1/2+z
1/2-x,-y,1/2+z
1/2+x,1/2-y,1/2-z
1/2-x,y,1/2-z
1/2-x,1/2-y,1/2-z
1/2+x,y,1/2-z
1/2-x,1/2+y,1/2+z
1/2+x,-y,1/2+z
loop_
_atom_site_type_symbol
_atom_site_label
_atom_site_fract_x
_atom_site_fract_y
_atom_site_fract_z
Si Si1 0.658928 0.428477 0.895533
Si Si2 0.844536 0.250000 0.254571
Si Si3 0.331239 0.437606 0.570268
Si Si4 0.154556 0.916073 0.250481
Si Si5 0.500000 0.940304 0.428224
Si Si6 0.906952 0.250000 0.397452
O O1 0.650339 0.250000 0.922642
O O2 0.751674 0.470563 0.892739
O O3 0.630537 0.414864 0.823731
O O4 0.619444 0.581909 0.926319
O O5 0.750000 0.250000 0.250000
O O6 0.872622 0.415055 0.226646
O O7 0.868091 0.250000 0.327973
O O8 0.320199 0.500000 0.500000
O O9 0.335491 0.250000 0.566202
O O10 0.415068 0.494832 0.595853
O O11 0.128311 0.750000 0.220869
O O12 0.250000 0.913363 0.250000
O O13 0.500000 0.750000 0.426471
O O14 0.500000 0.000000 0.500000
O O15 0.000000 0.250000 0.391952
#
# Coordination Sequence:
#
# PCOD9537109 Si02
#       6
#    16   8  16  16   8   8
#     4   9  18  31  47  72  97 127 166 204 247 296
#     4   8  14  26  44  68  90 117 149 188 232 279
#     4   9  17  28  46  71  97 129 163 202 244 297
#     4   8  13  23  41  65  89 115 150 188 224 272
#     4   8  14  26  42  66  98 124 158 194 238 280
#     4  10  20  32  50  75  97 124 170 210 249 293
#
# _framework density 23.306101999999999
#
# number of rings (size 3 to 8) (size 9 to 14) (size 15 to 20)
#    0.000    3.333    0.000    0.000    1.556    0.444 
#    0.000    0.000    0.000    0.667   46.222    0.000 
#    0.000    0.000    0.000    0.000    0.000    0.000 
#
# Total GULP energy -200440.886358 kJ/mol
# GULP energy per Si atom -5567.802399 kJ/mol
# Density = 2.325306 g / cm^3
# Si number density = 23.306102 Si / 1000 Ang^3
#
#
#
# Elastic Constant Matrix: (Units=GPa)
#
#
# Indices 1 2 3 4 5 6 
#
# 1 107.5519 44.5911 12.8661 0.0000 0.0000 0.0000
# 2 44.5911 208.8000 21.4871 0.0000 0.0000 0.0000
# 3 12.8661 21.4871 64.1868 0.0000 0.0000 0.0000
# 4 0.0000 0.0000 0.0000 9.2945 0.0000 0.0000
# 5 0.0000 0.0000 0.0000 0.0000 -183.5861 0.0000
# 6 0.0000 0.0000 0.0000 0.0000 0.0000 19.9248
#
#
#
# Elastic Compliance Matrix: (Units=1/GPa)
#
#
# Indices 1 2 3 4 5 6 
#
# 1 0.010317 -0.002062 -0.001378 0.000000 0.000000 0.000000
# 2 -0.002062 0.005372 -0.001385 0.000000 0.000000 0.000000
# 3 -0.001378 -0.001385 0.016319 0.000000 0.000000 0.000000
# 4 0.000000 0.000000 0.000000 0.107590 0.000000 0.000000
# 5 0.000000 0.000000 0.000000 0.000000 -0.005447 0.000000
# 6 0.000000 0.000000 0.000000 0.000000 0.000000 0.050189
#
#
# Mechanical properties :
#
#
# Convention : Reuss Voigt Hill
#
# Bulk Modulus (GPa) = 44.72356 59.82526 52.27441
# Shear Modulus (GPa) = 24.82088 -10.76706 7.02691
#
# Velocity S-wave (km/s) = 3.26697 -2.15171 1.73827
# Velocity P-wave (km/s) = 5.78464 4.42175 5.14849
#
# Compressibility (1/GPa) = 0.02235958
#
# Stress axis : x y z
#
# Youngs Moduli (GPa) = 96.92359 186.14775 61.27673
#
# Poissons Ratio (x) = 0.38376 0.08444
# Poissons Ratio (y) = 0.19981 0.08488
# Poissons Ratio (z) = 0.13356 0.25784
#
# Static dielectric constant tensor:
#      x y z
#    x 1.865690 0.000000 0.000000 
#    y 0.000000 1.963540 0.000000 
#    z 0.000000 0.000000 1.929740 
# 
# From -- ./inp_files/70034.got.cif
#   From: 2010.05.17/outbox.cif.g08.bks.cpg/sg74_36_cif.got.tgz:70034.got - 2010.06.03 17:57:02.
