data_PCOD9537794
_publ_section_title
;
Structure prediction by ZEFSAII (Michael W. Deem and Ramdas Pophale) SiO2 
 PCOD9537794
Probable space group: I M M A
;
_chemical_formula_sum "Si O2"
_cell_formula_units_Z 104
_cell_length_a 21.861152
_cell_length_b 8.051218
_cell_length_c 30.009647
_cell_angle_alpha 90.000000
_cell_angle_beta 90.000000
_cell_angle_gamma 90.000000
_cell_volume 5281.964972
_symmetry_space_group_name_H-M "I M M A"
_symmetry_group_IT_number 74
_symmetry_cell_setting 'orthorhombic'
loop_
_space_group_symop_operation_xyz
x,y,z
-x,1/2-y,z
x,-y,-z
-x,1/2+y,-z
-x,-y,-z
x,1/2+y,-z
-x,y,z
x,1/2-y,z
1/2+x,1/2+y,1/2+z
1/2-x,-y,1/2+z
1/2+x,1/2-y,1/2-z
1/2-x,y,1/2-z
1/2-x,1/2-y,1/2-z
1/2+x,y,1/2-z
1/2-x,1/2+y,1/2+z
1/2+x,-y,1/2+z
loop_
_atom_site_type_symbol
_atom_site_label
_atom_site_fract_x
_atom_site_fract_y
_atom_site_fract_z
Si Si1 0.430427 0.555442 0.080552
Si Si2 0.500000 0.949257 0.448514
Si Si3 0.796092 0.451365 0.710014
Si Si4 0.633797 0.451564 0.552089
Si Si5 0.234300 0.938697 0.120434
Si Si6 0.429835 0.051072 0.182985
Si Si7 0.812481 0.936705 0.547481
O O1 0.500000 0.511908 0.070898
O O2 0.420772 0.750000 0.071375
O O3 0.421259 0.523670 0.133480
O O4 0.384893 0.446588 0.051703
O O5 0.500000 0.750000 0.444626
O O6 0.433931 0.007546 0.432493
O O7 0.500000 0.000000 0.500000
O O8 0.798033 0.250000 0.708362
O O9 0.750000 0.498592 0.750000
O O10 0.761902 0.514981 0.665200
O O11 0.867779 0.505288 0.710289
O O12 0.643668 0.500000 0.500000
O O13 0.636814 0.250000 0.552129
O O14 0.681174 0.513999 0.589286
O O15 0.215439 0.750000 0.131570
O O16 0.289604 0.941582 0.085648
O O17 0.500000 0.001576 0.198011
O O18 0.430382 0.250000 0.179299
O O19 0.791265 0.750000 0.555657
O O20 0.790948 0.000000 0.500000
#
# Coordination Sequence:
#
# PCOD9537794 Si02
#       7
#    16   8  16  16  16  16  16
#     4  10  20  35  55  78 106 142 182 226 274 321
#     4   8  14  26  44  68  96 128 168 210 254 308
#     4  10  21  37  59  84 113 147 186 231 282 338
#     4   9  17  29  48  73 101 135 174 216 263 318
#     4  10  20  35  53  75 107 142 178 223 275 326
#     4  10  20  35  58  87 114 144 185 231 280 338
#     4  12  24  36  52  75 107 145 186 226 271 322
#
# _framework density 19.689644000000001
#
# number of rings (size 3 to 8) (size 9 to 14) (size 15 to 20)
#    0.000    2.000    1.538    2.769    0.000    4.308 
#    0.000    0.000    1.692    0.000    0.000    0.000 
#    0.000    0.000    0.000    0.000    0.000    0.000 
#
# Total GULP energy -289643.270480 kJ/mol
# GULP energy per Si atom -5570.062894 kJ/mol
# Density = 1.964483 g / cm^3
# Si number density = 19.689644 Si / 1000 Ang^3
#
#
#
# Elastic Constant Matrix: (Units=GPa)
#
#
# Indices 1 2 3 4 5 6 
#
# 1 161.3484 17.4621 50.4860 0.0000 0.0000 0.0000
# 2 17.4621 37.7162 4.0382 0.0000 0.0000 0.0000
# 3 50.4860 4.0382 92.0256 0.0000 0.0000 0.0000
# 4 0.0000 0.0000 0.0000 6.3676 0.0000 0.0000
# 5 0.0000 0.0000 0.0000 0.0000 30.2610 0.0000
# 6 0.0000 0.0000 0.0000 0.0000 0.0000 18.8838
#
#
#
# Elastic Compliance Matrix: (Units=1/GPa)
#
#
# Indices 1 2 3 4 5 6 
#
# 1 0.007846 -0.003187 -0.004164 0.000000 0.000000 0.000000
# 2 -0.003187 0.027933 0.000522 0.000000 0.000000 0.000000
# 3 -0.004164 0.000522 0.013128 0.000000 0.000000 0.000000
# 4 0.000000 0.000000 0.000000 0.157044 0.000000 0.000000
# 5 0.000000 0.000000 0.000000 0.000000 0.033046 0.000000
# 6 0.000000 0.000000 0.000000 0.000000 0.000000 0.052955
#
#
# Mechanical properties :
#
#
# Convention : Reuss Voigt Hill
#
# Bulk Modulus (GPa) = 28.36875 48.34031 38.35453
# Shear Modulus (GPa) = 15.75502 25.70943 20.73223
#
# Velocity S-wave (km/s) = 2.83179 3.61741 3.24844
# Velocity P-wave (km/s) = 5.01311 6.48475 5.79583
#
# Compressibility (1/GPa) = 0.03525006
#
# Stress axis : x y z
#
# Youngs Moduli (GPa) = 127.45881 35.79974 76.17174
#
# Poissons Ratio (x) = 0.11408 0.31721
# Poissons Ratio (y) = 0.40615 -0.03979
# Poissons Ratio (z) = 0.53079 -0.01870
#
# Static dielectric constant tensor:
#      x y z
#    x 1.799380 0.000000 0.000000 
#    y 0.000000 1.756000 0.000000 
#    z 0.000000 0.000000 1.663010 
# 
# From -- ./inp_files/73647.got.cif
#   From: 2010.05.17/outbox.cif.g08.bks.cpg/sg74_37_cif.got.tgz:73647.got - 2010.06.03 17:57:02.
