data_PCOD9537587
_publ_section_title
;
Structure prediction by ZEFSAII (Michael W. Deem and Ramdas Pophale) SiO2 
 PCOD9537587
Probable space group: I M M A
;
_chemical_formula_sum "Si O2"
_cell_formula_units_Z 88
_cell_length_a 9.949371
_cell_length_b 23.366568
_cell_length_c 19.854038
_cell_angle_alpha 90.000000
_cell_angle_beta 90.000000
_cell_angle_gamma 90.000000
_cell_volume 4615.719447
_symmetry_space_group_name_H-M "I M M A"
_symmetry_group_IT_number 74
_symmetry_cell_setting 'orthorhombic'
loop_
_space_group_symop_operation_xyz
x,y,z
-x,1/2-y,z
x,-y,-z
-x,1/2+y,-z
-x,-y,-z
x,1/2+y,-z
-x,y,z
x,1/2-y,z
1/2+x,1/2+y,1/2+z
1/2-x,-y,1/2+z
1/2+x,1/2-y,1/2-z
1/2-x,y,1/2-z
1/2-x,1/2-y,1/2-z
1/2+x,y,1/2-z
1/2-x,1/2+y,1/2+z
1/2+x,-y,1/2+z
loop_
_atom_site_type_symbol
_atom_site_label
_atom_site_fract_x
_atom_site_fract_y
_atom_site_fract_z
Si Si1 0.348700 0.513404 0.420507
Si Si2 0.160876 0.750000 0.182508
Si Si3 0.346776 0.817523 0.959174
Si Si4 0.654142 0.648285 0.422281
Si Si5 0.152792 0.525338 0.691109
Si Si6 0.347994 0.162070 0.192571
O O1 0.335328 0.500000 0.500000
O O2 0.500000 0.493314 0.400642
O O3 0.342039 0.581185 0.404823
O O4 0.230292 0.484949 0.378465
O O5 0.250000 0.750000 0.250000
O O6 0.189196 0.806588 0.136828
O O7 0.000000 0.750000 0.197696
O O8 0.500000 0.840278 0.962697
O O9 0.351022 0.750000 0.972635
O O10 0.298396 0.825955 0.882840
O O11 0.251657 0.844336 0.014612
O O12 0.500000 0.661943 0.441824
O O13 0.250000 0.501904 0.750000
O O14 0.144074 0.593548 0.700425
O O15 0.000000 0.502516 0.692635
O O16 0.500000 0.184509 0.198004
O O17 0.250000 0.184108 0.250000
#
# Coordination Sequence:
#
# PCOD9537587 Si02
#       6
#    16   8  16  16  16  16
#     4  10  21  36  56  84 115 145 182 230 282 336
#     4  10  22  40  60  82 109 142 185 232 279 334
#     4  10  20  34  54  79 108 141 180 226 271 320
#     4  10  21  38  58  81 111 144 181 227 278 337
#     4  10  20  35  55  77 107 145 183 224 271 327
#     4   9  19  34  51  76 109 145 184 224 267 316
#
# _framework density 19.065283999999998
#
# number of rings (size 3 to 8) (size 9 to 14) (size 15 to 20)
#    0.000    2.182    0.909    1.636    0.000    4.364 
#    0.000    1.818    0.000    0.000    0.000    0.000 
#    0.000    0.000    0.000    0.000    0.000    0.000 
#
# Total GULP energy -245442.406086 kJ/mol
# GULP energy per Si atom -5578.236502 kJ/mol
# Density = 1.902189 g / cm^3
# Si number density = 19.065284 Si / 1000 Ang^3
#
#
#
# Elastic Constant Matrix: (Units=GPa)
#
#
# Indices 1 2 3 4 5 6 
#
# 1 119.8443 21.4971 77.9621 0.0000 0.0000 0.0000
# 2 21.4971 52.5710 13.2117 0.0000 0.0000 0.0000
# 3 77.9621 13.2117 98.2498 0.0000 0.0000 -0.0001
# 4 0.0000 0.0000 0.0000 22.1764 0.0000 0.0000
# 5 0.0000 0.0000 0.0000 0.0000 28.3314 0.0000
# 6 0.0000 0.0000 -0.0001 0.0000 0.0000 -255.3735
#
#
#
# Elastic Compliance Matrix: (Units=1/GPa)
#
#
# Indices 1 2 3 4 5 6 
#
# 1 0.017988 -0.003900 -0.013749 0.000000 0.000000 0.000000
# 2 -0.003900 0.020533 0.000334 0.000000 0.000000 0.000000
# 3 -0.013749 0.000334 0.021043 0.000000 0.000000 0.000000
# 4 0.000000 0.000000 0.000000 0.045093 0.000000 0.000000
# 5 0.000000 0.000000 0.000000 0.000000 0.035297 0.000000
# 6 0.000000 0.000000 0.000000 0.000000 0.000000 -0.003916
#
#
# Mechanical properties :
#
#
# Convention : Reuss Voigt Hill
#
# Bulk Modulus (GPa) = 40.10746 55.11187 47.60966
# Shear Modulus (GPa) = 27.93608 -30.44020 -1.25206
#
# Velocity S-wave (km/s) = 3.83206 -4.00012 -0.81126
# Velocity P-wave (km/s) = 6.37669 2.76316 4.91412
#
# Compressibility (1/GPa) = 0.02493302
#
# Stress axis : x y z
#
# Youngs Moduli (GPa) = 55.59269 48.70236 47.52100
#
# Poissons Ratio (x) = 0.18995 0.65337
# Poissons Ratio (y) = 0.21682 -0.01586
# Poissons Ratio (z) = 0.76435 -0.01626
#
# Static dielectric constant tensor:
#      x y z
#    x 1.680490 0.000000 0.000000 
#    y 0.000000 1.687880 0.000000 
#    z 0.000000 0.000000 1.651940 
# 
# From -- ./inp_files/48723.got.cif
#   From: 2010.05.17/outbox.cif.g08.bks.cpg/sg74_25_cif.got.tgz:48723.got - 2010.06.03 17:57:02.
