data_PCOD9537883
_publ_section_title
;
Structure prediction by ZEFSAII (Michael W. Deem and Ramdas Pophale) SiO2 
 PCOD9537883
Probable space group: I M M A
;
_chemical_formula_sum "Si O2"
_cell_formula_units_Z 88
_cell_length_a 21.907039
_cell_length_b 26.313293
_cell_length_c 8.747597
_cell_angle_alpha 90.000000
_cell_angle_beta 90.000000
_cell_angle_gamma 90.000000
_cell_volume 5042.520239
_symmetry_space_group_name_H-M "I M M A"
_symmetry_group_IT_number 74
_symmetry_cell_setting 'orthorhombic'
loop_
_space_group_symop_operation_xyz
x,y,z
-x,1/2-y,z
x,-y,-z
-x,1/2+y,-z
-x,-y,-z
x,1/2+y,-z
-x,y,z
x,1/2-y,z
1/2+x,1/2+y,1/2+z
1/2-x,-y,1/2+z
1/2+x,1/2-y,1/2-z
1/2-x,y,1/2-z
1/2-x,1/2-y,1/2-z
1/2+x,y,1/2-z
1/2-x,1/2+y,1/2+z
1/2+x,-y,1/2+z
loop_
_atom_site_type_symbol
_atom_site_label
_atom_site_fract_x
_atom_site_fract_y
_atom_site_fract_z
Si Si1 0.500000 0.504381 0.318254
Si Si2 0.000000 0.399814 0.375552
Si Si3 0.881064 0.810227 0.080453
Si Si4 0.315170 0.130213 0.834817
Si Si5 0.500000 0.188373 0.374943
Si Si6 0.094871 0.948923 0.402780
Si Si7 0.251146 0.807591 0.569393
O O1 0.500000 0.500000 0.500000
O O2 0.500000 0.448217 0.240906
O O3 0.557034 0.535423 0.247761
O O4 0.942690 0.409228 0.490026
O O5 0.000000 0.348325 0.274575
O O6 0.884313 0.750000 0.114258
O O7 0.866643 0.840831 0.235121
O O8 0.940542 0.822901 0.980233
O O9 0.819885 0.820027 0.982266
O O10 0.250000 0.131772 0.750000
O O11 0.340712 0.074575 0.861248
O O12 0.299596 0.157518 0.993184
O O13 0.500000 0.250000 0.340839
O O14 0.099385 0.000000 0.500000
O O15 0.239315 0.750000 0.515004
O O16 0.250000 0.809335 0.750000
#
# Coordination Sequence:
#
# PCOD9537883 Si02
#       7
#     8   8  16  16   8  16  16
#     4   9  19  36  61  85 100 139 194 230 271 337
#     4   9  20  36  58  77 109 149 176 224 278 333
#     4   9  19  34  52  77 113 146 180 226 271 326
#     4  10  20  35  56  78 107 145 187 228 285 336
#     4  10  21  34  54  88 122 146 181 230 282 336
#     4   9  20  39  55  78 111 140 181 239 287 329
#     4   9  18  33  54  79 107 145 191 226 263 334
#
# _framework density 17.451591000000001
#
# number of rings (size 3 to 8) (size 9 to 14) (size 15 to 20)
#    0.000    2.727    0.000    1.636    5.091    2.909 
#    0.000    2.727    0.000    0.000    0.000    0.000 
#    0.000    0.000    0.000    0.000    0.000    0.000 
#
# Total GULP energy -245042.377981 kJ/mol
# GULP energy per Si atom -5569.144954 kJ/mol
# Density = 1.741187 g / cm^3
# Si number density = 17.451591 Si / 1000 Ang^3
#
#
#
# Elastic Constant Matrix: (Units=GPa)
#
#
# Indices 1 2 3 4 5 6 
#
# 1 51.1709 43.0894 30.3531 0.0000 0.0000 0.0000
# 2 43.0894 57.4739 34.9682 0.0000 0.0000 0.0000
# 3 30.3531 34.9682 88.8596 0.0000 0.0000 0.0000
# 4 0.0000 0.0000 0.0000 17.5097 0.0000 0.0000
# 5 0.0000 0.0000 0.0000 0.0000 6.9771 0.0000
# 6 0.0000 0.0000 0.0000 0.0000 0.0000 28.1715
#
#
#
# Elastic Compliance Matrix: (Units=1/GPa)
#
#
# Indices 1 2 3 4 5 6 
#
# 1 0.053727 -0.038279 -0.003289 0.000000 0.000000 0.000000
# 2 -0.038279 0.050150 -0.006659 0.000000 0.000000 0.000000
# 3 -0.003289 -0.006659 0.014998 0.000000 0.000000 0.000000
# 4 0.000000 0.000000 0.000000 0.057111 0.000000 0.000000
# 5 0.000000 0.000000 0.000000 0.000000 0.143326 0.000000
# 6 0.000000 0.000000 0.000000 0.000000 0.000000 0.035497
#
#
# Mechanical properties :
#
#
# Convention : Reuss Voigt Hill
#
# Bulk Modulus (GPa) = 44.60359 46.03619 45.31989
# Shear Modulus (GPa) = 10.89954 16.47124 13.68539
#
# Velocity S-wave (km/s) = 2.50183 3.07551 2.80338
# Velocity P-wave (km/s) = 5.82748 6.24886 6.04184
#
# Compressibility (1/GPa) = 0.02241972
#
# Stress axis : x y z
#
# Youngs Moduli (GPa) = 18.61275 19.94035 66.67720
#
# Poissons Ratio (x) = 0.76330 0.21927
# Poissons Ratio (y) = 0.71248 0.44403
# Poissons Ratio (z) = 0.06121 0.13279
#
# Static dielectric constant tensor:
#      x y z
#    x 1.590100 0.000000 0.000000 
#    y 0.000000 1.594950 0.000000 
#    z 0.000000 0.000000 1.596050 
# 
# From -- ./inp_files/12489.got.cif
#   From: 2010.05.17/outbox.cif.g08.bks.cpg/sg74_7_cif.got.tgz:12489.got - 2010.06.03 17:57:02.
