data_PCOD9537085
_publ_section_title
;
Structure prediction by ZEFSAII (Michael W. Deem and Ramdas Pophale) SiO2 
 PCOD9537085
Probable space group: I M M A
;
_chemical_formula_sum "Si O2"
_cell_formula_units_Z 80
_cell_length_a 9.488386
_cell_length_b 25.640312
_cell_length_c 15.811813
_cell_angle_alpha 90.000000
_cell_angle_beta 90.000000
_cell_angle_gamma 90.000000
_cell_volume 3846.779731
_symmetry_space_group_name_H-M "I M M A"
_symmetry_group_IT_number 74
_symmetry_cell_setting 'orthorhombic'
loop_
_space_group_symop_operation_xyz
x,y,z
-x,1/2-y,z
x,-y,-z
-x,1/2+y,-z
-x,-y,-z
x,1/2+y,-z
-x,y,z
x,1/2-y,z
1/2+x,1/2+y,1/2+z
1/2-x,-y,1/2+z
1/2+x,1/2-y,1/2-z
1/2-x,y,1/2-z
1/2-x,1/2-y,1/2-z
1/2+x,y,1/2-z
1/2-x,1/2+y,1/2+z
1/2+x,-y,1/2+z
loop_
_atom_site_type_symbol
_atom_site_label
_atom_site_fract_x
_atom_site_fract_y
_atom_site_fract_z
Si Si1 0.159921 0.981587 0.332801
Si Si2 0.660910 0.688242 0.829810
Si Si3 0.663650 0.163936 0.498278
Si Si4 0.148062 0.547294 0.934728
Si Si5 0.168113 0.861091 0.340506
O O1 0.250000 0.979875 0.250000
O O2 0.174473 0.922496 0.368300
O O3 0.000000 0.988628 0.312237
O O4 0.215375 0.030921 0.384067
O O5 0.500000 0.667240 0.835999
O O6 0.647092 0.750000 0.813815
O O7 0.750000 0.665911 0.750000
O O8 0.748782 0.683476 0.916905
O O9 0.500000 0.182871 0.502206
O O10 0.654918 0.102145 0.479989
O O11 0.749967 0.170465 0.585826
O O12 0.000000 0.546663 0.884072
O O13 0.138861 0.500000 0.000000
O O14 0.250000 0.855938 0.250000
O O15 0.000000 0.848428 0.332765
#
# Coordination Sequence:
#
# PCOD9537085 Si02
#       5
#    16  16  16  16  16
#     4  10  20  32  49  70  99 142 190 236 282 333
#     4  10  22  42  67  93 121 152 190 241 300 362
#     4  11  22  36  59  87 116 154 196 242 295 353
#     4  10  20  34  50  72 108 148 188 235 284 335
#     4  10  20  34  53  79 112 151 196 241 284 337
#
# _framework density 20.796614999999999
#
# number of rings (size 3 to 8) (size 9 to 14) (size 15 to 20)
#    0.000    1.800    2.000    2.400    0.000    5.600 
#    0.000    0.000    0.000    0.600    0.000    0.000 
#    0.000    0.000    0.000    0.000    0.000    0.000 
#
# Total GULP energy -222778.692388 kJ/mol
# GULP energy per Si atom -5569.467310 kJ/mol
# Density = 2.074928 g / cm^3
# Si number density = 20.796615 Si / 1000 Ang^3
#
#
#
# Elastic Constant Matrix: (Units=GPa)
#
#
# Indices 1 2 3 4 5 6 
#
# 1 221.4782 10.0813 93.0010 0.0000 0.0000 0.0000
# 2 10.0813 15.6564 0.4419 0.0001 0.0000 0.0000
# 3 93.0010 0.4419 109.9940 0.0001 0.0000 0.0000
# 4 0.0000 0.0001 0.0001 39.2791 0.0000 0.0000
# 5 0.0000 0.0000 0.0000 0.0000 36.5935 0.0000
# 6 0.0000 0.0000 0.0000 0.0000 0.0000 54.2931
#
#
#
# Elastic Compliance Matrix: (Units=1/GPa)
#
#
# Indices 1 2 3 4 5 6 
#
# 1 0.007309 -0.004532 -0.006161 0.000000 0.000000 0.000000
# 2 -0.004532 0.066690 0.003564 0.000000 0.000000 0.000000
# 3 -0.006161 0.003564 0.014287 0.000000 0.000000 0.000000
# 4 0.000000 0.000000 0.000000 0.025459 0.000000 0.000000
# 5 0.000000 0.000000 0.000000 0.000000 0.027327 0.000000
# 6 0.000000 0.000000 0.000000 0.000000 0.000000 0.018419
#
#
# Mechanical properties :
#
#
# Convention : Reuss Voigt Hill
#
# Bulk Modulus (GPa) = 13.50878 61.57519 37.54199
# Shear Modulus (GPa) = 25.19864 42.27343 33.73604
#
# Velocity S-wave (km/s) = 3.48468 4.51345 4.03201
# Velocity P-wave (km/s) = 4.76450 7.53884 6.30613
#
# Compressibility (1/GPa) = 0.07402592
#
# Stress axis : x y z
#
# Youngs Moduli (GPa) = 136.82507 14.99485 69.99609
#
# Poissons Ratio (x) = 0.06796 0.43127
# Poissons Ratio (y) = 0.62012 -0.24947
# Poissons Ratio (z) = 0.84302 -0.05344
#
# Static dielectric constant tensor:
#      x y z
#    x 1.764620 0.000000 0.000000 
#    y 0.000000 1.771380 0.000000 
#    z 0.000000 0.000000 1.675490 
# 
# From -- ./inp_files/39734.got.cif
#   From: 2010.05.17/outbox.cif.g08.bks.cpg/sg74_20_cif.got.tgz:39734.got - 2010.06.03 17:57:02.
