data_PCOD9537389
_publ_section_title
;
Structure prediction by ZEFSAII (Michael W. Deem and Ramdas Pophale) SiO2 
 PCOD9537389
Probable space group: I M M A
;
_chemical_formula_sum "Si O2"
_cell_formula_units_Z 96
_cell_length_a 21.138856
_cell_length_b 22.290268
_cell_length_c 10.944586
_cell_angle_alpha 90.000000
_cell_angle_beta 90.000000
_cell_angle_gamma 90.000000
_cell_volume 5156.987855
_symmetry_space_group_name_H-M "I M M A"
_symmetry_group_IT_number 74
_symmetry_cell_setting 'orthorhombic'
loop_
_space_group_symop_operation_xyz
x,y,z
-x,1/2-y,z
x,-y,-z
-x,1/2+y,-z
-x,-y,-z
x,1/2+y,-z
-x,y,z
x,1/2-y,z
1/2+x,1/2+y,1/2+z
1/2-x,-y,1/2+z
1/2+x,1/2-y,1/2-z
1/2-x,y,1/2-z
1/2-x,1/2-y,1/2-z
1/2+x,y,1/2-z
1/2-x,1/2+y,1/2+z
1/2+x,-y,1/2+z
loop_
_atom_site_type_symbol
_atom_site_label
_atom_site_fract_x
_atom_site_fract_y
_atom_site_fract_z
Si Si1 0.751290 0.641454 0.381912
Si Si2 0.326373 0.930519 0.749253
Si Si3 0.000000 0.051000 0.897191
Si Si4 0.201116 0.314864 0.365165
Si Si5 0.500000 0.545554 0.115696
Si Si6 0.865402 0.928211 0.017290
Si Si7 0.861169 0.044023 0.614468
O O1 0.750000 0.672951 0.250000
O O2 0.764311 0.679141 0.504378
O O3 0.687503 0.603821 0.402913
O O4 0.806945 0.592290 0.375177
O O5 0.250000 0.941640 0.750000
O O6 0.337380 0.876584 0.845417
O O7 0.352746 0.906782 0.621089
O O8 0.358564 0.993932 0.778896
O O9 0.065794 0.084338 0.926011
O O10 0.000000 0.025713 0.758999
O O11 0.000000 0.000000 0.000000
O O12 0.168108 0.250000 0.360784
O O13 0.250000 0.315523 0.250000
O O14 0.430343 0.573976 0.105106
O O15 0.500000 0.500000 0.000000
O O16 0.855639 0.000000 0.000000
O O17 0.848964 0.000000 0.500000
#
# Coordination Sequence:
#
# PCOD9537389 Si02
#       7
#    16  16   8  16   8  16  16
#     4  12  21  32  55  85 110 141 180 229 282 329
#     4  11  18  33  54  81 105 143 184 221 275 333
#     4  10  20  34  46  72 113 152 184 221 270 326
#     4  10  21  38  55  76 107 141 182 231 283 331
#     4  10  22  34  46  74 116 162 183 211 274 338
#     4  11  20  32  52  78 113 147 179 221 272 335
#     4  11  19  31  51  79 114 147 183 223 269 342
#
# _framework density 18.615518999999999
#
# number of rings (size 3 to 8) (size 9 to 14) (size 15 to 20)
#    0.000    1.167    5.000    6.000    0.000    0.333 
#    0.000    0.000    0.000    0.000    0.000    7.000 
#    0.000    5.333    0.000    0.000    0.000    0.000 
#
# Total GULP energy -267293.765530 kJ/mol
# GULP energy per Si atom -5568.620115 kJ/mol
# Density = 1.857315 g / cm^3
# Si number density = 18.615519 Si / 1000 Ang^3
#
#
#
# Elastic Constant Matrix: (Units=GPa)
#
#
# Indices 1 2 3 4 5 6 
#
# 1 130.0340 19.3716 15.8374 0.0000 0.0000 0.0000
# 2 19.3716 61.3375 2.4872 0.0000 0.0000 0.0000
# 3 15.8374 2.4872 156.0371 0.0000 0.0000 0.0000
# 4 0.0000 0.0000 0.0000 1.3309 0.0000 0.0000
# 5 0.0000 0.0000 0.0000 0.0000 20.7577 0.0000
# 6 0.0000 0.0000 0.0000 0.0000 0.0000 -1.7387
#
#
#
# Elastic Compliance Matrix: (Units=1/GPa)
#
#
# Indices 1 2 3 4 5 6 
#
# 1 0.008166 -0.002547 -0.000788 0.000000 0.000000 0.000000
# 2 -0.002547 0.017108 -0.000014 0.000000 0.000000 0.000000
# 3 -0.000788 -0.000014 0.006489 0.000000 0.000000 0.000000
# 4 0.000000 0.000000 0.000000 0.751344 0.000000 0.000000
# 5 0.000000 0.000000 0.000000 0.000000 0.048175 0.000000
# 6 0.000000 0.000000 0.000000 0.000000 0.000000 -0.575143
#
#
# Mechanical properties :
#
#
# Convention : Reuss Voigt Hill
#
# Bulk Modulus (GPa) = 39.89753 46.97788 43.43770
# Shear Modulus (GPa) = 18.43715 24.71749 21.57732
#
# Velocity S-wave (km/s) = 3.15051 3.64784 3.40825
# Velocity P-wave (km/s) = 5.89179 6.55995 6.23483
#
# Compressibility (1/GPa) = 0.02506421
#
# Stress axis : x y z
#
# Youngs Moduli (GPa) = 122.46318 58.45153 154.10789
#
# Poissons Ratio (x) = 0.14887 0.12147
# Poissons Ratio (y) = 0.31191 0.00219
# Poissons Ratio (z) = 0.09653 0.00083
#
# Static dielectric constant tensor:
#      x y z
#    x 1.657050 0.000000 0.000000 
#    y 0.000000 1.650340 0.000000 
#    z 0.000000 0.000000 1.835780 
# 
# From -- ./inp_files/24123.got.cif
#   From: 2010.05.17/outbox.cif.g08.bks.cpg/sg74_13_cif.got.tgz:24123.got - 2010.06.03 17:57:02.
