data_PCOD9537242
_publ_section_title
;
Structure prediction by ZEFSAII (Michael W. Deem and Ramdas Pophale) SiO2 
 PCOD9537242
Probable space group: I M M A
;
_chemical_formula_sum "Si O2"
_cell_formula_units_Z 112
_cell_length_a 14.693494
_cell_length_b 28.003977
_cell_length_c 11.469830
_cell_angle_alpha 90.000000
_cell_angle_beta 90.000000
_cell_angle_gamma 90.000000
_cell_volume 4719.562843
_symmetry_space_group_name_H-M "I M M A"
_symmetry_group_IT_number 74
_symmetry_cell_setting 'orthorhombic'
loop_
_space_group_symop_operation_xyz
x,y,z
-x,1/2-y,z
x,-y,-z
-x,1/2+y,-z
-x,-y,-z
x,1/2+y,-z
-x,y,z
x,1/2-y,z
1/2+x,1/2+y,1/2+z
1/2-x,-y,1/2+z
1/2+x,1/2-y,1/2-z
1/2-x,y,1/2-z
1/2-x,1/2-y,1/2-z
1/2+x,y,1/2-z
1/2-x,1/2+y,1/2+z
1/2+x,-y,1/2+z
loop_
_atom_site_type_symbol
_atom_site_label
_atom_site_fract_x
_atom_site_fract_y
_atom_site_fract_z
Si Si1 0.110279 0.020466 0.121071
Si Si2 0.397205 0.095612 0.051742
Si Si3 0.340021 0.304091 0.484747
Si Si4 0.357688 0.352252 0.718931
Si Si5 0.109694 0.877158 0.800544
Si Si6 0.395171 0.046573 0.825046
Si Si7 0.371907 0.302019 0.945102
O O1 0.143361 0.993631 0.238683
O O2 0.000000 0.013466 0.123179
O O3 0.126241 0.076661 0.120942
O O4 0.145922 0.000000 0.000000
O O5 0.500000 0.077439 0.075214
O O6 0.352121 0.106046 0.175426
O O7 0.354874 0.061713 0.951720
O O8 0.405730 0.148818 0.999648
O O9 0.375656 0.250000 0.482243
O O10 0.380453 0.336362 0.588680
O O11 0.351493 0.330535 0.362073
O O12 0.234590 0.301742 0.522192
O O13 0.250000 0.356750 0.750000
O O14 0.395459 0.403907 0.752569
O O15 0.387473 0.310763 0.808059
O O16 0.000000 0.870047 0.788490
O O17 0.500000 0.033745 0.849482
O O18 0.405713 0.250000 0.981848
#
# Coordination Sequence:
#
# PCOD9537242 Si02
#       7
#    16  16  16  16  16  16  16
#     4   9  17  30  51  77 101 127 161 202 251 307
#     4   9  19  34  51  73 101 133 170 214 259 300
#     4  10  20  33  51  74 101 137 174 210 258 311
#     4   9  17  31  52  76 105 132 163 211 261 308
#     4  10  21  35  50  73 104 135 170 213 258 302
#     4   9  17  31  53  77 100 132 172 209 251 309
#     4   9  18  33  53  75  99 132 174 212 252 307
#
# _framework density 23.731012
#
# number of rings (size 3 to 8) (size 9 to 14) (size 15 to 20)
#    0.000    2.714    0.000    1.286    0.000    5.714 
#    0.000    5.714    3.143    2.571    0.000    0.000 
#    0.000    0.000    0.000    0.000    0.000    0.000 
#
# Total GULP energy -312497.765743 kJ/mol
# GULP energy per Si atom -5580.317245 kJ/mol
# Density = 2.367700 g / cm^3
# Si number density = 23.731012 Si / 1000 Ang^3
#
#
#
# Elastic Constant Matrix: (Units=GPa)
#
#
# Indices 1 2 3 4 5 6 
#
# 1 49.2054 5.9010 -0.4434 -0.0001 -0.0001 0.0000
# 2 5.9010 114.3873 34.4351 -0.0001 0.0001 0.0000
# 3 -0.4434 34.4351 124.2492 -0.0005 -0.0014 0.0001
# 4 -0.0001 -0.0001 -0.0005 27.2569 0.0000 0.0000
# 5 -0.0001 0.0001 -0.0014 0.0000 -52.6797 0.0003
# 6 0.0000 0.0000 0.0001 0.0000 0.0003 1.4041
#
#
#
# Elastic Compliance Matrix: (Units=1/GPa)
#
#
# Indices 1 2 3 4 5 6 
#
# 1 0.020468 -0.001176 0.000399 0.000000 0.000000 0.000000
# 2 -0.001176 0.009606 -0.002666 0.000000 0.000000 0.000000
# 3 0.000399 -0.002666 0.008789 0.000000 0.000000 -0.000001
# 4 0.000000 0.000000 0.000000 0.036688 0.000000 -0.000001
# 5 0.000000 0.000000 0.000000 0.000000 -0.018983 0.000004
# 6 0.000000 0.000000 -0.000001 -0.000001 0.000004 0.712184
#
#
# Mechanical properties :
#
#
# Convention : Reuss Voigt Hill
#
# Bulk Modulus (GPa) = 31.27427 40.84748 36.06087
# Shear Modulus (GPa) = 6.35892 11.72623 9.04258
#
# Velocity S-wave (km/s) = 1.63872 2.22532 1.95415
# Velocity P-wave (km/s) = 4.09729 4.88393 4.50780
#
# Compressibility (1/GPa) = 0.03197517
#
# Stress axis : x y z
#
# Youngs Moduli (GPa) = 48.85771 104.10631 113.78216
#
# Poissons Ratio (x) = 0.12243 -0.04539
# Poissons Ratio (y) = 0.05746 0.30338
# Poissons Ratio (z) = -0.01949 0.27758
#
# Static dielectric constant tensor:
#      x y z
#    x 1.968550 0.000000 0.000000 
#    y 0.000000 1.844570 0.000000 
#    z 0.000000 0.000000 1.931140 
# 
# From -- ./inp_files/24158.got.cif
#   From: 2010.05.17/outbox.cif.g08.bks.cpg/sg74_13_cif.got.tgz:24158.got - 2010.06.03 17:57:02.
