data_PCOD9537558
_publ_section_title
;
Structure prediction by ZEFSAII (Michael W. Deem and Ramdas Pophale) SiO2 
 PCOD9537558
Probable space group: I M M A
;
_chemical_formula_sum "Si O2"
_cell_formula_units_Z 116
_cell_length_a 23.678791
_cell_length_b 7.830932
_cell_length_c 29.646288
_cell_angle_alpha 90.000000
_cell_angle_beta 90.000000
_cell_angle_gamma 90.000000
_cell_volume 5497.222309
_symmetry_space_group_name_H-M "I M M A"
_symmetry_group_IT_number 74
_symmetry_cell_setting 'orthorhombic'
loop_
_space_group_symop_operation_xyz
x,y,z
-x,1/2-y,z
x,-y,-z
-x,1/2+y,-z
-x,-y,-z
x,1/2+y,-z
-x,y,z
x,1/2-y,z
1/2+x,1/2+y,1/2+z
1/2-x,-y,1/2+z
1/2+x,1/2-y,1/2-z
1/2-x,y,1/2-z
1/2-x,1/2-y,1/2-z
1/2+x,y,1/2-z
1/2-x,1/2+y,1/2+z
1/2+x,-y,1/2+z
loop_
_atom_site_type_symbol
_atom_site_label
_atom_site_fract_x
_atom_site_fract_y
_atom_site_fract_z
Si Si1 0.677555 0.048223 0.050327
Si Si2 0.156031 0.955270 0.646781
Si Si3 0.191190 0.048735 0.949326
Si Si4 0.767539 0.043838 0.800138
Si Si5 0.436377 0.543136 0.781772
Si Si6 0.079386 0.561050 0.910614
Si Si7 0.604621 0.451522 0.683282
Si Si8 0.500000 0.750000 0.438246
O O1 0.672367 0.250000 0.052205
O O2 0.649060 0.977204 0.095755
O O3 0.743874 0.004502 0.054788
O O4 0.658468 0.000000 0.000000
O O5 0.149929 0.750000 0.645692
O O6 0.110358 0.020152 0.682771
O O7 0.218683 0.993386 0.665206
O O8 0.188182 0.250000 0.942239
O O9 0.146495 0.959415 0.917388
O O10 0.173599 0.000000 0.000000
O O11 0.769656 0.250000 0.798802
O O12 0.750000 0.983364 0.750000
O O13 0.830537 0.985765 0.812467
O O14 0.500000 0.495934 0.795021
O O15 0.433211 0.750000 0.779883
O O16 0.422856 0.476340 0.731979
O O17 0.062753 0.750000 0.926476
O O18 0.071061 0.541217 0.856966
O O19 0.048578 0.403521 0.934790
O O20 0.605323 0.250000 0.671928
#
# Coordination Sequence:
#
# PCOD9537558 Si02
#       8
#    16  16  16  16  16  16  16   4
#     4  10  20  35  58  91 119 153 193 240 306 373
#     4  10  21  36  56  83 119 152 195 249 300 366
#     4  11  21  39  64  92 123 155 195 245 303 375
#     4  10  20  34  53  81 118 156 192 236 298 361
#     4  10  22  38  56  80 110 156 205 249 301 360
#     4  12  25  43  65  88 119 160 205 263 317 367
#     4  11  22  38  58  85 119 156 203 254 303 365
#     4  12  26  48  62  90 116 156 216 264 316 366
#
# _framework density 21.101566999999999
#
# number of rings (size 3 to 8) (size 9 to 14) (size 15 to 20)
#    0.000    1.379    2.759    3.931    0.966    4.966 
#    0.000    0.345    0.000    0.414    0.000    0.000 
#    0.000    0.000    0.000    0.000    0.000    0.552 
#
# Total GULP energy -323665.286679 kJ/mol
# GULP energy per Si atom -5580.435977 kJ/mol
# Density = 2.105354 g / cm^3
# Si number density = 21.101567 Si / 1000 Ang^3
#
#
#
# Elastic Constant Matrix: (Units=GPa)
#
#
# Indices 1 2 3 4 5 6 
#
# 1 41.8840 -12.7716 -9.4188 0.0000 0.0000 0.0000
# 2 -12.7716 63.0041 -10.8800 0.0000 0.0000 0.0000
# 3 -9.4188 -10.8800 80.6578 0.0000 0.0000 0.0000
# 4 0.0000 0.0000 0.0000 22.4827 0.0000 0.0000
# 5 0.0000 0.0000 0.0000 0.0000 -13.9110 0.0000
# 6 0.0000 0.0000 0.0000 0.0000 0.0000 7.5865
#
#
#
# Elastic Compliance Matrix: (Units=1/GPa)
#
#
# Indices 1 2 3 4 5 6 
#
# 1 0.026610 0.006072 0.003926 0.000000 0.000000 0.000000
# 2 0.006072 0.017636 0.003088 0.000000 0.000000 0.000000
# 3 0.003926 0.003088 0.013273 0.000000 0.000000 0.000000
# 4 0.000000 0.000000 0.000000 0.044479 0.000000 0.000000
# 5 0.000000 0.000000 0.000000 0.000000 -0.071885 0.000000
# 6 0.000000 0.000000 0.000000 0.000000 0.000000 0.131812
#
#
# Mechanical properties :
#
#
# Convention : Reuss Voigt Hill
#
# Bulk Modulus (GPa) = 11.94845 13.26720 12.60782
# Shear Modulus (GPa) = 30.55315 17.80607 24.17961
#
# Velocity S-wave (km/s) = 3.80927 2.90802 3.38874
# Velocity P-wave (km/s) = 5.00220 4.19242 4.61511
#
# Compressibility (1/GPa) = 0.08369287
#
# Stress axis : x y z
#
# Youngs Moduli (GPa) = 37.57976 56.70171 75.34020
#
# Poissons Ratio (x) = -0.34431 -0.29582
# Poissons Ratio (y) = -0.22819 -0.23265
# Poissons Ratio (z) = -0.14756 -0.17510
#
# Static dielectric constant tensor:
#      x y z
#    x 1.772210 0.000000 0.000000 
#    y 0.000000 1.767270 0.000000 
#    z 0.000000 0.000000 1.802660 
# 
# From -- ./inp_files/73753.got.cif
#   From: 2010.05.17/outbox.cif.g08.bks.cpg/sg74_37_cif.got.tgz:73753.got - 2010.06.03 17:57:02.
