data_PCOD9537677
_publ_section_title
;
Structure prediction by ZEFSAII (Michael W. Deem and Ramdas Pophale) SiO2 
 PCOD9537677
Probable space group: I M M A
;
_chemical_formula_sum "Si O2"
_cell_formula_units_Z 128
_cell_length_a 23.086353
_cell_length_b 24.082156
_cell_length_c 12.003962
_cell_angle_alpha 90.000000
_cell_angle_beta 90.000000
_cell_angle_gamma 90.000000
_cell_volume 6673.832603
_symmetry_space_group_name_H-M "I M M A"
_symmetry_group_IT_number 74
_symmetry_cell_setting 'orthorhombic'
loop_
_space_group_symop_operation_xyz
x,y,z
-x,1/2-y,z
x,-y,-z
-x,1/2+y,-z
-x,-y,-z
x,1/2+y,-z
-x,y,z
x,1/2-y,z
1/2+x,1/2+y,1/2+z
1/2-x,-y,1/2+z
1/2+x,1/2-y,1/2-z
1/2-x,y,1/2-z
1/2-x,1/2-y,1/2-z
1/2+x,y,1/2-z
1/2-x,1/2+y,1/2+z
1/2+x,-y,1/2+z
loop_
_atom_site_type_symbol
_atom_site_label
_atom_site_fract_x
_atom_site_fract_y
_atom_site_fract_z
Si Si1 0.642900 0.885779 0.973551
Si Si2 0.813122 0.689952 0.195160
Si Si3 0.376151 0.418043 0.782485
Si Si4 0.861400 0.879162 0.876110
Si Si5 0.684242 0.032888 0.211881
Si Si6 0.566217 0.439096 0.555986
Si Si7 0.431074 0.685048 0.800708
Si Si8 0.257779 0.186545 0.456880
O O1 0.668439 0.938356 0.905402
O O2 0.598856 0.852044 0.895622
O O3 0.698620 0.845099 0.988367
O O4 0.612273 0.904412 0.087881
O O5 0.839139 0.750000 0.225829
O O6 0.750000 0.686535 0.250000
O O7 0.849935 0.638613 0.234843
O O8 0.798647 0.689447 0.065161
O O9 0.330273 0.468159 0.787039
O O10 0.422153 0.437579 0.688967
O O11 0.854715 0.934057 0.800972
O O12 0.904517 0.837022 0.814869
O O13 0.798191 0.850046 0.876569
O O14 0.888136 0.899488 0.992556
O O15 0.750000 0.040485 0.250000
O O16 0.572868 0.500000 0.500000
O O17 0.500000 0.421313 0.534590
O O18 0.500000 0.678318 0.801911
O O19 0.417223 0.750000 0.816181
O O20 0.246537 0.250000 0.419069
#
# Coordination Sequence:
#
# PCOD9537677 Si02
#       8
#    16  16  16  16  16  16  16  16
#     4  11  24  39  60  95 129 169 211 259 315 386
#     4  10  20  34  55  86 120 161 198 231 299 381
#     4  12  23  40  62  90 127 168 207 258 318 377
#     4  11  21  40  65  94 124 160 209 268 317 385
#     4  11  23  38  59  92 131 165 205 254 316 383
#     4  11  24  43  66  91 123 166 220 272 325 385
#     4  10  23  43  66  89 121 170 220 268 318 368
#     4  11  21  35  59  93 129 164 199 251 315 384
#
# _framework density 19.179385
#
# number of rings (size 3 to 8) (size 9 to 14) (size 15 to 20)
#    0.000    1.125    5.000    1.875    0.000    1.000 
#    2.250    1.875    0.000    3.375    0.000    0.000 
#    0.000    0.000    0.000    0.000    0.000    0.000 
#
# Total GULP energy -357024.272982 kJ/mol
# GULP energy per Si atom -5578.504265 kJ/mol
# Density = 1.913573 g / cm^3
# Si number density = 19.179385 Si / 1000 Ang^3
#
#
#
# Elastic Constant Matrix: (Units=GPa)
#
#
# Indices 1 2 3 4 5 6 
#
# 1 49.8441 21.2997 11.9739 0.0000 0.0000 0.0000
# 2 21.2997 106.0658 18.5055 0.0000 0.0000 0.0000
# 3 11.9739 18.5055 88.0581 0.0000 0.0000 0.0000
# 4 0.0000 0.0000 0.0000 23.5760 0.0000 0.0000
# 5 0.0000 0.0000 0.0000 0.0000 20.4402 0.0000
# 6 0.0000 0.0000 0.0000 0.0000 0.0000 24.1968
#
#
#
# Elastic Compliance Matrix: (Units=1/GPa)
#
#
# Indices 1 2 3 4 5 6 
#
# 1 0.022340 -0.004107 -0.002175 0.000000 0.000000 0.000000
# 2 -0.004107 0.010542 -0.001657 0.000000 0.000000 0.000000
# 3 -0.002175 -0.001657 0.012000 0.000000 0.000000 0.000000
# 4 0.000000 0.000000 0.000000 0.042416 0.000000 0.000000
# 5 0.000000 0.000000 0.000000 0.000000 0.048923 0.000000
# 6 0.000000 0.000000 0.000000 0.000000 0.000000 0.041328
#
#
# Mechanical properties :
#
#
# Convention : Reuss Voigt Hill
#
# Bulk Modulus (GPa) = 34.47676 38.61401 36.54539
# Shear Modulus (GPa) = 24.61912 26.45518 25.53715
#
# Velocity S-wave (km/s) = 3.58666 3.71800 3.65292
# Velocity P-wave (km/s) = 5.93019 6.21354 6.07352
#
# Compressibility (1/GPa) = 0.02900504
#
# Stress axis : x y z
#
# Youngs Moduli (GPa) = 44.76289 94.85937 83.33296
#
# Poissons Ratio (x) = 0.38957 0.18122
# Poissons Ratio (y) = 0.18383 0.13808
# Poissons Ratio (z) = 0.09734 0.15718
#
# Static dielectric constant tensor:
#      x y z
#    x 1.629340 0.000000 0.000000 
#    y 0.000000 1.672850 0.000000 
#    z 0.000000 0.000000 1.721170 
# 
# From -- ./inp_files/25590.got.cif
#   From: 2010.05.17/outbox.cif.g08.bks.cpg/sg74_13_cif.got.tgz:25590.got - 2010.06.03 17:57:02.
