data_PCOD9537787
_publ_section_title
;
Structure prediction by ZEFSAII (Michael W. Deem and Ramdas Pophale) SiO2 
 PCOD9537787
Probable space group: I M M A
;
_chemical_formula_sum "Si O2"
_cell_formula_units_Z 104
_cell_length_a 8.719723
_cell_length_b 21.631334
_cell_length_c 28.636789
_cell_angle_alpha 90.000000
_cell_angle_beta 90.000000
_cell_angle_gamma 90.000000
_cell_volume 5401.449394
_symmetry_space_group_name_H-M "I M M A"
_symmetry_group_IT_number 74
_symmetry_cell_setting 'orthorhombic'
loop_
_space_group_symop_operation_xyz
x,y,z
-x,1/2-y,z
x,-y,-z
-x,1/2+y,-z
-x,-y,-z
x,1/2+y,-z
-x,y,z
x,1/2-y,z
1/2+x,1/2+y,1/2+z
1/2-x,-y,1/2+z
1/2+x,1/2-y,1/2-z
1/2-x,y,1/2-z
1/2-x,1/2-y,1/2-z
1/2+x,y,1/2-z
1/2-x,1/2+y,1/2+z
1/2+x,-y,1/2+z
loop_
_atom_site_type_symbol
_atom_site_label
_atom_site_fract_x
_atom_site_fract_y
_atom_site_fract_z
Si Si1 0.817048 0.923652 0.799772
Si Si2 0.815290 0.320854 0.359529
Si Si3 0.316747 0.250000 0.802308
Si Si4 0.815599 0.408234 0.446871
Si Si5 0.683753 0.652381 0.373932
Si Si6 0.684172 0.818122 0.026859
Si Si7 0.684389 0.989753 0.386166
O O1 0.750000 0.941242 0.750000
O O2 0.755955 0.857049 0.816069
O O3 0.000000 0.923174 0.797760
O O4 0.768542 0.970856 0.840625
O O5 0.766051 0.250000 0.362707
O O6 0.773539 0.359865 0.405685
O O7 0.000000 0.322365 0.355941
O O8 0.500000 0.250000 0.800515
O O9 0.250000 0.250000 0.750000
O O10 0.258868 0.190692 0.831923
O O11 0.764084 0.374995 0.494424
O O12 0.750317 0.474270 0.431091
O O13 0.000000 0.412888 0.448396
O O14 0.500000 0.655640 0.368860
O O15 0.735173 0.680229 0.423351
O O16 0.731956 0.580655 0.377891
O O17 0.500000 0.823478 0.033220
O O18 0.710861 0.750000 0.004804
O O19 0.500000 0.991120 0.389623
#
# Coordination Sequence:
#
# PCOD9537787 Si02
#       7
#    16  16   8  16  16  16  16
#     4  10  20  35  53  74 102 137 180 229 283 337
#     4   9  17  31  51  75 105 142 186 233 279 327
#     4  12  26  46  70  96 124 154 192 242 299 360
#     4   9  18  33  55  83 114 153 198 240 284 338
#     4  11  23  41  63  89 120 153 192 236 289 348
#     4  10  20  35  57  86 121 158 198 243 290 342
#     4   9  21  39  57  80 114 151 189 239 291 346
#
# _framework density 19.254090999999999
#
# number of rings (size 3 to 8) (size 9 to 14) (size 15 to 20)
#    0.000    2.154    0.769    2.077    0.000    6.154 
#    0.000    4.615    0.000    2.769    0.000    0.000 
#    0.000    0.000    0.000    0.000    0.000    0.000 
#
# Total GULP energy -290245.886510 kJ/mol
# GULP energy per Si atom -5581.651664 kJ/mol
# Density = 1.921027 g / cm^3
# Si number density = 19.254091 Si / 1000 Ang^3
#
#
#
# Elastic Constant Matrix: (Units=GPa)
#
#
# Indices 1 2 3 4 5 6 
#
# 1 35.5198 38.3212 33.0321 0.0000 0.0000 0.0000
# 2 38.3212 154.5403 55.6024 0.0000 0.0000 0.0000
# 3 33.0321 55.6024 117.7571 0.0000 0.0000 0.0000
# 4 0.0000 0.0000 0.0000 10.3988 0.0000 0.0000
# 5 0.0000 0.0000 0.0000 0.0000 28.0445 0.0000
# 6 0.0000 0.0000 0.0000 0.0000 0.0000 28.4784
#
#
#
# Elastic Compliance Matrix: (Units=1/GPa)
#
#
# Indices 1 2 3 4 5 6 
#
# 1 0.044987 -0.007969 -0.008857 0.000000 0.000000 0.000000
# 2 -0.007969 0.009207 -0.002112 0.000000 0.000000 0.000000
# 3 -0.008857 -0.002112 0.011974 0.000000 0.000000 0.000000
# 4 0.000000 0.000000 0.000000 0.096165 0.000000 0.000000
# 5 0.000000 0.000000 0.000000 0.000000 0.035658 0.000000
# 6 0.000000 0.000000 0.000000 0.000000 0.000000 0.035114
#
#
# Mechanical properties :
#
#
# Convention : Reuss Voigt Hill
#
# Bulk Modulus (GPa) = 35.34486 62.41430 48.87958
# Shear Modulus (GPa) = 17.83106 25.44178 21.63642
#
# Velocity S-wave (km/s) = 3.04648 3.63901 3.35585
# Velocity P-wave (km/s) = 5.54722 7.08117 6.36061
#
# Compressibility (1/GPa) = 0.02829266
#
# Stress axis : x y z
#
# Youngs Moduli (GPa) = 22.22865 108.61718 83.51697
#
# Poissons Ratio (x) = 0.86555 0.73968
# Poissons Ratio (y) = 0.17714 0.17638
# Poissons Ratio (z) = 0.19687 0.22938
#
# Static dielectric constant tensor:
#      x y z
#    x 1.646570 0.000000 0.000000 
#    y 0.000000 1.699970 0.000000 
#    z 0.000000 0.000000 1.658200 
# 
# From -- ./inp_files/64422.got.cif
#   From: 2010.05.17/outbox.cif.g08.bks.cpg/sg74_33_cif.got.tgz:64422.got - 2010.06.03 17:57:02.
