data_PCOD9537082
_publ_section_title
;
Structure prediction by ZEFSAII (Michael W. Deem and Ramdas Pophale) SiO2 
 PCOD9537082
Probable space group: I M M A
;
_chemical_formula_sum "Si O2"
_cell_formula_units_Z 112
_cell_length_a 27.934981
_cell_length_b 14.134760
_cell_length_c 14.886216
_cell_angle_alpha 90.000000
_cell_angle_beta 90.000000
_cell_angle_gamma 90.000000
_cell_volume 5877.885684
_symmetry_space_group_name_H-M "I M M A"
_symmetry_group_IT_number 74
_symmetry_cell_setting 'orthorhombic'
loop_
_space_group_symop_operation_xyz
x,y,z
-x,1/2-y,z
x,-y,-z
-x,1/2+y,-z
-x,-y,-z
x,1/2+y,-z
-x,y,z
x,1/2-y,z
1/2+x,1/2+y,1/2+z
1/2-x,-y,1/2+z
1/2+x,1/2-y,1/2-z
1/2-x,y,1/2-z
1/2-x,1/2-y,1/2-z
1/2+x,y,1/2-z
1/2-x,1/2+y,1/2+z
1/2+x,-y,1/2+z
loop_
_atom_site_type_symbol
_atom_site_label
_atom_site_fract_x
_atom_site_fract_y
_atom_site_fract_z
Si Si1 0.290530 0.138769 0.020841
Si Si2 0.446521 0.141407 0.166302
Si Si3 0.057574 0.854037 0.941537
Si Si4 0.402289 0.357247 0.976626
Si Si5 0.778891 0.972948 0.343254
Si Si6 0.890375 0.965320 0.303399
Si Si7 0.057344 0.060801 0.867811
O O1 0.281674 0.250000 0.033561
O O2 0.348380 0.123882 0.013249
O O3 0.269871 0.101896 0.924921
O O4 0.273774 0.072995 0.103460
O O5 0.500000 0.109530 0.190463
O O6 0.441211 0.250000 0.194458
O O7 0.407004 0.073283 0.205837
O O8 0.438483 0.138649 0.059193
O O9 0.076258 0.750000 0.914251
O O10 0.000000 0.850920 0.930749
O O11 0.067129 0.873258 0.046705
O O12 0.071508 0.952579 0.894414
O O13 0.401573 0.250000 0.941224
O O14 0.412714 0.427470 0.896172
O O15 0.750000 0.966571 0.250000
O O16 0.833989 0.958298 0.314522
O O17 0.912801 0.911622 0.219294
O O18 0.000000 0.062621 0.851866
#
# Coordination Sequence:
#
# PCOD9537082 Si02
#       7
#    16  16  16  16  16  16  16
#     4   9  18  37  60  78 106 145 180 221 276 337
#     4  10  20  32  48  74 108 143 177 211 248 300
#     4   8  15  31  50  64  89 131 170 205 249 303
#     4   9  18  33  51  72 101 141 181 206 244 312
#     4  10  21  36  57  84 107 137 185 230 273 329
#     4  11  20  32  51  75 106 138 166 214 268 307
#     4   9  18  30  47  73  96 123 169 210 251 313
#
# _framework density 19.054472000000001
#
# number of rings (size 3 to 8) (size 9 to 14) (size 15 to 20)
#    0.000    2.571    1.429    1.714    0.000    3.429 
#    0.000    4.286    0.000    1.714    0.000    0.000 
#    0.000    0.000    0.000    0.000    0.000    0.000 
#
# Total GULP energy -312114.213412 kJ/mol
# GULP energy per Si atom -5573.468097 kJ/mol
# Density = 1.901110 g / cm^3
# Si number density = 19.054472 Si / 1000 Ang^3
#
#
#
# Elastic Constant Matrix: (Units=GPa)
#
#
# Indices 1 2 3 4 5 6 
#
# 1 24.7902 1.6719 24.3896 0.0000 0.0000 0.0000
# 2 1.6719 64.8497 8.4766 0.0000 0.0000 0.0000
# 3 24.3896 8.4766 104.5979 0.0000 0.0000 0.0000
# 4 0.0000 0.0000 0.0000 3.1109 0.0000 0.0000
# 5 0.0000 0.0000 0.0000 0.0000 30.9035 0.0000
# 6 0.0000 0.0000 0.0000 0.0000 0.0000 12.8862
#
#
#
# Elastic Compliance Matrix: (Units=1/GPa)
#
#
# Indices 1 2 3 4 5 6 
#
# 1 0.052351 0.000249 -0.012227 0.000000 0.000000 0.000000
# 2 0.000249 0.015587 -0.001321 0.000000 0.000000 0.000000
# 3 -0.012227 -0.001321 0.012519 0.000000 0.000000 0.000000
# 4 0.000000 0.000000 0.000000 0.321447 0.000000 0.000000
# 5 0.000000 0.000000 0.000000 0.000000 0.032359 0.000000
# 6 0.000000 0.000000 0.000000 0.000000 0.000000 0.077602
#
#
# Mechanical properties :
#
#
# Convention : Reuss Voigt Hill
#
# Bulk Modulus (GPa) = 18.56771 29.25712 23.91242
# Shear Modulus (GPa) = 8.98607 20.02677 14.50642
#
# Velocity S-wave (km/s) = 2.17399 3.24547 2.76218
# Velocity P-wave (km/s) = 4.00841 5.42512 4.76966
#
# Compressibility (1/GPa) = 0.05385694
#
# Stress axis : x y z
#
# Youngs Moduli (GPa) = 19.10175 64.15787 79.88145
#
# Poissons Ratio (x) = -0.01595 0.97672
# Poissons Ratio (y) = -0.00475 0.10553
# Poissons Ratio (z) = 0.23356 0.08476
#
# Static dielectric constant tensor:
#      x y z
#    x 1.626910 0.000000 0.000000 
#    y 0.000000 1.709810 0.000000 
#    z 0.000000 0.000000 1.702940 
# 
# From -- ./inp_files/33164.got.cif
#   From: 2010.05.17/outbox.cif.g08.bks.cpg/sg74_17_cif.got.tgz:33164.got - 2010.06.03 17:57:02.
