data_PCOD9537710
_publ_section_title
;
Structure prediction by ZEFSAII (Michael W. Deem and Ramdas Pophale) SiO2 
 PCOD9537710
Probable space group: I M M A
;
_chemical_formula_sum "Si O2"
_cell_formula_units_Z 88
_cell_length_a 18.417365
_cell_length_b 15.979400
_cell_length_c 14.914839
_cell_angle_alpha 90.000000
_cell_angle_beta 90.000000
_cell_angle_gamma 90.000000
_cell_volume 4389.413885
_symmetry_space_group_name_H-M "I M M A"
_symmetry_group_IT_number 74
_symmetry_cell_setting 'orthorhombic'
loop_
_space_group_symop_operation_xyz
x,y,z
-x,1/2-y,z
x,-y,-z
-x,1/2+y,-z
-x,-y,-z
x,1/2+y,-z
-x,y,z
x,1/2-y,z
1/2+x,1/2+y,1/2+z
1/2-x,-y,1/2+z
1/2+x,1/2-y,1/2-z
1/2-x,y,1/2-z
1/2-x,1/2-y,1/2-z
1/2+x,y,1/2-z
1/2-x,1/2+y,1/2+z
1/2+x,-y,1/2+z
loop_
_atom_site_type_symbol
_atom_site_label
_atom_site_fract_x
_atom_site_fract_y
_atom_site_fract_z
Si Si1 0.588460 0.908617 0.035518
Si Si2 0.586707 0.841900 0.422264
Si Si3 0.911928 0.250000 0.416436
Si Si4 0.829943 0.500000 0.000000
Si Si5 0.683573 0.430189 0.317631
Si Si6 0.164926 0.750000 0.775680
Si Si7 0.413427 0.075695 0.761241
O O1 0.500000 0.906373 0.034557
O O2 0.611486 0.899495 0.139165
O O3 0.611895 0.832704 0.971438
O O4 0.610293 0.000000 0.000000
O O5 0.500000 0.844983 0.435199
O O6 0.613324 0.750000 0.449526
O O7 0.621924 0.920247 0.471867
O O8 0.600516 0.856249 0.316023
O O9 0.879490 0.250000 0.317095
O O10 0.000000 0.250000 0.411569
O O11 0.789915 0.530451 0.911083
O O12 0.750000 0.426916 0.250000
O O13 0.652026 0.336709 0.327337
O O14 0.624211 0.491425 0.273978
O O15 0.250000 0.750000 0.750000
O O16 0.500000 0.062254 0.765490
#
# Coordination Sequence:
#
# PCOD9537710 Si02
#       7
#    16  16   8   8  16   8  16
#     4   9  17  29  49  81 116 148 186 233 281 336
#     4   9  18  32  56  87 119 151 187 235 293 345
#     4  10  20  34  56  87 119 155 199 237 287 351
#     4  10  21  38  62  82 113 152 196 244 284 348
#     4  10  22  41  60  85 116 154 199 238 293 351
#     4  10  22  40  56  77 117 154 193 243 288 346
#     4   9  18  34  57  85 120 153 188 238 290 342
#
# _framework density 20.048234999999998
#
# number of rings (size 3 to 8) (size 9 to 14) (size 15 to 20)
#    0.000    2.545    0.000    1.364    2.545    2.909 
#    8.182    0.000    0.000    8.727    0.000    0.000 
#    0.000    0.000    0.000    0.000    0.000    0.000 
#
# Total GULP energy -245473.260989 kJ/mol
# GULP energy per Si atom -5578.937750 kJ/mol
# Density = 2.000260 g / cm^3
# Si number density = 20.048235 Si / 1000 Ang^3
#
#
#
# Elastic Constant Matrix: (Units=GPa)
#
#
# Indices 1 2 3 4 5 6 
#
# 1 15.9998 22.5229 19.3759 0.0000 0.0000 0.0000
# 2 22.5229 160.5338 49.5167 0.0000 0.0000 0.0000
# 3 19.3759 49.5167 123.3016 0.0000 0.0000 0.0000
# 4 0.0000 0.0000 0.0000 22.5817 0.0000 0.0000
# 5 0.0000 0.0000 0.0000 0.0000 22.5514 0.0000
# 6 0.0000 0.0000 0.0000 0.0000 0.0000 18.6261
#
#
#
# Elastic Compliance Matrix: (Units=1/GPa)
#
#
# Indices 1 2 3 4 5 6 
#
# 1 0.087643 -0.009186 -0.010083 0.000000 0.000000 0.000000
# 2 -0.009186 0.008073 -0.001798 0.000000 0.000000 0.000000
# 3 -0.010083 -0.001798 0.010417 0.000000 0.000000 0.000000
# 4 0.000000 0.000000 0.000000 0.044284 0.000000 0.000000
# 5 0.000000 0.000000 0.000000 0.000000 0.044343 0.000000
# 6 0.000000 0.000000 0.000000 0.000000 0.000000 0.053688
#
#
# Mechanical properties :
#
#
# Convention : Reuss Voigt Hill
#
# Bulk Modulus (GPa) = 15.62577 53.62958 34.62767
# Shear Modulus (GPa) = 16.02999 26.64649 21.33824
#
# Velocity S-wave (km/s) = 2.83074 3.64966 3.26597
# Velocity P-wave (km/s) = 4.30059 6.67596 5.61531
#
# Compressibility (1/GPa) = 0.06399685
#
# Stress axis : x y z
#
# Youngs Moduli (GPa) = 11.40995 123.87354 95.99752
#
# Poissons Ratio (x) = 1.13791 0.96797
# Poissons Ratio (y) = 0.10481 0.17264
# Poissons Ratio (z) = 0.11505 0.22278
#
# Static dielectric constant tensor:
#      x y z
#    x 1.685600 0.000000 0.000000 
#    y 0.000000 1.714950 0.000000 
#    z 0.000000 0.000000 1.721900 
# 
# From -- ./inp_files/32248.got.cif
#   From: 2010.05.17/outbox.cif.g08.bks.cpg/sg74_17_cif.got.tgz:32248.got - 2010.06.03 17:57:02.
