data_PCOD9537784
_publ_section_title
;
Structure prediction by ZEFSAII (Michael W. Deem and Ramdas Pophale) SiO2 
 PCOD9537784
Probable space group: I M M A
;
_chemical_formula_sum "Si O2"
_cell_formula_units_Z 96
_cell_length_a 26.336247
_cell_length_b 7.715146
_cell_length_c 24.201979
_cell_angle_alpha 90.000000
_cell_angle_beta 90.000000
_cell_angle_gamma 90.000000
_cell_volume 4917.551484
_symmetry_space_group_name_H-M "I M M A"
_symmetry_group_IT_number 74
_symmetry_cell_setting 'orthorhombic'
loop_
_space_group_symop_operation_xyz
x,y,z
-x,1/2-y,z
x,-y,-z
-x,1/2+y,-z
-x,-y,-z
x,1/2+y,-z
-x,y,z
x,1/2-y,z
1/2+x,1/2+y,1/2+z
1/2-x,-y,1/2+z
1/2+x,1/2-y,1/2-z
1/2-x,y,1/2-z
1/2-x,1/2-y,1/2-z
1/2+x,y,1/2-z
1/2-x,1/2+y,1/2+z
1/2+x,-y,1/2+z
loop_
_atom_site_type_symbol
_atom_site_label
_atom_site_fract_x
_atom_site_fract_y
_atom_site_fract_z
Si Si1 0.656098 0.541768 0.373691
Si Si2 0.943105 0.958686 0.064179
Si Si3 0.057679 0.958889 0.562565
Si Si4 0.257238 0.457143 0.935495
Si Si5 0.308287 0.540981 0.748262
Si Si6 0.646730 0.454106 0.138451
O O1 0.655343 0.750000 0.379710
O O2 0.602856 0.475339 0.398031
O O3 0.704443 0.477620 0.409007
O O4 0.666034 0.501749 0.309815
O O5 0.944527 0.750000 0.069341
O O6 0.000000 0.024159 0.077382
O O7 0.932711 0.000000 0.000000
O O8 0.056349 0.750000 0.566776
O O9 0.097965 0.027918 0.606709
O O10 0.000000 0.023579 0.569894
O O11 0.074108 0.000000 0.500000
O O12 0.258775 0.250000 0.929318
O O13 0.304601 0.529455 0.901278
O O14 0.260277 0.500000 0.000000
O O15 0.305979 0.750000 0.752679
O O16 0.250000 0.477170 0.750000
O O17 0.338368 0.473189 0.801722
O O18 0.636551 0.250000 0.146471
#
# Coordination Sequence:
#
# PCOD9537784 Si02
#       6
#    16  16  16  16  16  16
#     4  10  21  35  52  76 104 136 173 212 256 306
#     4   9  18  34  55  78 105 137 173 214 261 311
#     4   9  18  33  53  75 100 130 164 204 250 299
#     4  11  22  33  49  75 105 133 165 207 256 306
#     4  10  20  35  54  75 102 138 175 212 254 301
#     4  10  20  35  53  74 101 133 170 209 254 301
#
# _framework density 19.521912
#
# number of rings (size 3 to 8) (size 9 to 14) (size 15 to 20)
#    0.000    2.167    1.667    1.500    0.000    4.333 
#    0.000    0.833    0.000    1.000    0.000    0.000 
#    0.000    0.000    0.000    0.000    0.000    0.000 
#
# Total GULP energy -267980.289755 kJ/mol
# GULP energy per Si atom -5582.922703 kJ/mol
# Density = 1.947748 g / cm^3
# Si number density = 19.521912 Si / 1000 Ang^3
#
#
#
# Elastic Constant Matrix: (Units=GPa)
#
#
# Indices 1 2 3 4 5 6 
#
# 1 126.9724 -6.0743 75.7966 0.0000 0.0000 0.0000
# 2 -6.0743 28.6088 -17.5763 0.0000 0.0000 0.0000
# 3 75.7966 -17.5763 132.2115 0.0000 0.0000 0.0000
# 4 0.0000 0.0000 0.0000 25.8423 0.0000 0.0000
# 5 0.0000 0.0000 0.0000 0.0000 -20.1244 0.0000
# 6 0.0000 0.0000 0.0000 0.0000 0.0000 -26.4108
#
#
#
# Elastic Compliance Matrix: (Units=1/GPa)
#
#
# Indices 1 2 3 4 5 6 
#
# 1 0.012061 -0.001837 -0.007159 0.000000 0.000000 0.000000
# 2 -0.001837 0.038343 0.006151 0.000000 0.000000 0.000000
# 3 -0.007159 0.006151 0.012486 0.000000 0.000000 0.000000
# 4 0.000000 0.000000 0.000000 0.038696 0.000000 0.000000
# 5 0.000000 0.000000 0.000000 0.000000 -0.049691 0.000000
# 6 0.000000 0.000000 0.000000 0.000000 0.000000 -0.037863
#
#
# Mechanical properties :
#
#
# Convention : Reuss Voigt Hill
#
# Bulk Modulus (GPa) = 17.48297 43.56495 30.52396
# Shear Modulus (GPa) = 128.90101 11.57122 70.23612
#
# Velocity S-wave (km/s) = 8.13463 2.43725 6.00468
# Velocity P-wave (km/s) = 9.85924 5.50314 7.98402
#
# Compressibility (1/GPa) = 0.05719850
#
# Stress axis : x y z
#
# Youngs Moduli (GPa) = 82.90870 26.08044 80.09228
#
# Poissons Ratio (x) = 0.04792 0.57339
# Poissons Ratio (y) = 0.15233 -0.49262
# Poissons Ratio (z) = 0.59355 -0.16041
#
# Static dielectric constant tensor:
#      x y z
#    x 1.696640 0.000000 0.000000 
#    y 0.000000 1.735200 0.000000 
#    z 0.000000 0.000000 1.647800 
# 
# From -- ./inp_files/49060.got.cif
#   From: 2010.05.17/outbox.cif.g08.bks.cpg/sg74_25_cif.got.tgz:49060.got - 2010.06.03 17:57:02.
