data_PCOD9537717
_publ_section_title
;
Structure prediction by ZEFSAII (Michael W. Deem and Ramdas Pophale) SiO2 
 PCOD9537717
Probable space group: I M M A
;
_chemical_formula_sum "Si O2"
_cell_formula_units_Z 84
_cell_length_a 15.741780
_cell_length_b 20.094541
_cell_length_c 13.873313
_cell_angle_alpha 90.000000
_cell_angle_beta 90.000000
_cell_angle_gamma 90.000000
_cell_volume 4388.459692
_symmetry_space_group_name_H-M "I M M A"
_symmetry_group_IT_number 74
_symmetry_cell_setting 'orthorhombic'
loop_
_space_group_symop_operation_xyz
x,y,z
-x,1/2-y,z
x,-y,-z
-x,1/2+y,-z
-x,-y,-z
x,1/2+y,-z
-x,y,z
x,1/2-y,z
1/2+x,1/2+y,1/2+z
1/2-x,-y,1/2+z
1/2+x,1/2-y,1/2-z
1/2-x,y,1/2-z
1/2-x,1/2-y,1/2-z
1/2+x,y,1/2-z
1/2-x,1/2+y,1/2+z
1/2+x,-y,1/2+z
loop_
_atom_site_type_symbol
_atom_site_label
_atom_site_fract_x
_atom_site_fract_y
_atom_site_fract_z
Si Si1 0.653699 0.878730 0.090489
Si Si2 0.350019 0.750000 0.222884
Si Si3 0.000000 0.369902 0.035963
Si Si4 0.000000 0.913754 0.760160
Si Si5 0.500000 0.750000 0.382373
Si Si6 0.155763 0.987736 0.245134
Si Si7 0.827120 0.571387 0.042077
Si Si8 0.500000 0.078745 0.034087
O O1 0.637193 0.815376 0.157586
O O2 0.646594 0.943878 0.159132
O O3 0.747181 0.879076 0.042447
O O4 0.582809 0.888320 0.011350
O O5 0.250000 0.750000 0.250000
O O6 0.416631 0.750000 0.312385
O O7 0.000000 0.360400 0.152480
O O8 0.000000 0.311302 0.957171
O O9 0.912764 0.408715 0.012205
O O10 0.000000 0.902083 0.646194
O O11 0.916744 0.959350 0.771864
O O12 0.250000 0.018353 0.250000
O O13 0.152485 0.938086 0.154705
O O14 0.798475 0.500000 0.000000
O O15 0.500000 0.000000 0.000000
#
# Coordination Sequence:
#
# PCOD9537717 Si02
#       8
#    16   8   8   8   4  16  16   8
#     4  11  23  39  63  92 127 164 209 257 321 379
#     4  12  24  46  67  97 129 167 210 264 315 392
#     4  12  24  40  59  91 123 169 212 260 312 374
#     4  12  23  37  57  86 122 157 206 256 309 364
#     4  12  26  44  70  90 130 172 218 258 318 386
#     4  10  20  34  56  90 122 153 195 254 313 372
#     4  11  21  36  61  93 127 159 204 263 323 384
#     4  12  23  39  61  90 125 166 212 262 318 371
#
# _framework density 19.141113000000001
#
# number of rings (size 3 to 8) (size 9 to 14) (size 15 to 20)
#    0.000    0.762    3.810    6.000    2.667    0.000 
#    0.000    0.952    0.000    0.000    0.000    4.667 
#    0.000    0.000    0.000    0.000    0.000    0.000 
#
# Total GULP energy -234407.647928 kJ/mol
# GULP energy per Si atom -5581.134474 kJ/mol
# Density = 1.909755 g / cm^3
# Si number density = 19.141113 Si / 1000 Ang^3
#
#
#
# Elastic Constant Matrix: (Units=GPa)
#
#
# Indices 1 2 3 4 5 6 
#
# 1 129.8777 35.4869 86.3853 0.0000 0.0000 0.0000
# 2 35.4869 66.1836 32.3975 0.0000 0.0000 0.0000
# 3 86.3853 32.3975 145.6378 0.0000 0.0000 0.0000
# 4 0.0000 0.0000 0.0000 35.8259 0.0000 0.0000
# 5 0.0000 0.0000 0.0000 0.0000 10.4404 0.0000
# 6 0.0000 0.0000 0.0000 0.0000 0.0000 11.4181
#
#
#
# Elastic Compliance Matrix: (Units=1/GPa)
#
#
# Indices 1 2 3 4 5 6 
#
# 1 0.013486 -0.003721 -0.007172 0.000000 0.000000 0.000000
# 2 -0.003721 0.017982 -0.001793 0.000000 0.000000 0.000000
# 3 -0.007172 -0.001793 0.011519 0.000000 0.000000 0.000000
# 4 0.000000 0.000000 0.000000 0.027913 0.000000 0.000000
# 5 0.000000 0.000000 0.000000 0.000000 0.095781 0.000000
# 6 0.000000 0.000000 0.000000 0.000000 0.000000 0.087580
#
#
# Mechanical properties :
#
#
# Convention : Reuss Voigt Hill
#
# Bulk Modulus (GPa) = 56.76515 72.24873 64.50694
# Shear Modulus (GPa) = 17.51279 24.03218 20.77248
#
# Velocity S-wave (km/s) = 3.02806 3.54719 3.29785
# Velocity P-wave (km/s) = 6.47658 7.38945 6.94802
#
# Compressibility (1/GPa) = 0.01761644
#
# Stress axis : x y z
#
# Youngs Moduli (GPa) = 74.14950 55.61040 86.81133
#
# Poissons Ratio (x) = 0.20690 0.62259
# Poissons Ratio (y) = 0.27588 0.15568
# Poissons Ratio (z) = 0.53178 0.09973
#
# Static dielectric constant tensor:
#      x y z
#    x 1.680000 0.000000 0.000000 
#    y 0.000000 1.691000 0.000000 
#    z 0.000000 0.000000 1.700370 
# 
# From -- ./inp_files/32289.got.cif
#   From: 2010.05.17/outbox.cif.g08.bks.cpg/sg74_17_cif.got.tgz:32289.got - 2010.06.03 17:57:02.
