data_PCOD9537341
_publ_section_title
;
Structure prediction by ZEFSAII (Michael W. Deem and Ramdas Pophale) SiO2 
 PCOD9537341
Probable space group: I M M A
;
_chemical_formula_sum "Si O2"
_cell_formula_units_Z 80
_cell_length_a 13.283457
_cell_length_b 7.389192
_cell_length_c 35.458249
_cell_angle_alpha 90.000000
_cell_angle_beta 90.000000
_cell_angle_gamma 90.000000
_cell_volume 3480.369476
_symmetry_space_group_name_H-M "I M M A"
_symmetry_group_IT_number 74
_symmetry_cell_setting 'orthorhombic'
loop_
_space_group_symop_operation_xyz
x,y,z
-x,1/2-y,z
x,-y,-z
-x,1/2+y,-z
-x,-y,-z
x,1/2+y,-z
-x,y,z
x,1/2-y,z
1/2+x,1/2+y,1/2+z
1/2-x,-y,1/2+z
1/2+x,1/2-y,1/2-z
1/2-x,y,1/2-z
1/2-x,1/2-y,1/2-z
1/2+x,y,1/2-z
1/2-x,1/2+y,1/2+z
1/2+x,-y,1/2+z
loop_
_atom_site_type_symbol
_atom_site_label
_atom_site_fract_x
_atom_site_fract_y
_atom_site_fract_z
Si Si1 0.500000 0.040659 0.684499
Si Si2 0.612278 0.531237 0.149482
Si Si3 0.282198 0.471446 0.708056
Si Si4 0.000000 0.969935 0.903346
Si Si5 0.389759 0.960467 0.938995
Si Si6 0.825885 0.465909 0.041678
O O1 0.500000 0.250000 0.696936
O O2 0.605504 0.963626 0.698827
O O3 0.500000 0.032992 0.639348
O O4 0.500000 0.478119 0.162746
O O5 0.615032 0.750000 0.148520
O O6 0.700989 0.469136 0.176863
O O7 0.622679 0.468441 0.106374
O O8 0.282400 0.250000 0.706624
O O9 0.250000 0.523536 0.750000
O O10 0.901474 0.032091 0.926227
O O11 0.000000 0.750000 0.903085
O O12 0.500000 0.039784 0.948174
O O13 0.393588 0.750000 0.950247
O O14 0.287527 0.041046 0.955620
O O15 0.818945 0.250000 0.046986
O O16 0.867094 0.500000 0.000000
#
# Coordination Sequence:
#
# PCOD9537341 Si02
#       6
#     8  16  16   8  16  16
#     4  10  20  33  53  78  99 130 172 206 243 293
#     4   9  17  29  48  72  95 125 166 207 245 288
#     4   9  18  30  47  73 103 129 159 203 251 294
#     4  10  21  37  55  74 102 134 166 204 250 297
#     4   9  18  33  51  71  98 131 165 200 244 297
#     4  10  21  35  52  75 101 132 166 203 250 297
#
# _framework density 22.986066999999998
#
# number of rings (size 3 to 8) (size 9 to 14) (size 15 to 20)
#    0.000    2.600    0.000    1.500    1.400    2.000 
#    0.000    0.000    0.000    2.400    0.000    0.000 
#    0.000    0.000    0.000    0.000    0.000    0.000 
#
# Total GULP energy -223529.867687 kJ/mol
# GULP energy per Si atom -5588.246692 kJ/mol
# Density = 2.293375 g / cm^3
# Si number density = 22.986067 Si / 1000 Ang^3
#
#
#
# Elastic Constant Matrix: (Units=GPa)
#
#
# Indices 1 2 3 4 5 6 
#
# 1 178.8083 7.5143 65.1993 0.0000 0.0000 0.0000
# 2 7.5143 82.4769 -14.8798 0.0000 0.0000 0.0000
# 3 65.1993 -14.8798 91.3598 0.0000 0.0000 0.0000
# 4 0.0000 0.0000 0.0000 13.7495 0.0000 0.0000
# 5 0.0000 0.0000 0.0000 0.0000 26.3850 0.0000
# 6 0.0000 0.0000 0.0000 0.0000 0.0000 -21.5435
#
#
#
# Elastic Compliance Matrix: (Units=1/GPa)
#
#
# Indices 1 2 3 4 5 6 
#
# 1 0.007802 -0.001767 -0.005856 0.000000 0.000000 0.000000
# 2 -0.001767 0.012892 0.003361 0.000000 0.000000 0.000000
# 3 -0.005856 0.003361 0.015672 0.000000 0.000000 0.000000
# 4 0.000000 0.000000 0.000000 0.072730 0.000000 0.000000
# 5 0.000000 0.000000 0.000000 0.000000 0.037900 0.000000
# 6 0.000000 0.000000 0.000000 0.000000 0.000000 -0.046418
#
#
# Mechanical properties :
#
#
# Convention : Reuss Voigt Hill
#
# Bulk Modulus (GPa) = 35.91707 52.03472 43.97590
# Shear Modulus (GPa) = 42.23551 23.37228 32.80389
#
# Velocity S-wave (km/s) = 4.29119 3.19219 3.78182
# Velocity P-wave (km/s) = 6.34128 6.02274 6.18407
#
# Compressibility (1/GPa) = 0.02784191
#
# Stress axis : x y z
#
# Youngs Moduli (GPa) = 128.17110 77.56762 63.80738
#
# Poissons Ratio (x) = 0.13708 0.37364
# Poissons Ratio (y) = 0.22652 -0.21445
# Poissons Ratio (z) = 0.75055 -0.26070
#
# Static dielectric constant tensor:
#      x y z
#    x 1.871080 0.000000 0.000000 
#    y 0.000000 1.874350 0.000000 
#    z 0.000000 0.000000 1.776710 
# 
# From -- ./inp_files/71543.got.cif
#   From: 2010.05.17/outbox.cif.g08.bks.cpg/sg74_36_cif.got.tgz:71543.got - 2010.06.03 17:57:02.
