data_PCOD9537760
_publ_section_title
;
Structure prediction by ZEFSAII (Michael W. Deem and Ramdas Pophale) SiO2 
 PCOD9537760
Probable space group: I M M A
;
_chemical_formula_sum "Si O2"
_cell_formula_units_Z 112
_cell_length_a 30.338042
_cell_length_b 14.977192
_cell_length_c 11.204851
_cell_angle_alpha 90.000000
_cell_angle_beta 90.000000
_cell_angle_gamma 90.000000
_cell_volume 5091.245406
_symmetry_space_group_name_H-M "I M M A"
_symmetry_group_IT_number 74
_symmetry_cell_setting 'orthorhombic'
loop_
_space_group_symop_operation_xyz
x,y,z
-x,1/2-y,z
x,-y,-z
-x,1/2+y,-z
-x,-y,-z
x,1/2+y,-z
-x,y,z
x,1/2-y,z
1/2+x,1/2+y,1/2+z
1/2-x,-y,1/2+z
1/2+x,1/2-y,1/2-z
1/2-x,y,1/2-z
1/2-x,1/2-y,1/2-z
1/2+x,y,1/2-z
1/2-x,1/2+y,1/2+z
1/2+x,-y,1/2+z
loop_
_atom_site_type_symbol
_atom_site_label
_atom_site_fract_x
_atom_site_fract_y
_atom_site_fract_z
Si Si1 0.774331 0.858944 0.127894
Si Si2 0.452569 0.407381 0.931026
Si Si3 0.047734 0.460957 0.843735
Si Si4 0.587010 0.650734 0.673132
Si Si5 0.771623 0.640385 0.622882
Si Si6 0.131491 0.350565 0.429815
Si Si7 0.629985 0.646100 0.438617
O O1 0.774102 0.750000 0.129690
O O2 0.750000 0.887894 0.250000
O O3 0.825323 0.887244 0.120729
O O4 0.753528 0.884251 0.999848
O O5 0.500000 0.359339 0.957645
O O6 0.451753 0.427562 0.791861
O O7 0.455478 0.500000 0.000000
O O8 0.404665 0.373411 0.970622
O O9 0.055367 0.567086 0.845356
O O10 0.088337 0.412286 0.904040
O O11 0.000000 0.437293 0.894604
O O12 0.567708 0.750000 0.651933
O O13 0.604230 0.646412 0.807300
O O14 0.628667 0.643579 0.582868
O O15 0.771364 0.750000 0.629559
O O16 0.750000 0.611396 0.750000
O O17 0.821559 0.604855 0.599893
O O18 0.144527 0.250000 0.459781
O O19 0.623624 0.750000 0.404186
#
# Coordination Sequence:
#
# PCOD9537760 Si02
#       7
#    16  16  16  16  16  16  16
#     4   9  18  33  55  85 122 164 206 251 306 369
#     4  10  21  39  58  81 117 158 199 249 311 366
#     4  11  24  41  63  88 122 166 208 257 316 375
#     4  10  21  39  62  90 120 159 207 257 311 371
#     4   9  17  31  55  88 123 158 201 251 307 371
#     4  10  20  34  61  93 120 157 206 253 307 374
#     4  10  22  39  62  90 126 164 205 257 313 373
#
# _framework density 21.998546999999999
#
# number of rings (size 3 to 8) (size 9 to 14) (size 15 to 20)
#    0.000    2.143    1.429    1.286    2.000    6.000 
#    0.000    4.286    0.000    7.714    0.000    0.000 
#    0.000    0.000    0.000    0.000    0.000    0.143 
#
# Total GULP energy -312149.576590 kJ/mol
# GULP energy per Si atom -5574.099582 kJ/mol
# Density = 2.194848 g / cm^3
# Si number density = 21.998547 Si / 1000 Ang^3
#
#
#
# Elastic Constant Matrix: (Units=GPa)
#
#
# Indices 1 2 3 4 5 6 
#
# 1 175.9327 41.5823 70.2990 0.0000 0.0000 0.0000
# 2 41.5823 48.1443 12.9931 0.0000 0.0000 0.0000
# 3 70.2990 12.9931 137.5060 0.0000 0.0000 0.0000
# 4 0.0000 0.0000 0.0000 14.8867 0.0000 0.0000
# 5 0.0000 0.0000 0.0000 0.0000 24.8277 0.0000
# 6 0.0000 0.0000 0.0000 0.0000 0.0000 18.6389
#
#
#
# Elastic Compliance Matrix: (Units=1/GPa)
#
#
# Indices 1 2 3 4 5 6 
#
# 1 0.008774 -0.006534 -0.003868 0.000000 0.000000 0.000000
# 2 -0.006534 0.026181 0.000867 0.000000 0.000000 0.000000
# 3 -0.003868 0.000867 0.009168 0.000000 0.000000 0.000000
# 4 0.000000 0.000000 0.000000 0.067174 0.000000 0.000000
# 5 0.000000 0.000000 0.000000 0.000000 0.040278 0.000000
# 6 0.000000 0.000000 0.000000 0.000000 0.000000 0.053651
#
#
# Mechanical properties :
#
#
# Convention : Reuss Voigt Hill
#
# Bulk Modulus (GPa) = 39.91803 67.92576 53.92190
# Shear Modulus (GPa) = 21.49173 27.45123 24.47148
#
# Velocity S-wave (km/s) = 3.12903 3.53635 3.33890
# Velocity P-wave (km/s) = 5.58924 6.90063 6.27926
#
# Compressibility (1/GPa) = 0.02505133
#
# Stress axis : x y z
#
# Youngs Moduli (GPa) = 113.97256 38.19622 109.07353
#
# Poissons Ratio (x) = 0.24958 0.42192
# Poissons Ratio (y) = 0.74472 -0.09454
# Poissons Ratio (z) = 0.44087 -0.03311
#
# Static dielectric constant tensor:
#      x y z
#    x 1.883120 0.000000 0.000000 
#    y 0.000000 1.828330 0.000000 
#    z 0.000000 0.000000 1.427590 
# 
# From -- ./inp_files/27242.got.cif
#   From: 2010.05.17/outbox.cif.g08.bks.cpg/sg74_14_cif.got.tgz:27242.got - 2010.06.03 17:57:02.
