data_PCOD9537844
_publ_section_title
;
Structure prediction by ZEFSAII (Michael W. Deem and Ramdas Pophale) SiO2 
 PCOD9537844
Probable space group: I M M A
;
_chemical_formula_sum "Si O2"
_cell_formula_units_Z 104
_cell_length_a 7.433431
_cell_length_b 22.536972
_cell_length_c 27.615748
_cell_angle_alpha 90.000000
_cell_angle_beta 90.000000
_cell_angle_gamma 90.000000
_cell_volume 4626.384142
_symmetry_space_group_name_H-M "I M M A"
_symmetry_group_IT_number 74
_symmetry_cell_setting 'orthorhombic'
loop_
_space_group_symop_operation_xyz
x,y,z
-x,1/2-y,z
x,-y,-z
-x,1/2+y,-z
-x,-y,-z
x,1/2+y,-z
-x,y,z
x,1/2-y,z
1/2+x,1/2+y,1/2+z
1/2-x,-y,1/2+z
1/2+x,1/2-y,1/2-z
1/2-x,y,1/2-z
1/2-x,1/2-y,1/2-z
1/2+x,y,1/2-z
1/2-x,1/2+y,1/2+z
1/2+x,-y,1/2+z
loop_
_atom_site_type_symbol
_atom_site_label
_atom_site_fract_x
_atom_site_fract_y
_atom_site_fract_z
Si Si1 0.285448 0.061479 0.806345
Si Si2 0.718083 0.156645 0.110804
Si Si3 0.790121 0.056566 0.971362
Si Si4 0.788805 0.185695 0.000771
Si Si5 0.784509 0.187348 0.691964
Si Si6 0.716906 0.022156 0.117391
Si Si7 0.715298 0.250000 0.191605
O O1 0.500000 0.063252 0.813681
O O2 0.250000 0.060231 0.750000
O O3 0.213526 0.124405 0.826303
O O4 0.221924 0.001763 0.830909
O O5 0.500000 0.156732 0.111846
O O6 0.772266 0.183664 0.059161
O O7 0.782446 0.088469 0.108567
O O8 0.777092 0.193499 0.158557
O O9 0.000000 0.060339 0.986263
O O10 0.776924 0.030877 0.917704
O O11 0.714298 0.122410 0.981048
O O12 0.708594 0.000000 0.000000
O O13 0.713381 0.250000 0.984529
O O14 0.000000 0.186142 0.987969
O O15 0.713497 0.250000 0.672519
O O16 0.750000 0.187501 0.750000
O O17 0.000000 0.187647 0.685405
O O18 0.500000 0.025343 0.113968
O O19 0.500000 0.250000 0.188588
O O20 0.750000 0.250000 0.250000
#
# Coordination Sequence:
#
# PCOD9537844 Si02
#       7
#    16  16  16  16  16  16   8
#     4   9  18  32  48  70 100 133 173 215 258 309
#     4  10  20  35  55  78 106 141 183 227 273 326
#     4  10  20  35  55  81 109 137 177 227 275 331
#     4  10  20  35  57  83 110 140 178 225 276 331
#     4   8  13  23  41  62  84 114 153 197 240 283
#     4  10  21  35  53  79 110 143 180 224 273 327
#     4  10  22  38  54  78 112 148 188 238 287 334
#
# _framework density 22.479758
#
# number of rings (size 3 to 8) (size 9 to 14) (size 15 to 20)
#    0.000    2.462    2.308    0.000    0.000    2.769 
#    0.000    0.769    0.000    0.923    0.000    4.308 
#    0.000    0.000    0.000    0.000    0.000    0.000 
#
# Total GULP energy -289638.239165 kJ/mol
# GULP energy per Si atom -5569.966138 kJ/mol
# Density = 2.242859 g / cm^3
# Si number density = 22.479758 Si / 1000 Ang^3
#
#
#
# Elastic Constant Matrix: (Units=GPa)
#
#
# Indices 1 2 3 4 5 6 
#
# 1 75.9754 11.1158 -11.4899 0.0000 0.0000 0.0000
# 2 11.1158 230.0953 50.9933 0.0000 0.0000 0.0000
# 3 -11.4899 50.9933 51.8694 0.0000 0.0000 0.0000
# 4 0.0000 0.0000 0.0000 54.6825 0.0000 0.0000
# 5 0.0000 0.0000 0.0000 0.0000 13.6797 0.0000
# 6 0.0000 0.0000 0.0000 0.0000 0.0000 -2.9693
#
#
#
# Elastic Compliance Matrix: (Units=1/GPa)
#
#
# Indices 1 2 3 4 5 6 
#
# 1 0.014156 -0.001763 0.004869 0.000000 0.000000 0.000000
# 2 -0.001763 0.005776 -0.006069 0.000000 0.000000 0.000000
# 3 0.004869 -0.006069 0.026324 0.000000 0.000000 0.000000
# 4 0.000000 0.000000 0.000000 0.018287 0.000000 0.000000
# 5 0.000000 0.000000 0.000000 0.000000 0.073101 0.000000
# 6 0.000000 0.000000 0.000000 0.000000 0.000000 -0.336777
#
#
# Mechanical properties :
#
#
# Convention : Reuss Voigt Hill
#
# Bulk Modulus (GPa) = 24.79486 51.01985 37.90735
# Shear Modulus (GPa) = -27.81465 33.56663 2.87599
#
# Velocity S-wave (km/s) = -3.52137 3.86838 1.13232
# Velocity P-wave (km/s) = 2.34086 6.53434 4.31382
#
# Compressibility (1/GPa) = 0.04033093
#
# Stress axis : x y z
#
# Youngs Moduli (GPa) = 70.63921 173.12297 37.98749
#
# Poissons Ratio (x) = 0.30521 -0.18496
# Poissons Ratio (y) = 0.12453 0.23055
# Poissons Ratio (z) = -0.34395 1.05072
#
# Static dielectric constant tensor:
#      x y z
#    x 1.854240 0.000000 0.000000 
#    y 0.000000 1.919820 0.000000 
#    z 0.000000 0.000000 1.878520 
# 
# From -- ./inp_files/64446.got.cif
#   From: 2010.05.17/outbox.cif.g08.bks.cpg/sg74_33_cif.got.tgz:64446.got - 2010.06.03 17:57:02.
