data_PCOD9537200
_publ_section_title
;
Structure prediction by ZEFSAII (Michael W. Deem and Ramdas Pophale) SiO2 
 PCOD9537200
Probable space group: I M M A
;
_chemical_formula_sum "Si O2"
_cell_formula_units_Z 88
_cell_length_a 23.870270
_cell_length_b 7.620135
_cell_length_c 23.562021
_cell_angle_alpha 90.000000
_cell_angle_beta 90.000000
_cell_angle_gamma 90.000000
_cell_volume 4285.806267
_symmetry_space_group_name_H-M "I M M A"
_symmetry_group_IT_number 74
_symmetry_cell_setting 'orthorhombic'
loop_
_space_group_symop_operation_xyz
x,y,z
-x,1/2-y,z
x,-y,-z
-x,1/2+y,-z
-x,-y,-z
x,1/2+y,-z
-x,y,z
x,1/2-y,z
1/2+x,1/2+y,1/2+z
1/2-x,-y,1/2+z
1/2+x,1/2-y,1/2-z
1/2-x,y,1/2-z
1/2-x,1/2-y,1/2-z
1/2+x,y,1/2-z
1/2-x,1/2+y,1/2+z
1/2+x,-y,1/2+z
loop_
_atom_site_type_symbol
_atom_site_label
_atom_site_fract_x
_atom_site_fract_y
_atom_site_fract_z
Si Si1 0.564261 0.750000 0.370262
Si Si2 0.151128 0.045998 0.131425
Si Si3 0.850917 0.954520 0.731881
Si Si4 0.000000 0.460673 0.567424
Si Si5 0.771169 0.546494 0.638701
Si Si6 0.621496 0.459489 0.933220
Si Si7 0.436821 0.750000 0.232006
O O1 0.500000 0.750000 0.390332
O O2 0.600564 0.579446 0.386860
O O3 0.561702 0.750000 0.301018
O O4 0.142101 0.250000 0.114899
O O5 0.154203 0.037509 0.200347
O O6 0.212839 0.974938 0.114587
O O7 0.859885 0.750000 0.716909
O O8 0.796131 0.020216 0.698240
O O9 0.901987 0.079164 0.714675
O O10 0.000000 0.500000 0.500000
O O11 0.939421 0.526331 0.588043
O O12 0.000000 0.250000 0.573825
O O13 0.757013 0.750000 0.648912
O O14 0.823944 0.533326 0.597260
O O15 0.622721 0.250000 0.925306
O O16 0.624644 0.500000 0.000000
O O17 0.500000 0.750000 0.210470
#
# Coordination Sequence:
#
# PCOD9537200 Si02
#       7
#     8  16  16   8  16  16   8
#     4   9  18  31  49  73 101 133 171 201 241 300
#     4   9  18  32  51  73 102 135 166 209 249 295
#     4   9  18  32  48  69  97 131 170 209 254 297
#     4   8  16  32  50  68  88 122 168 206 252 298
#     4  10  20  33  49  72  98 128 167 210 253 303
#     4  10  20  34  52  71  96 130 166 213 258 300
#     4   9  18  31  45  65  95 134 170 212 254 294
#
# _framework density 20.532893000000001
#
# number of rings (size 3 to 8) (size 9 to 14) (size 15 to 20)
#    0.000    2.727    0.000    1.091    2.545    3.636 
#    1.636    6.364    0.000    0.000    0.000    0.000 
#    0.000    0.727    0.364    0.000    0.000    0.000 
#
# Total GULP energy -245356.046191 kJ/mol
# GULP energy per Si atom -5576.273777 kJ/mol
# Density = 2.048616 g / cm^3
# Si number density = 20.532893 Si / 1000 Ang^3
#
#
#
# Elastic Constant Matrix: (Units=GPa)
#
#
# Indices 1 2 3 4 5 6 
#
# 1 211.7542 62.1405 11.0107 0.0000 0.0000 0.0000
# 2 62.1405 84.5643 -4.4377 0.0000 0.0000 0.0000
# 3 11.0107 -4.4377 20.6598 0.0000 0.0000 0.0000
# 4 0.0000 0.0000 0.0000 12.2767 0.0000 0.0000
# 5 0.0000 0.0000 0.0000 0.0000 18.3536 0.0000
# 6 0.0000 0.0000 0.0000 0.0000 0.0000 47.4029
#
#
#
# Elastic Compliance Matrix: (Units=1/GPa)
#
#
# Indices 1 2 3 4 5 6 
#
# 1 0.006405 -0.004942 -0.004475 0.000000 0.000000 0.000000
# 2 -0.004942 0.015773 0.006022 0.000000 0.000000 0.000000
# 3 -0.004475 0.006022 0.052082 0.000000 0.000000 0.000000
# 4 0.000000 0.000000 0.000000 0.081455 0.000000 0.000000
# 5 0.000000 0.000000 0.000000 0.000000 0.054485 0.000000
# 6 0.000000 0.000000 0.000000 0.000000 0.000000 0.021096
#
#
# Mechanical properties :
#
#
# Convention : Reuss Voigt Hill
#
# Bulk Modulus (GPa) = 14.82161 50.48948 32.65554
# Shear Modulus (GPa) = 19.18828 32.15764 25.67296
#
# Velocity S-wave (km/s) = 3.06030 3.96176 3.53984
# Velocity P-wave (km/s) = 4.44088 6.75058 5.71365
#
# Compressibility (1/GPa) = 0.06746906
#
# Stress axis : x y z
#
# Youngs Moduli (GPa) = 156.12038 63.40108 19.20062
#
# Poissons Ratio (x) = 0.31331 0.08593
# Poissons Ratio (y) = 0.77149 -0.11562
# Poissons Ratio (z) = 0.69867 -0.38177
#
# Static dielectric constant tensor:
#      x y z
#    x 1.781440 0.000000 0.000000 
#    y 0.000000 1.743190 0.000000 
#    z 0.000000 0.000000 1.725960 
# 
# From -- ./inp_files/72990.got.cif
#   From: 2010.05.17/outbox.cif.g08.bks.cpg/sg74_37_cif.got.tgz:72990.got - 2010.06.03 17:57:02.
