data_PCOD9537526
_publ_section_title
;
Structure prediction by ZEFSAII (Michael W. Deem and Ramdas Pophale) SiO2 
 PCOD9537526
Probable space group: I M M A
;
_chemical_formula_sum "Si O2"
_cell_formula_units_Z 80
_cell_length_a 14.549975
_cell_length_b 28.937108
_cell_length_c 9.723205
_cell_angle_alpha 90.000000
_cell_angle_beta 90.000000
_cell_angle_gamma 90.000000
_cell_volume 4093.801819
_symmetry_space_group_name_H-M "I M M A"
_symmetry_group_IT_number 74
_symmetry_cell_setting 'orthorhombic'
loop_
_space_group_symop_operation_xyz
x,y,z
-x,1/2-y,z
x,-y,-z
-x,1/2+y,-z
-x,-y,-z
x,1/2+y,-z
-x,y,z
x,1/2-y,z
1/2+x,1/2+y,1/2+z
1/2-x,-y,1/2+z
1/2+x,1/2-y,1/2-z
1/2-x,y,1/2-z
1/2-x,1/2-y,1/2-z
1/2+x,y,1/2-z
1/2-x,1/2+y,1/2+z
1/2+x,-y,1/2+z
loop_
_atom_site_type_symbol
_atom_site_label
_atom_site_fract_x
_atom_site_fract_y
_atom_site_fract_z
Si Si1 0.302840 0.802768 0.475138
Si Si2 0.391029 0.634921 0.695656
Si Si3 0.646215 0.385620 0.722455
Si Si4 0.398524 0.162025 0.992771
Si Si5 0.395394 0.950019 0.523025
O O1 0.330473 0.750000 0.456124
O O2 0.338362 0.823639 0.619398
O O3 0.345299 0.837217 0.361352
O O4 0.192114 0.807261 0.468700
O O5 0.500000 0.638458 0.659842
O O6 0.384137 0.638532 0.858850
O O7 0.354749 0.586891 0.630868
O O8 0.750000 0.401363 0.750000
O O9 0.602325 0.422446 0.620663
O O10 0.602305 0.374670 0.868566
O O11 0.500000 0.184617 0.994961
O O12 0.500000 0.958775 0.571674
O O13 0.350700 0.000000 0.500000
#
# Coordination Sequence:
#
# PCOD9537526 Si02
#       5
#    16  16  16  16  16
#     4  10  21  37  55  75 103 141 180 214 254 310
#     4   9  19  35  54  78 107 138 174 215 258 306
#     4   9  19  35  53  74 103 137 172 213 258 307
#     4  10  20  34  53  77 107 139 171 215 265 305
#     4   9  17  33  56  77 100 134 173 209 251 308
#
# _framework density 19.541736
#
# number of rings (size 3 to 8) (size 9 to 14) (size 15 to 20)
#    0.000    2.600    0.000    1.200    0.000    6.800 
#    0.000    9.000    0.000    4.800    0.000    0.000 
#    0.000    0.000    0.000    0.000    0.000    0.000 
#
# Total GULP energy -222931.154371 kJ/mol
# GULP energy per Si atom -5573.278859 kJ/mol
# Density = 1.949726 g / cm^3
# Si number density = 19.541736 Si / 1000 Ang^3
#
#
#
# Elastic Constant Matrix: (Units=GPa)
#
#
# Indices 1 2 3 4 5 6 
#
# 1 60.7123 14.8395 12.9732 0.0000 -0.0002 0.0003
# 2 14.8395 112.0754 18.5020 0.0011 -0.0018 0.0019
# 3 12.9732 18.5020 112.5131 0.0015 -0.0024 0.0039
# 4 0.0000 0.0011 0.0015 1.5195 -0.0012 0.0015
# 5 -0.0002 -0.0018 -0.0024 -0.0012 42.7051 -0.0029
# 6 0.0003 0.0019 0.0039 0.0015 -0.0029 -37.2114
#
#
#
# Elastic Compliance Matrix: (Units=1/GPa)
#
#
# Indices 1 2 3 4 5 6 
#
# 1 0.017320 -0.002018 -0.001665 0.000003 0.000000 0.000000
# 2 -0.002018 0.009407 -0.001314 -0.000005 0.000000 0.000000
# 3 -0.001665 -0.001314 0.009296 -0.000008 0.000000 0.000001
# 4 0.000003 -0.000005 -0.000008 0.658094 0.000019 0.000026
# 5 0.000000 0.000000 0.000000 0.000019 0.023416 -0.000002
# 6 0.000000 0.000000 0.000001 0.000026 -0.000002 -0.026873
#
#
# Mechanical properties :
#
#
# Convention : Reuss Voigt Hill
#
# Bulk Modulus (GPa) = 38.42086 41.99224 40.20655
# Shear Modulus (GPa) = 7.04890 17.33504 12.19197
#
# Velocity S-wave (km/s) = 1.90130 2.98162 2.50050
# Velocity P-wave (km/s) = 4.95212 5.77828 5.38108
#
# Compressibility (1/GPa) = 0.02602753
#
# Stress axis : x y z
#
# Youngs Moduli (GPa) = 57.73571 106.30645 107.57368
#
# Poissons Ratio (x) = 0.21457 0.17913
# Poissons Ratio (y) = 0.11654 0.14137
# Poissons Ratio (z) = 0.09614 0.13970
#
# Static dielectric constant tensor:
#      x y z
#    x 1.746540 0.000000 0.000000 
#    y 0.000000 1.677470 0.000000 
#    z 0.000000 0.000000 1.694880 
# 
# From -- ./inp_files/10970.got.cif
#   From: 2010.05.17/outbox.cif.g08.bks.cpg/sg74_6_cif.got.tgz:10970.got - 2010.06.03 17:57:02.
