data_PCOD9537690
_publ_section_title
;
Structure prediction by ZEFSAII (Michael W. Deem and Ramdas Pophale) SiO2 
 PCOD9537690
Probable space group: I M M A
;
_chemical_formula_sum "Si O2"
_cell_formula_units_Z 112
_cell_length_a 18.954589
_cell_length_b 28.453972
_cell_length_c 11.371276
_cell_angle_alpha 90.000000
_cell_angle_beta 90.000000
_cell_angle_gamma 90.000000
_cell_volume 6132.908318
_symmetry_space_group_name_H-M "I M M A"
_symmetry_group_IT_number 74
_symmetry_cell_setting 'orthorhombic'
loop_
_space_group_symop_operation_xyz
x,y,z
-x,1/2-y,z
x,-y,-z
-x,1/2+y,-z
-x,-y,-z
x,1/2+y,-z
-x,y,z
x,1/2-y,z
1/2+x,1/2+y,1/2+z
1/2-x,-y,1/2+z
1/2+x,1/2-y,1/2-z
1/2-x,y,1/2-z
1/2-x,1/2-y,1/2-z
1/2+x,y,1/2-z
1/2-x,1/2+y,1/2+z
1/2+x,-y,1/2+z
loop_
_atom_site_type_symbol
_atom_site_label
_atom_site_fract_x
_atom_site_fract_y
_atom_site_fract_z
Si Si1 0.629328 0.650429 0.586256
Si Si2 0.324361 0.803859 0.194655
Si Si3 0.800241 0.949231 0.138470
Si Si4 0.075895 0.806073 0.693014
Si Si5 0.283362 0.804112 0.923866
Si Si6 0.297343 0.939669 0.632278
Si Si7 0.582378 0.626915 0.331262
O O1 0.581910 0.681446 0.670857
O O2 0.709816 0.669381 0.587985
O O3 0.637609 0.596751 0.631392
O O4 0.598898 0.651535 0.455940
O O5 0.338431 0.750000 0.234023
O O6 0.250000 0.819384 0.250000
O O7 0.385259 0.838883 0.232979
O O8 0.309453 0.803348 0.057221
O O9 0.750000 0.938682 0.250000
O O10 0.871327 0.920209 0.160529
O O11 0.814219 0.005052 0.140297
O O12 0.770791 0.935524 0.006589
O O13 0.077886 0.750000 0.673258
O O14 0.149703 0.825389 0.643641
O O15 0.000000 0.823099 0.645994
O O16 0.271251 0.750000 0.886025
O O17 0.250000 0.929437 0.750000
O O18 0.500000 0.618609 0.315915
#
# Coordination Sequence:
#
# PCOD9537690 Si02
#       7
#    16  16  16  16  16  16  16
#     4  11  20  34  55  80 110 140 183 230 274 327
#     4  10  20  36  56  80 108 141 182 229 274 321
#     4   9  19  36  58  82 110 143 182 229 279 333
#     4  10  21  35  50  74 110 148 182 220 270 327
#     4  10  20  34  56  79 105 144 188 228 272 326
#     4   9  18  33  56  87 109 136 184 234 279 327
#     4  11  23  36  54  81 111 145 180 221 280 338
#
# _framework density 18.262135000000001
#
# number of rings (size 3 to 8) (size 9 to 14) (size 15 to 20)
#    0.000    2.000    1.429    2.571    2.000    2.571 
#    0.000    7.857    0.000    0.000    0.000    8.000 
#    0.000    0.000    0.000    0.000    0.000    0.000 
#
# Total GULP energy -311951.063127 kJ/mol
# GULP energy per Si atom -5570.554699 kJ/mol
# Density = 1.822057 g / cm^3
# Si number density = 18.262135 Si / 1000 Ang^3
#
#
#
# Elastic Constant Matrix: (Units=GPa)
#
#
# Indices 1 2 3 4 5 6 
#
# 1 121.5362 34.5354 40.2978 0.0000 0.0000 0.0000
# 2 34.5354 43.2246 15.7881 0.0000 0.0000 0.0000
# 3 40.2978 15.7881 80.4425 -0.0001 0.0001 0.0000
# 4 0.0000 0.0000 -0.0001 20.4961 0.0000 0.0000
# 5 0.0000 0.0000 0.0001 0.0000 4.9507 0.0000
# 6 0.0000 0.0000 0.0000 0.0000 0.0000 12.6170
#
#
#
# Elastic Compliance Matrix: (Units=1/GPa)
#
#
# Indices 1 2 3 4 5 6 
#
# 1 0.011950 -0.007930 -0.004430 0.000000 0.000000 0.000000
# 2 -0.007930 0.030183 -0.001952 0.000000 0.000000 0.000000
# 3 -0.004430 -0.001952 0.015034 0.000000 0.000000 0.000000
# 4 0.000000 0.000000 0.000000 0.048790 0.000000 0.000000
# 5 0.000000 0.000000 0.000000 0.000000 0.201993 0.000000
# 6 0.000000 0.000000 0.000000 0.000000 0.000000 0.079258
#
#
# Mechanical properties :
#
#
# Convention : Reuss Voigt Hill
#
# Bulk Modulus (GPa) = 35.03325 47.38287 41.20806
# Shear Modulus (GPa) = 11.75512 17.91821 14.83666
#
# Velocity S-wave (km/s) = 2.53985 3.13576 2.85340
# Velocity P-wave (km/s) = 5.27507 6.25403 5.78529
#
# Compressibility (1/GPa) = 0.02854431
#
# Stress axis : x y z
#
# Youngs Moduli (GPa) = 83.68061 33.13076 66.51794
#
# Poissons Ratio (x) = 0.26272 0.29468
# Poissons Ratio (y) = 0.66357 0.12981
# Poissons Ratio (z) = 0.37072 0.06466
#
# Static dielectric constant tensor:
#      x y z
#    x 1.631030 0.000000 0.000000 
#    y 0.000000 1.653730 0.000000 
#    z 0.000000 0.000000 1.718820 
# 
# From -- ./inp_files/21179.got.cif
#   From: 2010.05.17/outbox.cif.g08.bks.cpg/sg74_11_cif.got.tgz:21179.got - 2010.06.03 17:57:02.
