data_PCOD9537673
_publ_section_title
;
Structure prediction by ZEFSAII (Michael W. Deem and Ramdas Pophale) SiO2 
 PCOD9537673
Probable space group: I M M A
;
_chemical_formula_sum "Si O2"
_cell_formula_units_Z 112
_cell_length_a 15.621448
_cell_length_b 14.241175
_cell_length_c 26.004075
_cell_angle_alpha 90.000000
_cell_angle_beta 90.000000
_cell_angle_gamma 90.000000
_cell_volume 5785.068699
_symmetry_space_group_name_H-M "I M M A"
_symmetry_group_IT_number 74
_symmetry_cell_setting 'orthorhombic'
loop_
_space_group_symop_operation_xyz
x,y,z
-x,1/2-y,z
x,-y,-z
-x,1/2+y,-z
-x,-y,-z
x,1/2+y,-z
-x,y,z
x,1/2-y,z
1/2+x,1/2+y,1/2+z
1/2-x,-y,1/2+z
1/2+x,1/2-y,1/2-z
1/2-x,y,1/2-z
1/2-x,1/2-y,1/2-z
1/2+x,y,1/2-z
1/2-x,1/2+y,1/2+z
1/2+x,-y,1/2+z
loop_
_atom_site_type_symbol
_atom_site_label
_atom_site_fract_x
_atom_site_fract_y
_atom_site_fract_z
Si Si1 0.308531 0.011125 0.206028
Si Si2 0.276831 0.637837 0.472211
Si Si3 0.401287 0.364394 0.017597
Si Si4 0.599012 0.142903 0.725427
Si Si5 0.160346 0.035115 0.871274
Si Si6 0.601781 0.645239 0.867629
Si Si7 0.099794 0.359498 0.069737
O O1 0.250000 0.058026 0.250000
O O2 0.373664 0.081761 0.180042
O O3 0.350743 0.922830 0.234711
O O4 0.247953 0.979930 0.159664
O O5 0.276219 0.750000 0.463912
O O6 0.177846 0.607797 0.481439
O O7 0.319929 0.588253 0.423963
O O8 0.334680 0.621044 0.522913
O O9 0.500000 0.392752 0.005458
O O10 0.402563 0.250000 0.018570
O O11 0.375925 0.393519 0.075708
O O12 0.500000 0.144199 0.740659
O O13 0.631526 0.250000 0.724533
O O14 0.606208 0.096785 0.668907
O O15 0.119608 0.934796 0.885902
O O16 0.500000 0.653200 0.869579
O O17 0.639571 0.750000 0.862823
O O18 0.111927 0.250000 0.085039
O O19 0.000000 0.369988 0.053731
#
# Coordination Sequence:
#
# PCOD9537673 Si02
#       7
#    16  16  16  16  16  16  16
#     4  10  22  36  54  79 107 140 179 229 285 334
#     4  10  20  34  55  85 120 153 187 231 281 335
#     4   8  15  30  53  81 115 154 189 224 275 338
#     4  10  22  41  62  81 106 143 186 233 283 333
#     4  11  22  36  58  84 110 145 188 231 277 337
#     4   9  17  32  55  79 106 142 181 221 267 327
#     4  10  22  39  58  83 117 153 187 230 285 339
#
# _framework density 19.360185000000001
#
# number of rings (size 3 to 8) (size 9 to 14) (size 15 to 20)
#    0.000    2.286    0.000    3.429    0.000    6.857 
#    0.000    5.000    0.000   12.857    0.000    0.000 
#    0.000    0.000    0.000    0.000    0.000    0.000 
#
# Total GULP energy -312404.833342 kJ/mol
# GULP energy per Si atom -5578.657738 kJ/mol
# Density = 1.931612 g / cm^3
# Si number density = 19.360185 Si / 1000 Ang^3
#
#
#
# Elastic Constant Matrix: (Units=GPa)
#
#
# Indices 1 2 3 4 5 6 
#
# 1 81.3701 28.6570 29.6404 0.0000 0.0000 0.0000
# 2 28.6570 72.9663 32.2330 0.0000 0.0000 0.0000
# 3 29.6404 32.2330 42.7080 0.0000 0.0000 0.0000
# 4 0.0000 0.0000 0.0000 17.6154 0.0000 0.0000
# 5 0.0000 0.0000 0.0000 0.0000 97.7790 0.0000
# 6 0.0000 0.0000 0.0000 0.0000 0.0000 6.3582
#
#
#
# Elastic Compliance Matrix: (Units=1/GPa)
#
#
# Indices 1 2 3 4 5 6 
#
# 1 0.016670 -0.002155 -0.009944 0.000000 0.000000 0.000000
# 2 -0.002155 0.020838 -0.014232 0.000000 0.000000 0.000000
# 3 -0.009944 -0.014232 0.041057 0.000000 0.000000 0.000000
# 4 0.000000 0.000000 0.000000 0.056768 0.000000 0.000000
# 5 0.000000 0.000000 0.000000 0.000000 0.010227 0.000000
# 6 0.000000 0.000000 0.000000 0.000000 0.000000 0.157277
#
#
# Mechanical properties :
#
#
# Convention : Reuss Voigt Hill
#
# Bulk Modulus (GPa) = 38.60153 42.01168 40.30660
# Shear Modulus (GPa) = 13.73122 31.45145 22.59134
#
# Velocity S-wave (km/s) = 2.66606 4.03493 3.41969
# Velocity P-wave (km/s) = 5.42762 6.59202 6.03796
#
# Compressibility (1/GPa) = 0.02590571
#
# Stress axis : x y z
#
# Youngs Moduli (GPa) = 59.98643 47.98907 24.35635
#
# Poissons Ratio (x) = 0.10340 0.24219
# Poissons Ratio (y) = 0.12925 0.34663
# Poissons Ratio (z) = 0.59648 0.68297
#
# Static dielectric constant tensor:
#      x y z
#    x 1.697450 0.000000 0.000000 
#    y 0.000000 1.710200 0.000000 
#    z 0.000000 0.000000 1.639910 
# 
# From -- ./inp_files/60157.got.cif
#   From: 2010.05.17/outbox.cif.g08.bks.cpg/sg74_31_cif.got.tgz:60157.got - 2010.06.03 17:57:02.
