data_PCOD9537684
_publ_section_title
;
Structure prediction by ZEFSAII (Michael W. Deem and Ramdas Pophale) SiO2 
 PCOD9537684
Probable space group: I M M A
;
_chemical_formula_sum "Si O2"
_cell_formula_units_Z 80
_cell_length_a 15.143976
_cell_length_b 14.149211
_cell_length_c 15.580178
_cell_angle_alpha 90.000000
_cell_angle_beta 90.000000
_cell_angle_gamma 90.000000
_cell_volume 3338.447499
_symmetry_space_group_name_H-M "I M M A"
_symmetry_group_IT_number 74
_symmetry_cell_setting 'orthorhombic'
loop_
_space_group_symop_operation_xyz
x,y,z
-x,1/2-y,z
x,-y,-z
-x,1/2+y,-z
-x,-y,-z
x,1/2+y,-z
-x,y,z
x,1/2-y,z
1/2+x,1/2+y,1/2+z
1/2-x,-y,1/2+z
1/2+x,1/2-y,1/2-z
1/2-x,y,1/2-z
1/2-x,1/2-y,1/2-z
1/2+x,y,1/2-z
1/2-x,1/2+y,1/2+z
1/2+x,-y,1/2+z
loop_
_atom_site_type_symbol
_atom_site_label
_atom_site_fract_x
_atom_site_fract_y
_atom_site_fract_z
Si Si1 0.278802 0.364826 0.459962
Si Si2 0.100865 0.364499 0.535302
Si Si3 0.646842 0.048006 0.780498
Si Si4 0.905231 0.363474 0.893404
Si Si5 0.149018 0.145128 0.219223
O O1 0.278482 0.250000 0.456129
O O2 0.176373 0.393186 0.466616
O O3 0.326062 0.397445 0.546649
O O4 0.337916 0.390751 0.378300
O O5 0.104161 0.250000 0.541630
O O6 0.128772 0.406042 0.627776
O O7 0.000000 0.390453 0.514298
O O8 0.750000 0.046817 0.750000
O O9 0.602470 0.106998 0.704603
O O10 0.611276 0.940708 0.773652
O O11 0.901910 0.250000 0.897172
O O12 0.000000 0.394692 0.928509
O O13 0.108259 0.250000 0.223434
O O14 0.250000 0.156250 0.250000
#
# Coordination Sequence:
#
# PCOD9537684 Si02
#       5
#    16  16  16  16  16
#     4   9  18  36  61  87 117 153 199 249 295 350
#     4  10  20  35  60  95 130 158 189 239 305 373
#     4  11  20  33  55  86 120 159 192 236 293 357
#     4  10  20  34  55  87 125 157 185 229 294 364
#     4   9  20  39  61  83 109 156 211 253 294 343
#
# _framework density 23.963234
#
# number of rings (size 3 to 8) (size 9 to 14) (size 15 to 20)
#    0.000    2.200    2.000    1.200    0.000    3.200 
#    0.000    3.000    0.000   20.400    0.000   19.600 
#    0.000    0.000    0.000    0.000    0.000    0.000 
#
# Total GULP energy -223539.020027 kJ/mol
# GULP energy per Si atom -5588.475501 kJ/mol
# Density = 2.390869 g / cm^3
# Si number density = 23.963234 Si / 1000 Ang^3
#
#
#
# Elastic Constant Matrix: (Units=GPa)
#
#
# Indices 1 2 3 4 5 6 
#
# 1 113.3096 17.6493 0.2516 0.0000 0.0000 0.0000
# 2 17.6493 75.5093 9.2541 0.0000 0.0000 0.0000
# 3 0.2516 9.2541 60.7973 0.0000 0.0000 0.0000
# 4 0.0000 0.0000 0.0000 58.8713 0.0000 0.0000
# 5 0.0000 0.0000 0.0000 0.0000 -7.1430 0.0000
# 6 0.0000 0.0000 0.0000 0.0000 0.0000 5.8964
#
#
#
# Elastic Compliance Matrix: (Units=1/GPa)
#
#
# Indices 1 2 3 4 5 6 
#
# 1 0.009164 -0.002178 0.000294 0.000000 0.000000 0.000000
# 2 -0.002178 0.014013 -0.002124 0.000000 0.000000 0.000000
# 3 0.000294 -0.002124 0.016770 0.000000 0.000000 0.000000
# 4 0.000000 0.000000 0.000000 0.016986 0.000000 0.000000
# 5 0.000000 0.000000 0.000000 0.000000 -0.139998 0.000000
# 6 0.000000 0.000000 0.000000 0.000000 0.000000 0.169594
#
#
# Mechanical properties :
#
#
# Convention : Reuss Voigt Hill
#
# Bulk Modulus (GPa) = 31.31811 33.76956 32.54384
# Shear Modulus (GPa) = 47.53358 26.35571 36.94465
#
# Velocity S-wave (km/s) = 4.45860 3.31998 3.93074
# Velocity P-wave (km/s) = 6.29310 5.36835 5.84903
#
# Compressibility (1/GPa) = 0.03193040
#
# Stress axis : x y z
#
# Youngs Moduli (GPa) = 109.12310 71.36353 59.62966
#
# Poissons Ratio (x) = 0.15542 -0.01751
# Poissons Ratio (y) = 0.23766 0.12665
# Poissons Ratio (z) = -0.03204 0.15157
#
# Static dielectric constant tensor:
#      x y z
#    x 1.944350 0.000000 0.000000 
#    y 0.000000 1.944320 0.000000 
#    z 0.000000 0.000000 1.921030 
# 
# From -- ./inp_files/43860.got.cif
#   From: 2010.05.17/outbox.cif.g08.bks.cpg/sg74_22_cif.got.tgz:43860.got - 2010.06.03 17:57:02.
