data_PCOD9537789
_publ_section_title
;
Structure prediction by ZEFSAII (Michael W. Deem and Ramdas Pophale) SiO2 
 PCOD9537789
Probable space group: I M M A
;
_chemical_formula_sum "Si O2"
_cell_formula_units_Z 120
_cell_length_a 8.580599
_cell_length_b 27.517663
_cell_length_c 28.719768
_cell_angle_alpha 90.000000
_cell_angle_beta 90.000000
_cell_angle_gamma 90.000000
_cell_volume 6781.255089
_symmetry_space_group_name_H-M "I M M A"
_symmetry_group_IT_number 74
_symmetry_cell_setting 'orthorhombic'
loop_
_space_group_symop_operation_xyz
x,y,z
-x,1/2-y,z
x,-y,-z
-x,1/2+y,-z
-x,-y,-z
x,1/2+y,-z
-x,y,z
x,1/2-y,z
1/2+x,1/2+y,1/2+z
1/2-x,-y,1/2+z
1/2+x,1/2-y,1/2-z
1/2-x,y,1/2-z
1/2-x,1/2-y,1/2-z
1/2+x,y,1/2-z
1/2-x,1/2+y,1/2+z
1/2+x,-y,1/2+z
loop_
_atom_site_type_symbol
_atom_site_label
_atom_site_fract_x
_atom_site_fract_y
_atom_site_fract_z
Si Si1 0.187326 0.455794 0.301207
Si Si2 0.813335 0.601183 0.608171
Si Si3 0.313983 0.156368 0.860480
Si Si4 0.183123 0.308266 0.955492
Si Si5 0.811114 0.951854 0.360055
Si Si6 0.311529 0.694129 0.560931
Si Si7 0.810353 0.750000 0.302439
Si Si8 0.187109 0.509834 0.946922
O O1 0.250000 0.446962 0.250000
O O2 0.235254 0.416753 0.340394
O O3 0.237843 0.508035 0.322113
O O4 0.000000 0.455869 0.299378
O O5 0.755976 0.654604 0.595573
O O6 0.744619 0.561933 0.571942
O O7 0.000000 0.598577 0.605597
O O8 0.500000 0.155973 0.854884
O O9 0.274409 0.166510 0.914184
O O10 0.255904 0.102433 0.848462
O O11 0.255221 0.201573 0.829715
O O12 0.196977 0.250000 0.950018
O O13 0.000000 0.320638 0.951605
O O14 0.235908 0.319446 0.007972
O O15 0.000000 0.952065 0.361737
O O16 0.751476 0.970470 0.410107
O O17 0.500000 0.692896 0.561876
O O18 0.264148 0.750000 0.569792
O O19 0.750000 0.750000 0.250000
O O20 0.000000 0.750000 0.302541
O O21 0.000000 0.508705 0.945610
O O22 0.237590 0.500000 0.000000
#
# Coordination Sequence:
#
# PCOD9537789 Si02
#       8
#    16  16  16  16  16  16   8  16
#     4   9  19  36  56  78 103 133 173 220 270 322
#     4  10  21  36  55  81 112 144 179 220 266 319
#     4  10  20  35  53  74 103 137 175 224 272 322
#     4   9  18  32  50  73 103 139 177 217 258 304
#     4   9  20  36  52  75 106 137 174 222 273 321
#     4   9  19  35  54  80 115 150 182 220 261 306
#     4  10  22  38  54  74 102 136 180 230 281 330
#     4  10  21  35  51  75 108 144 181 221 265 319
#
# _framework density 17.69584
#
# number of rings (size 3 to 8) (size 9 to 14) (size 15 to 20)
#    0.000    2.533    0.667    2.400    1.867    6.133 
#    0.000    1.333    0.000    0.400    0.000    0.000 
#    0.000    0.000    0.000    0.000    0.000    0.000 
#
# Total GULP energy -334663.074514 kJ/mol
# GULP energy per Si atom -5577.717909 kJ/mol
# Density = 1.765556 g / cm^3
# Si number density = 17.695840 Si / 1000 Ang^3
#
#
#
# Elastic Constant Matrix: (Units=GPa)
#
#
# Indices 1 2 3 4 5 6 
#
# 1 7.2714 18.7577 17.6503 0.0000 0.0000 0.0000
# 2 18.7577 129.4757 78.5466 0.0000 0.0000 0.0000
# 3 17.6503 78.5466 136.0298 0.0000 0.0000 0.0000
# 4 0.0000 0.0000 0.0000 11.6145 0.0000 0.0000
# 5 0.0000 0.0000 0.0000 0.0000 30.9012 0.0000
# 6 0.0000 0.0000 0.0000 0.0000 0.0000 18.8015
#
#
#
# Elastic Compliance Matrix: (Units=1/GPa)
#
#
# Indices 1 2 3 4 5 6 
#
# 1 0.243370 -0.024782 -0.017268 0.000000 0.000000 0.000000
# 2 -0.024782 0.014411 -0.005106 0.000000 0.000000 0.000000
# 3 -0.017268 -0.005106 0.012540 0.000000 0.000000 0.000000
# 4 0.000000 0.000000 0.000000 0.086099 0.000000 0.000000
# 5 0.000000 0.000000 0.000000 0.000000 0.032361 0.000000
# 6 0.000000 0.000000 0.000000 0.000000 0.000000 0.053187
#
#
# Mechanical properties :
#
#
# Convention : Reuss Voigt Hill
#
# Bulk Modulus (GPa) = 5.68154 55.85402 30.76778
# Shear Modulus (GPa) = 8.40405 22.78494 15.59450
#
# Velocity S-wave (km/s) = 2.18162 3.59219 2.97181
# Velocity P-wave (km/s) = 3.09251 6.98835 5.40373
#
# Compressibility (1/GPa) = 0.17600874
#
# Stress axis : x y z
#
# Youngs Moduli (GPa) = 4.10897 69.39049 79.74421
#
# Poissons Ratio (x) = 1.71966 1.37703
# Poissons Ratio (y) = 0.10183 0.40715
# Poissons Ratio (z) = 0.07095 0.35429
#
# Static dielectric constant tensor:
#      x y z
#    x 1.603260 0.000000 0.000000 
#    y 0.000000 1.616110 0.000000 
#    z 0.000000 0.000000 1.580980 
# 
# From -- ./inp_files/65052.got.cif
#   From: 2010.05.17/outbox.cif.g08.bks.cpg/sg74_33_cif.got.tgz:65052.got - 2010.06.03 17:57:02.
