data_PCOD9537112
_publ_section_title
;
Structure prediction by ZEFSAII (Michael W. Deem and Ramdas Pophale) SiO2 
 PCOD9537112
Probable space group: I M M A
;
_chemical_formula_sum "Si O2"
_cell_formula_units_Z 104
_cell_length_a 10.681553
_cell_length_b 23.842734
_cell_length_c 21.158880
_cell_angle_alpha 90.000000
_cell_angle_beta 90.000000
_cell_angle_gamma 90.000000
_cell_volume 5388.689114
_symmetry_space_group_name_H-M "I M M A"
_symmetry_group_IT_number 74
_symmetry_cell_setting 'orthorhombic'
loop_
_space_group_symop_operation_xyz
x,y,z
-x,1/2-y,z
x,-y,-z
-x,1/2+y,-z
-x,-y,-z
x,1/2+y,-z
-x,y,z
x,1/2-y,z
1/2+x,1/2+y,1/2+z
1/2-x,-y,1/2+z
1/2+x,1/2-y,1/2-z
1/2-x,y,1/2-z
1/2-x,1/2-y,1/2-z
1/2+x,y,1/2-z
1/2-x,1/2+y,1/2+z
1/2+x,-y,1/2+z
loop_
_atom_site_type_symbol
_atom_site_label
_atom_site_fract_x
_atom_site_fract_y
_atom_site_fract_z
Si Si1 0.644504 0.482941 0.198623
Si Si2 0.362707 0.633796 0.865413
Si Si3 0.643568 0.459328 0.939202
Si Si4 0.859850 0.868997 0.067209
Si Si5 0.642661 0.685275 0.562701
Si Si6 0.371096 0.750000 0.790815
Si Si7 0.138670 0.182345 0.794325
O O1 0.500000 0.494468 0.219226
O O2 0.750000 0.499267 0.250000
O O3 0.654997 0.416389 0.183994
O O4 0.661127 0.510368 0.128992
O O5 0.500000 0.623314 0.896675
O O6 0.243469 0.641864 0.909959
O O7 0.370780 0.693629 0.831324
O O8 0.500000 0.437786 0.939909
O O9 0.749220 0.412478 0.943506
O O10 0.655665 0.500000 0.000000
O O11 0.847781 0.841937 0.135903
O O12 0.000000 0.894813 0.062743
O O13 0.854178 0.822376 0.012659
O O14 0.500000 0.673244 0.583873
O O15 0.671529 0.750000 0.579076
O O16 0.500000 0.750000 0.751661
O O17 0.250000 0.750000 0.750000
O O18 0.144736 0.250000 0.797477
O O19 0.250000 0.161853 0.750000
O O20 0.000000 0.167140 0.769891
#
# Coordination Sequence:
#
# PCOD9537112 Si02
#       7
#    16  16  16  16  16   8  16
#     4  10  22  39  60  84 113 149 189 234 284 336
#     4  10  20  36  55  79 110 145 183 223 271 323
#     4  10  22  41  61  82 110 148 191 236 286 337
#     4  10  21  36  56  82 110 142 181 228 279 331
#     4  10  20  34  54  82 114 147 183 224 275 333
#     4  10  20  32  50  76 106 138 175 216 259 310
#     4   9  18  34  55  79 111 147 180 219 270 330
#
# _framework density 19.299685
#
# number of rings (size 3 to 8) (size 9 to 14) (size 15 to 20)
#    0.000    2.154    0.769    1.846    0.000    7.077 
#    0.000    3.077    0.000    2.769    0.000    0.000 
#    0.000    0.000    0.000    0.000    0.000    0.000 
#
# Total GULP energy -289981.414100 kJ/mol
# GULP energy per Si atom -5576.565656 kJ/mol
# Density = 1.925576 g / cm^3
# Si number density = 19.299685 Si / 1000 Ang^3
#
#
#
# Elastic Constant Matrix: (Units=GPa)
#
#
# Indices 1 2 3 4 5 6 
#
# 1 173.2289 28.7938 73.8380 0.0000 0.0000 0.0000
# 2 28.7938 26.6059 -0.0868 0.0000 0.0000 0.0000
# 3 73.8380 -0.0868 75.7252 0.0000 0.0000 0.0000
# 4 0.0000 0.0000 0.0000 15.2231 0.0000 0.0000
# 5 0.0000 0.0000 0.0000 0.0000 29.7006 0.0000
# 6 0.0000 0.0000 0.0000 0.0000 0.0000 21.7395
#
#
#
# Elastic Compliance Matrix: (Units=1/GPa)
#
#
# Indices 1 2 3 4 5 6 
#
# 1 0.014309 -0.015531 -0.013970 0.000000 0.000000 0.000000
# 2 -0.015531 0.054444 0.015207 0.000000 0.000000 0.000000
# 3 -0.013970 0.015207 0.026845 0.000000 0.000000 0.000000
# 4 0.000000 0.000000 0.000000 0.065690 0.000000 0.000000
# 5 0.000000 0.000000 0.000000 0.000000 0.033669 0.000000
# 6 0.000000 0.000000 0.000000 0.000000 0.000000 0.045999
#
#
# Mechanical properties :
#
#
# Convention : Reuss Voigt Hill
#
# Bulk Modulus (GPa) = 14.92353 53.40557 34.16455
# Shear Modulus (GPa) = 17.13019 24.86697 20.99858
#
# Velocity S-wave (km/s) = 2.98248 3.59341 3.30210
# Velocity P-wave (km/s) = 4.42826 6.70437 5.68147
#
# Compressibility (1/GPa) = 0.06700826
#
# Stress axis : x y z
#
# Youngs Moduli (GPa) = 69.88569 18.36754 37.25060
#
# Poissons Ratio (x) = 0.28527 0.52040
# Poissons Ratio (y) = 1.08542 -0.56646
# Poissons Ratio (z) = 0.97632 -0.27931
#
# Static dielectric constant tensor:
#      x y z
#    x 1.710640 0.000000 0.000000 
#    y 0.000000 1.665210 0.000000 
#    z 0.000000 0.000000 1.670860 
# 
# From -- ./inp_files/49259.got.cif
#   From: 2010.05.17/outbox.cif.g08.bks.cpg/sg74_25_cif.got.tgz:49259.got - 2010.06.03 17:57:02.
