data_PCOD9537097
_publ_section_title
;
Structure prediction by ZEFSAII (Michael W. Deem and Ramdas Pophale) SiO2 
 PCOD9537097
Probable space group: I M M A
;
_chemical_formula_sum "Si O2"
_cell_formula_units_Z 80
_cell_length_a 14.003209
_cell_length_b 18.659816
_cell_length_c 15.345642
_cell_angle_alpha 90.000000
_cell_angle_beta 90.000000
_cell_angle_gamma 90.000000
_cell_volume 4009.774873
_symmetry_space_group_name_H-M "I M M A"
_symmetry_group_IT_number 74
_symmetry_cell_setting 'orthorhombic'
loop_
_space_group_symop_operation_xyz
x,y,z
-x,1/2-y,z
x,-y,-z
-x,1/2+y,-z
-x,-y,-z
x,1/2+y,-z
-x,y,z
x,1/2-y,z
1/2+x,1/2+y,1/2+z
1/2-x,-y,1/2+z
1/2+x,1/2-y,1/2-z
1/2-x,y,1/2-z
1/2-x,1/2-y,1/2-z
1/2+x,y,1/2-z
1/2-x,1/2+y,1/2+z
1/2+x,-y,1/2+z
loop_
_atom_site_type_symbol
_atom_site_label
_atom_site_fract_x
_atom_site_fract_y
_atom_site_fract_z
Si Si1 0.106600 0.331246 0.224911
Si Si2 0.892152 0.957190 0.635403
Si Si3 0.614995 0.458778 0.697847
Si Si4 0.200636 0.915337 0.919246
Si Si5 0.615234 0.332719 0.583136
O O1 0.120347 0.250000 0.253069
O O2 0.103494 0.386631 0.303601
O O3 0.185461 0.356095 0.156436
O O4 0.000000 0.335864 0.182207
O O5 0.809981 0.938473 0.567478
O O6 0.000000 0.972970 0.605184
O O7 0.855653 0.016866 0.704970
O O8 0.500000 0.464746 0.699249
O O9 0.649434 0.515827 0.624869
O O10 0.640985 0.378948 0.668691
O O11 0.155079 0.879740 0.003461
O O12 0.500000 0.331979 0.576742
O O13 0.647762 0.250000 0.581963
#
# Coordination Sequence:
#
# PCOD9537097 Si02
#       5
#    16  16  16  16  16
#     4   9  16  25  38  60  92 125 155 191 239 296
#     4   9  19  32  46  67  94 130 175 213 245 287
#     4   9  17  31  50  72 100 132 166 205 251 305
#     4  11  18  27  47  71  97 127 162 206 255 299
#     4  10  20  32  49  77 109 136 161 196 252 318
#
# _framework density 19.951245
#
# number of rings (size 3 to 8) (size 9 to 14) (size 15 to 20)
#    0.000    2.400    0.000    6.600    0.000    5.600 
#    0.000    0.000    0.000    4.800    0.000    0.000 
#    0.000    0.000    0.000    0.000    0.000    0.400 
#
# Total GULP energy -223071.732690 kJ/mol
# GULP energy per Si atom -5576.793317 kJ/mol
# Density = 1.990583 g / cm^3
# Si number density = 19.951245 Si / 1000 Ang^3
#
#
#
# Elastic Constant Matrix: (Units=GPa)
#
#
# Indices 1 2 3 4 5 6 
#
# 1 69.2158 14.3303 8.7447 0.0000 0.0000 0.0000
# 2 14.3303 94.3455 39.7416 -0.0002 0.0000 0.0000
# 3 8.7447 39.7416 31.0444 -0.0003 0.0000 0.0000
# 4 0.0000 -0.0002 -0.0003 2.2576 0.0000 0.0001
# 5 0.0000 0.0000 0.0000 0.0000 13.1201 0.0000
# 6 0.0000 0.0000 0.0000 0.0001 0.0000 -5.2083
#
#
#
# Elastic Compliance Matrix: (Units=1/GPa)
#
#
# Indices 1 2 3 4 5 6 
#
# 1 0.015032 -0.001084 -0.002846 0.000000 0.000000 0.000000
# 2 -0.001084 0.023082 -0.029244 -0.000001 0.000000 0.000000
# 3 -0.002846 -0.029244 0.070450 0.000006 0.000000 0.000000
# 4 0.000000 -0.000001 0.000006 0.442939 0.000000 0.000005
# 5 0.000000 0.000000 0.000000 0.000000 0.076219 0.000000
# 6 0.000000 0.000000 0.000000 0.000005 0.000000 -0.192002
#
#
# Mechanical properties :
#
#
# Convention : Reuss Voigt Hill
#
# Bulk Modulus (GPa) = 23.68772 35.58211 29.63491
# Shear Modulus (GPa) = 9.68731 10.81985 10.25358
#
# Velocity S-wave (km/s) = 2.20591 2.33129 2.26947
# Velocity P-wave (km/s) = 4.28796 5.01197 4.66403
#
# Compressibility (1/GPa) = 0.04221597
#
# Stress axis : x y z
#
# Youngs Moduli (GPa) = 66.52635 43.32289 14.19448
#
# Poissons Ratio (x) = 0.04698 0.04040
# Poissons Ratio (y) = 0.07214 0.41510
# Poissons Ratio (z) = 0.18934 1.26692
#
# Static dielectric constant tensor:
#      x y z
#    x 1.768560 0.000000 0.000000 
#    y 0.000000 1.712410 0.000000 
#    z 0.000000 0.000000 1.710720 
# 
# From -- ./inp_files/35066.got.cif
#   From: 2010.05.17/outbox.cif.g08.bks.cpg/sg74_18_cif.got.tgz:35066.got - 2010.06.03 17:57:02.
