data_PCOD9537748
_publ_section_title
;
Structure prediction by ZEFSAII (Michael W. Deem and Ramdas Pophale) SiO2 
 PCOD9537748
Probable space group: I M M A
;
_chemical_formula_sum "Si O2"
_cell_formula_units_Z 104
_cell_length_a 26.441446
_cell_length_b 24.310760
_cell_length_c 7.587315
_cell_angle_alpha 90.000000
_cell_angle_beta 90.000000
_cell_angle_gamma 90.000000
_cell_volume 4877.214457
_symmetry_space_group_name_H-M "I M M A"
_symmetry_group_IT_number 74
_symmetry_cell_setting 'orthorhombic'
loop_
_space_group_symop_operation_xyz
x,y,z
-x,1/2-y,z
x,-y,-z
-x,1/2+y,-z
-x,-y,-z
x,1/2+y,-z
-x,y,z
x,1/2-y,z
1/2+x,1/2+y,1/2+z
1/2-x,-y,1/2+z
1/2+x,1/2-y,1/2-z
1/2-x,y,1/2-z
1/2-x,1/2-y,1/2-z
1/2+x,y,1/2-z
1/2-x,1/2+y,1/2+z
1/2+x,-y,1/2+z
loop_
_atom_site_type_symbol
_atom_site_label
_atom_site_fract_x
_atom_site_fract_y
_atom_site_fract_z
Si Si1 0.847564 0.935514 0.533602
Si Si2 0.558476 0.250000 0.871212
Si Si3 0.390535 0.750000 0.489725
Si Si4 0.444579 0.628681 0.984237
Si Si5 0.443204 0.364937 0.433421
Si Si6 0.148506 0.564179 0.956716
Si Si7 0.728929 0.750000 0.550512
Si Si8 0.251621 0.371049 0.466750
O O1 0.897739 0.907868 0.454080
O O2 0.849932 0.929243 0.745093
O O3 0.797603 0.903781 0.472155
O O4 0.844578 0.000000 0.500000
O O5 0.500000 0.250000 0.801082
O O6 0.600045 0.250000 0.719242
O O7 0.563834 0.193326 0.977483
O O8 0.418581 0.695246 0.554391
O O9 0.332167 0.750000 0.545925
O O10 0.500000 0.613445 0.056683
O O11 0.447031 0.621969 0.773653
O O12 0.500000 0.365432 0.508042
O O13 0.403671 0.407575 0.517180
O O14 0.197452 0.597458 0.022254
O O15 0.151248 0.500000 0.000000
O O16 0.750000 0.750000 0.750000
O O17 0.747322 0.807855 0.472673
O O18 0.250000 0.370601 0.250000
#
# Coordination Sequence:
#
# PCOD9537748 Si02
#       8
#    16   8   8  16  16  16   8  16
#     4  10  21  36  57  83 105 147 203 242 274 343
#     4  10  21  37  58  86 123 161 187 231 301 358
#     4  12  21  35  59  91 118 145 185 238 294 349
#     4   9  20  38  58  81 115 156 195 235 290 352
#     4  10  20  35  57  87 113 147 198 242 283 349
#     4  10  20  35  56  79 113 152 186 238 297 343
#     4  10  20  34  59  88 112 147 186 226 284 354
#     4   9  18  35  56  82 109 145 189 230 285 346
#
# _framework density 21.323647999999999
#
# number of rings (size 3 to 8) (size 9 to 14) (size 15 to 20)
#    0.000    2.154    1.538    1.615    2.154    3.692 
#    0.000    0.000    0.000    0.923    0.000    0.000 
#    0.000    0.000    0.000    0.000    0.000    0.000 
#
# Total GULP energy -290425.183057 kJ/mol
# GULP energy per Si atom -5585.099674 kJ/mol
# Density = 2.127511 g / cm^3
# Si number density = 21.323648 Si / 1000 Ang^3
#
#
#
# Elastic Constant Matrix: (Units=GPa)
#
#
# Indices 1 2 3 4 5 6 
#
# 1 211.0875 124.3434 23.0365 0.0000 0.0000 0.0000
# 2 124.3434 194.7454 -7.5062 0.0000 0.0000 0.0000
# 3 23.0365 -7.5062 47.8174 0.0000 0.0000 0.0000
# 4 0.0000 0.0000 0.0000 64.3437 0.0000 0.0000
# 5 0.0000 0.0000 0.0000 0.0000 4.3259 0.0000
# 6 0.0000 0.0000 0.0000 0.0000 0.0000 32.2492
#
#
#
# Elastic Compliance Matrix: (Units=1/GPa)
#
#
# Indices 1 2 3 4 5 6 
#
# 1 0.008665 -0.005728 -0.005074 0.000000 0.000000 0.000000
# 2 -0.005728 0.008953 0.004165 0.000000 0.000000 0.000000
# 3 -0.005074 0.004165 0.024011 0.000000 0.000000 0.000000
# 4 0.000000 0.000000 0.000000 0.015542 0.000000 0.000000
# 5 0.000000 0.000000 0.000000 0.000000 0.231164 0.000000
# 6 0.000000 0.000000 0.000000 0.000000 0.000000 0.031009
#
#
# Mechanical properties :
#
#
# Convention : Reuss Voigt Hill
#
# Bulk Modulus (GPa) = 35.26686 81.48865 58.37776
# Shear Modulus (GPa) = 14.61688 41.10220 27.85954
#
# Velocity S-wave (km/s) = 2.62100 4.39514 3.61849
# Velocity P-wave (km/s) = 5.07290 8.00340 6.70033
#
# Compressibility (1/GPa) = 0.02835523
#
# Stress axis : x y z
#
# Youngs Moduli (GPa) = 115.40030 111.69441 41.64735
#
# Poissons Ratio (x) = 0.63983 0.21132
# Poissons Ratio (y) = 0.66106 -0.17347
# Poissons Ratio (z) = 0.58553 -0.46522
#
# Static dielectric constant tensor:
#      x y z
#    x 1.781630 0.000000 0.000000 
#    y 0.000000 1.730030 0.000000 
#    z 0.000000 0.000000 1.807660 
# 
# From -- ./inp_files/15270.got.cif
#   From: 2010.05.17/outbox.cif.g08.bks.cpg/sg74_8_cif.got.tgz:15270.got - 2010.06.03 17:57:02.
