data_PCOD9537358
_publ_section_title
;
Structure prediction by ZEFSAII (Michael W. Deem and Ramdas Pophale) SiO2 
 PCOD9537358
Probable space group: I M M A
;
_chemical_formula_sum "Si O2"
_cell_formula_units_Z 96
_cell_length_a 16.444742
_cell_length_b 18.728709
_cell_length_c 14.344682
_cell_angle_alpha 90.000000
_cell_angle_beta 90.000000
_cell_angle_gamma 90.000000
_cell_volume 4418.001216
_symmetry_space_group_name_H-M "I M M A"
_symmetry_group_IT_number 74
_symmetry_cell_setting 'orthorhombic'
loop_
_space_group_symop_operation_xyz
x,y,z
-x,1/2-y,z
x,-y,-z
-x,1/2+y,-z
-x,-y,-z
x,1/2+y,-z
-x,y,z
x,1/2-y,z
1/2+x,1/2+y,1/2+z
1/2-x,-y,1/2+z
1/2+x,1/2-y,1/2-z
1/2-x,y,1/2-z
1/2-x,1/2-y,1/2-z
1/2+x,y,1/2-z
1/2-x,1/2+y,1/2+z
1/2+x,-y,1/2+z
loop_
_atom_site_type_symbol
_atom_site_label
_atom_site_fract_x
_atom_site_fract_y
_atom_site_fract_z
Si Si1 0.742552 0.831790 0.861095
Si Si2 0.500000 0.023604 0.157404
Si Si3 0.168378 0.127938 0.602203
Si Si4 0.090720 0.163725 0.791030
Si Si5 0.000000 0.385220 0.521624
Si Si6 0.678095 0.477130 0.173293
Si Si7 0.160382 0.830716 0.023176
O O1 0.720574 0.750000 0.888574
O O2 0.750000 0.829213 0.750000
O O3 0.686476 0.900523 0.877247
O O4 0.825269 0.852757 0.916495
O O5 0.414568 0.020886 0.211529
O O6 0.500000 0.956007 0.087216
O O7 0.500000 0.090391 0.085598
O O8 0.153414 0.141982 0.711736
O O9 0.085053 0.150865 0.550961
O O10 0.247512 0.166250 0.563286
O O11 0.183742 0.042723 0.601358
O O12 0.093582 0.250000 0.795211
O O13 0.109791 0.133783 0.893969
O O14 0.000000 0.142524 0.762342
O O15 0.750000 0.483370 0.250000
O O16 0.129378 0.750000 0.016799
#
# Coordination Sequence:
#
# PCOD9537358 Si02
#       7
#    16   8  16  16   8  16  16
#     4   9  19  37  58  78 104 138 185 241 288 327
#     4   9  18  32  49  77 110 135 180 232 271 335
#     4  11  19  33  52  84 116 146 184 223 273 342
#     4  10  20  34  52  79 119 157 186 220 268 334
#     4   9  18  30  49  75 108 145 176 222 275 315
#     4  10  20  34  56  82 108 149 186 230 290 342
#     4  10  20  33  54  81 110 149 188 227 276 332
#
# _framework density 21.729282999999999
#
# number of rings (size 3 to 8) (size 9 to 14) (size 15 to 20)
#    0.000    2.167    0.833    3.000    0.000    3.333 
#    0.000    0.417    7.333    3.000    0.000    5.833 
#    0.000    0.000    0.000    0.000    0.000    0.000 
#
# Total GULP energy -267342.212023 kJ/mol
# GULP energy per Si atom -5569.629417 kJ/mol
# Density = 2.167983 g / cm^3
# Si number density = 21.729283 Si / 1000 Ang^3
#
#
#
# Elastic Constant Matrix: (Units=GPa)
#
#
# Indices 1 2 3 4 5 6 
#
# 1 80.6535 -0.5655 15.3998 0.0000 0.0000 0.0000
# 2 -0.5655 78.4461 0.9759 0.0000 0.0000 0.0000
# 3 15.3998 0.9759 109.6107 0.0000 0.0000 0.0000
# 4 0.0000 0.0000 0.0000 18.1716 0.0000 0.0000
# 5 0.0000 0.0000 0.0000 0.0000 36.1795 0.0000
# 6 0.0000 0.0000 0.0000 0.0000 0.0000 17.4348
#
#
#
# Elastic Compliance Matrix: (Units=1/GPa)
#
#
# Indices 1 2 3 4 5 6 
#
# 1 0.012742 0.000114 -0.001791 0.000000 0.000000 0.000000
# 2 0.000114 0.012750 -0.000130 0.000000 0.000000 0.000000
# 3 -0.001791 -0.000130 0.009376 0.000000 0.000000 0.000000
# 4 0.000000 0.000000 0.000000 0.055031 0.000000 0.000000
# 5 0.000000 0.000000 0.000000 0.000000 0.027640 0.000000
# 6 0.000000 0.000000 0.000000 0.000000 0.000000 0.057357
#
#
# Mechanical properties :
#
#
# Convention : Reuss Voigt Hill
#
# Bulk Modulus (GPa) = 31.99545 33.37007 32.68276
# Shear Modulus (GPa) = 26.46537 31.21720 28.84128
#
# Velocity S-wave (km/s) = 3.49371 3.79442 3.64717
# Velocity P-wave (km/s) = 5.57057 5.88110 5.72794
#
# Compressibility (1/GPa) = 0.03125445
#
# Stress axis : x y z
#
# Youngs Moduli (GPa) = 78.48361 78.43109 106.65534
#
# Poissons Ratio (x) = -0.00895 0.19103
# Poissons Ratio (y) = -0.00896 0.01382
# Poissons Ratio (z) = 0.14058 0.01016
#
# Static dielectric constant tensor:
#      x y z
#    x 1.819230 0.000000 0.000000 
#    y 0.000000 1.855740 0.000000 
#    z 0.000000 0.000000 1.882300 
# 
# From -- ./inp_files/32636.got.cif
#   From: 2010.05.17/outbox.cif.g08.bks.cpg/sg74_17_cif.got.tgz:32636.got - 2010.06.03 17:57:02.
