data_PCOD9537904
_publ_section_title
;
Structure prediction by ZEFSAII (Michael W. Deem and Ramdas Pophale) SiO2 
 PCOD9537904
Probable space group: I M M A
;
_chemical_formula_sum "Si O2"
_cell_formula_units_Z 104
_cell_length_a 21.271085
_cell_length_b 8.454924
_cell_length_c 30.948549
_cell_angle_alpha 90.000000
_cell_angle_beta 90.000000
_cell_angle_gamma 90.000000
_cell_volume 5565.954393
_symmetry_space_group_name_H-M "I M M A"
_symmetry_group_IT_number 74
_symmetry_cell_setting 'orthorhombic'
loop_
_space_group_symop_operation_xyz
x,y,z
-x,1/2-y,z
x,-y,-z
-x,1/2+y,-z
-x,-y,-z
x,1/2+y,-z
-x,y,z
x,1/2-y,z
1/2+x,1/2+y,1/2+z
1/2-x,-y,1/2+z
1/2+x,1/2-y,1/2-z
1/2-x,y,1/2-z
1/2-x,1/2-y,1/2-z
1/2+x,y,1/2-z
1/2-x,1/2+y,1/2+z
1/2+x,-y,1/2+z
loop_
_atom_site_type_symbol
_atom_site_label
_atom_site_fract_x
_atom_site_fract_y
_atom_site_fract_z
Si Si1 0.686787 0.558969 0.775896
Si Si2 0.427781 0.559680 0.454949
Si Si3 0.138786 0.439452 0.549341
Si Si4 0.428435 0.441025 0.719500
Si Si5 0.000000 0.059458 0.549108
Si Si6 0.859438 0.941563 0.131717
Si Si7 0.718369 0.061575 0.128963
O O1 0.688494 0.750000 0.775448
O O2 0.750000 0.505040 0.750000
O O3 0.623945 0.502682 0.752352
O O4 0.687492 0.505916 0.825851
O O5 0.400349 0.500000 0.500000
O O6 0.500000 0.503909 0.452196
O O7 0.428466 0.750000 0.455330
O O8 0.390480 0.507472 0.413107
O O9 0.149002 0.500000 0.500000
O O10 0.139206 0.250000 0.546932
O O11 0.188541 0.492361 0.585291
O O12 0.068705 0.492876 0.565451
O O13 0.500000 0.496067 0.726928
O O14 0.428917 0.250000 0.721401
O O15 0.403524 0.486071 0.671867
O O16 0.000000 0.250000 0.550647
O O17 0.000000 0.000000 0.500000
O O18 0.853926 0.750000 0.131857
O O19 0.790930 0.015255 0.134396
O O20 0.712257 0.250000 0.126558
#
# Coordination Sequence:
#
# PCOD9537904 Si02
#       7
#    16  16  16  16   8  16  16
#     4  10  21  40  61  82 114 154 193 236 287 342
#     4   9  18  33  52  75 106 142 179 222 270 321
#     4  10  20  37  60  86 116 148 186 231 282 337
#     4  10  21  37  60  89 115 143 187 241 293 347
#     4   8  16  32  56  82 108 142 180 224 274 330
#     4  10  20  35  56  80 109 146 186 229 282 338
#     4  11  23  38  57  82 113 149 190 232 277 333
#
# _framework density 18.685026000000001
#
# number of rings (size 3 to 8) (size 9 to 14) (size 15 to 20)
#    0.000    2.154    1.538    1.385    0.000    5.538 
#    1.385    1.538    0.000    2.769    0.000    0.000 
#    0.000    0.000    0.000    0.000    0.000    0.000 
#
# Total GULP energy -290007.090265 kJ/mol
# GULP energy per Si atom -5577.059428 kJ/mol
# Density = 1.864250 g / cm^3
# Si number density = 18.685026 Si / 1000 Ang^3
#
#
#
# Elastic Constant Matrix: (Units=GPa)
#
#
# Indices 1 2 3 4 5 6 
#
# 1 125.8365 18.5528 73.3648 0.0000 0.0000 0.0000
# 2 18.5528 14.7904 27.1342 0.0000 0.0000 0.0000
# 3 73.3648 27.1342 154.2359 0.0000 0.0000 0.0000
# 4 0.0000 0.0000 0.0000 24.8879 0.0000 0.0000
# 5 0.0000 0.0000 0.0000 0.0000 37.4940 0.0000
# 6 0.0000 0.0000 0.0000 0.0000 0.0000 19.3370
#
#
#
# Elastic Compliance Matrix: (Units=1/GPa)
#
#
# Indices 1 2 3 4 5 6 
#
# 1 0.011395 -0.006423 -0.004290 0.000000 0.000000 0.000000
# 2 -0.006423 0.103453 -0.015145 0.000000 0.000000 0.000000
# 3 -0.004290 -0.015145 0.011189 0.000000 0.000000 0.000000
# 4 0.000000 0.000000 0.000000 0.040180 0.000000 0.000000
# 5 0.000000 0.000000 0.000000 0.000000 0.026671 0.000000
# 6 0.000000 0.000000 0.000000 0.000000 0.000000 0.051714
#
#
# Mechanical properties :
#
#
# Convention : Reuss Voigt Hill
#
# Bulk Modulus (GPa) = 13.45525 59.21847 36.33686
# Shear Modulus (GPa) = 15.57186 28.06452 21.81819
#
# Velocity S-wave (km/s) = 2.88998 3.87974 3.42085
# Velocity P-wave (km/s) = 4.28400 7.19942 5.92386
#
# Compressibility (1/GPa) = 0.07432045
#
# Stress axis : x y z
#
# Youngs Moduli (GPa) = 87.75702 9.66623 89.37566
#
# Poissons Ratio (x) = 0.06208 0.38345
# Poissons Ratio (y) = 0.56365 1.35359
# Poissons Ratio (z) = 0.37650 0.14639
#
# Static dielectric constant tensor:
#      x y z
#    x 1.650150 0.000000 0.000000 
#    y 0.000000 1.646740 0.000000 
#    z 0.000000 0.000000 1.637420 
# 
# From -- ./inp_files/68237.got.cif
#   From: 2010.05.17/outbox.cif.g08.bks.cpg/sg74_35_cif.got.tgz:68237.got - 2010.06.03 17:57:02.
