data_PCOD9537594
_publ_section_title
;
Structure prediction by ZEFSAII (Michael W. Deem and Ramdas Pophale) SiO2 
 PCOD9537594
Probable space group: I M M A
;
_chemical_formula_sum "Si O2"
_cell_formula_units_Z 80
_cell_length_a 8.037183
_cell_length_b 15.919116
_cell_length_c 35.287458
_cell_angle_alpha 90.000000
_cell_angle_beta 90.000000
_cell_angle_gamma 90.000000
_cell_volume 4514.848467
_symmetry_space_group_name_H-M "I M M A"
_symmetry_group_IT_number 74
_symmetry_cell_setting 'orthorhombic'
loop_
_space_group_symop_operation_xyz
x,y,z
-x,1/2-y,z
x,-y,-z
-x,1/2+y,-z
-x,-y,-z
x,1/2+y,-z
-x,y,z
x,1/2-y,z
1/2+x,1/2+y,1/2+z
1/2-x,-y,1/2+z
1/2+x,1/2-y,1/2-z
1/2-x,y,1/2-z
1/2-x,1/2-y,1/2-z
1/2+x,y,1/2-z
1/2-x,1/2+y,1/2+z
1/2+x,-y,1/2+z
loop_
_atom_site_type_symbol
_atom_site_label
_atom_site_fract_x
_atom_site_fract_y
_atom_site_fract_z
Si Si1 0.181625 0.896986 0.635082
Si Si2 0.694056 0.513536 0.706866
Si Si3 0.689083 0.073711 0.910552
Si Si4 0.000000 0.159263 0.092087
Si Si5 0.200507 0.343634 0.667354
Si Si6 0.500000 0.513868 0.455362
O O1 0.336981 0.847480 0.618412
O O2 0.000000 0.857629 0.630180
O O3 0.209457 0.925004 0.678343
O O4 0.182006 0.984779 0.611710
O O5 0.500000 0.532459 0.703206
O O6 0.750000 0.520713 0.750000
O O7 0.723825 0.418555 0.691931
O O8 0.500000 0.091124 0.924488
O O9 0.734727 0.138719 0.877106
O O10 0.834640 0.062741 0.941075
O O11 0.000000 0.077905 0.064934
O O12 0.000000 0.250000 0.072308
O O13 0.254970 0.250000 0.678066
O O14 0.000000 0.348991 0.671395
O O15 0.500000 0.500000 0.500000
#
# Coordination Sequence:
#
# PCOD9537594 Si02
#       6
#    16  16  16   8  16   8
#     4   9  17  33  54  77 100 132 177 218 256 311
#     4  11  20  31  48  74 102 137 181 221 266 317
#     4   8  16  31  51  72  98 134 178 216 253 306
#     4  10  20  36  58  82 108 136 172 218 266 314
#     4   9  18  32  48  69 100 137 181 228 267 308
#     4  10  20  34  54  80 108 138 172 214 258 314
#
# _framework density 17.719311000000001
#
# number of rings (size 3 to 8) (size 9 to 14) (size 15 to 20)
#    0.000    2.600    1.000    3.000    4.200    1.600 
#    0.000    1.000    0.000    0.600    0.000    0.000 
#    0.000    0.000    0.000    0.000    0.000    0.000 
#
# Total GULP energy -222930.367965 kJ/mol
# GULP energy per Si atom -5573.259199 kJ/mol
# Density = 1.767898 g / cm^3
# Si number density = 17.719311 Si / 1000 Ang^3
#
#
#
# Elastic Constant Matrix: (Units=GPa)
#
#
# Indices 1 2 3 4 5 6 
#
# 1 112.3005 3.3909 43.5815 0.0000 0.0000 0.0000
# 2 3.3909 38.0179 -5.3410 0.0000 0.0000 0.0000
# 3 43.5815 -5.3410 92.2057 0.0000 0.0000 0.0000
# 4 0.0000 0.0000 0.0000 10.5719 0.0000 0.0000
# 5 0.0000 0.0000 0.0000 0.0000 21.4888 0.0000
# 6 0.0000 0.0000 0.0000 0.0000 0.0000 -180.4483
#
#
#
# Elastic Compliance Matrix: (Units=1/GPa)
#
#
# Indices 1 2 3 4 5 6 
#
# 1 0.011016 -0.001728 -0.005307 0.000000 0.000000 0.000000
# 2 -0.001728 0.026790 0.002369 0.000000 0.000000 0.000000
# 3 -0.005307 0.002369 0.013491 0.000000 0.000000 0.000000
# 4 0.000000 0.000000 0.000000 0.094590 0.000000 0.000000
# 5 0.000000 0.000000 0.000000 0.000000 0.046536 0.000000
# 6 0.000000 0.000000 0.000000 0.000000 0.000000 -0.005542
#
#
# Mechanical properties :
#
#
# Convention : Reuss Voigt Hill
#
# Bulk Modulus (GPa) = 23.82969 36.19854 30.01412
# Shear Modulus (GPa) = 23.78649 -16.28466 3.75092
#
# Velocity S-wave (km/s) = 3.66786 -3.03485 1.45652
# Velocity P-wave (km/s) = 5.60493 2.86231 4.45017
#
# Compressibility (1/GPa) = 0.04196446
#
# Stress axis : x y z
#
# Youngs Moduli (GPa) = 90.77355 37.32699 74.12382
#
# Poissons Ratio (x) = 0.06451 0.39338
# Poissons Ratio (y) = 0.15687 -0.17557
# Poissons Ratio (z) = 0.48174 -0.08841
#
# Static dielectric constant tensor:
#      x y z
#    x 1.635270 0.000000 0.000000 
#    y 0.000000 1.602260 0.000000 
#    z 0.000000 0.000000 1.578730 
# 
# From -- ./inp_files/70145.got.cif
#   From: 2010.05.17/outbox.cif.g08.bks.cpg/sg74_36_cif.got.tgz:70145.got - 2010.06.03 17:57:02.
