data_PCOD9537928
_publ_section_title
;
Structure prediction by ZEFSAII (Michael W. Deem and Ramdas Pophale) SiO2 
 PCOD9537928
Probable space group: I M M A
;
_chemical_formula_sum "Si O2"
_cell_formula_units_Z 64
_cell_length_a 13.406991
_cell_length_b 11.880192
_cell_length_c 17.533330
_cell_angle_alpha 90.000000
_cell_angle_beta 90.000000
_cell_angle_gamma 90.000000
_cell_volume 2792.667200
_symmetry_space_group_name_H-M "I M M A"
_symmetry_group_IT_number 74
_symmetry_cell_setting 'orthorhombic'
loop_
_space_group_symop_operation_xyz
x,y,z
-x,1/2-y,z
x,-y,-z
-x,1/2+y,-z
-x,-y,-z
x,1/2+y,-z
-x,y,z
x,1/2-y,z
1/2+x,1/2+y,1/2+z
1/2-x,-y,1/2+z
1/2+x,1/2-y,1/2-z
1/2-x,y,1/2-z
1/2-x,1/2-y,1/2-z
1/2+x,y,1/2-z
1/2-x,1/2+y,1/2+z
1/2+x,-y,1/2+z
loop_
_atom_site_type_symbol
_atom_site_label
_atom_site_fract_x
_atom_site_fract_y
_atom_site_fract_z
Si Si1 0.808281 0.130959 0.443066
Si Si2 0.615292 0.592901 0.108579
Si Si3 0.617818 0.879595 0.647650
Si Si4 0.620939 0.624893 0.279769
O O1 0.840385 0.250000 0.412110
O O2 0.825942 0.129193 0.533348
O O3 0.692153 0.115910 0.424217
O O4 0.874214 0.040222 0.400152
O O5 0.500000 0.626088 0.101168
O O6 0.653776 0.627162 0.191069
O O7 0.500000 0.885757 0.630587
O O8 0.633445 0.750000 0.680632
O O9 0.645242 0.998138 0.689939
O O10 0.500000 0.623731 0.279060
O O11 0.646510 0.750000 0.313690
#
# Coordination Sequence:
#
# PCOD9537928 Si02
#       4
#    16  16  16  16
#     4  10  20  35  56  82 114 154 197 239 291 352
#     4  10  21  36  55  84 119 152 192 243 296 350
#     4   9  19  37  60  86 117 152 193 243 294 346
#     4   9  18  35  60  86 114 152 194 238 292 350
#
# _framework density 22.917159000000002
#
# number of rings (size 3 to 8) (size 9 to 14) (size 15 to 20)
#    0.000    2.500    0.000    2.250    0.000    5.000 
#    0.000   15.000    0.000    0.000    0.000    3.500 
#    0.000    4.000    0.000    0.000    0.000    0.000 
#
# Total GULP energy -178138.366245 kJ/mol
# GULP energy per Si atom -5566.823945 kJ/mol
# Density = 2.286500 g / cm^3
# Si number density = 22.917159 Si / 1000 Ang^3
#
#
#
# Elastic Constant Matrix: (Units=GPa)
#
#
# Indices 1 2 3 4 5 6 
#
# 1 85.9896 60.4025 35.1950 0.0000 0.0000 0.0000
# 2 60.4025 243.8053 51.4515 0.0000 0.0000 0.0000
# 3 35.1950 51.4515 72.6359 0.0000 0.0000 0.0000
# 4 0.0000 0.0000 0.0000 -71.7775 0.0000 0.0000
# 5 0.0000 0.0000 0.0000 0.0000 34.1434 0.0000
# 6 0.0000 0.0000 0.0000 0.0000 0.0000 22.8488
#
#
#
# Elastic Compliance Matrix: (Units=1/GPa)
#
#
# Indices 1 2 3 4 5 6 
#
# 1 0.015906 -0.002721 -0.005780 0.000000 0.000000 0.000000
# 2 -0.002721 0.005288 -0.002427 0.000000 0.000000 0.000000
# 3 -0.005780 -0.002427 0.018287 0.000000 0.000000 0.000000
# 4 0.000000 0.000000 0.000000 -0.013932 0.000000 0.000000
# 5 0.000000 0.000000 0.000000 0.000000 0.029288 0.000000
# 6 0.000000 0.000000 0.000000 0.000000 0.000000 0.043766
#
#
# Mechanical properties :
#
#
# Convention : Reuss Voigt Hill
#
# Bulk Modulus (GPa) = 56.73676 77.39209 67.06442
# Shear Modulus (GPa) = 39.57726 14.06840 26.82283
#
# Velocity S-wave (km/s) = 4.16019 2.48035 3.42486
# Velocity P-wave (km/s) = 6.92007 6.48433 6.70574
#
# Compressibility (1/GPa) = 0.01762526
#
# Stress axis : x y z
#
# Youngs Moduli (GPa) = 62.86806 189.10692 54.68299
#
# Poissons Ratio (x) = 0.51457 0.31606
# Poissons Ratio (y) = 0.17107 0.13273
# Poissons Ratio (z) = 0.36337 0.45902
#
# Static dielectric constant tensor:
#      x y z
#    x 1.872180 0.000000 0.000000 
#    y 0.000000 2.004240 0.000000 
#    z 0.000000 0.000000 1.815870 
# 
# From -- ./inp_files/42258.got.cif
#   From: 2010.05.17/outbox.cif.g08.bks.cpg/sg74_22_cif.got.tgz:42258.got - 2010.06.03 17:57:02.
