data_PCOD9537083
_publ_section_title
;
Structure prediction by ZEFSAII (Michael W. Deem and Ramdas Pophale) SiO2 
 PCOD9537083
Probable space group: I M M A
;
_chemical_formula_sum "Si O2"
_cell_formula_units_Z 56
_cell_length_a 10.883573
_cell_length_b 14.517816
_cell_length_c 17.660130
_cell_angle_alpha 90.000000
_cell_angle_beta 90.000000
_cell_angle_gamma 90.000000
_cell_volume 2790.401384
_symmetry_space_group_name_H-M "I M M A"
_symmetry_group_IT_number 74
_symmetry_cell_setting 'orthorhombic'
loop_
_space_group_symop_operation_xyz
x,y,z
-x,1/2-y,z
x,-y,-z
-x,1/2+y,-z
-x,-y,-z
x,1/2+y,-z
-x,y,z
x,1/2-y,z
1/2+x,1/2+y,1/2+z
1/2-x,-y,1/2+z
1/2+x,1/2-y,1/2-z
1/2-x,y,1/2-z
1/2-x,1/2-y,1/2-z
1/2+x,y,1/2-z
1/2-x,1/2+y,1/2+z
1/2+x,-y,1/2+z
loop_
_atom_site_type_symbol
_atom_site_label
_atom_site_fract_x
_atom_site_fract_y
_atom_site_fract_z
Si Si1 0.631953 0.750000 0.195558
Si Si2 0.718059 0.941990 0.162043
Si Si3 0.633101 0.087170 0.056603
Si Si4 0.137348 0.145135 0.964700
O O1 0.500000 0.750000 0.236329
O O2 0.750000 0.750000 0.250000
O O3 0.640918 0.846674 0.151032
O O4 0.750000 0.946763 0.250000
O O5 0.830770 0.923075 0.104591
O O6 0.653882 0.035560 0.136009
O O7 0.500000 0.134927 0.054020
O O8 0.754770 0.137776 0.027002
O O9 0.625905 0.000000 0.000000
O O10 0.138889 0.250000 0.935086
O O11 0.000000 0.126527 0.994087
#
# Coordination Sequence:
#
# PCOD9537083 Si02
#       4
#     8  16  16  16
#     4  10  20  32  48  74 110 146 173 208 257 316
#     4  10  20  34  54  83 112 145 176 221 270 325
#     4   9  19  35  53  77 108 144 184 222 263 318
#     4  10  21  37  56  80 108 142 183 223 268 323
#
# _framework density 20.068798000000001
#
# number of rings (size 3 to 8) (size 9 to 14) (size 15 to 20)
#    0.000    2.286    1.429    0.857    0.000   12.571 
#    0.000    0.000    0.000    0.857    0.000    0.000 
#    0.000    0.000    0.000    0.000    0.000    0.000 
#
# Total GULP energy -155896.583867 kJ/mol
# GULP energy per Si atom -5567.735138 kJ/mol
# Density = 2.002312 g / cm^3
# Si number density = 20.068798 Si / 1000 Ang^3
#
#
#
# Elastic Constant Matrix: (Units=GPa)
#
#
# Indices 1 2 3 4 5 6 
#
# 1 191.7808 27.8150 36.2166 0.0000 0.0000 0.0000
# 2 27.8150 36.0001 16.8924 0.0000 0.0000 0.0000
# 3 36.2166 16.8924 79.5529 0.0000 0.0000 0.0000
# 4 0.0000 0.0000 0.0000 27.8335 0.0000 0.0000
# 5 0.0000 0.0000 0.0000 0.0000 14.2153 0.0000
# 6 0.0000 0.0000 0.0000 0.0000 0.0000 26.4174
#
#
#
# Elastic Compliance Matrix: (Units=1/GPa)
#
#
# Indices 1 2 3 4 5 6 
#
# 1 0.006143 -0.003814 -0.001987 0.000000 0.000000 0.000000
# 2 -0.003814 0.033220 -0.005318 0.000000 0.000000 0.000000
# 3 -0.001987 -0.005318 0.014604 0.000000 0.000000 0.000000
# 4 0.000000 0.000000 0.000000 0.035928 0.000000 0.000000
# 5 0.000000 0.000000 0.000000 0.000000 0.070347 0.000000
# 6 0.000000 0.000000 0.000000 0.000000 0.000000 0.037854
#
#
# Mechanical properties :
#
#
# Convention : Reuss Voigt Hill
#
# Bulk Modulus (GPa) = 31.51604 52.13131 41.82367
# Shear Modulus (GPa) = 21.65369 28.78721 25.22045
#
# Velocity S-wave (km/s) = 3.28834 3.79149 3.54884
# Velocity P-wave (km/s) = 5.49141 6.72309 6.13822
#
# Compressibility (1/GPa) = 0.03172988
#
# Stress axis : x y z
#
# Youngs Moduli (GPa) = 162.79799 30.10270 68.47533
#
# Poissons Ratio (x) = 0.11481 0.13603
# Poissons Ratio (y) = 0.62088 0.36413
# Poissons Ratio (z) = 0.32341 0.16008
#
# Static dielectric constant tensor:
#      x y z
#    x 1.815390 0.000000 0.000000 
#    y 0.000000 1.759040 0.000000 
#    z 0.000000 0.000000 1.758130 
# 
# From -- ./inp_files/38834.got.cif
#   From: 2010.05.17/outbox.cif.g08.bks.cpg/sg74_20_cif.got.tgz:38834.got - 2010.06.03 17:57:02.
