data_PCOD9537332
_publ_section_title
;
Structure prediction by ZEFSAII (Michael W. Deem and Ramdas Pophale) SiO2 
 PCOD9537332
Probable space group: I M M A
;
_chemical_formula_sum "Si O2"
_cell_formula_units_Z 120
_cell_length_a 29.060578
_cell_length_b 13.672020
_cell_length_c 13.630184
_cell_angle_alpha 90.000000
_cell_angle_beta 90.000000
_cell_angle_gamma 90.000000
_cell_volume 5415.501140
_symmetry_space_group_name_H-M "I M M A"
_symmetry_group_IT_number 74
_symmetry_cell_setting 'orthorhombic'
loop_
_space_group_symop_operation_xyz
x,y,z
-x,1/2-y,z
x,-y,-z
-x,1/2+y,-z
-x,-y,-z
x,1/2+y,-z
-x,y,z
x,1/2-y,z
1/2+x,1/2+y,1/2+z
1/2-x,-y,1/2+z
1/2+x,1/2-y,1/2-z
1/2-x,y,1/2-z
1/2-x,1/2-y,1/2-z
1/2+x,y,1/2-z
1/2-x,1/2+y,1/2+z
1/2+x,-y,1/2+z
loop_
_atom_site_type_symbol
_atom_site_label
_atom_site_fract_x
_atom_site_fract_y
_atom_site_fract_z
Si Si1 0.197207 0.909265 0.240582
Si Si2 0.407152 0.865793 0.554514
Si Si3 0.750000 0.597161 0.750000
Si Si4 0.105937 0.432193 0.651577
Si Si5 0.280771 0.143096 0.038482
Si Si6 0.385122 0.634775 0.941429
Si Si7 0.554649 0.443411 0.649573
Si Si8 0.312653 0.136748 0.527739
O O1 0.250000 0.868413 0.250000
O O2 0.175027 0.870988 0.141160
O O3 0.207548 0.024464 0.229529
O O4 0.159225 0.901690 0.324802
O O5 0.409859 0.750000 0.579794
O O6 0.429031 0.883239 0.446603
O O7 0.353641 0.897930 0.541046
O O8 0.430415 0.943942 0.626376
O O9 0.738057 0.649143 0.850323
O O10 0.093161 0.379821 0.549398
O O11 0.098527 0.548900 0.631245
O O12 0.077728 0.408474 0.749496
O O13 0.287792 0.250000 0.993972
O O14 0.331560 0.103211 0.045945
O O15 0.238956 0.095495 0.979848
O O16 0.387547 0.750000 0.911547
O O17 0.500000 0.437988 0.656289
O O18 0.307852 0.250000 0.501073
#
# Coordination Sequence:
#
# PCOD9537332 Si02
#       8
#    16  16   8  16  16  16  16  16
#     4  10  20  33  52  82 114 158 196 242 289 345
#     4  10  22  40  64  94 128 161 200 249 308 374
#     4  10  21  30  49  80 110 158 208 238 293 344
#     4  11  22  41  61  90 120 155 208 255 301 366
#     4  10  20  34  52  80 121 162 203 243 286 351
#     4  10  22  40  62  87 123 166 205 250 302 357
#     4  11  25  43  66  92 120 159 202 255 323 377
#     4  10  21  34  52  83 119 158 198 244 292 344
#
# _framework density 22.158614
#
# number of rings (size 3 to 8) (size 9 to 14) (size 15 to 20)
#    0.400    1.333    2.667    1.800    1.867    3.467 
#    0.000    1.333    0.000    0.800    0.000    0.000 
#    0.000    0.000    0.000    0.000    0.000    0.000 
#
# Total GULP energy -334487.190187 kJ/mol
# GULP energy per Si atom -5574.786503 kJ/mol
# Density = 2.210818 g / cm^3
# Si number density = 22.158614 Si / 1000 Ang^3
#
#
#
# Elastic Constant Matrix: (Units=GPa)
#
#
# Indices 1 2 3 4 5 6 
#
# 1 47.4121 -19.0274 3.1523 0.0000 0.0000 0.0000
# 2 -19.0274 72.0158 -24.2591 0.0000 0.0000 0.0000
# 3 3.1523 -24.2591 79.7549 0.0000 0.0000 0.0000
# 4 0.0000 0.0000 0.0000 17.7356 0.0000 0.0000
# 5 0.0000 0.0000 0.0000 0.0000 19.7209 0.0000
# 6 0.0000 0.0000 0.0000 0.0000 0.0000 9.9186
#
#
#
# Elastic Compliance Matrix: (Units=1/GPa)
#
#
# Indices 1 2 3 4 5 6 
#
# 1 0.023676 0.006618 0.001077 0.000000 0.000000 0.000000
# 2 0.006618 0.017321 0.005007 0.000000 0.000000 0.000000
# 3 0.001077 0.005007 0.014019 0.000000 0.000000 0.000000
# 4 0.000000 0.000000 0.000000 0.056384 0.000000 0.000000
# 5 0.000000 0.000000 0.000000 0.000000 0.050708 0.000000
# 6 0.000000 0.000000 0.000000 0.000000 0.000000 0.100821
#
#
# Mechanical properties :
#
#
# Convention : Reuss Voigt Hill
#
# Bulk Modulus (GPa) = 12.43448 13.21272 12.82360
# Shear Modulus (GPa) = 18.91576 25.42949 22.17262
#
# Velocity S-wave (km/s) = 2.92490 3.39132 3.16671
# Velocity P-wave (km/s) = 4.12680 4.61632 4.37841
#
# Compressibility (1/GPa) = 0.08042152
#
# Stress axis : x y z
#
# Youngs Moduli (GPa) = 42.23663 57.73289 71.33274
#
# Poissons Ratio (x) = -0.38210 -0.07685
# Poissons Ratio (y) = -0.27954 -0.35716
# Poissons Ratio (z) = -0.04550 -0.28907
#
# Static dielectric constant tensor:
#      x y z
#    x 1.836100 0.000000 0.000000 
#    y 0.000000 1.840340 0.000000 
#    z 0.000000 0.000000 1.841020 
# 
# From -- ./inp_files/37991.got.cif
#   From: 2010.05.17/outbox.cif.g08.bks.cpg/sg74_19_cif.got.tgz:37991.got - 2010.06.03 17:57:02.
