data_PCOD9537859
_publ_section_title
;
Structure prediction by ZEFSAII (Michael W. Deem and Ramdas Pophale) SiO2 
 PCOD9537859
Probable space group: I M M A
;
_chemical_formula_sum "Si O2"
_cell_formula_units_Z 88
_cell_length_a 10.017078
_cell_length_b 23.930784
_cell_length_c 19.789547
_cell_angle_alpha 90.000000
_cell_angle_beta 90.000000
_cell_angle_gamma 90.000000
_cell_volume 4743.881536
_symmetry_space_group_name_H-M "I M M A"
_symmetry_group_IT_number 74
_symmetry_cell_setting 'orthorhombic'
loop_
_space_group_symop_operation_xyz
x,y,z
-x,1/2-y,z
x,-y,-z
-x,1/2+y,-z
-x,-y,-z
x,1/2+y,-z
-x,y,z
x,1/2-y,z
1/2+x,1/2+y,1/2+z
1/2-x,-y,1/2+z
1/2+x,1/2-y,1/2-z
1/2-x,y,1/2-z
1/2-x,1/2-y,1/2-z
1/2+x,y,1/2-z
1/2-x,1/2+y,1/2+z
1/2+x,-y,1/2+z
loop_
_atom_site_type_symbol
_atom_site_label
_atom_site_fract_x
_atom_site_fract_y
_atom_site_fract_z
Si Si1 0.357546 0.490677 0.300235
Si Si2 0.345195 0.347802 0.926788
Si Si3 0.345643 0.643394 0.689386
Si Si4 0.845469 0.953959 0.054488
Si Si5 0.352271 0.185328 0.081062
Si Si6 0.838939 0.750000 0.318628
O O1 0.500000 0.506004 0.271001
O O2 0.250000 0.513944 0.250000
O O3 0.349469 0.423699 0.304027
O O4 0.346483 0.514533 0.374427
O O5 0.500000 0.365400 0.916543
O O6 0.247193 0.400254 0.935575
O O7 0.311619 0.304262 0.866625
O O8 0.340113 0.318324 0.000270
O O9 0.500000 0.663306 0.692068
O O10 0.250000 0.664945 0.750000
O O11 0.268871 0.656717 0.620106
O O12 0.000000 0.938602 0.037045
O O13 0.798810 0.000000 0.000000
O O14 0.500000 0.161571 0.099395
O O15 0.351038 0.250000 0.100980
O O16 0.750000 0.750000 0.250000
O O17 0.000000 0.750000 0.304147
#
# Coordination Sequence:
#
# PCOD9537859 Si02
#       6
#    16  16  16  16  16   8
#     4   9  19  35  54  76 107 144 179 220 272 327
#     4  10  21  39  61  84 114 151 193 241 294 352
#     4  10  20  35  55  80 110 146 186 227 271 323
#     4  10  21  37  57  84 118 151 187 237 293 347
#     4  10  20  36  57  78 105 143 183 227 278 328
#     4  10  22  42  64  88 119 156 199 252 309 362
#
# _framework density 18.550211000000001
#
# number of rings (size 3 to 8) (size 9 to 14) (size 15 to 20)
#    0.000    2.182    0.909    1.636    0.000    6.182 
#    0.000    3.636    0.000    0.000    0.000    0.000 
#    0.000    0.000    0.000    0.000    0.000    0.000 
#
# Total GULP energy -245222.820542 kJ/mol
# GULP energy per Si atom -5573.245921 kJ/mol
# Density = 1.850799 g / cm^3
# Si number density = 18.550211 Si / 1000 Ang^3
#
#
#
# Elastic Constant Matrix: (Units=GPa)
#
#
# Indices 1 2 3 4 5 6 
#
# 1 145.1772 64.2607 70.9136 0.0000 0.0000 0.0000
# 2 64.2607 59.8010 37.2114 0.0000 0.0000 0.0000
# 3 70.9136 37.2114 78.1655 0.0000 0.0000 0.0000
# 4 0.0000 0.0000 0.0000 12.4373 0.0000 0.0000
# 5 0.0000 0.0000 0.0000 0.0000 36.0048 0.0000
# 6 0.0000 0.0000 0.0000 0.0000 0.0000 26.2792
#
#
#
# Elastic Compliance Matrix: (Units=1/GPa)
#
#
# Indices 1 2 3 4 5 6 
#
# 1 0.017025 -0.012339 -0.009572 0.000000 0.000000 0.000000
# 2 -0.012339 0.032703 -0.004375 0.000000 0.000000 0.000000
# 3 -0.009572 -0.004375 0.023560 0.000000 0.000000 0.000000
# 4 0.000000 0.000000 0.000000 0.080403 0.000000 0.000000
# 5 0.000000 0.000000 0.000000 0.000000 0.027774 0.000000
# 6 0.000000 0.000000 0.000000 0.000000 0.000000 0.038053
#
#
# Mechanical properties :
#
#
# Convention : Reuss Voigt Hill
#
# Bulk Modulus (GPa) = 48.26757 69.76835 59.01796
# Shear Modulus (GPa) = 17.92153 22.32811 20.12482
#
# Velocity S-wave (km/s) = 3.11160 3.47314 3.29733
# Velocity P-wave (km/s) = 6.24387 7.33320 6.81035
#
# Compressibility (1/GPa) = 0.02071785
#
# Stress axis : x y z
#
# Youngs Moduli (GPa) = 58.73689 30.57796 42.44569
#
# Poissons Ratio (x) = 0.37730 0.40627
# Poissons Ratio (y) = 0.72474 0.18569
# Poissons Ratio (z) = 0.56220 0.13377
#
# Static dielectric constant tensor:
#      x y z
#    x 1.672690 0.000000 0.000000 
#    y 0.000000 1.741300 0.000000 
#    z 0.000000 0.000000 1.622970 
# 
# From -- ./inp_files/48699.got.cif
#   From: 2010.05.17/outbox.cif.g08.bks.cpg/sg74_25_cif.got.tgz:48699.got - 2010.06.03 17:57:02.
