data_PCOD9537660
_publ_section_title
;
Structure prediction by ZEFSAII (Michael W. Deem and Ramdas Pophale) SiO2 
 PCOD9537660
Probable space group: I M M A
;
_chemical_formula_sum "Si O2"
_cell_formula_units_Z 116
_cell_length_a 16.800500
_cell_length_b 14.923183
_cell_length_c 23.561372
_cell_angle_alpha 90.000000
_cell_angle_beta 90.000000
_cell_angle_gamma 90.000000
_cell_volume 5907.234996
_symmetry_space_group_name_H-M "I M M A"
_symmetry_group_IT_number 74
_symmetry_cell_setting 'orthorhombic'
loop_
_space_group_symop_operation_xyz
x,y,z
-x,1/2-y,z
x,-y,-z
-x,1/2+y,-z
-x,-y,-z
x,1/2+y,-z
-x,y,z
x,1/2-y,z
1/2+x,1/2+y,1/2+z
1/2-x,-y,1/2+z
1/2+x,1/2-y,1/2-z
1/2-x,y,1/2-z
1/2-x,1/2-y,1/2-z
1/2+x,y,1/2-z
1/2-x,1/2+y,1/2+z
1/2+x,-y,1/2+z
loop_
_atom_site_type_symbol
_atom_site_label
_atom_site_fract_x
_atom_site_fract_y
_atom_site_fract_z
Si Si1 0.387977 0.927698 0.452649
Si Si2 0.000000 0.750000 0.045954
Si Si3 0.412322 0.893167 0.999317
Si Si4 0.155407 0.070452 0.127862
Si Si5 0.740132 0.647724 0.520501
Si Si6 0.093537 0.147449 0.241853
Si Si7 0.801680 0.995820 0.302509
Si Si8 0.593343 0.351830 0.867798
O O1 0.431941 0.832301 0.454018
O O2 0.295077 0.910456 0.468764
O O3 0.415785 0.000000 0.500000
O O4 0.391506 0.982633 0.394190
O O5 0.500000 0.860601 0.979815
O O6 0.399715 0.861370 0.064044
O O7 0.332524 0.868998 0.965742
O O8 0.415688 0.000000 0.000000
O O9 0.181482 0.126939 0.072860
O O10 0.108595 0.125129 0.175488
O O11 0.237341 0.038145 0.155613
O O12 0.733911 0.750000 0.504168
O O13 0.118797 0.250000 0.253223
O O14 0.143704 0.075168 0.277097
O O15 0.000000 0.139306 0.254278
O O16 0.750000 0.957339 0.250000
O O17 0.853763 0.922767 0.334686
O O18 0.500000 0.366747 0.854706
O O19 0.614356 0.250000 0.852402
#
# Coordination Sequence:
#
# PCOD9537660 Si02
#       8
#    16   4  16  16  16  16  16  16
#     4  10  22  39  59  88 125 164 204 252 298 359
#     4  12  22  40  60  90 124 168 212 252 304 346
#     4  10  20  34  55  82 117 160 203 246 294 352
#     4  10  22  38  59  85 118 158 192 238 300 358
#     4  11  20  35  55  84 122 159 201 242 295 357
#     4  10  22  41  64  89 114 146 193 248 305 361
#     4  10  21  38  61  84 111 147 191 243 302 358
#     4  10  20  35  57  83 112 151 194 237 289 349
#
# _framework density 19.636935999999999
#
# number of rings (size 3 to 8) (size 9 to 14) (size 15 to 20)
#    0.000    1.793    0.690    4.345    0.966    4.138 
#    2.483    0.690    1.517    0.000    0.000    0.000 
#    0.000    0.000    0.000    0.000    0.000    0.000 
#
# Total GULP energy -323064.519774 kJ/mol
# GULP energy per Si atom -5570.077927 kJ/mol
# Density = 1.959224 g / cm^3
# Si number density = 19.636936 Si / 1000 Ang^3
#
#
#
# Elastic Constant Matrix: (Units=GPa)
#
#
# Indices 1 2 3 4 5 6 
#
# 1 88.8475 36.1581 1.4040 0.0000 0.0000 0.0000
# 2 36.1581 113.3066 8.1404 0.0000 0.0000 0.0000
# 3 1.4040 8.1404 27.4699 0.0000 0.0000 0.0000
# 4 0.0000 0.0000 0.0000 15.0585 0.0000 0.0000
# 5 0.0000 0.0000 0.0000 0.0000 94.9254 0.0000
# 6 0.0000 0.0000 0.0000 0.0000 0.0000 40.9047
#
#
#
# Elastic Compliance Matrix: (Units=1/GPa)
#
#
# Indices 1 2 3 4 5 6 
#
# 1 0.012944 -0.004172 0.000575 0.000000 0.000000 0.000000
# 2 -0.004172 0.010362 -0.002858 0.000000 0.000000 0.000000
# 3 0.000575 -0.002858 0.037221 0.000000 0.000000 0.000000
# 4 0.000000 0.000000 0.000000 0.066408 0.000000 0.000000
# 5 0.000000 0.000000 0.000000 0.000000 0.010535 0.000000
# 6 0.000000 0.000000 0.000000 0.000000 0.000000 0.024447
#
#
# Mechanical properties :
#
#
# Convention : Reuss Voigt Hill
#
# Bulk Modulus (GPa) = 21.00060 35.66991 28.33525
# Shear Modulus (GPa) = 26.21940 42.43916 34.32928
#
# Velocity S-wave (km/s) = 3.65801 4.65390 4.18568
# Velocity P-wave (km/s) = 5.34407 6.86167 6.14986
#
# Compressibility (1/GPa) = 0.04761769
#
# Stress axis : x y z
#
# Youngs Moduli (GPa) = 77.25584 96.50413 26.86663
#
# Poissons Ratio (x) = 0.40261 -0.01544
# Poissons Ratio (y) = 0.32231 0.07677
# Poissons Ratio (z) = -0.04440 0.27576
#
# Static dielectric constant tensor:
#      x y z
#    x 1.740630 0.000000 0.000000 
#    y 0.000000 1.679670 0.000000 
#    z 0.000000 0.000000 1.705580 
# 
# From -- ./inp_files/61018.got.cif
#   From: 2010.05.17/outbox.cif.g08.bks.cpg/sg74_31_cif.got.tgz:61018.got - 2010.06.03 17:57:02.
