data_PCOD9537655
_publ_section_title
;
Structure prediction by ZEFSAII (Michael W. Deem and Ramdas Pophale) SiO2 
 PCOD9537655
Probable space group: I M M A
;
_chemical_formula_sum "Si O2"
_cell_formula_units_Z 104
_cell_length_a 23.242837
_cell_length_b 7.869001
_cell_length_c 25.043370
_cell_angle_alpha 90.000000
_cell_angle_beta 90.000000
_cell_angle_gamma 90.000000
_cell_volume 4580.379972
_symmetry_space_group_name_H-M "I M M A"
_symmetry_group_IT_number 74
_symmetry_cell_setting 'orthorhombic'
loop_
_space_group_symop_operation_xyz
x,y,z
-x,1/2-y,z
x,-y,-z
-x,1/2+y,-z
-x,-y,-z
x,1/2+y,-z
-x,y,z
x,1/2-y,z
1/2+x,1/2+y,1/2+z
1/2-x,-y,1/2+z
1/2+x,1/2-y,1/2-z
1/2-x,y,1/2-z
1/2-x,1/2-y,1/2-z
1/2+x,y,1/2-z
1/2-x,1/2+y,1/2+z
1/2+x,-y,1/2+z
loop_
_atom_site_type_symbol
_atom_site_label
_atom_site_fract_x
_atom_site_fract_y
_atom_site_fract_z
Si Si1 0.262745 0.058033 0.920312
Si Si2 0.063898 0.044348 0.283885
Si Si3 0.618908 0.045366 0.889576
Si Si4 0.000000 0.454627 0.561523
Si Si5 0.266114 0.445440 0.308199
Si Si6 0.598188 0.441212 0.329674
Si Si7 0.636695 0.450388 0.557388
O O1 0.265180 0.250000 0.942321
O O2 0.326063 0.976918 0.922805
O O3 0.202415 0.974174 0.938700
O O4 0.255627 0.059517 0.856205
O O5 0.066185 0.250000 0.281239
O O6 0.070645 0.977405 0.223158
O O7 0.000000 0.992457 0.302955
O O8 0.112505 0.991589 0.326249
O O9 0.621624 0.250000 0.894988
O O10 0.559056 0.979159 0.913192
O O11 0.000000 0.500000 0.500000
O O12 0.000000 0.250000 0.568452
O O13 0.244268 0.250000 0.314251
O O14 0.250000 0.507348 0.250000
O O15 0.334586 0.437749 0.314057
O O16 0.575198 0.250000 0.333174
O O17 0.599434 0.507810 0.390244
O O18 0.611971 0.500000 0.500000
O O19 0.644596 0.250000 0.558846
#
# Coordination Sequence:
#
# PCOD9537655 Si02
#       7
#    16  16  16   8  16  16  16
#     4   9  19  32  48  71  99 130 167 208 251 304
#     4  10  20  34  55  82 109 138 177 223 268 316
#     4  10  20  36  54  75 105 141 178 220 270 317
#     4  10  22  38  54  72  98 136 181 224 265 308
#     4   9  16  27  44  68  99 132 163 197 245 303
#     4   9  18  32  50  75 106 138 171 212 263 318
#     4  10  20  35  54  77 105 138 176 217 264 320
#
# _framework density 22.705539000000002
#
# number of rings (size 3 to 8) (size 9 to 14) (size 15 to 20)
#    0.000    2.462    0.769    1.385    0.000    4.615 
#    0.000    3.077    0.000    0.462    0.000    0.000 
#    0.000    0.000    0.000    0.000    0.000    0.000 
#
# Total GULP energy -289824.385981 kJ/mol
# GULP energy per Si atom -5573.545884 kJ/mol
# Density = 2.265386 g / cm^3
# Si number density = 22.705539 Si / 1000 Ang^3
#
#
#
# Elastic Constant Matrix: (Units=GPa)
#
#
# Indices 1 2 3 4 5 6 
#
# 1 36.9562 -1.5858 -13.7357 0.0000 0.0000 0.0000
# 2 -1.5858 29.3882 -5.3633 0.0000 0.0000 0.0000
# 3 -13.7357 -5.3633 111.5252 0.0000 0.0000 0.0000
# 4 0.0000 0.0000 0.0000 24.7985 0.0000 0.0000
# 5 0.0000 0.0000 0.0000 0.0000 15.0115 0.0000
# 6 0.0000 0.0000 0.0000 0.0000 0.0000 7.5191
#
#
#
# Elastic Compliance Matrix: (Units=1/GPa)
#
#
# Indices 1 2 3 4 5 6 
#
# 1 0.028497 0.002198 0.003615 0.000000 0.000000 0.000000
# 2 0.002198 0.034498 0.001930 0.000000 0.000000 0.000000
# 3 0.003615 0.001930 0.009505 0.000000 0.000000 0.000000
# 4 0.000000 0.000000 0.000000 0.040325 0.000000 0.000000
# 5 0.000000 0.000000 0.000000 0.000000 0.066616 0.000000
# 6 0.000000 0.000000 0.000000 0.000000 0.000000 0.132995
#
#
# Mechanical properties :
#
#
# Convention : Reuss Voigt Hill
#
# Bulk Modulus (GPa) = 11.36557 15.16668 13.26613
# Shear Modulus (GPa) = 15.32434 22.70278 19.01356
#
# Velocity S-wave (km/s) = 2.60073 3.16552 2.89692
# Velocity P-wave (km/s) = 3.74632 4.47827 4.12855
#
# Compressibility (1/GPa) = 0.08798504
#
# Stress axis : x y z
#
# Youngs Moduli (GPa) = 35.09126 28.98718 105.21150
#
# Poissons Ratio (x) = -0.06370 -0.38039
# Poissons Ratio (y) = -0.07711 -0.20302
# Poissons Ratio (z) = -0.12687 -0.05594
#
# Static dielectric constant tensor:
#      x y z
#    x 1.912720 0.000000 0.000000 
#    y 0.000000 1.851420 0.000000 
#    z 0.000000 0.000000 1.875120 
# 
# From -- ./inp_files/68688.got.cif
#   From: 2010.05.17/outbox.cif.g08.bks.cpg/sg74_35_cif.got.tgz:68688.got - 2010.06.03 17:57:02.
