data_PCOD9537756
_publ_section_title
;
Structure prediction by ZEFSAII (Michael W. Deem and Ramdas Pophale) SiO2 
 PCOD9537756
Probable space group: I M M A
;
_chemical_formula_sum "Si O2"
_cell_formula_units_Z 60
_cell_length_a 18.275568
_cell_length_b 17.205334
_cell_length_c 9.185071
_cell_angle_alpha 90.000000
_cell_angle_beta 90.000000
_cell_angle_gamma 90.000000
_cell_volume 2888.128480
_symmetry_space_group_name_H-M "I M M A"
_symmetry_group_IT_number 74
_symmetry_cell_setting 'orthorhombic'
loop_
_space_group_symop_operation_xyz
x,y,z
-x,1/2-y,z
x,-y,-z
-x,1/2+y,-z
-x,-y,-z
x,1/2+y,-z
-x,y,z
x,1/2-y,z
1/2+x,1/2+y,1/2+z
1/2-x,-y,1/2+z
1/2+x,1/2-y,1/2-z
1/2-x,y,1/2-z
1/2-x,1/2-y,1/2-z
1/2+x,y,1/2-z
1/2-x,1/2+y,1/2+z
1/2+x,-y,1/2+z
loop_
_atom_site_type_symbol
_atom_site_label
_atom_site_fract_x
_atom_site_fract_y
_atom_site_fract_z
Si Si1 0.250000 0.250000 0.250000
Si Si2 0.750000 0.030673 0.750000
Si Si3 0.000000 0.344212 0.441843
Si Si4 0.500000 0.157580 0.717497
Si Si5 0.850323 0.386714 0.291439
Si Si6 0.866635 0.588280 0.038956
O O1 0.203885 0.181539 0.336990
O O2 0.790352 0.080358 0.873584
O O3 0.811755 0.970531 0.691147
O O4 0.000000 0.362476 0.612677
O O5 0.072337 0.379101 0.368540
O O6 0.000000 0.250000 0.422650
O O7 0.500000 0.250000 0.704272
O O8 0.428090 0.125321 0.638838
O O9 0.860797 0.371366 0.117538
O O10 0.888502 0.500000 0.000000
#
# Coordination Sequence:
#
# PCOD9537756 Si02
#       6
#     4   8   8   8  16  16
#     4  10  20  34  60  94 118 154 214 258 306 362
#     4   9  22  41  61  96 125 160 214 266 319 372
#     4  11  23  41  60  94 134 167 210 269 322 374
#     4  11  26  41  63  96 131 171 212 267 324 374
#     4  10  21  39  67  92 123 171 213 262 312 381
#     4  10  22  43  66  93 127 168 215 262 319 387
#
# _framework density 20.774698999999998
#
# number of rings (size 3 to 8) (size 9 to 14) (size 15 to 20)
#    0.000    1.867    1.333    1.200    1.867   12.800 
#    0.000   10.000    0.000    0.000    0.000    0.000 
#    0.000    0.000    0.000    0.000    0.000    0.000 
#
# Total GULP energy -167122.479924 kJ/mol
# GULP energy per Si atom -5570.749331 kJ/mol
# Density = 2.072742 g / cm^3
# Si number density = 20.774699 Si / 1000 Ang^3
#
#
#
# Elastic Constant Matrix: (Units=GPa)
#
#
# Indices 1 2 3 4 5 6 
#
# 1 166.1884 29.7278 92.0981 0.0000 0.0000 0.0000
# 2 29.7278 25.8834 45.6184 0.0000 0.0000 0.0000
# 3 92.0981 45.6184 160.5051 0.0000 0.0000 0.0000
# 4 0.0000 0.0000 0.0000 14.6154 0.0000 0.0000
# 5 0.0000 0.0000 0.0000 0.0000 31.1632 0.0000
# 6 0.0000 0.0000 0.0000 0.0000 0.0000 16.2078
#
#
#
# Elastic Compliance Matrix: (Units=1/GPa)
#
#
# Indices 1 2 3 4 5 6 
#
# 1 0.008900 -0.002447 -0.004411 0.000000 0.000000 0.000000
# 2 -0.002447 0.078085 -0.020789 0.000000 0.000000 0.000000
# 3 -0.004411 -0.020789 0.014670 0.000000 0.000000 0.000000
# 4 0.000000 0.000000 0.000000 0.068421 0.000000 0.000000
# 5 0.000000 0.000000 0.000000 0.000000 0.032089 0.000000
# 6 0.000000 0.000000 0.000000 0.000000 0.000000 0.061699
#
#
# Mechanical properties :
#
#
# Convention : Reuss Voigt Hill
#
# Bulk Modulus (GPa) = 21.57016 76.38508 48.97762
# Shear Modulus (GPa) = 14.94272 24.73945 19.84108
#
# Velocity S-wave (km/s) = 2.68484 3.45461 3.09376
# Velocity P-wave (km/s) = 4.47399 7.26365 6.03229
#
# Compressibility (1/GPa) = 0.04636035
#
# Stress axis : x y z
#
# Youngs Moduli (GPa) = 112.36564 12.80653 68.16616
#
# Poissons Ratio (x) = 0.03134 0.30069
# Poissons Ratio (y) = 0.27496 1.41711
# Poissons Ratio (z) = 0.49565 0.26624
#
# Static dielectric constant tensor:
#      x y z
#    x 1.782260 0.000000 0.000000 
#    y 0.000000 1.778060 0.000000 
#    z 0.000000 0.000000 1.784120 
# 
# From -- ./inp_files/10058.got.cif
#   From: 2010.05.17/outbox.cif.g08.bks.cpg/sg74_6_cif.got.tgz:10058.got - 2010.06.03 17:57:02.
