data_PCOD9537232
_publ_section_title
;
Structure prediction by ZEFSAII (Michael W. Deem and Ramdas Pophale) SiO2 
 PCOD9537232
Probable space group: I M M A
;
_chemical_formula_sum "Si O2"
_cell_formula_units_Z 112
_cell_length_a 17.324881
_cell_length_b 14.725090
_cell_length_c 24.108998
_cell_angle_alpha 90.000000
_cell_angle_beta 90.000000
_cell_angle_gamma 90.000000
_cell_volume 6150.456894
_symmetry_space_group_name_H-M "I M M A"
_symmetry_group_IT_number 74
_symmetry_cell_setting 'orthorhombic'
loop_
_space_group_symop_operation_xyz
x,y,z
-x,1/2-y,z
x,-y,-z
-x,1/2+y,-z
-x,-y,-z
x,1/2+y,-z
-x,y,z
x,1/2-y,z
1/2+x,1/2+y,1/2+z
1/2-x,-y,1/2+z
1/2+x,1/2-y,1/2-z
1/2-x,y,1/2-z
1/2-x,1/2-y,1/2-z
1/2+x,y,1/2-z
1/2-x,1/2+y,1/2+z
1/2+x,-y,1/2+z
loop_
_atom_site_type_symbol
_atom_site_label
_atom_site_fract_x
_atom_site_fract_y
_atom_site_fract_z
Si Si1 0.587880 0.031293 0.910680
Si Si2 0.591881 0.529066 0.298238
Si Si3 0.192682 0.854475 0.802223
Si Si4 0.270508 0.403126 0.982034
Si Si5 0.814795 0.148749 0.398425
Si Si6 0.644403 0.858070 0.191349
Si Si7 0.807592 0.352720 0.868907
O O1 0.500000 0.024024 0.929197
O O2 0.645241 0.074716 0.955937
O O3 0.594210 0.096195 0.857206
O O4 0.623401 0.932547 0.895843
O O5 0.500000 0.530306 0.296518
O O6 0.625990 0.427946 0.295781
O O7 0.625501 0.588530 0.247270
O O8 0.626864 0.576772 0.352756
O O9 0.165480 0.750000 0.805005
O O10 0.250000 0.862639 0.750000
O O11 0.245260 0.873052 0.856321
O O12 0.222183 0.361257 0.931938
O O13 0.235916 0.500000 0.000000
O O14 0.282837 0.350352 0.038849
O O15 0.844160 0.250000 0.384237
O O16 0.630981 0.750000 0.196801
O O17 0.732651 0.870441 0.170209
O O18 0.833447 0.250000 0.858227
#
# Coordination Sequence:
#
# PCOD9537232 Si02
#       7
#    16  16  16  16  16  16  16
#     4  10  20  33  50  77 115 150 177 214 263 310
#     4  12  23  34  54  83 112 139 170 217 274 323
#     4  10  21  39  61  81 104 138 179 220 262 311
#     4   9  18  33  54  76 103 140 184 224 261 309
#     4  10  20  35  57  80 102 137 184 225 261 309
#     4  10  21  37  56  77 105 145 187 218 250 306
#     4  10  20  35  55  78 107 143 181 219 260 309
#
# _framework density 18.21003
#
# number of rings (size 3 to 8) (size 9 to 14) (size 15 to 20)
#    0.000    1.857    0.000    6.000    0.000    6.857 
#    0.000    0.000    0.000    8.143    0.000    4.000 
#    0.000    0.000    0.000    0.000    0.000    0.000 
#
# Total GULP energy -312650.162336 kJ/mol
# GULP energy per Si atom -5583.038613 kJ/mol
# Density = 1.816858 g / cm^3
# Si number density = 18.210030 Si / 1000 Ang^3
#
#
#
# Elastic Constant Matrix: (Units=GPa)
#
#
# Indices 1 2 3 4 5 6 
#
# 1 60.7968 49.8151 38.0281 0.0000 0.0000 0.0000
# 2 49.8151 110.6559 33.4917 0.0000 0.0000 0.0000
# 3 38.0281 33.4917 101.6273 0.0000 0.0000 0.0000
# 4 0.0000 0.0000 0.0000 -49.0697 0.0000 0.0000
# 5 0.0000 0.0000 0.0000 0.0000 2.7156 0.0000
# 6 0.0000 0.0000 0.0000 0.0000 0.0000 3.2671
#
#
#
# Elastic Compliance Matrix: (Units=1/GPa)
#
#
# Indices 1 2 3 4 5 6 
#
# 1 0.030662 -0.011475 -0.007692 0.000000 0.000000 0.000000
# 2 -0.011475 0.014333 -0.000429 0.000000 0.000000 0.000000
# 3 -0.007692 -0.000429 0.012860 0.000000 0.000000 0.000000
# 4 0.000000 0.000000 0.000000 -0.020379 0.000000 0.000000
# 5 0.000000 0.000000 0.000000 0.000000 0.368242 0.000000
# 6 0.000000 0.000000 0.000000 0.000000 0.000000 0.306086
#
#
# Mechanical properties :
#
#
# Convention : Reuss Voigt Hill
#
# Bulk Modulus (GPa) = 53.58663 57.30554 55.44608
# Shear Modulus (GPa) = 6.60313 1.49892 4.05103
#
# Velocity S-wave (km/s) = 1.90630 0.90825 1.49313
# Velocity P-wave (km/s) = 5.85971 5.71292 5.78678
#
# Compressibility (1/GPa) = 0.01866137
#
# Stress axis : x y z
#
# Youngs Moduli (GPa) = 32.61367 69.76892 77.76295
#
# Poissons Ratio (x) = 0.80063 0.59813
# Poissons Ratio (y) = 0.37426 0.03340
# Poissons Ratio (z) = 0.25085 0.02997
#
# Static dielectric constant tensor:
#      x y z
#    x 1.590900 0.000000 0.000000 
#    y 0.000000 1.649130 0.000000 
#    z 0.000000 0.000000 1.651980 
# 
# From -- ./inp_files/60090.got.cif
#   From: 2010.05.17/outbox.cif.g08.bks.cpg/sg74_31_cif.got.tgz:60090.got - 2010.06.03 17:57:02.
