data_PCOD9537910
_publ_section_title
;
Structure prediction by ZEFSAII (Michael W. Deem and Ramdas Pophale) SiO2 
 PCOD9537910
Probable space group: I M M A
;
_chemical_formula_sum "Si O2"
_cell_formula_units_Z 72
_cell_length_a 8.645575
_cell_length_b 14.782395
_cell_length_c 29.608125
_cell_angle_alpha 90.000000
_cell_angle_beta 90.000000
_cell_angle_gamma 90.000000
_cell_volume 3783.986611
_symmetry_space_group_name_H-M "I M M A"
_symmetry_group_IT_number 74
_symmetry_cell_setting 'orthorhombic'
loop_
_space_group_symop_operation_xyz
x,y,z
-x,1/2-y,z
x,-y,-z
-x,1/2+y,-z
-x,-y,-z
x,1/2+y,-z
-x,y,z
x,1/2-y,z
1/2+x,1/2+y,1/2+z
1/2-x,-y,1/2+z
1/2+x,1/2-y,1/2-z
1/2-x,y,1/2-z
1/2-x,1/2-y,1/2-z
1/2+x,y,1/2-z
1/2-x,1/2+y,1/2+z
1/2+x,-y,1/2+z
loop_
_atom_site_type_symbol
_atom_site_label
_atom_site_fract_x
_atom_site_fract_y
_atom_site_fract_z
Si Si1 0.181223 0.589657 0.613974
Si Si2 0.187168 0.250000 0.950024
Si Si3 0.814155 0.389975 0.874201
Si Si4 0.313675 0.250000 0.446717
Si Si5 0.173587 0.642621 0.794741
Si Si6 0.814321 0.750000 0.301461
O O1 0.258630 0.491447 0.617577
O O2 0.255122 0.660166 0.578779
O O3 0.214834 0.630021 0.663285
O O4 0.000000 0.581539 0.605059
O O5 0.232332 0.165073 0.919272
O O6 0.000000 0.250000 0.952400
O O7 0.241770 0.250000 0.001372
O O8 0.743666 0.336933 0.830959
O O9 0.000000 0.386275 0.869714
O O10 0.500000 0.250000 0.445116
O O11 0.157623 0.750000 0.787949
O O12 0.250000 0.602028 0.750000
O O13 0.000000 0.606568 0.803467
O O14 0.750000 0.750000 0.250000
O O15 0.000000 0.750000 0.300001
#
# Coordination Sequence:
#
# PCOD9537910 Si02
#       6
#    16   8  16   8  16   8
#     4  12  24  38  57  88 124 159 199 248 300 354
#     4   8  19  40  66  89 112 149 199 249 301 359
#     4  10  21  41  65  90 120 158 201 248 299 357
#     4  11  22  40  63  87 116 156 202 248 298 361
#     4  10  20  35  56  80 111 152 194 236 285 343
#     4  11  22  40  65  96 128 161 200 247 297 352
#
# _framework density 19.027550999999999
#
# number of rings (size 3 to 8) (size 9 to 14) (size 15 to 20)
#    0.000    1.556    1.111    5.333    0.000    2.667 
#    0.000   15.556    0.000    0.000    0.000    0.000 
#    0.000    0.000    0.000    0.000    0.000    0.000 
#
# Total GULP energy -200907.366856 kJ/mol
# GULP energy per Si atom -5580.760190 kJ/mol
# Density = 1.898424 g / cm^3
# Si number density = 19.027551 Si / 1000 Ang^3
#
#
#
# Elastic Constant Matrix: (Units=GPa)
#
#
# Indices 1 2 3 4 5 6 
#
# 1 118.5716 53.5549 48.4060 0.0000 0.0000 0.0000
# 2 53.5549 124.4365 67.6699 0.0000 0.0000 0.0000
# 3 48.4060 67.6699 177.1833 0.0000 0.0000 0.0000
# 4 0.0000 0.0000 0.0000 -68.3099 0.0000 0.0000
# 5 0.0000 0.0000 0.0000 0.0000 25.5190 0.0000
# 6 0.0000 0.0000 0.0000 0.0000 0.0000 23.6086
#
#
#
# Elastic Compliance Matrix: (Units=1/GPa)
#
#
# Indices 1 2 3 4 5 6 
#
# 1 0.010767 -0.003830 -0.001479 0.000000 0.000000 0.000000
# 2 -0.003830 0.011505 -0.003348 0.000000 0.000000 0.000000
# 3 -0.001479 -0.003348 0.007326 0.000000 0.000000 0.000000
# 4 0.000000 0.000000 0.000000 -0.014639 0.000000 0.000000
# 5 0.000000 0.000000 0.000000 0.000000 0.039186 0.000000
# 6 0.000000 0.000000 0.000000 0.000000 0.000000 0.042357
#
#
# Mechanical properties :
#
#
# Convention : Reuss Voigt Hill
#
# Bulk Modulus (GPa) = 81.39383 84.38367 82.88875
# Shear Modulus (GPa) = 42.40466 12.86758 27.63612
#
# Velocity S-wave (km/s) = 4.72592 2.60332 3.81521
# Velocity P-wave (km/s) = 8.52342 7.31306 7.94133
#
# Compressibility (1/GPa) = 0.01228594
#
# Stress axis : x y z
#
# Youngs Moduli (GPa) = 92.87410 86.91874 136.49138
#
# Poissons Ratio (x) = 0.33288 0.20186
# Poissons Ratio (y) = 0.35569 0.45693
# Poissons Ratio (z) = 0.13735 0.29098
#
# Static dielectric constant tensor:
#      x y z
#    x 1.669860 0.000000 0.000000 
#    y 0.000000 1.215670 0.000000 
#    z 0.000000 0.000000 1.651360 
# 
# From -- ./inp_files/63711.got.cif
#   From: 2010.05.17/outbox.cif.g08.bks.cpg/sg74_32_cif.got.tgz:63711.got - 2010.06.03 17:57:02.
