data_PCOD9537117
_publ_section_title
;
Structure prediction by ZEFSAII (Michael W. Deem and Ramdas Pophale) SiO2 
 PCOD9537117
Probable space group: I M M A
;
_chemical_formula_sum "Si O2"
_cell_formula_units_Z 80
_cell_length_a 22.676558
_cell_length_b 14.375816
_cell_length_c 12.562480
_cell_angle_alpha 90.000000
_cell_angle_beta 90.000000
_cell_angle_gamma 90.000000
_cell_volume 4095.293423
_symmetry_space_group_name_H-M "I M M A"
_symmetry_group_IT_number 74
_symmetry_cell_setting 'orthorhombic'
loop_
_space_group_symop_operation_xyz
x,y,z
-x,1/2-y,z
x,-y,-z
-x,1/2+y,-z
-x,-y,-z
x,1/2+y,-z
-x,y,z
x,1/2-y,z
1/2+x,1/2+y,1/2+z
1/2-x,-y,1/2+z
1/2+x,1/2-y,1/2-z
1/2-x,y,1/2-z
1/2-x,1/2-y,1/2-z
1/2+x,y,1/2-z
1/2-x,1/2+y,1/2+z
1/2+x,-y,1/2+z
loop_
_atom_site_type_symbol
_atom_site_label
_atom_site_fract_x
_atom_site_fract_y
_atom_site_fract_z
Si Si1 0.802410 0.142129 0.530976
Si Si2 0.834611 0.862082 0.040671
Si Si3 0.154296 0.645419 0.706697
Si Si4 0.315977 0.445070 0.756933
Si Si5 0.565040 0.139387 0.376783
O O1 0.800822 0.250000 0.565937
O O2 0.733720 0.111681 0.514400
O O3 0.836112 0.139558 0.419072
O O4 0.833433 0.082813 0.623545
O O5 0.835415 0.750000 0.042839
O O6 0.849457 0.901362 0.157496
O O7 0.882966 0.894081 0.955020
O O8 0.174106 0.750000 0.740956
O O9 0.186670 0.555882 0.753502
O O10 0.089222 0.632678 0.756054
O O11 0.250000 0.404949 0.750000
O O12 0.500000 0.098251 0.391202
O O13 0.560765 0.250000 0.398025
#
# Coordination Sequence:
#
# PCOD9537117 Si02
#       5
#    16  16  16  16  16
#     4   9  18  33  54  79 106 135 169 214 267 318
#     4   9  18  33  54  77 104 137 173 216 264 311
#     4  10  21  34  51  75 106 140 172 212 260 310
#     4  10  20  32  50  77 108 137 170 210 259 316
#     4   9  19  36  56  77 104 141 182 221 262 309
#
# _framework density 19.534618999999999
#
# number of rings (size 3 to 8) (size 9 to 14) (size 15 to 20)
#    0.000    2.600    0.000    1.200    2.800    3.600 
#    0.000    2.000    0.000    3.600    0.000    5.600 
#    0.000    0.000    0.000    0.000    0.000    0.000 
#
# Total GULP energy -222814.243043 kJ/mol
# GULP energy per Si atom -5570.356076 kJ/mol
# Density = 1.949016 g / cm^3
# Si number density = 19.534619 Si / 1000 Ang^3
#
#
#
# Elastic Constant Matrix: (Units=GPa)
#
#
# Indices 1 2 3 4 5 6 
#
# 1 83.2916 22.0292 73.8838 0.0000 0.0000 0.0000
# 2 22.0292 77.7917 32.4540 0.0000 0.0000 0.0000
# 3 73.8838 32.4540 131.5106 0.0000 0.0000 0.0000
# 4 0.0000 0.0000 0.0000 21.3878 0.0000 0.0000
# 5 0.0000 0.0000 0.0000 0.0000 -5.2591 0.0000
# 6 0.0000 0.0000 0.0000 0.0000 0.0000 7.9429
#
#
#
# Elastic Compliance Matrix: (Units=1/GPa)
#
#
# Indices 1 2 3 4 5 6 
#
# 1 0.024052 -0.001308 -0.013190 0.000000 0.000000 0.000000
# 2 -0.001308 0.014401 -0.002819 0.000000 0.000000 0.000000
# 3 -0.013190 -0.002819 0.015710 0.000000 0.000000 0.000000
# 4 0.000000 0.000000 0.000000 0.046756 0.000000 0.000000
# 5 0.000000 0.000000 0.000000 0.000000 -0.190145 0.000000
# 6 0.000000 0.000000 0.000000 0.000000 0.000000 0.125899
#
#
# Mechanical properties :
#
#
# Convention : Reuss Voigt Hill
#
# Bulk Modulus (GPa) = 51.20589 61.03644 56.12117
# Shear Modulus (GPa) = 64.25418 15.76278 40.00848
#
# Velocity S-wave (km/s) = 5.74142 2.84371 4.53048
# Velocity P-wave (km/s) = 8.37983 6.48809 7.49390
#
# Compressibility (1/GPa) = 0.01952900
#
# Stress axis : x y z
#
# Youngs Moduli (GPa) = 41.57661 69.43781 63.65506
#
# Poissons Ratio (x) = 0.09086 0.83959
# Poissons Ratio (y) = 0.05440 0.17943
# Poissons Ratio (z) = 0.54838 0.19574
#
# Static dielectric constant tensor:
#      x y z
#    x 1.682870 0.000000 0.000000 
#    y 0.000000 1.735260 0.000000 
#    z 0.000000 0.000000 1.738480 
# 
# From -- ./inp_files/20451.got.cif
#   From: 2010.05.17/outbox.cif.g08.bks.cpg/sg74_11_cif.got.tgz:20451.got - 2010.06.03 17:57:02.
