data_PCOD9537992
_publ_section_title
;
Structure prediction by ZEFSAII (Michael W. Deem and Ramdas Pophale) SiO2 
 PCOD9537992
Probable space group: I M M A
;
_chemical_formula_sum "Si O2"
_cell_formula_units_Z 80
_cell_length_a 26.630177
_cell_length_b 20.319577
_cell_length_c 7.491458
_cell_angle_alpha 90.000000
_cell_angle_beta 90.000000
_cell_angle_gamma 90.000000
_cell_volume 4053.732295
_symmetry_space_group_name_H-M "I M M A"
_symmetry_group_IT_number 74
_symmetry_cell_setting 'orthorhombic'
loop_
_space_group_symop_operation_xyz
x,y,z
-x,1/2-y,z
x,-y,-z
-x,1/2+y,-z
-x,-y,-z
x,1/2+y,-z
-x,y,z
x,1/2-y,z
1/2+x,1/2+y,1/2+z
1/2-x,-y,1/2+z
1/2+x,1/2-y,1/2-z
1/2-x,y,1/2-z
1/2-x,1/2-y,1/2-z
1/2+x,y,1/2-z
1/2-x,1/2+y,1/2+z
1/2+x,-y,1/2+z
loop_
_atom_site_type_symbol
_atom_site_label
_atom_site_fract_x
_atom_site_fract_y
_atom_site_fract_z
Si Si1 0.000000 0.076651 0.563987
Si Si2 0.673539 0.676103 0.827069
Si Si3 0.827950 0.000000 0.000000
Si Si4 0.500000 0.921949 0.490954
Si Si5 0.392922 0.626831 0.494140
Si Si6 0.250000 0.428707 0.250000
Si Si7 0.415599 0.176464 0.898609
O O1 0.000000 0.085800 0.777913
O O2 0.049287 0.119168 0.519376
O O3 0.000000 0.000000 0.500000
O O4 0.693599 0.750000 0.810291
O O5 0.641714 0.659717 0.646167
O O6 0.716301 0.622211 0.862751
O O7 0.635136 0.674454 0.989614
O O8 0.864083 0.059482 0.942780
O O9 0.790495 0.972977 0.850005
O O10 0.551380 0.891516 0.565735
O O11 0.500000 0.000000 0.500000
O O12 0.402834 0.665613 0.310492
O O13 0.437919 0.250000 0.918594
#
# Coordination Sequence:
#
# PCOD9537992 Si02
#       7
#     8  16   8   8  16   8  16
#     4  10  23  35  57  89 120 158 196 245 294 350
#     4  10  22  40  61  83 113 156 199 246 295 351
#     4  10  22  37  58  88 116 155 192 254 302 358
#     4  10  20  35  57  85 122 151 190 233 298 361
#     4  10  21  38  60  88 121 153 195 245 299 358
#     4  10  23  38  58  84 117 148 198 252 300 352
#     4  10  22  39  60  86 120 160 200 243 298 361
#
# _framework density 19.734901000000001
#
# number of rings (size 3 to 8) (size 9 to 14) (size 15 to 20)
#    0.000    2.000    1.000    1.200    5.600    1.600 
#    0.000    2.500    0.000    6.000    0.000    0.000 
#    0.000    0.000    0.000    0.000    0.000    0.000 
#
# Total GULP energy -222944.837648 kJ/mol
# GULP energy per Si atom -5573.620941 kJ/mol
# Density = 1.968998 g / cm^3
# Si number density = 19.734901 Si / 1000 Ang^3
#
#
#
# Elastic Constant Matrix: (Units=GPa)
#
#
# Indices 1 2 3 4 5 6 
#
# 1 101.0230 29.3777 2.5259 0.0000 0.0000 0.0000
# 2 29.3777 99.8407 -0.9762 0.0000 0.0000 0.0000
# 3 2.5259 -0.9762 40.1578 0.0000 0.0000 0.0000
# 4 0.0000 0.0000 0.0000 24.6568 0.0000 0.0000
# 5 0.0000 0.0000 0.0000 0.0000 13.0831 0.0000
# 6 0.0000 0.0000 0.0000 0.0000 0.0000 116.2526
#
#
#
# Elastic Compliance Matrix: (Units=1/GPa)
#
#
# Indices 1 2 3 4 5 6 
#
# 1 0.010848 -0.003199 -0.000760 0.000000 0.000000 0.000000
# 2 -0.003199 0.010962 0.000468 0.000000 0.000000 0.000000
# 3 -0.000760 0.000468 0.024961 0.000000 0.000000 0.000000
# 4 0.000000 0.000000 0.000000 0.040557 0.000000 0.000000
# 5 0.000000 0.000000 0.000000 0.000000 0.076434 0.000000
# 6 0.000000 0.000000 0.000000 0.000000 0.000000 0.008602
#
#
# Mechanical properties :
#
#
# Convention : Reuss Voigt Hill
#
# Bulk Modulus (GPa) = 25.13363 33.65292 29.39327
# Shear Modulus (GPa) = 25.95916 44.80479 35.38198
#
# Velocity S-wave (km/s) = 3.63077 4.76997 4.23882
# Velocity P-wave (km/s) = 5.50817 6.88668 6.23563
#
# Compressibility (1/GPa) = 0.03978733
#
# Stress axis : x y z
#
# Youngs Moduli (GPa) = 92.18167 91.22466 40.06264
#
# Poissons Ratio (x) = 0.29187 0.03045
# Poissons Ratio (y) = 0.29493 -0.01874
# Poissons Ratio (z) = 0.07007 -0.04267
#
# Static dielectric constant tensor:
#      x y z
#    x 1.502530 0.000000 0.000000 
#    y 0.000000 1.874840 0.000000 
#    z 0.000000 0.000000 1.184120 
# 
# From -- ./inp_files/14998.got.cif
#   From: 2010.05.17/outbox.cif.g08.bks.cpg/sg74_8_cif.got.tgz:14998.got - 2010.06.03 17:57:02.
