data_PCOD9537819
_publ_section_title
;
Structure prediction by ZEFSAII (Michael W. Deem and Ramdas Pophale) SiO2 
 PCOD9537819
Probable space group: I M M A
;
_chemical_formula_sum "Si O2"
_cell_formula_units_Z 64
_cell_length_a 10.340285
_cell_length_b 17.967043
_cell_length_c 18.836277
_cell_angle_alpha 90.000000
_cell_angle_beta 90.000000
_cell_angle_gamma 90.000000
_cell_volume 3499.485389
_symmetry_space_group_name_H-M "I M M A"
_symmetry_group_IT_number 74
_symmetry_cell_setting 'orthorhombic'
loop_
_space_group_symop_operation_xyz
x,y,z
-x,1/2-y,z
x,-y,-z
-x,1/2+y,-z
-x,-y,-z
x,1/2+y,-z
-x,y,z
x,1/2-y,z
1/2+x,1/2+y,1/2+z
1/2-x,-y,1/2+z
1/2+x,1/2-y,1/2-z
1/2-x,y,1/2-z
1/2-x,1/2-y,1/2-z
1/2+x,y,1/2-z
1/2-x,1/2+y,1/2+z
1/2+x,-y,1/2+z
loop_
_atom_site_type_symbol
_atom_site_label
_atom_site_fract_x
_atom_site_fract_y
_atom_site_fract_z
Si Si1 0.000000 0.911549 0.000041
Si Si2 0.000000 0.618810 0.832524
Si Si3 0.735232 0.336335 0.978114
Si Si4 0.216069 0.668158 0.649509
Si Si5 0.000000 0.939598 0.435164
Si Si6 0.500000 0.551811 0.807024
O O1 0.126623 0.874816 0.033858
O O2 0.000000 0.895106 0.916152
O O3 0.000000 0.000000 0.000000
O O4 0.137089 0.660136 0.822325
O O5 0.000000 0.548498 0.778802
O O6 0.731632 0.250000 0.955166
O O7 0.717150 0.335911 0.063687
O O8 0.624282 0.387026 0.944673
O O9 0.165902 0.750000 0.668835
O O10 0.124959 0.601740 0.674146
O O11 0.000000 0.000000 0.500000
O O12 0.000000 0.981947 0.359677
#
# Coordination Sequence:
#
# PCOD9537819 Si02
#       6
#     8   8  16  16   8   8
#     4  10  21  37  62  84 111 141 178 234 288 336
#     4  10  23  36  51  79 112 144 190 222 278 336
#     4  10  20  36  57  83 112 146 190 232 278 332
#     4  10  20  35  54  77 112 153 187 223 272 337
#     4  12  21  35  55  80 114 153 191 236 272 319
#     4  12  23  34  51  79 114 152 190 226 270 327
#
# _framework density 18.288402999999999
#
# number of rings (size 3 to 8) (size 9 to 14) (size 15 to 20)
#    0.000    1.500    2.500    3.000    3.500    8.000 
#    0.000    0.000    0.000    0.000    0.000    5.250 
#    0.000    0.000    0.000    0.000    0.000    0.000 
#
# Total GULP energy -178548.829892 kJ/mol
# GULP energy per Si atom -5579.650934 kJ/mol
# Density = 1.824678 g / cm^3
# Si number density = 18.288403 Si / 1000 Ang^3
#
#
#
# Elastic Constant Matrix: (Units=GPa)
#
#
# Indices 1 2 3 4 5 6 
#
# 1 165.1582 83.5672 29.5930 0.0000 0.0000 0.0000
# 2 83.5672 139.9621 26.3452 0.0000 0.0000 0.0000
# 3 29.5930 26.3452 44.0924 0.0000 0.0000 0.0000
# 4 0.0000 0.0000 0.0000 23.1855 0.0000 0.0000
# 5 0.0000 0.0000 0.0000 0.0000 3.2645 0.0000
# 6 0.0000 0.0000 0.0000 0.0000 0.0000 30.0966
#
#
#
# Elastic Compliance Matrix: (Units=1/GPa)
#
#
# Indices 1 2 3 4 5 6 
#
# 1 0.009062 -0.004806 -0.003210 0.000000 0.000000 0.000000
# 2 -0.004806 0.010599 -0.003107 0.000000 0.000000 0.000000
# 3 -0.003210 -0.003107 0.026691 0.000000 0.000000 0.000000
# 4 0.000000 0.000000 0.000000 0.043130 0.000000 0.000000
# 5 0.000000 0.000000 0.000000 0.000000 0.306328 0.000000
# 6 0.000000 0.000000 0.000000 0.000000 0.000000 0.033226
#
#
# Mechanical properties :
#
#
# Convention : Reuss Voigt Hill
#
# Bulk Modulus (GPa) = 41.48614 69.80258 55.64436
# Shear Modulus (GPa) = 10.88566 25.28979 18.08772
#
# Velocity S-wave (km/s) = 2.44236 3.72268 3.14829
# Velocity P-wave (km/s) = 5.53960 7.53182 6.61118
#
# Compressibility (1/GPa) = 0.02410444
#
# Stress axis : x y z
#
# Youngs Moduli (GPa) = 110.35169 94.34480 37.46605
#
# Poissons Ratio (x) = 0.45345 0.12027
# Poissons Ratio (y) = 0.53039 0.11642
# Poissons Ratio (z) = 0.35425 0.29316
#
# Static dielectric constant tensor:
#      x y z
#    x 1.678210 0.000000 0.000000 
#    y 0.000000 1.632520 0.000000 
#    z 0.000000 0.000000 1.666400 
# 
# From -- ./inp_files/48094.got.cif
#   From: 2010.05.17/outbox.cif.g08.bks.cpg/sg74_25_cif.got.tgz:48094.got - 2010.06.03 17:57:02.
