data_PCOD9537224
_publ_section_title
;
Structure prediction by ZEFSAII (Michael W. Deem and Ramdas Pophale) SiO2 
 PCOD9537224
Probable space group: I M M A
;
_chemical_formula_sum "Si O2"
_cell_formula_units_Z 112
_cell_length_a 14.461898
_cell_length_b 28.971244
_cell_length_c 15.150604
_cell_angle_alpha 90.000000
_cell_angle_beta 90.000000
_cell_angle_gamma 90.000000
_cell_volume 6347.787575
_symmetry_space_group_name_H-M "I M M A"
_symmetry_group_IT_number 74
_symmetry_cell_setting 'orthorhombic'
loop_
_space_group_symop_operation_xyz
x,y,z
-x,1/2-y,z
x,-y,-z
-x,1/2+y,-z
-x,-y,-z
x,1/2+y,-z
-x,y,z
x,1/2-y,z
1/2+x,1/2+y,1/2+z
1/2-x,-y,1/2+z
1/2+x,1/2-y,1/2-z
1/2-x,y,1/2-z
1/2-x,1/2-y,1/2-z
1/2+x,y,1/2-z
1/2-x,1/2+y,1/2+z
1/2+x,-y,1/2+z
loop_
_atom_site_type_symbol
_atom_site_label
_atom_site_fract_x
_atom_site_fract_y
_atom_site_fract_z
Si Si1 0.769502 0.109152 0.651178
Si Si2 0.607132 0.667952 0.398049
Si Si3 0.391489 0.301914 0.802596
Si Si4 0.105274 0.859652 0.592584
Si Si5 0.891942 0.946788 0.484230
Si Si6 0.606911 0.803927 0.727782
Si Si7 0.773059 0.801818 0.944263
O O1 0.750000 0.091440 0.750000
O O2 0.670348 0.122577 0.611182
O O3 0.827481 0.157083 0.662225
O O4 0.828020 0.075283 0.590670
O O5 0.500000 0.658407 0.414265
O O6 0.614138 0.693924 0.304039
O O7 0.652629 0.695261 0.478130
O O8 0.500000 0.308654 0.826198
O O9 0.363361 0.250000 0.829537
O O10 0.115787 0.913806 0.570850
O O11 0.117076 0.839494 0.691358
O O12 0.186165 0.834524 0.539441
O O13 0.000000 0.847032 0.565916
O O14 0.000000 0.944542 0.457107
O O15 0.868638 0.000000 0.500000
O O16 0.500000 0.806617 0.697851
O O17 0.622133 0.750000 0.755314
O O18 0.675311 0.813843 0.647246
O O19 0.737859 0.750000 0.936845
#
# Coordination Sequence:
#
# PCOD9537224 Si02
#       7
#    16  16  16  16  16  16  16
#     4  10  20  36  58  83 109 142 182 225 270 326
#     4  10  20  33  50  74 109 150 187 223 260 308
#     4   9  18  32  51  78 113 147 181 224 271 322
#     4  10  20  35  53  76 104 138 178 223 273 322
#     4  10  21  40  64  85 108 136 174 228 285 335
#     4   9  18  32  50  76 113 150 183 218 257 310
#     4  11  20  31  50  77 110 152 188 217 256 313
#
# _framework density 17.643941999999999
#
# number of rings (size 3 to 8) (size 9 to 14) (size 15 to 20)
#    0.000    2.143    1.429    2.143    0.000    7.143 
#    0.000    1.429    0.000    0.429    0.000    0.000 
#    0.000    0.000    0.000    0.000    0.000    0.000 
#
# Total GULP energy -312424.180908 kJ/mol
# GULP energy per Si atom -5579.003231 kJ/mol
# Density = 1.760378 g / cm^3
# Si number density = 17.643942 Si / 1000 Ang^3
#
#
#
# Elastic Constant Matrix: (Units=GPa)
#
#
# Indices 1 2 3 4 5 6 
#
# 1 107.0187 61.5852 34.9713 0.0000 0.0000 0.0000
# 2 61.5852 107.8773 45.7014 0.0001 0.0000 0.0000
# 3 34.9713 45.7014 76.9444 0.0000 0.0000 0.0000
# 4 0.0000 0.0001 0.0000 17.8484 0.0000 0.0000
# 5 0.0000 0.0000 0.0000 0.0000 24.7893 0.0000
# 6 0.0000 0.0000 0.0000 0.0000 0.0000 21.6380
#
#
#
# Elastic Compliance Matrix: (Units=1/GPa)
#
#
# Indices 1 2 3 4 5 6 
#
# 1 0.014186 -0.007172 -0.002188 0.000000 0.000000 0.000000
# 2 -0.007172 0.016012 -0.006251 0.000000 0.000000 0.000000
# 3 -0.002188 -0.006251 0.017704 0.000000 0.000000 0.000000
# 4 0.000000 0.000000 0.000000 0.056028 0.000000 0.000000
# 5 0.000000 0.000000 0.000000 0.000000 0.040340 0.000000
# 6 0.000000 0.000000 0.000000 0.000000 0.000000 0.046215
#
#
# Mechanical properties :
#
#
# Convention : Reuss Voigt Hill
#
# Bulk Modulus (GPa) = 59.94949 64.03958 61.99453
# Shear Modulus (GPa) = 22.00065 22.82729 22.41397
#
# Velocity S-wave (km/s) = 3.53501 3.60081 3.56806
# Velocity P-wave (km/s) = 7.12130 7.32544 7.22409
#
# Compressibility (1/GPa) = 0.01668071
#
# Stress axis : x y z
#
# Youngs Moduli (GPa) = 70.49103 62.45257 56.48574
#
# Poissons Ratio (x) = 0.44789 0.12359
# Poissons Ratio (y) = 0.50554 0.35309
# Poissons Ratio (z) = 0.15423 0.39039
#
# Static dielectric constant tensor:
#      x y z
#    x 1.624250 0.000000 0.000000 
#    y 0.000000 1.574950 0.000000 
#    z 0.000000 0.000000 1.633310 
# 
# From -- ./inp_files/32913.got.cif
#   From: 2010.05.17/outbox.cif.g08.bks.cpg/sg74_17_cif.got.tgz:32913.got - 2010.06.03 17:57:02.
