data_PCOD9537038
_publ_section_title
;
Structure prediction by ZEFSAII (Michael W. Deem and Ramdas Pophale) SiO2 
 PCOD9537038
Probable space group: I M M A
;
_chemical_formula_sum "Si O2"
_cell_formula_units_Z 96
_cell_length_a 22.028880
_cell_length_b 9.690199
_cell_length_c 21.295816
_cell_angle_alpha 90.000000
_cell_angle_beta 90.000000
_cell_angle_gamma 90.000000
_cell_volume 4545.894985
_symmetry_space_group_name_H-M "I M M A"
_symmetry_group_IT_number 74
_symmetry_cell_setting 'orthorhombic'
loop_
_space_group_symop_operation_xyz
x,y,z
-x,1/2-y,z
x,-y,-z
-x,1/2+y,-z
-x,-y,-z
x,1/2+y,-z
-x,y,z
x,1/2-y,z
1/2+x,1/2+y,1/2+z
1/2-x,-y,1/2+z
1/2+x,1/2-y,1/2-z
1/2-x,y,1/2-z
1/2-x,1/2-y,1/2-z
1/2+x,y,1/2-z
1/2-x,1/2+y,1/2+z
1/2+x,-y,1/2+z
loop_
_atom_site_type_symbol
_atom_site_label
_atom_site_fract_x
_atom_site_fract_y
_atom_site_fract_z
Si Si1 0.591633 0.095807 0.444363
Si Si2 0.259671 0.588526 0.560915
Si Si3 0.925748 0.405713 0.558733
Si Si4 0.773312 0.588428 0.178760
Si Si5 0.428291 0.098253 0.168112
Si Si6 0.107892 0.588092 0.810085
O O1 0.575127 0.250000 0.461073
O O2 0.665911 0.088548 0.440925
O O3 0.570003 0.068173 0.373576
O O4 0.571190 0.000000 0.500000
O O5 0.240060 0.500000 0.500000
O O6 0.241045 0.750000 0.559929
O O7 0.242898 0.507446 0.625104
O O8 0.908497 0.500000 0.500000
O O9 0.903269 0.250000 0.553132
O O10 0.904999 0.479081 0.622751
O O11 0.000000 0.399476 0.558772
O O12 0.771998 0.750000 0.160270
O O13 0.750000 0.576172 0.250000
O O14 0.840247 0.525446 0.184771
O O15 0.500000 0.106479 0.154892
O O16 0.401687 0.250000 0.153646
O O17 0.421456 0.073135 0.242028
O O18 0.129894 0.750000 0.813290
#
# Coordination Sequence:
#
# PCOD9537038 Si02
#       6
#    16  16  16  16  16  16
#     4   8  14  24  39  61  86 112 145 183 220 259
#     4   9  16  27  45  68  93 120 152 191 233 275
#     4   9  16  26  42  65  91 118 150 188 228 270
#     4  10  20  32  47  69  96 125 157 193 233 276
#     4   9  17  30  48  69  93 121 153 190 232 277
#     4   9  18  31  47  68  93 122 155 190 232 279
#
# _framework density 21.117954000000001
#
# number of rings (size 3 to 8) (size 9 to 14) (size 15 to 20)
#    0.000    3.000    0.000    2.500    0.000    8.000 
#    0.000    0.000    0.000    1.500    0.000    7.000 
#    0.000    0.000    0.000    0.000    0.000    1.833 
#
# Total GULP energy -267590.379570 kJ/mol
# GULP energy per Si atom -5574.799574 kJ/mol
# Density = 2.106989 g / cm^3
# Si number density = 21.117954 Si / 1000 Ang^3
#
#
#
# Elastic Constant Matrix: (Units=GPa)
#
#
# Indices 1 2 3 4 5 6 
#
# 1 37.2967 22.1791 2.3338 0.0000 0.0000 0.0000
# 2 22.1791 191.4562 134.3868 0.0000 0.0000 0.0000
# 3 2.3338 134.3868 177.0644 0.0000 0.0000 0.0000
# 4 0.0000 0.0000 0.0000 44.5158 0.0000 0.0000
# 5 0.0000 0.0000 0.0000 0.0000 13.6616 0.0000
# 6 0.0000 0.0000 0.0000 0.0000 0.0000 6.6543
#
#
#
# Elastic Compliance Matrix: (Units=1/GPa)
#
#
# Indices 1 2 3 4 5 6 
#
# 1 0.030665 -0.006995 0.004905 0.000000 0.000000 0.000000
# 2 -0.006995 0.012774 -0.009603 0.000000 0.000000 0.000000
# 3 0.004905 -0.009603 0.012871 0.000000 0.000000 0.000000
# 4 0.000000 0.000000 0.000000 0.022464 0.000000 0.000000
# 5 0.000000 0.000000 0.000000 0.000000 0.073198 0.000000
# 6 0.000000 0.000000 0.000000 0.000000 0.000000 0.150278
#
#
# Mechanical properties :
#
#
# Convention : Reuss Voigt Hill
#
# Bulk Modulus (GPa) = 30.37297 80.40184 55.38741
# Shear Modulus (GPa) = 14.85394 29.42753 22.14073
#
# Velocity S-wave (km/s) = 2.65501 3.73699 3.24146
# Velocity P-wave (km/s) = 4.87981 7.53495 6.34776
#
# Compressibility (1/GPa) = 0.03292401
#
# Stress axis : x y z
#
# Youngs Moduli (GPa) = 32.61049 78.28466 77.69238
#
# Poissons Ratio (x) = 0.54763 -0.38109
# Poissons Ratio (y) = 0.22812 0.74607
# Poissons Ratio (z) = -0.15996 0.75175
#
# Static dielectric constant tensor:
#      x y z
#    x 1.826070 0.000000 0.000000 
#    y 0.000000 1.743100 0.000000 
#    z 0.000000 0.000000 1.787830 
# 
# From -- ./inp_files/55024.got.cif
#   From: 2010.05.17/outbox.cif.g08.bks.cpg/sg74_28_cif.got.tgz:55024.got - 2010.06.03 17:57:02.
