data_PCOD9537078
_publ_section_title
;
Structure prediction by ZEFSAII (Michael W. Deem and Ramdas Pophale) SiO2 
 PCOD9537078
Probable space group: I M M A
;
_chemical_formula_sum "Si O2"
_cell_formula_units_Z 104
_cell_length_a 29.561447
_cell_length_b 8.893692
_cell_length_c 22.236495
_cell_angle_alpha 90.000000
_cell_angle_beta 90.000000
_cell_angle_gamma 90.000000
_cell_volume 5846.205899
_symmetry_space_group_name_H-M "I M M A"
_symmetry_group_IT_number 74
_symmetry_cell_setting 'orthorhombic'
loop_
_space_group_symop_operation_xyz
x,y,z
-x,1/2-y,z
x,-y,-z
-x,1/2+y,-z
-x,-y,-z
x,1/2+y,-z
-x,y,z
x,1/2-y,z
1/2+x,1/2+y,1/2+z
1/2-x,-y,1/2+z
1/2+x,1/2-y,1/2-z
1/2-x,y,1/2-z
1/2-x,1/2-y,1/2-z
1/2+x,y,1/2-z
1/2-x,1/2+y,1/2+z
1/2+x,-y,1/2+z
loop_
_atom_site_type_symbol
_atom_site_label
_atom_site_fract_x
_atom_site_fract_y
_atom_site_fract_z
Si Si1 0.125361 0.418148 0.232115
Si Si2 0.000000 0.072772 0.935066
Si Si3 0.784049 0.429054 0.804876
Si Si4 0.554575 0.420483 0.059493
Si Si5 0.091985 0.081798 0.097114
Si Si6 0.052315 0.571812 0.315175
Si Si7 0.806401 0.432792 0.064761
O O1 0.140386 0.250000 0.250295
O O2 0.167497 0.527478 0.222954
O O3 0.102934 0.406067 0.167046
O O4 0.087797 0.483149 0.275618
O O5 0.000000 0.250000 0.936417
O O6 0.047329 0.016762 0.907887
O O7 0.000000 0.000000 0.000000
O O8 0.779333 0.250000 0.814097
O O9 0.750000 0.473866 0.750000
O O10 0.783701 0.506410 0.872247
O O11 0.500000 0.410095 0.053231
O O12 0.571321 0.250000 0.067710
O O13 0.562204 0.525000 0.116535
O O14 0.572719 0.500000 0.000000
O O15 0.082651 0.250000 0.072364
O O16 0.139736 0.027081 0.069493
O O17 0.056459 0.750000 0.306829
O O18 0.000000 0.529381 0.302059
O O19 0.803200 0.250000 0.064752
O O20 0.790255 0.500000 0.000000
#
# Coordination Sequence:
#
# PCOD9537078 Si02
#       7
#    16   8  16  16  16  16  16
#     4  10  21  36  55  78 105 140 179 222 271 323
#     4  12  24  34  48  68  96 138 183 224 267 310
#     4  10  21  38  61  87 114 145 181 226 280 337
#     4   9  16  27  44  66  93 127 169 215 261 310
#     4   9  20  36  51  71 101 139 181 225 270 316
#     4  10  20  32  48  73 105 140 178 220 265 318
#     4  10  20  35  58  86 114 146 184 230 279 331
#
# _framework density 17.789315999999999
#
# number of rings (size 3 to 8) (size 9 to 14) (size 15 to 20)
#    0.000    2.154    0.000    4.385    1.077    8.923 
#    0.000    0.000    0.000    0.923    0.000    2.154 
#    0.000    0.000    0.000    0.000    0.000    0.000 
#
# Total GULP energy -289585.447987 kJ/mol
# GULP energy per Si atom -5568.950923 kJ/mol
# Density = 1.774883 g / cm^3
# Si number density = 17.789316 Si / 1000 Ang^3
#
#
#
# Elastic Constant Matrix: (Units=GPa)
#
#
# Indices 1 2 3 4 5 6 
#
# 1 55.8586 24.3523 42.7085 0.0000 0.0000 0.0000
# 2 24.3523 55.2892 22.2807 0.0000 0.0000 0.0000
# 3 42.7085 22.2807 106.8508 0.0000 0.0000 0.0000
# 4 0.0000 0.0000 0.0000 28.5530 0.0000 0.0000
# 5 0.0000 0.0000 0.0000 0.0000 11.8845 0.0000
# 6 0.0000 0.0000 0.0000 0.0000 0.0000 -84.2063
#
#
#
# Elastic Compliance Matrix: (Units=1/GPa)
#
#
# Indices 1 2 3 4 5 6 
#
# 1 0.029346 -0.008951 -0.009863 0.000000 0.000000 0.000000
# 2 -0.008951 0.022476 -0.001109 0.000000 0.000000 0.000000
# 3 -0.009863 -0.001109 0.013532 0.000000 0.000000 0.000000
# 4 0.000000 0.000000 0.000000 0.035023 0.000000 0.000000
# 5 0.000000 0.000000 0.000000 0.000000 0.084143 0.000000
# 6 0.000000 0.000000 0.000000 0.000000 0.000000 -0.011876
#
#
# Mechanical properties :
#
#
# Convention : Reuss Voigt Hill
#
# Bulk Modulus (GPa) = 39.20297 44.07571 41.63934
# Shear Modulus (GPa) = 22.62519 -0.17661 11.22429
#
# Velocity S-wave (km/s) = 3.57016 -0.31543 2.51461
# Velocity P-wave (km/s) = 6.25139 4.96967 5.64701
#
# Compressibility (1/GPa) = 0.02550827
#
# Stress axis : x y z
#
# Youngs Moduli (GPa) = 34.07663 44.49184 73.89668
#
# Poissons Ratio (x) = 0.39823 0.72885
# Poissons Ratio (y) = 0.30501 0.08196
# Poissons Ratio (z) = 0.33610 0.04935
#
# Static dielectric constant tensor:
#      x y z
#    x 1.559120 0.000000 0.000000 
#    y 0.000000 1.459130 0.000000 
#    z 0.000000 0.000000 1.636600 
# 
# From -- ./inp_files/55199.got.cif
#   From: 2010.05.17/outbox.cif.g08.bks.cpg/sg74_28_cif.got.tgz:55199.got - 2010.06.03 17:57:02.
