data_PCOD9537364
_publ_section_title
;
Structure prediction by ZEFSAII (Michael W. Deem and Ramdas Pophale) SiO2 
 PCOD9537364
Probable space group: I M M A
;
_chemical_formula_sum "Si O2"
_cell_formula_units_Z 96
_cell_length_a 24.664763
_cell_length_b 15.449389
_cell_length_c 13.681139
_cell_angle_alpha 90.000000
_cell_angle_beta 90.000000
_cell_angle_gamma 90.000000
_cell_volume 5213.273511
_symmetry_space_group_name_H-M "I M M A"
_symmetry_group_IT_number 74
_symmetry_cell_setting 'orthorhombic'
loop_
_space_group_symop_operation_xyz
x,y,z
-x,1/2-y,z
x,-y,-z
-x,1/2+y,-z
-x,-y,-z
x,1/2+y,-z
-x,y,z
x,1/2-y,z
1/2+x,1/2+y,1/2+z
1/2-x,-y,1/2+z
1/2+x,1/2-y,1/2-z
1/2-x,y,1/2-z
1/2-x,1/2-y,1/2-z
1/2+x,y,1/2-z
1/2-x,1/2+y,1/2+z
1/2+x,-y,1/2+z
loop_
_atom_site_type_symbol
_atom_site_label
_atom_site_fract_x
_atom_site_fract_y
_atom_site_fract_z
Si Si1 0.293165 0.151938 0.662563
Si Si2 0.853900 0.517518 0.886353
Si Si3 0.436983 0.044617 0.228439
Si Si4 0.361452 0.649441 0.917996
Si Si5 0.239729 0.851587 0.935626
Si Si6 0.940512 0.413303 0.567567
O O1 0.316483 0.250000 0.669360
O O2 0.250000 0.143703 0.750000
O O3 0.267208 0.145182 0.553609
O O4 0.333493 0.070905 0.664362
O O5 0.907924 0.546327 0.831921
O O6 0.805952 0.589250 0.885548
O O7 0.864068 0.500000 0.000000
O O8 0.500000 0.069743 0.229522
O O9 0.401083 0.105319 0.159019
O O10 0.434266 0.950302 0.176209
O O11 0.357603 0.750000 0.896859
O O12 0.300258 0.614525 0.913729
O O13 0.389912 0.637415 0.023695
O O14 0.234478 0.750000 0.907457
O O15 0.942602 0.500000 0.500000
O O16 0.000000 0.370767 0.556818
#
# Coordination Sequence:
#
# PCOD9537364 Si02
#       6
#    16  16  16  16  16  16
#     4   9  19  34  55  83 112 142 183 229 272 335
#     4  10  22  37  58  81 109 150 188 234 283 328
#     4  10  22  37  54  78 107 146 194 235 272 326
#     4  10  20  33  54  83 115 146 176 220 278 344
#     4   9  20  36  52  83 120 146 180 225 280 339
#     4   8  16  31  49  71 101 136 173 216 262 313
#
# _framework density 18.414532999999999
#
# number of rings (size 3 to 8) (size 9 to 14) (size 15 to 20)
#    0.000    2.667    0.000    1.500    4.667    7.000 
#    0.000    1.667    0.000    1.500    0.000    4.667 
#    0.000    0.000    0.000    0.000    0.000    0.000 
#
# Total GULP energy -267443.546406 kJ/mol
# GULP energy per Si atom -5571.740550 kJ/mol
# Density = 1.837262 g / cm^3
# Si number density = 18.414533 Si / 1000 Ang^3
#
#
#
# Elastic Constant Matrix: (Units=GPa)
#
#
# Indices 1 2 3 4 5 6 
#
# 1 117.3632 21.4914 44.3837 0.0000 0.0000 0.0000
# 2 21.4914 43.5905 17.6739 0.0000 0.0000 0.0000
# 3 44.3837 17.6739 41.7567 0.0000 0.0000 0.0000
# 4 0.0000 0.0000 0.0000 6.3315 0.0000 0.0000
# 5 0.0000 0.0000 0.0000 0.0000 27.6150 0.0000
# 6 0.0000 0.0000 0.0000 0.0000 0.0000 -0.5202
#
#
#
# Elastic Compliance Matrix: (Units=1/GPa)
#
#
# Indices 1 2 3 4 5 6 
#
# 1 0.014289 -0.001071 -0.014735 0.000000 0.000000 0.000000
# 2 -0.001071 0.027773 -0.010617 0.000000 0.000000 0.000000
# 3 -0.014735 -0.010617 0.044104 0.000000 0.000000 0.000000
# 4 0.000000 0.000000 0.000000 0.157940 0.000000 0.000000
# 5 0.000000 0.000000 0.000000 0.000000 0.036212 0.000000
# 6 0.000000 0.000000 0.000000 0.000000 0.000000 -1.922296
#
#
# Mechanical properties :
#
#
# Convention : Reuss Voigt Hill
#
# Bulk Modulus (GPa) = 30.01128 41.08981 35.55055
# Shear Modulus (GPa) = -3.16851 14.62937 5.73043
#
# Velocity S-wave (km/s) = -1.31316 2.82165 1.76597
# Velocity P-wave (km/s) = 3.74617 5.74264 4.84828
#
# Compressibility (1/GPa) = 0.03332080
#
# Stress axis : x y z
#
# Youngs Moduli (GPa) = 69.98450 36.00564 22.67384
#
# Poissons Ratio (x) = 0.03855 0.33409
# Poissons Ratio (y) = 0.07493 0.24074
# Poissons Ratio (z) = 1.03120 0.38228
#
# Static dielectric constant tensor:
#      x y z
#    x 1.646890 0.000000 0.000000 
#    y 0.000000 1.584100 0.000000 
#    z 0.000000 0.000000 1.663440 
# 
# From -- ./inp_files/35304.got.cif
#   From: 2010.05.17/outbox.cif.g08.bks.cpg/sg74_18_cif.got.tgz:35304.got - 2010.06.03 17:57:02.
