data_PCOD9537875
_publ_section_title
;
Structure prediction by ZEFSAII (Michael W. Deem and Ramdas Pophale) SiO2 
 PCOD9537875
Probable space group: I M M A
;
_chemical_formula_sum "Si O2"
_cell_formula_units_Z 116
_cell_length_a 7.784006
_cell_length_b 24.923593
_cell_length_c 27.844343
_cell_angle_alpha 90.000000
_cell_angle_beta 90.000000
_cell_angle_gamma 90.000000
_cell_volume 5401.952831
_symmetry_space_group_name_H-M "I M M A"
_symmetry_group_IT_number 74
_symmetry_cell_setting 'orthorhombic'
loop_
_space_group_symop_operation_xyz
x,y,z
-x,1/2-y,z
x,-y,-z
-x,1/2+y,-z
-x,-y,-z
x,1/2+y,-z
-x,y,z
x,1/2-y,z
1/2+x,1/2+y,1/2+z
1/2-x,-y,1/2+z
1/2+x,1/2-y,1/2-z
1/2-x,y,1/2-z
1/2-x,1/2-y,1/2-z
1/2+x,y,1/2-z
1/2-x,1/2+y,1/2+z
1/2+x,-y,1/2+z
loop_
_atom_site_type_symbol
_atom_site_label
_atom_site_fract_x
_atom_site_fract_y
_atom_site_fract_z
Si Si1 0.699848 0.443407 0.847568
Si Si2 0.500000 0.250000 0.792443
Si Si3 0.701519 0.811050 0.967993
Si Si4 0.797310 0.055265 0.196753
Si Si5 0.705392 0.310813 0.569513
Si Si6 0.700105 0.166129 0.679574
Si Si7 0.696322 0.008927 0.946940
Si Si8 0.697673 0.097550 0.400105
O O1 0.500000 0.428562 0.852392
O O2 0.712170 0.499894 0.820280
O O3 0.787789 0.397817 0.814922
O O4 0.768983 0.454669 0.902542
O O5 0.345509 0.297157 0.796196
O O6 0.500000 0.808658 0.958958
O O7 0.770771 0.750000 0.968959
O O8 0.727387 0.836800 0.020890
O O9 0.783971 0.847410 0.927836
O O10 0.750000 0.071168 0.250000
O O11 0.755310 0.098609 0.155789
O O12 0.000000 0.045252 0.195689
O O13 0.500000 0.309628 0.565346
O O14 0.775180 0.250000 0.569339
O O15 0.742530 0.331027 0.622392
O O16 0.500000 0.184430 0.687340
O O17 0.500000 0.028012 0.954587
O O18 0.694654 0.949245 0.924946
O O19 0.776844 0.000000 0.000000
O O20 0.500000 0.079501 0.403920
#
# Coordination Sequence:
#
# PCOD9537875 Si02
#       8
#    16   4  16  16  16  16  16  16
#     4  10  20  35  55  83 118 150 187 237 289 345
#     4  12  22  36  56  78 112 156 204 248 298 338
#     4  10  21  33  51  75 106 149 195 237 278 334
#     4  10  21  39  63  88 113 141 180 235 295 358
#     4   9  18  31  46  68 101 143 194 240 278 320
#     4  11  22  35  53  79 115 154 199 250 292 341
#     4   9  19  34  51  75 108 149 191 229 277 338
#     4  10  21  36  54  80 112 145 183 231 289 345
#
# _framework density 21.473714999999999
#
# number of rings (size 3 to 8) (size 9 to 14) (size 15 to 20)
#    0.000    2.069    1.379    1.862    2.897    3.310 
#    0.000    0.000    0.000    0.414    0.000    0.483 
#    0.000    0.000    0.000    0.000    0.000    0.000 
#
# Total GULP energy -323070.185273 kJ/mol
# GULP energy per Si atom -5570.175608 kJ/mol
# Density = 2.142484 g / cm^3
# Si number density = 21.473715 Si / 1000 Ang^3
#
#
#
# Elastic Constant Matrix: (Units=GPa)
#
#
# Indices 1 2 3 4 5 6 
#
# 1 93.5659 15.6100 23.6976 0.0000 0.0000 0.0000
# 2 15.6100 48.4007 17.5825 0.0000 0.0000 0.0000
# 3 23.6976 17.5825 120.5568 0.0000 0.0000 0.0000
# 4 0.0000 0.0000 0.0000 -72.7540 0.0000 0.0000
# 5 0.0000 0.0000 0.0000 0.0000 20.5321 0.0000
# 6 0.0000 0.0000 0.0000 0.0000 0.0000 66.3520
#
#
#
# Elastic Compliance Matrix: (Units=1/GPa)
#
#
# Indices 1 2 3 4 5 6 
#
# 1 0.011671 -0.003095 -0.001843 0.000000 0.000000 0.000000
# 2 -0.003095 0.022637 -0.002693 0.000000 0.000000 0.000000
# 3 -0.001843 -0.002693 0.009050 0.000000 0.000000 0.000000
# 4 0.000000 0.000000 0.000000 -0.013745 0.000000 0.000000
# 5 0.000000 0.000000 0.000000 0.000000 0.048704 0.000000
# 6 0.000000 0.000000 0.000000 0.000000 0.000000 0.015071
#
#
# Mechanical properties :
#
#
# Convention : Reuss Voigt Hill
#
# Bulk Modulus (GPa) = 35.59132 41.81150 38.70141
# Shear Modulus (GPa) = 42.36758 16.53491 29.45124
#
# Velocity S-wave (km/s) = 4.44666 2.77791 3.70740
# Velocity P-wave (km/s) = 6.55546 5.45915 6.03226
#
# Compressibility (1/GPa) = 0.02809674
#
# Stress axis : x y z
#
# Youngs Moduli (GPa) = 85.68508 44.17490 110.49896
#
# Poissons Ratio (x) = 0.13670 0.20362
# Poissons Ratio (y) = 0.26516 0.29760
# Poissons Ratio (z) = 0.15790 0.11897
#
# Static dielectric constant tensor:
#      x y z
#    x 1.808660 0.000000 0.000000 
#    y 0.000000 1.804940 0.000000 
#    z 0.000000 0.000000 1.906930 
# 
# From -- ./inp_files/65119.got.cif
#   From: 2010.05.17/outbox.cif.g08.bks.cpg/sg74_33_cif.got.tgz:65119.got - 2010.06.03 17:57:02.
