data_PCOD9537918
_publ_section_title
;
Structure prediction by ZEFSAII (Michael W. Deem and Ramdas Pophale) SiO2 
 PCOD9537918
Probable space group: I M M A
;
_chemical_formula_sum "Si O2"
_cell_formula_units_Z 112
_cell_length_a 26.946150
_cell_length_b 18.817903
_cell_length_c 11.505750
_cell_angle_alpha 90.000000
_cell_angle_beta 90.000000
_cell_angle_gamma 90.000000
_cell_volume 5834.221077
_symmetry_space_group_name_H-M "I M M A"
_symmetry_group_IT_number 74
_symmetry_cell_setting 'orthorhombic'
loop_
_space_group_symop_operation_xyz
x,y,z
-x,1/2-y,z
x,-y,-z
-x,1/2+y,-z
-x,-y,-z
x,1/2+y,-z
-x,y,z
x,1/2-y,z
1/2+x,1/2+y,1/2+z
1/2-x,-y,1/2+z
1/2+x,1/2-y,1/2-z
1/2-x,y,1/2-z
1/2-x,1/2-y,1/2-z
1/2+x,y,1/2-z
1/2-x,1/2+y,1/2+z
1/2+x,-y,1/2+z
loop_
_atom_site_type_symbol
_atom_site_label
_atom_site_fract_x
_atom_site_fract_y
_atom_site_fract_z
Si Si1 0.603853 0.166099 0.472918
Si Si2 0.943448 0.163544 0.262378
Si Si3 0.696439 0.166719 0.620823
Si Si4 0.232077 0.036506 0.622084
Si Si5 0.941244 0.665024 0.475118
Si Si6 0.630143 0.917134 0.197415
Si Si7 0.556860 0.951979 0.386432
O O1 0.594686 0.250000 0.479964
O O2 0.591066 0.141271 0.343342
O O3 0.660642 0.154253 0.509824
O O4 0.568375 0.126555 0.563971
O O5 0.943954 0.250000 0.264811
O O6 0.929830 0.141797 0.392402
O O7 0.000000 0.140423 0.237231
O O8 0.708261 0.250000 0.630302
O O9 0.743341 0.115090 0.616455
O O10 0.661524 0.139772 0.726068
O O11 0.250000 0.007452 0.750000
O O12 0.172752 0.040274 0.631007
O O13 0.246925 0.000000 0.500000
O O14 0.933006 0.750000 0.465664
O O15 0.907410 0.623147 0.386316
O O16 0.000000 0.652945 0.455669
O O17 0.596926 0.963406 0.285869
O O18 0.500000 0.959341 0.347889
O O19 0.564948 0.000000 0.500000
#
# Coordination Sequence:
#
# PCOD9537918 Si02
#       7
#    16  16  16  16  16  16  16
#     4   9  17  31  54  83 111 142 185 233 279 331
#     4   8  14  26  45  72 109 150 185 216 260 323
#     4   9  19  35  59  88 113 140 185 242 296 343
#     4  10  23  43  64  85 111 151 196 242 298 355
#     4   9  17  30  50  79 117 153 182 219 272 334
#     4  10  20  35  56  81 111 145 191 228 282 338
#     4  10  21  36  54  81 116 152 188 229 278 329
#
# _framework density 19.197078000000001
#
# number of rings (size 3 to 8) (size 9 to 14) (size 15 to 20)
#    0.000    2.714    0.000    2.143    0.000    9.714 
#    5.143    0.000    0.000    1.286    0.000    0.000 
#    0.000    0.000    0.000    0.000    0.000    0.000 
#
# Total GULP energy -312201.898224 kJ/mol
# GULP energy per Si atom -5575.033897 kJ/mol
# Density = 1.915338 g / cm^3
# Si number density = 19.197078 Si / 1000 Ang^3
#
#
#
# Elastic Constant Matrix: (Units=GPa)
#
#
# Indices 1 2 3 4 5 6 
#
# 1 72.7674 28.4333 52.3929 0.0000 0.0000 0.0000
# 2 28.4333 41.0412 29.7129 0.0000 0.0000 0.0000
# 3 52.3929 29.7129 100.7241 0.0000 0.0000 0.0000
# 4 0.0000 0.0000 0.0000 24.3596 0.0000 0.0000
# 5 0.0000 0.0000 0.0000 0.0000 21.7954 0.0000
# 6 0.0000 0.0000 0.0000 0.0000 0.0000 8.0866
#
#
#
# Elastic Compliance Matrix: (Units=1/GPa)
#
#
# Indices 1 2 3 4 5 6 
#
# 1 0.024816 -0.009978 -0.009965 0.000000 0.000000 0.000000
# 2 -0.009978 0.034995 -0.005133 0.000000 0.000000 0.000000
# 3 -0.009965 -0.005133 0.016626 0.000000 0.000000 0.000000
# 4 0.000000 0.000000 0.000000 0.041052 0.000000 0.000000
# 5 0.000000 0.000000 0.000000 0.000000 0.045881 0.000000
# 6 0.000000 0.000000 0.000000 0.000000 0.000000 0.123661
#
#
# Mechanical properties :
#
#
# Convention : Reuss Voigt Hill
#
# Bulk Modulus (GPa) = 38.04526 48.40121 43.22324
# Shear Modulus (GPa) = 14.45319 17.78121 16.11720
#
# Velocity S-wave (km/s) = 2.74685 3.04673 2.90067
# Velocity P-wave (km/s) = 5.47006 6.13549 5.81231
#
# Compressibility (1/GPa) = 0.02628448
#
# Stress axis : x y z
#
# Youngs Moduli (GPa) = 40.29635 28.57565 60.14786
#
# Poissons Ratio (x) = 0.28513 0.59937
# Poissons Ratio (y) = 0.40209 0.30874
# Poissons Ratio (z) = 0.40155 0.14668
#
# Static dielectric constant tensor:
#      x y z
#    x 1.655060 0.000000 0.000000 
#    y 0.000000 1.676640 0.000000 
#    z 0.000000 0.000000 1.695320 
# 
# From -- ./inp_files/24320.got.cif
#   From: 2010.05.17/outbox.cif.g08.bks.cpg/sg74_13_cif.got.tgz:24320.got - 2010.06.03 17:57:02.
