data_PCOD9537285
_publ_section_title
;
Structure prediction by ZEFSAII (Michael W. Deem and Ramdas Pophale) SiO2 
 PCOD9537285
Probable space group: I M M A
;
_chemical_formula_sum "Si O2"
_cell_formula_units_Z 64
_cell_length_a 8.605900
_cell_length_b 17.458981
_cell_length_c 19.363614
_cell_angle_alpha 90.000000
_cell_angle_beta 90.000000
_cell_angle_gamma 90.000000
_cell_volume 2909.387740
_symmetry_space_group_name_H-M "I M M A"
_symmetry_group_IT_number 74
_symmetry_cell_setting 'orthorhombic'
loop_
_space_group_symop_operation_xyz
x,y,z
-x,1/2-y,z
x,-y,-z
-x,1/2+y,-z
-x,-y,-z
x,1/2+y,-z
-x,y,z
x,1/2-y,z
1/2+x,1/2+y,1/2+z
1/2-x,-y,1/2+z
1/2+x,1/2-y,1/2-z
1/2-x,y,1/2-z
1/2-x,1/2-y,1/2-z
1/2+x,y,1/2-z
1/2-x,1/2+y,1/2+z
1/2+x,-y,1/2+z
loop_
_atom_site_type_symbol
_atom_site_label
_atom_site_fract_x
_atom_site_fract_y
_atom_site_fract_z
Si Si1 0.184773 0.564040 0.672320
Si Si2 0.180288 0.068463 0.926041
Si Si3 0.675210 0.659668 0.180837
Si Si4 0.812140 0.162616 0.056358
O O1 0.250000 0.557771 0.750000
O O2 0.236270 0.493930 0.622177
O O3 0.251271 0.637396 0.631087
O O4 0.000000 0.567342 0.675657
O O5 0.207153 0.144071 0.880668
O O6 0.000000 0.046967 0.931190
O O7 0.238480 0.096854 0.000934
O O8 0.500000 0.630310 0.168289
O O9 0.661281 0.750000 0.190086
O O10 0.750000 0.625927 0.250000
O O11 0.762989 0.250000 0.039193
O O12 0.000000 0.161133 0.055407
#
# Coordination Sequence:
#
# PCOD9537285 Si02
#       4
#    16  16  16  16
#     4  12  26  44  67  95 129 170 216 267 321 378
#     4  11  22  39  64  93 127 165 207 257 315 379
#     4  10  20  33  51  79 118 163 210 259 311 371
#     4  10  23  44  69  97 130 169 212 260 318 383
#
# _framework density 21.997755000000002
#
# number of rings (size 3 to 8) (size 9 to 14) (size 15 to 20)
#    0.000    1.250    0.000    6.000    0.000    8.500 
#    0.000    0.000    0.000    0.000    0.000    0.000 
#    0.000    0.000    0.000    0.000    0.000    0.000 
#
# Total GULP energy -178648.536098 kJ/mol
# GULP energy per Si atom -5582.766753 kJ/mol
# Density = 2.194769 g / cm^3
# Si number density = 21.997755 Si / 1000 Ang^3
#
#
#
# Elastic Constant Matrix: (Units=GPa)
#
#
# Indices 1 2 3 4 5 6 
#
# 1 57.1372 14.8078 32.8083 0.0000 0.0000 0.0000
# 2 14.8078 63.8468 45.3083 0.0000 0.0000 0.0000
# 3 32.8083 45.3083 176.2672 0.0000 0.0000 0.0000
# 4 0.0000 0.0000 0.0000 27.6172 0.0000 0.0000
# 5 0.0000 0.0000 0.0000 0.0000 28.8806 0.0000
# 6 0.0000 0.0000 0.0000 0.0000 0.0000 28.2712
#
#
#
# Elastic Compliance Matrix: (Units=1/GPa)
#
#
# Indices 1 2 3 4 5 6 
#
# 1 0.019900 -0.002430 -0.003079 0.000000 0.000000 0.000000
# 2 -0.002430 0.019454 -0.004548 0.000000 0.000000 0.000000
# 3 -0.003079 -0.004548 0.007415 0.000000 0.000000 0.000000
# 4 0.000000 0.000000 0.000000 0.036209 0.000000 0.000000
# 5 0.000000 0.000000 0.000000 0.000000 0.034625 0.000000
# 6 0.000000 0.000000 0.000000 0.000000 0.000000 0.035372
#
#
# Mechanical properties :
#
#
# Convention : Reuss Voigt Hill
#
# Bulk Modulus (GPa) = 37.51819 53.67777 45.59798
# Shear Modulus (GPa) = 27.47638 30.57559 29.02599
#
# Velocity S-wave (km/s) = 3.53803 3.73224 3.63643
# Velocity P-wave (km/s) = 5.81229 6.55951 6.19717
#
# Compressibility (1/GPa) = 0.02665374
#
# Stress axis : x y z
#
# Youngs Moduli (GPa) = 50.25224 51.40431 134.85450
#
# Poissons Ratio (x) = 0.12492 0.41525
# Poissons Ratio (y) = 0.12212 0.61333
# Poissons Ratio (z) = 0.15474 0.23379
#
# Static dielectric constant tensor:
#      x y z
#    x 1.786520 0.000000 0.000000 
#    y 0.000000 1.908490 0.000000 
#    z 0.000000 0.000000 1.823920 
# 
# From -- ./inp_files/39063.got.cif
#   From: 2010.05.17/outbox.cif.g08.bks.cpg/sg74_20_cif.got.tgz:39063.got - 2010.06.03 17:57:02.
