data_PCOD9537573
_publ_section_title
;
Structure prediction by ZEFSAII (Michael W. Deem and Ramdas Pophale) SiO2 
 PCOD9537573
Probable space group: I M M A
;
_chemical_formula_sum "Si O2"
_cell_formula_units_Z 80
_cell_length_a 30.195199
_cell_length_b 8.956910
_cell_length_c 15.344860
_cell_angle_alpha 90.000000
_cell_angle_beta 90.000000
_cell_angle_gamma 90.000000
_cell_volume 4150.104544
_symmetry_space_group_name_H-M "I M M A"
_symmetry_group_IT_number 74
_symmetry_cell_setting 'orthorhombic'
loop_
_space_group_symop_operation_xyz
x,y,z
-x,1/2-y,z
x,-y,-z
-x,1/2+y,-z
-x,-y,-z
x,1/2+y,-z
-x,y,z
x,1/2-y,z
1/2+x,1/2+y,1/2+z
1/2-x,-y,1/2+z
1/2+x,1/2-y,1/2-z
1/2-x,y,1/2-z
1/2-x,1/2-y,1/2-z
1/2+x,y,1/2-z
1/2-x,1/2+y,1/2+z
1/2+x,-y,1/2+z
loop_
_atom_site_type_symbol
_atom_site_label
_atom_site_fract_x
_atom_site_fract_y
_atom_site_fract_z
Si Si1 0.360678 0.929993 0.224774
Si Si2 0.818724 0.929497 0.094072
Si Si3 0.947680 0.082774 0.916362
Si Si4 0.950338 0.571873 0.730563
Si Si5 0.216889 0.929683 0.406211
O O1 0.363821 0.750000 0.223324
O O2 0.349476 0.975013 0.324734
O O3 0.319227 0.975328 0.164995
O O4 0.406684 0.997878 0.190188
O O5 0.820737 0.750000 0.086459
O O6 0.767620 0.969327 0.116975
O O7 0.828237 0.000000 0.000000
O O8 0.929273 0.250000 0.902677
O O9 0.000000 0.101748 0.934125
O O10 0.946596 0.983315 0.830415
O O11 0.928173 0.000000 0.000000
O O12 0.947848 0.750000 0.725465
O O13 0.000000 0.525897 0.700030
O O14 0.215239 0.750000 0.412733
O O15 0.207041 0.000000 0.500000
#
# Coordination Sequence:
#
# PCOD9537573 Si02
#       5
#    16  16  16  16  16
#     4  10  20  34  54  78 105 140 178 215 259 313
#     4   9  18  33  53  79 111 143 173 207 251 307
#     4   9  16  27  44  64  87 119 161 207 253 302
#     4  10  21  35  49  68  97 133 174 221 268 310
#     4   9  18  34  56  81 108 137 170 211 261 316
#
# _framework density 19.276622
#
# number of rings (size 3 to 8) (size 9 to 14) (size 15 to 20)
#    0.000    2.600    0.000    1.800    0.000    8.400 
#    0.000    2.000    0.000    6.600    0.000    0.000 
#    0.000    0.000    0.000    0.000    0.000    0.000 
#
# Total GULP energy -223059.546852 kJ/mol
# GULP energy per Si atom -5576.488671 kJ/mol
# Density = 1.923275 g / cm^3
# Si number density = 19.276622 Si / 1000 Ang^3
#
#
#
# Elastic Constant Matrix: (Units=GPa)
#
#
# Indices 1 2 3 4 5 6 
#
# 1 175.5703 32.1972 45.5249 0.0000 0.0000 0.0000
# 2 32.1972 23.6420 12.7210 0.0000 0.0000 0.0000
# 3 45.5249 12.7210 39.6128 0.0000 0.0000 0.0000
# 4 0.0000 0.0000 0.0000 23.0730 0.0000 0.0000
# 5 0.0000 0.0000 0.0000 0.0000 -1.3491 0.0000
# 6 0.0000 0.0000 0.0000 0.0000 0.0000 66.3157
#
#
#
# Elastic Compliance Matrix: (Units=1/GPa)
#
#
# Indices 1 2 3 4 5 6 
#
# 1 0.009306 -0.008365 -0.008009 0.000000 0.000000 0.000000
# 2 -0.008365 0.058651 -0.009222 0.000000 0.000000 0.000000
# 3 -0.008009 -0.009222 0.037410 0.000000 0.000000 0.000000
# 4 0.000000 0.000000 0.000000 0.043341 0.000000 0.000000
# 5 0.000000 0.000000 0.000000 0.000000 -0.741217 0.000000
# 6 0.000000 0.000000 0.000000 0.000000 0.000000 0.015079
#
#
# Mechanical properties :
#
#
# Convention : Reuss Voigt Hill
#
# Bulk Modulus (GPa) = 18.45813 46.63457 32.54635
# Shear Modulus (GPa) = -9.83905 27.50005 8.83050
#
# Velocity S-wave (km/s) = -2.26168 3.78113 2.14263
# Velocity P-wave (km/s) = 1.66610 6.58084 4.80017
#
# Compressibility (1/GPa) = 0.05417668
#
# Stress axis : x y z
#
# Youngs Moduli (GPa) = 107.45219 17.04995 26.73056
#
# Poissons Ratio (x) = 0.14262 0.21409
# Poissons Ratio (y) = 0.89880 0.24650
# Poissons Ratio (z) = 0.86061 0.15723
#
# Static dielectric constant tensor:
#      x y z
#    x 1.754720 0.000000 0.000000 
#    y 0.000000 1.599060 0.000000 
#    z 0.000000 0.000000 1.646130 
# 
# From -- ./inp_files/46502.got.cif
#   From: 2010.05.17/outbox.cif.g08.bks.cpg/sg74_24_cif.got.tgz:46502.got - 2010.06.03 17:57:02.
