data_PCOD9537585
_publ_section_title
;
Structure prediction by ZEFSAII (Michael W. Deem and Ramdas Pophale) SiO2 
 PCOD9537585
Probable space group: I M M A
;
_chemical_formula_sum "Si O2"
_cell_formula_units_Z 112
_cell_length_a 21.091980
_cell_length_b 20.489308
_cell_length_c 13.647252
_cell_angle_alpha 90.000000
_cell_angle_beta 90.000000
_cell_angle_gamma 90.000000
_cell_volume 5897.797442
_symmetry_space_group_name_H-M "I M M A"
_symmetry_group_IT_number 74
_symmetry_cell_setting 'orthorhombic'
loop_
_space_group_symop_operation_xyz
x,y,z
-x,1/2-y,z
x,-y,-z
-x,1/2+y,-z
-x,-y,-z
x,1/2+y,-z
-x,y,z
x,1/2-y,z
1/2+x,1/2+y,1/2+z
1/2-x,-y,1/2+z
1/2+x,1/2-y,1/2-z
1/2-x,y,1/2-z
1/2-x,1/2-y,1/2-z
1/2+x,y,1/2-z
1/2-x,1/2+y,1/2+z
1/2+x,-y,1/2+z
loop_
_atom_site_type_symbol
_atom_site_label
_atom_site_fract_x
_atom_site_fract_y
_atom_site_fract_z
Si Si1 0.570452 0.877355 0.251040
Si Si2 0.855014 0.325243 0.094148
Si Si3 0.321334 0.412054 0.217706
Si Si4 0.210483 0.175632 0.467045
Si Si5 0.303994 0.325626 0.818499
Si Si6 0.574736 0.569861 0.465563
Si Si7 0.427157 0.999783 0.116477
O O1 0.500000 0.847805 0.259471
O O2 0.628711 0.829684 0.233951
O O3 0.582647 0.918233 0.350090
O O4 0.570613 0.927081 0.160175
O O5 0.875827 0.250000 0.109934
O O6 0.846117 0.366094 0.194245
O O7 0.786248 0.322061 0.043113
O O8 0.897861 0.368888 0.023831
O O9 0.250000 0.436116 0.250000
O O10 0.312566 0.366611 0.123083
O O11 0.374108 0.463683 0.182058
O O12 0.185895 0.250000 0.458743
O O13 0.193352 0.146121 0.572399
O O14 0.285825 0.250000 0.834715
O O15 0.250000 0.356187 0.750000
O O16 0.602403 0.500000 0.500000
O O17 0.500000 0.567934 0.485928
O O18 0.500000 0.026328 0.128479
O O19 0.412809 0.000000 0.000000
#
# Coordination Sequence:
#
# PCOD9537585 Si02
#       7
#    16  16  16  16  16  16  16
#     4  10  21  36  54  77 105 140 179 220 273 332
#     4  10  20  35  57  83 110 144 188 236 288 345
#     4  10  20  35  56  84 112 144 187 236 289 340
#     4   9  18  34  54  77 109 144 178 223 281 340
#     4  10  20  34  54  79 106 138 177 222 272 328
#     4  10  21  37  55  76 108 147 183 224 280 345
#     4  10  21  38  59  81 111 152 194 236 284 344
#
# _framework density 18.99014
#
# number of rings (size 3 to 8) (size 9 to 14) (size 15 to 20)
#    0.000    2.143    0.000    3.000    0.000    6.286 
#    0.000   10.000    0.000    2.143    0.000    0.000 
#    0.000    0.000    0.000    0.000    0.000    0.000 
#
# Total GULP energy -312115.739201 kJ/mol
# GULP energy per Si atom -5573.495343 kJ/mol
# Density = 1.894692 g / cm^3
# Si number density = 18.990140 Si / 1000 Ang^3
#
#
#
# Elastic Constant Matrix: (Units=GPa)
#
#
# Indices 1 2 3 4 5 6 
#
# 1 67.7004 23.0216 52.9360 0.0000 0.0000 0.0000
# 2 23.0216 39.9269 9.4663 0.0000 0.0000 0.0000
# 3 52.9360 9.4663 83.6967 0.0000 0.0000 0.0000
# 4 0.0000 0.0000 0.0000 15.9443 0.0000 0.0000
# 5 0.0000 0.0000 0.0000 0.0000 27.8195 0.0000
# 6 0.0000 0.0000 0.0000 0.0000 0.0000 10.6921
#
#
#
# Elastic Compliance Matrix: (Units=1/GPa)
#
#
# Indices 1 2 3 4 5 6 
#
# 1 0.037380 -0.016388 -0.021789 0.000000 0.000000 0.000000
# 2 -0.016388 0.032920 0.006641 0.000000 0.000000 0.000000
# 3 -0.021789 0.006641 0.024978 0.000000 0.000000 0.000000
# 4 0.000000 0.000000 0.000000 0.062718 0.000000 0.000000
# 5 0.000000 0.000000 0.000000 0.000000 0.035946 0.000000
# 6 0.000000 0.000000 0.000000 0.000000 0.000000 0.093527
#
#
# Mechanical properties :
#
#
# Convention : Reuss Voigt Hill
#
# Bulk Modulus (GPa) = 31.04780 40.24130 35.64455
# Shear Modulus (GPa) = 13.83987 17.95120 15.89554
#
# Velocity S-wave (km/s) = 2.70254 3.07789 2.89631
# Velocity P-wave (km/s) = 5.11109 5.81961 5.47682
#
# Compressibility (1/GPa) = 0.03220841
#
# Stress axis : x y z
#
# Youngs Moduli (GPa) = 26.75192 30.37653 40.03595
#
# Poissons Ratio (x) = 0.49780 0.87233
# Poissons Ratio (y) = 0.43840 -0.26589
# Poissons Ratio (z) = 0.58289 -0.20174
#
# Static dielectric constant tensor:
#      x y z
#    x 1.676980 0.000000 0.000000 
#    y 0.000000 1.682530 0.000000 
#    z 0.000000 0.000000 1.663860 
# 
# From -- ./inp_files/25405.got.cif
#   From: 2010.05.17/outbox.cif.g08.bks.cpg/sg74_13_cif.got.tgz:25405.got - 2010.06.03 17:57:02.
