data_PCOD9537862
_publ_section_title
;
Structure prediction by ZEFSAII (Michael W. Deem and Ramdas Pophale) SiO2 
 PCOD9537862
Probable space group: I M M A
;
_chemical_formula_sum "Si O2"
_cell_formula_units_Z 112
_cell_length_a 23.683569
_cell_length_b 15.289856
_cell_length_c 14.733850
_cell_angle_alpha 90.000000
_cell_angle_beta 90.000000
_cell_angle_gamma 90.000000
_cell_volume 5335.397592
_symmetry_space_group_name_H-M "I M M A"
_symmetry_group_IT_number 74
_symmetry_cell_setting 'orthorhombic'
loop_
_space_group_symop_operation_xyz
x,y,z
-x,1/2-y,z
x,-y,-z
-x,1/2+y,-z
-x,-y,-z
x,1/2+y,-z
-x,y,z
x,1/2-y,z
1/2+x,1/2+y,1/2+z
1/2-x,-y,1/2+z
1/2+x,1/2-y,1/2-z
1/2-x,y,1/2-z
1/2-x,1/2-y,1/2-z
1/2+x,y,1/2-z
1/2-x,1/2+y,1/2+z
1/2+x,-y,1/2+z
loop_
_atom_site_type_symbol
_atom_site_label
_atom_site_fract_x
_atom_site_fract_y
_atom_site_fract_z
Si Si1 0.565858 0.852942 0.464008
Si Si2 0.876261 0.064273 0.798154
Si Si3 0.064445 0.151242 0.342493
Si Si4 0.822316 0.647253 0.576715
Si Si5 0.773225 0.992736 0.892616
Si Si6 0.564598 0.907265 0.655883
Si Si7 0.309107 0.350967 0.861372
O O1 0.500000 0.878997 0.443767
O O2 0.565523 0.750000 0.483713
O O3 0.607477 0.871684 0.380488
O O4 0.588275 0.901183 0.554455
O O5 0.828720 0.994361 0.831137
O O6 0.855804 0.113558 0.708982
O O7 0.930019 0.001118 0.795954
O O8 0.062065 0.250000 0.379475
O O9 0.118058 0.107874 0.389879
O O10 0.082043 0.155444 0.236829
O O11 0.000000 0.116413 0.349743
O O12 0.815736 0.750000 0.603346
O O13 0.770687 0.587781 0.612564
O O14 0.825361 0.645197 0.467436
O O15 0.742622 0.081493 0.858888
O O16 0.786456 0.000000 0.000000
O O17 0.500000 0.884338 0.637957
O O18 0.295143 0.250000 0.839869
#
# Coordination Sequence:
#
# PCOD9537862 Si02
#       7
#    16  16  16  16  16  16  16
#     4  10  21  37  56  79 111 150 191 241 299 353
#     4  12  22  35  55  81 112 147 195 237 279 341
#     4   9  17  32  57  85 109 139 184 234 284 342
#     4   9  19  39  62  85 117 152 187 236 297 350
#     4  10  21  37  57  81 111 148 191 238 285 335
#     4  10  20  35  55  80 112 148 184 231 293 351
#     4  10  22  38  57  81 114 156 192 230 287 347
#
# _framework density 20.991873999999999
#
# number of rings (size 3 to 8) (size 9 to 14) (size 15 to 20)
#    0.000    2.000    0.000    3.857    0.000    4.571 
#    0.000    5.714    0.000   12.429    0.000    0.000 
#    0.000    0.000    0.000    0.000    0.000    0.000 
#
# Total GULP energy -311968.615482 kJ/mol
# GULP energy per Si atom -5570.868134 kJ/mol
# Density = 2.094410 g / cm^3
# Si number density = 20.991874 Si / 1000 Ang^3
#
#
#
# Elastic Constant Matrix: (Units=GPa)
#
#
# Indices 1 2 3 4 5 6 
#
# 1 78.8311 22.5992 30.4495 0.0000 0.0000 0.0000
# 2 22.5992 86.7609 25.1612 0.0000 0.0000 0.0000
# 3 30.4495 25.1612 66.8920 0.0000 0.0000 0.0000
# 4 0.0000 0.0000 0.0000 28.5382 0.0000 0.0000
# 5 0.0000 0.0000 0.0000 0.0000 33.8242 0.0000
# 6 0.0000 0.0000 0.0000 0.0000 0.0000 24.5459
#
#
#
# Elastic Compliance Matrix: (Units=1/GPa)
#
#
# Indices 1 2 3 4 5 6 
#
# 1 0.015782 -0.002276 -0.006328 0.000000 0.000000 0.000000
# 2 -0.002276 0.013265 -0.003954 0.000000 0.000000 0.000000
# 3 -0.006328 -0.003954 0.019317 0.000000 0.000000 0.000000
# 4 0.000000 0.000000 0.000000 0.035041 0.000000 0.000000
# 5 0.000000 0.000000 0.000000 0.000000 0.029565 0.000000
# 6 0.000000 0.000000 0.000000 0.000000 0.000000 0.040740
#
#
# Mechanical properties :
#
#
# Convention : Reuss Voigt Hill
#
# Bulk Modulus (GPa) = 43.01167 43.21155 43.11161
# Shear Modulus (GPa) = 26.79889 27.66660 27.23275
#
# Velocity S-wave (km/s) = 3.57687 3.63432 3.60571
# Velocity P-wave (km/s) = 6.13130 6.18390 6.15766
#
# Compressibility (1/GPa) = 0.02324950
#
# Stress axis : x y z
#
# Youngs Moduli (GPa) = 63.36324 75.38452 51.76722
#
# Poissons Ratio (x) = 0.17155 0.32759
# Poissons Ratio (y) = 0.14419 0.20468
# Poissons Ratio (z) = 0.40097 0.29806
#
# Static dielectric constant tensor:
#      x y z
#    x 1.805150 0.000000 0.000000 
#    y 0.000000 1.843210 0.000000 
#    z 0.000000 0.000000 1.797390 
# 
# From -- ./inp_files/36545.got.cif
#   From: 2010.05.17/outbox.cif.g08.bks.cpg/sg74_19_cif.got.tgz:36545.got - 2010.06.03 17:57:02.
