data_PCOD9537450
_publ_section_title
;
Structure prediction by ZEFSAII (Michael W. Deem and Ramdas Pophale) SiO2 
 PCOD9537450
Probable space group: I M M A
;
_chemical_formula_sum "Si O2"
_cell_formula_units_Z 96
_cell_length_a 20.570573
_cell_length_b 12.577487
_cell_length_c 17.879994
_cell_angle_alpha 90.000000
_cell_angle_beta 90.000000
_cell_angle_gamma 90.000000
_cell_volume 4626.021375
_symmetry_space_group_name_H-M "I M M A"
_symmetry_group_IT_number 74
_symmetry_cell_setting 'orthorhombic'
loop_
_space_group_symop_operation_xyz
x,y,z
-x,1/2-y,z
x,-y,-z
-x,1/2+y,-z
-x,-y,-z
x,1/2+y,-z
-x,y,z
x,1/2-y,z
1/2+x,1/2+y,1/2+z
1/2-x,-y,1/2+z
1/2+x,1/2-y,1/2-z
1/2-x,y,1/2-z
1/2-x,1/2-y,1/2-z
1/2+x,y,1/2-z
1/2-x,1/2+y,1/2+z
1/2+x,-y,1/2+z
loop_
_atom_site_type_symbol
_atom_site_label
_atom_site_fract_x
_atom_site_fract_y
_atom_site_fract_z
Si Si1 0.569632 0.873050 0.601862
Si Si2 0.287044 0.088650 0.674651
Si Si3 0.426964 0.621503 0.120304
Si Si4 0.697147 0.372127 0.965285
Si Si5 0.928369 0.928698 0.208069
Si Si6 0.288055 0.874939 0.599236
O O1 0.500000 0.889782 0.561018
O O2 0.570060 0.750000 0.626339
O O3 0.639531 0.888330 0.562799
O O4 0.569761 0.954812 0.670593
O O5 0.250000 0.120103 0.750000
O O6 0.248868 0.128304 0.602347
O O7 0.362384 0.122392 0.676641
O O8 0.285727 0.959678 0.665914
O O9 0.500000 0.601208 0.092347
O O10 0.420543 0.750000 0.130911
O O11 0.369706 0.581685 0.067062
O O12 0.420518 0.571051 0.202610
O O13 0.680463 0.250000 0.982726
O O14 0.732836 0.408071 0.040633
O O15 0.000000 0.880322 0.192439
O O16 0.281050 0.750000 0.618527
#
# Coordination Sequence:
#
# PCOD9537450 Si02
#       6
#    16  16  16  16  16  16
#     4   8  14  27  49  74 100 133 169 203 246 300
#     4  11  20  32  52  78 100 132 170 211 254 301
#     4   9  17  30  50  74 100 131 166 206 254 304
#     4  10  20  34  52  74 102 135 169 208 253 302
#     4   9  17  30  47  71 104 132 162 204 250 303
#     4   9  19  34  51  73 103 136 170 208 252 301
#
# _framework density 20.752172999999999
#
# number of rings (size 3 to 8) (size 9 to 14) (size 15 to 20)
#    0.000    2.667    1.667    0.500    0.000    1.333 
#    0.000    0.833    0.000    8.000    0.000    0.000 
#    0.000    0.000    0.000    0.000    0.000    0.000 
#
# Total GULP energy -267257.340583 kJ/mol
# GULP energy per Si atom -5567.861262 kJ/mol
# Density = 2.070494 g / cm^3
# Si number density = 20.752173 Si / 1000 Ang^3
#
#
#
# Elastic Constant Matrix: (Units=GPa)
#
#
# Indices 1 2 3 4 5 6 
#
# 1 187.1221 8.6336 44.8748 0.0000 0.0000 0.0000
# 2 8.6336 63.9101 -0.1721 0.0000 0.0000 0.0000
# 3 44.8748 -0.1721 42.1788 0.0000 0.0000 0.0000
# 4 0.0000 0.0000 0.0000 7.5778 0.0000 0.0000
# 5 0.0000 0.0000 0.0000 0.0000 28.2260 0.0000
# 6 0.0000 0.0000 0.0000 0.0000 0.0000 13.1914
#
#
#
# Elastic Compliance Matrix: (Units=1/GPa)
#
#
# Indices 1 2 3 4 5 6 
#
# 1 0.007238 -0.000999 -0.007705 0.000000 0.000000 0.000000
# 2 -0.000999 0.015785 0.001127 0.000000 0.000000 0.000000
# 3 -0.007705 0.001127 0.031910 0.000000 0.000000 0.000000
# 4 0.000000 0.000000 0.000000 0.131964 0.000000 0.000000
# 5 0.000000 0.000000 0.000000 0.000000 0.035428 0.000000
# 6 0.000000 0.000000 0.000000 0.000000 0.000000 0.075807
#
#
# Mechanical properties :
#
#
# Convention : Reuss Voigt Hill
#
# Bulk Modulus (GPa) = 25.13804 44.43149 34.78477
# Shear Modulus (GPa) = 15.31180 25.79068 20.55124
#
# Velocity S-wave (km/s) = 2.71927 3.52915 3.15034
# Velocity P-wave (km/s) = 4.69031 6.16957 5.48008
#
# Compressibility (1/GPa) = 0.03978035
#
# Stress axis : x y z
#
# Youngs Moduli (GPa) = 138.16266 63.35163 31.33795
#
# Poissons Ratio (x) = 0.06326 0.24144
# Poissons Ratio (y) = 0.13796 -0.03531
# Poissons Ratio (z) = 1.06448 -0.07138
#
# Static dielectric constant tensor:
#      x y z
#    x 1.809860 0.000000 0.000000 
#    y 0.000000 1.795080 0.000000 
#    z 0.000000 0.000000 1.678310 
# 
# From -- ./inp_files/35260.got.cif
#   From: 2010.05.17/outbox.cif.g08.bks.cpg/sg74_18_cif.got.tgz:35260.got - 2010.06.03 17:57:02.
