data_PCOD9537344
_publ_section_title
;
Structure prediction by ZEFSAII (Michael W. Deem and Ramdas Pophale) SiO2 
 PCOD9537344
Probable space group: I M M A
;
_chemical_formula_sum "Si O2"
_cell_formula_units_Z 80
_cell_length_a 7.963481
_cell_length_b 16.324136
_cell_length_c 30.254994
_cell_angle_alpha 90.000000
_cell_angle_beta 90.000000
_cell_angle_gamma 90.000000
_cell_volume 3933.056848
_symmetry_space_group_name_H-M "I M M A"
_symmetry_group_IT_number 74
_symmetry_cell_setting 'orthorhombic'
loop_
_space_group_symop_operation_xyz
x,y,z
-x,1/2-y,z
x,-y,-z
-x,1/2+y,-z
-x,-y,-z
x,1/2+y,-z
-x,y,z
x,1/2-y,z
1/2+x,1/2+y,1/2+z
1/2-x,-y,1/2+z
1/2+x,1/2-y,1/2-z
1/2-x,y,1/2-z
1/2-x,1/2-y,1/2-z
1/2+x,y,1/2-z
1/2-x,1/2+y,1/2+z
1/2+x,-y,1/2+z
loop_
_atom_site_type_symbol
_atom_site_label
_atom_site_fract_x
_atom_site_fract_y
_atom_site_fract_z
Si Si1 0.798803 0.250000 0.467681
Si Si2 0.799367 0.111279 0.201156
Si Si3 0.796501 0.750000 0.865468
Si Si4 0.197770 0.922185 0.298899
Si Si5 0.294452 0.412911 0.980878
Si Si6 0.294556 0.156210 0.888542
O O1 0.760307 0.250000 0.415824
O O2 0.737748 0.166374 0.491006
O O3 0.000000 0.250000 0.473460
O O4 0.750000 0.141928 0.250000
O O5 0.738526 0.170817 0.162409
O O6 0.000000 0.108655 0.199516
O O7 0.735545 0.018694 0.196884
O O8 0.000000 0.750000 0.865079
O O9 0.250000 0.894659 0.250000
O O10 0.269527 0.875552 0.341363
O O11 0.000000 0.911275 0.300621
O O12 0.500000 0.413357 0.982063
O O13 0.243098 0.398749 0.930121
O O14 0.237727 0.500000 0.000000
O O15 0.500000 0.154825 0.887875
O O16 0.244946 0.250000 0.896303
#
# Coordination Sequence:
#
# PCOD9537344 Si02
#       6
#     8  16   8  16  16  16
#     4  10  20  33  55  84 108 133 177 228 263 310
#     4  10  20  36  55  75 104 141 178 216 261 310
#     4  10  23  37  51  74 110 147 171 210 268 320
#     4  10  20  33  53  79 107 137 173 217 264 315
#     4   9  17  30  50  78 109 135 168 222 274 307
#     4   9  17  31  50  74 106 140 172 213 266 314
#
# _framework density 20.340413000000002
#
# number of rings (size 3 to 8) (size 9 to 14) (size 15 to 20)
#    0.000    2.400    1.000    2.700    2.800    2.000 
#    0.000    0.000    0.000    4.800    0.000    0.000 
#    0.000    0.000    0.000    0.000    0.000    0.000 
#
# Total GULP energy -223267.983160 kJ/mol
# GULP energy per Si atom -5581.699579 kJ/mol
# Density = 2.029412 g / cm^3
# Si number density = 20.340413 Si / 1000 Ang^3
#
#
#
# Elastic Constant Matrix: (Units=GPa)
#
#
# Indices 1 2 3 4 5 6 
#
# 1 13.8812 2.8615 8.3599 0.0000 0.0000 0.0000
# 2 2.8615 125.9397 100.4535 0.0000 0.0000 0.0000
# 3 8.3599 100.4535 196.9485 0.0000 0.0000 0.0000
# 4 0.0000 0.0000 0.0000 42.5535 0.0000 0.0000
# 5 0.0000 0.0000 0.0000 0.0000 24.3656 0.0000
# 6 0.0000 0.0000 0.0000 0.0000 0.0000 6.5569
#
#
#
# Elastic Compliance Matrix: (Units=1/GPa)
#
#
# Indices 1 2 3 4 5 6 
#
# 1 0.074074 0.001391 -0.003853 0.000000 0.000000 0.000000
# 2 0.001391 0.013412 -0.006900 0.000000 0.000000 0.000000
# 3 -0.003853 -0.006900 0.008760 0.000000 0.000000 0.000000
# 4 0.000000 0.000000 0.000000 0.023500 0.000000 0.000000
# 5 0.000000 0.000000 0.000000 0.000000 0.041041 0.000000
# 6 0.000000 0.000000 0.000000 0.000000 0.000000 0.152512
#
#
# Mechanical properties :
#
#
# Convention : Reuss Voigt Hill
#
# Bulk Modulus (GPa) = 12.89979 62.23547 37.56763
# Shear Modulus (GPa) = 13.97174 29.70151 21.83662
#
# Velocity S-wave (km/s) = 2.62371 3.82543 3.28007
# Velocity P-wave (km/s) = 3.94135 7.08345 5.73190
#
# Compressibility (1/GPa) = 0.07752065
#
# Stress axis : x y z
#
# Youngs Moduli (GPa) = 13.50007 74.55803 114.15034
#
# Poissons Ratio (x) = -0.10368 0.43987
# Poissons Ratio (y) = -0.01877 0.78764
# Poissons Ratio (z) = 0.05202 0.51445
#
# Static dielectric constant tensor:
#      x y z
#    x 1.733090 0.000000 0.000000 
#    y 0.000000 1.710380 0.000000 
#    z 0.000000 0.000000 1.722590 
# 
# From -- ./inp_files/64021.got.cif
#   From: 2010.05.17/outbox.cif.g08.bks.cpg/sg74_33_cif.got.tgz:64021.got - 2010.06.03 17:57:02.
