data_PCOD9537615
_publ_section_title
;
Structure prediction by ZEFSAII (Michael W. Deem and Ramdas Pophale) SiO2 
 PCOD9537615
Probable space group: I M M A
;
_chemical_formula_sum "Si O2"
_cell_formula_units_Z 80
_cell_length_a 23.354902
_cell_length_b 8.047356
_cell_length_c 20.266687
_cell_angle_alpha 90.000000
_cell_angle_beta 90.000000
_cell_angle_gamma 90.000000
_cell_volume 3809.026759
_symmetry_space_group_name_H-M "I M M A"
_symmetry_group_IT_number 74
_symmetry_cell_setting 'orthorhombic'
loop_
_space_group_symop_operation_xyz
x,y,z
-x,1/2-y,z
x,-y,-z
-x,1/2+y,-z
-x,-y,-z
x,1/2+y,-z
-x,y,z
x,1/2-y,z
1/2+x,1/2+y,1/2+z
1/2-x,-y,1/2+z
1/2+x,1/2-y,1/2-z
1/2-x,y,1/2-z
1/2-x,1/2-y,1/2-z
1/2+x,y,1/2-z
1/2-x,1/2+y,1/2+z
1/2+x,-y,1/2+z
loop_
_atom_site_type_symbol
_atom_site_label
_atom_site_fract_x
_atom_site_fract_y
_atom_site_fract_z
Si Si1 0.117981 0.564732 0.799920
Si Si2 0.066176 0.948039 0.074398
Si Si3 0.871839 0.049935 0.573045
Si Si4 0.201060 0.937232 0.298364
Si Si5 0.500000 0.945008 0.890214
Si Si6 0.000000 0.059309 0.752161
O O1 0.139621 0.750000 0.787680
O O2 0.112479 0.525708 0.876749
O O3 0.150741 0.435089 0.755032
O O4 0.053959 0.542813 0.775390
O O5 0.068119 0.750000 0.080945
O O6 0.000000 0.000913 0.088831
O O7 0.077522 0.000000 0.000000
O O8 0.875298 0.250000 0.578148
O O9 0.829574 0.994566 0.634192
O O10 0.850102 0.000000 0.500000
O O11 0.937486 0.981063 0.577649
O O12 0.221215 0.750000 0.315114
O O13 0.250000 0.016675 0.250000
O O14 0.500000 0.750000 0.873379
O O15 0.500000 0.059335 0.826130
O O16 0.000000 0.250000 0.777073
#
# Coordination Sequence:
#
# PCOD9537615 Si02
#       6
#    16  16  16  16   8   8
#     4  12  23  36  59  89 121 157 200 253 307 369
#     4  10  20  34  54  81 118 157 195 242 297 360
#     4  11  23  40  64  93 130 168 208 257 315 380
#     4  10  23  44  67  88 116 162 213 260 309 366
#     4  12  23  37  60  95 134 167 204 251 311 383
#     4  12  22  35  56  87 124 161 199 245 303 369
#
# _framework density 21.002738999999998
#
# number of rings (size 3 to 8) (size 9 to 14) (size 15 to 20)
#    0.000    1.000    3.000    5.100    0.000    2.000 
#    0.000    1.000    0.000    2.400    0.000    0.000 
#    0.000    0.000    0.000    0.000    0.000    0.000 
#
# Total GULP energy -222841.089638 kJ/mol
# GULP energy per Si atom -5571.027241 kJ/mol
# Density = 2.095494 g / cm^3
# Si number density = 21.002739 Si / 1000 Ang^3
#
#
#
# Elastic Constant Matrix: (Units=GPa)
#
#
# Indices 1 2 3 4 5 6 
#
# 1 84.6288 1.1410 46.1477 0.0000 0.0000 0.0000
# 2 1.1410 86.7552 13.1221 0.0000 0.0000 0.0000
# 3 46.1477 13.1221 160.5691 0.0000 0.0000 0.0000
# 4 0.0000 0.0000 0.0000 22.7265 0.0000 0.0000
# 5 0.0000 0.0000 0.0000 0.0000 -3.0909 0.0000
# 6 0.0000 0.0000 0.0000 0.0000 0.0000 7.1315
#
#
#
# Elastic Compliance Matrix: (Units=1/GPa)
#
#
# Indices 1 2 3 4 5 6 
#
# 1 0.014028 0.000431 -0.004067 0.000000 0.000000 0.000000
# 2 0.000431 0.011684 -0.001079 0.000000 0.000000 0.000000
# 3 -0.004067 -0.001079 0.007485 0.000000 0.000000 0.000000
# 4 0.000000 0.000000 0.000000 0.044002 0.000000 0.000000
# 5 0.000000 0.000000 0.000000 0.000000 -0.323532 0.000000
# 6 0.000000 0.000000 0.000000 0.000000 0.000000 0.140224
#
#
# Mechanical properties :
#
#
# Convention : Reuss Voigt Hill
#
# Bulk Modulus (GPa) = 42.07445 50.30829 46.19137
# Shear Modulus (GPa) = -56.33330 23.45622 -16.43854
#
# Velocity S-wave (km/s) = -5.18460 3.34551 -2.80069
# Velocity P-wave (km/s) = 3.97037 6.23927 3.40328
#
# Compressibility (1/GPa) = 0.02376739
#
# Stress axis : x y z
#
# Youngs Moduli (GPa) = 71.28516 85.58584 133.60367
#
# Poissons Ratio (x) = -0.03686 0.54335
# Poissons Ratio (y) = -0.03070 0.14411
# Poissons Ratio (z) = 0.28991 0.09232
#
# Static dielectric constant tensor:
#      x y z
#    x 2.331670 0.000000 0.000000 
#    y 0.000000 1.749440 0.000000 
#    z 0.000000 0.000000 1.818920 
# 
# From -- ./inp_files/54410.got.cif
#   From: 2010.05.17/outbox.cif.g08.bks.cpg/sg74_28_cif.got.tgz:54410.got - 2010.06.03 17:57:02.
