data_PCOD9537603
_publ_section_title
;
Structure prediction by ZEFSAII (Michael W. Deem and Ramdas Pophale) SiO2 
 PCOD9537603
Probable space group: I M M A
;
_chemical_formula_sum "Si O2"
_cell_formula_units_Z 104
_cell_length_a 9.517455
_cell_length_b 27.311788
_cell_length_c 20.189975
_cell_angle_alpha 90.000000
_cell_angle_beta 90.000000
_cell_angle_gamma 90.000000
_cell_volume 5248.156122
_symmetry_space_group_name_H-M "I M M A"
_symmetry_group_IT_number 74
_symmetry_cell_setting 'orthorhombic'
loop_
_space_group_symop_operation_xyz
x,y,z
-x,1/2-y,z
x,-y,-z
-x,1/2+y,-z
-x,-y,-z
x,1/2+y,-z
-x,y,z
x,1/2-y,z
1/2+x,1/2+y,1/2+z
1/2-x,-y,1/2+z
1/2+x,1/2-y,1/2-z
1/2-x,y,1/2-z
1/2-x,1/2-y,1/2-z
1/2+x,y,1/2-z
1/2-x,1/2+y,1/2+z
1/2+x,-y,1/2+z
loop_
_atom_site_type_symbol
_atom_site_label
_atom_site_fract_x
_atom_site_fract_y
_atom_site_fract_z
Si Si1 0.166390 0.158208 0.911775
Si Si2 0.339005 0.535453 0.561133
Si Si3 0.834522 0.190808 0.316927
Si Si4 0.840307 0.101422 0.686983
Si Si5 0.157938 0.983742 0.688979
Si Si6 0.663490 0.250000 0.683352
Si Si7 0.662385 0.848770 0.558709
O O1 0.260546 0.115515 0.880364
O O2 0.190106 0.203084 0.862360
O O3 0.000000 0.145016 0.910907
O O4 0.201280 0.172950 0.986970
O O5 0.304903 0.500000 0.500000
O O6 0.500000 0.523594 0.581534
O O7 0.233922 0.527910 0.621020
O O8 0.334312 0.592930 0.545045
O O9 0.824286 0.250000 0.323637
O O10 0.750000 0.177117 0.250000
O O11 0.761552 0.166631 0.381021
O O12 0.000000 0.178269 0.312014
O O13 0.750000 0.119483 0.750000
O O14 0.000000 0.120596 0.688568
O O15 0.847578 0.042794 0.693223
O O16 0.250000 0.964988 0.750000
O O17 0.000000 0.964482 0.691813
O O18 0.500000 0.250000 0.701099
O O19 0.750000 0.250000 0.750000
O O20 0.500000 0.835427 0.574664
#
# Coordination Sequence:
#
# PCOD9537603 Si02
#       7
#    16  16  16  16  16   8  16
#     4  10  21  37  57  82 112 148 191 234 282 339
#     4  10  21  38  59  85 118 155 196 242 294 352
#     4  10  22  41  65  92 121 155 197 247 304 366
#     4  10  20  34  54  80 110 147 193 240 287 339
#     4  10  21  36  56  82 111 148 191 237 288 340
#     4  10  22  38  56  82 113 148 187 228 275 328
#     4  10  22  38  61  90 118 154 196 242 296 352
#
# _framework density 19.816485
#
# number of rings (size 3 to 8) (size 9 to 14) (size 15 to 20)
#    0.000    2.000    0.000    2.769    1.077    8.000 
#    0.000    0.000    0.000    0.000    0.000    0.000 
#    0.000    0.000    0.000    0.000    0.000    0.000 
#
# Total GULP energy -290454.005427 kJ/mol
# GULP energy per Si atom -5585.653951 kJ/mol
# Density = 1.977138 g / cm^3
# Si number density = 19.816485 Si / 1000 Ang^3
#
#
#
# Elastic Constant Matrix: (Units=GPa)
#
#
# Indices 1 2 3 4 5 6 
#
# 1 116.6482 25.2586 103.7828 -0.0001 0.0000 0.0000
# 2 25.2586 30.6143 26.9517 0.0002 0.0000 0.0000
# 3 103.7828 26.9517 168.0979 0.0005 0.0000 0.0000
# 4 -0.0001 0.0002 0.0005 -356.2492 -0.0001 0.0001
# 5 0.0000 0.0000 0.0000 -0.0001 39.9063 0.0000
# 6 0.0000 0.0000 0.0000 0.0001 0.0000 24.7772
#
#
#
# Elastic Compliance Matrix: (Units=1/GPa)
#
#
# Indices 1 2 3 4 5 6 
#
# 1 0.020101 -0.006589 -0.011354 0.000000 0.000000 0.000000
# 2 -0.006589 0.040193 -0.002376 0.000000 0.000000 0.000000
# 3 -0.011354 -0.002376 0.013340 0.000000 0.000000 0.000000
# 4 0.000000 0.000000 0.000000 -0.002807 0.000000 0.000000
# 5 0.000000 0.000000 0.000000 0.000000 0.025059 0.000000
# 6 0.000000 0.000000 0.000000 0.000000 0.000000 0.040360
#
#
# Mechanical properties :
#
#
# Convention : Reuss Voigt Hill
#
# Bulk Modulus (GPa) = 30.30732 69.70518 50.00625
# Shear Modulus (GPa) = 26.61241 -47.68866 -10.53813
#
# Velocity S-wave (km/s) = 3.66859 -4.91095 -2.30855
# Velocity P-wave (km/s) = 5.76819 1.75932 4.26422
#
# Compressibility (1/GPa) = 0.03299533
#
# Stress axis : x y z
#
# Youngs Moduli (GPa) = 49.74800 24.88010 74.96368
#
# Poissons Ratio (x) = 0.16394 0.85114
# Poissons Ratio (y) = 0.32780 0.17812
# Poissons Ratio (z) = 0.56484 0.05912
#
# Static dielectric constant tensor:
#      x y z
#    x 1.684680 0.000000 0.000000 
#    y 0.000000 1.782530 0.000000 
#    z 0.000000 0.000000 2.865340 
# 
# From -- ./inp_files/49311.got.cif
#   From: 2010.05.17/outbox.cif.g08.bks.cpg/sg74_25_cif.got.tgz:49311.got - 2010.06.03 17:57:02.
