data_PCOD9537938
_publ_section_title
;
Structure prediction by ZEFSAII (Michael W. Deem and Ramdas Pophale) SiO2 
 PCOD9537938
Probable space group: I M M A
;
_chemical_formula_sum "Si O2"
_cell_formula_units_Z 96
_cell_length_a 19.748168
_cell_length_b 13.650441
_cell_length_c 18.948908
_cell_angle_alpha 90.000000
_cell_angle_beta 90.000000
_cell_angle_gamma 90.000000
_cell_volume 5108.079909
_symmetry_space_group_name_H-M "I M M A"
_symmetry_group_IT_number 74
_symmetry_cell_setting 'orthorhombic'
loop_
_space_group_symop_operation_xyz
x,y,z
-x,1/2-y,z
x,-y,-z
-x,1/2+y,-z
-x,-y,-z
x,1/2+y,-z
-x,y,z
x,1/2-y,z
1/2+x,1/2+y,1/2+z
1/2-x,-y,1/2+z
1/2+x,1/2-y,1/2-z
1/2-x,y,1/2-z
1/2-x,1/2-y,1/2-z
1/2+x,y,1/2-z
1/2-x,1/2+y,1/2+z
1/2+x,-y,1/2+z
loop_
_atom_site_type_symbol
_atom_site_label
_atom_site_fract_x
_atom_site_fract_y
_atom_site_fract_z
Si Si1 0.879125 0.139704 0.403030
Si Si2 0.423450 0.444610 0.833502
Si Si3 0.177058 0.470879 0.923181
Si Si4 0.733111 0.638472 0.671186
Si Si5 0.320912 0.635439 0.054718
Si Si6 0.079097 0.864632 0.180781
O O1 0.907993 0.250000 0.400044
O O2 0.804728 0.142785 0.368555
O O3 0.863886 0.111877 0.484173
O O4 0.918737 0.056237 0.361044
O O5 0.500000 0.407848 0.845359
O O6 0.368645 0.386660 0.879188
O O7 0.408351 0.428781 0.751089
O O8 0.187093 0.565785 0.873607
O O9 0.251405 0.424088 0.936839
O O10 0.128648 0.397538 0.881272
O O11 0.149939 0.500000 0.000000
O O12 0.706103 0.750000 0.676381
O O13 0.750000 0.602527 0.750000
O O14 0.303812 0.750000 0.049628
O O15 0.089464 0.750000 0.198252
O O16 0.000000 0.877229 0.161311
#
# Coordination Sequence:
#
# PCOD9537938 Si02
#       6
#    16  16  16  16  16  16
#     4  10  20  36  55  83 121 157 197 244 293 347
#     4  11  22  39  59  82 119 164 204 247 295 346
#     4  12  22  37  64  91 119 151 193 247 294 352
#     4  10  20  35  56  83 117 154 192 236 292 349
#     4  11  22  36  56  89 125 157 198 246 293 349
#     4  10  24  44  63  86 117 155 198 245 299 354
#
# _framework density 18.793755000000001
#
# number of rings (size 3 to 8) (size 9 to 14) (size 15 to 20)
#    0.000    1.333    3.333    2.500    0.000    3.667 
#    0.000    3.333    0.000    1.500    0.000    0.000 
#    0.000    0.000    0.000    0.000    0.000    0.000 
#
# Total GULP energy -268053.302446 kJ/mol
# GULP energy per Si atom -5584.443801 kJ/mol
# Density = 1.875098 g / cm^3
# Si number density = 18.793755 Si / 1000 Ang^3
#
#
#
# Elastic Constant Matrix: (Units=GPa)
#
#
# Indices 1 2 3 4 5 6 
#
# 1 54.7671 18.2129 37.0629 0.0000 0.0000 0.0000
# 2 18.2129 99.3203 45.3642 0.0000 0.0000 0.0000
# 3 37.0629 45.3642 119.5585 0.0000 0.0000 0.0000
# 4 0.0000 0.0000 0.0000 24.2694 0.0000 0.0000
# 5 0.0000 0.0000 0.0000 0.0000 180.7285 0.0000
# 6 0.0000 0.0000 0.0000 0.0000 0.0000 43.6582
#
#
#
# Elastic Compliance Matrix: (Units=1/GPa)
#
#
# Indices 1 2 3 4 5 6 
#
# 1 0.023219 -0.001174 -0.006753 0.000000 0.000000 0.000000
# 2 -0.001174 0.012238 -0.004280 0.000000 0.000000 0.000000
# 3 -0.006753 -0.004280 0.012081 0.000000 0.000000 0.000000
# 4 0.000000 0.000000 0.000000 0.041204 0.000000 0.000000
# 5 0.000000 0.000000 0.000000 0.000000 0.005533 0.000000
# 6 0.000000 0.000000 0.000000 0.000000 0.000000 0.022905
#
#
# Mechanical properties :
#
#
# Convention : Reuss Voigt Hill
#
# Bulk Modulus (GPa) = 43.23976 52.76954 48.00465
# Shear Modulus (GPa) = 33.48907 61.26493 47.37700
#
# Velocity S-wave (km/s) = 4.22587 5.71571 5.02629
# Velocity P-wave (km/s) = 6.84602 8.46748 7.69956
#
# Compressibility (1/GPa) = 0.02312686
#
# Stress axis : x y z
#
# Youngs Moduli (GPa) = 43.06788 81.70972 82.77256
#
# Poissons Ratio (x) = 0.09589 0.55893
# Poissons Ratio (y) = 0.05054 0.35425
# Poissons Ratio (z) = 0.29082 0.34970
#
# Static dielectric constant tensor:
#      x y z
#    x 1.614530 0.000000 0.000000 
#    y 0.000000 1.695460 0.000000 
#    z 0.000000 0.000000 1.665520 
# 
# From -- ./inp_files/35296.got.cif
#   From: 2010.05.17/outbox.cif.g08.bks.cpg/sg74_18_cif.got.tgz:35296.got - 2010.06.03 17:57:02.
