data_PCOD9537381
_publ_section_title
;
Structure prediction by ZEFSAII (Michael W. Deem and Ramdas Pophale) SiO2 
 PCOD9537381
Probable space group: I M M A
;
_chemical_formula_sum "Si O2"
_cell_formula_units_Z 112
_cell_length_a 14.227620
_cell_length_b 25.660484
_cell_length_c 18.219182
_cell_angle_alpha 90.000000
_cell_angle_beta 90.000000
_cell_angle_gamma 90.000000
_cell_volume 6651.597710
_symmetry_space_group_name_H-M "I M M A"
_symmetry_group_IT_number 74
_symmetry_cell_setting 'orthorhombic'
loop_
_space_group_symop_operation_xyz
x,y,z
-x,1/2-y,z
x,-y,-z
-x,1/2+y,-z
-x,-y,-z
x,1/2+y,-z
-x,y,z
x,1/2-y,z
1/2+x,1/2+y,1/2+z
1/2-x,-y,1/2+z
1/2+x,1/2-y,1/2-z
1/2-x,y,1/2-z
1/2-x,1/2-y,1/2-z
1/2+x,y,1/2-z
1/2-x,1/2+y,1/2+z
1/2+x,-y,1/2+z
loop_
_atom_site_type_symbol
_atom_site_label
_atom_site_fract_x
_atom_site_fract_y
_atom_site_fract_z
Si Si1 0.216846 0.547910 0.456327
Si Si2 0.393483 0.140692 0.892018
Si Si3 0.690274 0.502377 0.681349
Si Si4 0.888939 0.921201 0.938193
Si Si5 0.387889 0.306909 0.473141
Si Si6 0.708438 0.692705 0.368246
Si Si7 0.604218 0.393976 0.723683
O O1 0.171210 0.500000 0.500000
O O2 0.152661 0.598359 0.446612
O O3 0.240900 0.525421 0.376774
O O4 0.315655 0.560769 0.498167
O O5 0.500000 0.154491 0.911989
O O6 0.318618 0.186846 0.884825
O O7 0.395187 0.116185 0.810308
O O8 0.750000 0.523260 0.750000
O O9 0.634735 0.545257 0.634085
O O10 0.627666 0.454013 0.708735
O O11 0.868479 0.859622 0.928501
O O12 0.000000 0.927953 0.957665
O O13 0.500000 0.305540 0.481744
O O14 0.357870 0.250000 0.443388
O O15 0.343697 0.312497 0.553866
O O16 0.686815 0.750000 0.336909
O O17 0.674758 0.645514 0.316892
O O18 0.500000 0.381911 0.694742
#
# Coordination Sequence:
#
# PCOD9537381 Si02
#       7
#    16  16  16  16  16  16  16
#     4  10  20  34  54  76 105 141 178 222 267 319
#     4  11  22  36  50  69  99 140 187 223 262 313
#     4  11  19  33  53  77 115 143 168 210 268 327
#     4  10  20  33  56  88 112 137 178 224 271 320
#     4   9  17  31  53  80 108 135 168 213 268 325
#     4  11  21  35  52  72 103 139 179 226 274 317
#     4  11  21  33  52  74 101 138 178 216 266 323
#
# _framework density 16.838059000000001
#
# number of rings (size 3 to 8) (size 9 to 14) (size 15 to 20)
#    0.000    1.571    4.286    1.286    0.000    6.857 
#    0.000    1.429    0.000    0.429    0.000    0.000 
#    0.000    0.000    0.000    0.000    0.000    0.000 
#
# Total GULP energy -312143.996905 kJ/mol
# GULP energy per Si atom -5573.999945 kJ/mol
# Density = 1.679974 g / cm^3
# Si number density = 16.838059 Si / 1000 Ang^3
#
#
#
# Elastic Constant Matrix: (Units=GPa)
#
#
# Indices 1 2 3 4 5 6 
#
# 1 67.9043 27.1900 14.0058 0.0000 0.0000 0.0000
# 2 27.1900 110.4447 26.6974 0.0000 0.0000 0.0000
# 3 14.0058 26.6974 44.7702 0.0000 0.0000 0.0000
# 4 0.0000 0.0000 0.0000 5.9900 0.0000 0.0000
# 5 0.0000 0.0000 0.0000 0.0000 20.0853 0.0000
# 6 0.0000 0.0000 0.0000 0.0000 0.0000 18.9490
#
#
#
# Elastic Compliance Matrix: (Units=1/GPa)
#
#
# Indices 1 2 3 4 5 6 
#
# 1 0.016731 -0.003334 -0.003246 0.000000 0.000000 0.000000
# 2 -0.003334 0.011244 -0.005662 0.000000 0.000000 0.000000
# 3 -0.003246 -0.005662 0.026728 0.000000 0.000000 0.000000
# 4 0.000000 0.000000 0.000000 0.166945 0.000000 0.000000
# 5 0.000000 0.000000 0.000000 0.000000 0.049788 0.000000
# 6 0.000000 0.000000 0.000000 0.000000 0.000000 0.052773
#
#
# Mechanical properties :
#
#
# Convention : Reuss Voigt Hill
#
# Bulk Modulus (GPa) = 33.09172 39.87838 36.48505
# Shear Modulus (GPa) = 13.93667 19.35327 16.64497
#
# Velocity S-wave (km/s) = 2.88008 3.39392 3.14750
# Velocity P-wave (km/s) = 5.54576 6.25245 5.90968
#
# Compressibility (1/GPa) = 0.03021904
#
# Stress axis : x y z
#
# Youngs Moduli (GPa) = 59.76849 88.93798 37.41402
#
# Poissons Ratio (x) = 0.29656 0.12144
# Poissons Ratio (y) = 0.19929 0.21183
# Poissons Ratio (z) = 0.19399 0.50355
#
# Static dielectric constant tensor:
#      x y z
#    x 1.601690 0.000000 0.000000 
#    y 0.000000 1.618800 0.000000 
#    z 0.000000 0.000000 1.553190 
# 
# From -- ./inp_files/32909.got.cif
#   From: 2010.05.17/outbox.cif.g08.bks.cpg/sg74_17_cif.got.tgz:32909.got - 2010.06.03 17:57:02.
