data_PCOD9537141
_publ_section_title
;
Structure prediction by ZEFSAII (Michael W. Deem and Ramdas Pophale) SiO2 
 PCOD9537141
Probable space group: I M M A
;
_chemical_formula_sum "Si O2"
_cell_formula_units_Z 116
_cell_length_a 7.596452
_cell_length_b 30.577454
_cell_length_c 24.770621
_cell_angle_alpha 90.000000
_cell_angle_beta 90.000000
_cell_angle_gamma 90.000000
_cell_volume 5753.723849
_symmetry_space_group_name_H-M "I M M A"
_symmetry_group_IT_number 74
_symmetry_cell_setting 'orthorhombic'
loop_
_space_group_symop_operation_xyz
x,y,z
-x,1/2-y,z
x,-y,-z
-x,1/2+y,-z
-x,-y,-z
x,1/2+y,-z
-x,y,z
x,1/2-y,z
1/2+x,1/2+y,1/2+z
1/2-x,-y,1/2+z
1/2+x,1/2-y,1/2-z
1/2-x,y,1/2-z
1/2-x,1/2-y,1/2-z
1/2+x,y,1/2-z
1/2-x,1/2+y,1/2+z
1/2+x,-y,1/2+z
loop_
_atom_site_type_symbol
_atom_site_label
_atom_site_fract_x
_atom_site_fract_y
_atom_site_fract_z
Si Si1 0.286002 0.679777 0.872059
Si Si2 0.000000 0.750000 0.835893
Si Si3 0.798538 0.582781 0.607244
Si Si4 0.209927 0.201688 0.496269
Si Si5 0.289159 0.093064 0.689210
Si Si6 0.298746 0.952135 0.494275
Si Si7 0.711561 0.124838 0.578376
Si Si8 0.290221 0.506821 0.688277
O O1 0.500000 0.687363 0.864451
O O2 0.157631 0.711728 0.839477
O O3 0.246874 0.628239 0.864436
O O4 0.239863 0.688449 0.935396
O O5 0.698596 0.571093 0.552390
O O6 0.785975 0.541943 0.647231
O O7 0.000000 0.589542 0.589705
O O8 0.282408 0.250000 0.507783
O O9 0.252064 0.166599 0.541744
O O10 0.000000 0.204314 0.494690
O O11 0.500000 0.090589 0.685938
O O12 0.250000 0.107452 0.750000
O O13 0.225680 0.123162 0.640108
O O14 0.223971 0.043045 0.681365
O O15 0.500000 0.959874 0.475484
O O16 0.218112 0.918241 0.452215
O O17 0.215349 0.000000 0.500000
O O18 0.500000 0.121467 0.579227
O O19 0.500000 0.506731 0.680065
O O20 0.250000 0.519186 0.750000
#
# Coordination Sequence:
#
# PCOD9537141 Si02
#       8
#    16   4  16  16  16  16  16  16
#     4  10  22  36  52  83 117 144 189 240 275 343
#     4  12  22  32  64  78 108 156 194 220 304 338
#     4  11  22  35  52  78 117 148 181 232 278 330
#     4  10  20  35  51  72 109 143 177 231 284 325
#     4   9  19  36  55  79 106 141 182 235 276 324
#     4  10  20  33  50  74 109 150 186 224 273 339
#     4  10  20  32  52  78 106 138 185 226 273 338
#     4  10  20  36  58  80 110 144 189 230 273 328
#
# _framework density 20.160855999999999
#
# number of rings (size 3 to 8) (size 9 to 14) (size 15 to 20)
#    0.000    1.931    2.069    1.862    2.897    3.862 
#    0.000    1.379    0.000    0.414    0.000    0.483 
#    0.000    0.000    0.000    0.000    0.000    0.000 
#
# Total GULP energy -323124.196011 kJ/mol
# GULP energy per Si atom -5571.106828 kJ/mol
# Density = 2.011497 g / cm^3
# Si number density = 20.160856 Si / 1000 Ang^3
#
#
#
# Elastic Constant Matrix: (Units=GPa)
#
#
# Indices 1 2 3 4 5 6 
#
# 1 60.7197 -1.4716 -15.5290 0.0000 0.0000 0.0000
# 2 -1.4716 37.2606 -18.2989 0.0000 0.0000 0.0000
# 3 -15.5290 -18.2989 25.8061 0.0000 0.0000 0.0000
# 4 0.0000 0.0000 0.0000 4.3208 0.0000 0.0000
# 5 0.0000 0.0000 0.0000 0.0000 13.4960 0.0000
# 6 0.0000 0.0000 0.0000 0.0000 0.0000 28.8845
#
#
#
# Elastic Compliance Matrix: (Units=1/GPa)
#
#
# Indices 1 2 3 4 5 6 
#
# 1 0.022243 0.011433 0.021492 0.000000 0.000000 0.000000
# 2 0.011433 0.047055 0.040246 0.000000 0.000000 0.000000
# 3 0.021492 0.040246 0.080222 0.000000 0.000000 0.000000
# 4 0.000000 0.000000 0.000000 0.231438 0.000000 0.000000
# 5 0.000000 0.000000 0.000000 0.000000 0.074096 0.000000
# 6 0.000000 0.000000 0.000000 0.000000 0.000000 0.034621
#
#
# Mechanical properties :
#
#
# Convention : Reuss Voigt Hill
#
# Bulk Modulus (GPa) = 3.37996 5.90971 4.64483
# Shear Modulus (GPa) = 11.31345 19.94601 15.62973
#
# Velocity S-wave (km/s) = 2.37145 3.14879 2.78735
# Velocity P-wave (km/s) = 3.02960 4.01964 3.55922
#
# Compressibility (1/GPa) = 0.29586176
#
# Stress axis : x y z
#
# Youngs Moduli (GPa) = 44.95839 21.25193 12.46547
#
# Poissons Ratio (x) = -0.24298 -0.26791
# Poissons Ratio (y) = -0.51402 -0.50169
# Poissons Ratio (z) = -0.96625 -0.85531
#
# Static dielectric constant tensor:
#      x y z
#    x 1.780690 0.000000 0.000000 
#    y 0.000000 1.754750 0.000000 
#    z 0.000000 0.000000 1.713090 
# 
# From -- ./inp_files/57905.got.cif
#   From: 2010.05.17/outbox.cif.g08.bks.cpg/sg74_29_cif.got.tgz:57905.got - 2010.06.03 17:57:02.
