data_PCOD9537483
_publ_section_title
;
Structure prediction by ZEFSAII (Michael W. Deem and Ramdas Pophale) SiO2 
 PCOD9537483
Probable space group: I M M A
;
_chemical_formula_sum "Si O2"
_cell_formula_units_Z 96
_cell_length_a 9.046602
_cell_length_b 15.324601
_cell_length_c 32.496477
_cell_angle_alpha 90.000000
_cell_angle_beta 90.000000
_cell_angle_gamma 90.000000
_cell_volume 4505.167484
_symmetry_space_group_name_H-M "I M M A"
_symmetry_group_IT_number 74
_symmetry_cell_setting 'orthorhombic'
loop_
_space_group_symop_operation_xyz
x,y,z
-x,1/2-y,z
x,-y,-z
-x,1/2+y,-z
-x,-y,-z
x,1/2+y,-z
-x,y,z
x,1/2-y,z
1/2+x,1/2+y,1/2+z
1/2-x,-y,1/2+z
1/2+x,1/2-y,1/2-z
1/2-x,y,1/2-z
1/2-x,1/2-y,1/2-z
1/2+x,y,1/2-z
1/2-x,1/2+y,1/2+z
1/2+x,-y,1/2+z
loop_
_atom_site_type_symbol
_atom_site_label
_atom_site_fract_x
_atom_site_fract_y
_atom_site_fract_z
Si Si1 0.671993 0.395499 0.292041
Si Si2 0.823431 0.599207 0.624322
Si Si3 0.165555 0.352648 0.041344
Si Si4 0.821294 0.908777 0.120237
Si Si5 0.169735 0.390772 0.791069
Si Si6 0.166292 0.353702 0.538181
O O1 0.500000 0.370997 0.293178
O O2 0.750000 0.366452 0.250000
O O3 0.755537 0.364956 0.333081
O O4 0.677733 0.502442 0.291843
O O5 0.757338 0.640757 0.583213
O O6 0.762582 0.500741 0.621541
O O7 0.000000 0.603289 0.625268
O O8 0.148546 0.250000 0.032953
O O9 0.000000 0.390679 0.046055
O O10 0.253653 0.390541 0.002416
O O11 0.779270 0.862466 0.163446
O O12 0.765887 0.865828 0.078475
O O13 0.000000 0.919610 0.120496
O O14 0.250000 0.360783 0.750000
O O15 0.000000 0.365988 0.787186
O O16 0.151226 0.250000 0.532110
O O17 0.000000 0.389953 0.543753
#
# Coordination Sequence:
#
# PCOD9537483 Si02
#       6
#    16  16  16  16  16  16
#     4   9  16  28  46  71 103 137 173 210 252 302
#     4  11  21  33  52  79 109 138 171 214 261 304
#     4  10  21  38  58  77 100 134 173 211 255 310
#     4  10  20  34  52  77 107 137 173 214 256 304
#     4   8  15  26  43  68  98 131 165 204 246 292
#     4  10  21  37  56  78 103 132 169 212 259 313
#
# _framework density 21.308864
#
# number of rings (size 3 to 8) (size 9 to 14) (size 15 to 20)
#    0.000    2.333    0.000    4.500    0.000    7.333 
#    0.000    3.333    0.000    1.000    0.000    0.000 
#    0.000    0.000    0.000    0.000    0.000    0.000 
#
# Total GULP energy -267876.149022 kJ/mol
# GULP energy per Si atom -5580.753105 kJ/mol
# Density = 2.126036 g / cm^3
# Si number density = 21.308864 Si / 1000 Ang^3
#
#
#
# Elastic Constant Matrix: (Units=GPa)
#
#
# Indices 1 2 3 4 5 6 
#
# 1 180.6322 7.3961 111.6729 0.0000 0.0000 0.0000
# 2 7.3961 23.7076 6.8896 0.0000 0.0000 0.0000
# 3 111.6729 6.8896 227.2628 0.0000 0.0000 0.0000
# 4 0.0000 0.0000 0.0000 16.7593 0.0000 0.0000
# 5 0.0000 0.0000 0.0000 0.0000 33.2190 0.0000
# 6 0.0000 0.0000 0.0000 0.0000 0.0000 14.2739
#
#
#
# Elastic Compliance Matrix: (Units=1/GPa)
#
#
# Indices 1 2 3 4 5 6 
#
# 1 0.007995 -0.001365 -0.003887 0.000000 0.000000 0.000000
# 2 -0.001365 0.042788 -0.000627 0.000000 0.000000 0.000000
# 3 -0.003887 -0.000627 0.006329 0.000000 0.000000 0.000000
# 4 0.000000 0.000000 0.000000 0.059668 0.000000 0.000000
# 5 0.000000 0.000000 0.000000 0.000000 0.030103 0.000000
# 6 0.000000 0.000000 0.000000 0.000000 0.000000 0.070058
#
#
# Mechanical properties :
#
#
# Convention : Reuss Voigt Hill
#
# Bulk Modulus (GPa) = 22.04783 75.94663 48.99723
# Shear Modulus (GPa) = 20.50709 33.22673 26.86691
#
# Velocity S-wave (km/s) = 3.10558 3.95307 3.55467
# Velocity P-wave (km/s) = 4.81962 7.52023 6.31596
#
# Compressibility (1/GPa) = 0.04535594
#
# Stress axis : x y z
#
# Youngs Moduli (GPa) = 125.07357 23.37079 157.99348
#
# Poissons Ratio (x) = 0.03189 0.61418
# Poissons Ratio (y) = 0.17067 0.09900
# Poissons Ratio (z) = 0.48621 0.01464
#
# Static dielectric constant tensor:
#      x y z
#    x 1.747700 0.000000 0.000000 
#    y 0.000000 1.813560 0.000000 
#    z 0.000000 0.000000 1.779930 
# 
# From -- ./inp_files/64321.got.cif
#   From: 2010.05.17/outbox.cif.g08.bks.cpg/sg74_33_cif.got.tgz:64321.got - 2010.06.03 17:57:02.
