data_PCOD9537602
_publ_section_title
;
Structure prediction by ZEFSAII (Michael W. Deem and Ramdas Pophale) SiO2 
 PCOD9537602
Probable space group: I M M A
;
_chemical_formula_sum "Si O2"
_cell_formula_units_Z 96
_cell_length_a 23.933592
_cell_length_b 8.986082
_cell_length_c 26.012191
_cell_angle_alpha 90.000000
_cell_angle_beta 90.000000
_cell_angle_gamma 90.000000
_cell_volume 5594.421636
_symmetry_space_group_name_H-M "I M M A"
_symmetry_group_IT_number 74
_symmetry_cell_setting 'orthorhombic'
loop_
_space_group_symop_operation_xyz
x,y,z
-x,1/2-y,z
x,-y,-z
-x,1/2+y,-z
-x,-y,-z
x,1/2+y,-z
-x,y,z
x,1/2-y,z
1/2+x,1/2+y,1/2+z
1/2-x,-y,1/2+z
1/2+x,1/2-y,1/2-z
1/2-x,y,1/2-z
1/2-x,1/2-y,1/2-z
1/2+x,y,1/2-z
1/2-x,1/2+y,1/2+z
1/2+x,-y,1/2+z
loop_
_atom_site_type_symbol
_atom_site_label
_atom_site_fract_x
_atom_site_fract_y
_atom_site_fract_z
Si Si1 0.065822 0.427615 0.244453
Si Si2 0.627553 0.571462 0.850209
Si Si3 0.750649 0.429016 0.189569
Si Si4 0.863735 0.071621 0.846625
Si Si5 0.565279 0.927677 0.054942
Si Si6 0.935429 0.570902 0.054950
O O1 0.074859 0.250000 0.237309
O O2 0.090325 0.466260 0.300302
O O3 0.098775 0.513817 0.200499
O O4 0.000000 0.457546 0.242069
O O5 0.624202 0.750000 0.857589
O O6 0.691378 0.533596 0.836089
O O7 0.603703 0.491011 0.900030
O O8 0.757454 0.250000 0.188033
O O9 0.750000 0.471895 0.250000
O O10 0.802453 0.504419 0.161287
O O11 0.861218 0.250000 0.845765
O O12 0.894043 0.024728 0.899508
O O13 0.500000 0.964472 0.066053
O O14 0.570148 0.750000 0.051605
O O15 0.579155 0.000000 0.000000
O O16 0.933297 0.750000 0.050666
O O17 0.000000 0.530159 0.067491
O O18 0.921551 0.500000 0.000000
#
# Coordination Sequence:
#
# PCOD9537602 Si02
#       6
#    16  16  16  16  16  16
#     4  10  20  34  54  80 110 145 184 224 272 334
#     4  10  20  36  58  81 108 144 186 231 275 322
#     4  10  20  38  59  78 107 148 191 229 269 322
#     4  11  22  35  54  81 114 145 180 227 280 332
#     4  10  21  37  58  84 114 147 183 226 277 333
#     4   9  19  36  56  79 108 142 179 222 272 324
#
# _framework density 17.159951
#
# number of rings (size 3 to 8) (size 9 to 14) (size 15 to 20)
#    0.000    2.000    1.667    2.000    0.000    5.667 
#    0.000    2.500    0.000    2.000    0.000    0.000 
#    0.000    0.000    0.000    0.000    0.000    0.000 
#
# Total GULP energy -268026.391557 kJ/mol
# GULP energy per Si atom -5583.883157 kJ/mol
# Density = 1.712089 g / cm^3
# Si number density = 17.159951 Si / 1000 Ang^3
#
#
#
# Elastic Constant Matrix: (Units=GPa)
#
#
# Indices 1 2 3 4 5 6 
#
# 1 113.7915 51.2130 86.1733 0.0000 0.0000 0.0000
# 2 51.2130 32.0966 52.1183 0.0000 0.0000 0.0000
# 3 86.1733 52.1183 147.5424 0.0000 0.0000 0.0000
# 4 0.0000 0.0000 0.0000 35.1070 0.0000 0.0000
# 5 0.0000 0.0000 0.0000 0.0000 16.0127 0.0000
# 6 0.0000 0.0000 0.0000 0.0000 0.0000 21.3882
#
#
#
# Elastic Compliance Matrix: (Units=1/GPa)
#
#
# Indices 1 2 3 4 5 6 
#
# 1 0.031316 -0.047532 -0.001500 0.000000 0.000000 0.000000
# 2 -0.047532 0.145211 -0.023533 0.000000 0.000000 0.000000
# 3 -0.001500 -0.023533 0.015967 0.000000 0.000000 0.000000
# 4 0.000000 0.000000 0.000000 0.028484 0.000000 0.000000
# 5 0.000000 0.000000 0.000000 0.000000 0.062451 0.000000
# 6 0.000000 0.000000 0.000000 0.000000 0.000000 0.046755
#
#
# Mechanical properties :
#
#
# Convention : Reuss Voigt Hill
#
# Bulk Modulus (GPa) = 21.11343 74.71553 47.91448
# Shear Modulus (GPa) = 10.18115 21.42995 15.80555
#
# Velocity S-wave (km/s) = 2.43844 3.53772 3.03821
# Velocity P-wave (km/s) = 4.50095 7.76675 6.34748
#
# Compressibility (1/GPa) = 0.04736322
#
# Stress axis : x y z
#
# Youngs Moduli (GPa) = 31.93213 6.88651 62.62953
#
# Poissons Ratio (x) = 0.32733 0.09396
# Poissons Ratio (y) = 1.51780 1.47388
# Poissons Ratio (z) = 0.04790 0.16206
#
# Static dielectric constant tensor:
#      x y z
#    x 1.568100 0.000000 0.000000 
#    y 0.000000 1.575900 0.000000 
#    z 0.000000 0.000000 1.548990 
# 
# From -- ./inp_files/57266.got.cif
#   From: 2010.05.17/outbox.cif.g08.bks.cpg/sg74_29_cif.got.tgz:57266.got - 2010.06.03 17:57:02.
