data_PCOD9537955
_publ_section_title
;
Structure prediction by ZEFSAII (Michael W. Deem and Ramdas Pophale) SiO2 
 PCOD9537955
Probable space group: I M M A
;
_chemical_formula_sum "Si O2"
_cell_formula_units_Z 84
_cell_length_a 7.448496
_cell_length_b 23.049868
_cell_length_c 23.880194
_cell_angle_alpha 90.000000
_cell_angle_beta 90.000000
_cell_angle_gamma 90.000000
_cell_volume 4099.915276
_symmetry_space_group_name_H-M "I M M A"
_symmetry_group_IT_number 74
_symmetry_cell_setting 'orthorhombic'
loop_
_space_group_symop_operation_xyz
x,y,z
-x,1/2-y,z
x,-y,-z
-x,1/2+y,-z
-x,-y,-z
x,1/2+y,-z
-x,y,z
x,1/2-y,z
1/2+x,1/2+y,1/2+z
1/2-x,-y,1/2+z
1/2+x,1/2-y,1/2-z
1/2-x,y,1/2-z
1/2-x,1/2-y,1/2-z
1/2+x,y,1/2-z
1/2-x,1/2+y,1/2+z
1/2+x,-y,1/2+z
loop_
_atom_site_type_symbol
_atom_site_label
_atom_site_fract_x
_atom_site_fract_y
_atom_site_fract_z
Si Si1 0.291898 0.564666 0.493258
Si Si2 0.207516 0.854689 0.390548
Si Si3 0.285496 0.812367 0.815826
Si Si4 0.285845 0.460768 0.816051
Si Si5 0.781820 0.075750 0.380676
Si Si6 0.000000 0.250000 0.896705
O O1 0.212462 0.500000 0.500000
O O2 0.500000 0.558467 0.476466
O O3 0.207391 0.606258 0.447198
O O4 0.279079 0.587200 0.556298
O O5 0.272818 0.899443 0.342064
O O6 0.342091 0.801248 0.396378
O O7 0.000000 0.837230 0.379287
O O8 0.500000 0.812065 0.824016
O O9 0.216050 0.750000 0.836730
O O10 0.250000 0.815074 0.750000
O O11 0.216991 0.870208 0.844198
O O12 0.500000 0.460971 0.822911
O O13 0.250000 0.467430 0.750000
O O14 0.218604 0.515220 0.853064
O O15 0.000000 0.074197 0.380556
#
# Coordination Sequence:
#
# PCOD9537955 Si02
#       6
#    16  16  16  16  16   4
#     4  11  22  38  64  96 127 166 209 264 328 391
#     4  11  24  45  70  97 131 174 222 276 342 404
#     4   9  18  33  52  76 115 162 207 250 301 362
#     4  10  22  37  63  94 126 164 212 275 342 398
#     4  10  20  35  56  89 126 165 211 261 320 387
#     4  12  26  48  72  94 130 176 226 276 338 412
#
# _framework density 20.488227999999999
#
# number of rings (size 3 to 8) (size 9 to 14) (size 15 to 20)
#    0.000    1.714    2.857    1.429    1.333    2.286 
#    1.714    0.476    0.000    0.000    0.000    0.000 
#    0.000    0.000    0.000    0.000    0.000    0.000 
#
# Total GULP energy -233944.706194 kJ/mol
# GULP energy per Si atom -5570.112052 kJ/mol
# Density = 2.044160 g / cm^3
# Si number density = 20.488228 Si / 1000 Ang^3
#
#
#
# Elastic Constant Matrix: (Units=GPa)
#
#
# Indices 1 2 3 4 5 6 
#
# 1 102.9544 34.7560 -6.1160 0.0000 0.0000 0.0000
# 2 34.7560 128.3902 20.7628 0.0000 0.0000 0.0000
# 3 -6.1160 20.7628 78.0236 0.0000 0.0000 0.0000
# 4 0.0000 0.0000 0.0000 16.1392 0.0000 0.0000
# 5 0.0000 0.0000 0.0000 0.0000 18.3918 0.0000
# 6 0.0000 0.0000 0.0000 0.0000 0.0000 90.8331
#
#
#
# Elastic Compliance Matrix: (Units=1/GPa)
#
#
# Indices 1 2 3 4 5 6 
#
# 1 0.010905 -0.003229 0.001714 0.000000 0.000000 0.000000
# 2 -0.003229 0.009095 -0.002673 0.000000 0.000000 0.000000
# 3 0.001714 -0.002673 0.013662 0.000000 0.000000 0.000000
# 4 0.000000 0.000000 0.000000 0.061961 0.000000 0.000000
# 5 0.000000 0.000000 0.000000 0.000000 0.054372 0.000000
# 6 0.000000 0.000000 0.000000 0.000000 0.000000 0.011009
#
#
# Mechanical properties :
#
#
# Convention : Reuss Voigt Hill
#
# Bulk Modulus (GPa) = 39.54823 45.35264 42.45044
# Shear Modulus (GPa) = 28.11984 42.40386 35.26185
#
# Velocity S-wave (km/s) = 3.70873 4.55430 4.15309
# Velocity P-wave (km/s) = 6.13876 7.05971 6.61528
#
# Compressibility (1/GPa) = 0.02528558
#
# Stress axis : x y z
#
# Youngs Moduli (GPa) = 91.70082 109.94713 73.19333
#
# Poissons Ratio (x) = 0.35505 -0.12546
# Poissons Ratio (y) = 0.29613 0.19568
# Poissons Ratio (z) = -0.15719 0.29394
#
# Static dielectric constant tensor:
#      x y z
#    x 1.768540 0.000000 0.000000 
#    y 0.000000 1.748080 0.000000 
#    z 0.000000 0.000000 1.730720 
# 
# From -- ./inp_files/56878.got.cif
#   From: 2010.05.17/outbox.cif.g08.bks.cpg/sg74_29_cif.got.tgz:56878.got - 2010.06.03 17:57:02.
