data_PCOD9537869
_publ_section_title
;
Structure prediction by ZEFSAII (Michael W. Deem and Ramdas Pophale) SiO2 
 PCOD9537869
Probable space group: I M M A
;
_chemical_formula_sum "Si O2"
_cell_formula_units_Z 120
_cell_length_a 8.629118
_cell_length_b 27.691634
_cell_length_c 28.276495
_cell_angle_alpha 90.000000
_cell_angle_beta 90.000000
_cell_angle_gamma 90.000000
_cell_volume 6756.792258
_symmetry_space_group_name_H-M "I M M A"
_symmetry_group_IT_number 74
_symmetry_cell_setting 'orthorhombic'
loop_
_space_group_symop_operation_xyz
x,y,z
-x,1/2-y,z
x,-y,-z
-x,1/2+y,-z
-x,-y,-z
x,1/2+y,-z
-x,y,z
x,1/2-y,z
1/2+x,1/2+y,1/2+z
1/2-x,-y,1/2+z
1/2+x,1/2-y,1/2-z
1/2-x,y,1/2-z
1/2-x,1/2-y,1/2-z
1/2+x,y,1/2-z
1/2-x,1/2+y,1/2+z
1/2+x,-y,1/2+z
loop_
_atom_site_type_symbol
_atom_site_label
_atom_site_fract_x
_atom_site_fract_y
_atom_site_fract_z
Si Si1 0.185401 0.849460 0.530262
Si Si2 0.684403 0.960946 0.197866
Si Si3 0.814139 0.448573 0.521108
Si Si4 0.813368 0.196372 0.936803
Si Si5 0.814931 0.599277 0.113528
Si Si6 0.685112 0.566183 0.697265
Si Si7 0.812082 0.844741 0.638436
Si Si8 0.186944 0.750000 0.697036
O O1 0.217161 0.904911 0.515328
O O2 0.261180 0.816814 0.489849
O O3 0.236130 0.839813 0.583748
O O4 0.000000 0.842317 0.527964
O O5 0.500000 0.964806 0.200091
O O6 0.750000 0.950384 0.250000
O O7 0.735838 0.921151 0.160230
O O8 0.752989 0.013210 0.183451
O O9 0.767962 0.500000 0.500000
O O10 0.729919 0.435173 0.569653
O O11 0.000000 0.449497 0.529745
O O12 0.758714 0.250000 0.923817
O O13 0.761166 0.152724 0.902807
O O14 0.000000 0.196030 0.935709
O O15 0.000000 0.599675 0.119717
O O16 0.500000 0.565434 0.699046
O O17 0.750000 0.576217 0.750000
O O18 0.744206 0.607345 0.662116
O O19 0.764921 0.798003 0.668750
O O20 0.000000 0.848012 0.639296
O O21 0.250000 0.750000 0.750000
O O22 0.000000 0.750000 0.698783
#
# Coordination Sequence:
#
# PCOD9537869 Si02
#       8
#    16  16  16  16  16  16  16   8
#     4   9  19  33  51  77 107 139 179 224 272 320
#     4  11  22  38  60  85 115 147 182 223 269 325
#     4   9  18  32  50  76 108 145 183 218 266 326
#     4   9  19  36  57  80 111 148 183 224 273 326
#     4  10  20  35  55  82 113 146 185 227 274 327
#     4  11  22  37  56  80 107 140 180 224 274 330
#     4  10  21  36  54  77 104 140 183 232 283 333
#     4  10  22  38  54  72  98 134 184 234 287 338
#
# _framework density 17.759906999999998
#
# number of rings (size 3 to 8) (size 9 to 14) (size 15 to 20)
#    0.000    2.133    0.000    4.000    2.800    3.200 
#    0.000    0.000    0.000    0.400    0.000    0.000 
#    0.000    0.000    0.000    0.000    0.000    0.000 
#
# Total GULP energy -335009.742198 kJ/mol
# GULP energy per Si atom -5583.495703 kJ/mol
# Density = 1.771948 g / cm^3
# Si number density = 17.759907 Si / 1000 Ang^3
#
#
#
# Elastic Constant Matrix: (Units=GPa)
#
#
# Indices 1 2 3 4 5 6 
#
# 1 56.7018 38.4106 38.4073 0.0000 0.0000 0.0000
# 2 38.4106 134.2818 83.2906 0.0000 0.0000 0.0000
# 3 38.4073 83.2906 122.2944 0.0000 0.0000 0.0000
# 4 0.0000 0.0000 0.0000 15.0365 0.0000 0.0000
# 5 0.0000 0.0000 0.0000 0.0000 29.8081 0.0000
# 6 0.0000 0.0000 0.0000 0.0000 0.0000 20.2763
#
#
#
# Elastic Compliance Matrix: (Units=1/GPa)
#
#
# Indices 1 2 3 4 5 6 
#
# 1 0.023417 -0.003700 -0.004835 0.000000 0.000000 0.000000
# 2 -0.003700 0.013478 -0.008018 0.000000 0.000000 0.000000
# 3 -0.004835 -0.008018 0.015156 0.000000 0.000000 0.000000
# 4 0.000000 0.000000 0.000000 0.066505 0.000000 0.000000
# 5 0.000000 0.000000 0.000000 0.000000 0.033548 0.000000
# 6 0.000000 0.000000 0.000000 0.000000 0.000000 0.049319
#
#
# Mechanical properties :
#
#
# Convention : Reuss Voigt Hill
#
# Bulk Modulus (GPa) = 52.77757 70.38833 61.58295
# Shear Modulus (GPa) = 20.76041 23.23547 21.99794
#
# Velocity S-wave (km/s) = 3.42270 3.62098 3.52323
# Velocity P-wave (km/s) = 6.73807 7.56316 7.16250
#
# Compressibility (1/GPa) = 0.01894744
#
# Stress axis : x y z
#
# Youngs Moduli (GPa) = 42.70397 74.19234 65.98032
#
# Poissons Ratio (x) = 0.27448 0.31899
# Poissons Ratio (y) = 0.15799 0.52902
# Poissons Ratio (z) = 0.20646 0.59486
#
# Static dielectric constant tensor:
#      x y z
#    x 1.604420 0.000000 0.000000 
#    y 0.000000 1.608180 0.000000 
#    z 0.000000 0.000000 1.578370 
# 
# From -- ./inp_files/65075.got.cif
#   From: 2010.05.17/outbox.cif.g08.bks.cpg/sg74_33_cif.got.tgz:65075.got - 2010.06.03 17:57:02.
