data_PCOD9537286
_publ_section_title
;
Structure prediction by ZEFSAII (Michael W. Deem and Ramdas Pophale) SiO2 
 PCOD9537286
Probable space group: I M M A
;
_chemical_formula_sum "Si O2"
_cell_formula_units_Z 112
_cell_length_a 25.389940
_cell_length_b 13.944762
_cell_length_c 15.577306
_cell_angle_alpha 90.000000
_cell_angle_beta 90.000000
_cell_angle_gamma 90.000000
_cell_volume 5515.249098
_symmetry_space_group_name_H-M "I M M A"
_symmetry_group_IT_number 74
_symmetry_cell_setting 'orthorhombic'
loop_
_space_group_symop_operation_xyz
x,y,z
-x,1/2-y,z
x,-y,-z
-x,1/2+y,-z
-x,-y,-z
x,1/2+y,-z
-x,y,z
x,1/2-y,z
1/2+x,1/2+y,1/2+z
1/2-x,-y,1/2+z
1/2+x,1/2-y,1/2-z
1/2-x,y,1/2-z
1/2-x,1/2-y,1/2-z
1/2+x,y,1/2-z
1/2-x,1/2+y,1/2+z
1/2+x,-y,1/2+z
loop_
_atom_site_type_symbol
_atom_site_label
_atom_site_fract_x
_atom_site_fract_y
_atom_site_fract_z
Si Si1 0.363900 0.363527 0.885415
Si Si2 0.058768 0.644094 0.877823
Si Si3 0.738259 0.358940 0.628861
Si Si4 0.940580 0.864134 0.542770
Si Si5 0.839551 0.109353 0.025479
Si Si6 0.593790 0.032623 0.214341
Si Si7 0.799701 0.439795 0.205628
O O1 0.369232 0.250000 0.871821
O O2 0.300415 0.382994 0.888258
O O3 0.394472 0.422678 0.811577
O O4 0.395018 0.388200 0.973705
O O5 0.062614 0.750000 0.834895
O O6 0.101891 0.644675 0.953148
O O7 0.067828 0.562802 0.804980
O O8 0.000000 0.633521 0.912285
O O9 0.736094 0.250000 0.664309
O O10 0.701270 0.353786 0.544716
O O11 0.712889 0.447568 0.682376
O O12 0.937272 0.750000 0.557755
O O13 0.000000 0.884241 0.509238
O O14 0.932868 0.917894 0.632827
O O15 0.812225 0.112033 0.117590
O O16 0.847569 0.000000 0.000000
O O17 0.652604 0.070597 0.229356
O O18 0.750000 0.396451 0.250000
#
# Coordination Sequence:
#
# PCOD9537286 Si02
#       7
#    16  16  16  16  16  16  16
#     4  10  22  36  54  83 114 152 194 233 276 332
#     4  10  21  38  60  85 113 147 191 240 289 339
#     4  10  20  36  58  81 112 150 189 228 272 333
#     4  10  22  39  58  82 111 145 192 240 282 337
#     4   9  20  35  57  85 114 149 183 229 283 336
#     4  11  21  34  57  81 111 150 189 230 284 339
#     4  10  20  33  51  80 112 148 182 222 272 333
#
# _framework density 20.307334000000001
#
# number of rings (size 3 to 8) (size 9 to 14) (size 15 to 20)
#    0.000    2.000    1.429    1.714    2.000    5.143 
#    0.000    0.000    0.000    2.571    0.000    0.000 
#    0.000    0.000    0.000    0.000    0.000    0.000 
#
# Total GULP energy -311938.284971 kJ/mol
# GULP energy per Si atom -5570.326517 kJ/mol
# Density = 2.026111 g / cm^3
# Si number density = 20.307334 Si / 1000 Ang^3
#
#
#
# Elastic Constant Matrix: (Units=GPa)
#
#
# Indices 1 2 3 4 5 6 
#
# 1 141.2256 30.2346 38.4598 0.0000 0.0000 0.0000
# 2 30.2346 67.5303 12.2484 0.0000 0.0000 0.0000
# 3 38.4598 12.2484 57.6918 0.0000 0.0000 0.0000
# 4 0.0000 0.0000 0.0000 -87.1170 0.0000 0.0000
# 5 0.0000 0.0000 0.0000 0.0000 34.7735 0.0000
# 6 0.0000 0.0000 0.0000 0.0000 0.0000 27.3656
#
#
#
# Elastic Compliance Matrix: (Units=1/GPa)
#
#
# Indices 1 2 3 4 5 6 
#
# 1 0.009252 -0.003145 -0.005500 0.000000 0.000000 0.000000
# 2 -0.003145 0.016470 -0.001400 0.000000 0.000000 0.000000
# 3 -0.005500 -0.001400 0.021297 0.000000 0.000000 0.000000
# 4 0.000000 0.000000 0.000000 -0.011479 0.000000 0.000000
# 5 0.000000 0.000000 0.000000 0.000000 0.028758 0.000000
# 6 0.000000 0.000000 0.000000 0.000000 0.000000 0.036542
#
#
# Mechanical properties :
#
#
# Convention : Reuss Voigt Hill
#
# Bulk Modulus (GPa) = 37.13445 47.59259 42.36352
# Shear Modulus (GPa) = 38.48907 7.37141 22.93024
#
# Velocity S-wave (km/s) = 4.35826 1.90730 3.36394
# Velocity P-wave (km/s) = 6.60695 5.32329 5.99955
#
# Compressibility (1/GPa) = 0.02692917
#
# Stress axis : x y z
#
# Youngs Moduli (GPa) = 108.08538 60.71615 46.95408
#
# Poissons Ratio (x) = 0.19093 0.25825
# Poissons Ratio (y) = 0.33989 0.06575
# Poissons Ratio (z) = 0.59448 0.08502
#
# Static dielectric constant tensor:
#      x y z
#    x 1.730650 0.000000 0.000000 
#    y 0.000000 1.767480 0.000000 
#    z 0.000000 0.000000 1.727560 
# 
# From -- ./inp_files/37389.got.cif
#   From: 2010.05.17/outbox.cif.g08.bks.cpg/sg74_19_cif.got.tgz:37389.got - 2010.06.03 17:57:02.
