data_PCOD9537388
_publ_section_title
;
Structure prediction by ZEFSAII (Michael W. Deem and Ramdas Pophale) SiO2 
 PCOD9537388
Probable space group: I M M A
;
_chemical_formula_sum "Si O2"
_cell_formula_units_Z 44
_cell_length_a 23.214125
_cell_length_b 9.242886
_cell_length_c 8.549222
_cell_angle_alpha 90.000000
_cell_angle_beta 90.000000
_cell_angle_gamma 90.000000
_cell_volume 1834.368187
_symmetry_space_group_name_H-M "I M M A"
_symmetry_group_IT_number 74
_symmetry_cell_setting 'orthorhombic'
loop_
_space_group_symop_operation_xyz
x,y,z
-x,1/2-y,z
x,-y,-z
-x,1/2+y,-z
-x,-y,-z
x,1/2+y,-z
-x,y,z
x,1/2-y,z
1/2+x,1/2+y,1/2+z
1/2-x,-y,1/2+z
1/2+x,1/2-y,1/2-z
1/2-x,y,1/2-z
1/2-x,1/2-y,1/2-z
1/2+x,y,1/2-z
1/2-x,1/2+y,1/2+z
1/2+x,-y,1/2+z
loop_
_atom_site_type_symbol
_atom_site_label
_atom_site_fract_x
_atom_site_fract_y
_atom_site_fract_z
Si Si1 0.414900 0.250000 0.307985
Si Si2 0.181471 0.750000 0.279010
Si Si3 0.295293 0.250000 0.430791
Si Si4 0.500000 0.250000 0.594289
Si Si5 0.292871 0.000000 0.000000
Si Si6 0.500000 0.023127 0.182134
O O1 0.346464 0.250000 0.306548
O O2 0.445868 0.250000 0.477504
O O3 0.443073 0.113332 0.224184
O O4 0.250000 0.750000 0.250000
O O5 0.171323 0.895884 0.381061
O O6 0.167503 0.750000 0.095086
O O7 0.252728 0.386892 0.423774
O O8 0.500000 0.385784 0.707244
O O9 0.500000 0.000000 0.000000
#
# Coordination Sequence:
#
# PCOD9537388 Si02
#       6
#     8   8   8   4   8   8
#     4  10  21  36  63  99 118 164 209 245 311 365
#     4   8  16  34  53  84 118 164 211 257 309 359
#     4  10  20  33  60  93 119 156 220 262 281 378
#     4  10  20  36  64  90 126 164 198 240 306 394
#     4   8  16  32  58  83 122 169 202 260 316 344
#     4  10  21  40  65  90 132 160 192 250 321 380
#
# _framework density 23.986460999999998
#
# number of rings (size 3 to 8) (size 9 to 14) (size 15 to 20)
#    0.000    3.273    0.000    3.273    5.091    0.000 
#    0.000   32.727    4.000    8.727    0.000    0.000 
#    0.000    0.000    0.000    0.000    0.000    0.000 
#
# Total GULP energy -122838.821559 kJ/mol
# GULP energy per Si atom -5583.582798 kJ/mol
# Density = 2.393187 g / cm^3
# Si number density = 23.986461 Si / 1000 Ang^3
#
#
#
# Elastic Constant Matrix: (Units=GPa)
#
#
# Indices 1 2 3 4 5 6 
#
# 1 94.9632 30.4787 26.3494 0.0000 0.0000 0.0000
# 2 30.4787 185.0563 71.2015 0.0000 0.0000 0.0000
# 3 26.3494 71.2015 179.2195 0.0000 0.0000 0.0000
# 4 0.0000 0.0000 0.0000 38.2087 0.0000 0.0000
# 5 0.0000 0.0000 0.0000 0.0000 15.2150 0.0000
# 6 0.0000 0.0000 0.0000 0.0000 0.0000 -11.7561
#
#
#
# Elastic Compliance Matrix: (Units=1/GPa)
#
#
# Indices 1 2 3 4 5 6 
#
# 1 0.011295 -0.001442 -0.001088 0.000000 0.000000 0.000000
# 2 -0.001442 0.006563 -0.002395 0.000000 0.000000 0.000000
# 3 -0.001088 -0.002395 0.006691 0.000000 0.000000 0.000000
# 4 0.000000 0.000000 0.000000 0.026172 0.000000 0.000000
# 5 0.000000 0.000000 0.000000 0.000000 0.065725 0.000000
# 6 0.000000 0.000000 0.000000 0.000000 0.000000 -0.085062
#
#
# Mechanical properties :
#
#
# Convention : Reuss Voigt Hill
#
# Bulk Modulus (GPa) = 68.03053 79.47758 73.75406
# Shear Modulus (GPa) = 108.38105 30.41414 69.39759
#
# Velocity S-wave (km/s) = 6.72922 3.56472 5.38468
# Velocity P-wave (km/s) = 9.42338 7.08161 8.33515
#
# Compressibility (1/GPa) = 0.01469928
#
# Stress axis : x y z
#
# Youngs Moduli (GPa) = 88.53503 152.37302 149.44700
#
# Poissons Ratio (x) = 0.21968 0.16258
# Poissons Ratio (y) = 0.12764 0.35798
# Poissons Ratio (z) = 0.09631 0.36499
#
# Static dielectric constant tensor:
#      x y z
#    x 1.853450 0.000000 0.000000 
#    y 0.000000 1.940360 0.000000 
#    z 0.000000 0.000000 2.127560 
# 
# From -- ./inp_files/15672.got.cif
#   From: 2010.05.17/outbox.cif.g08.bks.cpg/sg74_8_cif.got.tgz:15672.got - 2010.06.03 17:57:02.
