data_PCOD9537481
_publ_section_title
;
Structure prediction by ZEFSAII (Michael W. Deem and Ramdas Pophale) SiO2 
 PCOD9537481
Probable space group: I M M A
;
_chemical_formula_sum "Si O2"
_cell_formula_units_Z 64
_cell_length_a 24.479474
_cell_length_b 8.416643
_cell_length_c 12.717928
_cell_angle_alpha 90.000000
_cell_angle_beta 90.000000
_cell_angle_gamma 90.000000
_cell_volume 2620.338213
_symmetry_space_group_name_H-M "I M M A"
_symmetry_group_IT_number 74
_symmetry_cell_setting 'orthorhombic'
loop_
_space_group_symop_operation_xyz
x,y,z
-x,1/2-y,z
x,-y,-z
-x,1/2+y,-z
-x,-y,-z
x,1/2+y,-z
-x,y,z
x,1/2-y,z
1/2+x,1/2+y,1/2+z
1/2-x,-y,1/2+z
1/2+x,1/2-y,1/2-z
1/2-x,y,1/2-z
1/2-x,1/2-y,1/2-z
1/2+x,y,1/2-z
1/2-x,1/2+y,1/2+z
1/2+x,-y,1/2+z
loop_
_atom_site_type_symbol
_atom_site_label
_atom_site_fract_x
_atom_site_fract_y
_atom_site_fract_z
Si Si1 0.323820 0.933040 0.332133
Si Si2 0.210309 0.565972 0.613473
Si Si3 0.561703 0.935239 0.664889
Si Si4 0.935238 0.072031 0.608726
O O1 0.310674 0.750000 0.354128
O O2 0.275818 0.043988 0.375821
O O3 0.317584 0.966169 0.206815
O O4 0.384324 0.973743 0.373247
O O5 0.196925 0.500000 0.500000
O O6 0.195774 0.750000 0.625955
O O7 0.500000 0.993989 0.637107
O O8 0.564839 0.750000 0.637455
O O9 0.567694 0.957627 0.790945
O O10 0.913818 0.250000 0.631599
O O11 0.000000 0.090878 0.593293
O O12 0.914399 0.000000 0.500000
#
# Coordination Sequence:
#
# PCOD9537481 Si02
#       4
#    16  16  16  16
#     4  11  22  38  60  89 121 154 196 242 292 350
#     4  11  22  40  64  90 119 152 193 242 297 350
#     4  10  20  34  52  76 109 150 192 234 284 341
#     4   9  16  26  40  60  89 128 174 221 268 322
#
# _framework density 24.424326000000001
#
# number of rings (size 3 to 8) (size 9 to 14) (size 15 to 20)
#    0.000    1.750    0.000    7.500    0.000    5.500 
#    0.000    5.000    0.000    0.750    0.000    0.000 
#    0.000    0.000    0.000    0.000    0.000    0.000 
#
# Total GULP energy -178955.850375 kJ/mol
# GULP energy per Si atom -5592.370324 kJ/mol
# Density = 2.436874 g / cm^3
# Si number density = 24.424326 Si / 1000 Ang^3
#
#
#
# Elastic Constant Matrix: (Units=GPa)
#
#
# Indices 1 2 3 4 5 6 
#
# 1 169.8863 4.8130 -4.1880 0.0000 0.0000 0.0000
# 2 4.8130 96.9729 -9.9791 0.0000 0.0000 0.0000
# 3 -4.1880 -9.9791 65.6900 0.0000 0.0000 0.0000
# 4 0.0000 0.0000 0.0000 18.1324 0.0000 0.0000
# 5 0.0000 0.0000 0.0000 0.0000 -22.2387 0.0000
# 6 0.0000 0.0000 0.0000 0.0000 0.0000 37.6113
#
#
#
# Elastic Compliance Matrix: (Units=1/GPa)
#
#
# Indices 1 2 3 4 5 6 
#
# 1 0.005902 -0.000258 0.000337 0.000000 0.000000 0.000000
# 2 -0.000258 0.010487 0.001577 0.000000 0.000000 0.000000
# 3 0.000337 0.001577 0.015484 0.000000 0.000000 0.000000
# 4 0.000000 0.000000 0.000000 0.055150 0.000000 0.000000
# 5 0.000000 0.000000 0.000000 0.000000 -0.044967 0.000000
# 6 0.000000 0.000000 0.000000 0.000000 0.000000 0.026588
#
#
# Mechanical properties :
#
#
# Convention : Reuss Voigt Hill
#
# Bulk Modulus (GPa) = 28.42193 34.87122 31.64658
# Shear Modulus (GPa) = 64.88363 29.49458 47.18911
#
# Velocity S-wave (km/s) = 5.15973 3.47881 4.40028
# Velocity P-wave (km/s) = 6.86725 5.51764 6.22911
#
# Compressibility (1/GPa) = 0.03518410
#
# Stress axis : x y z
#
# Youngs Moduli (GPa) = 169.43658 95.35410 64.58275
#
# Poissons Ratio (x) = 0.02462 -0.02177
# Poissons Ratio (y) = 0.04376 -0.10183
# Poissons Ratio (z) = -0.05711 -0.15034
#
# Static dielectric constant tensor:
#      x y z
#    x 2.036060 0.000000 0.000000 
#    y 0.000000 1.848820 0.000000 
#    z 0.000000 0.000000 1.965170 
# 
# From -- ./inp_files/35961.got.cif
#   From: 2010.05.17/outbox.cif.g08.bks.cpg/sg74_18_cif.got.tgz:35961.got - 2010.06.03 17:57:02.
