data_PCOD9537506
_publ_section_title
;
Structure prediction by ZEFSAII (Michael W. Deem and Ramdas Pophale) SiO2 
 PCOD9537506
Probable space group: I M M A
;
_chemical_formula_sum "Si O2"
_cell_formula_units_Z 88
_cell_length_a 7.713894
_cell_length_b 28.415383
_cell_length_c 18.694468
_cell_angle_alpha 90.000000
_cell_angle_beta 90.000000
_cell_angle_gamma 90.000000
_cell_volume 4097.701243
_symmetry_space_group_name_H-M "I M M A"
_symmetry_group_IT_number 74
_symmetry_cell_setting 'orthorhombic'
loop_
_space_group_symop_operation_xyz
x,y,z
-x,1/2-y,z
x,-y,-z
-x,1/2+y,-z
-x,-y,-z
x,1/2+y,-z
-x,y,z
x,1/2-y,z
1/2+x,1/2+y,1/2+z
1/2-x,-y,1/2+z
1/2+x,1/2-y,1/2-z
1/2-x,y,1/2-z
1/2-x,1/2-y,1/2-z
1/2+x,y,1/2-z
1/2-x,1/2+y,1/2+z
1/2+x,-y,1/2+z
loop_
_atom_site_type_symbol
_atom_site_label
_atom_site_fract_x
_atom_site_fract_y
_atom_site_fract_z
Si Si1 0.787315 0.405276 0.611392
Si Si2 0.794793 0.750000 0.667435
Si Si3 0.201421 0.668816 0.936619
Si Si4 0.291784 0.500867 0.828429
Si Si5 0.295995 0.301719 0.905198
Si Si6 0.699627 0.567468 0.952880
O O1 0.733134 0.446649 0.664403
O O2 0.726116 0.351710 0.624603
O O3 0.729315 0.423792 0.532727
O O4 0.000000 0.402877 0.609596
O O5 0.750000 0.750000 0.750000
O O6 0.720314 0.795248 0.627533
O O7 0.000000 0.750000 0.657188
O O8 0.292126 0.619589 0.920086
O O9 0.000000 0.659522 0.950765
O O10 0.278672 0.691263 0.009049
O O11 0.500000 0.501065 0.834522
O O12 0.250000 0.519973 0.750000
O O13 0.223453 0.531111 0.895814
O O14 0.500000 0.300196 0.887569
O O15 0.221727 0.250000 0.886280
O O16 0.500000 0.553162 0.964144
#
# Coordination Sequence:
#
# PCOD9537506 Si02
#       6
#    16   8  16  16  16  16
#     4   8  15  30  53  79 101 130 176 222 262 305
#     4  12  24  38  52  68  96 136 177 214 253 302
#     4  11  21  33  50  75 104 132 164 208 259 311
#     4  10  20  34  53  75 103 137 174 218 267 321
#     4   9  16  29  53  79 102 130 167 214 259 301
#     4   9  18  34  55  75  97 133 179 223 260 302
#
# _framework density 21.475456000000001
#
# number of rings (size 3 to 8) (size 9 to 14) (size 15 to 20)
#    0.000    2.364    0.909    4.091    0.000    3.636 
#    0.000    5.455    0.000    6.000    0.000    0.000 
#    0.000    0.000    0.000    0.000    0.000    0.000 
#
# Total GULP energy -245368.257753 kJ/mol
# GULP energy per Si atom -5576.551313 kJ/mol
# Density = 2.142658 g / cm^3
# Si number density = 21.475456 Si / 1000 Ang^3
#
#
#
# Elastic Constant Matrix: (Units=GPa)
#
#
# Indices 1 2 3 4 5 6 
#
# 1 51.9142 2.0882 -5.7525 0.0000 0.0000 0.0000
# 2 2.0882 132.8729 15.4421 0.0000 0.0000 0.0001
# 3 -5.7525 15.4421 21.2149 0.0000 0.0000 0.0001
# 4 0.0000 0.0000 0.0000 3.9513 0.0000 0.0000
# 5 0.0000 0.0000 0.0000 0.0000 8.8519 0.0000
# 6 0.0000 0.0001 0.0001 0.0000 0.0000 46.2896
#
#
#
# Elastic Compliance Matrix: (Units=1/GPa)
#
#
# Indices 1 2 3 4 5 6 
#
# 1 0.019988 -0.001031 0.006170 0.000000 0.000000 0.000000
# 2 -0.001031 0.008275 -0.006303 0.000000 0.000000 0.000000
# 3 0.006170 -0.006303 0.053397 0.000001 0.000000 0.000000
# 4 0.000000 0.000000 0.000001 0.253080 0.000000 0.000000
# 5 0.000000 0.000000 0.000000 0.000000 0.112970 0.000000
# 6 0.000000 0.000000 0.000000 0.000000 0.000000 0.021603
#
#
# Mechanical properties :
#
#
# Convention : Reuss Voigt Hill
#
# Bulk Modulus (GPa) = 12.60516 25.50642 19.05579
# Shear Modulus (GPa) = 10.03845 24.76684 17.40264
#
# Velocity S-wave (km/s) = 2.16438 3.39966 2.84975
# Velocity P-wave (km/s) = 3.48258 5.22618 4.44080
#
# Compressibility (1/GPa) = 0.07933262
#
# Stress axis : x y z
#
# Youngs Moduli (GPa) = 50.03064 120.85068 18.72754
#
# Poissons Ratio (x) = 0.12462 -0.11556
# Poissons Ratio (y) = 0.05159 0.11803
# Poissons Ratio (z) = -0.30871 0.76168
#
# Static dielectric constant tensor:
#      x y z
#    x 1.828240 0.000000 0.000000 
#    y 0.000000 1.814500 0.000000 
#    z 0.000000 0.000000 1.738170 
# 
# From -- ./inp_files/40086.got.cif
#   From: 2010.05.17/outbox.cif.g08.bks.cpg/sg74_21_cif.got.tgz:40086.got - 2010.06.03 17:57:02.
