data_PCOD9537969
_publ_section_title
;
Structure prediction by ZEFSAII (Michael W. Deem and Ramdas Pophale) SiO2 
 PCOD9537969
Probable space group: I M M A
;
_chemical_formula_sum "Si O2"
_cell_formula_units_Z 72
_cell_length_a 8.372240
_cell_length_b 15.790045
_cell_length_c 27.301292
_cell_angle_alpha 90.000000
_cell_angle_beta 90.000000
_cell_angle_gamma 90.000000
_cell_volume 3609.177465
_symmetry_space_group_name_H-M "I M M A"
_symmetry_group_IT_number 74
_symmetry_cell_setting 'orthorhombic'
loop_
_space_group_symop_operation_xyz
x,y,z
-x,1/2-y,z
x,-y,-z
-x,1/2+y,-z
-x,-y,-z
x,1/2+y,-z
-x,y,z
x,1/2-y,z
1/2+x,1/2+y,1/2+z
1/2-x,-y,1/2+z
1/2+x,1/2-y,1/2-z
1/2-x,y,1/2-z
1/2-x,1/2-y,1/2-z
1/2+x,y,1/2-z
1/2-x,1/2+y,1/2+z
1/2+x,-y,1/2+z
loop_
_atom_site_type_symbol
_atom_site_label
_atom_site_fract_x
_atom_site_fract_y
_atom_site_fract_z
Si Si1 0.193253 0.250000 0.694214
Si Si2 0.691038 0.426161 0.853321
Si Si3 0.193308 0.424840 0.963838
Si Si4 0.304970 0.750000 0.513733
Si Si5 0.808963 0.903634 0.804411
Si Si6 0.695198 0.250000 0.373315
O O1 0.250000 0.250000 0.750000
O O2 0.248757 0.164477 0.667243
O O3 0.000000 0.250000 0.693548
O O4 0.500000 0.426222 0.851580
O O5 0.746422 0.437471 0.909027
O O6 0.752460 0.503823 0.820839
O O7 0.000000 0.425386 0.962676
O O8 0.244768 0.500000 0.000000
O O9 0.246308 0.334665 0.985699
O O10 0.500000 0.750000 0.514170
O O11 0.252371 0.750000 0.570308
O O12 0.750000 0.883251 0.750000
O O13 0.753214 0.833195 0.843487
O O14 0.000000 0.902474 0.804352
O O15 0.500000 0.250000 0.373944
#
# Coordination Sequence:
#
# PCOD9537969 Si02
#       6
#     8  16  16   8  16   8
#     4  10  23  40  58  81 111 148 189 234 283 337
#     4  11  23  39  58  83 115 150 190 235 284 336
#     4  10  20  35  57  83 111 146 188 231 278 333
#     4   9  17  32  55  82 109 142 187 232 275 328
#     4  11  22  38  60  86 116 150 189 232 281 335
#     4   9  19  36  59  85 115 150 187 230 277 331
#
# _framework density 19.949144
#
# number of rings (size 3 to 8) (size 9 to 14) (size 15 to 20)
#    0.000    1.778    0.000    4.333    0.000    7.556 
#    0.000    1.667    0.000    2.667    0.000    0.000 
#    0.000    0.000    0.000    0.000    0.000    0.000 
#
# Total GULP energy -201261.002956 kJ/mol
# GULP energy per Si atom -5590.583415 kJ/mol
# Density = 1.990374 g / cm^3
# Si number density = 19.949144 Si / 1000 Ang^3
#
#
#
# Elastic Constant Matrix: (Units=GPa)
#
#
# Indices 1 2 3 4 5 6 
#
# 1 16.7570 8.6509 3.2746 0.0000 0.0000 0.0000
# 2 8.6509 61.3645 -26.6577 0.0000 0.0000 0.0000
# 3 3.2746 -26.6577 68.0976 0.0000 0.0000 0.0000
# 4 0.0000 0.0000 0.0000 45.9259 0.0000 0.0000
# 5 0.0000 0.0000 0.0000 0.0000 34.9792 0.0000
# 6 0.0000 0.0000 0.0000 0.0000 0.0000 17.4313
#
#
#
# Elastic Compliance Matrix: (Units=1/GPa)
#
#
# Indices 1 2 3 4 5 6 
#
# 1 0.068202 -0.013301 -0.008487 0.000000 0.000000 0.000000
# 2 -0.013301 0.022229 0.009342 0.000000 0.000000 0.000000
# 3 -0.008487 0.009342 0.018750 0.000000 0.000000 0.000000
# 4 0.000000 0.000000 0.000000 0.021774 0.000000 0.000000
# 5 0.000000 0.000000 0.000000 0.000000 0.028588 0.000000
# 6 0.000000 0.000000 0.000000 0.000000 0.000000 0.057368
#
#
# Mechanical properties :
#
#
# Convention : Reuss Voigt Hill
#
# Bulk Modulus (GPa) = 11.86409 12.97275 12.41842
# Shear Modulus (GPa) = 18.52533 30.39737 24.46135
#
# Velocity S-wave (km/s) = 3.05065 3.90775 3.50549
# Velocity P-wave (km/s) = 4.28587 5.18437 4.75638
#
# Compressibility (1/GPa) = 0.08428795
#
# Stress axis : x y z
#
# Youngs Moduli (GPa) = 14.66235 44.98553 53.33392
#
# Poissons Ratio (x) = 0.59837 0.45263
# Poissons Ratio (y) = 0.19503 -0.49822
# Poissons Ratio (z) = 0.12443 -0.42024
#
# Static dielectric constant tensor:
#      x y z
#    x 1.696530 0.000000 0.000000 
#    y 0.000000 1.694960 0.000000 
#    z 0.000000 0.000000 1.668420 
# 
# From -- ./inp_files/63659.got.cif
#   From: 2010.05.17/outbox.cif.g08.bks.cpg/sg74_32_cif.got.tgz:63659.got - 2010.06.03 17:57:02.
