data_PCOD9537079
_publ_section_title
;
Structure prediction by ZEFSAII (Michael W. Deem and Ramdas Pophale) SiO2 
 PCOD9537079
Probable space group: I M M A
;
_chemical_formula_sum "Si O2"
_cell_formula_units_Z 80
_cell_length_a 14.992376
_cell_length_b 19.582775
_cell_length_c 15.140525
_cell_angle_alpha 90.000000
_cell_angle_beta 90.000000
_cell_angle_gamma 90.000000
_cell_volume 4445.141950
_symmetry_space_group_name_H-M "I M M A"
_symmetry_group_IT_number 74
_symmetry_cell_setting 'orthorhombic'
loop_
_space_group_symop_operation_xyz
x,y,z
-x,1/2-y,z
x,-y,-z
-x,1/2+y,-z
-x,-y,-z
x,1/2+y,-z
-x,y,z
x,1/2-y,z
1/2+x,1/2+y,1/2+z
1/2-x,-y,1/2+z
1/2+x,1/2-y,1/2-z
1/2-x,y,1/2-z
1/2-x,1/2-y,1/2-z
1/2+x,y,1/2-z
1/2-x,1/2+y,1/2+z
1/2+x,-y,1/2+z
loop_
_atom_site_type_symbol
_atom_site_label
_atom_site_fract_x
_atom_site_fract_y
_atom_site_fract_z
Si Si1 0.402437 0.024257 0.773184
Si Si2 0.596849 0.951009 0.585306
Si Si3 0.895429 0.827194 0.496465
Si Si4 0.295009 0.053301 0.081344
Si Si5 0.345107 0.825514 0.201792
O O1 0.500000 0.008040 0.812938
O O2 0.393205 0.105770 0.768500
O O3 0.400468 0.995032 0.674786
O O4 0.326910 0.989338 0.833346
O O5 0.500000 0.913812 0.584879
O O6 0.694314 0.916895 0.585092
O O7 0.596242 0.000000 0.500000
O O8 0.885279 0.750000 0.530852
O O9 0.861493 0.884818 0.561916
O O10 0.841269 0.832051 0.404526
O O11 0.000000 0.837249 0.474730
O O12 0.299321 0.000000 0.000000
O O13 0.385704 0.750000 0.218866
O O14 0.250000 0.826212 0.250000
#
# Coordination Sequence:
#
# PCOD9537079 Si02
#       5
#    16  16  16  16  16
#     4  11  21  33  54  82 113 143 182 228 273 327
#     4   9  20  36  53  76 105 142 183 229 276 317
#     4  10  21  36  53  79 117 151 178 221 281 334
#     4  11  20  32  57  83 109 140 183 226 270 329
#     4  10  20  32  48  73 111 152 184 213 260 325
#
# _framework density 17.997174999999999
#
# number of rings (size 3 to 8) (size 9 to 14) (size 15 to 20)
#    0.000    1.800    2.000    3.000    2.800    2.000 
#    0.000    0.000    0.000    3.000    0.000    2.800 
#    0.000    0.000    0.000    0.000    0.000    0.000 
#
# Total GULP energy -222788.346941 kJ/mol
# GULP energy per Si atom -5569.708674 kJ/mol
# Density = 1.795621 g / cm^3
# Si number density = 17.997175 Si / 1000 Ang^3
#
#
#
# Elastic Constant Matrix: (Units=GPa)
#
#
# Indices 1 2 3 4 5 6 
#
# 1 106.7341 27.0382 27.5784 0.0000 0.0000 0.0000
# 2 27.0382 67.5059 19.1806 0.0000 0.0000 0.0000
# 3 27.5784 19.1806 72.8513 0.0000 0.0000 0.0000
# 4 0.0000 0.0000 0.0000 9.5766 0.0000 0.0000
# 5 0.0000 0.0000 0.0000 0.0000 20.7720 0.0000
# 6 0.0000 0.0000 0.0000 0.0000 0.0000 19.3575
#
#
#
# Elastic Compliance Matrix: (Units=1/GPa)
#
#
# Indices 1 2 3 4 5 6 
#
# 1 0.011107 -0.003517 -0.003279 0.000000 0.000000 0.000000
# 2 -0.003517 0.017125 -0.003177 0.000000 0.000000 0.000000
# 3 -0.003279 -0.003177 0.015804 0.000000 0.000000 0.000000
# 4 0.000000 0.000000 0.000000 0.104422 0.000000 0.000000
# 5 0.000000 0.000000 0.000000 0.000000 0.048142 0.000000
# 6 0.000000 0.000000 0.000000 0.000000 0.000000 0.051660
#
#
# Mechanical properties :
#
#
# Convention : Reuss Voigt Hill
#
# Bulk Modulus (GPa) = 41.51070 43.85398 42.68234
# Shear Modulus (GPa) = 18.10047 21.49414 19.79730
#
# Velocity S-wave (km/s) = 3.17478 3.45962 3.32026
# Velocity P-wave (km/s) = 6.04600 6.35442 6.20213
#
# Compressibility (1/GPa) = 0.02409018
#
# Stress axis : x y z
#
# Youngs Moduli (GPa) = 90.03140 58.39408 63.27395
#
# Poissons Ratio (x) = 0.20538 0.20746
# Poissons Ratio (y) = 0.31666 0.20104
# Poissons Ratio (z) = 0.29519 0.18553
#
# Static dielectric constant tensor:
#      x y z
#    x 1.701670 0.000000 0.000000 
#    y 0.000000 1.589820 0.000000 
#    z 0.000000 0.000000 1.600050 
# 
# From -- ./inp_files/35072.got.cif
#   From: 2010.05.17/outbox.cif.g08.bks.cpg/sg74_18_cif.got.tgz:35072.got - 2010.06.03 17:57:02.
