data_PCOD9537580
_publ_section_title
;
Structure prediction by ZEFSAII (Michael W. Deem and Ramdas Pophale) SiO2 
 PCOD9537580
Probable space group: I M M A
;
_chemical_formula_sum "Si O2"
_cell_formula_units_Z 112
_cell_length_a 18.429842
_cell_length_b 7.535380
_cell_length_c 36.380899
_cell_angle_alpha 90.000000
_cell_angle_beta 90.000000
_cell_angle_gamma 90.000000
_cell_volume 5052.428738
_symmetry_space_group_name_H-M "I M M A"
_symmetry_group_IT_number 74
_symmetry_cell_setting 'orthorhombic'
loop_
_space_group_symop_operation_xyz
x,y,z
-x,1/2-y,z
x,-y,-z
-x,1/2+y,-z
-x,-y,-z
x,1/2+y,-z
-x,y,z
x,1/2-y,z
1/2+x,1/2+y,1/2+z
1/2-x,-y,1/2+z
1/2+x,1/2-y,1/2-z
1/2-x,y,1/2-z
1/2-x,1/2-y,1/2-z
1/2+x,y,1/2-z
1/2-x,1/2+y,1/2+z
1/2+x,-y,1/2+z
loop_
_atom_site_type_symbol
_atom_site_label
_atom_site_fract_x
_atom_site_fract_y
_atom_site_fract_z
Si Si1 0.418166 0.532824 0.243922
Si Si2 0.579309 0.035328 0.118135
Si Si3 0.697735 0.037400 0.458773
Si Si4 0.419274 0.539695 0.598813
Si Si5 0.363375 0.962489 0.959079
Si Si6 0.355067 0.035327 0.677917
Si Si7 0.809498 0.541147 0.318549
O O1 0.500000 0.475699 0.235098
O O2 0.417979 0.750000 0.243014
O O3 0.395296 0.478905 0.284908
O O4 0.359132 0.468926 0.214442
O O5 0.500000 0.974384 0.131350
O O6 0.579072 0.250000 0.118469
O O7 0.592507 0.974691 0.076281
O O8 0.644434 0.978321 0.144342
O O9 0.702784 0.250000 0.454261
O O10 0.642861 0.966757 0.428154
O O11 0.780402 0.968474 0.456304
O O12 0.671181 0.000000 0.500000
O O13 0.500000 0.465629 0.593054
O O14 0.423017 0.750000 0.591246
O O15 0.395269 0.518691 0.640860
O O16 0.360740 0.750000 0.956196
O O17 0.391642 0.000000 0.000000
O O18 0.354215 0.250000 0.678010
O O19 0.271820 0.969237 0.678140
O O20 0.800688 0.750000 0.310791
#
# Coordination Sequence:
#
# PCOD9537580 Si02
#       7
#    16  16  16  16  16  16  16
#     4   9  17  31  52  77 106 137 168 208 258 305
#     4  10  21  36  53  75 105 139 173 211 257 306
#     4   9  18  33  52  73  99 132 169 209 253 302
#     4  10  21  36  53  75 105 139 173 211 257 306
#     4   9  18  33  52  73  99 132 169 209 253 302
#     4  10  20  34  54  79 105 135 173 214 255 303
#     4  10  20  34  54  79 105 135 173 214 255 303
#
# _framework density 22.167558
#
# number of rings (size 3 to 8) (size 9 to 14) (size 15 to 20)
#    0.000    2.429    0.000    2.143    0.000    6.857 
#    0.000    3.571    0.000    4.286    0.000    0.000 
#    0.000    0.000    0.000    0.000    0.000    0.000 
#
# Total GULP energy -312864.509197 kJ/mol
# GULP energy per Si atom -5586.866236 kJ/mol
# Density = 2.211710 g / cm^3
# Si number density = 22.167558 Si / 1000 Ang^3
#
#
#
# Elastic Constant Matrix: (Units=GPa)
#
#
# Indices 1 2 3 4 5 6 
#
# 1 60.4425 -1.1913 -12.5845 0.0000 0.0000 0.0000
# 2 -1.1913 52.8464 -15.4661 0.0000 0.0000 0.0000
# 3 -12.5845 -15.4661 58.9943 0.0000 0.0000 0.0000
# 4 0.0000 0.0000 0.0000 6.5833 0.0000 0.0000
# 5 0.0000 0.0000 0.0000 0.0000 46.2117 0.0000
# 6 0.0000 0.0000 0.0000 0.0000 0.0000 30.0378
#
#
#
# Elastic Compliance Matrix: (Units=1/GPa)
#
#
# Indices 1 2 3 4 5 6 
#
# 1 0.017438 0.001605 0.004141 0.000000 0.000000 0.000000
# 2 0.001605 0.020643 0.005754 0.000000 0.000000 0.000000
# 3 0.004141 0.005754 0.019343 0.000000 0.000000 0.000000
# 4 0.000000 0.000000 0.000000 0.151899 0.000000 0.000000
# 5 0.000000 0.000000 0.000000 0.000000 0.021640 0.000000
# 6 0.000000 0.000000 0.000000 0.000000 0.000000 0.033291
#
#
# Mechanical properties :
#
#
# Convention : Reuss Voigt Hill
#
# Bulk Modulus (GPa) = 12.43420 12.64440 12.53930
# Shear Modulus (GPa) = 18.65241 30.00157 24.32699
#
# Velocity S-wave (km/s) = 2.90389 3.68285 3.31632
# Velocity P-wave (km/s) = 4.10667 4.87862 4.50919
#
# Compressibility (1/GPa) = 0.08042333
#
# Stress axis : x y z
#
# Youngs Moduli (GPa) = 57.34478 48.44273 51.69936
#
# Poissons Ratio (x) = -0.07775 -0.21407
# Poissons Ratio (y) = -0.09203 -0.29749
# Poissons Ratio (z) = -0.23745 -0.27875
#
# Static dielectric constant tensor:
#      x y z
#    x 1.805600 0.000000 0.000000 
#    y 0.000000 1.902780 0.000000 
#    z 0.000000 0.000000 1.769480 
# 
# From -- ./inp_files/72499.got.cif
#   From: 2010.05.17/outbox.cif.g08.bks.cpg/sg74_37_cif.got.tgz:72499.got - 2010.06.03 17:57:02.
