data_PCOD9537185
_publ_section_title
;
Structure prediction by ZEFSAII (Michael W. Deem and Ramdas Pophale) SiO2 
 PCOD9537185
Probable space group: I M M A
;
_chemical_formula_sum "Si O2"
_cell_formula_units_Z 96
_cell_length_a 28.879867
_cell_length_b 10.427168
_cell_length_c 18.971277
_cell_angle_alpha 90.000000
_cell_angle_beta 90.000000
_cell_angle_gamma 90.000000
_cell_volume 5712.919768
_symmetry_space_group_name_H-M "I M M A"
_symmetry_group_IT_number 74
_symmetry_cell_setting 'orthorhombic'
loop_
_space_group_symop_operation_xyz
x,y,z
-x,1/2-y,z
x,-y,-z
-x,1/2+y,-z
-x,-y,-z
x,1/2+y,-z
-x,y,z
x,1/2-y,z
1/2+x,1/2+y,1/2+z
1/2-x,-y,1/2+z
1/2+x,1/2-y,1/2-z
1/2-x,y,1/2-z
1/2-x,1/2-y,1/2-z
1/2+x,y,1/2-z
1/2-x,1/2+y,1/2+z
1/2+x,-y,1/2+z
loop_
_atom_site_type_symbol
_atom_site_label
_atom_site_fract_x
_atom_site_fract_y
_atom_site_fract_z
Si Si1 0.312115 0.604695 0.561922
Si Si2 0.138004 0.901544 0.793694
Si Si3 0.552191 0.095205 0.203469
Si Si4 0.300658 0.889770 0.216120
Si Si5 0.892005 0.603500 0.563076
Si Si6 0.210333 0.965396 0.581648
O O1 0.315760 0.500000 0.500000
O O2 0.317939 0.750000 0.534669
O O3 0.348631 0.580920 0.624594
O O4 0.260289 0.597245 0.596024
O O5 0.145697 0.750000 0.777732
O O6 0.086236 0.935550 0.768329
O O7 0.171006 0.993768 0.748941
O O8 0.500000 0.044518 0.208815
O O9 0.549555 0.250000 0.201990
O O10 0.577112 0.060755 0.129754
O O11 0.321976 0.750000 0.229691
O O12 0.250000 0.891312 0.250000
O O13 0.294729 0.914099 0.133152
O O14 0.895761 0.500000 0.500000
O O15 0.904783 0.750000 0.542276
O O16 0.838345 0.607380 0.588228
O O17 0.212871 0.000000 0.500000
#
# Coordination Sequence:
#
# PCOD9537185 Si02
#       6
#    16  16  16  16  16  16
#     4  10  21  34  53  78 108 142 176 213 257 311
#     4  10  20  36  56  79 105 139 178 219 266 317
#     4   9  18  34  56  79 102 132 175 225 274 321
#     4  11  22  35  53  79 109 143 180 221 265 313
#     4  10  20  33  51  74 104 142 179 219 264 307
#     4  10  20  33  48  73 107 145 179 214 246 306
#
# _framework density 16.804017000000002
#
# number of rings (size 3 to 8) (size 9 to 14) (size 15 to 20)
#    0.000    2.000    3.333    0.500    0.000    7.333 
#    0.000    0.000    0.000    2.000    0.000    0.000 
#    0.000    0.000    0.000    0.000    0.000    0.000 
#
# Total GULP energy -267281.448716 kJ/mol
# GULP energy per Si atom -5568.363515 kJ/mol
# Density = 1.676577 g / cm^3
# Si number density = 16.804017 Si / 1000 Ang^3
#
#
#
# Elastic Constant Matrix: (Units=GPa)
#
#
# Indices 1 2 3 4 5 6 
#
# 1 120.3979 33.5755 55.3410 0.0000 0.0000 0.0000
# 2 33.5755 88.6202 52.4944 0.0000 0.0000 0.0000
# 3 55.3410 52.4944 84.0908 0.0000 0.0000 0.0000
# 4 0.0000 0.0000 0.0000 23.5850 0.0000 0.0000
# 5 0.0000 0.0000 0.0000 0.0000 20.2059 0.0000
# 6 0.0000 0.0000 0.0000 0.0000 0.0000 10.3711
#
#
#
# Elastic Compliance Matrix: (Units=1/GPa)
#
#
# Indices 1 2 3 4 5 6 
#
# 1 0.011910 0.000207 -0.007968 0.000000 0.000000 0.000000
# 2 0.000207 0.017909 -0.011316 0.000000 0.000000 0.000000
# 3 -0.007968 -0.011316 0.024200 0.000000 0.000000 0.000000
# 4 0.000000 0.000000 0.000000 0.042400 0.000000 0.000000
# 5 0.000000 0.000000 0.000000 0.000000 0.049490 0.000000
# 6 0.000000 0.000000 0.000000 0.000000 0.000000 0.096422
#
#
# Mechanical properties :
#
#
# Convention : Reuss Voigt Hill
#
# Bulk Modulus (GPa) = 63.02903 63.99230 63.51067
# Shear Modulus (GPa) = 17.49645 20.94560 19.22102
#
# Velocity S-wave (km/s) = 3.23027 3.53436 3.38573
# Velocity P-wave (km/s) = 7.17653 7.40404 7.29117
#
# Compressibility (1/GPa) = 0.01586570
#
# Stress axis : x y z
#
# Youngs Moduli (GPa) = 83.96050 55.83888 41.32293
#
# Poissons Ratio (x) = -0.01157 0.32925
# Poissons Ratio (y) = -0.01740 0.46761
# Poissons Ratio (z) = 0.66897 0.63187
#
# Static dielectric constant tensor:
#      x y z
#    x 1.588490 0.000000 0.000000 
#    y 0.000000 1.588710 0.000000 
#    z 0.000000 0.000000 1.575790 
# 
# From -- ./inp_files/46640.got.cif
#   From: 2010.05.17/outbox.cif.g08.bks.cpg/sg74_24_cif.got.tgz:46640.got - 2010.06.03 17:57:02.
