data_PCOD9537036
_publ_section_title
;
Structure prediction by ZEFSAII (Michael W. Deem and Ramdas Pophale) SiO2 
 PCOD9537036
Probable space group: I M M A
;
_chemical_formula_sum "Si O2"
_cell_formula_units_Z 96
_cell_length_a 13.992949
_cell_length_b 24.042482
_cell_length_c 11.466876
_cell_angle_alpha 90.000000
_cell_angle_beta 90.000000
_cell_angle_gamma 90.000000
_cell_volume 3857.746332
_symmetry_space_group_name_H-M "I M M A"
_symmetry_group_IT_number 74
_symmetry_cell_setting 'orthorhombic'
loop_
_space_group_symop_operation_xyz
x,y,z
-x,1/2-y,z
x,-y,-z
-x,1/2+y,-z
-x,-y,-z
x,1/2+y,-z
-x,y,z
x,1/2-y,z
1/2+x,1/2+y,1/2+z
1/2-x,-y,1/2+z
1/2+x,1/2-y,1/2-z
1/2-x,y,1/2-z
1/2-x,1/2-y,1/2-z
1/2+x,y,1/2-z
1/2-x,1/2+y,1/2+z
1/2+x,-y,1/2+z
loop_
_atom_site_type_symbol
_atom_site_label
_atom_site_fract_x
_atom_site_fract_y
_atom_site_fract_z
Si Si1 0.116941 0.517389 0.694030
Si Si2 0.637416 0.813742 0.728947
Si Si3 0.392575 0.113914 0.043036
Si Si4 0.611891 0.916777 0.576621
Si Si5 0.616270 0.910687 0.318655
Si Si6 0.617163 0.687243 0.167418
O O1 0.150468 0.555753 0.587237
O O2 0.148277 0.547882 0.813828
O O3 0.143918 0.453849 0.716525
O O4 0.000000 0.519926 0.687989
O O5 0.604105 0.750000 0.721065
O O6 0.750000 0.812036 0.750000
O O7 0.600227 0.847742 0.841151
O O8 0.618243 0.852451 0.617164
O O9 0.500000 0.100463 0.001255
O O10 0.348084 0.152247 0.944260
O O11 0.500000 0.931866 0.570174
O O12 0.651283 0.925775 0.447514
O O13 0.500000 0.913038 0.323220
O O14 0.641852 0.848766 0.280370
O O15 0.500000 0.689537 0.160675
O O16 0.651813 0.750000 0.166766
#
# Coordination Sequence:
#
# PCOD9537036 Si02
#       6
#    16  16  16  16  16  16
#     4   8  14  25  43  70  96 117 151 197 242 285
#     4  10  20  32  47  69  94 123 162 204 246 289
#     4   9  17  30  49  72  95 122 160 202 243 286
#     4   9  17  29  47  72  97 124 158 199 248 295
#     4   9  16  26  43  70 101 127 155 195 242 293
#     4   9  17  27  40  64  99 134 161 189 232 282
#
# _framework density 24.884993999999999
#
# number of rings (size 3 to 8) (size 9 to 14) (size 15 to 20)
#    0.000    3.000    0.000    2.500    0.000    5.333 
#    0.000    5.000    0.000    1.000   34.667    3.500 
#    0.000    0.000    0.000    0.000    0.000    0.000 
#
# Total GULP energy -268296.225415 kJ/mol
# GULP energy per Si atom -5589.504696 kJ/mol
# Density = 2.482835 g / cm^3
# Si number density = 24.884994 Si / 1000 Ang^3
#
#
#
# Elastic Constant Matrix: (Units=GPa)
#
#
# Indices 1 2 3 4 5 6 
#
# 1 93.5882 -10.6999 -1.8872 0.0000 0.0000 0.0000
# 2 -10.6999 172.7334 61.0579 0.0000 0.0000 -0.0001
# 3 -1.8872 61.0579 103.7370 -0.0001 0.0000 -0.0003
# 4 0.0000 0.0000 -0.0001 26.7843 0.0000 -0.0001
# 5 0.0000 0.0000 0.0000 0.0000 17.0437 0.0000
# 6 0.0000 -0.0001 -0.0003 -0.0001 0.0000 7.1353
#
#
#
# Elastic Compliance Matrix: (Units=1/GPa)
#
#
# Indices 1 2 3 4 5 6 
#
# 1 0.010766 0.000755 -0.000248 0.000000 0.000000 0.000000
# 2 0.000755 0.007363 -0.004320 0.000000 0.000000 0.000000
# 3 -0.000248 -0.004320 0.012178 0.000000 0.000000 0.000000
# 4 0.000000 0.000000 0.000000 0.037335 0.000000 0.000000
# 5 0.000000 0.000000 0.000000 0.000000 0.058673 0.000000
# 6 0.000000 0.000000 0.000000 0.000000 0.000000 0.140149
#
#
# Mechanical properties :
#
#
# Convention : Reuss Voigt Hill
#
# Bulk Modulus (GPa) = 44.09167 51.88891 47.99029
# Shear Modulus (GPa) = 17.75245 31.63185 24.69215
#
# Velocity S-wave (km/s) = 2.67381 3.56915 3.15342
# Velocity P-wave (km/s) = 5.22389 6.15482 5.70836
#
# Compressibility (1/GPa) = 0.02268002
#
# Stress axis : x y z
#
# Youngs Moduli (GPa) = 92.88173 135.81283 82.11558
#
# Poissons Ratio (x) = -0.10250 0.02039
# Poissons Ratio (y) = -0.07010 0.35474
# Poissons Ratio (z) = 0.02307 0.58672
#
# Static dielectric constant tensor:
#      x y z
#    x 2.006480 0.000000 0.000000 
#    y 0.000000 1.942400 0.000000 
#    z 0.000000 0.000000 1.919750 
# 
# From -- ./inp_files/22432.got.cif
#   From: 2010.05.17/outbox.cif.g08.bks.cpg/sg74_12_cif.got.tgz:22432.got - 2010.06.03 17:57:02.
