data_PCOD9537743
_publ_section_title
;
Structure prediction by ZEFSAII (Michael W. Deem and Ramdas Pophale) SiO2 
 PCOD9537743
Probable space group: I M M A
;
_chemical_formula_sum "Si O2"
_cell_formula_units_Z 104
_cell_length_a 9.857854
_cell_length_b 22.019433
_cell_length_c 26.682068
_cell_angle_alpha 90.000000
_cell_angle_beta 90.000000
_cell_angle_gamma 90.000000
_cell_volume 5791.725899
_symmetry_space_group_name_H-M "I M M A"
_symmetry_group_IT_number 74
_symmetry_cell_setting 'orthorhombic'
loop_
_space_group_symop_operation_xyz
x,y,z
-x,1/2-y,z
x,-y,-z
-x,1/2+y,-z
-x,-y,-z
x,1/2+y,-z
-x,y,z
x,1/2-y,z
1/2+x,1/2+y,1/2+z
1/2-x,-y,1/2+z
1/2+x,1/2-y,1/2-z
1/2-x,y,1/2-z
1/2-x,1/2-y,1/2-z
1/2+x,y,1/2-z
1/2-x,1/2+y,1/2+z
1/2+x,-y,1/2+z
loop_
_atom_site_type_symbol
_atom_site_label
_atom_site_fract_x
_atom_site_fract_y
_atom_site_fract_z
Si Si1 0.500000 0.179166 0.166613
Si Si2 0.162272 0.509372 0.198892
Si Si3 0.344278 0.250000 0.702264
Si Si4 0.651900 0.679767 0.547600
Si Si5 0.500000 0.819621 0.713406
Si Si6 0.780267 0.884571 0.852230
Si Si7 0.341793 0.368918 0.634616
Si Si8 0.339549 0.322354 0.953047
O O1 0.500000 0.250000 0.150778
O O2 0.500000 0.177820 0.226981
O O3 0.631595 0.143655 0.148685
O O4 0.250000 0.508004 0.250000
O O5 0.209720 0.454669 0.162794
O O6 0.181222 0.572218 0.169037
O O7 0.000000 0.502117 0.209419
O O8 0.500000 0.250000 0.719282
O O9 0.250000 0.250000 0.750000
O O10 0.322998 0.309501 0.668855
O O11 0.500000 0.676151 0.525248
O O12 0.668998 0.750000 0.565548
O O13 0.660471 0.634212 0.594061
O O14 0.765502 0.667677 0.506146
O O15 0.500000 0.750000 0.697051
O O16 0.630925 0.851390 0.690313
O O17 0.500000 0.369896 0.617765
O O18 0.239360 0.361189 0.588567
O O19 0.500000 0.335086 0.954778
O O20 0.322846 0.250000 0.941673
#
# Coordination Sequence:
#
# PCOD9537743 Si02
#       8
#     8  16   8  16   8  16  16  16
#     4  11  24  36  56  86 117 155 199 259 316 354
#     4  11  24  41  62  88 121 165 210 247 297 369
#     4  10  20  34  58  90 124 156 194 246 303 360
#     4  10  20  36  60  87 117 158 201 246 302 364
#     4  11  20  36  58  82 113 151 201 249 300 360
#     4  12  23  38  58  84 122 160 203 248 301 358
#     4  10  21  39  62  88 121 159 203 248 303 369
#     4  10  21  37  61  93 123 153 195 252 311 365
#
# _framework density 17.956651000000001
#
# number of rings (size 3 to 8) (size 9 to 14) (size 15 to 20)
#    0.000    1.385    2.308    3.692    2.154    3.077 
#    0.000    0.769    0.000    3.692    0.000    0.000 
#    0.000    0.000    0.000    0.000    0.000    0.000 
#
# Total GULP energy -290434.306221 kJ/mol
# GULP energy per Si atom -5585.275120 kJ/mol
# Density = 1.791578 g / cm^3
# Si number density = 17.956651 Si / 1000 Ang^3
#
#
#
# Elastic Constant Matrix: (Units=GPa)
#
#
# Indices 1 2 3 4 5 6 
#
# 1 127.2038 53.4187 55.8692 0.0000 0.0000 0.0000
# 2 53.4187 129.8968 47.8133 0.0000 0.0000 0.0000
# 3 55.8692 47.8133 90.2884 0.0000 0.0000 0.0000
# 4 0.0000 0.0000 0.0000 36.6413 0.0000 0.0000
# 5 0.0000 0.0000 0.0000 0.0000 33.2195 0.0000
# 6 0.0000 0.0000 0.0000 0.0000 0.0000 24.8822
#
#
#
# Elastic Compliance Matrix: (Units=1/GPa)
#
#
# Indices 1 2 3 4 5 6 
#
# 1 0.011468 -0.002613 -0.005712 0.000000 0.000000 0.000000
# 2 -0.002613 0.010158 -0.003762 0.000000 0.000000 0.000000
# 3 -0.005712 -0.003762 0.016602 0.000000 0.000000 0.000000
# 4 0.000000 0.000000 0.000000 0.027292 0.000000 0.000000
# 5 0.000000 0.000000 0.000000 0.000000 0.030103 0.000000
# 6 0.000000 0.000000 0.000000 0.000000 0.000000 0.040189
#
#
# Mechanical properties :
#
#
# Convention : Reuss Voigt Hill
#
# Bulk Modulus (GPa) = 71.15993 73.51017 72.33505
# Shear Modulus (GPa) = 30.36349 31.63445 30.99897
#
# Velocity S-wave (km/s) = 4.11656 4.20183 4.15941
# Velocity P-wave (km/s) = 7.89364 8.03536 7.96481
#
# Compressibility (1/GPa) = 0.01405285
#
# Stress axis : x y z
#
# Youngs Moduli (GPa) = 87.20134 98.44510 60.23209
#
# Poissons Ratio (x) = 0.25728 0.34405
# Poissons Ratio (y) = 0.22790 0.22660
# Poissons Ratio (z) = 0.49810 0.37036
#
# Static dielectric constant tensor:
#      x y z
#    x 1.625480 0.000000 0.000000 
#    y 0.000000 1.606290 0.000000 
#    z 0.000000 0.000000 1.590870 
# 
# From -- ./inp_files/64559.got.cif
#   From: 2010.05.17/outbox.cif.g08.bks.cpg/sg74_33_cif.got.tgz:64559.got - 2010.06.03 17:57:02.
