data_PCOD9537023
_publ_section_title
;
Structure prediction by ZEFSAII (Michael W. Deem and Ramdas Pophale) SiO2 
 PCOD9537023
Probable space group: I M M A
;
_chemical_formula_sum "Si O2"
_cell_formula_units_Z 96
_cell_length_a 8.593658
_cell_length_b 24.113328
_cell_length_c 25.006297
_cell_angle_alpha 90.000000
_cell_angle_beta 90.000000
_cell_angle_gamma 90.000000
_cell_volume 5181.847227
_symmetry_space_group_name_H-M "I M M A"
_symmetry_group_IT_number 74
_symmetry_cell_setting 'orthorhombic'
loop_
_space_group_symop_operation_xyz
x,y,z
-x,1/2-y,z
x,-y,-z
-x,1/2+y,-z
-x,-y,-z
x,1/2+y,-z
-x,y,z
x,1/2-y,z
1/2+x,1/2+y,1/2+z
1/2-x,-y,1/2+z
1/2+x,1/2-y,1/2-z
1/2-x,y,1/2-z
1/2-x,1/2-y,1/2-z
1/2+x,y,1/2-z
1/2-x,1/2+y,1/2+z
1/2+x,-y,1/2+z
loop_
_atom_site_type_symbol
_atom_site_label
_atom_site_fract_x
_atom_site_fract_y
_atom_site_fract_z
Si Si1 0.322483 0.683906 0.193779
Si Si2 0.813817 0.186174 0.395297
Si Si3 0.314761 0.978322 0.191267
Si Si4 0.681367 0.110512 0.609461
Si Si5 0.314519 0.101960 0.307956
Si Si6 0.311573 0.686655 0.485050
O O1 0.500000 0.662786 0.187078
O O2 0.329269 0.750000 0.192739
O O3 0.250000 0.666763 0.250000
O O4 0.208182 0.662288 0.148736
O O5 0.777506 0.250000 0.380266
O O6 0.740818 0.143710 0.353600
O O7 0.748290 0.177766 0.454987
O O8 0.000000 0.179844 0.396075
O O9 0.500000 0.979634 0.194852
O O10 0.250000 0.960753 0.250000
O O11 0.263312 0.938852 0.142300
O O12 0.250759 0.040218 0.181958
O O13 0.500000 0.096429 0.603731
O O14 0.741455 0.136456 0.553613
O O15 0.500000 0.099457 0.305795
O O16 0.250000 0.119697 0.250000
O O17 0.500000 0.686208 0.484215
O O18 0.262804 0.750000 0.468734
#
# Coordination Sequence:
#
# PCOD9537023 Si02
#       6
#    16  16  16  16  16  16
#     4  10  20  32  46  67  97 133 176 229 287 339
#     4  10  21  38  61  89 120 151 183 222 271 328
#     4  11  22  38  58  81 112 148 189 235 284 336
#     4  11  21  34  53  77 106 143 189 234 279 333
#     4  11  22  39  63  89 118 149 183 224 273 330
#     4   9  19  36  57  81 111 149 190 233 282 333
#
# _framework density 18.526212000000001
#
# number of rings (size 3 to 8) (size 9 to 14) (size 15 to 20)
#    0.000    1.667    0.000    6.500    0.000    4.333 
#    0.000    2.500    0.000    5.000    0.000    0.000 
#    0.000    0.000    0.000    0.000    0.000    0.000 
#
# Total GULP energy -267909.124115 kJ/mol
# GULP energy per Si atom -5581.440086 kJ/mol
# Density = 1.848405 g / cm^3
# Si number density = 18.526212 Si / 1000 Ang^3
#
#
#
# Elastic Constant Matrix: (Units=GPa)
#
#
# Indices 1 2 3 4 5 6 
#
# 1 82.1829 46.2549 39.4927 0.0000 0.0000 0.0000
# 2 46.2549 111.0897 83.8345 0.0000 0.0000 0.0000
# 3 39.4927 83.8345 119.1241 0.0000 0.0000 0.0000
# 4 0.0000 0.0000 0.0000 38.5410 0.0000 0.0000
# 5 0.0000 0.0000 0.0000 0.0000 28.3262 0.0000
# 6 0.0000 0.0000 0.0000 0.0000 0.0000 40.8881
#
#
#
# Elastic Compliance Matrix: (Units=1/GPa)
#
#
# Indices 1 2 3 4 5 6 
#
# 1 0.015988 -0.005666 -0.001313 0.000000 0.000000 0.000000
# 2 -0.005666 0.021206 -0.013045 0.000000 0.000000 0.000000
# 3 -0.001313 -0.013045 0.018010 0.000000 0.000000 0.000000
# 4 0.000000 0.000000 0.000000 0.025946 0.000000 0.000000
# 5 0.000000 0.000000 0.000000 0.000000 0.035303 0.000000
# 6 0.000000 0.000000 0.000000 0.000000 0.000000 0.024457
#
#
# Mechanical properties :
#
#
# Convention : Reuss Voigt Hill
#
# Bulk Modulus (GPa) = 65.98165 72.39566 69.18865
# Shear Modulus (GPa) = 26.88019 31.07202 28.97611
#
# Velocity S-wave (km/s) = 3.81324 4.09980 3.95911
# Velocity P-wave (km/s) = 7.42161 7.84687 7.63720
#
# Compressibility (1/GPa) = 0.01515573
#
# Stress axis : x y z
#
# Youngs Moduli (GPa) = 62.54697 47.15727 55.52357
#
# Poissons Ratio (x) = 0.26721 0.07288
# Poissons Ratio (y) = 0.35442 0.72431
# Poissons Ratio (z) = 0.08210 0.61517
#
# Static dielectric constant tensor:
#      x y z
#    x 1.638810 0.000000 0.000000 
#    y 0.000000 1.648770 0.000000 
#    z 0.000000 0.000000 1.606060 
# 
# From -- ./inp_files/57230.got.cif
#   From: 2010.05.17/outbox.cif.g08.bks.cpg/sg74_29_cif.got.tgz:57230.got - 2010.06.03 17:57:02.
