data_PCOD9537741
_publ_section_title
;
Structure prediction by ZEFSAII (Michael W. Deem and Ramdas Pophale) SiO2 
 PCOD9537741
Probable space group: I M M A
;
_chemical_formula_sum "Si O2"
_cell_formula_units_Z 88
_cell_length_a 21.889470
_cell_length_b 9.559541
_cell_length_c 21.900157
_cell_angle_alpha 90.000000
_cell_angle_beta 90.000000
_cell_angle_gamma 90.000000
_cell_volume 4582.679815
_symmetry_space_group_name_H-M "I M M A"
_symmetry_group_IT_number 74
_symmetry_cell_setting 'orthorhombic'
loop_
_space_group_symop_operation_xyz
x,y,z
-x,1/2-y,z
x,-y,-z
-x,1/2+y,-z
-x,-y,-z
x,1/2+y,-z
-x,y,z
x,1/2-y,z
1/2+x,1/2+y,1/2+z
1/2-x,-y,1/2+z
1/2+x,1/2-y,1/2-z
1/2-x,y,1/2-z
1/2-x,1/2-y,1/2-z
1/2+x,y,1/2-z
1/2-x,1/2+y,1/2+z
1/2+x,-y,1/2+z
loop_
_atom_site_type_symbol
_atom_site_label
_atom_site_fract_x
_atom_site_fract_y
_atom_site_fract_z
Si Si1 0.750000 0.490741 0.250000
Si Si2 0.500000 0.919593 0.248985
Si Si3 0.289240 0.899008 0.878272
Si Si4 0.000000 0.919897 0.390299
Si Si5 0.628377 0.085780 0.942205
Si Si6 0.126560 0.085229 0.816349
Si Si7 0.658416 0.413649 0.437626
O O1 0.731904 0.401990 0.191187
O O2 0.811906 0.567931 0.225333
O O3 0.500000 0.750000 0.247035
O O4 0.500000 0.971184 0.179174
O O5 0.436050 0.957744 0.281591
O O6 0.320837 0.750000 0.891377
O O7 0.230768 0.910295 0.922189
O O8 0.329979 0.035144 0.887043
O O9 0.939724 0.960910 0.426064
O O10 0.000000 0.750000 0.387772
O O11 0.631055 0.250000 0.951779
O O12 0.650748 0.000000 0.000000
O O13 0.122108 0.250000 0.831952
O O14 0.131883 0.993460 0.878107
O O15 0.647200 0.500000 0.500000
O O16 0.638824 0.250000 0.442112
#
# Coordination Sequence:
#
# PCOD9537741 Si02
#       7
#     8   8  16   8  16  16  16
#     4  10  20  34  58  86 114 146 188 232 276 330
#     4   9  18  35  57  83 114 146 182 227 280 331
#     4  10  21  36  55  80 111 144 179 226 281 333
#     4   9  19  35  54  77 107 144 185 229 274 323
#     4  11  22  36  55  78 108 146 188 232 277 329
#     4  10  20  35  58  85 114 148 186 228 275 331
#     4  10  21  37  57  81 110 143 181 228 280 333
#
# _framework density 19.202738
#
# number of rings (size 3 to 8) (size 9 to 14) (size 15 to 20)
#    0.000    2.000    0.000    3.545    0.000    8.000 
#    0.000    2.273    0.000    2.182    0.000    0.000 
#    0.000    0.000    0.000    0.000    0.000    0.000 
#
# Total GULP energy -245212.819961 kJ/mol
# GULP energy per Si atom -5573.018635 kJ/mol
# Density = 1.915903 g / cm^3
# Si number density = 19.202738 Si / 1000 Ang^3
#
#
#
# Elastic Constant Matrix: (Units=GPa)
#
#
# Indices 1 2 3 4 5 6 
#
# 1 75.5007 27.6094 32.1828 0.0000 0.0000 0.0000
# 2 27.6094 94.7415 44.8380 0.0000 0.0000 0.0000
# 3 32.1828 44.8380 120.0495 0.0000 0.0000 0.0000
# 4 0.0000 0.0000 0.0000 9.6129 0.0000 0.0000
# 5 0.0000 0.0000 0.0000 0.0000 24.1832 0.0000
# 6 0.0000 0.0000 0.0000 0.0000 0.0000 24.2080
#
#
#
# Elastic Compliance Matrix: (Units=1/GPa)
#
#
# Indices 1 2 3 4 5 6 
#
# 1 0.015685 -0.003135 -0.003034 0.000000 0.000000 0.000000
# 2 -0.003135 0.013448 -0.004182 0.000000 0.000000 0.000000
# 3 -0.003034 -0.004182 0.010705 0.000000 0.000000 0.000000
# 4 0.000000 0.000000 0.000000 0.104027 0.000000 0.000000
# 5 0.000000 0.000000 0.000000 0.000000 0.041351 0.000000
# 6 0.000000 0.000000 0.000000 0.000000 0.000000 0.041309
#
#
# Mechanical properties :
#
#
# Convention : Reuss Voigt Hill
#
# Bulk Modulus (GPa) = 52.25871 55.50579 53.88225
# Shear Modulus (GPa) = 19.71570 23.97826 21.84698
#
# Velocity S-wave (km/s) = 3.20771 3.53751 3.37664
# Velocity P-wave (km/s) = 6.40254 6.75672 6.58201
#
# Compressibility (1/GPa) = 0.01913556
#
# Stress axis : x y z
#
# Youngs Moduli (GPa) = 63.75721 74.36055 93.41175
#
# Poissons Ratio (x) = 0.23312 0.28339
# Poissons Ratio (y) = 0.19988 0.39068
# Poissons Ratio (z) = 0.19343 0.31100
#
# Static dielectric constant tensor:
#      x y z
#    x 1.702460 0.000000 0.000000 
#    y 0.000000 1.674400 0.000000 
#    z 0.000000 0.000000 1.674960 
# 
# From -- ./inp_files/54558.got.cif
#   From: 2010.05.17/outbox.cif.g08.bks.cpg/sg74_28_cif.got.tgz:54558.got - 2010.06.03 17:57:02.
