data_PCOD9537075
_publ_section_title
;
Structure prediction by ZEFSAII (Michael W. Deem and Ramdas Pophale) SiO2 
 PCOD9537075
Probable space group: I M M A
;
_chemical_formula_sum "Si O2"
_cell_formula_units_Z 96
_cell_length_a 13.595011
_cell_length_b 13.501267
_cell_length_c 29.750061
_cell_angle_alpha 90.000000
_cell_angle_beta 90.000000
_cell_angle_gamma 90.000000
_cell_volume 5460.619930
_symmetry_space_group_name_H-M "I M M A"
_symmetry_group_IT_number 74
_symmetry_cell_setting 'orthorhombic'
loop_
_space_group_symop_operation_xyz
x,y,z
-x,1/2-y,z
x,-y,-z
-x,1/2+y,-z
-x,-y,-z
x,1/2+y,-z
-x,y,z
x,1/2-y,z
1/2+x,1/2+y,1/2+z
1/2-x,-y,1/2+z
1/2+x,1/2-y,1/2-z
1/2-x,y,1/2-z
1/2-x,1/2-y,1/2-z
1/2+x,y,1/2-z
1/2-x,1/2+y,1/2+z
1/2+x,-y,1/2+z
loop_
_atom_site_type_symbol
_atom_site_label
_atom_site_fract_x
_atom_site_fract_y
_atom_site_fract_z
Si Si1 0.500000 0.369015 0.751858
Si Si2 0.381393 0.133623 0.131078
Si Si3 0.612681 0.370281 0.931519
Si Si4 0.213083 0.868486 0.136714
Si Si5 0.312806 0.012244 0.790543
Si Si6 0.881275 0.133798 0.468763
Si Si7 0.000000 0.132246 0.856620
O O1 0.500000 0.250000 0.762095
O O2 0.593746 0.425929 0.772735
O O3 0.500000 0.379192 0.697614
O O4 0.500000 0.128976 0.132166
O O5 0.354495 0.250000 0.135655
O O6 0.350009 0.098136 0.080733
O O7 0.341937 0.068028 0.171863
O O8 0.500000 0.404340 0.921473
O O9 0.606776 0.250000 0.932855
O O10 0.696432 0.393735 0.895789
O O11 0.644488 0.404035 0.981416
O O12 0.208071 0.750000 0.138399
O O13 0.241584 0.909812 0.185046
O O14 0.103924 0.907038 0.124745
O O15 0.250000 0.966588 0.750000
O O16 0.854023 0.250000 0.468813
O O17 0.000000 0.128547 0.469020
O O18 0.000000 0.250000 0.865741
#
# Coordination Sequence:
#
# PCOD9537075 Si02
#       7
#     8  16  16  16  16  16   8
#     4  11  22  36  51  71 103 137 170 210 254 307
#     4   9  18  34  54  75 102 133 167 211 261 313
#     4   8  14  25  44  74 107 134 160 197 253 309
#     4  10  20  32  48  73 104 139 174 212 250 301
#     4  12  23  34  51  75 100 134 176 212 259 304
#     4   7  11  24  47  71  98 132 160 192 250 315
#     4   9  18  34  50  65  95 142 184 207 241 291
#
# _framework density 17.580421000000001
#
# number of rings (size 3 to 8) (size 9 to 14) (size 15 to 20)
#    0.000    2.667    2.500    2.500    1.167    1.000 
#    0.000    0.833    0.000    3.000    0.000    3.500 
#    0.000    5.333    0.000    0.000    0.000    0.000 
#
# Total GULP energy -267365.510611 kJ/mol
# GULP energy per Si atom -5570.114804 kJ/mol
# Density = 1.754041 g / cm^3
# Si number density = 17.580421 Si / 1000 Ang^3
#
#
#
# Elastic Constant Matrix: (Units=GPa)
#
#
# Indices 1 2 3 4 5 6 
#
# 1 97.3487 18.1833 44.7015 0.0000 0.0000 0.0000
# 2 18.1833 44.3974 17.5201 0.0000 0.0000 0.0000
# 3 44.7015 17.5201 112.5261 0.0000 0.0000 0.0000
# 4 0.0000 0.0000 0.0000 21.4922 0.0000 0.0000
# 5 0.0000 0.0000 0.0000 0.0000 24.6393 0.0000
# 6 0.0000 0.0000 0.0000 0.0000 0.0000 7.5546
#
#
#
# Elastic Compliance Matrix: (Units=1/GPa)
#
#
# Indices 1 2 3 4 5 6 
#
# 1 0.013060 -0.003518 -0.004641 0.000000 0.000000 0.000000
# 2 -0.003518 0.024946 -0.002487 0.000000 0.000000 0.000000
# 3 -0.004641 -0.002487 0.011117 0.000000 0.000000 0.000000
# 4 0.000000 0.000000 0.000000 0.046529 0.000000 0.000000
# 5 0.000000 0.000000 0.000000 0.000000 0.040586 0.000000
# 6 0.000000 0.000000 0.000000 0.000000 0.000000 0.132369
#
#
# Mechanical properties :
#
#
# Convention : Reuss Voigt Hill
#
# Bulk Modulus (GPa) = 35.92743 46.12021 41.02382
# Shear Modulus (GPa) = 16.71266 22.32838 19.52052
#
# Velocity S-wave (km/s) = 3.08659 3.56767 3.33581
# Velocity P-wave (km/s) = 5.76048 6.57737 6.18243
#
# Compressibility (1/GPa) = 0.02783389
#
# Stress axis : x y z
#
# Youngs Moduli (GPa) = 76.56796 40.08689 89.94857
#
# Poissons Ratio (x) = 0.14101 0.41741
# Poissons Ratio (y) = 0.26934 0.22367
# Poissons Ratio (z) = 0.35532 0.09968
#
# Static dielectric constant tensor:
#      x y z
#    x 1.593790 0.000000 0.000000 
#    y 0.000000 1.646430 0.000000 
#    z 0.000000 0.000000 1.648610 
# 
# From -- ./inp_files/71837.got.cif
#   From: 2010.05.17/outbox.cif.g08.bks.cpg/sg74_36_cif.got.tgz:71837.got - 2010.06.03 17:57:02.
