data_PCOD9537643
_publ_section_title
;
Structure prediction by ZEFSAII (Michael W. Deem and Ramdas Pophale) SiO2 
 PCOD9537643
Probable space group: I M M A
;
_chemical_formula_sum "Si O2"
_cell_formula_units_Z 72
_cell_length_a 9.062557
_cell_length_b 16.246986
_cell_length_c 27.936073
_cell_angle_alpha 90.000000
_cell_angle_beta 90.000000
_cell_angle_gamma 90.000000
_cell_volume 4113.286065
_symmetry_space_group_name_H-M "I M M A"
_symmetry_group_IT_number 74
_symmetry_cell_setting 'orthorhombic'
loop_
_space_group_symop_operation_xyz
x,y,z
-x,1/2-y,z
x,-y,-z
-x,1/2+y,-z
-x,-y,-z
x,1/2+y,-z
-x,y,z
x,1/2-y,z
1/2+x,1/2+y,1/2+z
1/2-x,-y,1/2+z
1/2+x,1/2-y,1/2-z
1/2-x,y,1/2-z
1/2-x,1/2-y,1/2-z
1/2+x,y,1/2-z
1/2-x,1/2+y,1/2+z
1/2+x,-y,1/2+z
loop_
_atom_site_type_symbol
_atom_site_label
_atom_site_fract_x
_atom_site_fract_y
_atom_site_fract_z
Si Si1 0.326725 0.423982 0.199010
Si Si2 0.323260 0.509298 0.944056
Si Si3 0.173467 0.402078 0.644301
Si Si4 0.176618 0.750000 0.197059
Si Si5 0.675765 0.156940 0.388741
O O1 0.500000 0.405857 0.202610
O O2 0.250000 0.421643 0.250000
O O3 0.311788 0.515340 0.176222
O O4 0.248644 0.362302 0.162376
O O5 0.500000 0.520326 0.937956
O O6 0.284306 0.432314 0.909331
O O7 0.241970 0.589284 0.924121
O O8 0.291660 0.500000 0.000000
O O9 0.268215 0.329800 0.667583
O O10 0.000000 0.378168 0.644229
O O11 0.250000 0.750000 0.250000
O O12 0.000000 0.750000 0.201971
O O13 0.500000 0.147403 0.385285
O O14 0.709390 0.250000 0.403856
#
# Coordination Sequence:
#
# PCOD9537643 Si02
#       5
#    16  16  16   8  16
#     4  10  20  34  55  80 107 143 183 223 269 322
#     4   9  19  38  62  84 106 139 183 227 276 328
#     4   9  19  36  56  79 109 141 180 227 272 325
#     4  12  24  36  54  80 112 150 188 228 277 332
#     4  10  21  36  54  79 111 144 178 219 267 319
#
# _framework density 17.504252999999999
#
# number of rings (size 3 to 8) (size 9 to 14) (size 15 to 20)
#    0.000    2.222    0.000    4.333    0.000    8.889 
#    2.000    0.000    0.000    0.000    0.000    0.000 
#    0.000    0.000    0.000    0.000    0.000    0.000 
#
# Total GULP energy -200911.802884 kJ/mol
# GULP energy per Si atom -5580.883413 kJ/mol
# Density = 1.746441 g / cm^3
# Si number density = 17.504253 Si / 1000 Ang^3
#
#
#
# Elastic Constant Matrix: (Units=GPa)
#
#
# Indices 1 2 3 4 5 6 
#
# 1 80.6909 65.9627 76.1097 0.0000 0.0000 0.0000
# 2 65.9627 97.1881 59.7610 0.0000 0.0000 0.0000
# 3 76.1097 59.7610 146.9488 0.0000 0.0000 0.0000
# 4 0.0000 0.0000 0.0000 11.4924 0.0000 0.0000
# 5 0.0000 0.0000 0.0000 0.0000 29.0364 0.0000
# 6 0.0000 0.0000 0.0000 0.0000 0.0000 30.9752
#
#
#
# Elastic Compliance Matrix: (Units=1/GPa)
#
#
# Indices 1 2 3 4 5 6 
#
# 1 0.040894 -0.019643 -0.013192 0.000000 0.000000 0.000000
# 2 -0.019643 0.023156 0.000757 0.000000 0.000000 0.000000
# 3 -0.013192 0.000757 0.013330 0.000000 0.000000 0.000000
# 4 0.000000 0.000000 0.000000 0.087014 0.000000 0.000000
# 5 0.000000 0.000000 0.000000 0.000000 0.034439 0.000000
# 6 0.000000 0.000000 0.000000 0.000000 0.000000 0.032284
#
#
# Mechanical properties :
#
#
# Convention : Reuss Voigt Hill
#
# Bulk Modulus (GPa) = 75.62531 80.94385 78.28458
# Shear Modulus (GPa) = 16.68442 22.50043 19.59243
#
# Velocity S-wave (km/s) = 3.09068 3.58917 3.34922
# Velocity P-wave (km/s) = 7.48560 7.96988 7.73153
#
# Compressibility (1/GPa) = 0.01322309
#
# Stress axis : x y z
#
# Youngs Moduli (GPa) = 24.45369 43.18499 75.02076
#
# Poissons Ratio (x) = 0.84830 0.98964
# Poissons Ratio (y) = 0.48036 -0.05678
# Poissons Ratio (z) = 0.32258 -0.03269
#
# Static dielectric constant tensor:
#      x y z
#    x 1.581860 0.000000 0.000000 
#    y 0.000000 1.580520 0.000000 
#    z 0.000000 0.000000 1.590450 
# 
# From -- ./inp_files/63606.got.cif
#   From: 2010.05.17/outbox.cif.g08.bks.cpg/sg74_32_cif.got.tgz:63606.got - 2010.06.03 17:57:02.
