data_PCOD9537619
_publ_section_title
;
Structure prediction by ZEFSAII (Michael W. Deem and Ramdas Pophale) SiO2 
 PCOD9537619
Probable space group: I M M A
;
_chemical_formula_sum "Si O2"
_cell_formula_units_Z 104
_cell_length_a 9.275899
_cell_length_b 19.945369
_cell_length_c 29.841962
_cell_angle_alpha 90.000000
_cell_angle_beta 90.000000
_cell_angle_gamma 90.000000
_cell_volume 5521.098046
_symmetry_space_group_name_H-M "I M M A"
_symmetry_group_IT_number 74
_symmetry_cell_setting 'orthorhombic'
loop_
_space_group_symop_operation_xyz
x,y,z
-x,1/2-y,z
x,-y,-z
-x,1/2+y,-z
-x,-y,-z
x,1/2+y,-z
-x,y,z
x,1/2-y,z
1/2+x,1/2+y,1/2+z
1/2-x,-y,1/2+z
1/2+x,1/2-y,1/2-z
1/2-x,y,1/2-z
1/2-x,1/2-y,1/2-z
1/2+x,y,1/2-z
1/2-x,1/2+y,1/2+z
1/2+x,-y,1/2+z
loop_
_atom_site_type_symbol
_atom_site_label
_atom_site_fract_x
_atom_site_fract_y
_atom_site_fract_z
Si Si1 0.672664 0.879965 0.640465
Si Si2 0.829681 0.081365 0.445634
Si Si3 0.167197 0.858950 0.295211
Si Si4 0.668369 0.020517 0.204169
Si Si5 0.332755 0.674731 0.383924
Si Si6 0.829774 0.077673 0.550035
Si Si7 0.172577 0.250000 0.201620
O O1 0.500000 0.887685 0.639555
O O2 0.735824 0.878375 0.590240
O O3 0.707176 0.815317 0.671342
O O4 0.750004 0.942841 0.664129
O O5 0.802373 0.095610 0.498025
O O6 0.000000 0.092313 0.436872
O O7 0.802875 0.001262 0.441884
O O8 0.250000 0.840441 0.250000
O O9 0.174858 0.940092 0.300015
O O10 0.245044 0.828966 0.337982
O O11 0.000000 0.840046 0.292822
O O12 0.500000 0.040026 0.205740
O O13 0.750000 0.039374 0.250000
O O14 0.500000 0.659999 0.374887
O O15 0.321663 0.750000 0.402504
O O16 0.265898 0.621927 0.417802
O O17 0.000000 0.088887 0.558836
O O18 0.250000 0.250000 0.250000
O O19 0.000000 0.250000 0.209330
#
# Coordination Sequence:
#
# PCOD9537619 Si02
#       7
#    16  16  16  16  16  16   8
#     4  11  22  36  55  81 112 149 188 231 284 339
#     4   9  19  37  61  88 114 141 180 232 286 335
#     4  10  21  37  58  83 112 146 184 230 279 328
#     4  10  20  34  54  82 112 141 180 230 281 332
#     4  11  24  39  55  80 114 151 189 227 271 325
#     4   9  19  38  62  86 114 146 183 231 282 335
#     4  10  24  42  56  76 110 152 196 238 283 338
#
# _framework density 18.836832999999999
#
# number of rings (size 3 to 8) (size 9 to 14) (size 15 to 20)
#    0.000    2.000    0.000    4.154    0.000   10.769 
#    1.385    1.538    0.000    0.000    0.000    0.000 
#    0.000    0.000    0.000    0.000    0.000    0.000 
#
# Total GULP energy -290517.324376 kJ/mol
# GULP energy per Si atom -5586.871623 kJ/mol
# Density = 1.879396 g / cm^3
# Si number density = 18.836833 Si / 1000 Ang^3
#
#
#
# Elastic Constant Matrix: (Units=GPa)
#
#
# Indices 1 2 3 4 5 6 
#
# 1 115.3408 51.7477 75.5728 0.0000 0.0000 0.0000
# 2 51.7477 39.7506 44.0906 0.0000 0.0000 0.0000
# 3 75.5728 44.0906 102.4748 0.0000 0.0000 0.0000
# 4 0.0000 0.0000 0.0000 7.5859 0.0000 0.0000
# 5 0.0000 0.0000 0.0000 0.0000 40.4794 0.0000
# 6 0.0000 0.0000 0.0000 0.0000 0.0000 6.0063
#
#
#
# Elastic Compliance Matrix: (Units=1/GPa)
#
#
# Indices 1 2 3 4 5 6 
#
# 1 0.023919 -0.022136 -0.008115 0.000000 0.000000 0.000000
# 2 -0.022136 0.068610 -0.013195 0.000000 0.000000 0.000000
# 3 -0.008115 -0.013195 0.021420 0.000000 0.000000 0.000000
# 4 0.000000 0.000000 0.000000 0.131823 0.000000 0.000000
# 5 0.000000 0.000000 0.000000 0.000000 0.024704 0.000000
# 6 0.000000 0.000000 0.000000 0.000000 0.000000 0.166492
#
#
# Mechanical properties :
#
#
# Convention : Reuss Voigt Hill
#
# Bulk Modulus (GPa) = 36.96016 66.70983 51.83499
# Shear Modulus (GPa) = 9.38299 16.55799 12.97049
#
# Velocity S-wave (km/s) = 2.23428 2.96805 2.62691
# Velocity P-wave (km/s) = 5.13028 6.87293 6.06453
#
# Compressibility (1/GPa) = 0.02705616
#
# Stress axis : x y z
#
# Youngs Moduli (GPa) = 41.80864 14.57516 46.68466
#
# Poissons Ratio (x) = 0.32264 0.37884
# Poissons Ratio (y) = 0.92549 0.61600
# Poissons Ratio (z) = 0.33928 0.19232
#
# Static dielectric constant tensor:
#      x y z
#    x 1.622890 0.000000 0.000000 
#    y 0.000000 1.651990 0.000000 
#    z 0.000000 0.000000 1.643920 
# 
# From -- ./inp_files/64506.got.cif
#   From: 2010.05.17/outbox.cif.g08.bks.cpg/sg74_33_cif.got.tgz:64506.got - 2010.06.03 17:57:02.
