data_PCOD9537972
_publ_section_title
;
Structure prediction by ZEFSAII (Michael W. Deem and Ramdas Pophale) SiO2 
 PCOD9537972
Probable space group: I M M A
;
_chemical_formula_sum "Si O2"
_cell_formula_units_Z 88
_cell_length_a 8.869219
_cell_length_b 24.684411
_cell_length_c 20.876177
_cell_angle_alpha 90.000000
_cell_angle_beta 90.000000
_cell_angle_gamma 90.000000
_cell_volume 4570.451639
_symmetry_space_group_name_H-M "I M M A"
_symmetry_group_IT_number 74
_symmetry_cell_setting 'orthorhombic'
loop_
_space_group_symop_operation_xyz
x,y,z
-x,1/2-y,z
x,-y,-z
-x,1/2+y,-z
-x,-y,-z
x,1/2+y,-z
-x,y,z
x,1/2-y,z
1/2+x,1/2+y,1/2+z
1/2-x,-y,1/2+z
1/2+x,1/2-y,1/2-z
1/2-x,y,1/2-z
1/2-x,1/2-y,1/2-z
1/2+x,y,1/2-z
1/2-x,1/2+y,1/2+z
1/2+x,-y,1/2+z
loop_
_atom_site_type_symbol
_atom_site_label
_atom_site_fract_x
_atom_site_fract_y
_atom_site_fract_z
Si Si1 0.681414 0.337748 0.577633
Si Si2 0.816658 0.250000 0.676515
Si Si3 0.328210 0.146772 0.315366
Si Si4 0.670465 0.812947 0.942874
Si Si5 0.329146 0.983335 0.687558
Si Si6 0.684179 0.964486 0.439308
O O1 0.500000 0.333023 0.584712
O O2 0.758671 0.302032 0.634101
O O3 0.733825 0.317118 0.507831
O O4 0.723072 0.401615 0.572190
O O5 0.750000 0.250000 0.750000
O O6 0.000000 0.250000 0.678999
O O7 0.500000 0.166659 0.318623
O O8 0.250000 0.167110 0.250000
O O9 0.243898 0.159474 0.381188
O O10 0.331072 0.081555 0.310689
O O11 0.500000 0.833391 0.954411
O O12 0.661653 0.750000 0.926279
O O13 0.500000 0.002827 0.688315
O O14 0.250000 0.004853 0.750000
O O15 0.259001 0.003369 0.622307
O O16 0.500000 0.965290 0.442947
O O17 0.736149 0.000000 0.500000
#
# Coordination Sequence:
#
# PCOD9537972 Si02
#       6
#    16   8  16  16  16  16
#     4  11  22  39  65  93 122 159 203 251 309 374
#     4  12  26  46  68  92 125 164 211 268 324 380
#     4  10  20  35  57  83 114 154 197 242 290 347
#     4  11  23  38  57  81 114 154 194 243 295 347
#     4   9  18  34  55  80 112 148 186 231 287 347
#     4   9  18  34  58  89 122 155 196 246 300 363
#
# _framework density 19.254114000000001
#
# number of rings (size 3 to 8) (size 9 to 14) (size 15 to 20)
#    0.000    1.818    0.909    3.545    0.000    5.818 
#    0.000    3.636    0.000    3.818    0.000    0.000 
#    0.000    0.000    0.000    0.000    0.000    0.000 
#
# Total GULP energy -245207.031041 kJ/mol
# GULP energy per Si atom -5572.887069 kJ/mol
# Density = 1.921029 g / cm^3
# Si number density = 19.254114 Si / 1000 Ang^3
#
#
#
# Elastic Constant Matrix: (Units=GPa)
#
#
# Indices 1 2 3 4 5 6 
#
# 1 91.4323 33.1603 56.8669 0.0000 0.0000 0.0000
# 2 33.1603 53.1627 58.2212 0.0000 0.0000 0.0000
# 3 56.8669 58.2212 186.1558 0.0000 0.0000 0.0000
# 4 0.0000 0.0000 0.0000 34.2480 0.0000 0.0000
# 5 0.0000 0.0000 0.0000 0.0000 33.0509 0.0000
# 6 0.0000 0.0000 0.0000 0.0000 0.0000 10.0679
#
#
#
# Elastic Compliance Matrix: (Units=1/GPa)
#
#
# Indices 1 2 3 4 5 6 
#
# 1 0.014859 -0.006536 -0.002495 0.000000 0.000000 0.000000
# 2 -0.006536 0.031484 -0.007850 0.000000 0.000000 0.000000
# 3 -0.002495 -0.007850 0.008589 0.000000 0.000000 0.000000
# 4 0.000000 0.000000 0.000000 0.029199 0.000000 0.000000
# 5 0.000000 0.000000 0.000000 0.000000 0.030256 0.000000
# 6 0.000000 0.000000 0.000000 0.000000 0.000000 0.099326
#
#
# Mechanical properties :
#
#
# Convention : Reuss Voigt Hill
#
# Bulk Modulus (GPa) = 47.23638 69.69417 58.46528
# Shear Modulus (GPa) = 19.64382 27.64019 23.64200
#
# Velocity S-wave (km/s) = 3.19758 3.79297 3.50793
# Velocity P-wave (km/s) = 6.18216 7.44700 6.84386
#
# Compressibility (1/GPa) = 0.02117012
#
# Stress axis : x y z
#
# Youngs Moduli (GPa) = 67.29785 31.76196 116.42489
#
# Poissons Ratio (x) = 0.20760 0.29048
# Poissons Ratio (y) = 0.43986 0.91396
# Poissons Ratio (z) = 0.16791 0.24934
#
# Static dielectric constant tensor:
#      x y z
#    x 1.699920 0.000000 0.000000 
#    y 0.000000 1.728500 0.000000 
#    z 0.000000 0.000000 1.670500 
# 
# From -- ./inp_files/48692.got.cif
#   From: 2010.05.17/outbox.cif.g08.bks.cpg/sg74_25_cif.got.tgz:48692.got - 2010.06.03 17:57:02.
