data_PCOD9537041
_publ_section_title
;
Structure prediction by ZEFSAII (Michael W. Deem and Ramdas Pophale) SiO2 
 PCOD9537041
Probable space group: I M M A
;
_chemical_formula_sum "Si O2"
_cell_formula_units_Z 80
_cell_length_a 18.825226
_cell_length_b 9.102166
_cell_length_c 27.324331
_cell_angle_alpha 90.000000
_cell_angle_beta 90.000000
_cell_angle_gamma 90.000000
_cell_volume 4682.033190
_symmetry_space_group_name_H-M "I M M A"
_symmetry_group_IT_number 74
_symmetry_cell_setting 'orthorhombic'
loop_
_space_group_symop_operation_xyz
x,y,z
-x,1/2-y,z
x,-y,-z
-x,1/2+y,-z
-x,-y,-z
x,1/2+y,-z
-x,y,z
x,1/2-y,z
1/2+x,1/2+y,1/2+z
1/2-x,-y,1/2+z
1/2+x,1/2-y,1/2-z
1/2-x,y,1/2-z
1/2-x,1/2-y,1/2-z
1/2+x,y,1/2-z
1/2-x,1/2+y,1/2+z
1/2+x,-y,1/2+z
loop_
_atom_site_type_symbol
_atom_site_label
_atom_site_fract_x
_atom_site_fract_y
_atom_site_fract_z
Si Si1 0.709914 0.577701 0.599745
Si Si2 0.790884 0.574849 0.700835
Si Si3 0.580192 0.924433 0.447318
Si Si4 0.417905 0.924565 0.148743
Si Si5 0.640488 0.925801 0.948605
O O1 0.692381 0.750000 0.594892
O O2 0.740120 0.551841 0.653984
O O3 0.641685 0.483079 0.587368
O O4 0.776113 0.546757 0.563524
O O5 0.805952 0.750000 0.703484
O O6 0.750000 0.530698 0.750000
O O7 0.863103 0.489789 0.688246
O O8 0.500000 0.959484 0.430128
O O9 0.585705 0.750000 0.453133
O O10 0.589673 0.000000 0.500000
O O11 0.500000 0.949377 0.161953
O O12 0.406293 0.750000 0.143114
O O13 0.401154 0.004236 0.097133
O O14 0.629737 0.750000 0.949865
O O15 0.621443 0.000000 0.000000
#
# Coordination Sequence:
#
# PCOD9537041 Si02
#       5
#    16  16  16  16  16
#     4   9  18  32  51  74  98 127 165 208 251 298
#     4   9  19  37  59  80 101 129 169 213 257 305
#     4  10  20  32  47  69  98 133 169 204 246 296
#     4  10  21  36  54  78 107 138 172 209 252 303
#     4  10  20  33  51  76 105 138 175 212 252 301
#
# _framework density 17.086594000000002
#
# number of rings (size 3 to 8) (size 9 to 14) (size 15 to 20)
#    0.000    2.400    0.000    3.600    0.000    9.200 
#    0.000    1.000    0.000    6.000    0.000    0.000 
#    0.000    0.000    0.000    0.000    0.000    0.000 
#
# Total GULP energy -223186.416435 kJ/mol
# GULP energy per Si atom -5579.660411 kJ/mol
# Density = 1.704770 g / cm^3
# Si number density = 17.086594 Si / 1000 Ang^3
#
#
#
# Elastic Constant Matrix: (Units=GPa)
#
#
# Indices 1 2 3 4 5 6 
#
# 1 118.9296 76.8329 48.9713 0.0000 0.0000 0.0000
# 2 76.8329 74.1288 43.6937 0.0000 0.0000 0.0000
# 3 48.9713 43.6937 85.9127 0.0000 0.0000 0.0000
# 4 0.0000 0.0000 0.0000 25.9139 0.0000 0.0000
# 5 0.0000 0.0000 0.0000 0.0000 8.0643 0.0000
# 6 0.0000 0.0000 0.0000 0.0000 0.0000 31.5721
#
#
#
# Elastic Compliance Matrix: (Units=1/GPa)
#
#
# Indices 1 2 3 4 5 6 
#
# 1 0.025596 -0.025606 -0.001567 0.000000 0.000000 0.000000
# 2 -0.025606 0.044881 -0.008230 0.000000 0.000000 0.000000
# 3 -0.001567 -0.008230 0.016719 0.000000 0.000000 0.000000
# 4 0.000000 0.000000 0.000000 0.038589 0.000000 0.000000
# 5 0.000000 0.000000 0.000000 0.000000 0.124004 0.000000
# 6 0.000000 0.000000 0.000000 0.000000 0.000000 0.031674
#
#
# Mechanical properties :
#
#
# Convention : Reuss Voigt Hill
#
# Bulk Modulus (GPa) = 61.01546 68.66300 64.83923
# Shear Modulus (GPa) = 13.97693 20.40826 17.19259
#
# Velocity S-wave (km/s) = 2.86318 3.45976 3.17551
# Velocity P-wave (km/s) = 6.83502 7.49883 7.17461
#
# Compressibility (1/GPa) = 0.01638929
#
# Stress axis : x y z
#
# Youngs Moduli (GPa) = 39.06844 22.28113 59.81306
#
# Poissons Ratio (x) = 0.57053 0.09375
# Poissons Ratio (y) = 1.00038 0.49226
# Poissons Ratio (z) = 0.06123 0.18337
#
# Static dielectric constant tensor:
#      x y z
#    x 1.576930 0.000000 0.000000 
#    y 0.000000 1.571210 0.000000 
#    z 0.000000 0.000000 1.556920 
# 
# From -- ./inp_files/63908.got.cif
#   From: 2010.05.17/outbox.cif.g08.bks.cpg/sg74_32_cif.got.tgz:63908.got - 2010.06.03 17:57:02.
