data_PCOD9537544
_publ_section_title
;
Structure prediction by ZEFSAII (Michael W. Deem and Ramdas Pophale) SiO2 
 PCOD9537544
Probable space group: I M M A
;
_chemical_formula_sum "Si O2"
_cell_formula_units_Z 80
_cell_length_a 8.296251
_cell_length_b 26.298895
_cell_length_c 18.968223
_cell_angle_alpha 90.000000
_cell_angle_beta 90.000000
_cell_angle_gamma 90.000000
_cell_volume 4138.529268
_symmetry_space_group_name_H-M "I M M A"
_symmetry_group_IT_number 74
_symmetry_cell_setting 'orthorhombic'
loop_
_space_group_symop_operation_xyz
x,y,z
-x,1/2-y,z
x,-y,-z
-x,1/2+y,-z
-x,-y,-z
x,1/2+y,-z
-x,y,z
x,1/2-y,z
1/2+x,1/2+y,1/2+z
1/2-x,-y,1/2+z
1/2+x,1/2-y,1/2-z
1/2-x,y,1/2-z
1/2-x,1/2-y,1/2-z
1/2+x,y,1/2-z
1/2-x,1/2+y,1/2+z
1/2+x,-y,1/2+z
loop_
_atom_site_type_symbol
_atom_site_label
_atom_site_fract_x
_atom_site_fract_y
_atom_site_fract_z
Si Si1 0.692890 0.807869 0.420340
Si Si2 0.194873 0.097735 0.330220
Si Si3 0.194544 0.692417 0.578245
Si Si4 0.302940 0.499186 0.918782
Si Si5 0.192638 0.098470 0.670071
O O1 0.500000 0.808046 0.421748
O O2 0.747780 0.750000 0.404701
O O3 0.755511 0.820986 0.498578
O O4 0.751581 0.848909 0.364508
O O5 0.250000 0.093754 0.250000
O O6 0.251847 0.149779 0.367324
O O7 0.000000 0.098000 0.331236
O O8 0.248389 0.049309 0.376260
O O9 0.252322 0.750000 0.593049
O O10 0.000000 0.693038 0.580609
O O11 0.500000 0.498976 0.919320
O O12 0.248995 0.448687 0.877769
O O13 0.250090 0.500000 0.000000
O O14 0.250000 0.093172 0.750000
O O15 0.000000 0.097365 0.669445
#
# Coordination Sequence:
#
# PCOD9537544 Si02
#       5
#    16  16  16  16  16
#     4  10  21  37  57  81 108 138 175 220 268 318
#     4  10  20  34  53  78 110 144 178 219 266 316
#     4   9  18  34  56  80 106 141 184 223 261 310
#     4   9  18  34  56  79 103 137 180 221 264 315
#     4  11  22  36  56  80 109 143 178 219 265 315
#
# _framework density 19.330539999999999
#
# number of rings (size 3 to 8) (size 9 to 14) (size 15 to 20)
#    0.000    2.200    0.000    3.000    0.000    6.000 
#    0.000    1.000    0.000    4.200    0.000    0.000 
#    0.000    0.000    0.000    0.000    0.000    0.000 
#
# Total GULP energy -223396.292460 kJ/mol
# GULP energy per Si atom -5584.907311 kJ/mol
# Density = 1.928654 g / cm^3
# Si number density = 19.330540 Si / 1000 Ang^3
#
#
#
# Elastic Constant Matrix: (Units=GPa)
#
#
# Indices 1 2 3 4 5 6 
#
# 1 9.6341 14.6454 11.7948 0.0000 0.0000 0.0000
# 2 14.6454 135.6786 121.2975 0.0000 0.0000 0.0000
# 3 11.7948 121.2975 195.5704 0.0001 0.0000 0.0000
# 4 0.0000 0.0000 0.0001 9.7985 0.0000 0.0000
# 5 0.0000 0.0000 0.0000 0.0000 34.1170 0.0000
# 6 0.0000 0.0000 0.0000 0.0000 0.0000 11.0124
#
#
#
# Elastic Compliance Matrix: (Units=1/GPa)
#
#
# Indices 1 2 3 4 5 6 
#
# 1 0.124472 -0.015094 0.001855 0.000000 0.000000 0.000000
# 2 -0.015094 0.018374 -0.010486 0.000000 0.000000 0.000000
# 3 0.001855 -0.010486 0.011505 0.000000 0.000000 0.000000
# 4 0.000000 0.000000 0.000000 0.102057 0.000000 0.000000
# 5 0.000000 0.000000 0.000000 0.000000 0.029311 0.000000
# 6 0.000000 0.000000 0.000000 0.000000 0.000000 0.090807
#
#
# Mechanical properties :
#
#
# Convention : Reuss Voigt Hill
#
# Bulk Modulus (GPa) = 9.35442 70.70651 40.03047
# Shear Modulus (GPa) = 10.87883 23.86194 17.37039
#
# Velocity S-wave (km/s) = 2.37487 3.51724 3.00091
# Velocity P-wave (km/s) = 3.51706 7.29052 5.72369
#
# Compressibility (1/GPa) = 0.10690128
#
# Stress axis : x y z
#
# Youngs Moduli (GPa) = 8.03392 54.42542 86.92040
#
# Poissons Ratio (x) = 0.82149 -0.16121
# Poissons Ratio (y) = 0.12126 0.91141
# Poissons Ratio (z) = -0.01490 0.57068
#
# Static dielectric constant tensor:
#      x y z
#    x 1.678270 0.000000 0.000000 
#    y 0.000000 1.684480 0.000000 
#    z 0.000000 0.000000 1.599640 
# 
# From -- ./inp_files/39758.got.cif
#   From: 2010.05.17/outbox.cif.g08.bks.cpg/sg74_20_cif.got.tgz:39758.got - 2010.06.03 17:57:02.
