data_PCOD9537767
_publ_section_title
;
Structure prediction by ZEFSAII (Michael W. Deem and Ramdas Pophale) SiO2 
 PCOD9537767
Probable space group: I M M A
;
_chemical_formula_sum "Si O2"
_cell_formula_units_Z 88
_cell_length_a 8.317269
_cell_length_b 20.687530
_cell_length_c 31.119279
_cell_angle_alpha 90.000000
_cell_angle_beta 90.000000
_cell_angle_gamma 90.000000
_cell_volume 5354.499903
_symmetry_space_group_name_H-M "I M M A"
_symmetry_group_IT_number 74
_symmetry_cell_setting 'orthorhombic'
loop_
_space_group_symop_operation_xyz
x,y,z
-x,1/2-y,z
x,-y,-z
-x,1/2+y,-z
-x,-y,-z
x,1/2+y,-z
-x,y,z
x,1/2-y,z
1/2+x,1/2+y,1/2+z
1/2-x,-y,1/2+z
1/2+x,1/2-y,1/2-z
1/2-x,y,1/2-z
1/2-x,1/2-y,1/2-z
1/2+x,y,1/2-z
1/2-x,1/2+y,1/2+z
1/2+x,-y,1/2+z
loop_
_atom_site_type_symbol
_atom_site_label
_atom_site_fract_x
_atom_site_fract_y
_atom_site_fract_z
Si Si1 0.694529 0.819275 0.920275
Si Si2 0.307709 0.892860 0.701131
Si Si3 0.694340 0.250000 0.299654
Si Si4 0.809065 0.538192 0.042888
Si Si5 0.307097 0.320960 0.977693
Si Si6 0.307893 0.451637 0.119584
O O1 0.500000 0.819005 0.915084
O O2 0.756940 0.750000 0.903797
O O3 0.759400 0.884405 0.900041
O O4 0.725326 0.821992 0.971185
O O5 0.500000 0.891458 0.700973
O O6 0.250000 0.901721 0.750000
O O7 0.247706 0.821091 0.685324
O O8 0.248606 0.948035 0.668710
O O9 0.500000 0.250000 0.302432
O O10 0.750000 0.250000 0.250000
O O11 0.765669 0.613689 0.040805
O O12 0.745472 0.506698 0.086746
O O13 0.000000 0.530921 0.042466
O O14 0.745501 0.500000 0.000000
O O15 0.500000 0.323711 0.972392
O O16 0.252184 0.250000 0.961570
O O17 0.500000 0.450104 0.119157
#
# Coordination Sequence:
#
# PCOD9537767 Si02
#       6
#    16  16   8  16  16  16
#     4   8  15  27  43  66  93 123 163 206 246 290
#     4  10  20  35  50  68  95 125 164 208 254 300
#     4   8  16  30  48  66  90 124 160 204 252 296
#     4  11  22  34  48  70 103 135 166 205 249 296
#     4   9  17  32  53  72  94 127 168 209 247 292
#     4  11  21  32  51  72  94 129 169 209 254 298
#
# _framework density 16.434775999999999
#
# number of rings (size 3 to 8) (size 9 to 14) (size 15 to 20)
#    0.000    2.364    1.818    2.727    1.273    1.818 
#    0.000    0.000    0.000    0.000    0.000    0.000 
#    0.000    0.727    0.000    2.727    0.000    4.182 
#
# Total GULP energy -245209.752643 kJ/mol
# GULP energy per Si atom -5572.948924 kJ/mol
# Density = 1.639737 g / cm^3
# Si number density = 16.434776 Si / 1000 Ang^3
#
#
#
# Elastic Constant Matrix: (Units=GPa)
#
#
# Indices 1 2 3 4 5 6 
#
# 1 31.6274 20.5143 23.6610 0.0000 0.0000 0.0000
# 2 20.5143 95.9375 55.6045 0.0000 0.0000 0.0000
# 3 23.6610 55.6045 84.8145 0.0000 0.0000 0.0000
# 4 0.0000 0.0000 0.0000 23.4437 0.0000 0.0000
# 5 0.0000 0.0000 0.0000 0.0000 16.9155 0.0000
# 6 0.0000 0.0000 0.0000 0.0000 0.0000 18.5402
#
#
#
# Elastic Compliance Matrix: (Units=1/GPa)
#
#
# Indices 1 2 3 4 5 6 
#
# 1 0.040641 -0.003418 -0.009097 0.000000 0.000000 0.000000
# 2 -0.003418 0.017099 -0.010257 0.000000 0.000000 0.000000
# 3 -0.009097 -0.010257 0.021053 0.000000 0.000000 0.000000
# 4 0.000000 0.000000 0.000000 0.042655 0.000000 0.000000
# 5 0.000000 0.000000 0.000000 0.000000 0.059117 0.000000
# 6 0.000000 0.000000 0.000000 0.000000 0.000000 0.053937
#
#
# Mechanical properties :
#
#
# Convention : Reuss Voigt Hill
#
# Bulk Modulus (GPa) = 30.07571 45.77100 37.92335
# Shear Modulus (GPa) = 17.17463 19.28653 18.23058
#
# Velocity S-wave (km/s) = 3.23618 3.42938 3.33418
# Velocity P-wave (km/s) = 5.68362 6.60238 6.16016
#
# Compressibility (1/GPa) = 0.03324943
#
# Stress axis : x y z
#
# Youngs Moduli (GPa) = 24.60596 58.48333 47.50023
#
# Poissons Ratio (x) = 0.19987 0.43211
# Poissons Ratio (y) = 0.08409 0.48719
# Poissons Ratio (z) = 0.22384 0.59984
#
# Static dielectric constant tensor:
#      x y z
#    x 1.553990 0.000000 0.000000 
#    y 0.000000 1.575690 0.000000 
#    z 0.000000 0.000000 1.557500 
# 
# From -- ./inp_files/70283.got.cif
#   From: 2010.05.17/outbox.cif.g08.bks.cpg/sg74_36_cif.got.tgz:70283.got - 2010.06.03 17:57:02.
