data_PCOD9537031
_publ_section_title
;
Structure prediction by ZEFSAII (Michael W. Deem and Ramdas Pophale) SiO2 
 PCOD9537031
Probable space group: I M M A
;
_chemical_formula_sum "Si O2"
_cell_formula_units_Z 72
_cell_length_a 14.708396
_cell_length_b 25.535729
_cell_length_c 8.963144
_cell_angle_alpha 90.000000
_cell_angle_beta 90.000000
_cell_angle_gamma 90.000000
_cell_volume 3366.463798
_symmetry_space_group_name_H-M "I M M A"
_symmetry_group_IT_number 74
_symmetry_cell_setting 'orthorhombic'
loop_
_space_group_symop_operation_xyz
x,y,z
-x,1/2-y,z
x,-y,-z
-x,1/2+y,-z
-x,-y,-z
x,1/2+y,-z
-x,y,z
x,1/2-y,z
1/2+x,1/2+y,1/2+z
1/2-x,-y,1/2+z
1/2+x,1/2-y,1/2-z
1/2-x,y,1/2-z
1/2-x,1/2-y,1/2-z
1/2+x,y,1/2-z
1/2-x,1/2+y,1/2+z
1/2+x,-y,1/2+z
loop_
_atom_site_type_symbol
_atom_site_label
_atom_site_fract_x
_atom_site_fract_y
_atom_site_fract_z
Si Si1 0.894425 0.188354 0.469240
Si Si2 0.250000 0.959930 0.250000
Si Si3 0.268903 0.118668 0.478884
Si Si4 0.600118 0.311691 0.671952
Si Si5 0.897132 0.034640 0.152604
O O1 0.876931 0.250000 0.434535
O O2 0.817857 0.148688 0.411085
O O3 0.887733 0.182497 0.650080
O O4 0.000000 0.177366 0.428201
O O5 0.242708 0.923940 0.395475
O O6 0.162429 0.997225 0.255934
O O7 0.325269 0.161306 0.572472
O O8 0.338735 0.086618 0.376361
O O9 0.500000 0.333464 0.634919
O O10 0.600905 0.250000 0.642770
O O11 0.000000 0.045025 0.200957
O O12 0.901472 0.000000 0.000000
#
# Coordination Sequence:
#
# PCOD9537031 Si02
#       5
#    16   8  16  16  16
#     4   9  17  27  41  67 102 132 154 182 232 296
#     4  10  20  32  47  68  93 130 164 202 240 276
#     4  11  17  29  49  70  94 131 166 194 233 287
#     4   9  16  25  41  69 100 127 155 189 235 293
#     4   9  20  35  50  69  93 124 167 209 243 277
#
# _framework density 21.387428
#
# number of rings (size 3 to 8) (size 9 to 14) (size 15 to 20)
#    0.000    2.444    2.222    2.667    0.000    3.556 
#    0.000    1.111    0.000    4.000    0.000    3.111 
#    0.000    3.556    0.000    0.000    0.000    0.000 
#
# Total GULP energy -201007.750302 kJ/mol
# GULP energy per Si atom -5583.548619 kJ/mol
# Density = 2.133875 g / cm^3
# Si number density = 21.387428 Si / 1000 Ang^3
#
#
#
# Elastic Constant Matrix: (Units=GPa)
#
#
# Indices 1 2 3 4 5 6 
#
# 1 197.1852 100.9798 26.7136 0.0001 0.0001 0.0001
# 2 100.9798 99.6176 25.5266 0.0002 -0.0001 -0.0001
# 3 26.7136 25.5266 23.8765 0.0001 -0.0001 -0.0001
# 4 0.0001 0.0002 0.0001 2.5513 -0.0001 0.0006
# 5 0.0001 -0.0001 -0.0001 -0.0001 13.6038 0.0004
# 6 0.0001 -0.0001 -0.0001 0.0006 0.0004 78.6275
#
#
#
# Elastic Compliance Matrix: (Units=1/GPa)
#
#
# Indices 1 2 3 4 5 6 
#
# 1 0.010550 -0.010564 -0.000510 0.000000 0.000000 0.000000
# 2 -0.010564 0.024404 -0.014271 -0.000001 0.000000 0.000000
# 3 -0.000510 -0.014271 0.057710 -0.000001 0.000000 0.000000
# 4 0.000000 -0.000001 -0.000001 0.391952 0.000003 -0.000003
# 5 0.000000 0.000000 0.000000 0.000003 0.073509 0.000000
# 6 0.000000 0.000000 0.000000 -0.000003 0.000000 0.012718
#
#
# Mechanical properties :
#
#
# Convention : Reuss Voigt Hill
#
# Bulk Modulus (GPa) = 23.82419 69.67992 46.75205
# Shear Modulus (GPa) = 7.86752 30.12048 18.99400
#
# Velocity S-wave (km/s) = 1.92004 3.75684 2.98332
# Velocity P-wave (km/s) = 4.00985 7.17419 5.81154
#
# Compressibility (1/GPa) = 0.04197415
#
# Stress axis : x y z
#
# Youngs Moduli (GPa) = 94.78399 40.97748 17.32804
#
# Poissons Ratio (x) = 0.43288 0.00884
# Poissons Ratio (y) = 1.00129 0.24729
# Poissons Ratio (z) = 0.04833 0.58479
#
# Static dielectric constant tensor:
#      x y z
#    x 1.800640 0.000000 0.000000 
#    y 0.000000 1.754720 0.000000 
#    z 0.000000 0.000000 1.794030 
# 
# From -- ./inp_files/20383.got.cif
#   From: 2010.05.17/outbox.cif.g08.bks.cpg/sg74_11_cif.got.tgz:20383.got - 2010.06.03 17:57:02.
