data_PCOD9537027
_publ_section_title
;
Structure prediction by ZEFSAII (Michael W. Deem and Ramdas Pophale) SiO2 
 PCOD9537027
Probable space group: I M M A
;
_chemical_formula_sum "Si O2"
_cell_formula_units_Z 48
_cell_length_a 5.686511
_cell_length_b 16.711863
_cell_length_c 20.995254
_cell_angle_alpha 90.000000
_cell_angle_beta 90.000000
_cell_angle_gamma 90.000000
_cell_volume 1995.225026
_symmetry_space_group_name_H-M "I M M A"
_symmetry_group_IT_number 74
_symmetry_cell_setting 'orthorhombic'
loop_
_space_group_symop_operation_xyz
x,y,z
-x,1/2-y,z
x,-y,-z
-x,1/2+y,-z
-x,-y,-z
x,1/2+y,-z
-x,y,z
x,1/2-y,z
1/2+x,1/2+y,1/2+z
1/2-x,-y,1/2+z
1/2+x,1/2-y,1/2-z
1/2-x,y,1/2-z
1/2-x,1/2-y,1/2-z
1/2+x,y,1/2-z
1/2-x,1/2+y,1/2+z
1/2+x,-y,1/2+z
loop_
_atom_site_type_symbol
_atom_site_label
_atom_site_fract_x
_atom_site_fract_y
_atom_site_fract_z
Si Si1 0.000000 0.163425 0.811399
Si Si2 0.000000 0.625371 0.373827
Si Si3 0.251948 0.346505 0.134985
Si Si4 0.500000 0.998608 0.226615
Si Si5 0.500000 0.407007 0.017477
O O1 0.245510 0.157558 0.850315
O O2 0.000000 0.088756 0.764050
O O3 0.000000 0.250000 0.778592
O O4 0.000000 0.533289 0.346796
O O5 0.000000 0.634623 0.449586
O O6 0.500000 0.368874 0.168608
O O7 0.250385 0.250000 0.133247
O O8 0.286718 0.380319 0.063633
O O9 0.000000 0.372338 0.159674
O O10 0.250000 0.031701 0.250000
O O11 0.500000 0.500000 0.000000
#
# Coordination Sequence:
#
# PCOD9537027 Si02
#       5
#     8   8  16   8   8
#     4  10  20  32  47  65  87 113 146 191 232 269
#     4  10  21  31  41  64  84 112 147 182 228 265
#     4   8  16  30  44  58  77 103 140 180 218 252
#     4   8  16  30  44  58  83 107 139 179 223 269
#     4  10  21  33  45  63  89 118 151 186 225 269
#
# _framework density 24.057437
#
# number of rings (size 3 to 8) (size 9 to 14) (size 15 to 20)
#    1.000    2.000    0.000    0.500    2.333    9.333 
#    0.000    0.000    0.000    0.000    0.000    0.000 
#    0.000    0.000    0.000    0.000    0.000   60.000 
#
# Total GULP energy -133765.944196 kJ/mol
# GULP energy per Si atom -5573.581008 kJ/mol
# Density = 2.400268 g / cm^3
# Si number density = 24.057437 Si / 1000 Ang^3
#
#
#
# Elastic Constant Matrix: (Units=GPa)
#
#
# Indices 1 2 3 4 5 6 
#
# 1 298.7467 52.0655 72.4966 0.0000 0.0000 0.0000
# 2 52.0655 52.6968 27.0152 0.0000 0.0000 0.0000
# 3 72.4966 27.0152 81.1373 0.0000 0.0000 0.0000
# 4 0.0000 0.0000 0.0000 -0.4515 0.0000 0.0000
# 5 0.0000 0.0000 0.0000 0.0000 32.0573 0.0000
# 6 0.0000 0.0000 0.0000 0.0000 0.0000 8.1132
#
#
#
# Elastic Compliance Matrix: (Units=1/GPa)
#
#
# Indices 1 2 3 4 5 6 
#
# 1 0.004627 -0.002957 -0.003150 0.000000 0.000000 0.000000
# 2 -0.002957 0.024772 -0.005606 0.000000 0.000000 0.000000
# 3 -0.003150 -0.005606 0.017006 0.000000 0.000000 0.000000
# 4 0.000000 0.000000 0.000000 -2.214782 0.000000 0.000000
# 5 0.000000 0.000000 0.000000 0.000000 0.031194 0.000000
# 6 0.000000 0.000000 0.000000 0.000000 0.000000 0.123255
#
#
# Mechanical properties :
#
#
# Convention : Reuss Voigt Hill
#
# Bulk Modulus (GPa) = 43.51737 81.74835 62.63286
# Shear Modulus (GPa) = -2.52163 26.67737 12.07787
#
# Velocity S-wave (km/s) = -1.02491 3.33363 2.24306
# Velocity P-wave (km/s) = 4.08994 6.99083 5.72710
#
# Compressibility (1/GPa) = 0.02297933
#
# Stress axis : x y z
#
# Youngs Moduli (GPa) = 216.12406 40.36846 58.80399
#
# Poissons Ratio (x) = 0.11936 0.18522
# Poissons Ratio (y) = 0.63904 0.32966
# Poissons Ratio (z) = 0.68073 0.22631
#
# Static dielectric constant tensor:
#      x y z
#    x 1.965570 0.000000 0.000000 
#    y 0.000000 2.043680 0.000000 
#    z 0.000000 0.000000 1.903660 
# 
# From -- ./inp_files/47395.got.cif
#   From: 2010.05.17/outbox.cif.g08.bks.cpg/sg74_24_cif.got.tgz:47395.got - 2010.06.03 17:57:02.
