data_PCOD9537887
_publ_section_title
;
Structure prediction by ZEFSAII (Michael W. Deem and Ramdas Pophale) SiO2 
 PCOD9537887
Probable space group: I M M A
;
_chemical_formula_sum "Si O2"
_cell_formula_units_Z 104
_cell_length_a 7.918878
_cell_length_b 26.975796
_cell_length_c 24.560794
_cell_angle_alpha 90.000000
_cell_angle_beta 90.000000
_cell_angle_gamma 90.000000
_cell_volume 5246.628613
_symmetry_space_group_name_H-M "I M M A"
_symmetry_group_IT_number 74
_symmetry_cell_setting 'orthorhombic'
loop_
_space_group_symop_operation_xyz
x,y,z
-x,1/2-y,z
x,-y,-z
-x,1/2+y,-z
-x,-y,-z
x,1/2+y,-z
-x,y,z
x,1/2-y,z
1/2+x,1/2+y,1/2+z
1/2-x,-y,1/2+z
1/2+x,1/2-y,1/2-z
1/2-x,y,1/2-z
1/2-x,1/2-y,1/2-z
1/2+x,y,1/2-z
1/2-x,1/2+y,1/2+z
1/2+x,-y,1/2+z
loop_
_atom_site_type_symbol
_atom_site_label
_atom_site_fract_x
_atom_site_fract_y
_atom_site_fract_z
Si Si1 0.300494 0.192461 0.492955
Si Si2 0.798418 0.926316 0.189162
Si Si3 0.298095 0.194870 0.307178
Si Si4 0.204024 0.459998 0.188178
Si Si5 0.299341 0.661260 0.112995
Si Si6 0.705757 0.379449 0.399291
Si Si7 0.297128 0.250000 0.812246
O O1 0.500000 0.196183 0.480171
O O2 0.234399 0.250000 0.485712
O O3 0.278512 0.175102 0.554999
O O4 0.235477 0.146182 0.455772
O O5 0.750000 0.908102 0.250000
O O6 0.735058 0.891561 0.140652
O O7 0.000000 0.927147 0.186547
O O8 0.735940 0.983029 0.184017
O O9 0.500000 0.197699 0.309610
O O10 0.225518 0.250000 0.308684
O O11 0.250000 0.171639 0.250000
O O12 0.243569 0.163377 0.357413
O O13 0.250000 0.443017 0.250000
O O14 0.262130 0.428105 0.135307
O O15 0.000000 0.459038 0.186596
O O16 0.500000 0.666861 0.106368
O O17 0.234970 0.701591 0.156375
O O18 0.500000 0.384333 0.403058
O O19 0.500000 0.250000 0.815465
O O20 0.250000 0.250000 0.750000
#
# Coordination Sequence:
#
# PCOD9537887 Si02
#       7
#    16  16  16  16  16  16   8
#     4  10  20  35  56  79 104 141 186 227 266 314
#     4  10  20  35  56  83 110 140 176 215 265 320
#     4   9  16  26  42  66  97 129 164 212 265 317
#     4   9  18  33  54  79 109 141 177 224 271 318
#     4  11  22  38  56  78 109 143 175 215 266 319
#     4   9  17  31  51  74 100 136 181 222 263 311
#     4  10  22  36  54  80 108 134 163 202 253 314
#
# _framework density 19.822254000000001
#
# number of rings (size 3 to 8) (size 9 to 14) (size 15 to 20)
#    0.000    2.308    0.769    2.308    0.000    4.923 
#    0.000    2.308    0.000    6.462    0.000    0.000 
#    0.000    0.000    0.000    0.000    0.000    0.000 
#
# Total GULP energy -289613.623685 kJ/mol
# GULP energy per Si atom -5569.492763 kJ/mol
# Density = 1.977714 g / cm^3
# Si number density = 19.822254 Si / 1000 Ang^3
#
#
#
# Elastic Constant Matrix: (Units=GPa)
#
#
# Indices 1 2 3 4 5 6 
#
# 1 16.7245 0.6931 -5.4071 0.0000 0.0000 0.0000
# 2 0.6931 110.6954 55.2602 0.0000 0.0000 0.0000
# 3 -5.4071 55.2602 133.6872 0.0000 0.0000 0.0000
# 4 0.0000 0.0000 0.0000 34.9947 0.0000 0.0000
# 5 0.0000 0.0000 0.0000 0.0000 22.9529 0.0000
# 6 0.0000 0.0000 0.0000 0.0000 0.0000 9.2927
#
#
#
# Elastic Compliance Matrix: (Units=1/GPa)
#
#
# Indices 1 2 3 4 5 6 
#
# 1 0.060945 -0.002031 0.003305 0.000000 0.000000 0.000000
# 2 -0.002031 0.011450 -0.004815 0.000000 0.000000 0.000000
# 3 0.003305 -0.004815 0.009604 0.000000 0.000000 0.000000
# 4 0.000000 0.000000 0.000000 0.028576 0.000000 0.000000
# 5 0.000000 0.000000 0.000000 0.000000 0.043568 0.000000
# 6 0.000000 0.000000 0.000000 0.000000 0.000000 0.107612
#
#
# Mechanical properties :
#
#
# Convention : Reuss Voigt Hill
#
# Bulk Modulus (GPa) = 13.34829 40.24437 26.79633
# Shear Modulus (GPa) = 17.01778 27.48544 22.25161
#
# Velocity S-wave (km/s) = 2.93323 3.72774 3.35409
# Velocity P-wave (km/s) = 4.26853 6.23496 5.34299
#
# Compressibility (1/GPa) = 0.07491595
#
# Stress axis : x y z
#
# Youngs Moduli (GPa) = 16.40820 87.33392 104.12132
#
# Poissons Ratio (x) = 0.17740 -0.34408
# Poissons Ratio (y) = 0.03333 0.50136
# Poissons Ratio (z) = -0.05422 0.42053
#
# Static dielectric constant tensor:
#      x y z
#    x 1.721520 0.000000 0.000000 
#    y 0.000000 1.750900 0.000000 
#    z 0.000000 0.000000 1.688130 
# 
# From -- ./inp_files/57590.got.cif
#   From: 2010.05.17/outbox.cif.g08.bks.cpg/sg74_29_cif.got.tgz:57590.got - 2010.06.03 17:57:02.
