data_PCOD9537145
_publ_section_title
;
Structure prediction by ZEFSAII (Michael W. Deem and Ramdas Pophale) SiO2 
 PCOD9537145
Probable space group: I M M A
;
_chemical_formula_sum "Si O2"
_cell_formula_units_Z 72
_cell_length_a 10.072340
_cell_length_b 15.179759
_cell_length_c 24.542147
_cell_angle_alpha 90.000000
_cell_angle_beta 90.000000
_cell_angle_gamma 90.000000
_cell_volume 3752.388592
_symmetry_space_group_name_H-M "I M M A"
_symmetry_group_IT_number 74
_symmetry_cell_setting 'orthorhombic'
loop_
_space_group_symop_operation_xyz
x,y,z
-x,1/2-y,z
x,-y,-z
-x,1/2+y,-z
-x,-y,-z
x,1/2+y,-z
-x,y,z
x,1/2-y,z
1/2+x,1/2+y,1/2+z
1/2-x,-y,1/2+z
1/2+x,1/2-y,1/2-z
1/2-x,y,1/2-z
1/2-x,1/2-y,1/2-z
1/2+x,y,1/2-z
1/2-x,1/2+y,1/2+z
1/2+x,-y,1/2+z
loop_
_atom_site_type_symbol
_atom_site_label
_atom_site_fract_x
_atom_site_fract_y
_atom_site_fract_z
Si Si1 0.500000 0.460805 0.891168
Si Si2 0.500000 0.851605 0.949265
Si Si3 0.500000 0.945168 0.659631
Si Si4 0.788602 0.648189 0.455730
Si Si5 0.000000 0.434185 0.948775
Si Si6 0.000000 0.524001 0.712238
Si Si7 0.765177 0.153115 0.314596
O O1 0.500000 0.563050 0.910966
O O2 0.629544 0.415932 0.916592
O O3 0.500000 0.440516 0.826592
O O4 0.500000 0.750000 0.928918
O O5 0.367911 0.860331 0.986953
O O6 0.500000 0.983496 0.722439
O O7 0.631545 0.884271 0.658705
O O8 0.500000 0.013302 0.609397
O O9 0.803924 0.750000 0.439328
O O10 0.635080 0.621608 0.454939
O O11 0.000000 0.500000 0.000000
O O12 0.875250 0.578404 0.689005
O O13 0.799706 0.250000 0.337228
O O14 0.750000 0.166197 0.250000
#
# Coordination Sequence:
#
# PCOD9537145 Si02
#       7
#     8   8   8  16   8   8  16
#     4  11  19  35  60  85 113 146 182 222 273 331
#     4   9  19  35  57  88 118 145 177 220 272 327
#     4  10  21  36  52  74 108 146 181 223 276 327
#     4  10  21  38  59  81 110 145 186 233 277 321
#     4  12  23  38  58  80 106 142 184 228 281 332
#     4  10  20  32  52  81 107 141 183 223 270 325
#     4   9  17  31  50  74 108 146 180 213 257 320
#
# _framework density 19.187778999999999
#
# number of rings (size 3 to 8) (size 9 to 14) (size 15 to 20)
#    0.000    2.000    0.000    6.000    0.000    3.556 
#    0.000    4.444    0.000    4.000    0.000    0.000 
#    0.000    0.000    0.000    0.000    0.000    0.000 
#
# Total GULP energy -200452.786118 kJ/mol
# GULP energy per Si atom -5568.132948 kJ/mol
# Density = 1.914411 g / cm^3
# Si number density = 19.187779 Si / 1000 Ang^3
#
#
#
# Elastic Constant Matrix: (Units=GPa)
#
#
# Indices 1 2 3 4 5 6 
#
# 1 119.4828 12.3900 35.7116 0.0000 0.0000 0.0000
# 2 12.3900 79.4323 58.1448 0.0000 0.0000 0.0000
# 3 35.7116 58.1448 109.4823 0.0000 0.0000 0.0000
# 4 0.0000 0.0000 0.0000 -8.2002 0.0000 0.0000
# 5 0.0000 0.0000 0.0000 0.0000 18.2991 0.0000
# 6 0.0000 0.0000 0.0000 0.0000 0.0000 51.5562
#
#
#
# Elastic Compliance Matrix: (Units=1/GPa)
#
#
# Indices 1 2 3 4 5 6 
#
# 1 0.009351 0.001266 -0.003723 0.000000 0.000000 0.000000
# 2 0.001266 0.020768 -0.011443 0.000000 0.000000 0.000000
# 3 -0.003723 -0.011443 0.016425 0.000000 0.000000 0.000000
# 4 0.000000 0.000000 0.000000 -0.121949 0.000000 0.000000
# 5 0.000000 0.000000 0.000000 0.000000 0.054647 0.000000
# 6 0.000000 0.000000 0.000000 0.000000 0.000000 0.019396
#
#
# Mechanical properties :
#
#
# Convention : Reuss Voigt Hill
#
# Bulk Modulus (GPa) = 53.34447 57.87668 55.61058
# Shear Modulus (GPa) = 152.97500 25.80777 89.39139
#
# Velocity S-wave (km/s) = 8.93859 3.67142 6.83292
# Velocity P-wave (km/s) = 11.59279 6.94271 9.55494
#
# Compressibility (1/GPa) = 0.01874608
#
# Stress axis : x y z
#
# Youngs Moduli (GPa) = 106.94344 48.15133 60.88187
#
# Poissons Ratio (x) = -0.06098 0.22664
# Poissons Ratio (y) = -0.13544 0.69665
# Poissons Ratio (z) = 0.39812 0.55098
#
# Static dielectric constant tensor:
#      x y z
#    x 1.700100 0.000000 0.000000 
#    y 0.000000 1.704440 0.000000 
#    z 0.000000 0.000000 1.984480 
# 
# From -- ./inp_files/63731.got.cif
#   From: 2010.05.17/outbox.cif.g08.bks.cpg/sg74_32_cif.got.tgz:63731.got - 2010.06.03 17:57:02.
