data_PCOD9537448
_publ_section_title
;
Structure prediction by ZEFSAII (Michael W. Deem and Ramdas Pophale) SiO2 
 PCOD9537448
Probable space group: I M M A
;
_chemical_formula_sum "Si O2"
_cell_formula_units_Z 72
_cell_length_a 7.441106
_cell_length_b 15.084037
_cell_length_c 30.120218
_cell_angle_alpha 90.000000
_cell_angle_beta 90.000000
_cell_angle_gamma 90.000000
_cell_volume 3380.751046
_symmetry_space_group_name_H-M "I M M A"
_symmetry_group_IT_number 74
_symmetry_cell_setting 'orthorhombic'
loop_
_space_group_symop_operation_xyz
x,y,z
-x,1/2-y,z
x,-y,-z
-x,1/2+y,-z
-x,-y,-z
x,1/2+y,-z
-x,y,z
x,1/2-y,z
1/2+x,1/2+y,1/2+z
1/2-x,-y,1/2+z
1/2+x,1/2-y,1/2-z
1/2-x,y,1/2-z
1/2-x,1/2-y,1/2-z
1/2+x,y,1/2-z
1/2-x,1/2+y,1/2+z
1/2+x,-y,1/2+z
loop_
_atom_site_type_symbol
_atom_site_label
_atom_site_fract_x
_atom_site_fract_y
_atom_site_fract_z
Si Si1 0.791761 0.929024 0.874768
Si Si2 0.780945 0.750000 0.919808
Si Si3 0.214485 0.250000 0.802984
Si Si4 0.290416 0.750000 0.024348
Si Si5 0.218210 0.554974 0.456224
Si Si6 0.715884 0.942640 0.302357
O O1 0.716352 0.838182 0.894673
O O2 0.000000 0.908835 0.864852
O O3 0.781897 0.002281 0.913364
O O4 0.712639 0.976225 0.831395
O O5 0.000000 0.750000 0.921248
O O6 0.721619 0.750000 0.970886
O O7 0.250000 0.250000 0.750000
O O8 0.284195 0.345708 0.818508
O O9 0.000000 0.250000 0.810037
O O10 0.500000 0.750000 0.036841
O O11 0.215875 0.656282 0.041207
O O12 0.273448 0.500000 0.500000
O O13 0.000000 0.555675 0.455901
O O14 0.500000 0.940720 0.308053
O O15 0.750000 0.951632 0.250000
#
# Coordination Sequence:
#
# PCOD9537448 Si02
#       6
#    16   8   8   8  16  16
#     4  10  21  35  53  77 105 136 175 217 260 308
#     4  10  20  34  52  74 101 138 176 213 258 309
#     4   8  14  27  48  70  94 125 159 196 247 302
#     4  10  20  35  53  76 106 137 171 213 258 305
#     4  10  20  34  53  76 103 135 170 211 256 305
#     4   9  18  33  52  75 102 133 168 210 256 305
#
# _framework density 21.297042000000001
#
# number of rings (size 3 to 8) (size 9 to 14) (size 15 to 20)
#    0.000    2.444    2.222    0.000    0.000    3.111 
#    0.000    1.667    0.000    4.000    0.000    0.000 
#    0.000    0.000    0.000    0.000    0.000    0.000 
#
# Total GULP energy -200907.285831 kJ/mol
# GULP energy per Si atom -5580.757940 kJ/mol
# Density = 2.124857 g / cm^3
# Si number density = 21.297042 Si / 1000 Ang^3
#
#
#
# Elastic Constant Matrix: (Units=GPa)
#
#
# Indices 1 2 3 4 5 6 
#
# 1 66.5300 -5.1443 -16.9013 0.0000 0.0000 0.0000
# 2 -5.1443 195.4625 52.4680 0.0000 0.0000 0.0000
# 3 -16.9013 52.4680 67.7757 0.0000 0.0000 0.0000
# 4 0.0000 0.0000 0.0000 23.9957 0.0000 0.0000
# 5 0.0000 0.0000 0.0000 0.0000 11.9076 0.0000
# 6 0.0000 0.0000 0.0000 0.0000 0.0000 -0.4118
#
#
#
# Elastic Compliance Matrix: (Units=1/GPa)
#
#
# Indices 1 2 3 4 5 6 
#
# 1 0.016153 -0.000828 0.004669 0.000000 0.000000 0.000000
# 2 -0.000828 0.006501 -0.005239 0.000000 0.000000 0.000000
# 3 0.004669 -0.005239 0.019975 0.000000 0.000000 0.000000
# 4 0.000000 0.000000 0.000000 0.041674 0.000000 0.000000
# 5 0.000000 0.000000 0.000000 0.000000 0.083980 0.000000
# 6 0.000000 0.000000 0.000000 0.000000 0.000000 -2.428271
#
#
# Mechanical properties :
#
#
# Convention : Reuss Voigt Hill
#
# Bulk Modulus (GPa) = 25.10524 43.40145 34.25334
# Shear Modulus (GPa) = -2.22825 27.05467 12.41321
#
# Velocity S-wave (km/s) = -1.02398 3.56806 2.41687
# Velocity P-wave (km/s) = 3.22733 6.11540 4.88947
#
# Compressibility (1/GPa) = 0.03983233
#
# Stress axis : x y z
#
# Youngs Moduli (GPa) = 61.90815 153.83325 50.06369
#
# Poissons Ratio (x) = 0.12741 -0.23376
# Poissons Ratio (y) = 0.05128 0.26228
# Poissons Ratio (z) = -0.28907 0.80591
#
# Static dielectric constant tensor:
#      x y z
#    x 1.815130 0.000000 0.000000 
#    y 0.000000 1.803930 0.000000 
#    z 0.000000 0.000000 1.725170 
# 
# From -- ./inp_files/66766.got.cif
#   From: 2010.05.17/outbox.cif.g08.bks.cpg/sg74_34_cif.got.tgz:66766.got - 2010.06.03 17:57:02.
