data_PCOD9537035
_publ_section_title
;
Structure prediction by ZEFSAII (Michael W. Deem and Ramdas Pophale) SiO2 
 PCOD9537035
Probable space group: I M M A
;
_chemical_formula_sum "Si O2"
_cell_formula_units_Z 104
_cell_length_a 29.602992
_cell_length_b 8.701327
_cell_length_c 22.339585
_cell_angle_alpha 90.000000
_cell_angle_beta 90.000000
_cell_angle_gamma 90.000000
_cell_volume 5754.349007
_symmetry_space_group_name_H-M "I M M A"
_symmetry_group_IT_number 74
_symmetry_cell_setting 'orthorhombic'
loop_
_space_group_symop_operation_xyz
x,y,z
-x,1/2-y,z
x,-y,-z
-x,1/2+y,-z
-x,-y,-z
x,1/2+y,-z
-x,y,z
x,1/2-y,z
1/2+x,1/2+y,1/2+z
1/2-x,-y,1/2+z
1/2+x,1/2-y,1/2-z
1/2-x,y,1/2-z
1/2-x,1/2-y,1/2-z
1/2+x,y,1/2-z
1/2-x,1/2+y,1/2+z
1/2+x,-y,1/2+z
loop_
_atom_site_type_symbol
_atom_site_label
_atom_site_fract_x
_atom_site_fract_y
_atom_site_fract_z
Si Si1 0.946793 0.930223 0.313950
Si Si2 0.385062 0.423996 0.281894
Si Si3 0.306645 0.563940 0.434848
Si Si4 0.906487 0.925619 0.100882
Si Si5 0.280619 0.929236 0.694968
Si Si6 0.945425 0.924368 0.560602
Si Si7 0.000000 0.069659 0.065097
O O1 0.939751 0.750000 0.301629
O O2 0.000000 0.964777 0.302324
O O3 0.914016 0.037248 0.275896
O O4 0.937106 0.967992 0.382935
O O5 0.396073 0.250000 0.303314
O O6 0.397432 0.554752 0.329206
O O7 0.331203 0.431111 0.278015
O O8 0.290539 0.500000 0.500000
O O9 0.304746 0.750000 0.435342
O O10 0.359888 0.515664 0.428864
O O11 0.283549 0.505925 0.371977
O O12 0.912777 0.750000 0.082017
O O13 0.952913 0.013388 0.091812
O O14 0.267611 0.750000 0.685288
O O15 0.250000 0.992444 0.750000
O O16 0.929040 0.750000 0.569500
O O17 0.000000 0.915209 0.555310
O O18 0.927734 0.000000 0.500000
O O19 0.000000 0.250000 0.064384
O O20 0.000000 0.000000 0.000000
#
# Coordination Sequence:
#
# PCOD9537035 Si02
#       7
#    16  16  16  16  16  16   8
#     4  10  20  32  47  69 100 138 175 213 257 307
#     4  10  20  34  53  77 104 135 174 217 263 316
#     4  10  20  34  56  84 112 143 180 225 272 325
#     4  10  21  36  52  72 102 140 181 224 268 314
#     4   9  19  37  60  84 110 141 176 220 275 331
#     4   9  16  27  44  66  92 123 163 209 254 304
#     4  12  24  36  50  70  98 138 183 224 265 308
#
# _framework density 18.073286
#
# number of rings (size 3 to 8) (size 9 to 14) (size 15 to 20)
#    0.000    2.154    0.000    3.462    1.077    6.769 
#    0.000    0.000    0.000    0.923    0.000    4.308 
#    0.000    0.000    0.000    0.000    0.000    0.000 
#
# Total GULP energy -289512.204223 kJ/mol
# GULP energy per Si atom -5567.542389 kJ/mol
# Density = 1.803215 g / cm^3
# Si number density = 18.073286 Si / 1000 Ang^3
#
#
#
# Elastic Constant Matrix: (Units=GPa)
#
#
# Indices 1 2 3 4 5 6 
#
# 1 48.1047 24.3931 40.2756 0.0000 0.0000 0.0000
# 2 24.3931 60.0276 17.9202 0.0000 0.0000 0.0000
# 3 40.2756 17.9202 105.9910 0.0000 0.0000 0.0000
# 4 0.0000 0.0000 0.0000 30.5484 0.0000 0.0000
# 5 0.0000 0.0000 0.0000 0.0000 20.4628 0.0000
# 6 0.0000 0.0000 0.0000 0.0000 0.0000 15.1831
#
#
#
# Elastic Compliance Matrix: (Units=1/GPa)
#
#
# Indices 1 2 3 4 5 6 
#
# 1 0.036528 -0.011269 -0.011975 0.000000 0.000000 0.000000
# 2 -0.011269 0.021021 0.000728 0.000000 0.000000 0.000000
# 3 -0.011975 0.000728 0.013862 0.000000 0.000000 0.000000
# 4 0.000000 0.000000 0.000000 0.032735 0.000000 0.000000
# 5 0.000000 0.000000 0.000000 0.000000 0.048869 0.000000
# 6 0.000000 0.000000 0.000000 0.000000 0.000000 0.065863
#
#
# Mechanical properties :
#
#
# Convention : Reuss Voigt Hill
#
# Bulk Modulus (GPa) = 37.90840 42.14456 40.02648
# Shear Modulus (GPa) = 18.33493 22.00784 20.17138
#
# Velocity S-wave (km/s) = 3.18854 3.49334 3.34442
# Velocity P-wave (km/s) = 5.88014 6.29608 6.09166
#
# Compressibility (1/GPa) = 0.02637938
#
# Stress axis : x y z
#
# Youngs Moduli (GPa) = 27.37593 47.57165 72.13895
#
# Poissons Ratio (x) = 0.53608 0.86388
# Poissons Ratio (y) = 0.30850 -0.05252
# Poissons Ratio (z) = 0.32783 -0.03463
#
# Static dielectric constant tensor:
#      x y z
#    x 1.587440 0.000000 0.000000 
#    y 0.000000 1.644450 0.000000 
#    z 0.000000 0.000000 1.674020 
# 
# From -- ./inp_files/55201.got.cif
#   From: 2010.05.17/outbox.cif.g08.bks.cpg/sg74_28_cif.got.tgz:55201.got - 2010.06.03 17:57:02.
