data_PCOD9537538
_publ_section_title
;
Structure prediction by ZEFSAII (Michael W. Deem and Ramdas Pophale) SiO2 
 PCOD9537538
Probable space group: I M M A
;
_chemical_formula_sum "Si O2"
_cell_formula_units_Z 96
_cell_length_a 9.505086
_cell_length_b 22.815050
_cell_length_c 25.122263
_cell_angle_alpha 90.000000
_cell_angle_beta 90.000000
_cell_angle_gamma 90.000000
_cell_volume 5447.989142
_symmetry_space_group_name_H-M "I M M A"
_symmetry_group_IT_number 74
_symmetry_cell_setting 'orthorhombic'
loop_
_space_group_symop_operation_xyz
x,y,z
-x,1/2-y,z
x,-y,-z
-x,1/2+y,-z
-x,-y,-z
x,1/2+y,-z
-x,y,z
x,1/2-y,z
1/2+x,1/2+y,1/2+z
1/2-x,-y,1/2+z
1/2+x,1/2-y,1/2-z
1/2-x,y,1/2-z
1/2-x,1/2-y,1/2-z
1/2+x,y,1/2-z
1/2-x,1/2+y,1/2+z
1/2+x,-y,1/2+z
loop_
_atom_site_type_symbol
_atom_site_label
_atom_site_fract_x
_atom_site_fract_y
_atom_site_fract_z
Si Si1 0.168084 0.153165 0.696863
Si Si2 0.170542 0.750000 0.388845
Si Si3 0.829071 0.250000 0.488726
Si Si4 0.168886 0.638242 0.581507
Si Si5 0.833773 0.104060 0.302077
Si Si6 0.167035 0.025164 0.652798
Si Si7 0.838595 0.978690 0.939804
O O1 0.250000 0.170784 0.750000
O O2 0.209850 0.193232 0.646365
O O3 0.195299 0.084697 0.684530
O O4 0.000000 0.160502 0.704561
O O5 0.221598 0.750000 0.449984
O O6 0.000000 0.750000 0.391866
O O7 0.788959 0.193083 0.454505
O O8 0.000000 0.250000 0.490585
O O9 0.196841 0.641849 0.644910
O O10 0.252120 0.581273 0.563101
O O11 0.000000 0.629272 0.576204
O O12 0.750000 0.121806 0.250000
O O13 0.000000 0.107120 0.291933
O O14 0.800909 0.035742 0.316605
O O15 0.000000 0.023857 0.640204
O O16 0.258667 0.022979 0.599467
O O17 0.000000 0.970614 0.922136
O O18 0.838347 0.000000 0.000000
#
# Coordination Sequence:
#
# PCOD9537538 Si02
#       7
#    16   8   8  16  16  16  16
#     4  10  20  34  53  78 108 139 178 223 266 319
#     4   9  19  33  52  79 103 133 182 229 266 312
#     4   9  18  35  59  81 103 137 182 231 268 300
#     4   9  19  35  56  80 104 137 180 220 261 309
#     4   9  17  30  48  75 105 134 170 208 255 312
#     4   9  19  33  51  77 104 136 178 218 259 311
#     4  10  21  34  50  76 110 141 171 212 266 324
#
# _framework density 17.621181
#
# number of rings (size 3 to 8) (size 9 to 14) (size 15 to 20)
#    0.000    2.667    0.000    2.250    2.333    4.667 
#    0.000    0.833    0.000    1.000    0.000    0.000 
#    0.000    0.000    0.000    0.000    0.000    0.000 
#
# Total GULP energy -267548.238732 kJ/mol
# GULP energy per Si atom -5573.921640 kJ/mol
# Density = 1.758107 g / cm^3
# Si number density = 17.621181 Si / 1000 Ang^3
#
#
#
# Elastic Constant Matrix: (Units=GPa)
#
#
# Indices 1 2 3 4 5 6 
#
# 1 31.4419 22.5362 50.5167 0.0000 0.0000 0.0000
# 2 22.5362 69.1871 59.2978 0.0000 0.0000 0.0000
# 3 50.5167 59.2978 154.1512 0.0000 0.0000 0.0000
# 4 0.0000 0.0000 0.0000 18.7650 0.0000 0.0000
# 5 0.0000 0.0000 0.0000 0.0000 33.8317 0.0000
# 6 0.0000 0.0000 0.0000 0.0000 0.0000 11.8689
#
#
#
# Elastic Compliance Matrix: (Units=1/GPa)
#
#
# Indices 1 2 3 4 5 6 
#
# 1 0.068122 -0.004559 -0.020571 0.000000 0.000000 0.000000
# 2 -0.004559 0.021868 -0.006918 0.000000 0.000000 0.000000
# 3 -0.020571 -0.006918 0.015889 0.000000 0.000000 0.000000
# 4 0.000000 0.000000 0.000000 0.053291 0.000000 0.000000
# 5 0.000000 0.000000 0.000000 0.000000 0.029558 0.000000
# 6 0.000000 0.000000 0.000000 0.000000 0.000000 0.084254
#
#
# Mechanical properties :
#
#
# Convention : Reuss Voigt Hill
#
# Bulk Modulus (GPa) = 23.93235 57.72018 40.82627
# Shear Modulus (GPa) = 14.24480 21.05508 17.64994
#
# Velocity S-wave (km/s) = 2.84631 3.46044 3.16829
# Velocity P-wave (km/s) = 4.94095 6.98523 6.05006
#
# Compressibility (1/GPa) = 0.04178444
#
# Stress axis : x y z
#
# Youngs Moduli (GPa) = 14.67945 45.72969 62.93512
#
# Poissons Ratio (x) = 0.20849 1.29461
# Poissons Ratio (y) = 0.06693 0.43537
# Poissons Ratio (z) = 0.30196 0.31635
#
# Static dielectric constant tensor:
#      x y z
#    x 1.589700 0.000000 0.000000 
#    y 0.000000 1.603990 0.000000 
#    z 0.000000 0.000000 1.600090 
# 
# From -- ./inp_files/57357.got.cif
#   From: 2010.05.17/outbox.cif.g08.bks.cpg/sg74_29_cif.got.tgz:57357.got - 2010.06.03 17:57:02.
