data_PCOD9537676
_publ_section_title
;
Structure prediction by ZEFSAII (Michael W. Deem and Ramdas Pophale) SiO2 
 PCOD9537676
Probable space group: I M M A
;
_chemical_formula_sum "Si O2"
_cell_formula_units_Z 88
_cell_length_a 24.923843
_cell_length_b 25.686183
_cell_length_c 7.557138
_cell_angle_alpha 90.000000
_cell_angle_beta 90.000000
_cell_angle_gamma 90.000000
_cell_volume 4838.067598
_symmetry_space_group_name_H-M "I M M A"
_symmetry_group_IT_number 74
_symmetry_cell_setting 'orthorhombic'
loop_
_space_group_symop_operation_xyz
x,y,z
-x,1/2-y,z
x,-y,-z
-x,1/2+y,-z
-x,-y,-z
x,1/2+y,-z
-x,y,z
x,1/2-y,z
1/2+x,1/2+y,1/2+z
1/2-x,-y,1/2+z
1/2+x,1/2-y,1/2-z
1/2-x,y,1/2-z
1/2-x,1/2-y,1/2-z
1/2+x,y,1/2-z
1/2-x,1/2+y,1/2+z
1/2+x,-y,1/2+z
loop_
_atom_site_type_symbol
_atom_site_label
_atom_site_fract_x
_atom_site_fract_y
_atom_site_fract_z
Si Si1 0.750000 0.390028 0.750000
Si Si2 0.648241 0.942517 0.424839
Si Si3 0.756462 0.191415 0.041953
Si Si4 0.436702 0.191110 0.082223
Si Si5 0.063123 0.878110 0.247231
Si Si6 0.624529 0.162068 0.432378
O O1 0.701847 0.425150 0.677281
O O2 0.767581 0.351242 0.590571
O O3 0.598389 0.929114 0.295383
O O4 0.640327 0.899294 0.579664
O O5 0.649473 0.000000 0.500000
O O6 0.735782 0.250000 0.010669
O O7 0.750000 0.179042 0.250000
O O8 0.820646 0.189826 0.011966
O O9 0.500000 0.185455 0.128142
O O10 0.429218 0.250000 0.014451
O O11 0.400538 0.183154 0.254193
O O12 0.424052 0.148957 0.932604
O O13 0.000000 0.887972 0.236724
O O14 0.081883 0.838562 0.091900
#
# Coordination Sequence:
#
# PCOD9537676 Si02
#       6
#     8  16  16  16  16  16
#     4  10  21  42  60  82 120 150 193 250 294 360
#     4   9  21  42  61  86 110 154 202 249 309 348
#     4  10  21  35  57  89 121 155 193 235 296 363
#     4  10  20  34  55  86 120 157 195 234 291 356
#     4   9  20  38  59  84 120 155 199 248 290 357
#     4   9  20  36  58  82 120 151 198 241 292 353
#
# _framework density 18.189080000000001
#
# number of rings (size 3 to 8) (size 9 to 14) (size 15 to 20)
#    1.091    1.455    0.000    1.364    2.545    1.818 
#    6.545    2.727    0.000    2.182    0.000    0.000 
#    0.000    0.000    0.000    0.000    0.000    0.000 
#
# Total GULP energy -245000.156642 kJ/mol
# GULP energy per Si atom -5568.185378 kJ/mol
# Density = 1.814768 g / cm^3
# Si number density = 18.189080 Si / 1000 Ang^3
#
#
#
# Elastic Constant Matrix: (Units=GPa)
#
#
# Indices 1 2 3 4 5 6 
#
# 1 63.2143 21.5028 25.0742 0.0000 0.0000 0.0000
# 2 21.5028 89.3399 25.9981 0.0000 0.0000 0.0000
# 3 25.0742 25.9981 62.4427 0.0000 0.0000 0.0000
# 4 0.0000 0.0000 0.0000 21.5711 0.0000 0.0000
# 5 0.0000 0.0000 0.0000 0.0000 19.6312 0.0000
# 6 0.0000 0.0000 0.0000 0.0000 0.0000 19.3326
#
#
#
# Elastic Compliance Matrix: (Units=1/GPa)
#
#
# Indices 1 2 3 4 5 6 
#
# 1 0.019385 -0.002731 -0.006647 0.000000 0.000000 0.000000
# 2 -0.002731 0.013121 -0.004366 0.000000 0.000000 0.000000
# 3 -0.006647 -0.004366 0.020502 0.000000 0.000000 0.000000
# 4 0.000000 0.000000 0.000000 0.046358 0.000000 0.000000
# 5 0.000000 0.000000 0.000000 0.000000 0.050939 0.000000
# 6 0.000000 0.000000 0.000000 0.000000 0.000000 0.051726
#
#
# Mechanical properties :
#
#
# Convention : Reuss Voigt Hill
#
# Bulk Modulus (GPa) = 39.18693 40.01634 39.60163
# Shear Modulus (GPa) = 21.00605 21.60176 21.30390
#
# Velocity S-wave (km/s) = 3.40203 3.44993 3.42606
# Velocity P-wave (km/s) = 6.08463 6.15770 6.12127
#
# Compressibility (1/GPa) = 0.02551871
#
# Stress axis : x y z
#
# Youngs Moduli (GPa) = 51.58675 76.21260 48.77653
#
# Poissons Ratio (x) = 0.20817 0.32421
# Poissons Ratio (y) = 0.14090 0.21297
# Poissons Ratio (z) = 0.34289 0.33276
#
# Static dielectric constant tensor:
#      x y z
#    x 1.623820 0.000000 0.000000 
#    y 0.000000 1.624200 0.000000 
#    z 0.000000 0.000000 1.615830 
# 
# From -- ./inp_files/5228.got.cif
#   From: 2010.05.17/outbox.cif.g08.bks.cpg/sg74_3_cif.got.tgz:5228.got - 2010.06.03 17:57:02.
