data_PCOD9537637
_publ_section_title
;
Structure prediction by ZEFSAII (Michael W. Deem and Ramdas Pophale) SiO2 
 PCOD9537637
Probable space group: I M M A
;
_chemical_formula_sum "Si O2"
_cell_formula_units_Z 116
_cell_length_a 14.547632
_cell_length_b 25.390989
_cell_length_c 18.522106
_cell_angle_alpha 90.000000
_cell_angle_beta 90.000000
_cell_angle_gamma 90.000000
_cell_volume 6841.672623
_symmetry_space_group_name_H-M "I M M A"
_symmetry_group_IT_number 74
_symmetry_cell_setting 'orthorhombic'
loop_
_space_group_symop_operation_xyz
x,y,z
-x,1/2-y,z
x,-y,-z
-x,1/2+y,-z
-x,-y,-z
x,1/2+y,-z
-x,y,z
x,1/2-y,z
1/2+x,1/2+y,1/2+z
1/2-x,-y,1/2+z
1/2+x,1/2-y,1/2-z
1/2-x,y,1/2-z
1/2-x,1/2-y,1/2-z
1/2+x,y,1/2-z
1/2-x,1/2+y,1/2+z
1/2+x,-y,1/2+z
loop_
_atom_site_type_symbol
_atom_site_label
_atom_site_fract_x
_atom_site_fract_y
_atom_site_fract_z
Si Si1 0.269241 0.807892 0.664564
Si Si2 0.892530 0.510817 0.083625
Si Si3 0.607644 0.406974 0.319400
Si Si4 0.730138 0.560999 0.165167
Si Si5 0.891408 0.543382 0.665169
Si Si6 0.899146 0.854685 0.405579
Si Si7 0.000000 0.750000 0.368700
Si Si8 0.607353 0.354111 0.074632
O O1 0.306075 0.750000 0.644787
O O2 0.250000 0.807596 0.750000
O O3 0.336324 0.857040 0.653124
O O4 0.175652 0.818793 0.621281
O O5 0.881677 0.456466 0.127752
O O6 0.823550 0.551709 0.120477
O O7 0.000000 0.526645 0.088929
O O8 0.870959 0.500000 0.000000
O O9 0.500000 0.393286 0.314528
O O10 0.636110 0.426885 0.239533
O O11 0.750000 0.565810 0.250000
O O12 0.668378 0.508466 0.154907
O O13 0.674163 0.610803 0.136208
O O14 0.879784 0.585881 0.601693
O O15 0.000000 0.530419 0.671601
O O16 0.874183 0.849031 0.489838
O O17 0.000000 0.882667 0.404207
O O18 0.921299 0.797154 0.373970
O O19 0.500000 0.340339 0.087295
#
# Coordination Sequence:
#
# PCOD9537637 Si02
#       8
#    16  16  16  16  16  16   4  16
#     4  11  23  33  50  80 113 152 205 247 272 329
#     4  10  23  39  56  82 116 161 200 233 283 348
#     4  10  20  38  56  74 111 162 193 233 295 336
#     4  12  23  35  60  94 121 152 187 239 293 360
#     4  10  20  34  54  83 125 157 185 231 291 355
#     4   9  22  40  64  89 114 151 190 240 303 364
#     4   8  20  48  66  82 128 148 182 246 322 364
#     4  10  21  36  57  83 115 158 195 235 298 355
#
# _framework density 16.954917999999999
#
# number of rings (size 3 to 8) (size 9 to 14) (size 15 to 20)
#    0.414    1.379    2.759    1.241    4.828    1.103 
#    0.000    3.793    0.000    0.000    0.000    0.000 
#    0.000    0.000    0.000    0.000    0.000    0.000 
#
# Total GULP energy -323050.177775 kJ/mol
# GULP energy per Si atom -5569.830651 kJ/mol
# Density = 1.691633 g / cm^3
# Si number density = 16.954918 Si / 1000 Ang^3
#
#
#
# Elastic Constant Matrix: (Units=GPa)
#
#
# Indices 1 2 3 4 5 6 
#
# 1 79.4820 47.9351 31.8588 0.0000 0.0000 0.0000
# 2 47.9351 86.2589 13.4933 -0.0002 0.0000 0.0000
# 3 31.8588 13.4933 35.3798 -0.0003 0.0000 0.0000
# 4 0.0000 -0.0002 -0.0003 12.7823 0.0000 0.0000
# 5 0.0000 0.0000 0.0000 0.0000 20.5197 0.0000
# 6 0.0000 0.0000 0.0000 0.0000 0.0000 17.0611
#
#
#
# Elastic Compliance Matrix: (Units=1/GPa)
#
#
# Indices 1 2 3 4 5 6 
#
# 1 0.028566 -0.012603 -0.020917 -0.000001 0.000000 0.000000
# 2 -0.012603 0.017888 0.004526 0.000000 0.000000 0.000000
# 3 -0.020917 0.004526 0.045374 0.000001 0.000000 0.000000
# 4 -0.000001 0.000000 0.000001 0.078233 0.000000 0.000000
# 5 0.000000 0.000000 0.000000 0.000000 0.048734 0.000000
# 6 0.000000 0.000000 0.000000 0.000000 0.000000 0.058613
#
#
# Mechanical properties :
#
#
# Convention : Reuss Voigt Hill
#
# Bulk Modulus (GPa) = 29.54943 43.07723 36.31333
# Shear Modulus (GPa) = 14.42271 17.26151 15.84211
#
# Velocity S-wave (km/s) = 2.91976 3.19420 3.06006
# Velocity P-wave (km/s) = 5.36961 6.25028 5.82661
#
# Compressibility (1/GPa) = 0.03384160
#
# Stress axis : x y z
#
# Youngs Moduli (GPa) = 35.00656 55.90220 22.03913
#
# Poissons Ratio (x) = 0.70451 0.46099
# Poissons Ratio (y) = 0.44117 -0.09975
# Poissons Ratio (z) = 0.73223 -0.25301
#
# Static dielectric constant tensor:
#      x y z
#    x 1.601480 0.000000 0.000000 
#    y 0.000000 1.557570 0.000000 
#    z 0.000000 0.000000 1.564980 
# 
# From -- ./inp_files/43198.got.cif
#   From: 2010.05.17/outbox.cif.g08.bks.cpg/sg74_22_cif.got.tgz:43198.got - 2010.06.03 17:57:02.
