data_PCOD9537631
_publ_section_title
;
Structure prediction by ZEFSAII (Michael W. Deem and Ramdas Pophale) SiO2 
 PCOD9537631
Probable space group: I M M A
;
_chemical_formula_sum "Si O2"
_cell_formula_units_Z 112
_cell_length_a 13.920015
_cell_length_b 31.018629
_cell_length_c 10.019913
_cell_angle_alpha 90.000000
_cell_angle_beta 90.000000
_cell_angle_gamma 90.000000
_cell_volume 4326.395840
_symmetry_space_group_name_H-M "I M M A"
_symmetry_group_IT_number 74
_symmetry_cell_setting 'orthorhombic'
loop_
_space_group_symop_operation_xyz
x,y,z
-x,1/2-y,z
x,-y,-z
-x,1/2+y,-z
-x,-y,-z
x,1/2+y,-z
-x,y,z
x,1/2-y,z
1/2+x,1/2+y,1/2+z
1/2-x,-y,1/2+z
1/2+x,1/2-y,1/2-z
1/2-x,y,1/2-z
1/2-x,1/2-y,1/2-z
1/2+x,y,1/2-z
1/2-x,1/2+y,1/2+z
1/2+x,-y,1/2+z
loop_
_atom_site_type_symbol
_atom_site_label
_atom_site_fract_x
_atom_site_fract_y
_atom_site_fract_z
Si Si1 0.609980 0.573765 0.020026
Si Si2 0.705492 0.113480 0.605059
Si Si3 0.111207 0.562582 0.790985
Si Si4 0.315352 0.702511 0.458100
Si Si5 0.604360 0.299814 0.010489
Si Si6 0.387984 0.839589 0.701302
Si Si7 0.613996 0.529240 0.303342
O O1 0.500000 0.589817 0.042555
O O2 0.697404 0.607234 0.020742
O O3 0.631078 0.542829 0.147446
O O4 0.609767 0.556176 0.870007
O O5 0.750000 0.117253 0.750000
O O6 0.643130 0.156606 0.587844
O O7 0.648019 0.068848 0.606145
O O8 0.147702 0.610997 0.820159
O O9 0.155951 0.517657 0.839905
O O10 0.000000 0.564388 0.834159
O O11 0.349942 0.750000 0.418019
O O12 0.201805 0.698577 0.425031
O O13 0.329299 0.695382 0.616786
O O14 0.500000 0.308377 0.945072
O O15 0.602189 0.250000 0.056421
O O16 0.612077 0.328169 0.143280
O O17 0.500000 0.837044 0.660694
O O18 0.500000 0.525634 0.316548
#
# Coordination Sequence:
#
# PCOD9537631 Si02
#       7
#    16  16  16  16  16  16  16
#     4   9  17  33  59  86 113 145 182 226 274 324
#     4  10  22  39  56  81 110 143 187 231 277 323
#     4   9  17  32  57  86 114 146 182 223 273 324
#     4  11  23  38  57  79 106 144 188 232 279 331
#     4   9  18  34  56  82 112 143 177 224 279 329
#     4  10  20  34  54  83 117 148 179 217 267 332
#     4   9  18  35  57  81 113 150 187 227 269 320
#
# _framework density 25.887598000000001
#
# number of rings (size 3 to 8) (size 9 to 14) (size 15 to 20)
#    0.000    2.429    0.000    2.143    0.000    6.286 
#    0.000   12.143    0.000    2.571    0.000    7.000 
#    0.000    1.143    0.000    0.000    0.000    0.000 
#
# Total GULP energy -312639.150904 kJ/mol
# GULP energy per Si atom -5582.841980 kJ/mol
# Density = 2.582868 g / cm^3
# Si number density = 25.887598 Si / 1000 Ang^3
#
#
#
# Elastic Constant Matrix: (Units=GPa)
#
#
# Indices 1 2 3 4 5 6 
#
# 1 84.7081 15.5742 2.7334 -0.0007 0.0002 0.0000
# 2 15.5742 224.0116 13.2394 -0.0011 0.0001 -0.0001
# 3 2.7334 13.2394 26.7446 -0.0032 -0.0005 0.0003
# 4 -0.0007 -0.0011 -0.0032 26.9347 0.0002 -0.0002
# 5 0.0002 0.0001 -0.0005 0.0002 25.0952 -0.0001
# 6 0.0000 -0.0001 0.0003 -0.0002 -0.0001 22.5086
#
#
#
# Elastic Compliance Matrix: (Units=1/GPa)
#
#
# Indices 1 2 3 4 5 6 
#
# 1 0.011976 -0.000783 -0.000836 0.000000 0.000000 0.000000
# 2 -0.000783 0.004650 -0.002222 0.000000 0.000000 0.000000
# 3 -0.000836 -0.002222 0.038576 0.000004 0.000001 -0.000001
# 4 0.000000 0.000000 0.000004 0.037127 0.000000 0.000000
# 5 0.000000 0.000000 0.000001 0.000000 0.039848 0.000000
# 6 0.000000 0.000000 -0.000001 0.000000 0.000000 0.044428
#
#
# Mechanical properties :
#
#
# Convention : Reuss Voigt Hill
#
# Bulk Modulus (GPa) = 21.04396 44.28425 32.66411
# Shear Modulus (GPa) = 24.98412 35.16884 30.07648
#
# Velocity S-wave (km/s) = 3.10998 3.68981 3.41223
# Velocity P-wave (km/s) = 4.58722 5.94108 5.30749
#
# Compressibility (1/GPa) = 0.04751956
#
# Stress axis : x y z
#
# Youngs Moduli (GPa) = 83.49871 215.06236 25.92283
#
# Poissons Ratio (x) = 0.16844 0.02168
# Poissons Ratio (y) = 0.06540 0.05759
# Poissons Ratio (z) = 0.06983 0.47782
#
# Static dielectric constant tensor:
#      x y z
#    x 2.060360 0.000000 0.000000 
#    y 0.000000 2.114360 0.000000 
#    z 0.000000 0.000000 2.053790 
# 
# From -- ./inp_files/21183.got.cif
#   From: 2010.05.17/outbox.cif.g08.bks.cpg/sg74_11_cif.got.tgz:21183.got - 2010.06.03 17:57:02.
