data_PCOD9537927
_publ_section_title
;
Structure prediction by ZEFSAII (Michael W. Deem and Ramdas Pophale) SiO2 
 PCOD9537927
Probable space group: I M M A
;
_chemical_formula_sum "Si O2"
_cell_formula_units_Z 96
_cell_length_a 8.951506
_cell_length_b 23.825536
_cell_length_c 25.843980
_cell_angle_alpha 90.000000
_cell_angle_beta 90.000000
_cell_angle_gamma 90.000000
_cell_volume 5511.860064
_symmetry_space_group_name_H-M "I M M A"
_symmetry_group_IT_number 74
_symmetry_cell_setting 'orthorhombic'
loop_
_space_group_symop_operation_xyz
x,y,z
-x,1/2-y,z
x,-y,-z
-x,1/2+y,-z
-x,-y,-z
x,1/2+y,-z
-x,y,z
x,1/2-y,z
1/2+x,1/2+y,1/2+z
1/2-x,-y,1/2+z
1/2+x,1/2-y,1/2-z
1/2-x,y,1/2-z
1/2-x,1/2-y,1/2-z
1/2+x,y,1/2-z
1/2-x,1/2+y,1/2+z
1/2+x,-y,1/2+z
loop_
_atom_site_type_symbol
_atom_site_label
_atom_site_fract_x
_atom_site_fract_y
_atom_site_fract_z
Si Si1 0.820643 0.996265 0.438981
Si Si2 0.321200 0.879769 0.899997
Si Si3 0.323329 0.316709 0.993648
Si Si4 0.178450 0.815495 0.306270
Si Si5 0.822364 0.382589 0.899884
Si Si6 0.321635 0.315345 0.305328
O O1 0.738761 0.944578 0.412184
O O2 0.000000 0.987407 0.436361
O O3 0.781817 0.000000 0.500000
O O4 0.785408 0.055554 0.412245
O O5 0.500000 0.875408 0.892364
O O6 0.239582 0.854388 0.850655
O O7 0.284075 0.844058 0.951337
O O8 0.500000 0.328665 0.984169
O O9 0.303806 0.250000 0.995108
O O10 0.229246 0.344518 0.948221
O O11 0.208048 0.750000 0.320281
O O12 0.250000 0.825200 0.250000
O O13 0.248683 0.855891 0.348947
O O14 0.000000 0.822760 0.303956
O O15 0.000000 0.382807 0.895023
O O16 0.500000 0.319271 0.301872
O O17 0.282119 0.250000 0.316546
O O18 0.250000 0.329707 0.250000
#
# Coordination Sequence:
#
# PCOD9537927 Si02
#       6
#    16  16  16  16  16  16
#     4  10  20  39  62  81 109 152 198 239 284 339
#     4  10  20  36  60  85 110 145 190 238 285 336
#     4  10  20  35  56  82 113 149 189 233 283 341
#     4  10  21  39  63  88 116 151 191 236 288 344
#     4  12  24  36  55  84 119 153 191 236 284 340
#     4  10  21  37  58  84 116 152 188 230 281 338
#
# _framework density 17.416986999999999
#
# number of rings (size 3 to 8) (size 9 to 14) (size 15 to 20)
#    0.000    1.667    1.667    3.500    0.000    6.667 
#    0.000    0.833    0.000    4.000    0.000    0.000 
#    0.000    0.000    0.000    0.000    0.000    0.000 
#
# Total GULP energy -268227.601601 kJ/mol
# GULP energy per Si atom -5588.075033 kJ/mol
# Density = 1.737735 g / cm^3
# Si number density = 17.416987 Si / 1000 Ang^3
#
#
#
# Elastic Constant Matrix: (Units=GPa)
#
#
# Indices 1 2 3 4 5 6 
#
# 1 80.6447 73.6842 77.9594 0.0000 0.0000 0.0000
# 2 73.6842 121.3637 95.6840 0.0000 0.0000 0.0000
# 3 77.9594 95.6840 146.6721 0.0000 0.0000 0.0000
# 4 0.0000 0.0000 0.0000 0.0031 0.0000 0.0000
# 5 0.0000 0.0000 0.0000 0.0000 34.5102 0.0000
# 6 0.0000 0.0000 0.0000 0.0000 0.0000 1.6993
#
#
#
# Elastic Compliance Matrix: (Units=1/GPa)
#
#
# Indices 1 2 3 4 5 6 
#
# 1 0.032929 -0.012752 -0.009184 0.000017 0.000000 0.000000
# 2 -0.012752 0.021904 -0.007511 -0.000023 0.000000 0.000000
# 3 -0.009184 -0.007511 0.016599 0.000003 0.000000 0.000000
# 4 0.000017 -0.000023 0.000003319.820636 -0.000001 -0.000407
# 5 0.000000 0.000000 0.000000 -0.000001 0.028977 0.000000
# 6 0.000000 0.000000 0.000000 -0.000407 0.000000 0.588479
#
#
# Mechanical properties :
#
#
# Convention : Reuss Voigt Hill
#
# Bulk Modulus (GPa) = 79.75453 93.70395 86.72924
# Shear Modulus (GPa) = 0.01560 13.99938 7.00749
#
# Velocity S-wave (km/s) = 0.09473 2.83817 2.00801
# Velocity P-wave (km/s) = 6.77515 8.04098 7.43505
#
# Compressibility (1/GPa) = 0.01253847
#
# Stress axis : x y z
#
# Youngs Moduli (GPa) = 30.36803 45.65366 60.24322
#
# Poissons Ratio (x) = 0.58218 0.55325
# Poissons Ratio (y) = 0.38726 0.45251
# Poissons Ratio (z) = 0.27889 0.34292
#
# Static dielectric constant tensor:
#      x y z
#    x 1.567760 0.000000 0.000000 
#    y 0.000000 1.576880 0.000000 
#    z 0.000000 0.000000 1.556580 
# 
# From -- ./inp_files/57251.got.cif
#   From: 2010.05.17/outbox.cif.g08.bks.cpg/sg74_29_cif.got.tgz:57251.got - 2010.06.03 17:57:02.
