data_PCOD9537985
_publ_section_title
;
Structure prediction by ZEFSAII (Michael W. Deem and Ramdas Pophale) SiO2 
 PCOD9537985
Probable space group: I M M A
;
_chemical_formula_sum "Si O2"
_cell_formula_units_Z 112
_cell_length_a 26.399082
_cell_length_b 13.952859
_cell_length_c 14.024035
_cell_angle_alpha 90.000000
_cell_angle_beta 90.000000
_cell_angle_gamma 90.000000
_cell_volume 5165.650480
_symmetry_space_group_name_H-M "I M M A"
_symmetry_group_IT_number 74
_symmetry_cell_setting 'orthorhombic'
loop_
_space_group_symop_operation_xyz
x,y,z
-x,1/2-y,z
x,-y,-z
-x,1/2+y,-z
-x,-y,-z
x,1/2+y,-z
-x,y,z
x,1/2-y,z
1/2+x,1/2+y,1/2+z
1/2-x,-y,1/2+z
1/2+x,1/2-y,1/2-z
1/2-x,y,1/2-z
1/2-x,1/2-y,1/2-z
1/2+x,y,1/2-z
1/2-x,1/2+y,1/2+z
1/2+x,-y,1/2+z
loop_
_atom_site_type_symbol
_atom_site_label
_atom_site_fract_x
_atom_site_fract_y
_atom_site_fract_z
Si Si1 0.751494 0.866393 0.638664
Si Si2 0.395753 0.863433 0.148617
Si Si3 0.639841 0.134566 0.065269
Si Si4 0.696698 0.634565 0.290393
Si Si5 0.556802 0.634714 0.586919
Si Si6 0.662057 0.365948 0.502181
Si Si7 0.443972 0.451582 0.203571
O O1 0.752621 0.750000 0.635316
O O2 0.750000 0.891692 0.750000
O O3 0.803456 0.900405 0.589127
O O4 0.701803 0.894592 0.579553
O O5 0.407879 0.750000 0.153662
O O6 0.347667 0.883470 0.215781
O O7 0.438475 0.935032 0.185794
O O8 0.379360 0.888091 0.040857
O O9 0.640935 0.250000 0.071597
O O10 0.600129 0.095999 0.141805
O O11 0.701356 0.750000 0.297997
O O12 0.750000 0.599337 0.250000
O O13 0.681177 0.600457 0.394991
O O14 0.500000 0.616607 0.548074
O O15 0.560054 0.750000 0.605589
O O16 0.604228 0.608266 0.521162
O O17 0.561867 0.579436 0.686879
O O18 0.662775 0.250000 0.504485
O O19 0.500000 0.419097 0.172511
#
# Coordination Sequence:
#
# PCOD9537985 Si02
#       7
#    16  16  16  16  16  16  16
#     4   9  16  27  49  84 121 150 177 218 278 346
#     4  10  22  39  57  79 110 148 190 235 282 336
#     4  10  20  35  57  85 116 148 183 228 286 348
#     4   9  17  33  58  84 112 151 197 238 279 334
#     4   9  18  34  57  86 119 153 191 238 292 348
#     4   9  16  29  54  86 119 156 194 233 284 344
#     4  11  23  39  59  82 110 146 190 241 294 348
#
# _framework density 21.681684000000001
#
# number of rings (size 3 to 8) (size 9 to 14) (size 15 to 20)
#    0.000    2.429    0.000    2.571    0.000    8.000 
#    0.000    5.000    0.000    4.286    0.000    0.000 
#    0.000    0.000    0.000    0.000    0.000    0.000 
#
# Total GULP energy -313043.173297 kJ/mol
# GULP energy per Si atom -5590.056666 kJ/mol
# Density = 2.163234 g / cm^3
# Si number density = 21.681684 Si / 1000 Ang^3
#
#
#
# Elastic Constant Matrix: (Units=GPa)
#
#
# Indices 1 2 3 4 5 6 
#
# 1 170.4250 20.9084 77.2848 0.0000 0.0000 0.0000
# 2 20.9084 77.1427 15.6797 0.0000 0.0000 0.0000
# 3 77.2848 15.6797 113.8755 0.0000 0.0000 0.0000
# 4 0.0000 0.0000 0.0000 -2.8806 0.0000 0.0000
# 5 0.0000 0.0000 0.0000 0.0000 18.8045 0.0000
# 6 0.0000 0.0000 0.0000 0.0000 0.0000 1.3699
#
#
#
# Elastic Compliance Matrix: (Units=1/GPa)
#
#
# Indices 1 2 3 4 5 6 
#
# 1 0.008579 -0.001175 -0.005660 0.000000 0.000000 0.000000
# 2 -0.001175 0.013497 -0.001061 0.000000 0.000000 0.000000
# 3 -0.005660 -0.001061 0.012769 0.000000 0.000000 0.000000
# 4 0.000000 0.000000 0.000000 -0.347147 0.000000 0.000000
# 5 0.000000 0.000000 0.000000 0.000000 0.053179 0.000000
# 6 0.000000 0.000000 0.000000 0.000000 0.000000 0.730000
#
#
# Mechanical properties :
#
#
# Convention : Reuss Voigt Hill
#
# Bulk Modulus (GPa) = 52.48680 65.46546 58.97613
# Shear Modulus (GPa) = 10.14159 19.96343 15.05251
#
# Velocity S-wave (km/s) = 2.16510 3.03768 2.63772
# Velocity P-wave (km/s) = 5.52364 6.52402 6.04456
#
# Compressibility (1/GPa) = 0.01905241
#
# Stress axis : x y z
#
# Youngs Moduli (GPa) = 116.56772 74.09025 78.31305
#
# Poissons Ratio (x) = 0.08703 0.44329
# Poissons Ratio (y) = 0.13692 0.08311
# Poissons Ratio (z) = 0.65983 0.07863
#
# Static dielectric constant tensor:
#      x y z
#    x 1.744310 0.000000 0.000000 
#    y 0.000000 1.819270 0.000000 
#    z 0.000000 0.000000 1.732710 
# 
# From -- ./inp_files/32713.got.cif
#   From: 2010.05.17/outbox.cif.g08.bks.cpg/sg74_17_cif.got.tgz:32713.got - 2010.06.03 17:57:02.
