data_PCOD9537099
_publ_section_title
;
Structure prediction by ZEFSAII (Michael W. Deem and Ramdas Pophale) SiO2 
 PCOD9537099
Probable space group: I M M A
;
_chemical_formula_sum "Si O2"
_cell_formula_units_Z 64
_cell_length_a 12.581348
_cell_length_b 7.239787
_cell_length_c 35.094281
_cell_angle_alpha 90.000000
_cell_angle_beta 90.000000
_cell_angle_gamma 90.000000
_cell_volume 3196.607495
_symmetry_space_group_name_H-M "I M M A"
_symmetry_group_IT_number 74
_symmetry_cell_setting 'orthorhombic'
loop_
_space_group_symop_operation_xyz
x,y,z
-x,1/2-y,z
x,-y,-z
-x,1/2+y,-z
-x,-y,-z
x,1/2+y,-z
-x,y,z
x,1/2-y,z
1/2+x,1/2+y,1/2+z
1/2-x,-y,1/2+z
1/2+x,1/2-y,1/2-z
1/2-x,y,1/2-z
1/2-x,1/2-y,1/2-z
1/2+x,y,1/2-z
1/2-x,1/2+y,1/2+z
1/2+x,-y,1/2+z
loop_
_atom_site_type_symbol
_atom_site_label
_atom_site_fract_x
_atom_site_fract_y
_atom_site_fract_z
Si Si1 0.000000 0.025709 0.601336
Si Si2 0.186302 0.750000 0.710518
Si Si3 0.173590 0.968846 0.457195
Si Si4 0.881639 0.028967 0.919579
Si Si5 0.375809 0.750000 0.648610
Si Si6 0.000000 0.474141 0.690512
O O1 0.100051 0.960056 0.576702
O O2 0.000000 0.977355 0.645386
O O3 0.000000 0.250000 0.600882
O O4 0.250000 0.750000 0.750000
O O5 0.279635 0.750000 0.678586
O O6 0.105948 0.574185 0.706786
O O7 0.173743 0.750000 0.452909
O O8 0.292890 0.032509 0.449466
O O9 0.135459 0.000000 0.500000
O O10 0.874905 0.250000 0.914068
O O11 0.000000 0.983529 0.932833
O O12 0.864855 0.925694 0.879558
O O13 0.500000 0.750000 0.663244
O O14 0.000000 0.250000 0.695215
#
# Coordination Sequence:
#
# PCOD9537099 Si02
#       6
#     8   8  16  16   8   8
#     4   9  18  36  58  79 113 153 206 250 292 373
#     4  11  25  42  68 101 137 160 204 268 323 385
#     4  10  20  32  49  77 112 152 195 260 315 355
#     4   9  19  36  55  79 112 153 209 258 302 372
#     4  10  21  37  64  91 119 169 208 257 325 385
#     4  10  23  46  71  96 127 179 214 249 319 389
#
# _framework density 20.021225999999999
#
# number of rings (size 3 to 8) (size 9 to 14) (size 15 to 20)
#    0.000    2.250    0.000    1.875    3.500    4.000 
#    4.500    0.000    0.000    0.000    0.000    0.000 
#    0.000    0.000    0.000    0.000    0.000    0.000 
#
# Total GULP energy -178483.355306 kJ/mol
# GULP energy per Si atom -5577.604853 kJ/mol
# Density = 1.997566 g / cm^3
# Si number density = 20.021226 Si / 1000 Ang^3
#
#
#
# Elastic Constant Matrix: (Units=GPa)
#
#
# Indices 1 2 3 4 5 6 
#
# 1 141.6971 32.8782 71.5090 0.0000 0.0000 0.0000
# 2 32.8782 114.7942 19.9180 0.0000 0.0000 0.0000
# 3 71.5090 19.9180 108.0616 0.0000 0.0000 0.0000
# 4 0.0000 0.0000 0.0000 22.1824 0.0000 0.0000
# 5 0.0000 0.0000 0.0000 0.0000 25.8128 0.0000
# 6 0.0000 0.0000 0.0000 0.0000 0.0000 2.2131
#
#
#
# Elastic Compliance Matrix: (Units=1/GPa)
#
#
# Indices 1 2 3 4 5 6 
#
# 1 0.011003 -0.001950 -0.006922 0.000000 0.000000 0.000000
# 2 -0.001950 0.009345 -0.000432 0.000000 0.000000 0.000000
# 3 -0.006922 -0.000432 0.013914 0.000000 0.000000 0.000000
# 4 0.000000 0.000000 0.000000 0.045081 0.000000 0.000000
# 5 0.000000 0.000000 0.000000 0.000000 0.038740 0.000000
# 6 0.000000 0.000000 0.000000 0.000000 0.000000 0.451851
#
#
# Mechanical properties :
#
#
# Convention : Reuss Voigt Hill
#
# Bulk Modulus (GPa) = 63.88131 68.12927 66.00529
# Shear Modulus (GPa) = 8.42093 26.05818 17.23956
#
# Velocity S-wave (km/s) = 2.05308 3.61158 2.93757
# Velocity P-wave (km/s) = 6.13158 7.17592 6.67420
#
# Compressibility (1/GPa) = 0.01565403
#
# Stress axis : x y z
#
# Youngs Moduli (GPa) = 90.88491 107.01178 71.87060
#
# Poissons Ratio (x) = 0.20871 0.49746
# Poissons Ratio (y) = 0.17726 0.03103
# Poissons Ratio (z) = 0.62907 0.04621
#
# Static dielectric constant tensor:
#      x y z
#    x 1.752780 0.000000 0.000000 
#    y 0.000000 1.711020 0.000000 
#    z 0.000000 0.000000 1.679150 
# 
# From -- ./inp_files/71330.got.cif
#   From: 2010.05.17/outbox.cif.g08.bks.cpg/sg74_36_cif.got.tgz:71330.got - 2010.06.03 17:57:02.
