data_PCOD9537134
_publ_section_title
;
Structure prediction by ZEFSAII (Michael W. Deem and Ramdas Pophale) SiO2 
 PCOD9537134
Probable space group: I M M A
;
_chemical_formula_sum "Si O2"
_cell_formula_units_Z 72
_cell_length_a 16.224853
_cell_length_b 7.878333
_cell_length_c 29.297504
_cell_angle_alpha 90.000000
_cell_angle_beta 90.000000
_cell_angle_gamma 90.000000
_cell_volume 3744.947437
_symmetry_space_group_name_H-M "I M M A"
_symmetry_group_IT_number 74
_symmetry_cell_setting 'orthorhombic'
loop_
_space_group_symop_operation_xyz
x,y,z
-x,1/2-y,z
x,-y,-z
-x,1/2+y,-z
-x,-y,-z
x,1/2+y,-z
-x,y,z
x,1/2-y,z
1/2+x,1/2+y,1/2+z
1/2-x,-y,1/2+z
1/2+x,1/2-y,1/2-z
1/2-x,y,1/2-z
1/2-x,1/2-y,1/2-z
1/2+x,y,1/2-z
1/2-x,1/2+y,1/2+z
1/2+x,-y,1/2+z
loop_
_atom_site_type_symbol
_atom_site_label
_atom_site_fract_x
_atom_site_fract_y
_atom_site_fract_z
Si Si1 0.256434 0.955698 0.642553
Si Si2 0.500000 0.546345 0.946480
Si Si3 0.680594 0.954264 0.947231
Si Si4 0.908163 0.950325 0.205159
Si Si5 0.908348 0.551382 0.691633
O O1 0.256478 0.750000 0.644259
O O2 0.247445 0.010122 0.589817
O O3 0.173008 0.018614 0.667537
O O4 0.337008 0.012513 0.669260
O O5 0.500000 0.750000 0.940451
O O6 0.410472 0.483843 0.930777
O O7 0.500000 0.500000 0.000000
O O8 0.677542 0.750000 0.945861
O O9 0.694012 0.000000 0.000000
O O10 0.907896 0.750000 0.214754
O O11 0.000000 0.998317 0.188620
O O12 0.895212 0.039082 0.253938
O O13 0.912287 0.750000 0.678611
O O14 0.000000 0.478698 0.681580
#
# Coordination Sequence:
#
# PCOD9537134 Si02
#       5
#    16   8  16  16  16
#     4  10  20  32  51  77 101 130 169 207 244 290
#     4   8  14  26  44  64  92 128 160 190 228 276
#     4   9  18  31  48  71 100 132 165 201 241 286
#     4  10  21  36  52  71  98 131 166 207 255 300
#     4   9  18  32  51  75 104 135 165 199 240 291
#
# _framework density 19.225904
#
# number of rings (size 3 to 8) (size 9 to 14) (size 15 to 20)
#    0.000    2.667    0.000    1.333    1.556    5.778 
#    0.000    0.000    0.000    0.667    0.000    0.000 
#    0.000    0.000    0.000    0.000    0.000    0.000 
#
# Total GULP energy -200682.065180 kJ/mol
# GULP energy per Si atom -5574.501811 kJ/mol
# Density = 1.918214 g / cm^3
# Si number density = 19.225904 Si / 1000 Ang^3
#
#
#
# Elastic Constant Matrix: (Units=GPa)
#
#
# Indices 1 2 3 4 5 6 
#
# 1 121.0103 6.7010 74.8855 0.0000 0.0000 0.0000
# 2 6.7010 24.2720 1.2871 0.0000 0.0000 0.0000
# 3 74.8855 1.2871 85.3061 0.0000 0.0000 0.0000
# 4 0.0000 0.0000 0.0000 8.7066 0.0000 0.0000
# 5 0.0000 0.0000 0.0000 0.0000 26.3387 0.0000
# 6 0.0000 0.0000 0.0000 0.0000 0.0000 4.8578
#
#
#
# Elastic Compliance Matrix: (Units=1/GPa)
#
#
# Indices 1 2 3 4 5 6 
#
# 1 0.018521 -0.004254 -0.016194 0.000000 0.000000 0.000000
# 2 -0.004254 0.042210 0.003098 0.000000 0.000000 0.000000
# 3 -0.016194 0.003098 0.025892 0.000000 0.000000 0.000000
# 4 0.000000 0.000000 0.000000 0.114855 0.000000 0.000000
# 5 0.000000 0.000000 0.000000 0.000000 0.037967 0.000000
# 6 0.000000 0.000000 0.000000 0.000000 0.000000 0.205853
#
#
# Mechanical properties :
#
#
# Convention : Reuss Voigt Hill
#
# Bulk Modulus (GPa) = 19.26004 44.03730 31.64867
# Shear Modulus (GPa) = 10.05414 17.82828 13.94121
#
# Velocity S-wave (km/s) = 2.28929 3.04847 2.69574
# Velocity P-wave (km/s) = 4.12641 5.94524 5.11728
#
# Compressibility (1/GPa) = 0.05192098
#
# Stress axis : x y z
#
# Youngs Moduli (GPa) = 53.99269 23.69106 38.62211
#
# Poissons Ratio (x) = 0.10079 0.62546
# Poissons Ratio (y) = 0.22971 -0.11965
# Poissons Ratio (z) = 0.87438 -0.07339
#
# Static dielectric constant tensor:
#      x y z
#    x 1.684790 0.000000 0.000000 
#    y 0.000000 1.718820 0.000000 
#    z 0.000000 0.000000 1.667800 
# 
# From -- ./inp_files/56659.got.cif
#   From: 2010.05.17/outbox.cif.g08.bks.cpg/sg74_29_cif.got.tgz:56659.got - 2010.06.03 17:57:02.
