data_PCOD9537999
_publ_section_title
;
Structure prediction by ZEFSAII (Michael W. Deem and Ramdas Pophale) SiO2 
 PCOD9537999
Probable space group: I M M A
;
_chemical_formula_sum "Si O2"
_cell_formula_units_Z 112
_cell_length_a 15.102876
_cell_length_b 13.749657
_cell_length_c 26.654890
_cell_angle_alpha 90.000000
_cell_angle_beta 90.000000
_cell_angle_gamma 90.000000
_cell_volume 5535.137524
_symmetry_space_group_name_H-M "I M M A"
_symmetry_group_IT_number 74
_symmetry_cell_setting 'orthorhombic'
loop_
_space_group_symop_operation_xyz
x,y,z
-x,1/2-y,z
x,-y,-z
-x,1/2+y,-z
-x,-y,-z
x,1/2+y,-z
-x,y,z
x,1/2-y,z
1/2+x,1/2+y,1/2+z
1/2-x,-y,1/2+z
1/2+x,1/2-y,1/2-z
1/2-x,y,1/2-z
1/2-x,1/2-y,1/2-z
1/2+x,y,1/2-z
1/2-x,1/2+y,1/2+z
1/2+x,-y,1/2+z
loop_
_atom_site_type_symbol
_atom_site_label
_atom_site_fract_x
_atom_site_fract_y
_atom_site_fract_z
Si Si1 0.105300 0.364316 0.925732
Si Si2 0.144803 0.361189 0.740739
Si Si3 0.396522 0.024365 0.859395
Si Si4 0.401092 0.101030 0.970343
Si Si5 0.100751 0.999593 0.831041
Si Si6 0.752285 0.367188 0.132380
Si Si7 0.282607 0.357688 0.482039
O O1 0.127966 0.250000 0.917157
O O2 0.124690 0.426548 0.876307
O O3 0.000000 0.369847 0.935142
O O4 0.159122 0.402942 0.973686
O O5 0.112571 0.250000 0.746758
O O6 0.250000 0.360573 0.750000
O O7 0.125009 0.402675 0.685776
O O8 0.105831 0.436363 0.780927
O O9 0.500000 0.998034 0.858116
O O10 0.335873 0.928618 0.855892
O O11 0.380870 0.078431 0.912369
O O12 0.500000 0.144655 0.973797
O O13 0.316907 0.148922 0.996426
O O14 0.406489 0.000000 0.000000
O O15 0.169947 0.911437 0.833257
O O16 0.000000 0.965734 0.838745
O O17 0.742531 0.250000 0.136016
O O18 0.776934 0.394075 0.074617
O O19 0.322032 0.250000 0.476553
#
# Coordination Sequence:
#
# PCOD9537999 Si02
#       7
#    16  16  16  16  16  16  16
#     4   9  19  35  58  91 126 160 202 251 306 373
#     4  11  24  43  70 100 129 159 194 246 312 379
#     4  11  23  41  65  92 126 165 207 254 310 369
#     4  10  20  35  57  86 121 158 202 252 299 358
#     4  11  23  41  65  91 123 165 208 251 309 374
#     4  11  24  42  61  88 124 163 213 266 308 354
#     4  10  21  35  57  84 120 165 205 254 309 361
#
# _framework density 20.234366000000001
#
# number of rings (size 3 to 8) (size 9 to 14) (size 15 to 20)
#    0.000    1.571    2.857    1.714    0.000    3.714 
#    0.000    7.143    0.000    1.714    0.000    0.000 
#    0.000    0.000    0.000    0.000    0.000    0.000 
#
# Total GULP energy -312634.805181 kJ/mol
# GULP energy per Si atom -5582.764378 kJ/mol
# Density = 2.018831 g / cm^3
# Si number density = 20.234366 Si / 1000 Ang^3
#
#
#
# Elastic Constant Matrix: (Units=GPa)
#
#
# Indices 1 2 3 4 5 6 
#
# 1 21.9484 14.0309 12.4935 0.0000 0.0000 0.0000
# 2 14.0309 90.9011 30.4905 0.0000 0.0000 0.0000
# 3 12.4935 30.4905 114.0064 0.0000 0.0000 0.0000
# 4 0.0000 0.0000 0.0000 -33.6975 0.0000 0.0000
# 5 0.0000 0.0000 0.0000 0.0000 50.2445 0.0000
# 6 0.0000 0.0000 0.0000 0.0000 0.0000 13.5508
#
#
#
# Elastic Compliance Matrix: (Units=1/GPa)
#
#
# Indices 1 2 3 4 5 6 
#
# 1 0.052088 -0.006729 -0.003908 0.000000 0.000000 0.000000
# 2 -0.006729 0.012954 -0.002727 0.000000 0.000000 0.000000
# 3 -0.003908 -0.002727 0.009929 0.000000 0.000000 0.000000
# 4 0.000000 0.000000 0.000000 -0.029676 0.000000 0.000000
# 5 0.000000 0.000000 0.000000 0.000000 0.019903 0.000000
# 6 0.000000 0.000000 0.000000 0.000000 0.000000 0.073797
#
#
# Mechanical properties :
#
#
# Convention : Reuss Voigt Hill
#
# Bulk Modulus (GPa) = 20.72877 37.87617 29.30247
# Shear Modulus (GPa) = 27.50206 17.34228 22.42217
#
# Velocity S-wave (km/s) = 3.69070 2.93075 3.33246
# Velocity P-wave (km/s) = 5.33182 5.49653 5.41480
#
# Compressibility (1/GPa) = 0.04824212
#
# Stress axis : x y z
#
# Youngs Moduli (GPa) = 19.19837 77.19410 100.71384
#
# Poissons Ratio (x) = 0.51943 0.39364
# Poissons Ratio (y) = 0.12918 0.27467
# Poissons Ratio (z) = 0.07504 0.21052
#
# Static dielectric constant tensor:
#      x y z
#    x 1.724980 0.000000 0.000000 
#    y 0.000000 1.707560 0.000000 
#    z 0.000000 0.000000 1.704800 
# 
# From -- ./inp_files/60106.got.cif
#   From: 2010.05.17/outbox.cif.g08.bks.cpg/sg74_31_cif.got.tgz:60106.got - 2010.06.03 17:57:02.
