data_PCOD9537709
_publ_section_title
;
Structure prediction by ZEFSAII (Michael W. Deem and Ramdas Pophale) SiO2 
 PCOD9537709
Probable space group: I M M A
;
_chemical_formula_sum "Si O2"
_cell_formula_units_Z 112
_cell_length_a 33.030645
_cell_length_b 14.647028
_cell_length_c 10.804530
_cell_angle_alpha 90.000000
_cell_angle_beta 90.000000
_cell_angle_gamma 90.000000
_cell_volume 5227.240065
_symmetry_space_group_name_H-M "I M M A"
_symmetry_group_IT_number 74
_symmetry_cell_setting 'orthorhombic'
loop_
_space_group_symop_operation_xyz
x,y,z
-x,1/2-y,z
x,-y,-z
-x,1/2+y,-z
-x,-y,-z
x,1/2+y,-z
-x,y,z
x,1/2-y,z
1/2+x,1/2+y,1/2+z
1/2-x,-y,1/2+z
1/2+x,1/2-y,1/2-z
1/2-x,y,1/2-z
1/2-x,1/2-y,1/2-z
1/2+x,y,1/2-z
1/2-x,1/2+y,1/2+z
1/2+x,-y,1/2+z
loop_
_atom_site_type_symbol
_atom_site_label
_atom_site_fract_x
_atom_site_fract_y
_atom_site_fract_z
Si Si1 0.545022 0.493421 0.286320
Si Si2 0.370630 0.469892 0.190160
Si Si3 0.680633 0.354137 0.740259
Si Si4 0.314201 0.651231 0.969475
Si Si5 0.934783 0.858893 0.013346
Si Si6 0.266743 0.599622 0.497173
Si Si7 0.349873 0.355060 0.413152
O O1 0.500000 0.487863 0.233558
O O2 0.581405 0.489814 0.186580
O O3 0.549408 0.586113 0.368080
O O4 0.549816 0.412893 0.390822
O O5 0.349683 0.559311 0.251726
O O6 0.343901 0.426805 0.079890
O O7 0.368153 0.386434 0.285733
O O8 0.664428 0.250000 0.718406
O O9 0.715633 0.368399 0.636780
O O10 0.694550 0.354421 0.883101
O O11 0.333176 0.750000 0.944148
O O12 0.267608 0.651901 0.926059
O O13 0.943474 0.750000 0.010782
O O14 0.885865 0.870536 0.010052
O O15 0.247650 0.500000 0.500000
O O16 0.308799 0.591346 0.569480
O O17 0.338543 0.250000 0.416548
#
# Coordination Sequence:
#
# PCOD9537709 Si02
#       7
#    16  16  16  16  16  16  16
#     4  10  21  34  56  88 122 163 211 262 318 383
#     4  11  22  41  60  85 125 163 209 256 309 377
#     4  11  23  41  64  88 117 161 211 258 309 371
#     4  11  25  42  62  86 116 161 211 260 308 360
#     4   9  18  33  55  86 128 170 206 253 318 381
#     4  12  22  37  60  91 127 157 200 249 307 370
#     4  10  20  34  56  86 124 168 203 244 301 367
#
# _framework density 21.426221999999999
#
# number of rings (size 3 to 8) (size 9 to 14) (size 15 to 20)
#    0.000    1.429    1.429    5.143    2.000    5.143 
#    0.000    1.429    0.000    1.714    0.000    2.000 
#    0.000    0.000    0.000    0.000    0.000    0.000 
#
# Total GULP energy -311888.623917 kJ/mol
# GULP energy per Si atom -5569.439713 kJ/mol
# Density = 2.137746 g / cm^3
# Si number density = 21.426222 Si / 1000 Ang^3
#
#
#
# Elastic Constant Matrix: (Units=GPa)
#
#
# Indices 1 2 3 4 5 6 
#
# 1 152.6799 35.2941 26.9845 0.0000 0.0000 0.0000
# 2 35.2941 127.2262 15.6088 0.0000 0.0000 0.0000
# 3 26.9845 15.6088 44.8550 0.0000 0.0000 0.0000
# 4 0.0000 0.0000 0.0000 25.3167 0.0000 0.0000
# 5 0.0000 0.0000 0.0000 0.0000 22.5262 0.0000
# 6 0.0000 0.0000 0.0000 0.0000 0.0000 17.1990
#
#
#
# Elastic Compliance Matrix: (Units=1/GPa)
#
#
# Indices 1 2 3 4 5 6 
#
# 1 0.007637 -0.001624 -0.004029 0.000000 0.000000 0.000000
# 2 -0.001624 0.008556 -0.002000 0.000000 0.000000 0.000000
# 3 -0.004029 -0.002000 0.025414 0.000000 0.000000 0.000000
# 4 0.000000 0.000000 0.000000 0.039500 0.000000 0.000000
# 5 0.000000 0.000000 0.000000 0.000000 0.044393 0.000000
# 6 0.000000 0.000000 0.000000 0.000000 0.000000 0.058143
#
#
# Mechanical properties :
#
#
# Convention : Reuss Voigt Hill
#
# Bulk Modulus (GPa) = 38.02313 53.39287 45.70800
# Shear Modulus (GPa) = 24.07121 29.46661 26.76891
#
# Velocity S-wave (km/s) = 3.35542 3.71247 3.53845
# Velocity P-wave (km/s) = 5.72681 6.58408 6.17035
#
# Compressibility (1/GPa) = 0.02629978
#
# Stress axis : x y z
#
# Youngs Moduli (GPa) = 130.93685 116.87677 39.34828
#
# Poissons Ratio (x) = 0.18985 0.15855
# Poissons Ratio (y) = 0.21269 0.07870
# Poissons Ratio (z) = 0.52758 0.23377
#
# Static dielectric constant tensor:
#      x y z
#    x 1.851310 0.000000 0.000000 
#    y 0.000000 1.774300 0.000000 
#    z 0.000000 0.000000 1.875650 
# 
# From -- ./inp_files/27231.got.cif
#   From: 2010.05.17/outbox.cif.g08.bks.cpg/sg74_14_cif.got.tgz:27231.got - 2010.06.03 17:57:02.
