data_PCOD9537808
_publ_section_title
;
Structure prediction by ZEFSAII (Michael W. Deem and Ramdas Pophale) SiO2 
 PCOD9537808
Probable space group: I M M A
;
_chemical_formula_sum "Si O2"
_cell_formula_units_Z 68
_cell_length_a 7.240682
_cell_length_b 17.359979
_cell_length_c 26.491606
_cell_angle_alpha 90.000000
_cell_angle_beta 90.000000
_cell_angle_gamma 90.000000
_cell_volume 3329.944208
_symmetry_space_group_name_H-M "I M M A"
_symmetry_group_IT_number 74
_symmetry_cell_setting 'orthorhombic'
loop_
_space_group_symop_operation_xyz
x,y,z
-x,1/2-y,z
x,-y,-z
-x,1/2+y,-z
-x,-y,-z
x,1/2+y,-z
-x,y,z
x,1/2-y,z
1/2+x,1/2+y,1/2+z
1/2-x,-y,1/2+z
1/2+x,1/2-y,1/2-z
1/2-x,y,1/2-z
1/2-x,1/2-y,1/2-z
1/2+x,y,1/2-z
1/2-x,1/2+y,1/2+z
1/2+x,-y,1/2+z
loop_
_atom_site_type_symbol
_atom_site_label
_atom_site_fract_x
_atom_site_fract_y
_atom_site_fract_z
Si Si1 0.723085 0.127086 0.099767
Si Si2 0.724733 0.948450 0.103584
Si Si3 0.276404 0.664271 0.016030
Si Si4 0.500000 0.250000 0.360299
Si Si5 0.219681 0.837056 0.308229
O O1 0.500000 0.135320 0.105462
O O2 0.838262 0.182701 0.135403
O O3 0.774700 0.037627 0.105716
O O4 0.772514 0.151148 0.042184
O O5 0.500000 0.948131 0.102742
O O6 0.785375 0.902972 0.053382
O O7 0.787668 0.898875 0.151618
O O8 0.500000 0.663765 0.017691
O O9 0.217100 0.750000 0.032236
O O10 0.291793 0.750000 0.315747
O O11 0.250000 0.858664 0.250000
O O12 0.000000 0.832812 0.315810
#
# Coordination Sequence:
#
# PCOD9537808 Si02
#       5
#    16  16  16   4  16
#     4  10  20  35  54  75 105 140 181 222 264 311
#     4   9  17  30  51  78 103 135 180 219 258 309
#     4   9  15  27  50  75 102 138 177 212 256 309
#     4  12  22  36  54  74 108 144 182 220 264 324
#     4   9  17  31  52  77 109 141 173 209 255 316
#
# _framework density 20.420760999999999
#
# number of rings (size 3 to 8) (size 9 to 14) (size 15 to 20)
#    0.000    2.588    1.176    1.765    0.000    5.647 
#    2.118    2.353    0.000    0.000    0.000    0.824 
#    0.000    0.000    0.000    0.000    0.000    0.000 
#
# Total GULP energy -189321.269875 kJ/mol
# GULP energy per Si atom -5568.272643 kJ/mol
# Density = 2.037428 g / cm^3
# Si number density = 20.420761 Si / 1000 Ang^3
#
#
#
# Elastic Constant Matrix: (Units=GPa)
#
#
# Indices 1 2 3 4 5 6 
#
# 1 110.0972 16.6431 -2.0537 0.0000 0.0000 0.0000
# 2 16.6431 124.1955 14.5041 0.0000 0.0000 0.0000
# 3 -2.0537 14.5041 20.2974 0.0000 0.0000 0.0000
# 4 0.0000 0.0000 0.0000 -32.6782 0.0000 0.0000
# 5 0.0000 0.0000 0.0000 0.0000 2.3615 0.0000
# 6 0.0000 0.0000 0.0000 0.0000 0.0000 34.1968
#
#
#
# Elastic Compliance Matrix: (Units=1/GPa)
#
#
# Indices 1 2 3 4 5 6 
#
# 1 0.009345 -0.001487 0.002008 0.000000 0.000000 0.000000
# 2 -0.001487 0.009021 -0.006597 0.000000 0.000000 0.000000
# 3 0.002008 -0.006597 0.054185 0.000000 0.000000 0.000000
# 4 0.000000 0.000000 0.000000 -0.030601 0.000000 0.000000
# 5 0.000000 0.000000 0.000000 0.000000 0.423465 0.000000
# 6 0.000000 0.000000 0.000000 0.000000 0.000000 0.029242
#
#
# Mechanical properties :
#
#
# Convention : Reuss Voigt Hill
#
# Bulk Modulus (GPa) = 16.55639 34.75300 25.65469
# Shear Modulus (GPa) = 9.48871 15.80913 12.64892
#
# Velocity S-wave (km/s) = 2.15794 2.78541 2.49150
# Velocity P-wave (km/s) = 3.78605 5.23451 4.56805
#
# Compressibility (1/GPa) = 0.06039965
#
# Stress axis : x y z
#
# Youngs Moduli (GPa) = 107.00798 110.84632 18.45537
#
# Poissons Ratio (x) = 0.16481 -0.03706
# Poissons Ratio (y) = 0.15910 0.12175
# Poissons Ratio (z) = -0.21487 0.73126
#
# Static dielectric constant tensor:
#      x y z
#    x 1.786930 0.000000 0.000000 
#    y 0.000000 1.709290 0.000000 
#    z 0.000000 0.000000 1.696910 
# 
# From -- ./inp_files/56686.got.cif
#   From: 2010.05.17/outbox.cif.g08.bks.cpg/sg74_29_cif.got.tgz:56686.got - 2010.06.03 17:57:02.
