data_PCOD9537271
_publ_section_title
;
Structure prediction by ZEFSAII (Michael W. Deem and Ramdas Pophale) SiO2 
 PCOD9537271
Probable space group: I M M A
;
_chemical_formula_sum "Si O2"
_cell_formula_units_Z 112
_cell_length_a 27.760295
_cell_length_b 16.106087
_cell_length_c 12.167830
_cell_angle_alpha 90.000000
_cell_angle_beta 90.000000
_cell_angle_gamma 90.000000
_cell_volume 5440.355142
_symmetry_space_group_name_H-M "I M M A"
_symmetry_group_IT_number 74
_symmetry_cell_setting 'orthorhombic'
loop_
_space_group_symop_operation_xyz
x,y,z
-x,1/2-y,z
x,-y,-z
-x,1/2+y,-z
-x,-y,-z
x,1/2+y,-z
-x,y,z
x,1/2-y,z
1/2+x,1/2+y,1/2+z
1/2-x,-y,1/2+z
1/2+x,1/2-y,1/2-z
1/2-x,y,1/2-z
1/2-x,1/2-y,1/2-z
1/2+x,y,1/2-z
1/2-x,1/2+y,1/2+z
1/2+x,-y,1/2+z
loop_
_atom_site_type_symbol
_atom_site_label
_atom_site_fract_x
_atom_site_fract_y
_atom_site_fract_z
Si Si1 0.271398 0.989486 0.378558
Si Si2 0.384363 0.343385 0.886195
Si Si3 0.880710 0.658578 0.624243
Si Si4 0.945525 0.430321 0.907749
Si Si5 0.054482 0.500801 0.337520
Si Si6 0.153080 0.153957 0.854491
Si Si7 0.198787 0.839144 0.811435
O O1 0.250000 0.984845 0.250000
O O2 0.305533 0.909699 0.387445
O O3 0.244337 0.000000 0.500000
O O4 0.302071 0.074745 0.374847
O O5 0.405468 0.250000 0.874696
O O6 0.423020 0.416701 0.890765
O O7 0.353065 0.356765 0.777924
O O8 0.357643 0.346328 0.002651
O O9 0.904884 0.750000 0.629962
O O10 0.915216 0.581095 0.640229
O O11 0.841114 0.656084 0.717653
O O12 0.944412 0.477774 0.791562
O O13 0.899425 0.369651 0.905028
O O14 0.000000 0.393030 0.918549
O O15 0.939811 0.500000 0.000000
O O16 0.000000 0.488450 0.372242
O O17 0.164131 0.250000 0.875322
O O18 0.192951 0.750000 0.870547
O O19 0.250000 0.836646 0.750000
#
# Coordination Sequence:
#
# PCOD9537271 Si02
#       7
#    16  16  16  16  16  16  16
#     4  11  25  43  63  91 125 159 202 253 306 364
#     4   9  19  34  53  80 112 150 196 241 289 346
#     4  10  20  34  53  79 113 151 193 243 295 352
#     4   9  18  35  58  82 112 152 198 248 300 357
#     4  10  20  33  51  77 111 152 196 240 288 346
#     4  10  21  37  59  88 122 159 199 246 300 360
#     4   9  19  37  61  85 108 142 191 245 300 356
#
# _framework density 20.586891000000001
#
# number of rings (size 3 to 8) (size 9 to 14) (size 15 to 20)
#    0.000    2.286    0.000    2.571    0.000    5.143 
#    0.000    7.857    0.000    2.571    0.000    0.000 
#    0.000    0.000    0.000    0.000    0.000    0.000 
#
# Total GULP energy -311845.237102 kJ/mol
# GULP energy per Si atom -5568.664948 kJ/mol
# Density = 2.054003 g / cm^3
# Si number density = 20.586891 Si / 1000 Ang^3
#
#
#
# Elastic Constant Matrix: (Units=GPa)
#
#
# Indices 1 2 3 4 5 6 
#
# 1 44.3854 50.3535 28.1700 0.0000 0.0000 0.0000
# 2 50.3535 151.4209 25.2788 0.0000 0.0000 0.0000
# 3 28.1700 25.2788 86.9006 0.0000 0.0000 0.0000
# 4 0.0000 0.0000 0.0000 13.6233 0.0000 0.0000
# 5 0.0000 0.0000 0.0000 0.0000 4.9356 0.0000
# 6 0.0000 0.0000 0.0000 0.0000 0.0000 9.4005
#
#
#
# Elastic Compliance Matrix: (Units=1/GPa)
#
#
# Indices 1 2 3 4 5 6 
#
# 1 0.043637 -0.012770 -0.010431 0.000000 0.000000 0.000000
# 2 -0.012770 0.010678 0.001033 0.000000 0.000000 0.000000
# 3 -0.010431 0.001033 0.014588 0.000000 0.000000 0.000000
# 4 0.000000 0.000000 0.000000 0.073404 0.000000 0.000000
# 5 0.000000 0.000000 0.000000 0.000000 0.202608 0.000000
# 6 0.000000 0.000000 0.000000 0.000000 0.000000 0.106377
#
#
# Mechanical properties :
#
#
# Convention : Reuss Voigt Hill
#
# Bulk Modulus (GPa) = 40.70249 54.47906 47.59078
# Shear Modulus (GPa) = 9.92427 17.51886 13.72157
#
# Velocity S-wave (km/s) = 2.19799 2.92031 2.58450
# Velocity P-wave (km/s) = 5.12401 6.15560 5.66334
#
# Compressibility (1/GPa) = 0.02456852
#
# Stress axis : x y z
#
# Youngs Moduli (GPa) = 22.91652 93.65044 68.54897
#
# Poissons Ratio (x) = 1.19588 0.71502
# Poissons Ratio (y) = 0.29263 -0.07083
# Poissons Ratio (z) = 0.23904 -0.09677
#
# Static dielectric constant tensor:
#      x y z
#    x 1.690840 0.000000 0.000000 
#    y 0.000000 1.739780 0.000000 
#    z 0.000000 0.000000 1.751090 
# 
# From -- ./inp_files/27203.got.cif
#   From: 2010.05.17/outbox.cif.g08.bks.cpg/sg74_14_cif.got.tgz:27203.got - 2010.06.03 17:57:02.
