data_PCOD9537001
_publ_section_title
;
Structure prediction by ZEFSAII (Michael W. Deem and Ramdas Pophale) SiO2 
 PCOD9537001
Probable space group: I M M A
;
_chemical_formula_sum "Si O2"
_cell_formula_units_Z 96
_cell_length_a 9.171376
_cell_length_b 23.952626
_cell_length_c 24.786124
_cell_angle_alpha 90.000000
_cell_angle_beta 90.000000
_cell_angle_gamma 90.000000
_cell_volume 5444.979514
_symmetry_space_group_name_H-M "I M M A"
_symmetry_group_IT_number 74
_symmetry_cell_setting 'orthorhombic'
loop_
_space_group_symop_operation_xyz
x,y,z
-x,1/2-y,z
x,-y,-z
-x,1/2+y,-z
-x,-y,-z
x,1/2+y,-z
-x,y,z
x,1/2-y,z
1/2+x,1/2+y,1/2+z
1/2-x,-y,1/2+z
1/2+x,1/2-y,1/2-z
1/2-x,y,1/2-z
1/2-x,1/2-y,1/2-z
1/2+x,y,1/2-z
1/2-x,1/2+y,1/2+z
1/2+x,-y,1/2+z
loop_
_atom_site_type_symbol
_atom_site_label
_atom_site_fract_x
_atom_site_fract_y
_atom_site_fract_z
Si Si1 0.826041 0.527003 0.692571
Si Si2 0.835780 0.816306 0.802148
Si Si3 0.173527 0.103358 0.692949
Si Si4 0.325893 0.314456 0.482972
Si Si5 0.673211 0.185510 0.610845
Si Si6 0.825774 0.877788 0.608323
O O1 0.750000 0.539208 0.750000
O O2 0.796744 0.461936 0.680340
O O3 0.782734 0.566576 0.642280
O O4 0.000000 0.534259 0.699818
O O5 0.848499 0.750000 0.796846
O O6 0.750000 0.837516 0.750000
O O7 0.737784 0.829863 0.853118
O O8 0.000000 0.839416 0.806501
O O9 0.250000 0.116019 0.750000
O O10 0.237170 0.143054 0.647041
O O11 0.000000 0.110204 0.697989
O O12 0.500000 0.317874 0.472952
O O13 0.281933 0.250000 0.469166
O O14 0.300895 0.321713 0.546850
O O15 0.245160 0.361932 0.448712
O O16 0.500000 0.177623 0.619896
O O17 0.708382 0.250000 0.624231
O O18 0.000000 0.876800 0.604188
#
# Coordination Sequence:
#
# PCOD9537001 Si02
#       6
#    16  16  16  16  16  16
#     4   9  20  36  52  74 104 138 175 217 263 306
#     4  10  20  32  45  64  93 127 165 214 269 317
#     4  10  20  36  58  82 109 139 171 208 253 308
#     4   9  19  36  55  75 103 139 176 216 262 308
#     4   9  19  37  59  82 109 138 169 209 256 306
#     4  11  21  32  49  73 100 133 176 219 259 307
#
# _framework density 17.63092
#
# number of rings (size 3 to 8) (size 9 to 14) (size 15 to 20)
#    0.000    2.333    0.000    3.500    0.000    8.000 
#    0.000    2.500    0.000    5.000    0.000    0.000 
#    0.000    0.000    0.000    0.000    0.000    0.000 
#
# Total GULP energy -267648.394661 kJ/mol
# GULP energy per Si atom -5576.008222 kJ/mol
# Density = 1.759079 g / cm^3
# Si number density = 17.630920 Si / 1000 Ang^3
#
#
#
# Elastic Constant Matrix: (Units=GPa)
#
#
# Indices 1 2 3 4 5 6 
#
# 1 63.3392 64.1311 59.5142 0.0000 0.0000 0.0000
# 2 64.1311 111.2374 75.0420 0.0000 0.0000 0.0000
# 3 59.5142 75.0420 92.7534 0.0000 0.0000 0.0000
# 4 0.0000 0.0000 0.0000 62.5886 0.0000 0.0000
# 5 0.0000 0.0000 0.0000 0.0000 35.2402 0.0000
# 6 0.0000 0.0000 0.0000 0.0000 0.0000 16.2136
#
#
#
# Elastic Compliance Matrix: (Units=1/GPa)
#
#
# Indices 1 2 3 4 5 6 
#
# 1 0.049757 -0.015738 -0.019193 0.000000 0.000000 0.000000
# 2 -0.015738 0.024770 -0.009942 0.000000 0.000000 0.000000
# 3 -0.019193 -0.009942 0.031140 0.000000 0.000000 0.000000
# 4 0.000000 0.000000 0.000000 0.015977 0.000000 0.000000
# 5 0.000000 0.000000 0.000000 0.000000 0.028377 0.000000
# 6 0.000000 0.000000 0.000000 0.000000 0.000000 0.061677
#
#
# Mechanical properties :
#
#
# Convention : Reuss Voigt Hill
#
# Bulk Modulus (GPa) = 62.81225 73.85606 68.33416
# Shear Modulus (GPa) = 16.29981 27.38464 21.84223
#
# Velocity S-wave (km/s) = 3.04386 3.94536 3.52356
# Velocity P-wave (km/s) = 6.93231 7.92058 7.44287
#
# Compressibility (1/GPa) = 0.01592046
#
# Stress axis : x y z
#
# Youngs Moduli (GPa) = 20.09763 40.37070 32.11314
#
# Poissons Ratio (x) = 0.63537 0.61635
# Poissons Ratio (y) = 0.31630 0.31927
# Poissons Ratio (z) = 0.38573 0.40137
#
# Static dielectric constant tensor:
#      x y z
#    x 1.597270 0.000000 0.000000 
#    y 0.000000 1.616720 0.000000 
#    z 0.000000 0.000000 1.541080 
# 
# From -- ./inp_files/57259.got.cif
#   From: 2010.05.17/outbox.cif.g08.bks.cpg/sg74_29_cif.got.tgz:57259.got - 2010.06.03 17:57:02.
