data_PCOD9537782
_publ_section_title
;
Structure prediction by ZEFSAII (Michael W. Deem and Ramdas Pophale) SiO2 
 PCOD9537782
Probable space group: I M M A
;
_chemical_formula_sum "Si O2"
_cell_formula_units_Z 88
_cell_length_a 23.066819
_cell_length_b 8.678309
_cell_length_c 25.292955
_cell_angle_alpha 90.000000
_cell_angle_beta 90.000000
_cell_angle_gamma 90.000000
_cell_volume 5063.168593
_symmetry_space_group_name_H-M "I M M A"
_symmetry_group_IT_number 74
_symmetry_cell_setting 'orthorhombic'
loop_
_space_group_symop_operation_xyz
x,y,z
-x,1/2-y,z
x,-y,-z
-x,1/2+y,-z
-x,-y,-z
x,1/2+y,-z
-x,y,z
x,1/2-y,z
1/2+x,1/2+y,1/2+z
1/2-x,-y,1/2+z
1/2+x,1/2-y,1/2-z
1/2-x,y,1/2-z
1/2-x,1/2-y,1/2-z
1/2+x,y,1/2-z
1/2-x,1/2+y,1/2+z
1/2+x,-y,1/2+z
loop_
_atom_site_type_symbol
_atom_site_label
_atom_site_fract_x
_atom_site_fract_y
_atom_site_fract_z
Si Si1 0.000000 0.565874 0.059265
Si Si2 0.390736 0.932531 0.623456
Si Si3 0.347230 0.564187 0.057490
Si Si4 0.430491 0.432946 0.731212
Si Si5 0.212955 0.065102 0.942144
Si Si6 0.433424 0.062023 0.850567
O O1 0.943395 0.508369 0.090599
O O2 0.000000 0.750000 0.057595
O O3 0.000000 0.500000 0.000000
O O4 0.393664 0.750000 0.616758
O O5 0.399271 0.977941 0.684471
O O6 0.330926 0.996506 0.600200
O O7 0.349865 0.750000 0.055425
O O8 0.280107 0.521807 0.067897
O O9 0.389889 0.510240 0.103844
O O10 0.363520 0.500000 0.000000
O O11 0.500000 0.452163 0.725257
O O12 0.418550 0.250000 0.726056
O O13 0.415888 0.483179 0.790982
O O14 0.208545 0.250000 0.942783
O O15 0.197279 0.000000 0.000000
O O16 0.500000 0.013431 0.860017
O O17 0.433585 0.250000 0.850505
#
# Coordination Sequence:
#
# PCOD9537782 Si02
#       6
#     8  16  16  16  16  16
#     4  12  24  38  54  76 106 136 171 216 263 310
#     4  12  23  35  52  76 104 136 174 218 265 312
#     4   9  18  33  54  79 107 139 175 214 260 313
#     4   9  17  32  54  76 101 137 177 217 260 308
#     4  10  20  35  53  73 101 139 179 218 260 312
#     4   8  15  30  54  82 108 136 174 217 258 307
#
# _framework density 17.380420999999998
#
# number of rings (size 3 to 8) (size 9 to 14) (size 15 to 20)
#    0.000    2.182    0.909    4.636    0.000    1.091 
#    0.000    1.818    0.000    6.545    0.000    0.000 
#    0.000    0.000    0.000    0.000    0.000    0.000 
#
# Total GULP energy -245583.919755 kJ/mol
# GULP energy per Si atom -5581.452722 kJ/mol
# Density = 1.734086 g / cm^3
# Si number density = 17.380421 Si / 1000 Ang^3
#
#
#
# Elastic Constant Matrix: (Units=GPa)
#
#
# Indices 1 2 3 4 5 6 
#
# 1 84.5108 36.5761 95.0992 0.0000 0.0000 0.0000
# 2 36.5761 67.1406 49.0490 0.0000 0.0000 0.0000
# 3 95.0992 49.0490 167.2998 0.0000 0.0000 0.0000
# 4 0.0000 0.0000 0.0000 28.3009 0.0000 0.0000
# 5 0.0000 0.0000 0.0000 0.0000 20.1674 0.0000
# 6 0.0000 0.0000 0.0000 0.0000 0.0000 14.1270
#
#
#
# Elastic Compliance Matrix: (Units=1/GPa)
#
#
# Indices 1 2 3 4 5 6 
#
# 1 0.034459 -0.005679 -0.017923 0.000000 0.000000 0.000000
# 2 -0.005679 0.019889 -0.002603 0.000000 0.000000 0.000000
# 3 -0.017923 -0.002603 0.016928 0.000000 0.000000 0.000000
# 4 0.000000 0.000000 0.000000 0.035335 0.000000 0.000000
# 5 0.000000 0.000000 0.000000 0.000000 0.049585 0.000000
# 6 0.000000 0.000000 0.000000 0.000000 0.000000 0.070786
#
#
# Mechanical properties :
#
#
# Convention : Reuss Voigt Hill
#
# Bulk Modulus (GPa) = 53.00171 75.59997 64.30084
# Shear Modulus (GPa) = 17.50202 21.73418 19.61810
#
# Velocity S-wave (km/s) = 3.17676 3.54007 3.36333
# Velocity P-wave (km/s) = 6.63453 7.76538 7.22212
#
# Compressibility (1/GPa) = 0.01886732
#
# Stress axis : x y z
#
# Youngs Moduli (GPa) = 29.02008 50.27787 59.07229
#
# Poissons Ratio (x) = 0.28552 1.05874
# Poissons Ratio (y) = 0.16480 0.15377
# Poissons Ratio (z) = 0.52012 0.13088
#
# Static dielectric constant tensor:
#      x y z
#    x 1.577490 0.000000 0.000000 
#    y 0.000000 1.589060 0.000000 
#    z 0.000000 0.000000 1.583280 
# 
# From -- ./inp_files/48740.got.cif
#   From: 2010.05.17/outbox.cif.g08.bks.cpg/sg74_25_cif.got.tgz:48740.got - 2010.06.03 17:57:02.
