data_PCOD9537486
_publ_section_title
;
Structure prediction by ZEFSAII (Michael W. Deem and Ramdas Pophale) SiO2 
 PCOD9537486
Probable space group: I M M A
;
_chemical_formula_sum "Si O2"
_cell_formula_units_Z 80
_cell_length_a 14.786187
_cell_length_b 11.031674
_cell_length_c 25.261548
_cell_angle_alpha 90.000000
_cell_angle_beta 90.000000
_cell_angle_gamma 90.000000
_cell_volume 4120.572634
_symmetry_space_group_name_H-M "I M M A"
_symmetry_group_IT_number 74
_symmetry_cell_setting 'orthorhombic'
loop_
_space_group_symop_operation_xyz
x,y,z
-x,1/2-y,z
x,-y,-z
-x,1/2+y,-z
-x,-y,-z
x,1/2+y,-z
-x,y,z
x,1/2-y,z
1/2+x,1/2+y,1/2+z
1/2-x,-y,1/2+z
1/2+x,1/2-y,1/2-z
1/2-x,y,1/2-z
1/2-x,1/2-y,1/2-z
1/2+x,y,1/2-z
1/2-x,1/2+y,1/2+z
1/2+x,-y,1/2+z
loop_
_atom_site_type_symbol
_atom_site_label
_atom_site_fract_x
_atom_site_fract_y
_atom_site_fract_z
Si Si1 0.390028 0.750000 0.252227
Si Si2 0.097519 0.108083 0.216453
Si Si3 0.891256 0.750000 0.125282
Si Si4 0.244779 0.608987 0.865176
Si Si5 0.103860 0.522863 0.320633
Si Si6 0.394429 0.501643 0.436821
O O1 0.500000 0.750000 0.254912
O O2 0.357609 0.750000 0.313396
O O3 0.365241 0.633952 0.216641
O O4 0.093308 0.250000 0.204524
O O5 0.183992 0.064413 0.184791
O O6 0.000000 0.050665 0.201068
O O7 0.105635 0.087481 0.278563
O O8 0.869107 0.870580 0.091464
O O9 0.000000 0.750000 0.128954
O O10 0.270430 0.750000 0.859270
O O11 0.329792 0.519222 0.866642
O O12 0.174841 0.594567 0.912922
O O13 0.000000 0.544687 0.337003
O O14 0.387396 0.500000 0.500000
O O15 0.500000 0.475456 0.424003
#
# Coordination Sequence:
#
# PCOD9537486 Si02
#       6
#     8  16   8  16  16  16
#     4   9  18  33  55  79 110 149 189 229 273 338
#     4   9  17  30  48  72 106 145 181 219 266 326
#     4   9  18  35  57  83 112 149 192 231 281 342
#     4  11  22  34  53  81 111 147 190 233 277 338
#     4  10  20  34  52  77 111 148 184 226 277 333
#     4  10  22  38  58  81 110 146 187 240 292 337
#
# _framework density 19.414776
#
# number of rings (size 3 to 8) (size 9 to 14) (size 15 to 20)
#    0.000    2.200    0.000    3.000    1.400    8.000 
#    0.000    3.000    0.000    0.600    0.000    0.000 
#    0.000    0.000    0.000    0.000    0.000    0.000 
#
# Total GULP energy -223056.061765 kJ/mol
# GULP energy per Si atom -5576.401544 kJ/mol
# Density = 1.937059 g / cm^3
# Si number density = 19.414776 Si / 1000 Ang^3
#
#
#
# Elastic Constant Matrix: (Units=GPa)
#
#
# Indices 1 2 3 4 5 6 
#
# 1 78.6394 33.2576 35.5986 0.0000 0.0000 0.0000
# 2 33.2576 88.5879 31.1361 0.0000 0.0000 0.0000
# 3 35.5986 31.1361 69.4586 0.0000 0.0000 0.0000
# 4 0.0000 0.0000 0.0000 18.6783 0.0000 0.0000
# 5 0.0000 0.0000 0.0000 0.0000 21.2225 0.0000
# 6 0.0000 0.0000 0.0000 0.0000 0.0000 8.8712
#
#
#
# Elastic Compliance Matrix: (Units=1/GPa)
#
#
# Indices 1 2 3 4 5 6 
#
# 1 0.017735 -0.004111 -0.007247 0.000000 0.000000 0.000000
# 2 -0.004111 0.014352 -0.004327 0.000000 0.000000 0.000000
# 3 -0.007247 -0.004327 0.020051 0.000000 0.000000 0.000000
# 4 0.000000 0.000000 0.000000 0.053538 0.000000 0.000000
# 5 0.000000 0.000000 0.000000 0.000000 0.047120 0.000000
# 6 0.000000 0.000000 0.000000 0.000000 0.000000 0.112724
#
#
# Mechanical properties :
#
#
# Convention : Reuss Voigt Hill
#
# Bulk Modulus (GPa) = 48.14821 48.51893 48.33357
# Shear Modulus (GPa) = 16.45749 18.86731 17.66240
#
# Velocity S-wave (km/s) = 2.91465 3.12075 3.01946
# Velocity P-wave (km/s) = 6.01503 6.16688 6.09143
#
# Compressibility (1/GPa) = 0.02076920
#
# Stress axis : x y z
#
# Youngs Moduli (GPa) = 56.38428 69.67514 49.87369
#
# Poissons Ratio (x) = 0.28645 0.36142
# Poissons Ratio (y) = 0.23181 0.21579
# Poissons Ratio (z) = 0.40860 0.30146
#
# Static dielectric constant tensor:
#      x y z
#    x 1.781870 0.000000 0.000000 
#    y 0.000000 1.745760 0.000000 
#    z 0.000000 0.000000 1.666970 
# 
# From -- ./inp_files/58567.got.cif
#   From: 2010.05.17/outbox.cif.g08.bks.cpg/sg74_30_cif.got.tgz:58567.got - 2010.06.03 17:57:02.
