data_PCOD9537729
_publ_section_title
;
Structure prediction by ZEFSAII (Michael W. Deem and Ramdas Pophale) SiO2 
 PCOD9537729
Probable space group: I M M A
;
_chemical_formula_sum "Si O2"
_cell_formula_units_Z 116
_cell_length_a 7.683593
_cell_length_b 26.742286
_cell_length_c 28.923022
_cell_angle_alpha 90.000000
_cell_angle_beta 90.000000
_cell_angle_gamma 90.000000
_cell_volume 5943.011208
_symmetry_space_group_name_H-M "I M M A"
_symmetry_group_IT_number 74
_symmetry_cell_setting 'orthorhombic'
loop_
_space_group_symop_operation_xyz
x,y,z
-x,1/2-y,z
x,-y,-z
-x,1/2+y,-z
-x,-y,-z
x,1/2+y,-z
-x,y,z
x,1/2-y,z
1/2+x,1/2+y,1/2+z
1/2-x,-y,1/2+z
1/2+x,1/2-y,1/2-z
1/2-x,y,1/2-z
1/2-x,1/2-y,1/2-z
1/2+x,y,1/2-z
1/2-x,1/2+y,1/2+z
1/2+x,-y,1/2+z
loop_
_atom_site_type_symbol
_atom_site_label
_atom_site_fract_x
_atom_site_fract_y
_atom_site_fract_z
Si Si1 0.700710 0.424887 0.369093
Si Si2 0.205247 0.629083 0.197125
Si Si3 0.203514 0.953538 0.970268
Si Si4 0.211651 0.599822 0.441877
Si Si5 0.205619 0.694917 0.386892
Si Si6 0.296618 0.468281 0.857739
Si Si7 0.000000 0.250000 0.184979
Si Si8 0.298686 0.163850 0.197859
O O1 0.500000 0.409496 0.375010
O O2 0.775756 0.436957 0.420557
O O3 0.707805 0.479663 0.345697
O O4 0.787183 0.382030 0.338379
O O5 0.250000 0.637266 0.250000
O O6 0.275704 0.672713 0.164342
O O7 0.276901 0.576113 0.178997
O O8 0.000000 0.627425 0.190880
O O9 0.000000 0.965574 0.962233
O O10 0.221125 0.909251 0.007088
O O11 0.281726 0.000000 0.000000
O O12 0.275042 0.651847 0.420434
O O13 0.268435 0.555979 0.406208
O O14 0.000000 0.599215 0.441757
O O15 0.281893 0.750000 0.391465
O O16 0.000000 0.698066 0.396561
O O17 0.500000 0.478989 0.863187
O O18 0.844407 0.293836 0.186156
O O19 0.500000 0.182432 0.198735
O O20 0.250000 0.146559 0.250000
#
# Coordination Sequence:
#
# PCOD9537729 Si02
#       8
#    16  16  16  16  16  16   4  16
#     4  11  22  39  59  92 134 164 204 261 306 363
#     4  11  22  36  54  79 109 148 192 237 295 360
#     4  10  20  34  57  86 121 165 205 244 298 357
#     4   9  18  32  54  83 111 150 201 242 293 361
#     4   9  19  37  58  79 107 145 191 247 296 346
#     4  10  20  35  55  81 116 156 196 242 299 365
#     4  12  24  48  74 102 126 166 212 276 304 402
#     4  12  25  43  71 102 129 167 213 262 325 381
#
# _framework density 19.518723999999999
#
# number of rings (size 3 to 8) (size 9 to 14) (size 15 to 20)
#    0.000    1.655    2.759    3.310    0.000    4.690 
#    0.000    2.759    1.517    0.000    0.000    0.000 
#    0.000    0.000    0.000    0.000    0.000    0.000 
#
# Total GULP energy -323080.307740 kJ/mol
# GULP energy per Si atom -5570.350133 kJ/mol
# Density = 1.947430 g / cm^3
# Si number density = 19.518724 Si / 1000 Ang^3
#
#
#
# Elastic Constant Matrix: (Units=GPa)
#
#
# Indices 1 2 3 4 5 6 
#
# 1 93.1515 25.0118 8.2556 0.0000 0.0000 0.0000
# 2 25.0118 136.9524 61.2988 0.0000 0.0000 0.0000
# 3 8.2556 61.2988 75.0560 0.0000 0.0000 0.0000
# 4 0.0000 0.0000 0.0000 -1.7534 0.0000 0.0000
# 5 0.0000 0.0000 0.0000 0.0000 20.4673 0.0000
# 6 0.0000 0.0000 0.0000 0.0000 0.0000 20.9139
#
#
#
# Elastic Compliance Matrix: (Units=1/GPa)
#
#
# Indices 1 2 3 4 5 6 
#
# 1 0.011312 -0.002378 0.000698 0.000000 0.000000 0.000000
# 2 -0.002378 0.012009 -0.009546 0.000000 0.000000 0.000000
# 3 0.000698 -0.009546 0.021043 0.000000 0.000000 0.000000
# 4 0.000000 0.000000 0.000000 -0.570317 0.000000 0.000000
# 5 0.000000 0.000000 0.000000 0.000000 0.048858 0.000000
# 6 0.000000 0.000000 0.000000 0.000000 0.000000 0.047815
#
#
# Mechanical properties :
#
#
# Convention : Reuss Voigt Hill
#
# Bulk Modulus (GPa) = 45.63879 54.92137 50.28008
# Shear Modulus (GPa) = -12.51493 21.96514 4.72511
#
# Velocity S-wave (km/s) = -2.53489 3.35824 1.55758
# Velocity P-wave (km/s) = 3.85555 6.57540 5.38986
#
# Compressibility (1/GPa) = 0.02191118
#
# Stress axis : x y z
#
# Youngs Moduli (GPa) = 88.40214 83.27089 47.52160
#
# Poissons Ratio (x) = 0.19806 -0.03318
# Poissons Ratio (y) = 0.21026 0.45365
# Poissons Ratio (z) = -0.06173 0.79492
#
# Static dielectric constant tensor:
#      x y z
#    x 1.715500 0.000000 0.000000 
#    y 0.000000 1.667820 0.000000 
#    z 0.000000 0.000000 1.685770 
# 
# From -- ./inp_files/64840.got.cif
#   From: 2010.05.17/outbox.cif.g08.bks.cpg/sg74_33_cif.got.tgz:64840.got - 2010.06.03 17:57:02.
