data_PCOD9537049
_publ_section_title
;
Structure prediction by ZEFSAII (Michael W. Deem and Ramdas Pophale) SiO2 
 PCOD9537049
Probable space group: I M M A
;
_chemical_formula_sum "Si O2"
_cell_formula_units_Z 64
_cell_length_a 9.585035
_cell_length_b 9.156128
_cell_length_c 42.808713
_cell_angle_alpha 90.000000
_cell_angle_beta 90.000000
_cell_angle_gamma 90.000000
_cell_volume 3756.970023
_symmetry_space_group_name_H-M "I M M A"
_symmetry_group_IT_number 74
_symmetry_cell_setting 'orthorhombic'
loop_
_space_group_symop_operation_xyz
x,y,z
-x,1/2-y,z
x,-y,-z
-x,1/2+y,-z
-x,-y,-z
x,1/2+y,-z
-x,y,z
x,1/2-y,z
1/2+x,1/2+y,1/2+z
1/2-x,-y,1/2+z
1/2+x,1/2-y,1/2-z
1/2-x,y,1/2-z
1/2-x,1/2-y,1/2-z
1/2+x,y,1/2-z
1/2-x,1/2+y,1/2+z
1/2+x,-y,1/2+z
loop_
_atom_site_type_symbol
_atom_site_label
_atom_site_fract_x
_atom_site_fract_y
_atom_site_fract_z
Si Si1 0.167368 0.423815 0.349396
Si Si2 0.339348 0.927967 0.779383
Si Si3 0.165875 0.576442 0.095473
Si Si4 0.669912 0.418177 0.468633
O O1 0.194139 0.250000 0.352634
O O2 0.209311 0.470047 0.314148
O O3 0.249044 0.509956 0.375841
O O4 0.000000 0.444216 0.351892
O O5 0.500000 0.972670 0.775782
O O6 0.337256 0.750000 0.779217
O O7 0.250000 0.979312 0.750000
O O8 0.185317 0.750000 0.093310
O O9 0.210394 0.500922 0.063004
O O10 0.000000 0.548207 0.099668
O O11 0.717068 0.500000 0.500000
O O12 0.500000 0.418790 0.469298
O O13 0.715297 0.250000 0.468239
#
# Coordination Sequence:
#
# PCOD9537049 Si02
#       4
#    16  16  16  16
#     4   9  18  32  49  70  97 128 161 197 240 291
#     4   8  14  25  42  66  94 121 151 190 236 285
#     4  10  20  32  47  70  98 127 163 204 241 281
#     4   9  16  27  45  69  97 127 158 195 240 286
#
# _framework density 17.035004000000001
#
# number of rings (size 3 to 8) (size 9 to 14) (size 15 to 20)
#    0.000    3.000    0.000    3.000    0.000    6.000 
#    0.000    2.500    0.000    1.500    0.000    0.000 
#    0.000    0.000    0.000    0.000    0.000    0.000 
#
# Total GULP energy -178302.067453 kJ/mol
# GULP energy per Si atom -5571.939608 kJ/mol
# Density = 1.699623 g / cm^3
# Si number density = 17.035004 Si / 1000 Ang^3
#
#
#
# Elastic Constant Matrix: (Units=GPa)
#
#
# Indices 1 2 3 4 5 6 
#
# 1 28.7313 37.5444 66.6588 0.0000 0.0000 0.0000
# 2 37.5444 77.7704 83.9417 0.0000 0.0000 0.0000
# 3 66.6588 83.9417 215.5009 0.0000 0.0000 0.0000
# 4 0.0000 0.0000 0.0000 23.7186 0.0000 0.0000
# 5 0.0000 0.0000 0.0000 0.0000 27.7199 0.0000
# 6 0.0000 0.0000 0.0000 0.0000 0.0000 17.9049
#
#
#
# Elastic Compliance Matrix: (Units=1/GPa)
#
#
# Indices 1 2 3 4 5 6 
#
# 1 0.194644 -0.050005 -0.040730 0.000000 0.000000 0.000000
# 2 -0.050005 0.035032 0.001822 0.000000 0.000000 0.000000
# 3 -0.040730 0.001822 0.016529 0.000000 0.000000 0.000000
# 4 0.000000 0.000000 0.000000 0.042161 0.000000 0.000000
# 5 0.000000 0.000000 0.000000 0.000000 0.036075 0.000000
# 6 0.000000 0.000000 0.000000 0.000000 0.000000 0.055851
#
#
# Mechanical properties :
#
#
# Convention : Reuss Voigt Hill
#
# Bulk Modulus (GPa) = 14.62403 77.58805 46.10604
# Shear Modulus (GPa) = 8.60716 22.79252 15.69984
#
# Velocity S-wave (km/s) = 2.25024 3.66181 3.03912
# Velocity P-wave (km/s) = 3.91852 7.97017 6.28006
#
# Compressibility (1/GPa) = 0.06838059
#
# Stress axis : x y z
#
# Youngs Moduli (GPa) = 5.13757 28.54498 60.49879
#
# Poissons Ratio (x) = 1.42739 2.46409
# Poissons Ratio (y) = 0.25690 -0.11021
# Poissons Ratio (z) = 0.20925 -0.05200
#
# Static dielectric constant tensor:
#      x y z
#    x 1.563180 0.000000 0.000000 
#    y 0.000000 1.570140 0.000000 
#    z 0.000000 0.000000 1.572010 
# 
# From -- ./inp_files/65602.got.cif
#   From: 2010.05.17/outbox.cif.g08.bks.cpg/sg74_33_cif.got.tgz:65602.got - 2010.06.03 17:57:02.
