data_PCOD9537654
_publ_section_title
;
Structure prediction by ZEFSAII (Michael W. Deem and Ramdas Pophale) SiO2 
 PCOD9537654
Probable space group: I M M A
;
_chemical_formula_sum "Si O2"
_cell_formula_units_Z 88
_cell_length_a 8.921180
_cell_length_b 31.269362
_cell_length_c 18.270245
_cell_angle_alpha 90.000000
_cell_angle_beta 90.000000
_cell_angle_gamma 90.000000
_cell_volume 5096.660363
_symmetry_space_group_name_H-M "I M M A"
_symmetry_group_IT_number 74
_symmetry_cell_setting 'orthorhombic'
loop_
_space_group_symop_operation_xyz
x,y,z
-x,1/2-y,z
x,-y,-z
-x,1/2+y,-z
-x,-y,-z
x,1/2+y,-z
-x,y,z
x,1/2-y,z
1/2+x,1/2+y,1/2+z
1/2-x,-y,1/2+z
1/2+x,1/2-y,1/2-z
1/2-x,y,1/2-z
1/2-x,1/2-y,1/2-z
1/2+x,y,1/2-z
1/2-x,1/2+y,1/2+z
1/2+x,-y,1/2+z
loop_
_atom_site_type_symbol
_atom_site_label
_atom_site_fract_x
_atom_site_fract_y
_atom_site_fract_z
Si Si1 0.180670 0.131686 0.546584
Si Si2 0.677324 0.750000 0.829454
Si Si3 0.819723 0.549780 0.985782
Si Si4 0.823922 0.579049 0.825854
Si Si5 0.819391 0.298850 0.669564
Si Si6 0.177136 0.167910 0.101676
O O1 0.241961 0.082949 0.541761
O O2 0.223552 0.162798 0.614270
O O3 0.253493 0.152335 0.474413
O O4 0.000000 0.131213 0.542044
O O5 0.500000 0.750000 0.823282
O O6 0.750000 0.750000 0.750000
O O7 0.735344 0.708797 0.871647
O O8 0.767785 0.559137 0.902370
O O9 0.000000 0.557908 0.988535
O O10 0.793181 0.500000 0.000000
O O11 0.750000 0.565781 0.750000
O O12 0.805501 0.629707 0.839721
O O13 0.000000 0.569535 0.821224
O O14 0.778098 0.250000 0.644799
O O15 0.750000 0.304982 0.750000
O O16 0.000000 0.299673 0.675116
O O17 0.000000 0.176093 0.093431
#
# Coordination Sequence:
#
# PCOD9537654 Si02
#       6
#    16   8  16  16  16  16
#     4  10  20  34  55  82 109 138 175 225 277 323
#     4  12  24  36  50  72 105 142 179 222 266 304
#     4   9  19  37  57  76 104 142 180 221 272 331
#     4   9  18  32  52  75  99 129 170 214 258 313
#     4   9  19  35  54  78 109 144 182 224 273 328
#     4  10  21  36  52  74 103 140 183 218 257 317
#
# _framework density 17.266207999999999
#
# number of rings (size 3 to 8) (size 9 to 14) (size 15 to 20)
#    0.000    2.364    0.000    3.545    1.273    6.909 
#    0.000    0.909    0.000    4.364    0.000    0.000 
#    0.000    0.000    0.000    0.000    0.000    0.000 
#
# Total GULP energy -245259.115987 kJ/mol
# GULP energy per Si atom -5574.070818 kJ/mol
# Density = 1.722691 g / cm^3
# Si number density = 17.266208 Si / 1000 Ang^3
#
#
#
# Elastic Constant Matrix: (Units=GPa)
#
#
# Indices 1 2 3 4 5 6 
#
# 1 60.4059 56.4975 34.4302 0.0000 0.0000 0.0000
# 2 56.4975 109.6466 54.2572 0.0000 0.0000 0.0000
# 3 34.4302 54.2572 87.8232 0.0002 0.0000 0.0000
# 4 0.0000 0.0000 0.0002 19.2212 0.0000 0.0000
# 5 0.0000 0.0000 0.0000 0.0000 30.7005 0.0000
# 6 0.0000 0.0000 0.0000 0.0000 0.0000 24.6085
#
#
#
# Elastic Compliance Matrix: (Units=1/GPa)
#
#
# Indices 1 2 3 4 5 6 
#
# 1 0.032672 -0.015119 -0.003468 0.000000 0.000000 0.000000
# 2 -0.015119 0.020132 -0.006510 0.000000 0.000000 0.000000
# 3 -0.003468 -0.006510 0.016768 0.000000 0.000000 0.000000
# 4 0.000000 0.000000 0.000000 0.052026 0.000000 0.000000
# 5 0.000000 0.000000 0.000000 0.000000 0.032573 0.000000
# 6 0.000000 0.000000 0.000000 0.000000 0.000000 0.040636
#
#
# Mechanical properties :
#
#
# Convention : Reuss Voigt Hill
#
# Bulk Modulus (GPa) = 51.60639 60.91614 56.26126
# Shear Modulus (GPa) = 19.88375 22.41874 21.15125
#
# Velocity S-wave (km/s) = 3.39720 3.60726 3.50381
# Velocity P-wave (km/s) = 6.73361 7.25996 7.00173
#
# Compressibility (1/GPa) = 0.01937745
#
# Stress axis : x y z
#
# Youngs Moduli (GPa) = 30.60727 49.67233 59.63574
#
# Poissons Ratio (x) = 0.75097 0.20685
# Poissons Ratio (y) = 0.46274 0.38826
# Poissons Ratio (z) = 0.10616 0.32339
#
# Static dielectric constant tensor:
#      x y z
#    x 1.579940 0.000000 0.000000 
#    y 0.000000 1.558230 0.000000 
#    z 0.000000 0.000000 1.558550 
# 
# From -- ./inp_files/40134.got.cif
#   From: 2010.05.17/outbox.cif.g08.bks.cpg/sg74_21_cif.got.tgz:40134.got - 2010.06.03 17:57:02.
