data_PCOD9537496
_publ_section_title
;
Structure prediction by ZEFSAII (Michael W. Deem and Ramdas Pophale) SiO2 
 PCOD9537496
Probable space group: I M M A
;
_chemical_formula_sum "Si O2"
_cell_formula_units_Z 112
_cell_length_a 14.224720
_cell_length_b 15.112820
_cell_length_c 26.787807
_cell_angle_alpha 90.000000
_cell_angle_beta 90.000000
_cell_angle_gamma 90.000000
_cell_volume 5758.725764
_symmetry_space_group_name_H-M "I M M A"
_symmetry_group_IT_number 74
_symmetry_cell_setting 'orthorhombic'
loop_
_space_group_symop_operation_xyz
x,y,z
-x,1/2-y,z
x,-y,-z
-x,1/2+y,-z
-x,-y,-z
x,1/2+y,-z
-x,y,z
x,1/2-y,z
1/2+x,1/2+y,1/2+z
1/2-x,-y,1/2+z
1/2+x,1/2-y,1/2-z
1/2-x,y,1/2-z
1/2-x,1/2-y,1/2-z
1/2+x,y,1/2-z
1/2-x,1/2+y,1/2+z
1/2+x,-y,1/2+z
loop_
_atom_site_type_symbol
_atom_site_label
_atom_site_fract_x
_atom_site_fract_y
_atom_site_fract_z
Si Si1 0.393095 0.593272 0.905945
Si Si2 0.887990 0.651645 0.488986
Si Si3 0.230544 0.648983 0.193423
Si Si4 0.391454 0.608410 0.120280
Si Si5 0.190569 0.348512 0.090352
Si Si6 0.610917 0.852466 0.480666
Si Si7 0.111119 0.965447 0.117420
O O1 0.500000 0.629724 0.899433
O O2 0.389533 0.498222 0.880202
O O3 0.299836 0.647152 0.893024
O O4 0.378297 0.583707 0.965823
O O5 0.858506 0.750000 0.506404
O O6 0.850137 0.634644 0.434000
O O7 0.000000 0.654089 0.481047
O O8 0.194326 0.750000 0.194309
O O9 0.250000 0.620245 0.250000
O O10 0.328288 0.646566 0.163479
O O11 0.163112 0.585833 0.161694
O O12 0.500000 0.636323 0.124585
O O13 0.153174 0.250000 0.101205
O O14 0.140684 0.432253 0.115169
O O15 0.172843 0.362256 0.030589
O O16 0.500000 0.866680 0.494031
O O17 0.619736 0.750000 0.463732
O O18 0.634814 0.918607 0.435782
O O19 0.000000 0.957326 0.123296
#
# Coordination Sequence:
#
# PCOD9537496 Si02
#       7
#    16  16  16  16  16  16  16
#     4  10  20  34  52  81 121 162 200 235 280 344
#     4   9  17  28  45  76 117 157 193 227 268 328
#     4  11  25  43  64  91 119 147 190 247 304 361
#     4  10  20  36  58  83 115 156 195 234 284 348
#     4  11  22  35  57  90 125 163 203 244 290 345
#     4   9  19  35  56  86 123 161 203 247 290 344
#     4  11  23  41  63  87 119 160 203 249 300 353
#
# _framework density 19.448746
#
# number of rings (size 3 to 8) (size 9 to 14) (size 15 to 20)
#    0.000    1.857    1.429    2.571    2.000    8.000 
#    0.000    1.429    0.000    0.429    0.000    0.000 
#    0.000    0.000    0.000    0.000    0.000    0.000 
#
# Total GULP energy -312540.601125 kJ/mol
# GULP energy per Si atom -5581.082163 kJ/mol
# Density = 1.940448 g / cm^3
# Si number density = 19.448746 Si / 1000 Ang^3
#
#
#
# Elastic Constant Matrix: (Units=GPa)
#
#
# Indices 1 2 3 4 5 6 
#
# 1 102.5489 36.8927 23.2140 0.0000 0.0000 0.0000
# 2 36.8927 104.5372 38.4662 0.0000 0.0000 0.0000
# 3 23.2140 38.4662 68.9148 0.0000 0.0000 0.0000
# 4 0.0000 0.0000 0.0000 22.5447 0.0000 0.0000
# 5 0.0000 0.0000 0.0000 0.0000 118.8902 0.0000
# 6 0.0000 0.0000 0.0000 0.0000 0.0000 19.6789
#
#
#
# Elastic Compliance Matrix: (Units=1/GPa)
#
#
# Indices 1 2 3 4 5 6 
#
# 1 0.011385 -0.003281 -0.002004 0.000000 0.000000 0.000000
# 2 -0.003281 0.012984 -0.006142 0.000000 0.000000 0.000000
# 3 -0.002004 -0.006142 0.018614 0.000000 0.000000 0.000000
# 4 0.000000 0.000000 0.000000 0.044356 0.000000 0.000000
# 5 0.000000 0.000000 0.000000 0.000000 0.008411 0.000000
# 6 0.000000 0.000000 0.000000 0.000000 0.000000 0.050816
#
#
# Mechanical properties :
#
#
# Convention : Reuss Voigt Hill
#
# Bulk Modulus (GPa) = 49.67777 52.57187 51.12482
# Shear Modulus (GPa) = 28.38811 44.05128 36.21970
#
# Velocity S-wave (km/s) = 3.82466 4.76436 4.32014
# Velocity P-wave (km/s) = 6.71584 7.57332 7.15743
#
# Compressibility (1/GPa) = 0.02012973
#
# Stress axis : x y z
#
# Youngs Moduli (GPa) = 87.83234 77.01878 53.72284
#
# Poissons Ratio (x) = 0.25267 0.10766
# Poissons Ratio (y) = 0.28815 0.32997
# Poissons Ratio (z) = 0.17602 0.47306
#
# Static dielectric constant tensor:
#      x y z
#    x 1.741220 0.000000 0.000000 
#    y 0.000000 1.716430 0.000000 
#    z 0.000000 0.000000 1.647040 
# 
# From -- ./inp_files/60187.got.cif
#   From: 2010.05.17/outbox.cif.g08.bks.cpg/sg74_31_cif.got.tgz:60187.got - 2010.06.03 17:57:02.
