data_PCOD9537349
_publ_section_title
;
Structure prediction by ZEFSAII (Michael W. Deem and Ramdas Pophale) SiO2 
 PCOD9537349
Probable space group: I M M A
;
_chemical_formula_sum "Si O2"
_cell_formula_units_Z 72
_cell_length_a 29.549409
_cell_length_b 8.669083
_cell_length_c 14.170840
_cell_angle_alpha 90.000000
_cell_angle_beta 90.000000
_cell_angle_gamma 90.000000
_cell_volume 3630.091356
_symmetry_space_group_name_H-M "I M M A"
_symmetry_group_IT_number 74
_symmetry_cell_setting 'orthorhombic'
loop_
_space_group_symop_operation_xyz
x,y,z
-x,1/2-y,z
x,-y,-z
-x,1/2+y,-z
-x,-y,-z
x,1/2+y,-z
-x,y,z
x,1/2-y,z
1/2+x,1/2+y,1/2+z
1/2-x,-y,1/2+z
1/2+x,1/2-y,1/2-z
1/2-x,y,1/2-z
1/2-x,1/2-y,1/2-z
1/2+x,y,1/2-z
1/2-x,1/2+y,1/2+z
1/2+x,-y,1/2+z
loop_
_atom_site_type_symbol
_atom_site_label
_atom_site_fract_x
_atom_site_fract_y
_atom_site_fract_z
Si Si1 0.728890 0.934938 0.106937
Si Si2 0.178305 0.934601 0.893867
Si Si3 0.127558 0.564844 0.394499
Si Si4 0.500000 0.066102 0.605757
Si Si5 0.586330 0.065250 0.285119
O O1 0.731829 0.750000 0.106625
O O2 0.678584 0.979005 0.140211
O O3 0.775139 0.000009 0.150267
O O4 0.729681 0.000000 0.000000
O O5 0.181892 0.750000 0.897826
O O6 0.132848 0.977347 0.838903
O O7 0.174386 0.000000 0.000000
O O8 0.121909 0.500000 0.500000
O O9 0.125032 0.750000 0.396707
O O10 0.092184 0.495983 0.320937
O O11 0.500000 0.250000 0.601474
O O12 0.500000 0.000000 0.500000
O O13 0.544158 0.007353 0.660953
O O14 0.582228 0.250000 0.285463
#
# Coordination Sequence:
#
# PCOD9537349 Si02
#       5
#    16  16  16   8  16
#     4   9  17  30  51  79 115 157 199 242 290 344
#     4  10  20  33  53  82 117 156 198 244 294 350
#     4  10  21  38  60  87 120 160 202 246 295 348
#     4  12  26  46  71  96 123 154 190 238 296 356
#     4  11  24  41  62  89 119 155 199 246 298 357
#
# _framework density 19.834212000000001
#
# number of rings (size 3 to 8) (size 9 to 14) (size 15 to 20)
#    0.000    1.778    0.000    5.667    0.000    8.889 
#    0.000    5.000    0.000    0.000    0.000    0.000 
#    0.000    0.000    0.000    0.000    0.000    0.000 
#
# Total GULP energy -201173.257544 kJ/mol
# GULP energy per Si atom -5588.146043 kJ/mol
# Density = 1.978907 g / cm^3
# Si number density = 19.834212 Si / 1000 Ang^3
#
#
#
# Elastic Constant Matrix: (Units=GPa)
#
#
# Indices 1 2 3 4 5 6 
#
# 1 151.1118 65.4647 90.9277 0.0000 0.0000 0.0000
# 2 65.4647 70.4500 46.0482 0.0000 0.0000 0.0000
# 3 90.9277 46.0482 131.9522 0.0000 0.0000 0.0000
# 4 0.0000 0.0000 0.0000 20.6174 0.0000 0.0000
# 5 0.0000 0.0000 0.0000 0.0000 38.8314 0.0000
# 6 0.0000 0.0000 0.0000 0.0000 0.0000 34.3636
#
#
#
# Elastic Compliance Matrix: (Units=1/GPa)
#
#
# Indices 1 2 3 4 5 6 
#
# 1 0.014808 -0.009186 -0.006999 0.000000 0.000000 0.000000
# 2 -0.009186 0.024087 -0.002076 0.000000 0.000000 0.000000
# 3 -0.006999 -0.002076 0.013126 0.000000 0.000000 0.000000
# 4 0.000000 0.000000 0.000000 0.048503 0.000000 0.000000
# 5 0.000000 0.000000 0.000000 0.000000 0.025752 0.000000
# 6 0.000000 0.000000 0.000000 0.000000 0.000000 0.029101
#
#
# Mechanical properties :
#
#
# Convention : Reuss Voigt Hill
#
# Bulk Modulus (GPa) = 64.51509 84.26613 74.39061
# Shear Modulus (GPa) = 25.37233 28.83405 27.10319
#
# Velocity S-wave (km/s) = 3.58050 3.81695 3.70061
# Velocity P-wave (km/s) = 7.04919 7.87419 7.47309
#
# Compressibility (1/GPa) = 0.01550025
#
# Stress axis : x y z
#
# Youngs Moduli (GPa) = 67.52879 41.51577 76.18608
#
# Poissons Ratio (x) = 0.38136 0.53321
# Poissons Ratio (y) = 0.62032 0.15815
# Poissons Ratio (z) = 0.47262 0.08618
#
# Static dielectric constant tensor:
#      x y z
#    x 1.705110 0.000000 0.000000 
#    y 0.000000 1.662130 0.000000 
#    z 0.000000 0.000000 1.694600 
# 
# From -- ./inp_files/29211.got.cif
#   From: 2010.05.17/outbox.cif.g08.bks.cpg/sg74_15_cif.got.tgz:29211.got - 2010.06.03 17:57:02.
