data_PCOD9537514
_publ_section_title
;
Structure prediction by ZEFSAII (Michael W. Deem and Ramdas Pophale) SiO2 
 PCOD9537514
Probable space group: I M M A
;
_chemical_formula_sum "Si O2"
_cell_formula_units_Z 104
_cell_length_a 7.721747
_cell_length_b 21.914792
_cell_length_c 28.677409
_cell_angle_alpha 90.000000
_cell_angle_beta 90.000000
_cell_angle_gamma 90.000000
_cell_volume 4852.804898
_symmetry_space_group_name_H-M "I M M A"
_symmetry_group_IT_number 74
_symmetry_cell_setting 'orthorhombic'
loop_
_space_group_symop_operation_xyz
x,y,z
-x,1/2-y,z
x,-y,-z
-x,1/2+y,-z
-x,-y,-z
x,1/2+y,-z
-x,y,z
x,1/2-y,z
1/2+x,1/2+y,1/2+z
1/2-x,-y,1/2+z
1/2+x,1/2-y,1/2-z
1/2-x,y,1/2-z
1/2-x,1/2-y,1/2-z
1/2+x,y,1/2-z
1/2-x,1/2+y,1/2+z
1/2+x,-y,1/2+z
loop_
_atom_site_type_symbol
_atom_site_label
_atom_site_fract_x
_atom_site_fract_y
_atom_site_fract_z
Si Si1 0.788581 0.319055 0.355455
Si Si2 0.798963 0.644724 0.128843
Si Si3 0.294639 0.896118 0.944786
Si Si4 0.208546 0.817465 0.471692
Si Si5 0.293835 0.065414 0.197568
Si Si6 0.790763 0.250000 0.804535
Si Si7 0.301632 0.512432 0.390655
O O1 0.726399 0.250000 0.351539
O O2 0.729148 0.353146 0.402639
O O3 0.740417 0.364907 0.313809
O O4 0.000000 0.317047 0.356894
O O5 0.789402 0.677913 0.079184
O O6 0.725030 0.689633 0.168260
O O7 0.717926 0.578299 0.118716
O O8 0.000000 0.633927 0.142019
O O9 0.500000 0.886119 0.946562
O O10 0.269487 0.965963 0.929503
O O11 0.227568 0.870625 0.993795
O O12 0.242488 0.750000 0.492176
O O13 0.000000 0.822515 0.465762
O O14 0.500000 0.061040 0.190362
O O15 0.250000 0.048236 0.250000
O O16 0.209678 0.023308 0.158300
O O17 0.750000 0.250000 0.750000
O O18 0.000000 0.250000 0.809884
O O19 0.500000 0.522660 0.404136
#
# Coordination Sequence:
#
# PCOD9537514 Si02
#       7
#    16  16  16  16  16   8  16
#     4   8  14  27  48  72 101 138 179 221 266 314
#     4  10  22  40  60  82 112 146 179 224 282 337
#     4   9  18  33  53  80 113 149 185 226 275 322
#     4  10  20  34  57  87 116 148 189 231 272 326
#     4  10  20  34  53  76 104 140 179 226 281 332
#     4  10  22  42  64  86 112 142 180 230 287 344
#     4  10  21  37  56  79 108 144 188 232 276 334
#
# _framework density 21.430904999999999
#
# number of rings (size 3 to 8) (size 9 to 14) (size 15 to 20)
#    0.000    2.462    0.769    2.308    0.000    5.846 
#    0.000    4.615    0.000   14.769    0.000    0.000 
#    0.000    0.000    0.000    0.000    0.000    0.000 
#
# Total GULP energy -290073.668755 kJ/mol
# GULP energy per Si atom -5578.339784 kJ/mol
# Density = 2.138213 g / cm^3
# Si number density = 21.430905 Si / 1000 Ang^3
#
#
#
# Elastic Constant Matrix: (Units=GPa)
#
#
# Indices 1 2 3 4 5 6 
#
# 1 30.0942 -2.8314 -10.2263 0.0000 0.0000 0.0000
# 2 -2.8314 148.6874 40.8519 0.0000 0.0000 0.0000
# 3 -10.2263 40.8519 107.1203 0.0000 0.0000 0.0000
# 4 0.0000 0.0000 0.0000 8.1294 0.0000 0.0000
# 5 0.0000 0.0000 0.0000 0.0000 17.7802 0.0000
# 6 0.0000 0.0000 0.0000 0.0000 0.0000 15.5389
#
#
#
# Elastic Compliance Matrix: (Units=1/GPa)
#
#
# Indices 1 2 3 4 5 6 
#
# 1 0.034353 -0.000276 0.003385 0.000000 0.000000 0.000000
# 2 -0.000276 0.007515 -0.002892 0.000000 0.000000 0.000000
# 3 0.003385 -0.002892 0.010761 0.000000 0.000000 0.000000
# 4 0.000000 0.000000 0.000000 0.123010 0.000000 0.000000
# 5 0.000000 0.000000 0.000000 0.000000 0.056242 0.000000
# 6 0.000000 0.000000 0.000000 0.000000 0.000000 0.064355
#
#
# Mechanical properties :
#
#
# Convention : Reuss Voigt Hill
#
# Bulk Modulus (GPa) = 18.84553 37.94337 28.39445
# Shear Modulus (GPa) = 15.94941 25.49688 20.72315
#
# Velocity S-wave (km/s) = 2.73101 3.45298 3.11300
# Velocity P-wave (km/s) = 4.33096 5.80007 5.11850
#
# Compressibility (1/GPa) = 0.05306298
#
# Stress axis : x y z
#
# Youngs Moduli (GPa) = 29.10933 133.06874 92.92448
#
# Poissons Ratio (x) = 0.03670 -0.31452
# Poissons Ratio (y) = 0.00803 0.26876
# Poissons Ratio (z) = -0.09853 0.38487
#
# Static dielectric constant tensor:
#      x y z
#    x 1.817970 0.000000 0.000000 
#    y 0.000000 1.815940 0.000000 
#    z 0.000000 0.000000 1.742180 
# 
# From -- ./inp_files/64445.got.cif
#   From: 2010.05.17/outbox.cif.g08.bks.cpg/sg74_33_cif.got.tgz:64445.got - 2010.06.03 17:57:02.
