data_PCOD9537484
_publ_section_title
;
Structure prediction by ZEFSAII (Michael W. Deem and Ramdas Pophale) SiO2 
 PCOD9537484
Probable space group: I M M A
;
_chemical_formula_sum "Si O2"
_cell_formula_units_Z 128
_cell_length_a 16.399609
_cell_length_b 26.357776
_cell_length_c 16.373760
_cell_angle_alpha 90.000000
_cell_angle_beta 90.000000
_cell_angle_gamma 90.000000
_cell_volume 7077.675987
_symmetry_space_group_name_H-M "I M M A"
_symmetry_group_IT_number 74
_symmetry_cell_setting 'orthorhombic'
loop_
_space_group_symop_operation_xyz
x,y,z
-x,1/2-y,z
x,-y,-z
-x,1/2+y,-z
-x,-y,-z
x,1/2+y,-z
-x,y,z
x,1/2-y,z
1/2+x,1/2+y,1/2+z
1/2-x,-y,1/2+z
1/2+x,1/2-y,1/2-z
1/2-x,y,1/2-z
1/2-x,1/2-y,1/2-z
1/2+x,y,1/2-z
1/2-x,1/2+y,1/2+z
1/2+x,-y,1/2+z
loop_
_atom_site_type_symbol
_atom_site_label
_atom_site_fract_x
_atom_site_fract_y
_atom_site_fract_z
Si Si1 0.317943 0.194403 0.178116
Si Si2 0.594854 0.810563 0.417082
Si Si3 0.900606 0.692420 0.271755
Si Si4 0.098652 0.408459 0.635894
Si Si5 0.317131 0.054728 0.027853
Si Si6 0.598065 0.982864 0.809329
Si Si7 0.596674 0.386779 0.281109
Si Si8 0.698216 0.355925 0.437167
O O1 0.356791 0.250000 0.174415
O O2 0.250000 0.195413 0.250000
O O3 0.377344 0.149572 0.205957
O O4 0.268383 0.181828 0.096194
O O5 0.500000 0.826890 0.425844
O O6 0.596853 0.750000 0.430762
O O7 0.620240 0.818653 0.322870
O O8 0.651994 0.836912 0.483033
O O9 0.872799 0.750000 0.292802
O O10 0.873226 0.645560 0.327923
O O11 0.000000 0.693607 0.274800
O O12 0.132114 0.420031 0.545805
O O13 0.123561 0.458034 0.689783
O O14 0.000000 0.407631 0.633647
O O15 0.372783 0.042231 0.105993
O O16 0.243905 0.091515 0.048813
O O17 0.285768 0.000000 0.000000
O O18 0.500000 0.982751 0.807387
O O19 0.626722 0.943931 0.739289
O O20 0.500000 0.387230 0.288941
O O21 0.635996 0.364285 0.362543
#
# Coordination Sequence:
#
# PCOD9537484 Si02
#       8
#    16  16  16  16  16  16  16  16
#     4   9  18  32  51  75 102 134 170 211 261 311
#     4   9  18  34  57  80 103 139 185 223 256 310
#     4   8  15  31  55  81 107 134 169 218 270 312
#     4   9  17  32  57  82 103 135 181 227 265 313
#     4  10  20  34  52  77 107 142 180 215 266 321
#     4   9  17  32  54  79 103 134 181 225 260 312
#     4  10  20  34  54  76 103 141 179 219 263 309
#     4  11  20  34  52  75 111 142 174 215 267 320
#
# _framework density 18.085032999999999
#
# number of rings (size 3 to 8) (size 9 to 14) (size 15 to 20)
#    0.000    2.625    1.250    1.875    0.000    2.250 
#    2.250    1.875    0.000    2.250    0.000    0.000 
#    0.000    0.000    0.000    0.000    0.000    0.000 
#
# Total GULP energy -356566.165877 kJ/mol
# GULP energy per Si atom -5571.346342 kJ/mol
# Density = 1.804387 g / cm^3
# Si number density = 18.085033 Si / 1000 Ang^3
#
#
#
# Elastic Constant Matrix: (Units=GPa)
#
#
# Indices 1 2 3 4 5 6 
#
# 1 18.1725 22.0652 8.6809 0.0000 0.0000 0.0000
# 2 22.0652 122.9977 49.6531 0.0000 0.0000 0.0000
# 3 8.6809 49.6531 53.8725 0.0000 0.0000 0.0000
# 4 0.0000 0.0000 0.0000 22.9469 0.0000 0.0000
# 5 0.0000 0.0000 0.0000 0.0000 2.4923 0.0000
# 6 0.0000 0.0000 0.0000 0.0000 0.0000 19.9504
#
#
#
# Elastic Compliance Matrix: (Units=1/GPa)
#
#
# Indices 1 2 3 4 5 6 
#
# 1 0.070360 -0.012813 0.000471 0.000000 0.000000 0.000000
# 2 -0.012813 0.015281 -0.012019 0.000000 0.000000 0.000000
# 3 0.000471 -0.012019 0.029564 0.000000 0.000000 0.000000
# 4 0.000000 0.000000 0.000000 0.043579 0.000000 0.000000
# 5 0.000000 0.000000 0.000000 0.000000 0.401233 0.000000
# 6 0.000000 0.000000 0.000000 0.000000 0.000000 0.050124
#
#
# Mechanical properties :
#
#
# Convention : Reuss Voigt Hill
#
# Bulk Modulus (GPa) = 15.04115 39.53791 27.28953
# Shear Modulus (GPa) = 7.34187 16.72082 12.03135
#
# Velocity S-wave (km/s) = 2.01704 3.04397 2.58207
# Velocity P-wave (km/s) = 3.70939 5.85355 4.90018
#
# Compressibility (1/GPa) = 0.06648427
#
# Stress axis : x y z
#
# Youngs Moduli (GPa) = 14.21255 65.44111 33.82435
#
# Poissons Ratio (x) = 0.83847 -0.01594
# Poissons Ratio (y) = 0.18210 0.40655
# Poissons Ratio (z) = -0.00670 0.78657
#
# Static dielectric constant tensor:
#      x y z
#    x 1.602580 0.000000 0.000000 
#    y 0.000000 1.681620 0.000000 
#    z 0.000000 0.000000 1.619300 
# 
# From -- ./inp_files/44609.got.cif
#   From: 2010.05.17/outbox.cif.g08.bks.cpg/sg74_23_cif.got.tgz:44609.got - 2010.06.03 17:57:02.
