data_PCOD9537467
_publ_section_title
;
Structure prediction by ZEFSAII (Michael W. Deem and Ramdas Pophale) SiO2 
 PCOD9537467
Probable space group: I M M A
;
_chemical_formula_sum "Si O2"
_cell_formula_units_Z 64
_cell_length_a 13.690817
_cell_length_b 8.595607
_cell_length_c 28.704744
_cell_angle_alpha 90.000000
_cell_angle_beta 90.000000
_cell_angle_gamma 90.000000
_cell_volume 3377.999604
_symmetry_space_group_name_H-M "I M M A"
_symmetry_group_IT_number 74
_symmetry_cell_setting 'orthorhombic'
loop_
_space_group_symop_operation_xyz
x,y,z
-x,1/2-y,z
x,-y,-z
-x,1/2+y,-z
-x,-y,-z
x,1/2+y,-z
-x,y,z
x,1/2-y,z
1/2+x,1/2+y,1/2+z
1/2-x,-y,1/2+z
1/2+x,1/2-y,1/2-z
1/2-x,y,1/2-z
1/2-x,1/2-y,1/2-z
1/2+x,y,1/2-z
1/2-x,1/2+y,1/2+z
1/2+x,-y,1/2+z
loop_
_atom_site_type_symbol
_atom_site_label
_atom_site_fract_x
_atom_site_fract_y
_atom_site_fract_z
Si Si1 0.500000 0.940132 0.747126
Si Si2 0.191469 0.574235 0.702421
Si Si3 0.000000 0.061138 0.859444
Si Si4 0.890841 0.936181 0.552500
Si Si5 0.714096 0.433105 0.614075
O O1 0.500000 0.750000 0.744036
O O2 0.590517 0.989636 0.778596
O O3 0.500000 0.001460 0.694207
O O4 0.179129 0.750000 0.682409
O O5 0.250000 0.589425 0.750000
O O6 0.246673 0.469324 0.665742
O O7 0.899203 0.010671 0.884919
O O8 0.000000 0.250000 0.857761
O O9 0.889228 0.750000 0.551666
O O10 0.000000 0.983430 0.571055
O O11 0.884845 0.000000 0.500000
O O12 0.796286 0.993089 0.580813
O O13 0.712137 0.250000 0.604598
#
# Coordination Sequence:
#
# PCOD9537467 Si02
#       5
#     8  16   8  16  16
#     4  10  20  34  52  75 110 153 196 242 289 339
#     4  10  20  34  53  79 112 152 197 241 286 337
#     4  10  22  38  55  79 116 157 196 240 284 331
#     4  10  22  42  67  92 118 146 181 230 287 344
#     4  11  23  38  58  85 117 154 196 238 285 340
#
# _framework density 18.946123
#
# number of rings (size 3 to 8) (size 9 to 14) (size 15 to 20)
#    0.000    1.750    2.500    1.500    1.750    4.000 
#    0.000    0.625    0.000    0.000    0.000    0.000 
#    0.000    0.000    0.000    0.000    0.000    0.000 
#
# Total GULP energy -178364.472238 kJ/mol
# GULP energy per Si atom -5573.889757 kJ/mol
# Density = 1.890300 g / cm^3
# Si number density = 18.946123 Si / 1000 Ang^3
#
#
#
# Elastic Constant Matrix: (Units=GPa)
#
#
# Indices 1 2 3 4 5 6 
#
# 1 214.6307 35.6833 60.8122 0.0000 0.0000 0.0000
# 2 35.6833 34.5292 17.0903 0.0000 0.0000 0.0000
# 3 60.8122 17.0903 61.2908 0.0000 0.0000 0.0000
# 4 0.0000 0.0000 0.0000 42.3427 0.0000 0.0000
# 5 0.0000 0.0000 0.0000 0.0000 28.1542 0.0000
# 6 0.0000 0.0000 0.0000 0.0000 0.0000 39.3301
#
#
#
# Elastic Compliance Matrix: (Units=1/GPa)
#
#
# Indices 1 2 3 4 5 6 
#
# 1 0.007017 -0.004415 -0.005731 0.000000 0.000000 0.000000
# 2 -0.004415 0.036376 -0.005763 0.000000 0.000000 0.000000
# 3 -0.005731 -0.005763 0.023609 0.000000 0.000000 0.000000
# 4 0.000000 0.000000 0.000000 0.023617 0.000000 0.000000
# 5 0.000000 0.000000 0.000000 0.000000 0.035519 0.000000
# 6 0.000000 0.000000 0.000000 0.000000 0.000000 0.025426
#
#
# Mechanical properties :
#
#
# Convention : Reuss Voigt Hill
#
# Bulk Modulus (GPa) = 28.42175 59.73581 44.07878
# Shear Modulus (GPa) = 25.62681 35.08973 30.35827
#
# Velocity S-wave (km/s) = 3.68178 4.30825 4.00728
# Velocity P-wave (km/s) = 5.75395 7.50638 6.68781
#
# Compressibility (1/GPa) = 0.03518433
#
# Stress axis : x y z
#
# Youngs Moduli (GPa) = 142.51118 27.49093 42.35685
#
# Poissons Ratio (x) = 0.12137 0.24275
# Poissons Ratio (y) = 0.62917 0.24408
# Poissons Ratio (z) = 0.81676 0.15842
#
# Static dielectric constant tensor:
#      x y z
#    x 1.675170 0.000000 0.000000 
#    y 0.000000 1.671490 0.000000 
#    z 0.000000 0.000000 1.636890 
# 
# From -- ./inp_files/63493.got.cif
#   From: 2010.05.17/outbox.cif.g08.bks.cpg/sg74_32_cif.got.tgz:63493.got - 2010.06.03 17:57:02.
