data_PCOD9537377
_publ_section_title
;
Structure prediction by ZEFSAII (Michael W. Deem and Ramdas Pophale) SiO2 
 PCOD9537377
Probable space group: I M M A
;
_chemical_formula_sum "Si O2"
_cell_formula_units_Z 112
_cell_length_a 15.597145
_cell_length_b 29.238634
_cell_length_c 13.038969
_cell_angle_alpha 90.000000
_cell_angle_beta 90.000000
_cell_angle_gamma 90.000000
_cell_volume 5946.281175
_symmetry_space_group_name_H-M "I M M A"
_symmetry_group_IT_number 74
_symmetry_cell_setting 'orthorhombic'
loop_
_space_group_symop_operation_xyz
x,y,z
-x,1/2-y,z
x,-y,-z
-x,1/2+y,-z
-x,-y,-z
x,1/2+y,-z
-x,y,z
x,1/2-y,z
1/2+x,1/2+y,1/2+z
1/2-x,-y,1/2+z
1/2+x,1/2-y,1/2-z
1/2-x,y,1/2-z
1/2-x,1/2-y,1/2-z
1/2+x,y,1/2-z
1/2-x,1/2+y,1/2+z
1/2+x,-y,1/2+z
loop_
_atom_site_type_symbol
_atom_site_label
_atom_site_fract_x
_atom_site_fract_y
_atom_site_fract_z
Si Si1 0.095523 0.624876 0.861476
Si Si2 0.328268 0.036205 0.306167
Si Si3 0.401700 0.389247 0.914072
Si Si4 0.187761 0.698980 0.345875
Si Si5 0.904302 0.343285 0.370586
Si Si6 0.767722 0.300738 0.069441
Si Si7 0.673199 0.015599 0.886819
O O1 0.119215 0.571554 0.872583
O O2 0.094762 0.632693 0.738815
O O3 0.165804 0.659377 0.905210
O O4 0.000000 0.634588 0.900987
O O5 0.250000 0.064111 0.250000
O O6 0.371485 0.010555 0.209431
O O7 0.272412 0.999407 0.369648
O O8 0.500000 0.402407 0.896551
O O9 0.378703 0.342167 0.857326
O O10 0.341554 0.430627 0.880603
O O11 0.390884 0.378390 0.035296
O O12 0.148597 0.750000 0.340274
O O13 0.250000 0.692772 0.250000
O O14 0.244284 0.697685 0.449345
O O15 0.823680 0.309529 0.375387
O O16 0.000000 0.322630 0.386821
O O17 0.800405 0.250000 0.095756
O O18 0.644815 0.000000 0.000000
#
# Coordination Sequence:
#
# PCOD9537377 Si02
#       7
#    16  16  16  16  16  16  16
#     4  11  21  35  55  78 114 156 193 228 270 332
#     4   8  20  33  51  78 100 145 192 226 278 330
#     4  10  20  33  55  87 115 139 178 236 291 338
#     4   9  20  38  62  83 105 146 189 226 279 343
#     4   9  19  33  55  84 113 146 182 224 277 338
#     4  10  21  36  57  84 114 146 186 233 280 337
#     4   9  19  32  54  79 106 148 181 232 280 336
#
# _framework density 18.835303
#
# number of rings (size 3 to 8) (size 9 to 14) (size 15 to 20)
#    0.857    1.571    0.000    2.143    6.000    2.857 
#    0.000    5.000    0.000    3.000    0.000    0.000 
#    0.000    0.000    0.000    0.000    0.000    0.000 
#
# Total GULP energy -311742.083652 kJ/mol
# GULP energy per Si atom -5566.822922 kJ/mol
# Density = 1.879243 g / cm^3
# Si number density = 18.835303 Si / 1000 Ang^3
#
#
#
# Elastic Constant Matrix: (Units=GPa)
#
#
# Indices 1 2 3 4 5 6 
#
# 1 76.9038 42.6116 11.7458 0.0000 0.0000 0.0000
# 2 42.6116 108.7743 23.5552 0.0000 0.0000 0.0000
# 3 11.7458 23.5552 23.9582 0.0001 0.0000 -0.0001
# 4 0.0000 0.0000 0.0001 10.3886 0.0000 0.0000
# 5 0.0000 0.0000 0.0000 0.0000 13.3766 0.0000
# 6 0.0000 0.0000 -0.0001 0.0000 0.0000 2.8021
#
#
#
# Elastic Compliance Matrix: (Units=1/GPa)
#
#
# Indices 1 2 3 4 5 6 
#
# 1 0.016702 -0.006060 -0.002230 0.000000 0.000000 0.000000
# 2 -0.006060 0.013879 -0.010674 0.000000 0.000000 0.000000
# 3 -0.002230 -0.010674 0.053328 -0.000001 0.000000 0.000001
# 4 0.000000 0.000000 -0.000001 0.096260 0.000000 0.000001
# 5 0.000000 0.000000 0.000000 0.000000 0.074758 0.000000
# 6 0.000000 0.000000 0.000001 0.000001 0.000000 0.356875
#
#
# Mechanical properties :
#
#
# Convention : Reuss Voigt Hill
#
# Bulk Modulus (GPa) = 21.74907 40.60683 31.17795
# Shear Modulus (GPa) = 7.51817 14.09503 10.80660
#
# Velocity S-wave (km/s) = 2.00005 2.73853 2.39789
# Velocity P-wave (km/s) = 4.11165 5.62184 4.92497
#
# Compressibility (1/GPa) = 0.04597898
#
# Stress axis : x y z
#
# Youngs Moduli (GPa) = 59.87474 72.05241 18.75196
#
# Poissons Ratio (x) = 0.43662 0.04182
# Poissons Ratio (y) = 0.36282 0.20017
# Poissons Ratio (z) = 0.13354 0.76912
#
# Static dielectric constant tensor:
#      x y z
#    x 1.665630 0.000000 0.000000 
#    y 0.000000 1.668750 0.000000 
#    z 0.000000 0.000000 1.665380 
# 
# From -- ./inp_files/33150.got.cif
#   From: 2010.05.17/outbox.cif.g08.bks.cpg/sg74_17_cif.got.tgz:33150.got - 2010.06.03 17:57:02.
