data_PCOD9537609
_publ_section_title
;
Structure prediction by ZEFSAII (Michael W. Deem and Ramdas Pophale) SiO2 
 PCOD9537609
Probable space group: I M M A
;
_chemical_formula_sum "Si O2"
_cell_formula_units_Z 104
_cell_length_a 22.296103
_cell_length_b 8.952232
_cell_length_c 30.777630
_cell_angle_alpha 90.000000
_cell_angle_beta 90.000000
_cell_angle_gamma 90.000000
_cell_volume 6143.211462
_symmetry_space_group_name_H-M "I M M A"
_symmetry_group_IT_number 74
_symmetry_cell_setting 'orthorhombic'
loop_
_space_group_symop_operation_xyz
x,y,z
-x,1/2-y,z
x,-y,-z
-x,1/2+y,-z
-x,-y,-z
x,1/2+y,-z
-x,y,z
x,1/2-y,z
1/2+x,1/2+y,1/2+z
1/2-x,-y,1/2+z
1/2+x,1/2-y,1/2-z
1/2-x,y,1/2-z
1/2-x,1/2-y,1/2-z
1/2+x,y,1/2-z
1/2-x,1/2+y,1/2+z
1/2+x,-y,1/2+z
loop_
_atom_site_type_symbol
_atom_site_label
_atom_site_fract_x
_atom_site_fract_y
_atom_site_fract_z
Si Si1 0.429193 0.572049 0.802980
Si Si2 0.000000 0.569665 0.451767
Si Si3 0.355332 0.926862 0.453747
Si Si4 0.213114 0.427781 0.546533
Si Si5 0.427115 0.077769 0.713984
Si Si6 0.888968 0.070195 0.398950
Si Si7 0.070909 0.427864 0.124068
O O1 0.500000 0.536886 0.808856
O O2 0.424854 0.750000 0.796064
O O3 0.406677 0.490306 0.759784
O O4 0.397089 0.534361 0.848042
O O5 0.000000 0.500000 0.500000
O O6 0.941972 0.508738 0.426044
O O7 0.000000 0.750000 0.453632
O O8 0.365826 0.750000 0.455846
O O9 0.284108 0.951329 0.446693
O O10 0.371249 0.000000 0.500000
O O11 0.392570 0.997626 0.414714
O O12 0.197301 0.500000 0.500000
O O13 0.201453 0.250000 0.545806
O O14 0.173110 0.508931 0.582327
O O15 0.500000 0.070118 0.715117
O O16 0.409619 0.250000 0.710009
O O17 0.408628 0.988246 0.671084
O O18 0.893817 0.250000 0.403944
O O19 0.077450 0.250000 0.122623
O O20 0.000000 0.463602 0.119528
#
# Coordination Sequence:
#
# PCOD9537609 Si02
#       7
#    16   8  16  16  16  16  16
#     4   9  17  31  49  71 102 136 171 212 259 311
#     4  12  24  36  50  70 102 138 174 220 273 322
#     4  10  21  37  57  79 106 138 175 215 255 305
#     4  10  21  37  55  76 100 134 177 218 260 309
#     4   9  17  29  48  75 105 137 172 209 252 305
#     4  11  21  35  53  75 103 136 175 219 267 316
#     4  10  20  34  54  81 111 141 172 207 254 308
#
# _framework density 16.929257
#
# number of rings (size 3 to 8) (size 9 to 14) (size 15 to 20)
#    0.000    2.000    0.769    3.462    0.000    6.154 
#    0.000    0.000    0.000    0.923    0.000    6.462 
#    0.000    0.000    0.000    0.000    0.000    0.000 
#
# Total GULP energy -290260.763067 kJ/mol
# GULP energy per Si atom -5581.937751 kJ/mol
# Density = 1.689073 g / cm^3
# Si number density = 16.929257 Si / 1000 Ang^3
#
#
#
# Elastic Constant Matrix: (Units=GPa)
#
#
# Indices 1 2 3 4 5 6 
#
# 1 40.7762 49.8759 66.5556 0.0000 0.0000 0.0000
# 2 49.8759 98.1420 92.3225 0.0000 0.0000 0.0000
# 3 66.5556 92.3225 185.6545 0.0000 0.0000 0.0000
# 4 0.0000 0.0000 0.0000 36.6153 0.0000 0.0000
# 5 0.0000 0.0000 0.0000 0.0000 7.0302 0.0000
# 6 0.0000 0.0000 0.0000 0.0000 0.0000 25.4124
#
#
#
# Elastic Compliance Matrix: (Units=1/GPa)
#
#
# Indices 1 2 3 4 5 6 
#
# 1 0.086757 -0.027870 -0.017242 0.000000 0.000000 0.000000
# 2 -0.027870 0.028099 -0.003982 0.000000 0.000000 0.000000
# 3 -0.017242 -0.003982 0.013548 0.000000 0.000000 0.000000
# 4 0.000000 0.000000 0.000000 0.027311 0.000000 0.000000
# 5 0.000000 0.000000 0.000000 0.000000 0.142244 0.000000
# 6 0.000000 0.000000 0.000000 0.000000 0.000000 0.039351
#
#
# Mechanical properties :
#
#
# Convention : Reuss Voigt Hill
#
# Bulk Modulus (GPa) = 33.09629 82.45342 57.77486
# Shear Modulus (GPa) = 11.22161 21.53280 16.37721
#
# Velocity S-wave (km/s) = 2.57739 3.57028 3.11366
# Velocity P-wave (km/s) = 5.33380 8.11211 6.86497
#
# Compressibility (1/GPa) = 0.03021487
#
# Stress axis : x y z
#
# Youngs Moduli (GPa) = 11.52643 35.58905 73.81365
#
# Poissons Ratio (x) = 0.99187 1.27273
# Poissons Ratio (y) = 0.32124 0.29390
# Poissons Ratio (z) = 0.19874 0.14170
#
# Static dielectric constant tensor:
#      x y z
#    x 1.557540 0.000000 0.000000 
#    y 0.000000 1.564800 0.000000 
#    z 0.000000 0.000000 1.554400 
# 
# From -- ./inp_files/68642.got.cif
#   From: 2010.05.17/outbox.cif.g08.bks.cpg/sg74_35_cif.got.tgz:68642.got - 2010.06.03 17:57:02.
