data_PCOD9537222
_publ_section_title
;
Structure prediction by ZEFSAII (Michael W. Deem and Ramdas Pophale) SiO2 
 PCOD9537222
Probable space group: I M M A
;
_chemical_formula_sum "Si O2"
_cell_formula_units_Z 104
_cell_length_a 19.271248
_cell_length_b 9.201923
_cell_length_c 30.812631
_cell_angle_alpha 90.000000
_cell_angle_beta 90.000000
_cell_angle_gamma 90.000000
_cell_volume 5464.082126
_symmetry_space_group_name_H-M "I M M A"
_symmetry_group_IT_number 74
_symmetry_cell_setting 'orthorhombic'
loop_
_space_group_symop_operation_xyz
x,y,z
-x,1/2-y,z
x,-y,-z
-x,1/2+y,-z
-x,-y,-z
x,1/2+y,-z
-x,y,z
x,1/2-y,z
1/2+x,1/2+y,1/2+z
1/2-x,-y,1/2+z
1/2+x,1/2-y,1/2-z
1/2-x,y,1/2-z
1/2-x,1/2-y,1/2-z
1/2+x,y,1/2-z
1/2-x,1/2+y,1/2+z
1/2+x,-y,1/2+z
loop_
_atom_site_type_symbol
_atom_site_label
_atom_site_fract_x
_atom_site_fract_y
_atom_site_fract_z
Si Si1 0.576532 0.418107 0.430171
Si Si2 0.826439 0.917509 0.229846
Si Si3 0.918046 0.080833 0.688979
Si Si4 0.687428 0.000000 0.500000
Si Si5 0.419182 0.576463 0.902309
Si Si6 0.788078 0.083207 0.575966
Si Si7 0.682527 0.074310 0.360849
O O1 0.500000 0.481113 0.440035
O O2 0.566983 0.250000 0.420013
O O3 0.632678 0.420575 0.468662
O O4 0.615722 0.480589 0.388399
O O5 0.844843 0.750000 0.218270
O O6 0.750000 0.915930 0.250000
O O7 0.877081 0.967609 0.268388
O O8 0.824949 0.016996 0.187626
O O9 0.898345 0.250000 0.680301
O O10 0.000000 0.077533 0.697750
O O11 0.906138 0.984438 0.646372
O O12 0.738725 0.079164 0.533588
O O13 0.500000 0.543071 0.912973
O O14 0.410354 0.750000 0.903766
O O15 0.361491 0.496355 0.931177
O O16 0.798913 0.250000 0.588691
O O17 0.747650 0.995988 0.613857
O O18 0.687858 0.250000 0.362429
#
# Coordination Sequence:
#
# PCOD9537222 Si02
#       7
#    16  16  16   8  16  16  16
#     4   9  18  34  55  79 109 143 179 221 269 321
#     4  10  20  33  50  74 105 142 185 230 274 321
#     4   9  18  33  53  77 107 144 184 226 274 327
#     4  10  21  36  57  84 110 140 182 224 265 318
#     4  10  21  37  58  84 112 142 179 224 272 325
#     4  11  22  37  59  83 110 144 180 222 273 329
#     4  10  21  35  53  79 111 147 187 230 277 327
#
# _framework density 19.033390000000001
#
# number of rings (size 3 to 8) (size 9 to 14) (size 15 to 20)
#    0.000    2.154    0.000    3.000    0.000    5.538 
#    0.000    0.385    0.000    8.769    0.000    0.000 
#    0.000    0.000    0.000    0.000    0.000    0.000 
#
# Total GULP energy -289817.303120 kJ/mol
# GULP energy per Si atom -5573.409675 kJ/mol
# Density = 1.899007 g / cm^3
# Si number density = 19.033390 Si / 1000 Ang^3
#
#
#
# Elastic Constant Matrix: (Units=GPa)
#
#
# Indices 1 2 3 4 5 6 
#
# 1 134.9996 46.8244 50.9094 0.0000 0.0000 0.0000
# 2 46.8244 71.2058 17.4210 0.0000 0.0000 0.0000
# 3 50.9094 17.4210 62.4745 0.0000 0.0000 0.0000
# 4 0.0000 0.0000 0.0000 23.1055 0.0000 0.0000
# 5 0.0000 0.0000 0.0000 0.0000 18.1902 0.0000
# 6 0.0000 0.0000 0.0000 0.0000 0.0000 21.1147
#
#
#
# Elastic Compliance Matrix: (Units=1/GPa)
#
#
# Indices 1 2 3 4 5 6 
#
# 1 0.012908 -0.006348 -0.008749 0.000000 0.000000 0.000000
# 2 -0.006348 0.018194 0.000100 0.000000 0.000000 0.000000
# 3 -0.008749 0.000100 0.023108 0.000000 0.000000 0.000000
# 4 0.000000 0.000000 0.000000 0.043280 0.000000 0.000000
# 5 0.000000 0.000000 0.000000 0.000000 0.054975 0.000000
# 6 0.000000 0.000000 0.000000 0.000000 0.000000 0.047360
#
#
# Mechanical properties :
#
#
# Convention : Reuss Voigt Hill
#
# Bulk Modulus (GPa) = 41.29523 55.44327 48.36925
# Shear Modulus (GPa) = 21.01801 22.71711 21.86756
#
# Velocity S-wave (km/s) = 3.32666 3.45851 3.39323
# Velocity P-wave (km/s) = 6.04143 6.71871 6.38905
#
# Compressibility (1/GPa) = 0.02421587
#
# Stress axis : x y z
#
# Youngs Moduli (GPa) = 77.46853 54.96354 43.27512
#
# Poissons Ratio (x) = 0.34891 0.37860
# Poissons Ratio (y) = 0.49178 -0.00431
# Poissons Ratio (z) = 0.67775 -0.00547
#
# Static dielectric constant tensor:
#      x y z
#    x 1.716130 0.000000 0.000000 
#    y 0.000000 1.661580 0.000000 
#    z 0.000000 0.000000 1.653920 
# 
# From -- ./inp_files/73375.got.cif
#   From: 2010.05.17/outbox.cif.g08.bks.cpg/sg74_37_cif.got.tgz:73375.got - 2010.06.03 17:57:02.
