data_PCOD9537005
_publ_section_title
;
Structure prediction by ZEFSAII (Michael W. Deem and Ramdas Pophale) SiO2 
 PCOD9537005
Probable space group: I M M A
;
_chemical_formula_sum "Si O2"
_cell_formula_units_Z 104
_cell_length_a 7.273058
_cell_length_b 18.819759
_cell_length_c 35.147363
_cell_angle_alpha 90.000000
_cell_angle_beta 90.000000
_cell_angle_gamma 90.000000
_cell_volume 4810.872591
_symmetry_space_group_name_H-M "I M M A"
_symmetry_group_IT_number 74
_symmetry_cell_setting 'orthorhombic'
loop_
_space_group_symop_operation_xyz
x,y,z
-x,1/2-y,z
x,-y,-z
-x,1/2+y,-z
-x,-y,-z
x,1/2+y,-z
-x,y,z
x,1/2-y,z
1/2+x,1/2+y,1/2+z
1/2-x,-y,1/2+z
1/2+x,1/2-y,1/2-z
1/2-x,y,1/2-z
1/2-x,1/2-y,1/2-z
1/2+x,y,1/2-z
1/2-x,1/2+y,1/2+z
1/2+x,-y,1/2+z
loop_
_atom_site_type_symbol
_atom_site_label
_atom_site_fract_x
_atom_site_fract_y
_atom_site_fract_z
Si Si1 0.775758 0.172428 0.487653
Si Si2 0.276225 0.457699 0.154044
Si Si3 0.276725 0.046693 0.067044
Si Si4 0.723352 0.615486 0.067083
Si Si5 0.780889 0.750000 0.295125
Si Si6 0.780943 0.828582 0.705121
Si Si7 0.724197 0.380462 0.846366
O O1 0.720081 0.250000 0.473399
O O2 0.713419 0.106977 0.461783
O O3 0.718718 0.162213 0.531435
O O4 0.000000 0.170587 0.487301
O O5 0.500000 0.458825 0.155164
O O6 0.224010 0.439957 0.110715
O O7 0.210715 0.396162 0.182017
O O8 0.218531 0.538622 0.162856
O O9 0.500000 0.046917 0.065635
O O10 0.221619 0.965884 0.058391
O O11 0.500000 0.617029 0.067919
O O12 0.780911 0.634980 0.109901
O O13 0.750000 0.750000 0.250000
O O14 0.713294 0.679279 0.316806
O O15 0.000000 0.750000 0.300310
O O16 0.710254 0.750000 0.694247
O O17 0.750000 0.837557 0.750000
O O18 0.000000 0.826862 0.698911
O O19 0.500000 0.380450 0.846178
#
# Coordination Sequence:
#
# PCOD9537005 Si02
#       7
#    16  16  16  16   8  16  16
#     4   9  15  18  24  42  66  93 128 165 196 227
#     4   8  14  25  39  54  73 101 135 167 202 244
#     4   8  13  21  30  42  64  94 127 160 194 232
#     4   8  13  21  32  44  63  94 129 163 194 228
#     4  10  20  32  46  64  86 110 138 174 216 254
#     4   9  17  28  42  60  80 103 132 166 201 239
#     4   8  15  26  40  56  74 100 135 170 202 243
#
# _framework density 21.617701
#
# number of rings (size 3 to 8) (size 9 to 14) (size 15 to 20)
#    0.000    3.538    0.000    2.308    1.077    3.077 
#    0.000    3.077    0.000    0.000    0.000    0.000 
#    0.000    0.000    0.000    1.385    1.846   13.077 
#
# Total GULP energy -290137.916703 kJ/mol
# GULP energy per Si atom -5579.575321 kJ/mol
# Density = 2.156850 g / cm^3
# Si number density = 21.617701 Si / 1000 Ang^3
#
#
#
# Elastic Constant Matrix: (Units=GPa)
#
#
# Indices 1 2 3 4 5 6 
#
# 1 94.2359 5.1312 0.4390 0.0000 0.0000 0.0000
# 2 5.1312 154.7417 117.6823 0.0000 0.0000 0.0000
# 3 0.4390 117.6823 124.0615 0.0000 0.0000 0.0000
# 4 0.0000 0.0000 0.0000 46.5501 0.0000 0.0000
# 5 0.0000 0.0000 0.0000 0.0000 -6.9712 0.0000
# 6 0.0000 0.0000 0.0000 0.0000 0.0000 -18.2550
#
#
#
# Elastic Compliance Matrix: (Units=1/GPa)
#
#
# Indices 1 2 3 4 5 6 
#
# 1 0.010670 -0.001167 0.001069 0.000000 0.000000 0.000000
# 2 -0.001167 0.023324 -0.022120 0.000000 0.000000 0.000000
# 3 0.001069 -0.022120 0.029040 0.000000 0.000000 0.000000
# 4 0.000000 0.000000 0.000000 0.021482 0.000000 0.000000
# 5 0.000000 0.000000 0.000000 0.000000 -0.143447 0.000000
# 6 0.000000 0.000000 0.000000 0.000000 0.000000 -0.054780
#
#
# Mechanical properties :
#
#
# Convention : Reuss Voigt Hill
#
# Bulk Modulus (GPa) = 53.77083 68.83824 61.30453
# Shear Modulus (GPa) = -79.27064 20.91721 -29.17671
#
# Velocity S-wave (km/s) = -6.06209 3.11400 -3.67777
# Velocity P-wave (km/s) = 4.90623 6.69641 3.22264
#
# Compressibility (1/GPa) = 0.01859745
#
# Stress axis : x y z
#
# Youngs Moduli (GPa) = 93.71871 42.87466 34.43563
#
# Poissons Ratio (x) = 0.05003 -0.03682
# Poissons Ratio (y) = 0.10936 0.76173
# Poissons Ratio (z) = -0.10020 0.94840
#
# Static dielectric constant tensor:
#      x y z
#    x 1.859960 0.000000 0.000000 
#    y 0.000000 1.768960 0.000000 
#    z 0.000000 0.000000 1.734000 
# 
# From -- ./inp_files/66363.got.cif
#   From: 2010.05.17/outbox.cif.g08.bks.cpg/sg74_34_cif.got.tgz:66363.got - 2010.06.03 17:57:02.
