data_PCOD9537889
_publ_section_title
;
Structure prediction by ZEFSAII (Michael W. Deem and Ramdas Pophale) SiO2 
 PCOD9537889
Probable space group: I M M A
;
_chemical_formula_sum "Si O2"
_cell_formula_units_Z 96
_cell_length_a 7.570935
_cell_length_b 27.992753
_cell_length_c 19.928241
_cell_angle_alpha 90.000000
_cell_angle_beta 90.000000
_cell_angle_gamma 90.000000
_cell_volume 4223.418290
_symmetry_space_group_name_H-M "I M M A"
_symmetry_group_IT_number 74
_symmetry_cell_setting 'orthorhombic'
loop_
_space_group_symop_operation_xyz
x,y,z
-x,1/2-y,z
x,-y,-z
-x,1/2+y,-z
-x,-y,-z
x,1/2+y,-z
-x,y,z
x,1/2-y,z
1/2+x,1/2+y,1/2+z
1/2-x,-y,1/2+z
1/2+x,1/2-y,1/2-z
1/2-x,y,1/2-z
1/2-x,1/2-y,1/2-z
1/2+x,y,1/2-z
1/2-x,1/2+y,1/2+z
1/2+x,-y,1/2+z
loop_
_atom_site_type_symbol
_atom_site_label
_atom_site_fract_x
_atom_site_fract_y
_atom_site_fract_z
Si Si1 0.285788 0.849320 0.039620
Si Si2 0.795128 0.046199 0.536263
Si Si3 0.711549 0.605563 0.671752
Si Si4 0.709121 0.697907 0.594929
Si Si5 0.289297 0.498105 0.671785
Si Si6 0.788571 0.195365 0.676531
O O1 0.500000 0.851261 0.041003
O O2 0.217836 0.901997 0.020310
O O3 0.222721 0.834224 0.113208
O O4 0.232683 0.811263 0.983918
O O5 0.000000 0.048067 0.515277
O O6 0.713759 0.000000 0.500000
O O7 0.786773 0.037215 0.616128
O O8 0.500000 0.603829 0.662128
O O9 0.750000 0.613273 0.750000
O O10 0.783675 0.650704 0.630965
O O11 0.777730 0.552085 0.655655
O O12 0.500000 0.698911 0.609877
O O13 0.782101 0.750000 0.613922
O O14 0.500000 0.497414 0.664297
O O15 0.250000 0.488070 0.750000
O O16 0.720096 0.250000 0.674484
O O17 0.750000 0.174953 0.750000
O O18 0.000000 0.197850 0.670347
#
# Coordination Sequence:
#
# PCOD9537889 Si02
#       6
#    16  16  16  16  16  16
#     4  10  21  36  54  77 105 137 174 215 259 311
#     4  10  21  36  54  78 108 139 174 220 269 315
#     4   9  19  35  54  78 107 139 176 217 262 313
#     4  10  21  36  54  78 108 139 174 219 266 313
#     4  10  20  35  56  79 106 141 179 219 264 318
#     4   9  18  33  52  73  98 128 163 203 246 296
#
# _framework density 22.730402000000002
#
# number of rings (size 3 to 8) (size 9 to 14) (size 15 to 20)
#    0.000    2.333    0.000    2.000    0.000    5.000 
#    0.000    3.333    0.000    0.000    0.000    0.000 
#    0.000    0.000    0.000    0.000    0.000    0.000 
#
# Total GULP energy -268141.612583 kJ/mol
# GULP energy per Si atom -5586.283595 kJ/mol
# Density = 2.267867 g / cm^3
# Si number density = 22.730402 Si / 1000 Ang^3
#
#
#
# Elastic Constant Matrix: (Units=GPa)
#
#
# Indices 1 2 3 4 5 6 
#
# 1 58.4265 -1.2511 -14.8139 0.0000 0.0000 0.0000
# 2 -1.2511 64.7220 0.2735 0.0000 0.0000 0.0000
# 3 -14.8139 0.2735 34.3396 0.0000 0.0000 0.0000
# 4 0.0000 0.0000 0.0000 36.2524 0.0000 0.0000
# 5 0.0000 0.0000 0.0000 0.0000 21.6687 0.0000
# 6 0.0000 0.0000 0.0000 0.0000 0.0000 11.2263
#
#
#
# Elastic Compliance Matrix: (Units=1/GPa)
#
#
# Indices 1 2 3 4 5 6 
#
# 1 0.019225 0.000337 0.008291 0.000000 0.000000 0.000000
# 2 0.000337 0.015457 0.000022 0.000000 0.000000 0.000000
# 3 0.008291 0.000022 0.032697 0.000000 0.000000 0.000000
# 4 0.000000 0.000000 0.000000 0.027584 0.000000 0.000000
# 5 0.000000 0.000000 0.000000 0.000000 0.046149 0.000000
# 6 0.000000 0.000000 0.000000 0.000000 0.000000 0.089077
#
#
# Mechanical properties :
#
#
# Convention : Reuss Voigt Hill
#
# Bulk Modulus (GPa) = 11.80942 13.98947 12.89944
# Shear Modulus (GPa) = 20.73680 25.38144 23.05912
#
# Velocity S-wave (km/s) = 3.02370 3.34523 3.18852
# Velocity P-wave (km/s) = 4.17097 4.59223 4.38666
#
# Compressibility (1/GPa) = 0.08467820
#
# Stress axis : x y z
#
# Youngs Moduli (GPa) = 52.01608 64.69514 30.58351
#
# Poissons Ratio (x) = -0.02178 -0.25356
# Poissons Ratio (y) = -0.01751 -0.00068
# Poissons Ratio (z) = -0.43125 -0.00143
#
# Static dielectric constant tensor:
#      x y z
#    x 1.884560 0.000000 0.000000 
#    y 0.000000 1.868060 0.000000 
#    z 0.000000 0.000000 1.817790 
# 
# From -- ./inp_files/49056.got.cif
#   From: 2010.05.17/outbox.cif.g08.bks.cpg/sg74_25_cif.got.tgz:49056.got - 2010.06.03 17:57:02.
