data_PCOD9537497
_publ_section_title
;
Structure prediction by ZEFSAII (Michael W. Deem and Ramdas Pophale) SiO2 
 PCOD9537497
Probable space group: I M M A
;
_chemical_formula_sum "Si O2"
_cell_formula_units_Z 104
_cell_length_a 21.222922
_cell_length_b 7.906940
_cell_length_c 33.078453
_cell_angle_alpha 90.000000
_cell_angle_beta 90.000000
_cell_angle_gamma 90.000000
_cell_volume 5550.841309
_symmetry_space_group_name_H-M "I M M A"
_symmetry_group_IT_number 74
_symmetry_cell_setting 'orthorhombic'
loop_
_space_group_symop_operation_xyz
x,y,z
-x,1/2-y,z
x,-y,-z
-x,1/2+y,-z
-x,-y,-z
x,1/2+y,-z
-x,y,z
x,1/2-y,z
1/2+x,1/2+y,1/2+z
1/2-x,-y,1/2+z
1/2+x,1/2-y,1/2-z
1/2-x,y,1/2-z
1/2-x,1/2-y,1/2-z
1/2+x,y,1/2-z
1/2-x,1/2+y,1/2+z
1/2+x,-y,1/2+z
loop_
_atom_site_type_symbol
_atom_site_label
_atom_site_fract_x
_atom_site_fract_y
_atom_site_fract_z
Si Si1 0.429070 0.043322 0.728866
Si Si2 0.000000 0.549154 0.046625
Si Si3 0.570086 0.043699 0.822971
Si Si4 0.677083 0.054343 0.668847
Si Si5 0.693684 0.953399 0.131738
Si Si6 0.758367 0.549412 0.544924
Si Si7 0.131111 0.050538 0.084331
O O1 0.500000 0.989731 0.715934
O O2 0.428957 0.250000 0.726527
O O3 0.421034 0.997688 0.775898
O O4 0.370719 0.980000 0.701968
O O5 0.062803 0.478050 0.066651
O O6 0.000000 0.750000 0.050925
O O7 0.000000 0.500000 0.000000
O O8 0.500000 0.987962 0.835634
O O9 0.570098 0.250000 0.824236
O O10 0.627975 0.983555 0.850131
O O11 0.687713 0.250000 0.680656
O O12 0.745845 0.980510 0.657409
O O13 0.640746 0.045496 0.626274
O O14 0.694847 0.750000 0.135871
O O15 0.703321 0.989596 0.084294
O O16 0.779116 0.500000 0.500000
O O17 0.758930 0.750000 0.546029
O O18 0.686304 0.491742 0.553789
O O19 0.140576 0.250000 0.092211
#
# Coordination Sequence:
#
# PCOD9537497 Si02
#       7
#    16   8  16  16  16  16  16
#     4   8  14  24  40  65  97 130 167 206 244 285
#     4  12  24  36  50  68  92 124 164 208 252 294
#     4   8  14  26  45  70  99 130 161 199 246 292
#     4   9  17  28  44  69  97 127 165 207 249 288
#     4   9  17  29  47  72  99 125 160 203 245 292
#     4  10  20  34  53  73  96 125 157 196 242 293
#     4  10  21  35  49  68  95 128 164 203 246 291
#
# _framework density 18.735897999999999
#
# number of rings (size 3 to 8) (size 9 to 14) (size 15 to 20)
#    0.000    2.769    0.000    3.000    1.077    3.692 
#    0.000    3.077    0.000    1.846    0.000    6.462 
#    0.000    0.000    0.000    0.000    0.000    0.000 
#
# Total GULP energy -289816.595140 kJ/mol
# GULP energy per Si atom -5573.396060 kJ/mol
# Density = 1.869325 g / cm^3
# Si number density = 18.735898 Si / 1000 Ang^3
#
#
#
# Elastic Constant Matrix: (Units=GPa)
#
#
# Indices 1 2 3 4 5 6 
#
# 1 172.0595 3.7852 104.0055 0.0000 0.0000 0.0000
# 2 3.7852 27.5905 1.3659 0.0000 0.0000 0.0000
# 3 104.0055 1.3659 100.0155 0.0000 0.0000 0.0000
# 4 0.0000 0.0000 0.0000 12.0063 0.0000 0.0000
# 5 0.0000 0.0000 0.0000 0.0000 21.0524 0.0000
# 6 0.0000 0.0000 0.0000 0.0000 0.0000 6.2107
#
#
#
# Elastic Compliance Matrix: (Units=1/GPa)
#
#
# Indices 1 2 3 4 5 6 
#
# 1 0.015698 -0.001346 -0.016306 0.000000 0.000000 0.000000
# 2 -0.001346 0.036384 0.000903 0.000000 0.000000 0.000000
# 3 -0.016306 0.000903 0.026943 0.000000 0.000000 0.000000
# 4 0.000000 0.000000 0.000000 0.083289 0.000000 0.000000
# 5 0.000000 0.000000 0.000000 0.000000 0.047500 0.000000
# 6 0.000000 0.000000 0.000000 0.000000 0.000000 0.161012
#
#
# Mechanical properties :
#
#
# Convention : Reuss Voigt Hill
#
# Bulk Modulus (GPa) = 21.96514 57.55321 39.75917
# Shear Modulus (GPa) = 11.91893 20.55449 16.23671
#
# Velocity S-wave (km/s) = 2.52495 3.31579 2.94702
# Velocity P-wave (km/s) = 4.49994 6.74123 5.73121
#
# Compressibility (1/GPa) = 0.04552668
#
# Stress axis : x y z
#
# Youngs Moduli (GPa) = 63.70203 27.48436 37.11599
#
# Poissons Ratio (x) = 0.03700 0.60521
# Poissons Ratio (y) = 0.08577 -0.03352
# Poissons Ratio (z) = 1.03872 -0.02482
#
# Static dielectric constant tensor:
#      x y z
#    x 1.666140 0.000000 0.000000 
#    y 0.000000 1.690330 0.000000 
#    z 0.000000 0.000000 1.663200 
# 
# From -- ./inp_files/73376.got.cif
#   From: 2010.05.17/outbox.cif.g08.bks.cpg/sg74_37_cif.got.tgz:73376.got - 2010.06.03 17:57:02.
