data_PCOD9537954
_publ_section_title
;
Structure prediction by ZEFSAII (Michael W. Deem and Ramdas Pophale) SiO2 
 PCOD9537954
Probable space group: I M M A
;
_chemical_formula_sum "Si O2"
_cell_formula_units_Z 112
_cell_length_a 17.300447
_cell_length_b 28.269172
_cell_length_c 12.583755
_cell_angle_alpha 90.000000
_cell_angle_beta 90.000000
_cell_angle_gamma 90.000000
_cell_volume 6154.328399
_symmetry_space_group_name_H-M "I M M A"
_symmetry_group_IT_number 74
_symmetry_cell_setting 'orthorhombic'
loop_
_space_group_symop_operation_xyz
x,y,z
-x,1/2-y,z
x,-y,-z
-x,1/2+y,-z
-x,-y,-z
x,1/2+y,-z
-x,y,z
x,1/2-y,z
1/2+x,1/2+y,1/2+z
1/2-x,-y,1/2+z
1/2+x,1/2-y,1/2-z
1/2-x,y,1/2-z
1/2-x,1/2-y,1/2-z
1/2+x,y,1/2-z
1/2-x,1/2+y,1/2+z
1/2+x,-y,1/2+z
loop_
_atom_site_type_symbol
_atom_site_label
_atom_site_fract_x
_atom_site_fract_y
_atom_site_fract_z
Si Si1 0.409621 0.194514 0.960137
Si Si2 0.091969 0.453293 0.266887
Si Si3 0.907566 0.105204 0.863985
Si Si4 0.182001 0.550828 0.953207
Si Si5 0.159656 0.804644 0.225601
Si Si6 0.162146 0.606439 0.558710
Si Si7 0.592431 0.946775 0.143423
O O1 0.500000 0.181101 0.973804
O O2 0.400895 0.250000 0.985904
O O3 0.387083 0.189106 0.836000
O O4 0.354590 0.160560 0.028083
O O5 0.135550 0.456883 0.155597
O O6 0.116757 0.408163 0.335201
O O7 0.114124 0.498786 0.338415
O O8 0.000000 0.454797 0.249890
O O9 0.871824 0.157487 0.857528
O O10 0.886661 0.080558 0.751669
O O11 0.000000 0.107113 0.871293
O O12 0.872771 0.074518 0.958573
O O13 0.251118 0.587430 0.931042
O O14 0.208578 0.500000 0.000000
O O15 0.151098 0.750000 0.191871
O O16 0.250000 0.813110 0.250000
O O17 0.129070 0.577421 0.458002
O O18 0.500000 0.944517 0.131187
#
# Coordination Sequence:
#
# PCOD9537954 Si02
#       7
#    16  16  16  16  16  16  16
#     4  10  20  36  60  87 115 149 189 236 295 355
#     4  11  23  40  60  81 114 157 202 243 283 344
#     4  11  22  36  58  84 116 159 199 238 283 341
#     4  12  25  40  58  81 118 163 201 234 283 354
#     4  10  20  35  56  87 122 155 193 240 295 349
#     4  12  23  37  59  90 120 145 186 249 304 344
#     4  10  20  35  57  85 115 149 189 237 292 341
#
# _framework density 18.198573
#
# number of rings (size 3 to 8) (size 9 to 14) (size 15 to 20)
#    0.000    1.143    2.857    4.714    0.000    2.571 
#    0.000    0.000    0.000    2.571    0.000    0.000 
#    0.000    0.000    0.000    0.000    0.000    0.000 
#
# Total GULP energy -313015.734221 kJ/mol
# GULP energy per Si atom -5589.566683 kJ/mol
# Density = 1.815715 g / cm^3
# Si number density = 18.198573 Si / 1000 Ang^3
#
#
#
# Elastic Constant Matrix: (Units=GPa)
#
#
# Indices 1 2 3 4 5 6 
#
# 1 64.7244 28.3809 20.1182 0.0000 0.0000 0.0000
# 2 28.3809 92.6912 10.9632 0.0001 0.0000 0.0000
# 3 20.1182 10.9632 50.0559 0.0003 0.0000 0.0000
# 4 0.0000 0.0001 0.0003 21.3219 0.0000 0.0000
# 5 0.0000 0.0000 0.0000 0.0000 28.4520 0.0000
# 6 0.0000 0.0000 0.0000 0.0000 0.0000 26.2086
#
#
#
# Elastic Compliance Matrix: (Units=1/GPa)
#
#
# Indices 1 2 3 4 5 6 
#
# 1 0.019892 -0.005282 -0.006838 0.000000 0.000000 0.000000
# 2 -0.005282 0.012478 -0.000610 0.000000 0.000000 0.000000
# 3 -0.006838 -0.000610 0.022860 0.000000 0.000000 0.000000
# 4 0.000000 0.000000 0.000000 0.046900 0.000000 0.000000
# 5 0.000000 0.000000 0.000000 0.000000 0.035147 0.000000
# 6 0.000000 0.000000 0.000000 0.000000 0.000000 0.038155
#
#
# Mechanical properties :
#
#
# Convention : Reuss Voigt Hill
#
# Bulk Modulus (GPa) = 33.59148 36.26625 34.92886
# Shear Modulus (GPa) = 23.71757 25.06377 24.39067
#
# Velocity S-wave (km/s) = 3.61399 3.71514 3.66492
# Velocity P-wave (km/s) = 5.99274 6.19471 6.09456
#
# Compressibility (1/GPa) = 0.02976945
#
# Stress axis : x y z
#
# Youngs Moduli (GPa) = 50.27262 80.14182 43.74546
#
# Poissons Ratio (x) = 0.42329 0.29913
# Poissons Ratio (y) = 0.26553 0.02669
# Poissons Ratio (z) = 0.34376 0.04889
#
# Static dielectric constant tensor:
#      x y z
#    x 1.630240 0.000000 0.000000 
#    y 0.000000 1.653900 0.000000 
#    z 0.000000 0.000000 1.591230 
# 
# From -- ./inp_files/21118.got.cif
#   From: 2010.05.17/outbox.cif.g08.bks.cpg/sg74_11_cif.got.tgz:21118.got - 2010.06.03 17:57:02.
