data_PCOD9537949
_publ_section_title
;
Structure prediction by ZEFSAII (Michael W. Deem and Ramdas Pophale) SiO2 
 PCOD9537949
Probable space group: I M M A
;
_chemical_formula_sum "Si O2"
_cell_formula_units_Z 116
_cell_length_a 8.056699
_cell_length_b 24.978749
_cell_length_c 27.542430
_cell_angle_alpha 90.000000
_cell_angle_beta 90.000000
_cell_angle_gamma 90.000000
_cell_volume 5542.811086
_symmetry_space_group_name_H-M "I M M A"
_symmetry_group_IT_number 74
_symmetry_cell_setting 'orthorhombic'
loop_
_space_group_symop_operation_xyz
x,y,z
-x,1/2-y,z
x,-y,-z
-x,1/2+y,-z
-x,-y,-z
x,1/2+y,-z
-x,y,z
x,1/2-y,z
1/2+x,1/2+y,1/2+z
1/2-x,-y,1/2+z
1/2+x,1/2-y,1/2-z
1/2-x,y,1/2-z
1/2-x,1/2-y,1/2-z
1/2+x,y,1/2-z
1/2-x,1/2+y,1/2+z
1/2+x,-y,1/2+z
loop_
_atom_site_type_symbol
_atom_site_label
_atom_site_fract_x
_atom_site_fract_y
_atom_site_fract_z
Si Si1 0.802960 0.460012 0.827889
Si Si2 0.695518 0.108618 0.093042
Si Si3 0.800256 0.079202 0.302492
Si Si4 0.802107 0.811014 0.095964
Si Si5 0.195037 0.516199 0.434845
Si Si6 0.500000 0.000000 0.500000
Si Si7 0.313368 0.149283 0.801163
Si Si8 0.300964 0.811767 0.509057
O O1 0.771830 0.519305 0.807528
O O2 0.729760 0.458821 0.882339
O O3 0.705671 0.414771 0.799100
O O4 0.000000 0.449124 0.828056
O O5 0.500000 0.117351 0.095824
O O6 0.759361 0.109905 0.148744
O O7 0.720727 0.047892 0.074164
O O8 0.760673 0.150410 0.054074
O O9 0.750000 0.101549 0.250000
O O10 0.000000 0.075268 0.304775
O O11 0.740254 0.750000 0.098166
O O12 0.769778 0.836488 0.147910
O O13 0.739091 0.833008 0.043825
O O14 0.000000 0.809952 0.091611
O O15 0.348635 0.531034 0.469546
O O16 0.000000 0.525252 0.448928
O O17 0.500000 0.166640 0.806120
O O18 0.250000 0.171607 0.750000
O O19 0.500000 0.809543 0.507247
O O20 0.242220 0.750000 0.515209
#
# Coordination Sequence:
#
# PCOD9537949 Si02
#       8
#    16  16  16  16  16   4  16  16
#     4  11  21  38  59  82 114 157 201 241 301 353
#     4   9  20  36  56  83 119 153 192 250 294 346
#     4  10  20  35  56  85 118 156 198 246 296 345
#     4   9  20  41  63  84 112 145 187 240 296 363
#     4  10  22  39  55  82 120 158 209 252 291 362
#     4  12  22  36  56  82 110 168 202 240 316 348
#     4  12  25  40  59  85 116 151 193 248 304 357
#     4   9  19  36  61  89 116 149 192 242 296 360
#
# _framework density 20.928008999999999
#
# number of rings (size 3 to 8) (size 9 to 14) (size 15 to 20)
#    0.000    1.931    0.690    5.172    0.966    3.586 
#    2.483    2.759    0.000    0.414    0.000    0.000 
#    0.000    0.000    0.000    0.000    0.000    0.000 
#
# Total GULP energy -323047.799956 kJ/mol
# GULP energy per Si atom -5569.789654 kJ/mol
# Density = 2.088038 g / cm^3
# Si number density = 20.928009 Si / 1000 Ang^3
#
#
#
# Elastic Constant Matrix: (Units=GPa)
#
#
# Indices 1 2 3 4 5 6 
#
# 1 72.0627 0.0720 19.0109 0.0000 0.0000 0.0000
# 2 0.0720 31.4245 34.0395 0.0000 0.0000 0.0000
# 3 19.0109 34.0395 170.9410 0.0000 0.0000 0.0000
# 4 0.0000 0.0000 0.0000 29.1553 0.0000 0.0000
# 5 0.0000 0.0000 0.0000 0.0000 25.7755 0.0000
# 6 0.0000 0.0000 0.0000 0.0000 0.0000 21.2126
#
#
#
# Elastic Compliance Matrix: (Units=1/GPa)
#
#
# Indices 1 2 3 4 5 6 
#
# 1 0.014412 0.002171 -0.002035 0.000000 0.000000 0.000000
# 2 0.002171 0.040901 -0.008386 0.000000 0.000000 0.000000
# 3 -0.002035 -0.008386 0.007746 0.000000 0.000000 0.000000
# 4 0.000000 0.000000 0.000000 0.034299 0.000000 0.000000
# 5 0.000000 0.000000 0.000000 0.000000 0.038797 0.000000
# 6 0.000000 0.000000 0.000000 0.000000 0.000000 0.047142
#
#
# Mechanical properties :
#
#
# Convention : Reuss Voigt Hill
#
# Bulk Modulus (GPa) = 21.47790 42.29699 31.88744
# Shear Modulus (GPa) = 23.22166 29.98240 26.60203
#
# Velocity S-wave (km/s) = 3.33468 3.78914 3.56915
# Velocity P-wave (km/s) = 5.01116 6.27678 5.67934
#
# Compressibility (1/GPa) = 0.04655950
#
# Stress axis : x y z
#
# Youngs Moduli (GPa) = 69.38890 24.44899 129.09455
#
# Poissons Ratio (x) = -0.05309 0.26273
# Poissons Ratio (y) = -0.15068 1.08262
# Poissons Ratio (z) = 0.14122 0.20503
#
# Static dielectric constant tensor:
#      x y z
#    x 1.758500 0.000000 0.000000 
#    y 0.000000 1.822320 0.000000 
#    z 0.000000 0.000000 1.704300 
# 
# From -- ./inp_files/64885.got.cif
#   From: 2010.05.17/outbox.cif.g08.bks.cpg/sg74_33_cif.got.tgz:64885.got - 2010.06.03 17:57:02.
