data_PCOD9537523
_publ_section_title
;
Structure prediction by ZEFSAII (Michael W. Deem and Ramdas Pophale) SiO2 
 PCOD9537523
Probable space group: I M M A
;
_chemical_formula_sum "Si O2"
_cell_formula_units_Z 120
_cell_length_a 27.834567
_cell_length_b 8.947337
_cell_length_c 28.299520
_cell_angle_alpha 90.000000
_cell_angle_beta 90.000000
_cell_angle_gamma 90.000000
_cell_volume 7047.861067
_symmetry_space_group_name_H-M "I M M A"
_symmetry_group_IT_number 74
_symmetry_cell_setting 'orthorhombic'
loop_
_space_group_symop_operation_xyz
x,y,z
-x,1/2-y,z
x,-y,-z
-x,1/2+y,-z
-x,-y,-z
x,1/2+y,-z
-x,y,z
x,1/2-y,z
1/2+x,1/2+y,1/2+z
1/2-x,-y,1/2+z
1/2+x,1/2-y,1/2-z
1/2-x,y,1/2-z
1/2-x,1/2-y,1/2-z
1/2+x,y,1/2-z
1/2-x,1/2+y,1/2+z
1/2+x,-y,1/2+z
loop_
_atom_site_type_symbol
_atom_site_label
_atom_site_fract_x
_atom_site_fract_y
_atom_site_fract_z
Si Si1 0.855271 0.426652 0.197642
Si Si2 0.390239 0.572880 0.450384
Si Si3 0.000000 0.429621 0.447947
Si Si4 0.555105 0.427798 0.364429
Si Si5 0.393805 0.569161 0.947528
Si Si6 0.305477 0.069728 0.119097
Si Si7 0.698350 0.071775 0.400675
Si Si8 0.201462 0.427983 0.722449
O O1 0.851236 0.250000 0.208498
O O2 0.908373 0.458940 0.178187
O O3 0.820024 0.457195 0.152986
O O4 0.840642 0.522331 0.242408
O O5 0.403402 0.500000 0.500000
O O6 0.390607 0.750000 0.453694
O O7 0.426017 0.516534 0.409669
O O8 0.337527 0.515184 0.434792
O O9 0.000000 0.500000 0.500000
O O10 0.052657 0.471284 0.427974
O O11 0.000000 0.250000 0.451203
O O12 0.500000 0.460657 0.353720
O O13 0.559852 0.250000 0.374613
O O14 0.391737 0.750000 0.951786
O O15 0.350782 0.522371 0.912739
O O16 0.388590 0.500000 0.000000
O O17 0.306736 0.250000 0.123318
O O18 0.254126 0.030922 0.095554
O O19 0.304763 0.001807 0.171443
O O20 0.692670 0.250000 0.408663
O O21 0.203625 0.250000 0.717031
O O22 0.250000 0.477751 0.750000
#
# Coordination Sequence:
#
# PCOD9537523 Si02
#       8
#    16  16   8  16  16  16  16  16
#     4   9  17  32  55  77  99 132 170 209 259 314
#     4  11  22  35  52  74 104 140 178 217 264 316
#     4   8  14  28  50  74  98 126 164 204 244 292
#     4   9  19  37  59  81 104 132 173 222 268 318
#     4   9  18  32  52  77 104 135 170 209 252 301
#     4  10  20  34  53  77 105 138 176 214 258 311
#     4   9  18  33  51  72  99 132 171 213 261 316
#     4  11  22  33  50  78 108 137 174 216 257 301
#
# _framework density 17.026443
#
# number of rings (size 3 to 8) (size 9 to 14) (size 15 to 20)
#    0.000    2.400    1.333    2.400    0.000    4.800 
#    0.000    1.333    1.467    0.000    0.000    0.000 
#    0.000    0.000    0.000    0.000    0.000    0.000 
#
# Total GULP energy -334531.825576 kJ/mol
# GULP energy per Si atom -5575.530426 kJ/mol
# Density = 1.698769 g / cm^3
# Si number density = 17.026443 Si / 1000 Ang^3
#
#
#
# Elastic Constant Matrix: (Units=GPa)
#
#
# Indices 1 2 3 4 5 6 
#
# 1 149.7951 33.5177 42.5689 0.0000 0.0000 0.0000
# 2 33.5177 25.3072 24.8553 0.0000 0.0000 0.0000
# 3 42.5689 24.8553 59.9635 0.0000 0.0000 0.0000
# 4 0.0000 0.0000 0.0000 26.4237 0.0000 0.0000
# 5 0.0000 0.0000 0.0000 0.0000 15.4861 0.0000
# 6 0.0000 0.0000 0.0000 0.0000 0.0000 -18.5214
#
#
#
# Elastic Compliance Matrix: (Units=1/GPa)
#
#
# Indices 1 2 3 4 5 6 
#
# 1 0.009729 -0.010292 -0.002641 0.000000 0.000000 0.000000
# 2 -0.010292 0.077534 -0.024832 0.000000 0.000000 0.000000
# 3 -0.002641 -0.024832 0.028845 0.000000 0.000000 0.000000
# 4 0.000000 0.000000 0.000000 0.037845 0.000000 0.000000
# 5 0.000000 0.000000 0.000000 0.000000 0.064574 0.000000
# 6 0.000000 0.000000 0.000000 0.000000 0.000000 -0.053992
#
#
# Mechanical properties :
#
#
# Convention : Reuss Voigt Hill
#
# Bulk Modulus (GPa) = 24.64376 48.54998 36.59687
# Shear Modulus (GPa) = 19.71684 13.61927 16.66806
#
# Velocity S-wave (km/s) = 3.40665 2.83130 3.13221
# Velocity P-wave (km/s) = 5.47530 6.26616 5.88403
#
# Compressibility (1/GPa) = 0.04057822
#
# Stress axis : x y z
#
# Youngs Moduli (GPa) = 102.78408 12.89758 34.66858
#
# Poissons Ratio (x) = 0.13274 0.09155
# Poissons Ratio (y) = 1.05785 0.86089
# Poissons Ratio (z) = 0.27143 0.32027
#
# Static dielectric constant tensor:
#      x y z
#    x 1.609090 0.000000 0.000000 
#    y 0.000000 1.567040 0.000000 
#    z 0.000000 0.000000 1.540420 
# 
# From -- ./inp_files/69002.got.cif
#   From: 2010.05.17/outbox.cif.g08.bks.cpg/sg74_35_cif.got.tgz:69002.got - 2010.06.03 17:57:02.
