data_PCOD9537166
_publ_section_title
;
Structure prediction by ZEFSAII (Michael W. Deem and Ramdas Pophale) SiO2 
 PCOD9537166
Probable space group: I M M A
;
_chemical_formula_sum "Si O2"
_cell_formula_units_Z 104
_cell_length_a 19.247287
_cell_length_b 26.786520
_cell_length_c 9.693644
_cell_angle_alpha 90.000000
_cell_angle_beta 90.000000
_cell_angle_gamma 90.000000
_cell_volume 4997.731081
_symmetry_space_group_name_H-M "I M M A"
_symmetry_group_IT_number 74
_symmetry_cell_setting 'orthorhombic'
loop_
_space_group_symop_operation_xyz
x,y,z
-x,1/2-y,z
x,-y,-z
-x,1/2+y,-z
-x,-y,-z
x,1/2+y,-z
-x,y,z
x,1/2-y,z
1/2+x,1/2+y,1/2+z
1/2-x,-y,1/2+z
1/2+x,1/2-y,1/2-z
1/2-x,y,1/2-z
1/2-x,1/2-y,1/2-z
1/2+x,y,1/2-z
1/2-x,1/2+y,1/2+z
1/2+x,-y,1/2+z
loop_
_atom_site_type_symbol
_atom_site_label
_atom_site_fract_x
_atom_site_fract_y
_atom_site_fract_z
Si Si1 0.078857 0.309714 0.042971
Si Si2 0.141765 0.122118 0.819890
Si Si3 0.917707 0.487678 0.841435
Si Si4 0.638488 0.308695 0.169313
Si Si5 0.000000 0.862268 0.594664
Si Si6 0.387084 0.046948 0.089057
Si Si7 0.711072 0.121125 0.967050
O O1 0.082147 0.250000 0.025861
O O2 0.128364 0.324067 0.170118
O O3 0.000000 0.323541 0.086129
O O4 0.096408 0.337786 0.902326
O O5 0.103367 0.069135 0.812259
O O6 0.211735 0.117079 0.909697
O O7 0.164189 0.136547 0.665706
O O8 0.878233 0.525683 0.742024
O O9 0.000000 0.494269 0.815139
O O10 0.904466 0.500000 0.000000
O O11 0.653131 0.250000 0.164447
O O12 0.562978 0.320726 0.104296
O O13 0.696609 0.339366 0.087532
O O14 0.060151 0.906946 0.589956
O O15 0.317363 0.068326 0.021134
O O16 0.412948 0.000000 0.000000
#
# Coordination Sequence:
#
# PCOD9537166 Si02
#       7
#    16  16  16  16   8  16  16
#     4  10  22  42  68  96 128 167 210 276 347 401
#     4  11  24  45  63  91 134 174 221 272 326 396
#     4  11  25  40  63  95 129 170 214 270 329 385
#     4  10  21  40  67  96 127 165 212 267 332 399
#     4  10  20  32  65  94 127 160 205 269 322 379
#     4  11  21  40  63  92 127 171 216 261 322 388
#     4  10  25  43  64  93 129 179 225 268 325 390
#
# _framework density 20.809443999999999
#
# number of rings (size 3 to 8) (size 9 to 14) (size 15 to 20)
#    0.000    1.538    3.077    0.923    4.308    2.462 
#    5.538    3.077    0.000    0.000    0.000    0.000 
#    0.000    0.000    0.000    0.000    0.000    0.000 
#
# Total GULP energy -289586.414958 kJ/mol
# GULP energy per Si atom -5568.969518 kJ/mol
# Density = 2.076208 g / cm^3
# Si number density = 20.809444 Si / 1000 Ang^3
#
#
#
# Elastic Constant Matrix: (Units=GPa)
#
#
# Indices 1 2 3 4 5 6 
#
# 1 37.2550 0.7960 32.6844 0.0000 0.0000 0.0000
# 2 0.7960 55.6938 35.5109 0.0000 0.0000 0.0000
# 3 32.6844 35.5109 103.8717 0.0000 0.0000 0.0000
# 4 0.0000 0.0000 0.0000 28.9639 0.0000 0.0000
# 5 0.0000 0.0000 0.0000 0.0000 23.6543 0.0000
# 6 0.0000 0.0000 0.0000 0.0000 0.0000 2.8074
#
#
#
# Elastic Compliance Matrix: (Units=1/GPa)
#
#
# Indices 1 2 3 4 5 6 
#
# 1 0.040820 0.009727 -0.016170 0.000000 0.000000 0.000000
# 2 0.009727 0.025278 -0.011702 0.000000 0.000000 0.000000
# 3 -0.016170 -0.011702 0.018716 0.000000 0.000000 0.000000
# 4 0.000000 0.000000 0.000000 0.034526 0.000000 0.000000
# 5 0.000000 0.000000 0.000000 0.000000 0.042276 0.000000
# 6 0.000000 0.000000 0.000000 0.000000 0.000000 0.356206
#
#
# Mechanical properties :
#
#
# Convention : Reuss Voigt Hill
#
# Bulk Modulus (GPa) = 20.60883 37.20035 28.90459
# Shear Modulus (GPa) = 8.76752 19.60705 14.18728
#
# Velocity S-wave (km/s) = 2.05484 3.07289 2.61391
# Velocity P-wave (km/s) = 3.94398 5.52319 4.79899
#
# Compressibility (1/GPa) = 0.04852289
#
# Stress axis : x y z
#
# Youngs Moduli (GPa) = 24.49766 39.56026 53.43017
#
# Poissons Ratio (x) = -0.38479 0.86396
# Poissons Ratio (y) = -0.23828 0.62526
# Poissons Ratio (z) = 0.39612 0.46295
#
# Static dielectric constant tensor:
#      x y z
#    x 1.760110 0.000000 0.000000 
#    y 0.000000 1.658550 0.000000 
#    z 0.000000 0.000000 1.797750 
# 
# From -- ./inp_files/12795.got.cif
#   From: 2010.05.17/outbox.cif.g08.bks.cpg/sg74_7_cif.got.tgz:12795.got - 2010.06.03 17:57:02.
