data_PCOD9537846
_publ_section_title
;
Structure prediction by ZEFSAII (Michael W. Deem and Ramdas Pophale) SiO2 
 PCOD9537846
Probable space group: I M M A
;
_chemical_formula_sum "Si O2"
_cell_formula_units_Z 104
_cell_length_a 8.349825
_cell_length_b 23.461204
_cell_length_c 25.157755
_cell_angle_alpha 90.000000
_cell_angle_beta 90.000000
_cell_angle_gamma 90.000000
_cell_volume 4928.327415
_symmetry_space_group_name_H-M "I M M A"
_symmetry_group_IT_number 74
_symmetry_cell_setting 'orthorhombic'
loop_
_space_group_symop_operation_xyz
x,y,z
-x,1/2-y,z
x,-y,-z
-x,1/2+y,-z
-x,-y,-z
x,1/2+y,-z
-x,y,z
x,1/2-y,z
1/2+x,1/2+y,1/2+z
1/2-x,-y,1/2+z
1/2+x,1/2-y,1/2-z
1/2-x,y,1/2-z
1/2-x,1/2-y,1/2-z
1/2+x,y,1/2-z
1/2-x,1/2+y,1/2+z
1/2+x,-y,1/2+z
loop_
_atom_site_type_symbol
_atom_site_label
_atom_site_fract_x
_atom_site_fract_y
_atom_site_fract_z
Si Si1 0.309496 0.108699 0.306924
Si Si2 0.182231 0.515512 0.333716
Si Si3 0.681569 0.535263 0.948280
Si Si4 0.317069 0.850321 0.582314
Si Si5 0.806500 0.313879 0.969560
Si Si6 0.808355 0.134318 0.634949
Si Si7 0.191178 0.750000 0.189720
O O1 0.500000 0.112627 0.309391
O O2 0.250000 0.129661 0.250000
O O3 0.244100 0.143708 0.358388
O O4 0.264626 0.041554 0.311918
O O5 0.175962 0.504403 0.396920
O O6 0.254349 0.579001 0.332278
O O7 0.000000 0.515626 0.312303
O O8 0.500000 0.559703 0.954122
O O9 0.807907 0.584329 0.937081
O O10 0.719972 0.500000 0.000000
O O11 0.500000 0.829865 0.588093
O O12 0.246330 0.819563 0.530455
O O13 0.765756 0.250000 0.950859
O O14 0.744318 0.359286 0.926747
O O15 0.000000 0.318747 0.971110
O O16 0.754216 0.192585 0.662284
O O17 0.000000 0.129560 0.635740
O O18 0.250000 0.750000 0.250000
O O19 0.000000 0.750000 0.186398
#
# Coordination Sequence:
#
# PCOD9537846 Si02
#       7
#    16  16  16  16  16  16   8
#     4  10  20  35  55  78 107 143 183 228 277 334
#     4   9  19  33  51  76 106 138 173 214 262 319
#     4   9  16  28  46  71 103 137 169 205 257 317
#     4   9  19  33  50  76 106 139 181 224 272 331
#     4  10  20  35  56  81 111 147 185 229 280 333
#     4  11  22  38  59  84 112 144 184 230 278 327
#     4  12  26  44  62  80 106 144 189 234 277 322
#
# _framework density 21.102495000000001
#
# number of rings (size 3 to 8) (size 9 to 14) (size 15 to 20)
#    0.000    2.154    0.769    2.538    0.000    4.615 
#    0.000    3.077    0.000    0.462    0.000    0.000 
#    0.000    0.000    0.000    0.000    0.000    0.462 
#
# Total GULP energy -289844.832014 kJ/mol
# GULP energy per Si atom -5573.939077 kJ/mol
# Density = 2.105446 g / cm^3
# Si number density = 21.102495 Si / 1000 Ang^3
#
#
#
# Elastic Constant Matrix: (Units=GPa)
#
#
# Indices 1 2 3 4 5 6 
#
# 1 28.5501 0.6765 5.3553 0.0000 0.0000 0.0000
# 2 0.6765 34.7343 -8.8043 0.0000 0.0000 0.0000
# 3 5.3553 -8.8043 117.3603 0.0000 0.0000 0.0000
# 4 0.0000 0.0000 0.0000 21.2956 0.0000 0.0000
# 5 0.0000 0.0000 0.0000 0.0000 24.0651 0.0000
# 6 0.0000 0.0000 0.0000 0.0000 0.0000 25.4541
#
#
#
# Elastic Compliance Matrix: (Units=1/GPa)
#
#
# Indices 1 2 3 4 5 6 
#
# 1 0.035371 -0.001119 -0.001698 0.000000 0.000000 0.000000
# 2 -0.001119 0.029383 0.002255 0.000000 0.000000 0.000000
# 3 -0.001698 0.002255 0.008767 0.000000 0.000000 0.000000
# 4 0.000000 0.000000 0.000000 0.046958 0.000000 0.000000
# 5 0.000000 0.000000 0.000000 0.000000 0.041554 0.000000
# 6 0.000000 0.000000 0.000000 0.000000 0.000000 0.039286
#
#
# Mechanical properties :
#
#
# Convention : Reuss Voigt Hill
#
# Bulk Modulus (GPa) = 13.81246 19.45550 16.63398
# Shear Modulus (GPa) = 22.06755 26.39077 24.22916
#
# Velocity S-wave (km/s) = 3.23729 3.54022 3.39214
# Velocity P-wave (km/s) = 4.53133 5.09415 4.82096
#
# Compressibility (1/GPa) = 0.07239842
#
# Stress axis : x y z
#
# Youngs Moduli (GPa) = 28.27162 34.03271 114.05820
#
# Poissons Ratio (x) = 0.03809 0.19367
# Poissons Ratio (y) = 0.03164 -0.25725
# Poissons Ratio (z) = 0.04801 -0.07676
#
# Static dielectric constant tensor:
#      x y z
#    x 1.774300 0.000000 0.000000 
#    y 0.000000 1.783360 0.000000 
#    z 0.000000 0.000000 1.801080 
# 
# From -- ./inp_files/64772.got.cif
#   From: 2010.05.17/outbox.cif.g08.bks.cpg/sg74_33_cif.got.tgz:64772.got - 2010.06.03 17:57:02.
