data_PCOD9537857
_publ_section_title
;
Structure prediction by ZEFSAII (Michael W. Deem and Ramdas Pophale) SiO2 
 PCOD9537857
Probable space group: I M M A
;
_chemical_formula_sum "Si O2"
_cell_formula_units_Z 100
_cell_length_a 22.869498
_cell_length_b 9.248485
_cell_length_c 23.960678
_cell_angle_alpha 90.000000
_cell_angle_beta 90.000000
_cell_angle_gamma 90.000000
_cell_volume 5067.880095
_symmetry_space_group_name_H-M "I M M A"
_symmetry_group_IT_number 74
_symmetry_cell_setting 'orthorhombic'
loop_
_space_group_symop_operation_xyz
x,y,z
-x,1/2-y,z
x,-y,-z
-x,1/2+y,-z
-x,-y,-z
x,1/2+y,-z
-x,y,z
x,1/2-y,z
1/2+x,1/2+y,1/2+z
1/2-x,-y,1/2+z
1/2+x,1/2-y,1/2-z
1/2-x,y,1/2-z
1/2-x,1/2-y,1/2-z
1/2+x,y,1/2-z
1/2-x,1/2+y,1/2+z
1/2+x,-y,1/2+z
loop_
_atom_site_type_symbol
_atom_site_label
_atom_site_fract_x
_atom_site_fract_y
_atom_site_fract_z
Si Si1 0.275195 0.414217 0.826389
Si Si2 0.882036 0.420544 0.276920
Si Si3 0.121332 0.909828 0.945790
Si Si4 0.566182 0.577620 0.896242
Si Si5 0.824100 0.582909 0.447443
Si Si6 0.638354 0.419041 0.669222
Si Si7 0.500000 0.750000 0.547271
O O1 0.293859 0.250000 0.810366
O O2 0.318218 0.528581 0.798496
O O3 0.284076 0.426493 0.892814
O O4 0.207072 0.429888 0.814899
O O5 0.882918 0.250000 0.265530
O O6 0.923199 0.451042 0.330219
O O7 0.895638 0.507169 0.220562
O O8 0.150549 0.750000 0.943113
O O9 0.130149 0.997390 0.888745
O O10 0.052493 0.872785 0.951497
O O11 0.140258 0.000000 0.000000
O O12 0.500000 0.540147 0.911701
O O13 0.574772 0.750000 0.904113
O O14 0.614610 0.490833 0.930265
O O15 0.798740 0.500000 0.500000
O O16 0.833497 0.750000 0.460995
O O17 0.623907 0.250000 0.663111
#
# Coordination Sequence:
#
# PCOD9537857 Si02
#       7
#    16  16  16  16  16  16   4
#     4   9  20  37  56  77 111 153 185 227 280 327
#     4  10  20  35  56  83 112 147 190 230 277 334
#     4  10  21  39  61  85 109 142 182 226 277 329
#     4   9  19  37  57  77 106 144 182 228 276 320
#     4  10  20  35  55  80 108 142 184 224 270 328
#     4  11  22  37  56  85 117 146 186 229 273 329
#     4   8  22  40  66  80 108 148 180 224 278 334
#
# _framework density 19.732116999999999
#
# number of rings (size 3 to 8) (size 9 to 14) (size 15 to 20)
#    0.480    1.760    0.000    2.640    0.000    5.760 
#    1.440    1.600    0.000    0.000    0.000    0.000 
#    0.000    0.000    0.000    0.000    0.000    0.000 
#
# Total GULP energy -278515.817341 kJ/mol
# GULP energy per Si atom -5570.316347 kJ/mol
# Density = 1.968721 g / cm^3
# Si number density = 19.732117 Si / 1000 Ang^3
#
#
#
# Elastic Constant Matrix: (Units=GPa)
#
#
# Indices 1 2 3 4 5 6 
#
# 1 22.7402 -3.4228 -19.7034 0.0000 0.0000 0.0000
# 2 -3.4228 86.9552 37.3287 0.0000 0.0000 0.0000
# 3 -19.7034 37.3287 85.4930 0.0000 0.0000 0.0000
# 4 0.0000 0.0000 0.0000 38.5384 0.0000 0.0000
# 5 0.0000 0.0000 0.0000 0.0000 -0.6048 0.0000
# 6 0.0000 0.0000 0.0000 0.0000 0.0000 23.2995
#
#
#
# Elastic Compliance Matrix: (Units=1/GPa)
#
#
# Indices 1 2 3 4 5 6 
#
# 1 0.056119 -0.004114 0.014730 0.000000 0.000000 0.000000
# 2 -0.004114 0.014455 -0.007260 0.000000 0.000000 0.000000
# 3 0.014730 -0.007260 0.018261 0.000000 0.000000 0.000000
# 4 0.000000 0.000000 0.000000 0.025948 0.000000 0.000000
# 5 0.000000 0.000000 0.000000 0.000000 -1.653557 0.000000
# 6 0.000000 0.000000 0.000000 0.000000 0.000000 0.042919
#
#
# Mechanical properties :
#
#
# Convention : Reuss Voigt Hill
#
# Bulk Modulus (GPa) = 10.46607 24.84369 17.65488
# Shear Modulus (GPa) = -3.39970 24.31235 10.45632
#
# Velocity S-wave (km/s) = -1.31403 3.51397 2.30448
# Velocity P-wave (km/s) = 1.73591 5.39275 4.00594
#
# Compressibility (1/GPa) = 0.09554688
#
# Stress axis : x y z
#
# Youngs Moduli (GPa) = 17.81938 69.18193 54.76034
#
# Poissons Ratio (x) = 0.28464 -0.80662
# Poissons Ratio (y) = 0.07332 0.39753
# Poissons Ratio (z) = -0.26248 0.50223
#
# Static dielectric constant tensor:
#      x y z
#    x 1.668710 0.000000 0.000000 
#    y 0.000000 1.684840 0.000000 
#    z 0.000000 0.000000 1.715410 
# 
# From -- ./inp_files/55278.got.cif
#   From: 2010.05.17/outbox.cif.g08.bks.cpg/sg74_28_cif.got.tgz:55278.got - 2010.06.03 17:57:02.
