data_PCOD9537270
_publ_section_title
;
Structure prediction by ZEFSAII (Michael W. Deem and Ramdas Pophale) SiO2 
 PCOD9537270
Probable space group: I M M A
;
_chemical_formula_sum "Si O2"
_cell_formula_units_Z 64
_cell_length_a 13.513777
_cell_length_b 24.213659
_cell_length_c 10.132737
_cell_angle_alpha 90.000000
_cell_angle_beta 90.000000
_cell_angle_gamma 90.000000
_cell_volume 3315.613815
_symmetry_space_group_name_H-M "I M M A"
_symmetry_group_IT_number 74
_symmetry_cell_setting 'orthorhombic'
loop_
_space_group_symop_operation_xyz
x,y,z
-x,1/2-y,z
x,-y,-z
-x,1/2+y,-z
-x,-y,-z
x,1/2+y,-z
-x,y,z
x,1/2-y,z
1/2+x,1/2+y,1/2+z
1/2-x,-y,1/2+z
1/2+x,1/2-y,1/2-z
1/2-x,y,1/2-z
1/2-x,1/2-y,1/2-z
1/2+x,y,1/2-z
1/2-x,1/2+y,1/2+z
1/2+x,-y,1/2+z
loop_
_atom_site_type_symbol
_atom_site_label
_atom_site_fract_x
_atom_site_fract_y
_atom_site_fract_z
Si Si1 0.615413 0.314166 0.209957
Si Si2 0.388358 0.525049 0.854895
Si Si3 0.385093 0.049921 0.606156
Si Si4 0.739739 0.621781 0.573052
O O1 0.500000 0.322795 0.191116
O O2 0.632155 0.250000 0.242427
O O3 0.657088 0.352466 0.328785
O O4 0.676863 0.330787 0.079052
O O5 0.500000 0.546136 0.820017
O O6 0.365508 0.478150 0.747196
O O7 0.303665 0.570558 0.869262
O O8 0.394590 0.500000 0.000000
O O9 0.500000 0.068054 0.603707
O O10 0.313229 0.098326 0.556468
O O11 0.375402 0.000000 0.500000
#
# Coordination Sequence:
#
# PCOD9537270 Si02
#       4
#    16  16  16  16
#     4  10  21  36  53  78 113 148 185 236 296 349
#     4  10  22  38  54  79 118 158 190 221 266 330
#     4  10  20  33  51  77 110 147 184 223 268 318
#     4  11  19  31  54  79 107 145 189 232 275 328
#
# _framework density 19.302610000000001
#
# number of rings (size 3 to 8) (size 9 to 14) (size 15 to 20)
#    0.000    1.750    0.000    6.750    0.000    5.000 
#    0.000    0.000    0.000    3.000    0.000   14.000 
#    0.000   40.000    0.000    0.000    0.000    0.000 
#
# Total GULP energy -178403.146958 kJ/mol
# GULP energy per Si atom -5575.098342 kJ/mol
# Density = 1.925868 g / cm^3
# Si number density = 19.302610 Si / 1000 Ang^3
#
#
#
# Elastic Constant Matrix: (Units=GPa)
#
#
# Indices 1 2 3 4 5 6 
#
# 1 153.5561 47.0004 33.7756 0.0000 0.0000 0.0000
# 2 47.0004 92.6345 49.7380 -0.0001 0.0000 0.0000
# 3 33.7756 49.7380 111.0700 -0.0002 0.0000 0.0002
# 4 0.0000 -0.0001 -0.0002 15.8572 0.0000 0.0000
# 5 0.0000 0.0000 0.0000 0.0000 24.7161 0.0000
# 6 0.0000 0.0000 0.0002 0.0000 0.0000 16.1821
#
#
#
# Elastic Compliance Matrix: (Units=1/GPa)
#
#
# Indices 1 2 3 4 5 6 
#
# 1 0.007761 -0.003516 -0.000786 0.000000 0.000000 0.000000
# 2 -0.003516 0.015805 -0.006008 0.000000 0.000000 0.000000
# 3 -0.000786 -0.006008 0.011933 0.000000 0.000000 0.000000
# 4 0.000000 0.000000 0.000000 0.063063 0.000000 0.000000
# 5 0.000000 0.000000 0.000000 0.000000 0.040459 0.000000
# 6 0.000000 0.000000 0.000000 0.000000 0.000000 0.061797
#
#
# Mechanical properties :
#
#
# Convention : Reuss Voigt Hill
#
# Bulk Modulus (GPa) = 67.20872 68.69872 67.95372
# Shear Modulus (GPa) = 22.08498 26.46752 24.27625
#
# Velocity S-wave (km/s) = 3.38619 3.70697 3.55021
# Velocity P-wave (km/s) = 7.08396 7.34778 7.21707
#
# Compressibility (1/GPa) = 0.01487902
#
# Stress axis : x y z
#
# Youngs Moduli (GPa) = 128.84483 63.27038 83.80205
#
# Poissons Ratio (x) = 0.22246 0.06584
# Poissons Ratio (y) = 0.45302 0.50352
# Poissons Ratio (z) = 0.10123 0.38016
#
# Static dielectric constant tensor:
#      x y z
#    x 1.766440 0.000000 0.000000 
#    y 0.000000 1.702980 0.000000 
#    z 0.000000 0.000000 1.690900 
# 
# From -- ./inp_files/20118.got.cif
#   From: 2010.05.17/outbox.cif.g08.bks.cpg/sg74_11_cif.got.tgz:20118.got - 2010.06.03 17:57:02.
