data_PCOD9538728
_publ_section_title
;
Structure prediction by ZEFSAII (Michael W. Deem and Ramdas Pophale) SiO2 
 PCOD9538728
Probable space group: I M M A
;
_chemical_formula_sum "Si O2"
_cell_formula_units_Z 56
_cell_length_a 22.237661
_cell_length_b 10.251434
_cell_length_c 13.878640
_cell_angle_alpha 90.000000
_cell_angle_beta 90.000000
_cell_angle_gamma 90.000000
_cell_volume 3163.884611
_symmetry_space_group_name_H-M "I M M A"
_symmetry_group_IT_number 74
_symmetry_cell_setting 'orthorhombic'
loop_
_space_group_symop_operation_xyz
x,y,z
-x,1/2-y,z
x,-y,-z
-x,1/2+y,-z
-x,-y,-z
x,1/2+y,-z
-x,y,z
x,1/2-y,z
1/2+x,1/2+y,1/2+z
1/2-x,-y,1/2+z
1/2+x,1/2-y,1/2-z
1/2-x,y,1/2-z
1/2-x,1/2-y,1/2-z
1/2+x,y,1/2-z
1/2-x,1/2+y,1/2+z
1/2+x,-y,1/2+z
loop_
_atom_site_type_symbol
_atom_site_label
_atom_site_fract_x
_atom_site_fract_y
_atom_site_fract_z
Si Si1 0.268139 0.750000 0.137877
Si Si2 0.071097 0.250000 0.123642
Si Si3 0.634534 0.250000 0.581314
Si Si4 0.882101 0.604029 0.415898
Si Si5 0.570458 0.968320 0.292378
O O1 0.250000 0.750000 0.250000
O O2 0.206426 0.750000 0.080249
O O3 0.311966 0.871160 0.112577
O O4 0.083369 0.381470 0.182799
O O5 0.000000 0.250000 0.099731
O O6 0.107504 0.250000 0.024830
O O7 0.610091 0.125516 0.640574
O O8 0.889060 0.500000 0.500000
O O9 0.903303 0.750000 0.445006
O O10 0.915348 0.562495 0.318459
O O11 0.500000 0.942667 0.312105
#
# Coordination Sequence:
#
# PCOD9538728 Si02
#       5
#     8   8   8  16  16
#     4  10  20  42  59  86 116 155 195 246 296 345
#     4  10  24  37  56  95 129 151 194 252 299 364
#     4  12  20  39  66  84 119 165 200 243 302 359
#     4  10  23  41  62  88 120 155 202 252 294 349
#     4  11  22  39  62  89 123 160 199 246 303 360
#
# _framework density 17.699760999999999
#
# number of rings (size 3 to 8) (size 9 to 14) (size 15 to 20)
#    0.857    0.571    4.286    2.143    2.000    5.143 
#    0.000    0.000    0.000    4.286    0.000    0.000 
#    0.000    0.000    0.000    0.000    0.000    0.000 
#
# Total GULP energy -156208.210726 kJ/mol
# GULP energy per Si atom -5578.864669 kJ/mol
# Density = 1.765948 g / cm^3
# Si number density = 17.699761 Si / 1000 Ang^3
#
#
#
# Elastic Constant Matrix: (Units=GPa)
#
#
# Indices 1 2 3 4 5 6 
#
# 1 36.7824 16.0761 -8.0999 0.0000 0.0000 0.0000
# 2 16.0761 104.5836 36.0680 0.0000 0.0000 0.0000
# 3 -8.0999 36.0680 73.5199 0.0000 0.0000 0.0000
# 4 0.0000 0.0000 0.0000 115.5895 0.0000 0.0000
# 5 0.0000 0.0000 0.0000 0.0000 33.5971 0.0000
# 6 0.0000 0.0000 0.0000 0.0000 0.0000 7.8254
#
#
#
# Elastic Compliance Matrix: (Units=1/GPa)
#
#
# Indices 1 2 3 4 5 6 
#
# 1 0.031986 -0.007381 0.007145 0.000000 0.000000 0.000000
# 2 -0.007381 0.013212 -0.007295 0.000000 0.000000 0.000000
# 3 0.007145 -0.007295 0.017968 0.000000 0.000000 0.000000
# 4 0.000000 0.000000 0.000000 0.008651 0.000000 0.000000
# 5 0.000000 0.000000 0.000000 0.000000 0.029764 0.000000
# 6 0.000000 0.000000 0.000000 0.000000 0.000000 0.127789
#
#
# Mechanical properties :
#
#
# Convention : Reuss Voigt Hill
#
# Bulk Modulus (GPa) = 20.78808 33.66382 27.22595
# Shear Modulus (GPa) = 19.19626 42.79183 30.99404
#
# Velocity S-wave (km/s) = 3.29682 4.92229 4.18915
# Velocity P-wave (km/s) = 5.12468 7.16701 6.23010
#
# Compressibility (1/GPa) = 0.04810449
#
# Stress axis : x y z
#
# Youngs Moduli (GPa) = 31.26345 75.68824 55.65535
#
# Poissons Ratio (x) = 0.55865 -0.39766
# Poissons Ratio (y) = 0.23075 0.40600
# Poissons Ratio (z) = -0.22338 0.55214
#
# Static dielectric constant tensor:
#      x y z
#    x 1.600980 0.000000 0.000000 
#    y 0.000000 1.603370 0.000000 
#    z 0.000000 0.000000 1.563840 
# 
# From -- ./inp_files/36923.got.cif
#   From: 2010.05.17/outbox.cif.g08.bks.cpg/sg74_19_cif.got.tgz:36923.got - 2010.06.03 17:57:02.
