data_PCOD9538445
_publ_section_title
;
Structure prediction by ZEFSAII (Michael W. Deem and Ramdas Pophale) SiO2 
 PCOD9538445
Probable space group: I M M A
;
_chemical_formula_sum "Si O2"
_cell_formula_units_Z 96
_cell_length_a 15.252831
_cell_length_b 20.470358
_cell_length_c 14.988639
_cell_angle_alpha 90.000000
_cell_angle_beta 90.000000
_cell_angle_gamma 90.000000
_cell_volume 4679.916411
_symmetry_space_group_name_H-M "I M M A"
_symmetry_group_IT_number 74
_symmetry_cell_setting 'orthorhombic'
loop_
_space_group_symop_operation_xyz
x,y,z
-x,1/2-y,z
x,-y,-z
-x,1/2+y,-z
-x,-y,-z
x,1/2+y,-z
-x,y,z
x,1/2-y,z
1/2+x,1/2+y,1/2+z
1/2-x,-y,1/2+z
1/2+x,1/2-y,1/2-z
1/2-x,y,1/2-z
1/2-x,1/2-y,1/2-z
1/2+x,y,1/2-z
1/2-x,1/2+y,1/2+z
1/2+x,-y,1/2+z
loop_
_atom_site_type_symbol
_atom_site_label
_atom_site_fract_x
_atom_site_fract_y
_atom_site_fract_z
Si Si1 0.213046 0.673872 0.849821
Si Si2 0.898621 0.051151 0.077071
Si Si3 0.900461 0.448989 0.567406
Si Si4 0.643676 0.039824 0.739902
Si Si5 0.795652 0.321489 0.533478
Si Si6 0.835871 0.179610 0.814341
O O1 0.179432 0.750000 0.846361
O O2 0.250000 0.658288 0.750000
O O3 0.149465 0.618427 0.892280
O O4 0.287159 0.674870 0.927025
O O5 0.000000 0.065618 0.054213
O O6 0.889759 0.007779 0.165092
O O7 0.864474 0.000000 0.000000
O O8 0.857651 0.500000 0.500000
O O9 0.895622 0.478044 0.665314
O O10 0.851232 0.380949 0.568634
O O11 0.000000 0.437526 0.538832
O O12 0.750000 0.037422 0.750000
O O13 0.617011 0.113603 0.713139
O O14 0.831066 0.250000 0.558179
O O15 0.702546 0.326439 0.585271
O O16 0.880798 0.250000 0.805485
O O17 0.750000 0.181736 0.750000
#
# Coordination Sequence:
#
# PCOD9538445 Si02
#       6
#    16  16  16  16  16  16
#     4  10  23  43  67  95 122 159 217 268 310 371
#     4  11  25  41  61  92 129 164 205 260 320 376
#     4  11  25  39  54  84 124 159 195 243 305 367
#     4  11  21  36  62  90 115 160 204 252 300 363
#     4  10  20  37  61  88 118 152 199 249 292 357
#     4   9  16  30  55  88 115 145 195 241 288 348
#
# _framework density 20.513186999999999
#
# number of rings (size 3 to 8) (size 9 to 14) (size 15 to 20)
#    0.000    1.667    3.333    2.000    4.667    0.667 
#    0.000    0.000    0.000    5.500    0.000    0.000 
#    0.000    0.000    0.000    0.000    0.000    0.000 
#
# Total GULP energy -267538.712905 kJ/mol
# GULP energy per Si atom -5573.723186 kJ/mol
# Density = 2.046650 g / cm^3
# Si number density = 20.513187 Si / 1000 Ang^3
#
#
#
# Elastic Constant Matrix: (Units=GPa)
#
#
# Indices 1 2 3 4 5 6 
#
# 1 40.4736 24.5629 -2.1207 0.0000 0.0000 0.0000
# 2 24.5629 132.4316 39.1218 0.0000 0.0000 0.0000
# 3 -2.1207 39.1218 144.5186 -0.0001 0.0000 -0.0001
# 4 0.0000 0.0000 -0.0001 32.8489 0.0000 0.0000
# 5 0.0000 0.0000 0.0000 0.0000 14.7402 0.0000
# 6 0.0000 0.0000 -0.0001 0.0000 0.0000 1.2019
#
#
#
# Elastic Compliance Matrix: (Units=1/GPa)
#
#
# Indices 1 2 3 4 5 6 
#
# 1 0.028364 -0.005852 0.002000 0.000000 0.000000 0.000000
# 2 -0.005852 0.009415 -0.002634 0.000000 0.000000 0.000000
# 3 0.002000 -0.002634 0.007662 0.000000 0.000000 0.000000
# 4 0.000000 0.000000 0.000000 0.030442 0.000000 0.000001
# 5 0.000000 0.000000 0.000000 0.000000 0.067842 0.000000
# 6 0.000000 0.000000 0.000000 0.000001 0.000000 0.832030
#
#
# Mechanical properties :
#
#
# Convention : Reuss Voigt Hill
#
# Bulk Modulus (GPa) = 30.79901 48.95021 39.87461
# Shear Modulus (GPa) = 5.00226 26.81551 15.90888
#
# Velocity S-wave (km/s) = 1.56328 3.61949 2.78788
# Velocity P-wave (km/s) = 4.27847 6.43290 5.46294
#
# Compressibility (1/GPa) = 0.03246858
#
# Stress axis : x y z
#
# Youngs Moduli (GPa) = 35.25648 106.21720 130.51358
#
# Poissons Ratio (x) = 0.62155 -0.26107
# Poissons Ratio (y) = 0.20631 0.34383
# Poissons Ratio (z) = -0.07052 0.27983
#
# Static dielectric constant tensor:
#      x y z
#    x 1.768610 0.000000 0.000000 
#    y 0.000000 1.772060 0.000000 
#    z 0.000000 0.000000 1.782350 
# 
# From -- ./inp_files/32405.got.cif
#   From: 2010.05.17/outbox.cif.g08.bks.cpg/sg74_17_cif.got.tgz:32405.got - 2010.06.03 17:57:02.
