data_PCOD9538626
_publ_section_title
;
Structure prediction by ZEFSAII (Michael W. Deem and Ramdas Pophale) SiO2 
 PCOD9538626
Probable space group: I M M A
;
_chemical_formula_sum "Si O2"
_cell_formula_units_Z 88
_cell_length_a 25.360115
_cell_length_b 17.693854
_cell_length_c 8.904829
_cell_angle_alpha 90.000000
_cell_angle_beta 90.000000
_cell_angle_gamma 90.000000
_cell_volume 3995.758593
_symmetry_space_group_name_H-M "I M M A"
_symmetry_group_IT_number 74
_symmetry_cell_setting 'orthorhombic'
loop_
_space_group_symop_operation_xyz
x,y,z
-x,1/2-y,z
x,-y,-z
-x,1/2+y,-z
-x,-y,-z
x,1/2+y,-z
-x,y,z
x,1/2-y,z
1/2+x,1/2+y,1/2+z
1/2-x,-y,1/2+z
1/2+x,1/2-y,1/2-z
1/2-x,y,1/2-z
1/2-x,1/2-y,1/2-z
1/2+x,y,1/2-z
1/2-x,1/2+y,1/2+z
1/2+x,-y,1/2+z
loop_
_atom_site_type_symbol
_atom_site_label
_atom_site_fract_x
_atom_site_fract_y
_atom_site_fract_z
Si Si1 0.695379 0.750000 0.123176
Si Si2 0.826252 0.000000 0.000000
Si Si3 0.657579 0.587644 0.994047
Si Si4 0.195311 0.369222 0.184624
Si Si5 0.820663 0.750000 0.055358
Si Si6 0.500000 0.660959 0.420639
Si Si7 0.587303 0.940768 0.266824
Si Si8 0.500000 0.952271 0.657304
O O1 0.684110 0.665419 0.057386
O O2 0.659112 0.750000 0.275503
O O3 0.758930 0.750000 0.103315
O O4 0.864367 0.041779 0.880073
O O5 0.790525 0.944640 0.904031
O O6 0.607337 0.579946 0.102392
O O7 0.679094 0.500000 0.000000
O O8 0.656459 0.608991 0.818624
O O9 0.250000 0.336524 0.250000
O O10 0.169396 0.318676 0.056520
O O11 0.500000 0.750000 0.411066
O O12 0.449291 0.623900 0.339009
O O13 0.500000 0.631723 0.593756
O O14 0.551467 0.016427 0.261194
O O15 0.500000 0.000000 0.500000
#
# Coordination Sequence:
#
# PCOD9538626 Si02
#       8
#     8   8  16  16   8   8  16   8
#     4  11  25  46  69  99 134 183 249 307 354 432
#     4  12  22  39  68  92 134 176 248 291 342 426
#     4  12  25  43  70 101 142 184 238 299 363 425
#     4  12  26  42  64  95 142 192 239 294 363 421
#     4  11  24  47  66  89 137 192 238 305 369 409
#     4  10  20  38  72 105 141 184 233 292 368 446
#     4  10  20  41  64 103 133 179 228 292 357 424
#     4   8  16  38  68  89 142 176 218 286 357 431
#
# _framework density 22.023351000000002
#
# number of rings (size 3 to 8) (size 9 to 14) (size 15 to 20)
#    0.000    1.273    6.364    1.909    2.545    0.000 
#    1.636    1.818    2.000    0.000    0.000    1.273 
#    0.000    0.000    0.000    0.000    0.000    0.000 
#
# Total GULP energy -244980.418312 kJ/mol
# GULP energy per Si atom -5567.736780 kJ/mol
# Density = 2.197323 g / cm^3
# Si number density = 22.023351 Si / 1000 Ang^3
#
#
#
# Elastic Constant Matrix: (Units=GPa)
#
#
# Indices 1 2 3 4 5 6 
#
# 1 47.8889 20.1543 8.0183 0.0000 0.0000 0.0000
# 2 20.1543 137.2247 34.3043 0.0000 0.0000 0.0000
# 3 8.0183 34.3043 125.0333 0.0000 0.0000 0.0000
# 4 0.0000 0.0000 0.0000 42.4986 0.0000 0.0000
# 5 0.0000 0.0000 0.0000 0.0000 30.3278 0.0000
# 6 0.0000 0.0000 0.0000 0.0000 0.0000 -18.3220
#
#
#
# Elastic Compliance Matrix: (Units=1/GPa)
#
#
# Indices 1 2 3 4 5 6 
#
# 1 0.022295 -0.003132 -0.000571 0.000000 0.000000 0.000000
# 2 -0.003132 0.008264 -0.002066 0.000000 0.000000 0.000000
# 3 -0.000571 -0.002066 0.008601 0.000000 0.000000 0.000000
# 4 0.000000 0.000000 0.000000 0.023530 0.000000 0.000000
# 5 0.000000 0.000000 0.000000 0.000000 0.032973 0.000000
# 6 0.000000 0.000000 0.000000 0.000000 0.000000 -0.054579
#
#
# Mechanical properties :
#
#
# Convention : Reuss Voigt Hill
#
# Bulk Modulus (GPa) = 36.20193 48.34453 42.27323
# Shear Modulus (GPa) = 80.86703 27.41223 54.13963
#
# Velocity S-wave (km/s) = 6.06618 3.53184 4.96349
# Velocity P-wave (km/s) = 8.09557 6.21539 7.21697
#
# Compressibility (1/GPa) = 0.02762284
#
# Stress axis : x y z
#
# Youngs Moduli (GPa) = 44.85258 121.00845 116.26010
#
# Poissons Ratio (x) = 0.37899 0.06633
# Poissons Ratio (y) = 0.14047 0.24024
# Poissons Ratio (z) = 0.02559 0.25006
#
# Static dielectric constant tensor:
#      x y z
#    x 1.861510 0.000000 0.000000 
#    y 0.000000 1.906960 0.000000 
#    z 0.000000 0.000000 1.916510 
# 
# From -- ./inp_files/16132.got.cif
#   From: 2010.05.17/outbox.cif.g08.bks.cpg/sg74_9_cif.got.tgz:16132.got - 2010.06.03 17:57:02.
