data_PCOD9538945
_publ_section_title
;
Structure prediction by ZEFSAII (Michael W. Deem and Ramdas Pophale) SiO2 
 PCOD9538945
Probable space group: I M M A
;
_chemical_formula_sum "Si O2"
_cell_formula_units_Z 80
_cell_length_a 13.506813
_cell_length_b 23.914150
_cell_length_c 12.164398
_cell_angle_alpha 90.000000
_cell_angle_beta 90.000000
_cell_angle_gamma 90.000000
_cell_volume 3929.148629
_symmetry_space_group_name_H-M "I M M A"
_symmetry_group_IT_number 74
_symmetry_cell_setting 'orthorhombic'
loop_
_space_group_symop_operation_xyz
x,y,z
-x,1/2-y,z
x,-y,-z
-x,1/2+y,-z
-x,-y,-z
x,1/2+y,-z
-x,y,z
x,1/2-y,z
1/2+x,1/2+y,1/2+z
1/2-x,-y,1/2+z
1/2+x,1/2-y,1/2-z
1/2-x,y,1/2-z
1/2-x,1/2-y,1/2-z
1/2+x,y,1/2-z
1/2-x,1/2+y,1/2+z
1/2+x,-y,1/2+z
loop_
_atom_site_type_symbol
_atom_site_label
_atom_site_fract_x
_atom_site_fract_y
_atom_site_fract_z
Si Si1 0.893623 0.682278 0.179743
Si Si2 0.190654 0.082938 0.457746
Si Si3 0.111399 0.532807 0.885822
Si Si4 0.684414 0.683403 0.080361
Si Si5 0.387846 0.020079 0.840188
O O1 0.896014 0.750000 0.175294
O O2 0.798308 0.667134 0.108996
O O3 0.874679 0.669202 0.307855
O O4 0.000000 0.659637 0.143703
O O5 0.298176 0.075728 0.401901
O O6 0.156372 0.145913 0.477117
O O7 0.120144 0.042822 0.387976
O O8 0.183010 0.055816 0.580779
O O9 0.134191 0.488934 0.787709
O O10 0.000000 0.555236 0.864543
O O11 0.108221 0.500000 0.000000
O O12 0.677233 0.750000 0.064193
O O13 0.500000 0.041202 0.852387
#
# Coordination Sequence:
#
# PCOD9538945 Si02
#       5
#    16  16  16  16  16
#     4   8  15  30  48  68 104 146 181 223 269 315
#     4  11  20  34  59  79 110 147 181 220 277 327
#     4  10  21  36  55  81 110 139 179 228 276 326
#     4   9  19  32  48  77 108 140 186 228 269 327
#     4  10  22  39  56  78 109 143 183 224 274 334
#
# _framework density 20.360645999999999
#
# number of rings (size 3 to 8) (size 9 to 14) (size 15 to 20)
#    0.000    2.400    2.000    3.000    0.000    5.600 
#    0.000    2.000    0.000    2.400    0.000    2.800 
#    0.000    0.000    0.000    0.200    0.000    0.000 
#
# Total GULP energy -223033.763661 kJ/mol
# GULP energy per Si atom -5575.844092 kJ/mol
# Density = 2.031430 g / cm^3
# Si number density = 20.360646 Si / 1000 Ang^3
#
#
#
# Elastic Constant Matrix: (Units=GPa)
#
#
# Indices 1 2 3 4 5 6 
#
# 1 72.9174 19.4070 22.7036 0.0000 0.0000 0.0000
# 2 19.4070 29.1078 -3.2888 -0.0001 0.0000 0.0000
# 3 22.7036 -3.2888 70.4913 0.0000 0.0000 0.0000
# 4 0.0000 -0.0001 0.0000 25.2997 0.0000 0.0000
# 5 0.0000 0.0000 0.0000 0.0000 21.7861 0.0000
# 6 0.0000 0.0000 0.0000 0.0000 0.0000 9.1563
#
#
#
# Elastic Compliance Matrix: (Units=1/GPa)
#
#
# Indices 1 2 3 4 5 6 
#
# 1 0.019555 -0.013822 -0.006943 0.000000 0.000000 0.000000
# 2 -0.013822 0.044307 0.006519 0.000000 0.000000 0.000000
# 3 -0.006943 0.006519 0.016726 0.000000 0.000000 0.000000
# 4 0.000000 0.000000 0.000000 0.039526 0.000000 0.000000
# 5 0.000000 0.000000 0.000000 0.000000 0.045901 0.000000
# 6 0.000000 0.000000 0.000000 0.000000 0.000000 0.109215
#
#
# Mechanical properties :
#
#
# Convention : Reuss Voigt Hill
#
# Bulk Modulus (GPa) = 19.19531 27.79556 23.49544
# Shear Modulus (GPa) = 15.57206 20.16139 17.86673
#
# Velocity S-wave (km/s) = 2.76852 3.15018 2.96550
# Velocity P-wave (km/s) = 4.43483 5.18775 4.82600
#
# Compressibility (1/GPa) = 0.05209606
#
# Stress axis : x y z
#
# Youngs Moduli (GPa) = 51.13861 22.56970 59.78544
#
# Poissons Ratio (x) = 0.31196 0.41509
# Poissons Ratio (y) = 0.70685 -0.38974
# Poissons Ratio (z) = 0.35506 -0.14713
#
# Static dielectric constant tensor:
#      x y z
#    x 1.792050 0.000000 0.000000 
#    y 0.000000 1.762580 0.000000 
#    z 0.000000 0.000000 1.730470 
# 
# From -- ./inp_files/20777.got.cif
#   From: 2010.05.17/outbox.cif.g08.bks.cpg/sg74_11_cif.got.tgz:20777.got - 2010.06.03 17:57:02.
