data_PCOD9538448
_publ_section_title
;
Structure prediction by ZEFSAII (Michael W. Deem and Ramdas Pophale) SiO2 
 PCOD9538448
Probable space group: I M M A
;
_chemical_formula_sum "Si O2"
_cell_formula_units_Z 112
_cell_length_a 27.323081
_cell_length_b 14.181014
_cell_length_c 14.402202
_cell_angle_alpha 90.000000
_cell_angle_beta 90.000000
_cell_angle_gamma 90.000000
_cell_volume 5580.406723
_symmetry_space_group_name_H-M "I M M A"
_symmetry_group_IT_number 74
_symmetry_cell_setting 'orthorhombic'
loop_
_space_group_symop_operation_xyz
x,y,z
-x,1/2-y,z
x,-y,-z
-x,1/2+y,-z
-x,-y,-z
x,1/2+y,-z
-x,y,z
x,1/2-y,z
1/2+x,1/2+y,1/2+z
1/2-x,-y,1/2+z
1/2+x,1/2-y,1/2-z
1/2-x,y,1/2-z
1/2-x,1/2-y,1/2-z
1/2+x,y,1/2-z
1/2-x,1/2+y,1/2+z
1/2+x,-y,1/2+z
loop_
_atom_site_type_symbol
_atom_site_label
_atom_site_fract_x
_atom_site_fract_y
_atom_site_fract_z
Si Si1 0.659583 0.139178 0.458963
Si Si2 0.867674 0.048226 0.853162
Si Si3 0.647220 0.148886 0.114436
Si Si4 0.944047 0.611886 0.489603
Si Si5 0.558354 0.142646 0.776207
Si Si6 0.232943 0.856804 0.462013
Si Si7 0.297756 0.511645 0.206849
O O1 0.653656 0.250000 0.434647
O O2 0.632727 0.112965 0.555495
O O3 0.717039 0.121183 0.482685
O O4 0.641101 0.059572 0.387056
O O5 0.914600 0.069972 0.790556
O O6 0.821734 0.074558 0.787376
O O7 0.653034 0.250000 0.162662
O O8 0.660312 0.061309 0.178274
O O9 0.594778 0.145402 0.065126
O O10 0.688035 0.142610 0.033768
O O11 0.945200 0.500000 0.500000
O O12 0.927033 0.634217 0.384716
O O13 0.000000 0.645977 0.501155
O O14 0.500000 0.128532 0.774127
O O15 0.569375 0.250000 0.746494
O O16 0.238220 0.750000 0.425344
O O17 0.219543 0.928782 0.381076
O O18 0.250000 0.462279 0.250000
#
# Coordination Sequence:
#
# PCOD9538448 Si02
#       7
#    16  16  16  16  16  16  16
#     4  10  22  40  59  82 114 156 199 244 304 365
#     4  11  22  37  61  87 113 155 197 248 299 355
#     4  11  23  36  55  83 118 163 202 236 286 351
#     4  10  20  37  61  89 121 159 200 244 294 348
#     4  10  21  38  62  92 124 156 195 246 301 356
#     4  10  21  37  57  82 116 155 196 240 294 357
#     4  12  23  36  57  84 120 155 197 247 294 344
#
# _framework density 20.070222000000001
#
# number of rings (size 3 to 8) (size 9 to 14) (size 15 to 20)
#    0.000    1.429    1.429    4.714    2.000    4.286 
#    0.000    1.429    0.000    1.286    0.000    0.000 
#    0.000    0.000    0.000    0.000    0.000    0.000 
#
# Total GULP energy -312802.232128 kJ/mol
# GULP energy per Si atom -5585.754145 kJ/mol
# Density = 2.002454 g / cm^3
# Si number density = 20.070222 Si / 1000 Ang^3
#
#
#
# Elastic Constant Matrix: (Units=GPa)
#
#
# Indices 1 2 3 4 5 6 
#
# 1 68.2239 27.1228 32.6912 0.0000 0.0000 0.0000
# 2 27.1228 125.8090 35.7901 0.0000 0.0000 0.0000
# 3 32.6912 35.7901 77.7699 0.0000 0.0000 0.0000
# 4 0.0000 0.0000 0.0000 8.8496 0.0000 0.0000
# 5 0.0000 0.0000 0.0000 0.0000 37.4968 0.0000
# 6 0.0000 0.0000 0.0000 0.0000 0.0000 -4.9885
#
#
#
# Elastic Compliance Matrix: (Units=1/GPa)
#
#
# Indices 1 2 3 4 5 6 
#
# 1 0.018815 -0.002078 -0.006953 0.000000 0.000000 0.000000
# 2 -0.002078 0.009376 -0.003441 0.000000 0.000000 0.000000
# 3 -0.006953 -0.003441 0.017365 0.000000 0.000000 0.000000
# 4 0.000000 0.000000 0.000000 0.113000 0.000000 0.000000
# 5 0.000000 0.000000 0.000000 0.000000 0.026669 0.000000
# 6 0.000000 0.000000 0.000000 0.000000 0.000000 -0.200459
#
#
# Mechanical properties :
#
#
# Convention : Reuss Voigt Hill
#
# Bulk Modulus (GPa) = 48.51698 51.44566 49.98132
# Shear Modulus (GPa) = 301.57626 20.01816 160.79721
#
# Velocity S-wave (km/s) = 12.27138 3.16160 8.96054
# Velocity P-wave (km/s) = 15.00028 6.24629 11.48966
#
# Compressibility (1/GPa) = 0.02061134
#
# Stress axis : x y z
#
# Youngs Moduli (GPa) = 53.14767 106.66058 57.58835
#
# Poissons Ratio (x) = 0.22169 0.40040
# Poissons Ratio (y) = 0.11047 0.19816
# Poissons Ratio (z) = 0.36952 0.36701
#
# Static dielectric constant tensor:
#      x y z
#    x 1.717570 0.000000 0.000000 
#    y 0.000000 1.754870 0.000000 
#    z 0.000000 0.000000 1.697430 
# 
# From -- ./inp_files/32879.got.cif
#   From: 2010.05.17/outbox.cif.g08.bks.cpg/sg74_17_cif.got.tgz:32879.got - 2010.06.03 17:57:02.
