data_PCOD9538741
_publ_section_title
;
Structure prediction by ZEFSAII (Michael W. Deem and Ramdas Pophale) SiO2 
 PCOD9538741
Probable space group: I M M A
;
_chemical_formula_sum "Si O2"
_cell_formula_units_Z 96
_cell_length_a 15.882364
_cell_length_b 14.277679
_cell_length_c 17.248196
_cell_angle_alpha 90.000000
_cell_angle_beta 90.000000
_cell_angle_gamma 90.000000
_cell_volume 3911.257757
_symmetry_space_group_name_H-M "I M M A"
_symmetry_group_IT_number 74
_symmetry_cell_setting 'orthorhombic'
loop_
_space_group_symop_operation_xyz
x,y,z
-x,1/2-y,z
x,-y,-z
-x,1/2+y,-z
-x,-y,-z
x,1/2+y,-z
-x,y,z
x,1/2-y,z
1/2+x,1/2+y,1/2+z
1/2-x,-y,1/2+z
1/2+x,1/2-y,1/2-z
1/2-x,y,1/2-z
1/2-x,1/2-y,1/2-z
1/2+x,y,1/2-z
1/2-x,1/2+y,1/2+z
1/2+x,-y,1/2+z
loop_
_atom_site_type_symbol
_atom_site_label
_atom_site_fract_x
_atom_site_fract_y
_atom_site_fract_z
Si Si1 0.410492 0.617121 0.379331
Si Si2 0.721944 0.385723 0.497276
Si Si3 0.402833 0.105814 0.360778
Si Si4 0.907679 0.390023 0.477541
Si Si5 0.656768 0.850700 0.214508
Si Si6 0.597896 0.551780 0.807543
O O1 0.500000 0.646590 0.412946
O O2 0.332414 0.647167 0.430133
O O3 0.409168 0.504621 0.379689
O O4 0.401712 0.646500 0.290784
O O5 0.725153 0.500000 0.500000
O O6 0.668013 0.358866 0.420536
O O7 0.817815 0.353363 0.504664
O O8 0.500000 0.142206 0.367556
O O9 0.373781 0.104428 0.270678
O O10 0.910659 0.500000 0.500000
O O11 0.899892 0.386759 0.384220
O O12 0.000000 0.353023 0.501431
O O13 0.642605 0.750000 0.174571
O O14 0.750000 0.851988 0.250000
O O15 0.642919 0.952076 0.175831
O O16 0.500000 0.527909 0.792942
#
# Coordination Sequence:
#
# PCOD9538741 Si02
#       6
#    16  16  16  16  16  16
#     4   9  17  29  44  62  84 110 147 186 224 267
#     4   9  16  24  41  61  78 112 135 179 224 267
#     4   8  14  24  38  61  84 106 140 177 218 267
#     4   9  18  28  38  58  82 111 150 185 223 273
#     4  10  21  31  44  64  88 121 158 193 224 264
#     4   9  18  29  43  60  84 118 154 192 227 267
#
# _framework density 24.544533999999999
#
# number of rings (size 3 to 8) (size 9 to 14) (size 15 to 20)
#    0.000    3.000    0.000    2.000    9.333    3.333 
#    0.000    0.000    0.000    0.000    0.000    0.000 
#    0.000    0.000    0.000    4.500    0.000   36.500 
#
# Total GULP energy -267948.861163 kJ/mol
# GULP energy per Si atom -5582.267941 kJ/mol
# Density = 2.448867 g / cm^3
# Si number density = 24.544534 Si / 1000 Ang^3
#
#
#
# Elastic Constant Matrix: (Units=GPa)
#
#
# Indices 1 2 3 4 5 6 
#
# 1 185.4284 8.0968 41.4353 0.0000 0.0000 0.0000
# 2 8.0968 87.9502 -6.9075 0.0000 0.0000 0.0000
# 3 41.4353 -6.9075 91.6578 0.0000 0.0000 0.0000
# 4 0.0000 0.0000 0.0000 -11.9978 0.0000 0.0000
# 5 0.0000 0.0000 0.0000 0.0000 22.0779 0.0000
# 6 0.0000 0.0000 0.0000 0.0000 0.0000 -60.7717
#
#
#
# Elastic Compliance Matrix: (Units=1/GPa)
#
#
# Indices 1 2 3 4 5 6 
#
# 1 0.006051 -0.000777 -0.002794 0.000000 0.000000 0.000000
# 2 -0.000777 0.011537 0.001221 0.000000 0.000000 0.000000
# 3 -0.002794 0.001221 0.012265 0.000000 0.000000 0.000000
# 4 0.000000 0.000000 0.000000 -0.083349 0.000000 0.000000
# 5 0.000000 0.000000 0.000000 0.000000 0.045294 0.000000
# 6 0.000000 0.000000 0.000000 0.000000 0.000000 -0.016455
#
#
# Mechanical properties :
#
#
# Convention : Reuss Voigt Hill
#
# Bulk Modulus (GPa) = 39.75556 50.03173 44.89365
# Shear Modulus (GPa) = -432.11015 11.35579 -210.37718
#
# Velocity S-wave (km/s) = -13.28283 2.15329 -9.26814
# Velocity P-wave (km/s) = 14.79907 5.15854 9.80821
#
# Compressibility (1/GPa) = 0.02515372
#
# Stress axis : x y z
#
# Youngs Moduli (GPa) = 165.25723 86.67452 81.53133
#
# Poissons Ratio (x) = 0.06730 0.22780
# Poissons Ratio (y) = 0.12832 -0.09951
# Poissons Ratio (z) = 0.46174 -0.10579
#
# Static dielectric constant tensor:
#      x y z
#    x 1.944560 0.000000 0.000000 
#    y 0.000000 1.958890 0.000000 
#    z 0.000000 0.000000 1.971880 
# 
# From -- ./inp_files/52232.got.cif
#   From: 2010.05.17/outbox.cif.g08.bks.cpg/sg74_27_cif.got.tgz:52232.got - 2010.06.03 17:57:02.
