data_PCOD9538318
_publ_section_title
;
Structure prediction by ZEFSAII (Michael W. Deem and Ramdas Pophale) SiO2 
 PCOD9538318
Probable space group: I M M A
;
_chemical_formula_sum "Si O2"
_cell_formula_units_Z 64
_cell_length_a 26.268405
_cell_length_b 13.018283
_cell_length_c 8.018351
_cell_angle_alpha 90.000000
_cell_angle_beta 90.000000
_cell_angle_gamma 90.000000
_cell_volume 2742.031725
_symmetry_space_group_name_H-M "I M M A"
_symmetry_group_IT_number 74
_symmetry_cell_setting 'orthorhombic'
loop_
_space_group_symop_operation_xyz
x,y,z
-x,1/2-y,z
x,-y,-z
-x,1/2+y,-z
-x,-y,-z
x,1/2+y,-z
-x,y,z
x,1/2-y,z
1/2+x,1/2+y,1/2+z
1/2-x,-y,1/2+z
1/2+x,1/2-y,1/2-z
1/2-x,y,1/2-z
1/2-x,1/2-y,1/2-z
1/2+x,y,1/2-z
1/2-x,1/2+y,1/2+z
1/2+x,-y,1/2+z
loop_
_atom_site_type_symbol
_atom_site_label
_atom_site_fract_x
_atom_site_fract_y
_atom_site_fract_z
Si Si1 0.191487 0.082637 0.736143
Si Si2 0.336292 0.362400 0.140110
Si Si3 0.586448 0.364145 0.633682
Si Si4 0.943273 0.581728 0.755852
O O1 0.250000 0.112971 0.750000
O O2 0.175915 0.119682 0.552621
O O3 0.148069 0.124291 0.859882
O O4 0.186822 0.958516 0.740068
O O5 0.319319 0.250000 0.196590
O O6 0.397095 0.370926 0.155169
O O7 0.572918 0.250000 0.690127
O O8 0.566028 0.381827 0.446791
O O9 0.564639 0.458332 0.740764
O O10 0.000000 0.607947 0.702874
#
# Coordination Sequence:
#
# PCOD9538318 Si02
#       4
#    16  16  16  16
#     4  10  23  42  61  87 122 155 195 246 294 347
#     4  10  22  40  62  89 119 154 197 241 291 353
#     4  10  20  36  60  90 121 155 200 246 290 347
#     4  10  22  39  59  87 122 157 197 246 295 347
#
# _framework density 23.340357000000001
#
# number of rings (size 3 to 8) (size 9 to 14) (size 15 to 20)
#    0.000    2.000    0.000    3.000    0.000   14.000 
#    0.000   11.250    0.000   12.000    0.000    0.000 
#    0.000    0.000    0.000    0.000    0.000    0.000 
#
# Total GULP energy -179037.037427 kJ/mol
# GULP energy per Si atom -5594.907420 kJ/mol
# Density = 2.328723 g / cm^3
# Si number density = 23.340357 Si / 1000 Ang^3
#
#
#
# Elastic Constant Matrix: (Units=GPa)
#
#
# Indices 1 2 3 4 5 6 
#
# 1 132.3541 -28.5780 5.5882 0.0000 0.0000 0.0000
# 2 -28.5780 145.4506 -9.9478 0.0000 0.0000 0.0000
# 3 5.5882 -9.9478 18.5022 0.0000 0.0000 0.0000
# 4 0.0000 0.0000 0.0000 4.1123 0.0000 0.0000
# 5 0.0000 0.0000 0.0000 0.0000 66.3484 0.0000
# 6 0.0000 0.0000 0.0000 0.0000 0.0000 -26.9346
#
#
#
# Elastic Compliance Matrix: (Units=1/GPa)
#
#
# Indices 1 2 3 4 5 6 
#
# 1 0.007937 0.001449 -0.001618 0.000000 0.000000 0.000000
# 2 0.001449 0.007402 0.003542 0.000000 0.000000 0.000000
# 3 -0.001618 0.003542 0.056441 0.000000 0.000000 0.000000
# 4 0.000000 0.000000 0.000000 0.243175 0.000000 0.000000
# 5 0.000000 0.000000 0.000000 0.000000 0.015072 0.000000
# 6 0.000000 0.000000 0.000000 0.000000 0.000000 -0.037127
#
#
# Mechanical properties :
#
#
# Convention : Reuss Voigt Hill
#
# Bulk Modulus (GPa) = 12.73480 25.60352 19.16916
# Shear Modulus (GPa) = 16.00875 30.65487 23.33181
#
# Velocity S-wave (km/s) = 2.62178 3.62800 3.16513
# Velocity P-wave (km/s) = 3.82530 5.34259 4.64630
#
# Compressibility (1/GPa) = 0.07852499
#
# Stress axis : x y z
#
# Youngs Moduli (GPa) = 125.99825 135.09702 17.71769
#
# Poissons Ratio (x) = -0.19572 0.02867
# Poissons Ratio (y) = -0.18253 -0.06276
# Poissons Ratio (z) = 0.20389 -0.47854
#
# Static dielectric constant tensor:
#      x y z
#    x 1.849780 0.000000 0.000000 
#    y 0.000000 1.901910 0.000000 
#    z 0.000000 0.000000 1.861250 
# 
# From -- ./inp_files/13291.got.cif
#   From: 2010.05.17/outbox.cif.g08.bks.cpg/sg74_7_cif.got.tgz:13291.got - 2010.06.03 17:57:02.
