data_PCOD9538758
_publ_section_title
;
Structure prediction by ZEFSAII (Michael W. Deem and Ramdas Pophale) SiO2 
 PCOD9538758
Probable space group: I M M A
;
_chemical_formula_sum "Si O2"
_cell_formula_units_Z 104
_cell_length_a 17.449632
_cell_length_b 22.752636
_cell_length_c 14.040540
_cell_angle_alpha 90.000000
_cell_angle_beta 90.000000
_cell_angle_gamma 90.000000
_cell_volume 5574.447152
_symmetry_space_group_name_H-M "I M M A"
_symmetry_group_IT_number 74
_symmetry_cell_setting 'orthorhombic'
loop_
_space_group_symop_operation_xyz
x,y,z
-x,1/2-y,z
x,-y,-z
-x,1/2+y,-z
-x,-y,-z
x,1/2+y,-z
-x,y,z
x,1/2-y,z
1/2+x,1/2+y,1/2+z
1/2-x,-y,1/2+z
1/2+x,1/2-y,1/2-z
1/2-x,y,1/2-z
1/2-x,1/2-y,1/2-z
1/2+x,y,1/2-z
1/2-x,1/2+y,1/2+z
1/2+x,-y,1/2+z
loop_
_atom_site_type_symbol
_atom_site_label
_atom_site_fract_x
_atom_site_fract_y
_atom_site_fract_z
Si Si1 0.586401 0.968052 0.345239
Si Si2 0.089808 0.653005 0.096459
Si Si3 0.409173 0.683093 0.618145
Si Si4 0.087929 0.920585 0.371255
Si Si5 0.302172 0.500000 0.000000
Si Si6 0.169843 0.816199 0.285677
Si Si7 0.702277 0.926301 0.651375
O O1 0.500000 0.981221 0.376613
O O2 0.620237 0.914116 0.406669
O O3 0.585514 0.943859 0.237406
O O4 0.636056 0.025283 0.346587
O O5 0.122845 0.685026 0.187639
O O6 0.000000 0.645960 0.115160
O O7 0.098703 0.683745 0.996457
O O8 0.500000 0.666941 0.637846
O O9 0.397424 0.750000 0.654126
O O10 0.344211 0.635719 0.646748
O O11 0.142756 0.962446 0.431013
O O12 0.126120 0.856434 0.360803
O O13 0.000000 0.918558 0.406283
O O14 0.254949 0.547659 0.935413
O O15 0.183481 0.750000 0.320645
O O16 0.250000 0.843387 0.250000
O O17 0.750000 0.927529 0.750000
#
# Coordination Sequence:
#
# PCOD9538758 Si02
#       7
#    16  16  16  16   8  16  16
#     4   9  18  35  58  86 118 151 192 237 293 360
#     4   9  18  33  57  86 118 155 189 232 288 356
#     4  10  22  40  61  85 117 158 201 241 293 361
#     4  10  22  39  59  81 116 163 205 241 286 354
#     4  12  25  40  61  90 122 154 200 256 303 354
#     4  10  21  33  55  89 125 159 191 239 297 355
#     4  12  24  38  60  91 119 155 191 254 307 351
#
# _framework density 18.656559000000001
#
# number of rings (size 3 to 8) (size 9 to 14) (size 15 to 20)
#    0.000    1.846    1.538    3.462    6.462    2.154 
#    0.000    3.077    0.000    0.000    0.000    0.000 
#    0.000    0.000    0.000    0.000    0.000    0.000 
#
# Total GULP energy -289785.347024 kJ/mol
# GULP energy per Si atom -5572.795135 kJ/mol
# Density = 1.861410 g / cm^3
# Si number density = 18.656559 Si / 1000 Ang^3
#
#
#
# Elastic Constant Matrix: (Units=GPa)
#
#
# Indices 1 2 3 4 5 6 
#
# 1 99.0292 69.5216 34.1999 0.0000 0.0000 0.0000
# 2 69.5216 113.7836 16.2439 0.0000 0.0000 0.0000
# 3 34.1999 16.2439 44.2839 0.0000 0.0000 0.0000
# 4 0.0000 0.0000 0.0000 -23.8618 0.0000 0.0000
# 5 0.0000 0.0000 0.0000 0.0000 24.2405 0.0000
# 6 0.0000 0.0000 0.0000 0.0000 0.0000 -3.3156
#
#
#
# Elastic Compliance Matrix: (Units=1/GPa)
#
#
# Indices 1 2 3 4 5 6 
#
# 1 0.023524 -0.012430 -0.013608 0.000000 0.000000 0.000000
# 2 -0.012430 0.015843 0.003789 0.000000 0.000000 0.000000
# 3 -0.013608 0.003789 0.031701 0.000000 0.000000 0.000000
# 4 0.000000 0.000000 0.000000 -0.041908 0.000000 0.000000
# 5 0.000000 0.000000 0.000000 0.000000 0.041253 0.000000
# 6 0.000000 0.000000 0.000000 0.000000 0.000000 -0.301604
#
#
# Mechanical properties :
#
#
# Convention : Reuss Voigt Hill
#
# Bulk Modulus (GPa) = 37.63847 55.22527 46.43187
# Shear Modulus (GPa) = -28.11575 8.55472 -9.78052
#
# Velocity S-wave (km/s) = -3.88624 2.14367 -2.29211
# Velocity P-wave (km/s) = 0.28461 5.98267 4.23517
#
# Compressibility (1/GPa) = 0.02656856
#
# Stress axis : x y z
#
# Youngs Moduli (GPa) = 42.50972 63.12031 31.54486
#
# Poissons Ratio (x) = 0.78462 0.42925
# Poissons Ratio (y) = 0.52842 -0.11951
# Poissons Ratio (z) = 0.57846 -0.23914
#
# Static dielectric constant tensor:
#      x y z
#    x 1.689010 0.000000 0.000000 
#    y 0.000000 1.705610 0.000000 
#    z 0.000000 0.000000 1.633560 
# 
# From -- ./inp_files/34335.got.cif
#   From: 2010.05.17/outbox.cif.g08.bks.cpg/sg74_18_cif.got.tgz:34335.got - 2010.06.03 17:57:02.
