data_PCOD9538583
_publ_section_title
;
Structure prediction by ZEFSAII (Michael W. Deem and Ramdas Pophale) SiO2 
 PCOD9538583
Probable space group: I M M A
;
_chemical_formula_sum "Si O2"
_cell_formula_units_Z 48
_cell_length_a 10.180379
_cell_length_b 18.376030
_cell_length_c 10.495132
_cell_angle_alpha 90.000000
_cell_angle_beta 90.000000
_cell_angle_gamma 90.000000
_cell_volume 1963.376293
_symmetry_space_group_name_H-M "I M M A"
_symmetry_group_IT_number 74
_symmetry_cell_setting 'orthorhombic'
loop_
_space_group_symop_operation_xyz
x,y,z
-x,1/2-y,z
x,-y,-z
-x,1/2+y,-z
-x,-y,-z
x,1/2+y,-z
-x,y,z
x,1/2-y,z
1/2+x,1/2+y,1/2+z
1/2-x,-y,1/2+z
1/2+x,1/2-y,1/2-z
1/2-x,y,1/2-z
1/2-x,1/2-y,1/2-z
1/2+x,y,1/2-z
1/2-x,1/2+y,1/2+z
1/2+x,-y,1/2+z
loop_
_atom_site_type_symbol
_atom_site_label
_atom_site_fract_x
_atom_site_fract_y
_atom_site_fract_z
Si Si1 0.850396 0.980311 0.355540
Si Si2 0.711230 0.663619 0.044893
Si Si3 0.000000 0.837048 0.671328
Si Si4 0.500000 0.162124 0.460493
O O1 0.750000 0.007329 0.250000
O O2 0.849367 0.892064 0.354712
O O3 0.000000 0.005517 0.338471
O O4 0.810131 0.000000 0.500000
O O5 0.698800 0.750000 0.073719
O O6 0.628882 0.649216 0.914648
O O7 0.863253 0.642760 0.026429
O O8 0.000000 0.750000 0.686624
O O9 0.000000 0.864895 0.815052
O O10 0.500000 0.250000 0.458246
#
# Coordination Sequence:
#
# PCOD9538583 Si02
#       4
#    16  16   8   8
#     4  11  27  50  72 101 137 181 232 280 340 410
#     4  10  20  38  63  98 137 174 223 283 340 400
#     4   9  16  30  54  87 134 179 217 271 332 391
#     4   9  18  30  54  95 138 179 223 269 332 405
#
# _framework density 24.447680999999999
#
# number of rings (size 3 to 8) (size 9 to 14) (size 15 to 20)
#    0.000    2.000    1.667    1.000    2.333    8.000 
#    0.000    0.000    0.000    0.000    0.000    0.000 
#    0.000    0.000    0.000    0.000    0.000    0.000 
#
# Total GULP energy -134272.094142 kJ/mol
# GULP energy per Si atom -5594.670589 kJ/mol
# Density = 2.439204 g / cm^3
# Si number density = 24.447681 Si / 1000 Ang^3
#
#
#
# Elastic Constant Matrix: (Units=GPa)
#
#
# Indices 1 2 3 4 5 6 
#
# 1 175.5532 15.5989 58.9918 0.0001 0.0000 0.0000
# 2 15.5989 89.5544 14.5642 -0.0001 0.0000 0.0000
# 3 58.9918 14.5642 110.6835 -0.0003 0.0000 -0.0001
# 4 0.0001 -0.0001 -0.0003 26.1862 0.0000 -0.0001
# 5 0.0000 0.0000 0.0000 0.0000 27.3936 0.0000
# 6 0.0000 0.0000 -0.0001 -0.0001 0.0000 35.1270
#
#
#
# Elastic Compliance Matrix: (Units=1/GPa)
#
#
# Indices 1 2 3 4 5 6 
#
# 1 0.006973 -0.000624 -0.003634 0.000000 0.000000 0.000000
# 2 -0.000624 0.011466 -0.001176 0.000000 0.000000 0.000000
# 3 -0.003634 -0.001176 0.011127 0.000000 0.000000 0.000000
# 4 0.000000 0.000000 0.000000 0.038188 0.000000 0.000000
# 5 0.000000 0.000000 0.000000 0.000000 0.036505 0.000000
# 6 0.000000 0.000000 0.000000 0.000000 0.000000 0.028468
#
#
# Mechanical properties :
#
#
# Convention : Reuss Voigt Hill
#
# Bulk Modulus (GPa) = 53.48402 61.56677 57.52539
# Shear Modulus (GPa) = 33.37157 36.85044 35.11100
#
# Velocity S-wave (km/s) = 3.69863 3.88663 3.79379
# Velocity P-wave (km/s) = 6.33752 6.73639 6.54000
#
# Compressibility (1/GPa) = 0.01869717
#
# Stress axis : x y z
#
# Youngs Moduli (GPa) = 143.41119 87.21186 89.87456
#
# Poissons Ratio (x) = 0.05438 0.32664
# Poissons Ratio (y) = 0.08942 0.10573
# Poissons Ratio (z) = 0.52121 0.10260
#
# Static dielectric constant tensor:
#      x y z
#    x 1.948280 0.000000 0.000000 
#    y 0.000000 2.021360 0.000000 
#    z 0.000000 0.000000 1.894370 
# 
# From -- ./inp_files/17094.got.cif
#   From: 2010.05.17/outbox.cif.g08.bks.cpg/sg74_9_cif.got.tgz:17094.got - 2010.06.03 17:57:02.
