data_PCOD9538574
_publ_section_title
;
Structure prediction by ZEFSAII (Michael W. Deem and Ramdas Pophale) SiO2 
 PCOD9538574
Probable space group: I M M A
;
_chemical_formula_sum "Si O2"
_cell_formula_units_Z 112
_cell_length_a 13.787070
_cell_length_b 16.367505
_cell_length_c 23.072973
_cell_angle_alpha 90.000000
_cell_angle_beta 90.000000
_cell_angle_gamma 90.000000
_cell_volume 5206.645637
_symmetry_space_group_name_H-M "I M M A"
_symmetry_group_IT_number 74
_symmetry_cell_setting 'orthorhombic'
loop_
_space_group_symop_operation_xyz
x,y,z
-x,1/2-y,z
x,-y,-z
-x,1/2+y,-z
-x,-y,-z
x,1/2+y,-z
-x,y,z
x,1/2-y,z
1/2+x,1/2+y,1/2+z
1/2-x,-y,1/2+z
1/2+x,1/2-y,1/2-z
1/2-x,y,1/2-z
1/2-x,1/2-y,1/2-z
1/2+x,y,1/2-z
1/2-x,1/2+y,1/2+z
1/2+x,-y,1/2+z
loop_
_atom_site_type_symbol
_atom_site_label
_atom_site_fract_x
_atom_site_fract_y
_atom_site_fract_z
Si Si1 0.291996 0.903310 0.415445
Si Si2 0.883910 0.014102 0.272123
Si Si3 0.811225 0.837174 0.308747
Si Si4 0.111262 0.543359 0.857784
Si Si5 0.384372 0.346967 0.464104
Si Si6 0.115632 0.840919 0.642838
Si Si7 0.893030 0.517285 0.566863
O O1 0.257637 0.841753 0.365433
O O2 0.323582 0.872965 0.478869
O O3 0.199480 0.963804 0.417216
O O4 0.379307 0.957238 0.390313
O O5 0.846219 0.027164 0.206321
O O6 0.851071 0.090465 0.311570
O O7 0.000000 0.018350 0.268413
O O8 0.862109 0.925160 0.299313
O O9 0.867173 0.750000 0.313096
O O10 0.750000 0.832337 0.250000
O O11 0.149761 0.608592 0.904830
O O12 0.000000 0.568000 0.849004
O O13 0.500000 0.367517 0.472651
O O14 0.377438 0.250000 0.457330
O O15 0.158226 0.750000 0.646118
O O16 0.000000 0.832487 0.652601
O O17 0.124912 0.887972 0.581867
O O18 0.902873 0.500000 0.500000
O O19 0.000000 0.496960 0.593745
#
# Coordination Sequence:
#
# PCOD9538574 Si02
#       7
#    16  16  16  16  16  16  16
#     4  12  21  38  65  87 121 167 213 263 322 381
#     4  10  20  38  63  91 125 166 211 265 325 388
#     4  11  23  39  59  84 119 163 210 261 318 374
#     4  10  21  37  62  92 123 166 211 255 323 395
#     4  10  22  40  62  94 133 167 210 268 326 394
#     4   9  18  35  61  90 121 160 207 259 318 383
#     4  10  21  37  59  86 120 165 210 260 319 374
#
# _framework density 21.51097
#
# number of rings (size 3 to 8) (size 9 to 14) (size 15 to 20)
#    0.000    1.714    2.857    2.143    0.000    2.000 
#    0.000    6.429    0.000    4.286    0.000    0.000 
#    0.000    0.000    0.000    0.000    0.000    0.000 
#
# Total GULP energy -312010.110385 kJ/mol
# GULP energy per Si atom -5571.609114 kJ/mol
# Density = 2.146201 g / cm^3
# Si number density = 21.510970 Si / 1000 Ang^3
#
#
#
# Elastic Constant Matrix: (Units=GPa)
#
#
# Indices 1 2 3 4 5 6 
#
# 1 73.8046 32.5646 11.4230 0.0000 0.0000 0.0000
# 2 32.5646 186.3394 86.9986 0.0000 0.0000 0.0000
# 3 11.4230 86.9986 162.6996 0.0000 0.0000 0.0000
# 4 0.0000 0.0000 0.0000-1067.3159 0.0000 0.0000
# 5 0.0000 0.0000 0.0000 0.0000 9.0782 0.0000
# 6 0.0000 0.0000 0.0000 0.0000 0.0000 27.0127
#
#
#
# Elastic Compliance Matrix: (Units=1/GPa)
#
#
# Indices 1 2 3 4 5 6 
#
# 1 0.014707 -0.002783 0.000455 0.000000 0.000000 0.000000
# 2 -0.002783 0.007679 -0.003911 0.000000 0.000000 0.000000
# 3 0.000455 -0.003911 0.008205 0.000000 0.000000 0.000000
# 4 0.000000 0.000000 0.000000 -0.000937 0.000000 0.000000
# 5 0.000000 0.000000 0.000000 0.000000 0.110154 0.000000
# 6 0.000000 0.000000 0.000000 0.000000 0.000000 0.037020
#
#
# Mechanical properties :
#
#
# Convention : Reuss Voigt Hill
#
# Bulk Modulus (GPa) = 55.20309 76.09066 65.64687
# Shear Modulus (GPa) = 25.59616 -186.78785 -80.59585
#
# Velocity S-wave (km/s) = 3.45325 -9.32857 -6.12770
# Velocity P-wave (km/s) = 6.45123 8.97663 4.41370
#
# Compressibility (1/GPa) = 0.01811493
#
# Stress axis : x y z
#
# Youngs Moduli (GPa) = 67.99652 130.23164 121.87160
#
# Poissons Ratio (x) = 0.36240 -0.05551
# Poissons Ratio (y) = 0.18922 0.47658
# Poissons Ratio (z) = -0.03097 0.50928
#
# Static dielectric constant tensor:
#      x y z
#    x 1.892070 0.000000 0.000000 
#    y 0.000000 1.785240 0.000000 
#    z 0.000000 0.000000 1.809710 
# 
# From -- ./inp_files/60172.got.cif
#   From: 2010.05.17/outbox.cif.g08.bks.cpg/sg74_31_cif.got.tgz:60172.got - 2010.06.03 17:57:02.
