data_PCOD9538028
_publ_section_title
;
Structure prediction by ZEFSAII (Michael W. Deem and Ramdas Pophale) SiO2 
 PCOD9538028
Probable space group: I M M A
;
_chemical_formula_sum "Si O2"
_cell_formula_units_Z 72
_cell_length_a 8.833541
_cell_length_b 21.607068
_cell_length_c 19.642230
_cell_angle_alpha 90.000000
_cell_angle_beta 90.000000
_cell_angle_gamma 90.000000
_cell_volume 3749.051963
_symmetry_space_group_name_H-M "I M M A"
_symmetry_group_IT_number 74
_symmetry_cell_setting 'orthorhombic'
loop_
_space_group_symop_operation_xyz
x,y,z
-x,1/2-y,z
x,-y,-z
-x,1/2+y,-z
-x,-y,-z
x,1/2+y,-z
-x,y,z
x,1/2-y,z
1/2+x,1/2+y,1/2+z
1/2-x,-y,1/2+z
1/2+x,1/2-y,1/2-z
1/2-x,y,1/2-z
1/2-x,1/2-y,1/2-z
1/2+x,y,1/2-z
1/2-x,1/2+y,1/2+z
1/2+x,-y,1/2+z
loop_
_atom_site_type_symbol
_atom_site_label
_atom_site_fract_x
_atom_site_fract_y
_atom_site_fract_z
Si Si1 0.317252 0.750000 0.173285
Si Si2 0.667520 0.178027 0.314650
Si Si3 0.680085 0.127429 0.063040
Si Si4 0.819561 0.363795 0.913339
Si Si5 0.675157 0.006980 0.917423
O O1 0.500000 0.750000 0.175427
O O2 0.250000 0.750000 0.250000
O O3 0.258510 0.810860 0.132419
O O4 0.500000 0.151768 0.327698
O O5 0.647043 0.250000 0.298416
O O6 0.750000 0.148171 0.250000
O O7 0.771109 0.175701 0.380929
O O8 0.500000 0.124964 0.050578
O O9 0.725610 0.062322 0.099548
O O10 0.761876 0.140307 0.991627
O O11 0.770507 0.434084 0.893960
O O12 0.000000 0.356762 0.910130
O O13 0.500000 0.016986 0.897931
O O14 0.679075 0.000000 0.000000
#
# Coordination Sequence:
#
# PCOD9538028 Si02
#       5
#     8  16  16  16  16
#     4  12  26  46  66  86 117 154 193 242 298 354
#     4  10  21  36  53  76 111 151 190 234 283 338
#     4  10  20  35  58  86 117 153 194 239 285 338
#     4  11  22  37  60  89 118 149 190 236 287 344
#     4   8  16  33  55  82 115 150 189 234 286 339
#
# _framework density 19.204854000000001
#
# number of rings (size 3 to 8) (size 9 to 14) (size 15 to 20)
#    0.000    2.000    0.000    5.667    1.556    6.222 
#    0.000    1.111    0.000    5.333    0.000    0.000 
#    0.000    0.000    0.000    0.000    0.000    0.000 
#
# Total GULP energy -200541.360709 kJ/mol
# GULP energy per Si atom -5570.593353 kJ/mol
# Density = 1.916114 g / cm^3
# Si number density = 19.204854 Si / 1000 Ang^3
#
#
#
# Elastic Constant Matrix: (Units=GPa)
#
#
# Indices 1 2 3 4 5 6 
#
# 1 146.1792 64.3636 53.7218 0.0000 0.0000 0.0000
# 2 64.3636 101.6980 46.2891 0.0000 0.0000 0.0000
# 3 53.7218 46.2891 85.3344 0.0000 0.0000 0.0000
# 4 0.0000 0.0000 0.0000 -12.6005 0.0000 0.0000
# 5 0.0000 0.0000 0.0000 0.0000 24.4408 0.0000
# 6 0.0000 0.0000 0.0000 0.0000 0.0000 26.7225
#
#
#
# Elastic Compliance Matrix: (Units=1/GPa)
#
#
# Indices 1 2 3 4 5 6 
#
# 1 0.010399 -0.004783 -0.003953 0.000000 0.000000 0.000000
# 2 -0.004783 0.015256 -0.005265 0.000000 0.000000 0.000000
# 3 -0.003953 -0.005265 0.017063 0.000000 0.000000 0.000000
# 4 0.000000 0.000000 0.000000 -0.079362 0.000000 0.000000
# 5 0.000000 0.000000 0.000000 0.000000 0.040915 0.000000
# 6 0.000000 0.000000 0.000000 0.000000 0.000000 0.037422
#
#
# Mechanical properties :
#
#
# Convention : Reuss Voigt Hill
#
# Bulk Modulus (GPa) = 67.94194 73.55120 70.74657
# Shear Modulus (GPa) = 67.02495 18.96838 42.99667
#
# Velocity S-wave (km/s) = 5.91403 3.14616 4.73678
# Velocity P-wave (km/s) = 9.06028 7.18186 8.17520
#
# Compressibility (1/GPa) = 0.01471845
#
# Stress axis : x y z
#
# Youngs Moduli (GPa) = 96.16042 65.54709 58.60713
#
# Poissons Ratio (x) = 0.31348 0.23165
# Poissons Ratio (y) = 0.45989 0.30856
# Poissons Ratio (z) = 0.38008 0.34509
#
# Static dielectric constant tensor:
#      x y z
#    x 1.704330 0.000000 0.000000 
#    y 0.000000 1.786550 0.000000 
#    z 0.000000 0.000000 1.637880 
# 
# From -- ./inp_files/48382.got.cif
#   From: 2010.05.17/outbox.cif.g08.bks.cpg/sg74_25_cif.got.tgz:48382.got - 2010.06.03 17:57:02.
