data_PCOD9538581
_publ_section_title
;
Structure prediction by ZEFSAII (Michael W. Deem and Ramdas Pophale) SiO2 
 PCOD9538581
Probable space group: I M M A
;
_chemical_formula_sum "Si O2"
_cell_formula_units_Z 112
_cell_length_a 28.197565
_cell_length_b 17.243270
_cell_length_c 10.946679
_cell_angle_alpha 90.000000
_cell_angle_beta 90.000000
_cell_angle_gamma 90.000000
_cell_volume 5322.474851
_symmetry_space_group_name_H-M "I M M A"
_symmetry_group_IT_number 74
_symmetry_cell_setting 'orthorhombic'
loop_
_space_group_symop_operation_xyz
x,y,z
-x,1/2-y,z
x,-y,-z
-x,1/2+y,-z
-x,-y,-z
x,1/2+y,-z
-x,y,z
x,1/2-y,z
1/2+x,1/2+y,1/2+z
1/2-x,-y,1/2+z
1/2+x,1/2-y,1/2-z
1/2-x,y,1/2-z
1/2-x,1/2-y,1/2-z
1/2+x,y,1/2-z
1/2-x,1/2+y,1/2+z
1/2+x,-y,1/2+z
loop_
_atom_site_type_symbol
_atom_site_label
_atom_site_fract_x
_atom_site_fract_y
_atom_site_fract_z
Si Si1 0.149864 0.338371 0.732067
Si Si2 0.228078 0.660886 0.616237
Si Si3 0.589023 0.658974 0.557956
Si Si4 0.313428 0.090297 0.529232
Si Si5 0.640223 0.411568 0.029202
Si Si6 0.444251 0.577067 0.796046
Si Si7 0.053995 0.405555 0.816318
O O1 0.164876 0.250000 0.749574
O O2 0.178852 0.391596 0.827227
O O3 0.151293 0.363790 0.592514
O O4 0.094516 0.349250 0.766289
O O5 0.223069 0.750000 0.577473
O O6 0.250000 0.658849 0.750000
O O7 0.263092 0.617856 0.522398
O O8 0.177293 0.620676 0.625916
O O9 0.581039 0.750000 0.532596
O O10 0.644292 0.638384 0.536662
O O11 0.571861 0.637163 0.692390
O O12 0.560824 0.604274 0.461942
O O13 0.320318 0.000000 0.500000
O O14 0.587612 0.409703 0.084449
O O15 0.651010 0.500000 0.000000
O O16 0.500000 0.583415 0.821309
O O17 0.435513 0.491098 0.738020
O O18 0.000000 0.386101 0.784170
#
# Coordination Sequence:
#
# PCOD9538581 Si02
#       7
#    16  16  16  16  16  16  16
#     4  11  24  42  66  97 134 178 223 275 337 392
#     4  11  25  44  70 102 135 170 214 271 338 401
#     4  11  22  37  63  99 139 175 216 277 342 402
#     4  11  23  42  70 100 136 174 220 269 327 406
#     4  12  26  45  67  94 131 177 228 281 330 400
#     4  11  24  42  66  94 130 179 230 279 336 399
#     4  10  20  38  63  93 130 173 223 275 330 399
#
# _framework density 21.042843000000001
#
# number of rings (size 3 to 8) (size 9 to 14) (size 15 to 20)
#    0.000    1.000    1.429    6.857    2.000    6.857 
#    0.000    1.429    0.000    0.000    0.000    0.000 
#    0.000    0.000    0.000    0.000    0.000    0.000 
#
# Total GULP energy -313153.597750 kJ/mol
# GULP energy per Si atom -5592.028531 kJ/mol
# Density = 2.099495 g / cm^3
# Si number density = 21.042843 Si / 1000 Ang^3
#
#
#
# Elastic Constant Matrix: (Units=GPa)
#
#
# Indices 1 2 3 4 5 6 
#
# 1 75.1586 37.3713 20.9510 0.0000 0.0000 0.0000
# 2 37.3713 66.4420 33.9357 0.0000 0.0000 0.0000
# 3 20.9510 33.9357 77.7783 0.0000 0.0000 0.0000
# 4 0.0000 0.0000 0.0000 24.6058 0.0000 0.0000
# 5 0.0000 0.0000 0.0000 0.0000 -8.8156 0.0000
# 6 0.0000 0.0000 0.0000 0.0000 0.0000 68.1290
#
#
#
# Elastic Compliance Matrix: (Units=1/GPa)
#
#
# Indices 1 2 3 4 5 6 
#
# 1 0.018491 -0.010109 -0.000570 0.000000 0.000000 0.000000
# 2 -0.010109 0.024893 -0.008138 0.000000 0.000000 0.000000
# 3 -0.000570 -0.008138 0.016561 0.000000 0.000000 0.000000
# 4 0.000000 0.000000 0.000000 0.040641 0.000000 0.000000
# 5 0.000000 0.000000 0.000000 0.000000 -0.113435 0.000000
# 6 0.000000 0.000000 0.000000 0.000000 0.000000 0.014678
#
#
# Mechanical properties :
#
#
# Convention : Reuss Voigt Hill
#
# Bulk Modulus (GPa) = 44.82170 44.87721 44.84946
# Shear Modulus (GPa) = 106.60580 25.25856 65.93218
#
# Velocity S-wave (km/s) = 7.12540 3.46835 5.60360
# Velocity P-wave (km/s) = 9.43618 6.11655 7.95153
#
# Compressibility (1/GPa) = 0.02231062
#
# Stress axis : x y z
#
# Youngs Moduli (GPa) = 54.08109 40.17115 60.38125
#
# Poissons Ratio (x) = 0.40610 0.03442
# Poissons Ratio (y) = 0.54672 0.49140
# Poissons Ratio (z) = 0.03083 0.32692
#
# Static dielectric constant tensor:
#      x y z
#    x 1.741300 0.000000 0.000000 
#    y 0.000000 1.739560 0.000000 
#    z 0.000000 0.000000 1.803120 
# 
# From -- ./inp_files/27235.got.cif
#   From: 2010.05.17/outbox.cif.g08.bks.cpg/sg74_14_cif.got.tgz:27235.got - 2010.06.03 17:57:02.
