data_PCOD9538001
_publ_section_title
;
Structure prediction by ZEFSAII (Michael W. Deem and Ramdas Pophale) SiO2 
 PCOD9538001
Probable space group: I M M A
;
_chemical_formula_sum "Si O2"
_cell_formula_units_Z 72
_cell_length_a 18.165153
_cell_length_b 8.744370
_cell_length_c 24.242369
_cell_angle_alpha 90.000000
_cell_angle_beta 90.000000
_cell_angle_gamma 90.000000
_cell_volume 3850.726230
_symmetry_space_group_name_H-M "I M M A"
_symmetry_group_IT_number 74
_symmetry_cell_setting 'orthorhombic'
loop_
_space_group_symop_operation_xyz
x,y,z
-x,1/2-y,z
x,-y,-z
-x,1/2+y,-z
-x,-y,-z
x,1/2+y,-z
-x,y,z
x,1/2-y,z
1/2+x,1/2+y,1/2+z
1/2-x,-y,1/2+z
1/2+x,1/2-y,1/2-z
1/2-x,y,1/2-z
1/2-x,1/2-y,1/2-z
1/2+x,y,1/2-z
1/2-x,1/2+y,1/2+z
1/2+x,-y,1/2+z
loop_
_atom_site_type_symbol
_atom_site_label
_atom_site_fract_x
_atom_site_fract_y
_atom_site_fract_z
Si Si1 0.712498 0.065805 0.561225
Si Si2 0.360565 0.066596 0.873843
Si Si3 0.500000 0.932901 0.938588
Si Si4 0.087009 0.432507 0.262802
Si Si5 0.914975 0.565538 0.143421
O O1 0.711601 0.250000 0.557523
O O2 0.784775 0.022552 0.596210
O O3 0.640349 0.017146 0.595329
O O4 0.714985 0.000000 0.500000
O O5 0.367531 0.250000 0.875404
O O6 0.428247 0.992100 0.906619
O O7 0.366480 0.009906 0.811098
O O8 0.500000 0.750000 0.940077
O O9 0.500000 0.000000 0.000000
O O10 0.094670 0.250000 0.265298
O O11 0.106094 0.493312 0.202148
O O12 0.000000 0.469515 0.271966
O O13 0.911099 0.750000 0.148536
O O14 0.000000 0.524120 0.131877
#
# Coordination Sequence:
#
# PCOD9538001 Si02
#       5
#    16  16   8  16  16
#     4  10  23  40  58  84 115 150 194 241 287 344
#     4  11  22  37  58  83 115 155 193 234 288 341
#     4  12  24  38  56  82 114 152 199 240 279 338
#     4  10  20  35  57  87 119 149 190 240 286 339
#     4   9  19  38  62  85 113 151 192 235 288 348
#
# _framework density 18.697772000000001
#
# number of rings (size 3 to 8) (size 9 to 14) (size 15 to 20)
#    0.000    1.778    1.111    3.000    0.000    6.667 
#    0.000    4.444    0.000    0.000    0.000    0.000 
#    0.000    0.000    0.000    0.000    0.000    0.000 
#
# Total GULP energy -201177.706427 kJ/mol
# GULP energy per Si atom -5588.269623 kJ/mol
# Density = 1.865521 g / cm^3
# Si number density = 18.697772 Si / 1000 Ang^3
#
#
#
# Elastic Constant Matrix: (Units=GPa)
#
#
# Indices 1 2 3 4 5 6 
#
# 1 125.4009 44.0656 98.9505 0.0000 0.0000 0.0000
# 2 44.0656 46.4653 45.3347 0.0000 0.0000 0.0000
# 3 98.9505 45.3347 154.2910 0.0000 0.0000 0.0000
# 4 0.0000 0.0000 0.0000 37.8577 0.0000 0.0000
# 5 0.0000 0.0000 0.0000 0.0000 16.9927 0.0000
# 6 0.0000 0.0000 0.0000 0.0000 0.0000 7.6846
#
#
#
# Elastic Compliance Matrix: (Units=1/GPa)
#
#
# Indices 1 2 3 4 5 6 
#
# 1 0.018129 -0.008200 -0.009217 0.000000 0.000000 0.000000
# 2 -0.008200 0.033879 -0.004696 0.000000 0.000000 0.000000
# 3 -0.009217 -0.004696 0.013772 0.000000 0.000000 0.000000
# 4 0.000000 0.000000 0.000000 0.026415 0.000000 0.000000
# 5 0.000000 0.000000 0.000000 0.000000 0.058849 0.000000
# 6 0.000000 0.000000 0.000000 0.000000 0.000000 0.130130
#
#
# Mechanical properties :
#
#
# Convention : Reuss Voigt Hill
#
# Bulk Modulus (GPa) = 46.39343 78.09543 62.24443
# Shear Modulus (GPa) = 15.03377 21.69410 18.36393
#
# Velocity S-wave (km/s) = 2.83864 3.40994 3.13732
# Velocity P-wave (km/s) = 5.96741 7.57374 6.81804
#
# Compressibility (1/GPa) = 0.02155477
#
# Stress axis : x y z
#
# Youngs Moduli (GPa) = 55.16095 29.51653 72.60979
#
# Poissons Ratio (x) = 0.24202 0.66926
# Poissons Ratio (y) = 0.45230 0.34098
# Poissons Ratio (z) = 0.50843 0.13861
#
# Static dielectric constant tensor:
#      x y z
#    x 1.643340 0.000000 0.000000 
#    y 0.000000 1.627000 0.000000 
#    z 0.000000 0.000000 1.616740 
# 
# From -- ./inp_files/56667.got.cif
#   From: 2010.05.17/outbox.cif.g08.bks.cpg/sg74_29_cif.got.tgz:56667.got - 2010.06.03 17:57:02.
