data_PCOD9538320
_publ_section_title
;
Structure prediction by ZEFSAII (Michael W. Deem and Ramdas Pophale) SiO2 
 PCOD9538320
Probable space group: I M M A
;
_chemical_formula_sum "Si O2"
_cell_formula_units_Z 56
_cell_length_a 15.531793
_cell_length_b 27.497545
_cell_length_c 5.202839
_cell_angle_alpha 90.000000
_cell_angle_beta 90.000000
_cell_angle_gamma 90.000000
_cell_volume 2222.060618
_symmetry_space_group_name_H-M "I M M A"
_symmetry_group_IT_number 74
_symmetry_cell_setting 'orthorhombic'
loop_
_space_group_symop_operation_xyz
x,y,z
-x,1/2-y,z
x,-y,-z
-x,1/2+y,-z
-x,-y,-z
x,1/2+y,-z
-x,y,z
x,1/2-y,z
1/2+x,1/2+y,1/2+z
1/2-x,-y,1/2+z
1/2+x,1/2-y,1/2-z
1/2-x,y,1/2-z
1/2-x,1/2-y,1/2-z
1/2+x,y,1/2-z
1/2-x,1/2+y,1/2+z
1/2+x,-y,1/2+z
loop_
_atom_site_type_symbol
_atom_site_label
_atom_site_fract_x
_atom_site_fract_y
_atom_site_fract_z
Si Si1 0.325369 0.942829 0.062949
Si Si2 0.000000 0.533561 0.246802
Si Si3 0.603877 0.866409 0.711883
Si Si4 0.603886 0.694819 0.225330
O O1 0.250000 0.926940 0.250000
O O2 0.413427 0.936464 0.226669
O O3 0.345278 0.914358 0.800920
O O4 0.313110 0.000000 0.000000
O O5 0.000000 0.500000 0.500000
O O6 0.000000 0.500000 0.000000
O O7 0.500000 0.876801 0.698010
O O8 0.618520 0.829812 0.951138
O O9 0.634792 0.838609 0.459125
O O10 0.500000 0.696993 0.257488
O O11 0.636492 0.750000 0.237694
#
# Coordination Sequence:
#
# PCOD9538320 Si02
#       4
#    16   8  16  16
#     4  11  24  42  63  93 129 172 215 262 316 376
#     4  10  22  40  62  86 117 160 209 258 304 364
#     4  10  20  36  60  91 123 163 206 256 313 370
#     4   9  18  34  60  92 124 159 205 256 314 379
#
# _framework density 25.201834000000002
#
# number of rings (size 3 to 8) (size 9 to 14) (size 15 to 20)
#    0.000    2.000    1.429    1.714    0.000   10.286 
#    0.000    0.000    0.000    5.143    0.000    0.000 
#    0.000    0.000    0.000    0.000    0.000    0.000 
#
# Total GULP energy -157058.186928 kJ/mol
# GULP energy per Si atom -5609.220962 kJ/mol
# Density = 2.514447 g / cm^3
# Si number density = 25.201834 Si / 1000 Ang^3
#
#
#
# Elastic Constant Matrix: (Units=GPa)
#
#
# Indices 1 2 3 4 5 6 
#
# 1 115.8078 8.2178 27.3415 0.0426 0.0002 0.0040
# 2 8.2178 173.7576 49.8081 0.0869 0.0344 0.0112
# 3 27.3415 49.8081 137.0563 0.2006 0.1033 0.0640
# 4 0.0426 0.0869 0.2006 36.7737 0.0150 0.0019
# 5 0.0002 0.0344 0.1033 0.0150 27.4866 -0.0031
# 6 0.0040 0.0112 0.0640 0.0019 -0.0031 -3.0286
#
#
#
# Elastic Compliance Matrix: (Units=1/GPa)
#
#
# Indices 1 2 3 4 5 6 
#
# 1 0.009063 0.000100 -0.001844 -0.000001 0.000007 -0.000027
# 2 0.000100 0.006425 -0.002355 -0.000002 0.000001 -0.000026
# 3 -0.001844 -0.002355 0.008520 -0.000039 -0.000029 0.000169
# 4 -0.000001 -0.000002 -0.000039 0.027194 -0.000015 0.000016
# 5 0.000007 0.000001 -0.000029 -0.000015 0.036381 -0.000037
# 6 -0.000027 -0.000026 0.000169 0.000016 -0.000037 -0.330183
#
#
# Mechanical properties :
#
#
# Convention : Reuss Voigt Hill
#
# Bulk Modulus (GPa) = 63.25068 66.37293 64.81180
# Shear Modulus (GPa) = -21.82167 34.99663 6.58748
#
# Velocity S-wave (km/s) = -2.94577 3.73051 1.61851
# Velocity P-wave (km/s) = 3.68538 6.70442 5.40978
#
# Compressibility (1/GPa) = 0.01581011
#
# Stress axis : x y z
#
# Youngs Moduli (GPa) = 110.33446 155.62991 117.36984
#
# Poissons Ratio (x) = -0.01557 0.21648
# Poissons Ratio (y) = -0.01104 0.27641
# Poissons Ratio (z) = 0.20350 0.36652
#
# Static dielectric constant tensor:
#      x y z
#    x 2.032080 -0.000020 -0.000040 
#    y -0.000020 1.963230 -0.000370 
#    z -0.000040 -0.000370 1.907740 
# 
# From -- ./inp_files/1487.got.cif
#   From: 2010.05.17/outbox.cif.g08.bks.cpg/sg74_1_cif.got.tgz:1487.got - 2010.06.03 17:57:02.
