data_PCOD9538000
_publ_section_title
;
Structure prediction by ZEFSAII (Michael W. Deem and Ramdas Pophale) SiO2 
 PCOD9538000
Probable space group: I M M A
;
_chemical_formula_sum "Si O2"
_cell_formula_units_Z 80
_cell_length_a 24.787011
_cell_length_b 23.336620
_cell_length_c 6.133825
_cell_angle_alpha 90.000000
_cell_angle_beta 90.000000
_cell_angle_gamma 90.000000
_cell_volume 3548.080750
_symmetry_space_group_name_H-M "I M M A"
_symmetry_group_IT_number 74
_symmetry_cell_setting 'orthorhombic'
loop_
_space_group_symop_operation_xyz
x,y,z
-x,1/2-y,z
x,-y,-z
-x,1/2+y,-z
-x,-y,-z
x,1/2+y,-z
-x,y,z
x,1/2-y,z
1/2+x,1/2+y,1/2+z
1/2-x,-y,1/2+z
1/2+x,1/2-y,1/2-z
1/2-x,y,1/2-z
1/2-x,1/2-y,1/2-z
1/2+x,y,1/2-z
1/2-x,1/2+y,1/2+z
1/2+x,-y,1/2+z
loop_
_atom_site_type_symbol
_atom_site_label
_atom_site_fract_x
_atom_site_fract_y
_atom_site_fract_z
Si Si1 0.612860 0.623253 0.366458
Si Si2 0.337527 0.510052 0.237444
Si Si3 0.588572 0.186956 0.021862
Si Si4 0.558362 0.429483 0.258241
Si Si5 0.309171 0.184235 0.297236
O O1 0.644510 0.576050 0.228339
O O2 0.566570 0.588866 0.491619
O O3 0.656513 0.648136 0.533027
O O4 0.587226 0.674682 0.232722
O O5 0.319873 0.500000 0.500000
O O6 0.390586 0.469908 0.217100
O O7 0.307476 0.500000 0.000000
O O8 0.567881 0.250000 0.083742
O O9 0.562720 0.131296 0.132712
O O10 0.651843 0.185942 0.088542
O O11 0.500000 0.455734 0.217446
O O12 0.302485 0.250000 0.375267
O O13 0.250000 0.160509 0.250000
#
# Coordination Sequence:
#
# PCOD9538000 Si02
#       5
#    16  16  16  16  16
#     4  10  20  35  57  87 117 157 198 261 317 373
#     4  10  20  37  60  90 116 159 207 258 309 364
#     4  10  20  36  57  84 118 158 200 249 313 376
#     4  10  22  38  56  84 118 160 208 258 309 366
#     4   9  19  36  59  89 120 153 200 255 314 380
#
# _framework density 22.547398999999999
#
# number of rings (size 3 to 8) (size 9 to 14) (size 15 to 20)
#    0.000    2.200    2.000    0.600    0.000    6.800 
#    0.000    3.000    0.000    0.000  104.000    0.000 
#    0.000    0.000    0.000    0.000    0.000    0.000 
#
# Total GULP energy -222741.738918 kJ/mol
# GULP energy per Si atom -5568.543473 kJ/mol
# Density = 2.249608 g / cm^3
# Si number density = 22.547399 Si / 1000 Ang^3
#
#
#
# Elastic Constant Matrix: (Units=GPa)
#
#
# Indices 1 2 3 4 5 6 
#
# 1 84.0267 -1.6140 6.1564 0.0000 0.0000 0.0000
# 2 -1.6140 87.0844 13.0689 0.0000 0.0000 0.0000
# 3 6.1564 13.0689 99.6171 0.0000 0.0000 0.0000
# 4 0.0000 0.0000 0.0000 41.0637 0.0000 0.0000
# 5 0.0000 0.0000 0.0000 0.0000 -8.9210 0.0000
# 6 0.0000 0.0000 0.0000 0.0000 0.0000 19.2654
#
#
#
# Elastic Compliance Matrix: (Units=1/GPa)
#
#
# Indices 1 2 3 4 5 6 
#
# 1 0.011965 0.000339 -0.000784 0.000000 0.000000 0.000000
# 2 0.000339 0.011723 -0.001559 0.000000 0.000000 0.000000
# 3 -0.000784 -0.001559 0.010291 0.000000 0.000000 0.000000
# 4 0.000000 0.000000 0.000000 0.024352 0.000000 0.000000
# 5 0.000000 0.000000 0.000000 0.000000 -0.112095 0.000000
# 6 0.000000 0.000000 0.000000 0.000000 0.000000 0.051906
#
#
# Mechanical properties :
#
#
# Convention : Reuss Voigt Hill
#
# Bulk Modulus (GPa) = 33.36375 33.99451 33.67913
# Shear Modulus (GPa) = 411.79808 27.15607 219.47708
#
# Velocity S-wave (km/s) = 13.52897 3.47421 9.87682
# Velocity P-wave (km/s) = 16.08954 5.58598 12.04318
#
# Compressibility (1/GPa) = 0.02997265
#
# Stress axis : x y z
#
# Youngs Moduli (GPa) = 83.57749 85.29976 97.16836
#
# Poissons Ratio (x) = -0.02895 0.07618
# Poissons Ratio (y) = -0.02837 0.15148
# Poissons Ratio (z) = 0.06552 0.13298
#
# Static dielectric constant tensor:
#      x y z
#    x 1.828120 0.000000 0.000000 
#    y 0.000000 1.844860 0.000000 
#    z 0.000000 0.000000 1.952350 
# 
# From -- ./inp_files/4526.got.cif
#   From: 2010.05.17/outbox.cif.g08.bks.cpg/sg74_3_cif.got.tgz:4526.got - 2010.06.03 17:57:02.
