data_PCOD9538989
_publ_section_title
;
Structure prediction by ZEFSAII (Michael W. Deem and Ramdas Pophale) SiO2 
 PCOD9538989
Probable space group: I M M A
;
_chemical_formula_sum "Si O2"
_cell_formula_units_Z 96
_cell_length_a 8.470645
_cell_length_b 20.760764
_cell_length_c 28.827441
_cell_angle_alpha 90.000000
_cell_angle_beta 90.000000
_cell_angle_gamma 90.000000
_cell_volume 5069.509073
_symmetry_space_group_name_H-M "I M M A"
_symmetry_group_IT_number 74
_symmetry_cell_setting 'orthorhombic'
loop_
_space_group_symop_operation_xyz
x,y,z
-x,1/2-y,z
x,-y,-z
-x,1/2+y,-z
-x,-y,-z
x,1/2+y,-z
-x,y,z
x,1/2-y,z
1/2+x,1/2+y,1/2+z
1/2-x,-y,1/2+z
1/2+x,1/2-y,1/2-z
1/2-x,y,1/2-z
1/2-x,1/2-y,1/2-z
1/2+x,y,1/2-z
1/2-x,1/2+y,1/2+z
1/2+x,-y,1/2+z
loop_
_atom_site_type_symbol
_atom_site_label
_atom_site_fract_x
_atom_site_fract_y
_atom_site_fract_z
Si Si1 0.809151 0.676290 0.039171
Si Si2 0.309170 0.437296 0.365256
Si Si3 0.310870 0.824197 0.801261
Si Si4 0.188968 0.676049 0.358089
Si Si5 0.311066 0.056543 0.698174
Si Si6 0.807174 0.563134 0.971641
O O1 0.761113 0.750000 0.029346
O O2 0.745744 0.658622 0.090025
O O3 0.000000 0.674336 0.041329
O O4 0.756985 0.626348 0.999980
O O5 0.500000 0.438470 0.365787
O O6 0.254859 0.373380 0.338852
O O7 0.255041 0.499556 0.336088
O O8 0.253854 0.438604 0.418460
O O9 0.500000 0.826652 0.801164
O O10 0.261335 0.750000 0.809941
O O11 0.250000 0.842269 0.750000
O O12 0.241264 0.750000 0.349235
O O13 0.255411 0.624778 0.322037
O O14 0.000000 0.674666 0.356683
O O15 0.500000 0.055420 0.698747
O O16 0.250000 0.046023 0.750000
O O17 0.000000 0.563226 0.970961
O O18 0.757751 0.500000 0.000000
#
# Coordination Sequence:
#
# PCOD9538989 Si02
#       6
#    16  16  16  16  16  16
#     4   9  17  31  53  79 106 139 178 218 262 313
#     4  10  21  36  57  84 111 142 181 225 271 319
#     4  10  21  37  57  81 110 145 183 223 269 321
#     4  10  21  37  57  81 109 142 180 222 269 321
#     4  11  23  38  57  81 109 142 180 223 272 325
#     4   9  17  31  52  78 107 138 176 221 265 313
#
# _framework density 18.936745999999999
#
# number of rings (size 3 to 8) (size 9 to 14) (size 15 to 20)
#    0.000    2.167    0.000    3.000    0.000    8.333 
#    0.000    2.500    0.000    4.000    0.000    0.000 
#    0.000    0.000    0.000    0.000    0.000    0.000 
#
# Total GULP energy -268077.773565 kJ/mol
# GULP energy per Si atom -5584.953616 kJ/mol
# Density = 1.889364 g / cm^3
# Si number density = 18.936746 Si / 1000 Ang^3
#
#
#
# Elastic Constant Matrix: (Units=GPa)
#
#
# Indices 1 2 3 4 5 6 
#
# 1 13.7682 11.5875 15.4647 0.0000 0.0000 0.0000
# 2 11.5875 75.3921 57.1407 0.0000 0.0000 0.0000
# 3 15.4647 57.1407 108.1798 0.0000 0.0000 0.0000
# 4 0.0000 0.0000 0.0000 42.1121 0.0000 0.0000
# 5 0.0000 0.0000 0.0000 0.0000 27.0726 0.0000
# 6 0.0000 0.0000 0.0000 0.0000 0.0000 21.9924
#
#
#
# Elastic Compliance Matrix: (Units=1/GPa)
#
#
# Indices 1 2 3 4 5 6 
#
# 1 0.088504 -0.006693 -0.009117 0.000000 0.000000 0.000000
# 2 -0.006693 0.022625 -0.010994 0.000000 0.000000 0.000000
# 3 -0.009117 -0.010994 0.016354 0.000000 0.000000 0.000000
# 4 0.000000 0.000000 0.000000 0.023746 0.000000 0.000000
# 5 0.000000 0.000000 0.000000 0.000000 0.036938 0.000000
# 6 0.000000 0.000000 0.000000 0.000000 0.000000 0.045470
#
#
# Mechanical properties :
#
#
# Convention : Reuss Voigt Hill
#
# Bulk Modulus (GPa) = 13.53618 40.63620 27.08619
# Shear Modulus (GPa) = 16.03234 25.77857 20.90545
#
# Velocity S-wave (km/s) = 2.91284 3.69358 3.32620
# Velocity P-wave (km/s) = 4.29843 6.30044 5.39314
#
# Compressibility (1/GPa) = 0.07387610
#
# Stress axis : x y z
#
# Youngs Moduli (GPa) = 11.29891 44.19888 61.14698
#
# Poissons Ratio (x) = 0.29583 0.55745
# Poissons Ratio (y) = 0.07563 0.67223
# Poissons Ratio (z) = 0.10301 0.48591
#
# Static dielectric constant tensor:
#      x y z
#    x 1.652090 0.000000 0.000000 
#    y 0.000000 1.654880 0.000000 
#    z 0.000000 0.000000 1.622440 
# 
# From -- ./inp_files/64264.got.cif
#   From: 2010.05.17/outbox.cif.g08.bks.cpg/sg74_33_cif.got.tgz:64264.got - 2010.06.03 17:57:02.
