data_PCOD9538799
_publ_section_title
;
Structure prediction by ZEFSAII (Michael W. Deem and Ramdas Pophale) SiO2 
 PCOD9538799
Probable space group: I M M A
;
_chemical_formula_sum "Si O2"
_cell_formula_units_Z 80
_cell_length_a 7.538325
_cell_length_b 14.707223
_cell_length_c 34.370788
_cell_angle_alpha 90.000000
_cell_angle_beta 90.000000
_cell_angle_gamma 90.000000
_cell_volume 3810.614572
_symmetry_space_group_name_H-M "I M M A"
_symmetry_group_IT_number 74
_symmetry_cell_setting 'orthorhombic'
loop_
_space_group_symop_operation_xyz
x,y,z
-x,1/2-y,z
x,-y,-z
-x,1/2+y,-z
-x,-y,-z
x,1/2+y,-z
-x,y,z
x,1/2-y,z
1/2+x,1/2+y,1/2+z
1/2-x,-y,1/2+z
1/2+x,1/2-y,1/2-z
1/2-x,y,1/2-z
1/2-x,1/2-y,1/2-z
1/2+x,y,1/2-z
1/2-x,1/2+y,1/2+z
1/2+x,-y,1/2+z
loop_
_atom_site_type_symbol
_atom_site_label
_atom_site_fract_x
_atom_site_fract_y
_atom_site_fract_z
Si Si1 0.787490 0.846724 0.703736
Si Si2 0.287517 0.150321 0.868355
Si Si3 0.786844 0.954551 0.295500
Si Si4 0.716838 0.353748 0.482941
Si Si5 0.788291 0.532366 0.057960
O O1 0.718786 0.750000 0.687784
O O2 0.750000 0.845450 0.750000
O O3 0.000000 0.846606 0.698245
O O4 0.719089 0.945380 0.691456
O O5 0.500000 0.156723 0.865886
O O6 0.218564 0.250000 0.879781
O O7 0.220943 0.119504 0.826003
O O8 0.251284 0.074173 0.900398
O O9 0.750000 0.938827 0.250000
O O10 0.000000 0.957509 0.298427
O O11 0.500000 0.350668 0.482677
O O12 0.777918 0.250000 0.477735
O O13 0.773280 0.397707 0.524271
O O14 0.774454 0.430027 0.451560
O O15 0.000000 0.529010 0.053836
#
# Coordination Sequence:
#
# PCOD9538799 Si02
#       5
#    16  16  16  16  16
#     4   8  13  23  41  62  81 103 134 174 220 269
#     4  10  21  35  48  65  95 130 158 194 248 295
#     4   9  18  32  48  66  89 118 154 195 238 283
#     4   8  14  27  49  76 104 129 154 192 238 275
#     4   9  17  30  51  76  97 124 164 199 227 273
#
# _framework density 20.99399
#
# number of rings (size 3 to 8) (size 9 to 14) (size 15 to 20)
#    0.000    3.200    0.000    1.800    0.000    2.400 
#    0.000    3.000    0.000    3.000    0.000    5.600 
#    0.000    0.000    0.000    0.000    0.000    0.000 
#
# Total GULP energy -222795.283997 kJ/mol
# GULP energy per Si atom -5569.882100 kJ/mol
# Density = 2.094621 g / cm^3
# Si number density = 20.993990 Si / 1000 Ang^3
#
#
#
# Elastic Constant Matrix: (Units=GPa)
#
#
# Indices 1 2 3 4 5 6 
#
# 1 50.8961 10.5100 -1.2983 0.0000 0.0000 0.0000
# 2 10.5100 175.3225 72.8061 0.0000 0.0000 0.0000
# 3 -1.2983 72.8061 97.4013 0.0000 0.0000 0.0000
# 4 0.0000 0.0000 0.0000 20.1526 0.0000 0.0000
# 5 0.0000 0.0000 0.0000 0.0000 -12.3521 0.0000
# 6 0.0000 0.0000 0.0000 0.0000 0.0000 8.7242
#
#
#
# Elastic Compliance Matrix: (Units=1/GPa)
#
#
# Indices 1 2 3 4 5 6 
#
# 1 0.020085 -0.001907 0.001693 0.000000 0.000000 0.000000
# 2 -0.001907 0.008452 -0.006343 0.000000 0.000000 0.000000
# 3 0.001693 -0.006343 0.015031 0.000000 0.000000 0.000000
# 4 0.000000 0.000000 0.000000 0.049621 0.000000 0.000000
# 5 0.000000 0.000000 0.000000 0.000000 -0.080958 0.000000
# 6 0.000000 0.000000 0.000000 0.000000 0.000000 0.114623
#
#
# Mechanical properties :
#
#
# Convention : Reuss Voigt Hill
#
# Bulk Modulus (GPa) = 32.83682 54.18396 43.51039
# Shear Modulus (GPa) = 33.30656 19.41175 26.35916
#
# Velocity S-wave (km/s) = 3.98739 3.04408 3.54723
# Velocity P-wave (km/s) = 6.07240 6.18227 6.12758
#
# Compressibility (1/GPa) = 0.03045362
#
# Stress axis : x y z
#
# Youngs Moduli (GPa) = 49.78867 118.31039 66.52912
#
# Poissons Ratio (x) = 0.22564 -0.11266
# Poissons Ratio (y) = 0.09496 0.42202
# Poissons Ratio (z) = -0.08431 0.75049
#
# Static dielectric constant tensor:
#      x y z
#    x 1.749820 0.000000 0.000000 
#    y 0.000000 1.827530 0.000000 
#    z 0.000000 0.000000 1.696120 
# 
# From -- ./inp_files/71688.got.cif
#   From: 2010.05.17/outbox.cif.g08.bks.cpg/sg74_36_cif.got.tgz:71688.got - 2010.06.03 17:57:02.
