data_PCOD9538908
_publ_section_title
;
Structure prediction by ZEFSAII (Michael W. Deem and Ramdas Pophale) SiO2 
 PCOD9538908
Probable space group: I M M A
;
_chemical_formula_sum "Si O2"
_cell_formula_units_Z 64
_cell_length_a 14.236787
_cell_length_b 20.212593
_cell_length_c 10.343718
_cell_angle_alpha 90.000000
_cell_angle_beta 90.000000
_cell_angle_gamma 90.000000
_cell_volume 2976.532923
_symmetry_space_group_name_H-M "I M M A"
_symmetry_group_IT_number 74
_symmetry_cell_setting 'orthorhombic'
loop_
_space_group_symop_operation_xyz
x,y,z
-x,1/2-y,z
x,-y,-z
-x,1/2+y,-z
-x,-y,-z
x,1/2+y,-z
-x,y,z
x,1/2-y,z
1/2+x,1/2+y,1/2+z
1/2-x,-y,1/2+z
1/2+x,1/2-y,1/2-z
1/2-x,y,1/2-z
1/2-x,1/2-y,1/2-z
1/2+x,y,1/2-z
1/2-x,1/2+y,1/2+z
1/2+x,-y,1/2+z
loop_
_atom_site_type_symbol
_atom_site_label
_atom_site_fract_x
_atom_site_fract_y
_atom_site_fract_z
Si Si1 0.614416 0.250000 0.520688
Si Si2 0.750000 0.474884 0.250000
Si Si3 0.154222 0.500000 0.500000
Si Si4 0.392736 0.349232 0.031443
Si Si5 0.385826 0.859583 0.685807
Si Si6 0.115379 0.250000 0.682703
O O1 0.500000 0.250000 0.522535
O O2 0.640555 0.313914 0.434910
O O3 0.647964 0.250000 0.668657
O O4 0.789652 0.514681 0.369405
O O5 0.669424 0.428535 0.313342
O O6 0.106893 0.570823 0.526525
O O7 0.500000 0.327304 0.034350
O O8 0.353979 0.312811 0.905079
O O9 0.355950 0.330440 0.173768
O O10 0.500000 0.867492 0.686282
O O11 0.000000 0.250000 0.694011
#
# Coordination Sequence:
#
# PCOD9538908 Si02
#       6
#     8   8   8  16  16   8
#     4   9  17  30  51  81 113 142 174 219 275 329
#     4  10  22  37  54  77 106 140 184 230 268 320
#     4  10  21  36  53  74 108 144 180 224 270 320
#     4   9  17  32  55  80 105 140 184 226 268 317
#     4   9  18  34  55  77 105 142 180 218 267 325
#     4   9  17  29  51  84 114 138 176 228 274 318
#
# _framework density 21.501526999999999
#
# number of rings (size 3 to 8) (size 9 to 14) (size 15 to 20)
#    0.000    2.750    0.000    1.125    0.000    6.500 
#    0.000    1.875    0.000    6.750    0.000    0.000 
#    0.000    0.000    0.000    0.000    0.000    0.000 
#
# Total GULP energy -178254.813832 kJ/mol
# GULP energy per Si atom -5570.462932 kJ/mol
# Density = 2.145259 g / cm^3
# Si number density = 21.501527 Si / 1000 Ang^3
#
#
#
# Elastic Constant Matrix: (Units=GPa)
#
#
# Indices 1 2 3 4 5 6 
#
# 1 50.1412 1.1226 18.3465 0.0000 0.0000 0.0000
# 2 1.1226 81.7025 40.6117 0.0000 0.0000 0.0000
# 3 18.3465 40.6117 193.3082 0.0000 0.0000 0.0000
# 4 0.0000 0.0000 0.0000 28.7966 0.0000 0.0000
# 5 0.0000 0.0000 0.0000 0.0000 26.1661 0.0000
# 6 0.0000 0.0000 0.0000 0.0000 0.0000 19.7482
#
#
#
# Elastic Compliance Matrix: (Units=1/GPa)
#
#
# Indices 1 2 3 4 5 6 
#
# 1 0.020705 0.000773 -0.002127 0.000000 0.000000 0.000000
# 2 0.000773 0.013696 -0.002951 0.000000 0.000000 0.000000
# 3 -0.002127 -0.002951 0.005995 0.000000 0.000000 0.000000
# 4 0.000000 0.000000 0.000000 0.034726 0.000000 0.000000
# 5 0.000000 0.000000 0.000000 0.000000 0.038217 0.000000
# 6 0.000000 0.000000 0.000000 0.000000 0.000000 0.050638
#
#
# Mechanical properties :
#
#
# Convention : Reuss Voigt Hill
#
# Bulk Modulus (GPa) = 31.46127 49.47927 40.47027
# Shear Modulus (GPa) = 27.29530 32.61359 29.95445
#
# Velocity S-wave (km/s) = 3.56681 3.89884 3.73652
# Velocity P-wave (km/s) = 5.62377 6.58254 6.12195
#
# Compressibility (1/GPa) = 0.03178511
#
# Stress axis : x y z
#
# Youngs Moduli (GPa) = 48.29797 73.01631 166.80863
#
# Poissons Ratio (x) = -0.05644 0.35488
# Poissons Ratio (y) = -0.03734 0.49219
# Poissons Ratio (z) = 0.10275 0.21544
#
# Static dielectric constant tensor:
#      x y z
#    x 1.831040 0.000000 0.000000 
#    y 0.000000 1.784950 0.000000 
#    z 0.000000 0.000000 1.785990 
# 
# From -- ./inp_files/10354.got.cif
#   From: 2010.05.17/outbox.cif.g08.bks.cpg/sg74_6_cif.got.tgz:10354.got - 2010.06.03 17:57:02.
