data_PCOD9538403
_publ_section_title
;
Structure prediction by ZEFSAII (Michael W. Deem and Ramdas Pophale) SiO2 
 PCOD9538403
Probable space group: I M M A
;
_chemical_formula_sum "Si O2"
_cell_formula_units_Z 104
_cell_length_a 21.194853
_cell_length_b 8.605687
_cell_length_c 30.564562
_cell_angle_alpha 90.000000
_cell_angle_beta 90.000000
_cell_angle_gamma 90.000000
_cell_volume 5574.862131
_symmetry_space_group_name_H-M "I M M A"
_symmetry_group_IT_number 74
_symmetry_cell_setting 'orthorhombic'
loop_
_space_group_symop_operation_xyz
x,y,z
-x,1/2-y,z
x,-y,-z
-x,1/2+y,-z
-x,-y,-z
x,1/2+y,-z
-x,y,z
x,1/2-y,z
1/2+x,1/2+y,1/2+z
1/2-x,-y,1/2+z
1/2+x,1/2-y,1/2-z
1/2-x,y,1/2-z
1/2-x,1/2-y,1/2-z
1/2+x,y,1/2-z
1/2-x,1/2+y,1/2+z
1/2+x,-y,1/2+z
loop_
_atom_site_type_symbol
_atom_site_label
_atom_site_fract_x
_atom_site_fract_y
_atom_site_fract_z
Si Si1 0.775956 0.935976 0.126552
Si Si2 0.076063 0.429442 0.546254
Si Si3 0.639130 0.436539 0.450447
Si Si4 0.000000 0.563004 0.950698
Si Si5 0.312106 0.939358 0.277334
Si Si6 0.071586 0.438055 0.718158
Si Si7 0.864611 0.066878 0.368244
O O1 0.779371 0.750000 0.124090
O O2 0.808034 0.988094 0.172211
O O3 0.809360 0.004831 0.083833
O O4 0.703565 0.986858 0.130616
O O5 0.096840 0.500000 0.500000
O O6 0.096305 0.250000 0.550483
O O7 0.101997 0.528369 0.586143
O O8 0.000000 0.432576 0.547194
O O9 0.647465 0.500000 0.500000
O O10 0.641146 0.250000 0.452705
O O11 0.568816 0.485716 0.433309
O O12 0.000000 0.750000 0.950937
O O13 0.000000 0.500000 0.000000
O O14 0.311052 0.750000 0.276921
O O15 0.250000 0.989646 0.250000
O O16 0.375774 0.989697 0.253049
O O17 0.072464 0.250000 0.717133
O O18 0.094037 0.498219 0.671131
O O19 0.000000 0.487820 0.727806
O O20 0.857198 0.250000 0.362302
#
# Coordination Sequence:
#
# PCOD9538403 Si02
#       7
#    16  16  16   8  16  16  16
#     4  11  22  38  60  85 115 152 194 239 289 343
#     4  10  21  38  59  83 113 149 188 232 284 338
#     4  10  20  37  59  86 118 153 194 238 289 345
#     4   8  16  32  56  80 110 150 188 230 280 338
#     4   9  17  35  61  85 112 149 191 237 286 339
#     4  10  20  37  62  88 114 148 192 240 288 342
#     4  12  24  37  56  83 115 151 193 237 285 343
#
# _framework density 18.655169999999998
#
# number of rings (size 3 to 8) (size 9 to 14) (size 15 to 20)
#    0.000    1.846    1.538    3.231    0.000    4.308 
#    1.385    5.385    0.000    0.000    0.000    0.000 
#    0.000    0.000    0.000    0.000    0.000    0.000 
#
# Total GULP energy -290243.120591 kJ/mol
# GULP energy per Si atom -5581.598473 kJ/mol
# Density = 1.861271 g / cm^3
# Si number density = 18.655170 Si / 1000 Ang^3
#
#
#
# Elastic Constant Matrix: (Units=GPa)
#
#
# Indices 1 2 3 4 5 6 
#
# 1 115.2419 26.1736 60.9130 0.0000 0.0000 0.0000
# 2 26.1736 38.0955 21.7749 0.0000 0.0000 0.0000
# 3 60.9130 21.7749 119.1623 0.0000 0.0000 0.0000
# 4 0.0000 0.0000 0.0000 22.1128 0.0000 0.0000
# 5 0.0000 0.0000 0.0000 0.0000 40.6778 0.0000
# 6 0.0000 0.0000 0.0000 0.0000 0.0000 15.7142
#
#
#
# Elastic Compliance Matrix: (Units=1/GPa)
#
#
# Indices 1 2 3 4 5 6 
#
# 1 0.012908 -0.005691 -0.005558 0.000000 0.000000 0.000000
# 2 -0.005691 0.031821 -0.002905 0.000000 0.000000 0.000000
# 3 -0.005558 -0.002905 0.011764 0.000000 0.000000 0.000000
# 4 0.000000 0.000000 0.000000 0.045223 0.000000 0.000000
# 5 0.000000 0.000000 0.000000 0.000000 0.024583 0.000000
# 6 0.000000 0.000000 0.000000 0.000000 0.000000 0.063637
#
#
# Mechanical properties :
#
#
# Convention : Reuss Voigt Hill
#
# Bulk Modulus (GPa) = 35.48272 54.46920 44.97596
# Shear Modulus (GPa) = 21.96450 26.61017 24.28734
#
# Velocity S-wave (km/s) = 3.43504 3.78090 3.61211
# Velocity P-wave (km/s) = 5.89867 6.95137 6.44654
#
# Compressibility (1/GPa) = 0.02818273
#
# Stress axis : x y z
#
# Youngs Moduli (GPa) = 77.47190 31.42595 85.00476
#
# Poissons Ratio (x) = 0.17886 0.47247
# Poissons Ratio (y) = 0.44093 0.24697
# Poissons Ratio (z) = 0.43060 0.09130
#
# Static dielectric constant tensor:
#      x y z
#    x 1.655520 0.000000 0.000000 
#    y 0.000000 1.642180 0.000000 
#    z 0.000000 0.000000 1.615350 
# 
# From -- ./inp_files/73348.got.cif
#   From: 2010.05.17/outbox.cif.g08.bks.cpg/sg74_37_cif.got.tgz:73348.got - 2010.06.03 17:57:02.
