data_PCOD9538922
_publ_section_title
;
Structure prediction by ZEFSAII (Michael W. Deem and Ramdas Pophale) SiO2 
 PCOD9538922
Probable space group: I M M A
;
_chemical_formula_sum "Si O2"
_cell_formula_units_Z 80
_cell_length_a 20.207942
_cell_length_b 16.720947
_cell_length_c 12.974676
_cell_angle_alpha 90.000000
_cell_angle_beta 90.000000
_cell_angle_gamma 90.000000
_cell_volume 4384.090177
_symmetry_space_group_name_H-M "I M M A"
_symmetry_group_IT_number 74
_symmetry_cell_setting 'orthorhombic'
loop_
_space_group_symop_operation_xyz
x,y,z
-x,1/2-y,z
x,-y,-z
-x,1/2+y,-z
-x,-y,-z
x,1/2+y,-z
-x,y,z
x,1/2-y,z
1/2+x,1/2+y,1/2+z
1/2-x,-y,1/2+z
1/2+x,1/2-y,1/2-z
1/2-x,y,1/2-z
1/2-x,1/2-y,1/2-z
1/2+x,y,1/2-z
1/2-x,1/2+y,1/2+z
1/2+x,-y,1/2+z
loop_
_atom_site_type_symbol
_atom_site_label
_atom_site_fract_x
_atom_site_fract_y
_atom_site_fract_z
Si Si1 0.888680 0.051345 0.402537
Si Si2 0.000000 0.346041 0.295798
Si Si3 0.000000 0.152494 0.053376
Si Si4 0.633063 0.153737 0.562715
Si Si5 0.823536 0.085678 0.721830
Si Si6 0.219631 0.342914 0.510480
O O1 0.824261 0.098431 0.442508
O O2 0.937948 0.114832 0.353614
O O3 0.915477 0.000000 0.500000
O O4 0.867328 0.986178 0.319509
O O5 0.000000 0.250000 0.303791
O O6 0.000000 0.368085 0.174385
O O7 0.000000 0.250000 0.048942
O O8 0.932917 0.125036 0.995572
O O9 0.630704 0.250000 0.564385
O O10 0.641634 0.124334 0.679644
O O11 0.703120 0.132723 0.509082
O O12 0.750000 0.055868 0.750000
O O13 0.808401 0.146172 0.627151
O O14 0.213939 0.250000 0.480621
#
# Coordination Sequence:
#
# PCOD9538922 Si02
#       6
#    16   8   8  16  16  16
#     4  10  21  36  54  78 107 137 174 221 270 319
#     4  11  23  40  57  73 103 144 181 219 264 316
#     4   9  20  36  53  77 106 138 176 217 261 308
#     4   9  17  33  56  80 109 142 179 221 261 311
#     4   9  18  32  53  81 110 137 170 218 270 315
#     4   9  17  32  56  82 105 138 181 220 263 314
#
# _framework density 18.247799000000001
#
# number of rings (size 3 to 8) (size 9 to 14) (size 15 to 20)
#    0.000    2.600    0.000    1.500    0.000    4.800 
#    0.000    5.000    0.000   10.800    0.000    0.000 
#    0.000    0.000    0.000    0.000    0.000    0.000 
#
# Total GULP energy -223020.056761 kJ/mol
# GULP energy per Si atom -5575.501419 kJ/mol
# Density = 1.820627 g / cm^3
# Si number density = 18.247799 Si / 1000 Ang^3
#
#
#
# Elastic Constant Matrix: (Units=GPa)
#
#
# Indices 1 2 3 4 5 6 
#
# 1 141.9257 52.2547 81.7240 0.0000 0.0000 0.0000
# 2 52.2547 49.4347 27.6945 0.0000 0.0000 0.0000
# 3 81.7240 27.6945 92.9376 0.0000 0.0000 0.0000
# 4 0.0000 0.0000 0.0000 24.9889 0.0000 0.0000
# 5 0.0000 0.0000 0.0000 0.0000 0.6535 0.0000
# 6 0.0000 0.0000 0.0000 0.0000 0.0000 -455.9234
#
#
#
# Elastic Compliance Matrix: (Units=1/GPa)
#
#
# Indices 1 2 3 4 5 6 
#
# 1 0.019547 -0.013244 -0.013242 0.000000 0.000000 0.000000
# 2 -0.013244 0.033255 0.001736 0.000000 0.000000 0.000000
# 3 -0.013242 0.001736 0.021887 0.000000 0.000000 0.000000
# 4 0.000000 0.000000 0.000000 0.040018 0.000000 0.000000
# 5 0.000000 0.000000 0.000000 0.000000 1.530147 0.000000
# 6 0.000000 0.000000 0.000000 0.000000 0.000000 -0.002193
#
#
# Mechanical properties :
#
#
# Convention : Reuss Voigt Hill
#
# Bulk Modulus (GPa) = 39.69870 67.51604 53.60737
# Shear Modulus (GPa) = 2.94021 -77.88120 -37.47049
#
# Velocity S-wave (km/s) = 1.27074 -6.54006 -4.53639
# Velocity P-wave (km/s) = 4.89444 4.46655 1.41520
#
# Compressibility (1/GPa) = 0.02518974
#
# Stress axis : x y z
#
# Youngs Moduli (GPa) = 51.15828 30.07037 45.68920
#
# Poissons Ratio (x) = 0.39824 0.60502
# Poissons Ratio (y) = 0.67752 -0.07931
# Poissons Ratio (z) = 0.67745 -0.05220
#
# Static dielectric constant tensor:
#      x y z
#    x 1.624580 0.000000 0.000000 
#    y 0.000000 1.603280 0.000000 
#    z 0.000000 0.000000 1.624710 
# 
# From -- ./inp_files/23602.got.cif
#   From: 2010.05.17/outbox.cif.g08.bks.cpg/sg74_12_cif.got.tgz:23602.got - 2010.06.03 17:57:02.
