data_PCOD9538243
_publ_section_title
;
Structure prediction by ZEFSAII (Michael W. Deem and Ramdas Pophale) SiO2 
 PCOD9538243
Probable space group: I M M A
;
_chemical_formula_sum "Si O2"
_cell_formula_units_Z 112
_cell_length_a 15.499116
_cell_length_b 23.602483
_cell_length_c 14.322212
_cell_angle_alpha 90.000000
_cell_angle_beta 90.000000
_cell_angle_gamma 90.000000
_cell_volume 5239.317534
_symmetry_space_group_name_H-M "I M M A"
_symmetry_group_IT_number 74
_symmetry_cell_setting 'orthorhombic'
loop_
_space_group_symop_operation_xyz
x,y,z
-x,1/2-y,z
x,-y,-z
-x,1/2+y,-z
-x,-y,-z
x,1/2+y,-z
-x,y,z
x,1/2-y,z
1/2+x,1/2+y,1/2+z
1/2-x,-y,1/2+z
1/2+x,1/2-y,1/2-z
1/2-x,y,1/2-z
1/2-x,1/2-y,1/2-z
1/2+x,y,1/2-z
1/2-x,1/2+y,1/2+z
1/2+x,-y,1/2+z
loop_
_atom_site_type_symbol
_atom_site_label
_atom_site_fract_x
_atom_site_fract_y
_atom_site_fract_z
Si Si1 0.326634 0.310523 0.175089
Si Si2 0.092907 0.927888 0.723565
Si Si3 0.273492 0.478416 0.092730
Si Si4 0.744838 0.640237 0.007802
Si Si5 0.099643 0.681869 0.133164
Si Si6 0.091904 0.003107 0.889205
Si Si7 0.897642 0.318180 0.647452
O O1 0.371849 0.250000 0.182270
O O2 0.250000 0.312728 0.250000
O O3 0.385870 0.363823 0.198517
O O4 0.283754 0.316572 0.073578
O O5 0.164934 0.966896 0.677813
O O6 0.091247 0.943967 0.832264
O O7 0.000000 0.942675 0.683571
O O8 0.193167 0.518719 0.120893
O O9 0.320999 0.500000 0.000000
O O10 0.244189 0.417229 0.052211
O O11 0.831768 0.654382 0.063645
O O12 0.666062 0.645378 0.082362
O O13 0.107726 0.750000 0.125547
O O14 0.116131 0.668268 0.242591
O O15 0.000000 0.667204 0.111526
O O16 0.000000 0.031308 0.857811
O O17 0.085761 0.000000 0.000000
O O18 0.880132 0.250000 0.635579
O O19 0.000000 0.326696 0.627219
#
# Coordination Sequence:
#
# PCOD9538243 Si02
#       7
#    16  16  16  16  16  16  16
#     4  10  21  36  54  80 114 151 194 240 283 335
#     4  10  20  36  59  83 112 150 185 226 282 338
#     4  10  22  38  55  78 110 146 185 232 284 334
#     4  11  20  33  56  79 105 148 193 234 281 336
#     4   9  18  33  54  83 118 150 180 222 280 342
#     4   9  18  36  62  85 102 129 176 229 280 334
#     4   9  18  33  54  81 113 146 180 223 276 336
#
# _framework density 21.376829000000001
#
# number of rings (size 3 to 8) (size 9 to 14) (size 15 to 20)
#    0.000    2.286    0.000    4.714    0.000    4.571 
#    0.000    6.429    0.000    7.714    0.000    0.000 
#    0.000    0.000    0.000    0.000    0.000    0.000 
#
# Total GULP energy -311816.595896 kJ/mol
# GULP energy per Si atom -5568.153498 kJ/mol
# Density = 2.132817 g / cm^3
# Si number density = 21.376829 Si / 1000 Ang^3
#
#
#
# Elastic Constant Matrix: (Units=GPa)
#
#
# Indices 1 2 3 4 5 6 
#
# 1 128.1581 15.2241 62.8681 0.0000 0.0000 0.0000
# 2 15.2241 34.9551 23.7636 0.0000 -0.0001 0.0000
# 3 62.8681 23.7636 117.6779 0.0001 -0.0002 0.0000
# 4 0.0000 0.0000 0.0001 22.9832 -0.0001 0.0000
# 5 0.0000 -0.0001 -0.0002 -0.0001 -46.4902 0.0000
# 6 0.0000 0.0000 0.0000 0.0000 0.0000 1.5963
#
#
#
# Elastic Compliance Matrix: (Units=1/GPa)
#
#
# Indices 1 2 3 4 5 6 
#
# 1 0.010598 -0.000889 -0.005482 0.000000 0.000000 0.000000
# 2 -0.000889 0.033235 -0.006237 0.000000 0.000000 0.000000
# 3 -0.005482 -0.006237 0.012686 0.000000 0.000000 0.000000
# 4 0.000000 0.000000 0.000000 0.043510 0.000000 0.000000
# 5 0.000000 0.000000 0.000000 0.000000 -0.021510 0.000000
# 6 0.000000 0.000000 0.000000 0.000000 0.000000 0.626460
#
#
# Mechanical properties :
#
#
# Convention : Reuss Voigt Hill
#
# Bulk Modulus (GPa) = 31.94511 53.83364 42.88938
# Shear Modulus (GPa) = 6.75102 7.54687 7.14895
#
# Velocity S-wave (km/s) = 1.77903 1.88097 1.83071
# Velocity P-wave (km/s) = 4.38135 5.47314 4.95739
#
# Compressibility (1/GPa) = 0.03130369
#
# Stress axis : x y z
#
# Youngs Moduli (GPa) = 94.35947 30.08868 78.82679
#
# Poissons Ratio (x) = 0.02674 0.43215
# Poissons Ratio (y) = 0.08385 0.49162
# Poissons Ratio (z) = 0.51731 0.18765
#
# Static dielectric constant tensor:
#      x y z
#    x 1.818870 0.000000 0.000000 
#    y 0.000000 1.845990 0.000000 
#    z 0.000000 0.000000 1.766330 
# 
# From -- ./inp_files/32929.got.cif
#   From: 2010.05.17/outbox.cif.g08.bks.cpg/sg74_17_cif.got.tgz:32929.got - 2010.06.03 17:57:02.
