data_PCOD9538390
_publ_section_title
;
Structure prediction by ZEFSAII (Michael W. Deem and Ramdas Pophale) SiO2 
 PCOD9538390
Probable space group: I M M A
;
_chemical_formula_sum "Si O2"
_cell_formula_units_Z 64
_cell_length_a 8.282076
_cell_length_b 12.236932
_cell_length_c 29.607169
_cell_angle_alpha 90.000000
_cell_angle_beta 90.000000
_cell_angle_gamma 90.000000
_cell_volume 3000.603703
_symmetry_space_group_name_H-M "I M M A"
_symmetry_group_IT_number 74
_symmetry_cell_setting 'orthorhombic'
loop_
_space_group_symop_operation_xyz
x,y,z
-x,1/2-y,z
x,-y,-z
-x,1/2+y,-z
-x,-y,-z
x,1/2+y,-z
-x,y,z
x,1/2-y,z
1/2+x,1/2+y,1/2+z
1/2-x,-y,1/2+z
1/2+x,1/2-y,1/2-z
1/2-x,y,1/2-z
1/2-x,1/2-y,1/2-z
1/2+x,y,1/2-z
1/2-x,1/2+y,1/2+z
1/2+x,-y,1/2+z
loop_
_atom_site_type_symbol
_atom_site_label
_atom_site_fract_x
_atom_site_fract_y
_atom_site_fract_z
Si Si1 0.176040 0.954586 0.050801
Si Si2 0.500000 0.873481 0.022895
Si Si3 0.805040 0.945898 0.633413
Si Si4 0.306006 0.873269 0.202263
Si Si5 0.193949 0.750000 0.698559
O O1 0.334443 0.878738 0.051222
O O2 0.000000 0.906996 0.061757
O O3 0.217461 0.052068 0.085572
O O4 0.166506 0.000000 0.000000
O O5 0.500000 0.750000 0.999852
O O6 0.500000 0.000000 0.000000
O O7 0.755643 0.853454 0.668736
O O8 0.000000 0.939120 0.626786
O O9 0.760900 0.057743 0.658814
O O10 0.500000 0.870878 0.203428
O O11 0.242249 0.750000 0.200061
O O12 0.250000 0.922979 0.250000
O O13 0.250000 0.750000 0.750000
O O14 0.000000 0.750000 0.699961
#
# Coordination Sequence:
#
# PCOD9538390 Si02
#       5
#    16   8  16  16   8
#     4  10  22  42  65  96 132 174 231 288 346 417
#     4  10  22  44  70 100 136 184 230 292 362 420
#     4  10  20  37  58  88 123 171 221 275 341 419
#     4   9  18  32  52  78 110 148 196 251 310 380
#     4  10  22  38  60  92 134 178 232 290 359 442
#
# _framework density 21.329042000000001
#
# number of rings (size 3 to 8) (size 9 to 14) (size 15 to 20)
#    0.000    2.250    1.250    0.750    0.000    3.500 
#    9.000    0.000    0.000    0.000    0.000    0.000 
#    0.000    0.000    0.000    0.000    0.000    0.000 
#
# Total GULP energy -178212.844847 kJ/mol
# GULP energy per Si atom -5569.151401 kJ/mol
# Density = 2.128050 g / cm^3
# Si number density = 21.329042 Si / 1000 Ang^3
#
#
#
# Elastic Constant Matrix: (Units=GPa)
#
#
# Indices 1 2 3 4 5 6 
#
# 1 104.4794 23.4293 21.0495 0.0000 0.0000 0.0000
# 2 23.4293 85.8893 48.1847 0.0000 0.0000 0.0000
# 3 21.0495 48.1847 160.7529 0.0000 0.0000 0.0000
# 4 0.0000 0.0000 0.0000 19.6364 0.0000 0.0000
# 5 0.0000 0.0000 0.0000 0.0000 24.6622 0.0000
# 6 0.0000 0.0000 0.0000 0.0000 0.0000 -0.4050
#
#
#
# Elastic Compliance Matrix: (Units=1/GPa)
#
#
# Indices 1 2 3 4 5 6 
#
# 1 0.010244 -0.002455 -0.000606 0.000000 0.000000 0.000000
# 2 -0.002455 0.014585 -0.004050 0.000000 0.000000 0.000000
# 3 -0.000606 -0.004050 0.007514 0.000000 0.000000 0.000000
# 4 0.000000 0.000000 0.000000 0.050926 0.000000 0.000000
# 5 0.000000 0.000000 0.000000 0.000000 0.040548 0.000000
# 6 0.000000 0.000000 0.000000 0.000000 0.000000 -2.469083
#
#
# Mechanical properties :
#
#
# Convention : Reuss Voigt Hill
#
# Bulk Modulus (GPa) = 55.18279 59.60539 57.39409
# Shear Modulus (GPa) = -2.15053 26.00926 11.92936
#
# Velocity S-wave (km/s) = -1.00521 3.49582 2.36752
# Velocity P-wave (km/s) = 4.95793 6.65587 5.86863
#
# Compressibility (1/GPa) = 0.01812159
#
# Stress axis : x y z
#
# Youngs Moduli (GPa) = 97.62086 68.56498 133.08367
#
# Poissons Ratio (x) = 0.16830 0.08059
# Poissons Ratio (y) = 0.23962 0.53902
# Poissons Ratio (z) = 0.05912 0.27771
#
# Static dielectric constant tensor:
#      x y z
#    x 1.801130 0.000000 0.000000 
#    y 0.000000 1.826550 0.000000 
#    z 0.000000 0.000000 1.817440 
# 
# From -- ./inp_files/69787.got.cif
#   From: 2010.05.17/outbox.cif.g08.bks.cpg/sg74_35_cif.got.tgz:69787.got - 2010.06.03 17:57:02.
