data_PCOD9538333
_publ_section_title
;
Structure prediction by ZEFSAII (Michael W. Deem and Ramdas Pophale) SiO2 
 PCOD9538333
Probable space group: I M M A
;
_chemical_formula_sum "Si O2"
_cell_formula_units_Z 72
_cell_length_a 18.286707
_cell_length_b 8.298297
_cell_length_c 24.461431
_cell_angle_alpha 90.000000
_cell_angle_beta 90.000000
_cell_angle_gamma 90.000000
_cell_volume 3711.986094
_symmetry_space_group_name_H-M "I M M A"
_symmetry_group_IT_number 74
_symmetry_cell_setting 'orthorhombic'
loop_
_space_group_symop_operation_xyz
x,y,z
-x,1/2-y,z
x,-y,-z
-x,1/2+y,-z
-x,-y,-z
x,1/2+y,-z
-x,y,z
x,1/2-y,z
1/2+x,1/2+y,1/2+z
1/2-x,-y,1/2+z
1/2+x,1/2-y,1/2-z
1/2-x,y,1/2-z
1/2-x,1/2-y,1/2-z
1/2+x,y,1/2-z
1/2-x,1/2+y,1/2+z
1/2+x,-y,1/2+z
loop_
_atom_site_type_symbol
_atom_site_label
_atom_site_fract_x
_atom_site_fract_y
_atom_site_fract_z
Si Si1 0.583308 0.944071 0.855713
Si Si2 0.164821 0.944579 0.247128
Si Si3 0.000000 0.944655 0.061834
Si Si4 0.208843 0.942936 0.562583
Si Si5 0.855269 0.445088 0.876073
O O1 0.500000 0.004487 0.860381
O O2 0.581106 0.750000 0.859245
O O3 0.638054 0.002559 0.903403
O O4 0.618694 0.988583 0.797476
O O5 0.161593 0.750000 0.250390
O O6 0.250000 0.992222 0.250000
O O7 0.138819 0.995716 0.187067
O O8 0.926424 0.001291 0.091377
O O9 0.000000 0.750000 0.063970
O O10 0.000000 0.000000 0.000000
O O11 0.207510 0.750000 0.562425
O O12 0.209872 0.000000 0.500000
O O13 0.281275 0.997293 0.595024
O O14 0.853408 0.250000 0.876575
#
# Coordination Sequence:
#
# PCOD9538333 Si02
#       5
#    16  16   8  16  16
#     4  10  23  41  59  85 121 157 194 241 294 348
#     4  10  20  36  61  89 116 148 190 238 289 346
#     4  10  22  38  56  80 116 154 189 234 281 334
#     4  11  23  39  61  85 113 151 196 243 294 349
#     4  10  21  38  59  86 118 151 191 238 289 344
#
# _framework density 19.396623999999999
#
# number of rings (size 3 to 8) (size 9 to 14) (size 15 to 20)
#    0.000    1.778    2.222    1.333    1.556    5.778 
#    0.000    0.000    0.000    0.000    0.000    0.000 
#    0.000    0.000    0.000    0.000    0.000    0.000 
#
# Total GULP energy -201103.115965 kJ/mol
# GULP energy per Si atom -5586.197666 kJ/mol
# Density = 1.935248 g / cm^3
# Si number density = 19.396624 Si / 1000 Ang^3
#
#
#
# Elastic Constant Matrix: (Units=GPa)
#
#
# Indices 1 2 3 4 5 6 
#
# 1 151.9259 16.2530 61.3692 0.0000 0.0000 0.0000
# 2 16.2530 10.2250 13.1912 0.0000 0.0000 0.0000
# 3 61.3692 13.1912 146.4402 0.0000 0.0000 0.0000
# 4 0.0000 0.0000 0.0000 30.8381 0.0000 0.0000
# 5 0.0000 0.0000 0.0000 0.0000 35.6066 0.0000
# 6 0.0000 0.0000 0.0000 0.0000 0.0000 20.8443
#
#
#
# Elastic Compliance Matrix: (Units=1/GPa)
#
#
# Indices 1 2 3 4 5 6 
#
# 1 0.008812 -0.010458 -0.002751 0.000000 0.000000 0.000000
# 2 -0.010458 0.123071 -0.006703 0.000000 0.000000 0.000000
# 3 -0.002751 -0.006703 0.008585 0.000000 0.000000 0.000000
# 4 0.000000 0.000000 0.000000 0.032427 0.000000 0.000000
# 5 0.000000 0.000000 0.000000 0.000000 0.028085 0.000000
# 6 0.000000 0.000000 0.000000 0.000000 0.000000 0.047975
#
#
# Mechanical properties :
#
#
# Convention : Reuss Voigt Hill
#
# Bulk Modulus (GPa) = 9.93605 54.46865 32.20235
# Shear Modulus (GPa) = 15.51212 31.97630 23.74421
#
# Velocity S-wave (km/s) = 2.83102 4.06464 3.50257
# Velocity P-wave (km/s) = 3.97743 7.08314 5.74416
#
# Compressibility (1/GPa) = 0.10064364
#
# Stress axis : x y z
#
# Youngs Moduli (GPa) = 113.47933 8.12538 116.47710
#
# Poissons Ratio (x) = 0.08498 0.32041
# Poissons Ratio (y) = 1.18681 0.78079
# Poissons Ratio (z) = 0.31217 0.05447
#
# Static dielectric constant tensor:
#      x y z
#    x 1.682730 0.000000 0.000000 
#    y 0.000000 1.684870 0.000000 
#    z 0.000000 0.000000 1.650740 
# 
# From -- ./inp_files/56635.got.cif
#   From: 2010.05.17/outbox.cif.g08.bks.cpg/sg74_29_cif.got.tgz:56635.got - 2010.06.03 17:57:02.
