data_PCOD9538992
_publ_section_title
;
Structure prediction by ZEFSAII (Michael W. Deem and Ramdas Pophale) SiO2 
 PCOD9538992
Probable space group: I M M A
;
_chemical_formula_sum "Si O2"
_cell_formula_units_Z 80
_cell_length_a 16.226686
_cell_length_b 8.213654
_cell_length_c 30.149535
_cell_angle_alpha 90.000000
_cell_angle_beta 90.000000
_cell_angle_gamma 90.000000
_cell_volume 4018.341613
_symmetry_space_group_name_H-M "I M M A"
_symmetry_group_IT_number 74
_symmetry_cell_setting 'orthorhombic'
loop_
_space_group_symop_operation_xyz
x,y,z
-x,1/2-y,z
x,-y,-z
-x,1/2+y,-z
-x,-y,-z
x,1/2+y,-z
-x,y,z
x,1/2-y,z
1/2+x,1/2+y,1/2+z
1/2-x,-y,1/2+z
1/2+x,1/2-y,1/2-z
1/2-x,y,1/2-z
1/2-x,1/2-y,1/2-z
1/2+x,y,1/2-z
1/2-x,1/2+y,1/2+z
1/2+x,-y,1/2+z
loop_
_atom_site_type_symbol
_atom_site_label
_atom_site_fract_x
_atom_site_fract_y
_atom_site_fract_z
Si Si1 0.500000 0.945520 0.281101
Si Si2 0.500000 0.448986 0.616884
Si Si3 0.835912 0.446884 0.270759
Si Si4 0.825999 0.444162 0.547960
Si Si5 0.862740 0.946371 0.048368
Si Si6 0.093185 0.446064 0.361821
O O1 0.500000 0.750000 0.280805
O O2 0.500000 0.003037 0.332316
O O3 0.417112 0.004142 0.256670
O O4 0.500000 0.250000 0.617385
O O5 0.420595 0.501878 0.588429
O O6 0.832923 0.250000 0.270952
O O7 0.750000 0.506842 0.250000
O O8 0.849327 0.503473 0.321455
O O9 0.857960 0.500000 0.500000
O O10 0.824071 0.250000 0.548103
O O11 0.731465 0.505594 0.552421
O O12 0.876905 0.502340 0.589981
O O13 0.862021 0.750000 0.048992
O O14 0.893955 0.000000 0.000000
O O15 0.092452 0.250000 0.360476
O O16 0.000000 0.503839 0.353597
#
# Coordination Sequence:
#
# PCOD9538992 Si02
#       6
#     8   8  16  16  16  16
#     4  11  23  38  60  90 125 157 194 248 297 354
#     4   9  19  34  52  78 116 153 183 226 285 330
#     4  10  22  42  65  87 118 160 201 247 300 354
#     4  10  21  36  57  84 114 147 187 233 282 341
#     4   9  18  34  54  77 110 149 187 229 275 329
#     4  10  21  39  61  83 112 147 185 235 290 343
#
# _framework density 19.908709999999999
#
# number of rings (size 3 to 8) (size 9 to 14) (size 15 to 20)
#    0.000    2.200    1.000    1.200    2.800    2.800 
#    0.000    2.000    0.000    0.000    0.000    0.000 
#    0.000    0.000    0.000    0.000    0.000    0.000 
#
# Total GULP energy -223330.780839 kJ/mol
# GULP energy per Si atom -5583.269521 kJ/mol
# Density = 1.986340 g / cm^3
# Si number density = 19.908710 Si / 1000 Ang^3
#
#
#
# Elastic Constant Matrix: (Units=GPa)
#
#
# Indices 1 2 3 4 5 6 
#
# 1 116.2356 13.9609 81.2905 0.0000 0.0000 0.0000
# 2 13.9609 6.7859 13.0393 0.0000 0.0000 0.0000
# 3 81.2905 13.0393 185.0921 0.0000 0.0000 0.0000
# 4 0.0000 0.0000 0.0000 28.6879 0.0000 0.0000
# 5 0.0000 0.0000 0.0000 0.0000 37.7639 0.0000
# 6 0.0000 0.0000 0.0000 0.0000 0.0000 12.8276
#
#
#
# Elastic Compliance Matrix: (Units=1/GPa)
#
#
# Indices 1 2 3 4 5 6 
#
# 1 0.014497 -0.020345 -0.004934 0.000000 0.000000 0.000000
# 2 -0.020345 0.198988 -0.005083 0.000000 0.000000 0.000000
# 3 -0.004934 -0.005083 0.007928 0.000000 0.000000 0.000000
# 4 0.000000 0.000000 0.000000 0.034858 0.000000 0.000000
# 5 0.000000 0.000000 0.000000 0.000000 0.026480 0.000000
# 6 0.000000 0.000000 0.000000 0.000000 0.000000 0.077957
#
#
# Mechanical properties :
#
#
# Convention : Reuss Voigt Hill
#
# Bulk Modulus (GPa) = 6.22319 58.29946 32.26132
# Shear Modulus (GPa) = 10.52641 29.17740 19.85191
#
# Velocity S-wave (km/s) = 2.30192 3.83242 3.16119
# Velocity P-wave (km/s) = 3.19339 6.99501 5.43728
#
# Compressibility (1/GPa) = 0.16068922
#
# Stress axis : x y z
#
# Youngs Moduli (GPa) = 68.97794 5.02542 126.14053
#
# Poissons Ratio (x) = 0.10224 0.62235
# Poissons Ratio (y) = 1.40339 0.64114
# Poissons Ratio (z) = 0.34032 0.02554
#
# Static dielectric constant tensor:
#      x y z
#    x 1.705660 0.000000 0.000000 
#    y 0.000000 1.691060 0.000000 
#    z 0.000000 0.000000 1.689680 
# 
# From -- ./inp_files/67551.got.cif
#   From: 2010.05.17/outbox.cif.g08.bks.cpg/sg74_34_cif.got.tgz:67551.got - 2010.06.03 17:57:02.
