data_PCOD9538272
_publ_section_title
;
Structure prediction by ZEFSAII (Michael W. Deem and Ramdas Pophale) SiO2 
 PCOD9538272
Probable space group: I M M A
;
_chemical_formula_sum "Si O2"
_cell_formula_units_Z 116
_cell_length_a 22.997565
_cell_length_b 8.780745
_cell_length_c 28.508320
_cell_angle_alpha 90.000000
_cell_angle_beta 90.000000
_cell_angle_gamma 90.000000
_cell_volume 5756.849091
_symmetry_space_group_name_H-M "I M M A"
_symmetry_group_IT_number 74
_symmetry_cell_setting 'orthorhombic'
loop_
_space_group_symop_operation_xyz
x,y,z
-x,1/2-y,z
x,-y,-z
-x,1/2+y,-z
-x,-y,-z
x,1/2+y,-z
-x,y,z
x,1/2-y,z
1/2+x,1/2+y,1/2+z
1/2-x,-y,1/2+z
1/2+x,1/2-y,1/2-z
1/2-x,y,1/2-z
1/2-x,1/2-y,1/2-z
1/2+x,y,1/2-z
1/2-x,1/2+y,1/2+z
1/2+x,-y,1/2+z
loop_
_atom_site_type_symbol
_atom_site_label
_atom_site_fract_x
_atom_site_fract_y
_atom_site_fract_z
Si Si1 0.332462 0.431790 0.947522
Si Si2 0.378669 0.569875 0.204150
Si Si3 0.393520 0.081246 0.602195
Si Si4 0.000000 0.250000 0.935817
Si Si5 0.741688 0.922282 0.806480
Si Si6 0.213207 0.430786 0.052066
Si Si7 0.126866 0.567390 0.807572
Si Si8 0.066528 0.568707 0.615488
O O1 0.328710 0.250000 0.949845
O O2 0.272314 0.499001 0.926739
O O3 0.387238 0.484483 0.917296
O O4 0.337976 0.500000 0.000000
O O5 0.387293 0.750000 0.204203
O O6 0.313278 0.529601 0.186384
O O7 0.384149 0.503672 0.256642
O O8 0.421682 0.487736 0.168278
O O9 0.368172 0.250000 0.612738
O O10 0.448516 0.119097 0.569771
O O11 0.345336 0.978892 0.577853
O O12 0.411346 0.004980 0.651372
O O13 0.728635 0.750000 0.823332
O O14 0.750000 0.913439 0.750000
O O15 0.805976 0.968336 0.822445
O O16 0.218907 0.250000 0.050239
O O17 0.209578 0.500000 0.000000
O O18 0.122135 0.750000 0.804965
O O19 0.075777 0.750000 0.612707
O O20 0.000000 0.535632 0.602023
#
# Coordination Sequence:
#
# PCOD9538272 Si02
#       8
#    16  16  16   4  16  16  16  16
#     4  11  23  42  69 102 134 168 208 261 321 382
#     4  11  22  36  56  86 124 164 213 269 324 384
#     4  10  21  41  64  89 127 165 211 259 315 380
#     4   8  24  44  64  88 132 168 212 264 316 374
#     4   8  16  31  51  77 115 151 194 254 314 377
#     4  11  22  40  69 103 135 166 206 261 319 380
#     4  10  20  36  59  89 120 165 214 265 325 382
#     4  11  25  45  65  88 125 173 225 273 321 380
#
# _framework density 20.149910999999999
#
# number of rings (size 3 to 8) (size 9 to 14) (size 15 to 20)
#    0.414    1.379    0.000    6.621    1.931    4.414 
#    1.241    1.724    0.000    0.000    0.000    0.000 
#    0.000    0.000    0.000    0.000    0.000    0.000 
#
# Total GULP energy -323368.633828 kJ/mol
# GULP energy per Si atom -5575.321273 kJ/mol
# Density = 2.010405 g / cm^3
# Si number density = 20.149911 Si / 1000 Ang^3
#
#
#
# Elastic Constant Matrix: (Units=GPa)
#
#
# Indices 1 2 3 4 5 6 
#
# 1 96.9549 52.8797 30.6847 0.0000 0.0000 0.0000
# 2 52.8797 145.7844 27.2059 0.0000 0.0000 0.0000
# 3 30.6847 27.2059 58.1341 0.0000 0.0000 0.0000
# 4 0.0000 0.0000 0.0000 26.9868 0.0000 0.0000
# 5 0.0000 0.0000 0.0000 0.0000 13.7985 0.0000
# 6 0.0000 0.0000 0.0000 0.0000 0.0000 26.3867
#
#
#
# Elastic Compliance Matrix: (Units=1/GPa)
#
#
# Indices 1 2 3 4 5 6 
#
# 1 0.014366 -0.004159 -0.005637 0.000000 0.000000 0.000000
# 2 -0.004159 0.008720 -0.001885 0.000000 0.000000 0.000000
# 3 -0.005637 -0.001885 0.021059 0.000000 0.000000 0.000000
# 4 0.000000 0.000000 0.000000 0.037055 0.000000 0.000000
# 5 0.000000 0.000000 0.000000 0.000000 0.072472 0.000000
# 6 0.000000 0.000000 0.000000 0.000000 0.000000 0.037898
#
#
# Mechanical properties :
#
#
# Convention : Reuss Voigt Hill
#
# Bulk Modulus (GPa) = 48.11613 58.04600 53.08107
# Shear Modulus (GPa) = 22.53670 26.10793 24.32231
#
# Velocity S-wave (km/s) = 3.34795 3.60347 3.47806
# Velocity P-wave (km/s) = 6.23506 6.79580 6.52146
#
# Compressibility (1/GPa) = 0.02078305
#
# Stress axis : x y z
#
# Youngs Moduli (GPa) = 69.60691 114.67955 47.48544
#
# Poissons Ratio (x) = 0.47697 0.26765
# Poissons Ratio (y) = 0.28951 0.08953
# Poissons Ratio (z) = 0.39234 0.21623
#
# Static dielectric constant tensor:
#      x y z
#    x 1.723460 0.000000 0.000000 
#    y 0.000000 1.686030 0.000000 
#    z 0.000000 0.000000 1.923060 
# 
# From -- ./inp_files/68758.got.cif
#   From: 2010.05.17/outbox.cif.g08.bks.cpg/sg74_35_cif.got.tgz:68758.got - 2010.06.03 17:57:02.
