data_PCOD9538145
_publ_section_title
;
Structure prediction by ZEFSAII (Michael W. Deem and Ramdas Pophale) SiO2 
 PCOD9538145
Probable space group: I M M A
;
_chemical_formula_sum "Si O2"
_cell_formula_units_Z 88
_cell_length_a 22.637685
_cell_length_b 8.471869
_cell_length_c 23.605877
_cell_angle_alpha 90.000000
_cell_angle_beta 90.000000
_cell_angle_gamma 90.000000
_cell_volume 4527.217754
_symmetry_space_group_name_H-M "I M M A"
_symmetry_group_IT_number 74
_symmetry_cell_setting 'orthorhombic'
loop_
_space_group_symop_operation_xyz
x,y,z
-x,1/2-y,z
x,-y,-z
-x,1/2+y,-z
-x,-y,-z
x,1/2+y,-z
-x,y,z
x,1/2-y,z
1/2+x,1/2+y,1/2+z
1/2-x,-y,1/2+z
1/2+x,1/2-y,1/2-z
1/2-x,y,1/2-z
1/2-x,1/2-y,1/2-z
1/2+x,y,1/2-z
1/2-x,1/2+y,1/2+z
1/2+x,-y,1/2+z
loop_
_atom_site_type_symbol
_atom_site_label
_atom_site_fract_x
_atom_site_fract_y
_atom_site_fract_z
Si Si1 0.377707 0.939139 0.882170
Si Si2 0.000000 0.561989 0.434775
Si Si3 0.241233 0.560151 0.561379
Si Si4 0.184390 0.563764 0.268445
Si Si5 0.160334 0.559317 0.848714
Si Si6 0.933486 0.561028 0.941560
O O1 0.382277 0.750000 0.883143
O O2 0.326020 0.989178 0.925928
O O3 0.440791 0.007082 0.901417
O O4 0.350314 0.988007 0.821107
O O5 0.000000 0.500000 0.500000
O O6 0.000000 0.750000 0.437270
O O7 0.260472 0.500000 0.500000
O O8 0.244224 0.750000 0.560539
O O9 0.282055 0.509983 0.614518
O O10 0.189974 0.750000 0.279846
O O11 0.250000 0.501266 0.250000
O O12 0.151350 0.527469 0.210159
O O13 0.163511 0.750000 0.839987
O O14 0.105973 0.519661 0.888883
O O15 0.935554 0.750000 0.944522
O O16 0.000000 0.498408 0.936903
O O17 0.907032 0.500000 0.000000
#
# Coordination Sequence:
#
# PCOD9538145 Si02
#       6
#    16   8  16  16  16  16
#     4  11  23  42  66  91 122 165 210 255 315 377
#     4  12  26  46  70  98 132 168 213 264 319 384
#     4  10  21  34  55  86 117 151 194 246 305 366
#     4  11  23  39  61  89 120 158 201 252 309 366
#     4  10  20  36  56  81 115 156 200 247 298 363
#     4   9  18  33  54  80 112 150 191 235 287 345
#
# _framework density 19.437987
#
# number of rings (size 3 to 8) (size 9 to 14) (size 15 to 20)
#    0.000    1.636    1.818    3.000    0.000    5.091 
#    1.636    0.000    0.000    0.000    0.000    0.000 
#    0.000    0.000    0.000    0.000    0.000    0.000 
#
# Total GULP energy -245538.736718 kJ/mol
# GULP energy per Si atom -5580.425835 kJ/mol
# Density = 1.939375 g / cm^3
# Si number density = 19.437987 Si / 1000 Ang^3
#
#
#
# Elastic Constant Matrix: (Units=GPa)
#
#
# Indices 1 2 3 4 5 6 
#
# 1 114.7134 33.0532 53.5741 0.0000 0.0000 0.0000
# 2 33.0532 34.5579 22.9139 0.0000 0.0000 0.0000
# 3 53.5741 22.9139 128.7078 0.0000 0.0000 0.0000
# 4 0.0000 0.0000 0.0000 34.8394 0.0000 0.0000
# 5 0.0000 0.0000 0.0000 0.0000 12.8887 0.0000
# 6 0.0000 0.0000 0.0000 0.0000 0.0000 -127.7237
#
#
#
# Elastic Compliance Matrix: (Units=1/GPa)
#
#
# Indices 1 2 3 4 5 6 
#
# 1 0.013464 -0.010388 -0.003755 0.000000 0.000000 0.000000
# 2 -0.010388 0.040825 -0.002944 0.000000 0.000000 0.000000
# 3 -0.003755 -0.002944 0.009857 0.000000 0.000000 0.000000
# 4 0.000000 0.000000 0.000000 0.028703 0.000000 0.000000
# 5 0.000000 0.000000 0.000000 0.000000 0.077588 0.000000
# 6 0.000000 0.000000 0.000000 0.000000 0.000000 -0.007829
#
#
# Mechanical properties :
#
#
# Convention : Reuss Voigt Hill
#
# Bulk Modulus (GPa) = 33.36524 55.22904 44.29714
# Shear Modulus (GPa) = 24.18121 -4.76993 9.70564
#
# Velocity S-wave (km/s) = 3.53089 -1.56820 2.23696
# Velocity P-wave (km/s) = 5.81594 5.01952 5.43235
#
# Compressibility (1/GPa) = 0.02997131
#
# Stress axis : x y z
#
# Youngs Moduli (GPa) = 74.27043 24.49487 101.45403
#
# Poissons Ratio (x) = 0.25446 0.38096
# Poissons Ratio (y) = 0.77154 0.29868
# Poissons Ratio (z) = 0.27889 0.07211
#
# Static dielectric constant tensor:
#      x y z
#    x 1.730830 0.000000 0.000000 
#    y 0.000000 1.669230 0.000000 
#    z 0.000000 0.000000 1.668130 
# 
# From -- ./inp_files/61423.got.cif
#   From: 2010.05.17/outbox.cif.g08.bks.cpg/sg74_31_cif.got.tgz:61423.got - 2010.06.03 17:57:02.
