data_PCOD9538845
_publ_section_title
;
Structure prediction by ZEFSAII (Michael W. Deem and Ramdas Pophale) SiO2 
 PCOD9538845
Probable space group: I M M A
;
_chemical_formula_sum "Si O2"
_cell_formula_units_Z 100
_cell_length_a 20.679559
_cell_length_b 9.777759
_cell_length_c 27.711567
_cell_angle_alpha 90.000000
_cell_angle_beta 90.000000
_cell_angle_gamma 90.000000
_cell_volume 5603.271757
_symmetry_space_group_name_H-M "I M M A"
_symmetry_group_IT_number 74
_symmetry_cell_setting 'orthorhombic'
loop_
_space_group_symop_operation_xyz
x,y,z
-x,1/2-y,z
x,-y,-z
-x,1/2+y,-z
-x,-y,-z
x,1/2+y,-z
-x,y,z
x,1/2-y,z
1/2+x,1/2+y,1/2+z
1/2-x,-y,1/2+z
1/2+x,1/2-y,1/2-z
1/2-x,y,1/2-z
1/2-x,1/2-y,1/2-z
1/2+x,y,1/2-z
1/2-x,1/2+y,1/2+z
1/2+x,-y,1/2+z
loop_
_atom_site_type_symbol
_atom_site_label
_atom_site_fract_x
_atom_site_fract_y
_atom_site_fract_z
Si Si1 0.210690 0.908414 0.048411
Si Si2 0.380873 0.593986 0.687898
Si Si3 0.500000 0.250000 0.415579
Si Si4 0.245904 0.092316 0.368341
Si Si5 0.500000 0.093659 0.686554
Si Si6 0.620766 0.908519 0.802620
Si Si7 0.567694 0.520799 0.442045
Si Si8 0.500000 0.407534 0.803918
O O1 0.227233 0.750000 0.039739
O O2 0.136570 0.914694 0.068133
O O3 0.253356 0.984039 0.088596
O O4 0.213258 0.000000 0.000000
O O5 0.406359 0.750000 0.682430
O O6 0.313571 0.580615 0.660346
O O7 0.435832 0.488146 0.671911
O O8 0.368617 0.573526 0.745144
O O9 0.555807 0.370522 0.420542
O O10 0.242126 0.250000 0.386128
O O11 0.186605 0.069943 0.331861
O O12 0.500000 0.250000 0.671676
O O13 0.500000 0.090725 0.745219
O O14 0.600533 0.750000 0.809360
O O15 0.564072 0.010157 0.818550
O O16 0.567934 0.500000 0.500000
O O17 0.500000 0.596346 0.430685
O O18 0.500000 0.250000 0.819516
#
# Coordination Sequence:
#
# PCOD9538845 Si02
#       8
#    16  16   4  16   8  16  16   8
#     4  11  24  37  54  72  98 134 174 220 266 316
#     4   9  17  32  53  77 105 141 178 216 260 307
#     4   8  14  28  44  74  86 116 150 218 258 314
#     4  10  21  35  54  78 106 137 175 220 265 314
#     4   9  17  29  46  71 104 143 183 218 258 303
#     4   9  17  32  55  82 109 138 173 212 255 309
#     4   8  17  26  49  67  90 114 159 207 262 303
#     4   9  17  29  49  78 108 141 172 208 253 304
#
# _framework density 17.846716000000001
#
# number of rings (size 3 to 8) (size 9 to 14) (size 15 to 20)
#    0.480    2.240    0.000    1.440    5.600    5.440 
#    1.440    0.000    0.000    4.800    0.000    0.560 
#    0.000    0.000    0.000    0.000    0.000    0.000 
#
# Total GULP energy -278407.548147 kJ/mol
# GULP energy per Si atom -5568.150963 kJ/mol
# Density = 1.780610 g / cm^3
# Si number density = 17.846716 Si / 1000 Ang^3
#
#
#
# Elastic Constant Matrix: (Units=GPa)
#
#
# Indices 1 2 3 4 5 6 
#
# 1 81.0456 69.2409 30.0962 0.0000 0.0000 0.0000
# 2 69.2409 159.9638 59.3053 0.0000 0.0000 0.0000
# 3 30.0962 59.3053 66.6685 0.0000 0.0000 0.0000
# 4 0.0000 0.0000 0.0000 22.8560 0.0000 0.0000
# 5 0.0000 0.0000 0.0000 0.0000 28.6034 0.0000
# 6 0.0000 0.0000 0.0000 0.0000 0.0000 18.0413
#
#
#
# Elastic Compliance Matrix: (Units=1/GPa)
#
#
# Indices 1 2 3 4 5 6 
#
# 1 0.019749 -0.007823 -0.001956 0.000000 0.000000 0.000000
# 2 -0.007823 0.012427 -0.007523 0.000000 0.000000 0.000000
# 3 -0.001956 -0.007523 0.022574 0.000000 0.000000 0.000000
# 4 0.000000 0.000000 0.000000 0.043752 0.000000 0.000000
# 5 0.000000 0.000000 0.000000 0.000000 0.034961 0.000000
# 6 0.000000 0.000000 0.000000 0.000000 0.000000 0.055428
#
#
# Mechanical properties :
#
#
# Convention : Reuss Voigt Hill
#
# Bulk Modulus (GPa) = 49.63722 69.44030 59.53876
# Shear Modulus (GPa) = 21.71931 23.83585 22.77758
#
# Velocity S-wave (km/s) = 3.49233 3.65853 3.57640
# Velocity P-wave (km/s) = 6.64344 7.53925 7.10547
#
# Compressibility (1/GPa) = 0.02014617
#
# Stress axis : x y z
#
# Youngs Moduli (GPa) = 50.63608 80.47257 44.29807
#
# Poissons Ratio (x) = 0.62955 0.08665
# Poissons Ratio (y) = 0.39613 0.33323
# Poissons Ratio (z) = 0.09905 0.60536
#
# Static dielectric constant tensor:
#      x y z
#    x 1.598640 0.000000 0.000000 
#    y 0.000000 1.764850 0.000000 
#    z 0.000000 0.000000 1.657950 
# 
# From -- ./inp_files/68303.got.cif
#   From: 2010.05.17/outbox.cif.g08.bks.cpg/sg74_35_cif.got.tgz:68303.got - 2010.06.03 17:57:02.
