data_PCOD9538825
_publ_section_title
;
Structure prediction by ZEFSAII (Michael W. Deem and Ramdas Pophale) SiO2 
 PCOD9538825
Probable space group: I M M A
;
_chemical_formula_sum "Si O2"
_cell_formula_units_Z 88
_cell_length_a 10.662847
_cell_length_b 15.143112
_cell_length_c 29.272844
_cell_angle_alpha 90.000000
_cell_angle_beta 90.000000
_cell_angle_gamma 90.000000
_cell_volume 4726.647667
_symmetry_space_group_name_H-M "I M M A"
_symmetry_group_IT_number 74
_symmetry_cell_setting 'orthorhombic'
loop_
_space_group_symop_operation_xyz
x,y,z
-x,1/2-y,z
x,-y,-z
-x,1/2+y,-z
-x,-y,-z
x,1/2+y,-z
-x,y,z
x,1/2-y,z
1/2+x,1/2+y,1/2+z
1/2-x,-y,1/2+z
1/2+x,1/2-y,1/2-z
1/2-x,y,1/2-z
1/2-x,1/2-y,1/2-z
1/2+x,y,1/2-z
1/2-x,1/2+y,1/2+z
1/2+x,-y,1/2+z
loop_
_atom_site_type_symbol
_atom_site_label
_atom_site_fract_x
_atom_site_fract_y
_atom_site_fract_z
Si Si1 0.856657 0.444767 0.129213
Si Si2 0.134565 0.354671 0.222333
Si Si3 0.637512 0.355970 0.964017
Si Si4 0.145732 0.250000 0.710316
Si Si5 0.856201 0.356822 0.031196
Si Si6 0.857318 0.586153 0.358840
O O1 0.852644 0.371024 0.168615
O O2 0.832125 0.402938 0.079742
O O3 0.752592 0.515049 0.143489
O O4 0.000000 0.480540 0.128777
O O5 0.131673 0.250000 0.230731
O O6 0.250000 0.393875 0.250000
O O7 0.000000 0.392573 0.236892
O O8 0.500000 0.388593 0.979696
O O9 0.636749 0.250000 0.968149
O O10 0.650095 0.377466 0.910678
O O11 0.754005 0.387199 0.994293
O O12 0.250000 0.250000 0.750000
O O13 0.160190 0.164519 0.677591
O O14 0.000000 0.250000 0.727188
O O15 0.847509 0.250000 0.036594
O O16 0.000000 0.376262 0.017170
O O17 0.000000 0.550987 0.352827
#
# Coordination Sequence:
#
# PCOD9538825 Si02
#       6
#    16  16  16   8  16  16
#     4  10  21  35  52  78 112 143 175 217 266 319
#     4   9  18  34  55  76 101 138 178 214 256 309
#     4   9  17  33  56  77 101 138 182 222 262 316
#     4  10  22  42  64  84 106 138 180 228 279 332
#     4   9  18  33  53  78 109 146 182 218 261 310
#     4  10  21  38  58  78 105 140 176 218 271 323
#
# _framework density 18.617847000000001
#
# number of rings (size 3 to 8) (size 9 to 14) (size 15 to 20)
#    0.000    2.545    0.909    0.545    0.000    6.545 
#    0.000    7.273    0.000    5.455    0.000    0.000 
#    0.000    0.000    0.000    0.000    0.000    0.000 
#
# Total GULP energy -245273.292816 kJ/mol
# GULP energy per Si atom -5574.393019 kJ/mol
# Density = 1.857547 g / cm^3
# Si number density = 18.617847 Si / 1000 Ang^3
#
#
#
# Elastic Constant Matrix: (Units=GPa)
#
#
# Indices 1 2 3 4 5 6 
#
# 1 153.0556 36.4394 77.5089 0.0000 0.0000 0.0000
# 2 36.4394 28.1423 3.2975 0.0000 0.0000 0.0000
# 3 77.5089 3.2975 85.8309 0.0000 0.0000 0.0000
# 4 0.0000 0.0000 0.0000 -3.5065 0.0000 0.0000
# 5 0.0000 0.0000 0.0000 0.0000 46.1410 0.0000
# 6 0.0000 0.0000 0.0000 0.0000 0.0000 16.0662
#
#
#
# Elastic Compliance Matrix: (Units=1/GPa)
#
#
# Indices 1 2 3 4 5 6 
#
# 1 0.023204 -0.027715 -0.019890 0.000000 0.000000 0.000000
# 2 -0.027715 0.068797 0.022385 0.000000 0.000000 0.000000
# 3 -0.019890 0.022385 0.028752 0.000000 0.000000 0.000000
# 4 0.000000 0.000000 0.000000 -0.285186 0.000000 0.000000
# 5 0.000000 0.000000 0.000000 0.000000 0.021673 0.000000
# 6 0.000000 0.000000 0.000000 0.000000 0.000000 0.062243
#
#
# Mechanical properties :
#
#
# Convention : Reuss Voigt Hill
#
# Bulk Modulus (GPa) = 14.22201 55.72450 34.97325
# Shear Modulus (GPa) = -753.02091 21.72567 -365.64762
#
# Velocity S-wave (km/s) = -20.13306 3.41974 -14.02935
# Velocity P-wave (km/s) = 23.08241 6.75192 15.60784
#
# Compressibility (1/GPa) = 0.07031353
#
# Stress axis : x y z
#
# Youngs Moduli (GPa) = 43.09541 14.53549 34.78012
#
# Poissons Ratio (x) = 0.40285 0.69177
# Poissons Ratio (y) = 1.19439 -0.77855
# Poissons Ratio (z) = 0.85715 -0.32537
#
# Static dielectric constant tensor:
#      x y z
#    x 1.688070 0.000000 0.000000 
#    y 0.000000 1.635630 0.000000 
#    z 0.000000 0.000000 1.613570 
# 
# From -- ./inp_files/70267.got.cif
#   From: 2010.05.17/outbox.cif.g08.bks.cpg/sg74_36_cif.got.tgz:70267.got - 2010.06.03 17:57:02.
