data_PCOD9538555
_publ_section_title
;
Structure prediction by ZEFSAII (Michael W. Deem and Ramdas Pophale) SiO2 
 PCOD9538555
Probable space group: I M M A
;
_chemical_formula_sum "Si O2"
_cell_formula_units_Z 88
_cell_length_a 22.407611
_cell_length_b 19.935308
_cell_length_c 9.719477
_cell_angle_alpha 90.000000
_cell_angle_beta 90.000000
_cell_angle_gamma 90.000000
_cell_volume 4341.715907
_symmetry_space_group_name_H-M "I M M A"
_symmetry_group_IT_number 74
_symmetry_cell_setting 'orthorhombic'
loop_
_space_group_symop_operation_xyz
x,y,z
-x,1/2-y,z
x,-y,-z
-x,1/2+y,-z
-x,-y,-z
x,1/2+y,-z
-x,y,z
x,1/2-y,z
1/2+x,1/2+y,1/2+z
1/2-x,-y,1/2+z
1/2+x,1/2-y,1/2-z
1/2-x,y,1/2-z
1/2-x,1/2-y,1/2-z
1/2+x,y,1/2-z
1/2-x,1/2+y,1/2+z
1/2+x,-y,1/2+z
loop_
_atom_site_type_symbol
_atom_site_label
_atom_site_fract_x
_atom_site_fract_y
_atom_site_fract_z
Si Si1 0.627458 0.449281 0.628502
Si Si2 0.100284 0.671254 0.632409
Si Si3 0.500000 0.927651 0.923492
Si Si4 0.270479 0.326201 0.000708
Si Si5 0.140202 0.172744 0.066880
Si Si6 0.000000 0.008785 0.834122
Si Si7 0.250000 0.573742 0.250000
O O1 0.629494 0.500000 0.500000
O O2 0.628386 0.375804 0.560339
O O3 0.563431 0.457088 0.700609
O O4 0.687559 0.462866 0.715305
O O5 0.082281 0.750000 0.617798
O O6 0.057421 0.619551 0.554812
O O7 0.167436 0.665194 0.577205
O O8 0.104382 0.655614 0.795400
O O9 0.500000 0.943629 0.760182
O O10 0.500000 0.000000 0.000000
O O11 0.269120 0.250000 0.944485
O O12 0.264030 0.379605 0.880201
O O13 0.211371 0.332688 0.093954
O O14 0.127530 0.250000 0.032491
O O15 0.000000 0.000000 0.000000
#
# Coordination Sequence:
#
# PCOD9538555 Si02
#       7
#    16  16   8  16  16   8   8
#     4  10  21  40  59  87 118 164 201 253 304 361
#     4  10  20  38  62  88 117 153 200 250 296 354
#     4  12  27  41  60  87 120 167 205 247 303 369
#     4   9  18  34  59  88 120 153 186 242 306 363
#     4   9  18  36  63  94 119 147 197 250 305 356
#     4  10  22  43  65  79 119 161 211 249 314 361
#     4  10  21  36  56  86 121 152 208 238 306 360
#
# _framework density 20.268484000000001
#
# number of rings (size 3 to 8) (size 9 to 14) (size 15 to 20)
#    0.000    2.182    0.000    3.273    2.545    2.909 
#   13.091    1.364    0.000    0.000    0.000    0.000 
#    0.000    0.000    0.000    0.000    0.000    0.000 
#
# Total GULP energy -245345.254380 kJ/mol
# GULP energy per Si atom -5576.028509 kJ/mol
# Density = 2.022235 g / cm^3
# Si number density = 20.268484 Si / 1000 Ang^3
#
#
#
# Elastic Constant Matrix: (Units=GPa)
#
#
# Indices 1 2 3 4 5 6 
#
# 1 159.7352 60.4870 16.5376 0.0000 0.0000 0.0000
# 2 60.4870 61.5404 14.2820 0.0000 0.0000 0.0000
# 3 16.5376 14.2820 35.9248 0.0000 0.0000 0.0000
# 4 0.0000 0.0000 0.0000 29.3814 0.0000 0.0000
# 5 0.0000 0.0000 0.0000 0.0000 22.6734 0.0000
# 6 0.0000 0.0000 0.0000 0.0000 0.0000 36.3567
#
#
#
# Elastic Compliance Matrix: (Units=1/GPa)
#
#
# Indices 1 2 3 4 5 6 
#
# 1 0.009991 -0.009642 -0.000766 0.000000 0.000000 0.000000
# 2 -0.009642 0.027207 -0.006377 0.000000 0.000000 0.000000
# 3 -0.000766 -0.006377 0.030724 0.000000 0.000000 0.000000
# 4 0.000000 0.000000 0.000000 0.034035 0.000000 0.000000
# 5 0.000000 0.000000 0.000000 0.000000 0.044105 0.000000
# 6 0.000000 0.000000 0.000000 0.000000 0.000000 0.027505
#
#
# Mechanical properties :
#
#
# Convention : Reuss Voigt Hill
#
# Bulk Modulus (GPa) = 29.11174 48.86815 38.98995
# Shear Modulus (GPa) = 22.87418 28.74190 25.80804
#
# Velocity S-wave (km/s) = 3.36305 3.76980 3.57222
# Velocity P-wave (km/s) = 5.42903 6.56592 6.02435
#
# Compressibility (1/GPa) = 0.03435041
#
# Stress axis : x y z
#
# Youngs Moduli (GPa) = 100.09196 36.75589 32.54800
#
# Poissons Ratio (x) = 0.35440 0.02493
# Poissons Ratio (y) = 0.96509 0.20757
# Poissons Ratio (z) = 0.07666 0.23441
#
# Static dielectric constant tensor:
#      x y z
#    x 1.758880 0.000000 0.000000 
#    y 0.000000 1.757230 0.000000 
#    z 0.000000 0.000000 1.722270 
# 
# From -- ./inp_files/13783.got.cif
#   From: 2010.05.17/outbox.cif.g08.bks.cpg/sg74_7_cif.got.tgz:13783.got - 2010.06.03 17:57:02.
