data_PCOD9538852
_publ_section_title
;
Structure prediction by ZEFSAII (Michael W. Deem and Ramdas Pophale) SiO2 
 PCOD9538852
Probable space group: I M M A
;
_chemical_formula_sum "Si O2"
_cell_formula_units_Z 64
_cell_length_a 14.391352
_cell_length_b 19.816066
_cell_length_c 10.105969
_cell_angle_alpha 90.000000
_cell_angle_beta 90.000000
_cell_angle_gamma 90.000000
_cell_volume 2882.020048
_symmetry_space_group_name_H-M "I M M A"
_symmetry_group_IT_number 74
_symmetry_cell_setting 'orthorhombic'
loop_
_space_group_symop_operation_xyz
x,y,z
-x,1/2-y,z
x,-y,-z
-x,1/2+y,-z
-x,-y,-z
x,1/2+y,-z
-x,y,z
x,1/2-y,z
1/2+x,1/2+y,1/2+z
1/2-x,-y,1/2+z
1/2+x,1/2-y,1/2-z
1/2-x,y,1/2-z
1/2-x,1/2-y,1/2-z
1/2+x,y,1/2-z
1/2-x,1/2+y,1/2+z
1/2+x,-y,1/2+z
loop_
_atom_site_type_symbol
_atom_site_label
_atom_site_fract_x
_atom_site_fract_y
_atom_site_fract_z
Si Si1 0.111321 0.675273 0.877720
Si Si2 0.394349 0.440034 0.895507
Si Si3 0.886905 0.975133 0.854828
Si Si4 0.259783 0.676585 0.092744
O O1 0.136586 0.750000 0.820062
O O2 0.161038 0.671981 0.020328
O O3 0.000000 0.674636 0.888936
O O4 0.138910 0.602277 0.817899
O O5 0.500000 0.414784 0.876204
O O6 0.359766 0.472114 0.757830
O O7 0.328211 0.382162 0.947915
O O8 0.397269 0.500000 0.000000
O O9 0.000000 0.976114 0.857826
O O10 0.854385 0.000000 0.000000
O O11 0.299299 0.750000 0.056903
O O12 0.250000 0.673785 0.250000
#
# Coordination Sequence:
#
# PCOD9538852 Si02
#       4
#    16  16  16  16
#     4   9  18  34  56  82 111 141 179 232 284 326
#     4  10  22  39  57  81 115 151 185 224 274 332
#     4   9  17  32  56  82 106 140 188 233 272 317
#     4  10  21  35  54  83 114 146 186 228 275 331
#
# _framework density 22.206644000000001
#
# number of rings (size 3 to 8) (size 9 to 14) (size 15 to 20)
#    0.000    2.500    0.000    1.500    0.000    6.500 
#    0.000    3.750    0.000    7.500    0.000    0.000 
#    0.000    0.000    0.000    0.000    0.000    0.000 
#
# Total GULP energy -178619.056837 kJ/mol
# GULP energy per Si atom -5581.845526 kJ/mol
# Density = 2.215610 g / cm^3
# Si number density = 22.206644 Si / 1000 Ang^3
#
#
#
# Elastic Constant Matrix: (Units=GPa)
#
#
# Indices 1 2 3 4 5 6 
#
# 1 59.0647 32.8419 0.6518 0.0000 0.0000 0.0000
# 2 32.8419 149.5926 -5.9124 0.0000 0.0000 0.0000
# 3 0.6518 -5.9124 42.6536 0.0000 0.0000 0.0000
# 4 0.0000 0.0000 0.0000 15.1842 0.0000 0.0000
# 5 0.0000 0.0000 0.0000 0.0000 9.6705 0.0000
# 6 0.0000 0.0000 0.0000 0.0000 0.0000 5.6199
#
#
#
# Elastic Compliance Matrix: (Units=1/GPa)
#
#
# Indices 1 2 3 4 5 6 
#
# 1 0.019318 -0.004276 -0.000888 0.000000 0.000000 0.000000
# 2 -0.004276 0.007668 0.001128 0.000000 0.000000 0.000000
# 3 -0.000888 0.001128 0.023615 0.000000 0.000000 0.000000
# 4 0.000000 0.000000 0.000000 0.065858 0.000000 0.000000
# 5 0.000000 0.000000 0.000000 0.000000 0.103407 0.000000
# 6 0.000000 0.000000 0.000000 0.000000 0.000000 0.177940
#
#
# Mechanical properties :
#
#
# Convention : Reuss Voigt Hill
#
# Bulk Modulus (GPa) = 23.51330 34.05262 28.78296
# Shear Modulus (GPa) = 11.90323 21.01024 16.45673
#
# Velocity S-wave (km/s) = 2.31773 3.07925 2.72522
# Velocity P-wave (km/s) = 4.21591 5.29246 4.78456
#
# Compressibility (1/GPa) = 0.04252912
#
# Stress axis : x y z
#
# Youngs Moduli (GPa) = 51.76492 130.40812 42.34662
#
# Poissons Ratio (x) = 0.55766 0.03760
# Poissons Ratio (y) = 0.22136 -0.04778
# Poissons Ratio (z) = 0.04597 -0.14714
#
# Static dielectric constant tensor:
#      x y z
#    x 1.824100 0.000000 0.000000 
#    y 0.000000 1.861850 0.000000 
#    z 0.000000 0.000000 2.446370 
# 
# From -- ./inp_files/19933.got.cif
#   From: 2010.05.17/outbox.cif.g08.bks.cpg/sg74_10_cif.got.tgz:19933.got - 2010.06.03 17:57:02.
