data_PCOD9538727
_publ_section_title
;
Structure prediction by ZEFSAII (Michael W. Deem and Ramdas Pophale) SiO2 
 PCOD9538727
Probable space group: I M M A
;
_chemical_formula_sum "Si O2"
_cell_formula_units_Z 88
_cell_length_a 22.114582
_cell_length_b 8.696264
_cell_length_c 23.646088
_cell_angle_alpha 90.000000
_cell_angle_beta 90.000000
_cell_angle_gamma 90.000000
_cell_volume 4547.479521
_symmetry_space_group_name_H-M "I M M A"
_symmetry_group_IT_number 74
_symmetry_cell_setting 'orthorhombic'
loop_
_space_group_symop_operation_xyz
x,y,z
-x,1/2-y,z
x,-y,-z
-x,1/2+y,-z
-x,-y,-z
x,1/2+y,-z
-x,y,z
x,1/2-y,z
1/2+x,1/2+y,1/2+z
1/2-x,-y,1/2+z
1/2+x,1/2-y,1/2-z
1/2-x,y,1/2-z
1/2-x,1/2-y,1/2-z
1/2+x,y,1/2-z
1/2-x,1/2+y,1/2+z
1/2+x,-y,1/2+z
loop_
_atom_site_type_symbol
_atom_site_label
_atom_site_fract_x
_atom_site_fract_y
_atom_site_fract_z
Si Si1 0.377834 0.564369 0.618407
Si Si2 0.927705 0.574129 0.559042
Si Si3 0.681178 0.434874 0.262476
Si Si4 0.000000 0.933851 0.064116
Si Si5 0.753305 0.433731 0.061177
Si Si6 0.344884 0.930427 0.146592
O O1 0.385648 0.750000 0.619998
O O2 0.351925 0.513918 0.680004
O O3 0.439991 0.490416 0.597277
O O4 0.322945 0.528892 0.575538
O O5 0.908119 0.500000 0.500000
O O6 0.905534 0.750000 0.564157
O O7 0.902249 0.469828 0.608391
O O8 0.000000 0.577269 0.559791
O O9 0.684235 0.250000 0.265990
O O10 0.750000 0.490545 0.250000
O O11 0.647184 0.487471 0.206455
O O12 0.000000 0.750000 0.060874
O O13 0.000000 0.000000 0.000000
O O14 0.747053 0.250000 0.061302
O O15 0.711278 0.500729 0.110822
O O16 0.736974 0.500000 0.000000
O O17 0.336252 0.750000 0.154187
#
# Coordination Sequence:
#
# PCOD9538727 Si02
#       6
#    16  16  16   8  16  16
#     4  10  22  42  68  93 123 163 209 259 315 375
#     4  10  21  39  62  86 116 156 200 248 302 359
#     4  10  20  41  67  91 120 159 202 248 305 367
#     4  12  26  44  68  96 132 170 215 266 321 384
#     4  11  22  38  60  90 123 158 201 253 308 368
#     4  12  24  37  58  89 124 161 200 249 302 364
#
# _framework density 19.351379999999999
#
# number of rings (size 3 to 8) (size 9 to 14) (size 15 to 20)
#    0.000    1.273    1.818    4.636    0.000    5.091 
#    1.636    0.000    0.000    0.000    0.000    0.000 
#    0.000    0.000    0.000    0.000    0.000    0.000 
#
# Total GULP energy -245860.665139 kJ/mol
# GULP energy per Si atom -5587.742390 kJ/mol
# Density = 1.930733 g / cm^3
# Si number density = 19.351380 Si / 1000 Ang^3
#
#
#
# Elastic Constant Matrix: (Units=GPa)
#
#
# Indices 1 2 3 4 5 6 
#
# 1 105.3547 33.0584 54.7180 0.0000 0.0000 0.0000
# 2 33.0584 30.9572 12.6417 0.0000 0.0000 0.0000
# 3 54.7180 12.6417 138.0935 0.0000 0.0000 0.0000
# 4 0.0000 0.0000 0.0000 30.3434 0.0000 0.0000
# 5 0.0000 0.0000 0.0000 0.0000 18.4599 0.0000
# 6 0.0000 0.0000 0.0000 0.0000 0.0000 19.6323
#
#
#
# Elastic Compliance Matrix: (Units=1/GPa)
#
#
# Indices 1 2 3 4 5 6 
#
# 1 0.017461 -0.016435 -0.005414 0.000000 0.000000 0.000000
# 2 -0.016435 0.049026 0.002024 0.000000 0.000000 0.000000
# 3 -0.005414 0.002024 0.009201 0.000000 0.000000 0.000000
# 4 0.000000 0.000000 0.000000 0.032956 0.000000 0.000000
# 5 0.000000 0.000000 0.000000 0.000000 0.054172 0.000000
# 6 0.000000 0.000000 0.000000 0.000000 0.000000 0.050936
#
#
# Mechanical properties :
#
#
# Convention : Reuss Voigt Hill
#
# Bulk Modulus (GPa) = 27.74794 52.80463 40.27628
# Shear Modulus (GPa) = 18.83844 25.28628 22.06236
#
# Velocity S-wave (km/s) = 3.12347 3.61874 3.38019
# Velocity P-wave (km/s) = 5.23242 6.69379 6.00771
#
# Compressibility (1/GPa) = 0.03603872
#
# Stress axis : x y z
#
# Youngs Moduli (GPa) = 57.27197 20.39722 108.67869
#
# Poissons Ratio (x) = 0.33522 0.58839
# Poissons Ratio (y) = 0.94125 -0.21997
# Poissons Ratio (z) = 0.31007 -0.04128
#
# Static dielectric constant tensor:
#      x y z
#    x 1.695730 0.000000 0.000000 
#    y 0.000000 1.660500 0.000000 
#    z 0.000000 0.000000 1.608810 
# 
# From -- ./inp_files/61409.got.cif
#   From: 2010.05.17/outbox.cif.g08.bks.cpg/sg74_31_cif.got.tgz:61409.got - 2010.06.03 17:57:02.
