data_PCOD9538688
_publ_section_title
;
Structure prediction by ZEFSAII (Michael W. Deem and Ramdas Pophale) SiO2 
 PCOD9538688
Probable space group: I M M A
;
_chemical_formula_sum "Si O2"
_cell_formula_units_Z 60
_cell_length_a 10.747057
_cell_length_b 12.137812
_cell_length_c 25.802530
_cell_angle_alpha 90.000000
_cell_angle_beta 90.000000
_cell_angle_gamma 90.000000
_cell_volume 3365.830569
_symmetry_space_group_name_H-M "I M M A"
_symmetry_group_IT_number 74
_symmetry_cell_setting 'orthorhombic'
loop_
_space_group_symop_operation_xyz
x,y,z
-x,1/2-y,z
x,-y,-z
-x,1/2+y,-z
-x,-y,-z
x,1/2+y,-z
-x,y,z
x,1/2-y,z
1/2+x,1/2+y,1/2+z
1/2-x,-y,1/2+z
1/2+x,1/2-y,1/2-z
1/2-x,y,1/2-z
1/2-x,1/2-y,1/2-z
1/2+x,y,1/2-z
1/2-x,1/2+y,1/2+z
1/2+x,-y,1/2+z
loop_
_atom_site_type_symbol
_atom_site_label
_atom_site_fract_x
_atom_site_fract_y
_atom_site_fract_z
Si Si1 0.250000 0.003611 0.750000
Si Si2 0.000000 0.376511 0.404203
Si Si3 0.500000 0.124623 0.220695
Si Si4 0.000000 0.750000 0.460412
Si Si5 0.143044 0.881673 0.150569
Si Si6 0.800690 0.546685 0.446452
O O1 0.222972 0.074852 0.801125
O O2 0.374212 0.933517 0.760410
O O3 0.883148 0.446022 0.423893
O O4 0.000000 0.250000 0.425269
O O5 0.000000 0.374790 0.342036
O O6 0.500000 0.250000 0.239114
O O7 0.108789 0.848706 0.456764
O O8 0.145838 0.750000 0.151208
O O9 0.201198 0.922106 0.096903
O O10 0.000000 0.918176 0.156398
O O11 0.746946 0.500000 0.500000
#
# Coordination Sequence:
#
# PCOD9538688 Si02
#       6
#     8   8   8   4  16  16
#     4  12  22  44  64  94 128 164 212 260 320 376
#     4  10  21  36  59  93 125 159 201 245 308 366
#     4  11  23  39  65  92 127 167 205 255 308 379
#     4  10  20  40  62  98 124 158 208 258 322 368
#     4  11  24  43  64  90 122 165 212 262 316 378
#     4  11  23  37  64  91 127 162 200 266 307 375
#
# _framework density 17.82621
#
# number of rings (size 3 to 8) (size 9 to 14) (size 15 to 20)
#    0.000    1.067    5.333    2.400    3.733    0.533 
#    0.000    0.000    0.000    0.000    0.000    0.000 
#    0.000    0.000    0.000    0.000    0.000    0.000 
#
# Total GULP energy -167013.406285 kJ/mol
# GULP energy per Si atom -5567.113543 kJ/mol
# Density = 1.778564 g / cm^3
# Si number density = 17.826210 Si / 1000 Ang^3
#
#
#
# Elastic Constant Matrix: (Units=GPa)
#
#
# Indices 1 2 3 4 5 6 
#
# 1 115.2295 50.4244 48.4627 0.0000 0.0000 0.0000
# 2 50.4244 127.4419 40.9884 0.0000 0.0000 0.0000
# 3 48.4627 40.9884 117.1764 0.0000 0.0000 0.0000
# 4 0.0000 0.0000 0.0000 18.7014 0.0000 0.0000
# 5 0.0000 0.0000 0.0000 0.0000 20.1703 0.0000
# 6 0.0000 0.0000 0.0000 0.0000 0.0000 20.7355
#
#
#
# Elastic Compliance Matrix: (Units=1/GPa)
#
#
# Indices 1 2 3 4 5 6 
#
# 1 0.011726 -0.003470 -0.003636 0.000000 0.000000 0.000000
# 2 -0.003470 0.009868 -0.002017 0.000000 0.000000 0.000000
# 3 -0.003636 -0.002017 0.010743 0.000000 0.000000 0.000000
# 4 0.000000 0.000000 0.000000 0.053472 0.000000 0.000000
# 5 0.000000 0.000000 0.000000 0.000000 0.049578 0.000000
# 6 0.000000 0.000000 0.000000 0.000000 0.000000 0.048226
#
#
# Mechanical properties :
#
#
# Convention : Reuss Voigt Hill
#
# Bulk Modulus (GPa) = 70.96143 71.06652 71.01398
# Shear Modulus (GPa) = 24.20640 26.58626 25.39633
#
# Velocity S-wave (km/s) = 3.68898 3.86607 3.77856
# Velocity P-wave (km/s) = 7.61830 7.73832 7.67855
#
# Compressibility (1/GPa) = 0.01409216
#
# Stress axis : x y z
#
# Youngs Moduli (GPa) = 85.28016 101.33367 93.08083
#
# Poissons Ratio (x) = 0.35165 0.33843
# Poissons Ratio (y) = 0.29594 0.18772
# Poissons Ratio (z) = 0.31007 0.20436
#
# Static dielectric constant tensor:
#      x y z
#    x 1.583260 0.000000 0.000000 
#    y 0.000000 1.597320 0.000000 
#    z 0.000000 0.000000 1.652300 
# 
# From -- ./inp_files/58281.got.cif
#   From: 2010.05.17/outbox.cif.g08.bks.cpg/sg74_30_cif.got.tgz:58281.got - 2010.06.03 17:57:02.
