data_PCOD9538391
_publ_section_title
;
Structure prediction by ZEFSAII (Michael W. Deem and Ramdas Pophale) SiO2 
 PCOD9538391
Probable space group: I M M A
;
_chemical_formula_sum "Si O2"
_cell_formula_units_Z 64
_cell_length_a 13.499569
_cell_length_b 10.501354
_cell_length_c 24.760096
_cell_angle_alpha 90.000000
_cell_angle_beta 90.000000
_cell_angle_gamma 90.000000
_cell_volume 3510.084132
_symmetry_space_group_name_H-M "I M M A"
_symmetry_group_IT_number 74
_symmetry_cell_setting 'orthorhombic'
loop_
_space_group_symop_operation_xyz
x,y,z
-x,1/2-y,z
x,-y,-z
-x,1/2+y,-z
-x,-y,-z
x,1/2+y,-z
-x,y,z
x,1/2-y,z
1/2+x,1/2+y,1/2+z
1/2-x,-y,1/2+z
1/2+x,1/2-y,1/2-z
1/2-x,y,1/2-z
1/2-x,1/2-y,1/2-z
1/2+x,y,1/2-z
1/2-x,1/2+y,1/2+z
1/2+x,-y,1/2+z
loop_
_atom_site_type_symbol
_atom_site_label
_atom_site_fract_x
_atom_site_fract_y
_atom_site_fract_z
Si Si1 0.765891 0.481372 0.438036
Si Si2 0.610452 0.250000 0.699288
Si Si3 0.333707 0.250000 0.579611
Si Si4 0.387592 0.598326 0.836808
Si Si5 0.250000 0.538580 0.250000
Si Si6 0.385698 0.750000 0.544107
O O1 0.799352 0.500000 0.500000
O O2 0.728618 0.619794 0.419729
O O3 0.848660 0.435525 0.396523
O O4 0.677096 0.375571 0.438676
O O5 0.500000 0.250000 0.722080
O O6 0.605915 0.250000 0.634602
O O7 0.672151 0.128506 0.719114
O O8 0.386828 0.250000 0.521393
O O9 0.500000 0.551119 0.828517
O O10 0.387847 0.750000 0.831334
O O11 0.311551 0.541677 0.793423
O O12 0.500000 0.750000 0.563326
#
# Coordination Sequence:
#
# PCOD9538391 Si02
#       6
#    16   8   8  16   8   8
#     4  10  21  39  62  90 126 158 201 252 300 362
#     4  11  22  36  61  89 118 159 198 242 304 368
#     4  10  20  37  58  89 125 157 196 244 299 359
#     4  11  23  42  66  88 117 161 207 255 308 363
#     4  11  23  42  58  86 125 153 202 258 304 360
#     4  10  21  37  60  89 125 164 201 246 302 363
#
# _framework density 18.233180999999998
#
# number of rings (size 3 to 8) (size 9 to 14) (size 15 to 20)
#    0.000    1.500    3.750    1.500    0.000    6.000 
#    0.000    1.875    0.000    0.000    0.000    0.000 
#    0.000    0.000    0.000    0.000    0.000    0.000 
#
# Total GULP energy -178556.718530 kJ/mol
# GULP energy per Si atom -5579.897454 kJ/mol
# Density = 1.819168 g / cm^3
# Si number density = 18.233181 Si / 1000 Ang^3
#
#
#
# Elastic Constant Matrix: (Units=GPa)
#
#
# Indices 1 2 3 4 5 6 
#
# 1 147.3921 55.3828 63.5358 0.0000 0.0000 0.0000
# 2 55.3828 114.9888 35.5661 0.0000 0.0000 0.0000
# 3 63.5358 35.5661 101.2566 0.0000 0.0000 0.0000
# 4 0.0000 0.0000 0.0000 95.7488 0.0000 0.0000
# 5 0.0000 0.0000 0.0000 0.0000 12.1470 0.0000
# 6 0.0000 0.0000 0.0000 0.0000 0.0000 22.5174
#
#
#
# Elastic Compliance Matrix: (Units=1/GPa)
#
#
# Indices 1 2 3 4 5 6 
#
# 1 0.010324 -0.003331 -0.005308 0.000000 0.000000 0.000000
# 2 -0.003331 0.010831 -0.001714 0.000000 0.000000 0.000000
# 3 -0.005308 -0.001714 0.013809 0.000000 0.000000 0.000000
# 4 0.000000 0.000000 0.000000 0.010444 0.000000 0.000000
# 5 0.000000 0.000000 0.000000 0.000000 0.082325 0.000000
# 6 0.000000 0.000000 0.000000 0.000000 0.000000 0.044410
#
#
# Mechanical properties :
#
#
# Convention : Reuss Voigt Hill
#
# Bulk Modulus (GPa) = 70.13957 74.73413 72.43685
# Shear Modulus (GPa) = 25.30325 40.02615 32.66470
#
# Velocity S-wave (km/s) = 3.72930 4.69042 4.23720
# Velocity P-wave (km/s) = 7.55614 8.39109 7.98453
#
# Compressibility (1/GPa) = 0.01425729
#
# Stress axis : x y z
#
# Youngs Moduli (GPa) = 96.85775 92.32788 72.41684
#
# Poissons Ratio (x) = 0.30752 0.38442
# Poissons Ratio (y) = 0.32261 0.12415
# Poissons Ratio (z) = 0.51416 0.15829
#
# Static dielectric constant tensor:
#      x y z
#    x 1.605250 0.000000 0.000000 
#    y 0.000000 1.611560 0.000000 
#    z 0.000000 0.000000 1.614910 
# 
# From -- ./inp_files/59559.got.cif
#   From: 2010.05.17/outbox.cif.g08.bks.cpg/sg74_30_cif.got.tgz:59559.got - 2010.06.03 17:57:02.
