data_PCOD9538317
_publ_section_title
;
Structure prediction by ZEFSAII (Michael W. Deem and Ramdas Pophale) SiO2 
 PCOD9538317
Probable space group: I M M A
;
_chemical_formula_sum "Si O2"
_cell_formula_units_Z 96
_cell_length_a 21.506201
_cell_length_b 11.800673
_cell_length_c 20.773262
_cell_angle_alpha 90.000000
_cell_angle_beta 90.000000
_cell_angle_gamma 90.000000
_cell_volume 5271.997252
_symmetry_space_group_name_H-M "I M M A"
_symmetry_group_IT_number 74
_symmetry_cell_setting 'orthorhombic'
loop_
_space_group_symop_operation_xyz
x,y,z
-x,1/2-y,z
x,-y,-z
-x,1/2+y,-z
-x,-y,-z
x,1/2+y,-z
-x,y,z
x,1/2-y,z
1/2+x,1/2+y,1/2+z
1/2-x,-y,1/2+z
1/2+x,1/2-y,1/2-z
1/2-x,y,1/2-z
1/2-x,1/2-y,1/2-z
1/2+x,y,1/2-z
1/2-x,1/2+y,1/2+z
1/2+x,-y,1/2+z
loop_
_atom_site_type_symbol
_atom_site_label
_atom_site_fract_x
_atom_site_fract_y
_atom_site_fract_z
Si Si1 0.740318 0.121023 0.389381
Si Si2 0.159937 0.500000 0.000000
Si Si3 0.070793 0.884778 0.094423
Si Si4 0.869066 0.877364 0.537975
Si Si5 0.500000 0.445353 0.070406
Si Si6 0.000000 0.384559 0.685961
Si Si7 0.622528 0.614031 0.268744
Si Si8 0.250000 0.490442 0.250000
O O1 0.717276 0.250000 0.391387
O O2 0.701872 0.050340 0.442568
O O3 0.811345 0.119133 0.413883
O O4 0.739745 0.077726 0.316226
O O5 0.113716 0.411467 0.966168
O O6 0.065972 0.750000 0.101693
O O7 0.104818 0.926768 0.159317
O O8 0.000000 0.929525 0.089201
O O9 0.865060 0.750000 0.504437
O O10 0.935382 0.879212 0.573535
O O11 0.865595 0.000000 0.500000
O O12 0.500000 0.545603 0.121201
O O13 0.500000 0.500000 0.000000
O O14 0.062362 0.412166 0.725529
O O15 0.000000 0.250000 0.674095
O O16 0.629136 0.750000 0.270319
O O17 0.686806 0.563094 0.243579
#
# Coordination Sequence:
#
# PCOD9538317 Si02
#       8
#    16   8  16  16   8   8  16   8
#     4  11  24  40  60  86 121 163 207 253 312 374
#     4  12  21  40  62  93 120 160 208 250 314 371
#     4  10  20  37  62  92 125 157 195 249 310 370
#     4  10  21  39  60  87 118 160 206 258 315 371
#     4  10  21  35  55  84 115 154 201 254 306 367
#     4  10  20  37  60  85 121 160 205 253 316 381
#     4  10  20  36  60  90 120 157 202 253 309 374
#     4  12  22  40  58  86 122 160 208 252 308 370
#
# _framework density 18.209417999999999
#
# number of rings (size 3 to 8) (size 9 to 14) (size 15 to 20)
#    0.000    1.500    3.333    2.500    0.000    2.667 
#    0.000    1.667    0.000    0.000    0.000    0.000 
#    0.000    0.000    0.000    0.000    0.000    0.000 
#
# Total GULP energy -267388.885093 kJ/mol
# GULP energy per Si atom -5570.601773 kJ/mol
# Density = 1.816797 g / cm^3
# Si number density = 18.209418 Si / 1000 Ang^3
#
#
#
# Elastic Constant Matrix: (Units=GPa)
#
#
# Indices 1 2 3 4 5 6 
#
# 1 126.1687 44.1839 42.0754 0.0000 0.0000 0.0000
# 2 44.1839 72.2338 49.1807 0.0000 0.0000 0.0000
# 3 42.0754 49.1807 117.7384 0.0000 0.0000 0.0000
# 4 0.0000 0.0000 0.0000 33.5348 0.0000 0.0000
# 5 0.0000 0.0000 0.0000 0.0000 10.9991 0.0000
# 6 0.0000 0.0000 0.0000 0.0000 0.0000 25.9612
#
#
#
# Elastic Compliance Matrix: (Units=1/GPa)
#
#
# Indices 1 2 3 4 5 6 
#
# 1 0.010263 -0.005283 -0.001461 0.000000 0.000000 0.000000
# 2 -0.005283 0.022066 -0.007329 0.000000 0.000000 0.000000
# 3 -0.001461 -0.007329 0.012077 0.000000 0.000000 0.000000
# 4 0.000000 0.000000 0.000000 0.029820 0.000000 0.000000
# 5 0.000000 0.000000 0.000000 0.000000 0.090917 0.000000
# 6 0.000000 0.000000 0.000000 0.000000 0.000000 0.038519
#
#
# Mechanical properties :
#
#
# Convention : Reuss Voigt Hill
#
# Bulk Modulus (GPa) = 61.50231 65.22452 63.36341
# Shear Modulus (GPa) = 21.07687 26.14576 23.61132
#
# Velocity S-wave (km/s) = 3.40585 3.79336 3.60482
# Velocity P-wave (km/s) = 7.02245 7.42179 7.22488
#
# Compressibility (1/GPa) = 0.01625955
#
# Stress axis : x y z
#
# Youngs Moduli (GPa) = 97.43538 45.31957 82.80288
#
# Poissons Ratio (x) = 0.23943 0.12096
# Poissons Ratio (y) = 0.51477 0.60686
# Poissons Ratio (z) = 0.14234 0.33215
#
# Static dielectric constant tensor:
#      x y z
#    x 1.642090 0.000000 0.000000 
#    y 0.000000 1.653220 0.000000 
#    z 0.000000 0.000000 1.615610 
# 
# From -- ./inp_files/53931.got.cif
#   From: 2010.05.17/outbox.cif.g08.bks.cpg/sg74_27_cif.got.tgz:53931.got - 2010.06.03 17:57:02.
