data_PCOD9538696
_publ_section_title
;
Structure prediction by ZEFSAII (Michael W. Deem and Ramdas Pophale) SiO2 
 PCOD9538696
Probable space group: I M M A
;
_chemical_formula_sum "Si O2"
_cell_formula_units_Z 96
_cell_length_a 17.667041
_cell_length_b 26.588318
_cell_length_c 11.668696
_cell_angle_alpha 90.000000
_cell_angle_beta 90.000000
_cell_angle_gamma 90.000000
_cell_volume 5481.217135
_symmetry_space_group_name_H-M "I M M A"
_symmetry_group_IT_number 74
_symmetry_cell_setting 'orthorhombic'
loop_
_space_group_symop_operation_xyz
x,y,z
-x,1/2-y,z
x,-y,-z
-x,1/2+y,-z
-x,-y,-z
x,1/2+y,-z
-x,y,z
x,1/2-y,z
1/2+x,1/2+y,1/2+z
1/2-x,-y,1/2+z
1/2+x,1/2-y,1/2-z
1/2-x,y,1/2-z
1/2-x,1/2-y,1/2-z
1/2+x,y,1/2-z
1/2-x,1/2+y,1/2+z
1/2+x,-y,1/2+z
loop_
_atom_site_type_symbol
_atom_site_label
_atom_site_fract_x
_atom_site_fract_y
_atom_site_fract_z
Si Si1 0.134293 0.946545 0.065596
Si Si2 0.212037 0.891586 0.465369
Si Si3 0.782474 0.309279 0.121210
Si Si4 0.587634 0.941414 0.174827
Si Si5 0.085024 0.114903 0.144449
Si Si6 0.173354 0.458900 0.316763
O O1 0.213851 0.918258 0.086883
O O2 0.093838 0.947486 0.187581
O O3 0.087387 0.913431 0.976562
O O4 0.145829 0.000000 0.000000
O O5 0.234995 0.838099 0.521794
O O6 0.141273 0.898166 0.379690
O O7 0.195831 0.924956 0.577154
O O8 0.785549 0.250000 0.099810
O O9 0.750000 0.317459 0.250000
O O10 0.863875 0.336011 0.128037
O O11 0.500000 0.936191 0.141167
O O12 0.625683 0.994099 0.138923
O O13 0.125444 0.076315 0.231513
O O14 0.000000 0.125591 0.181551
O O15 0.250000 0.475256 0.250000
#
# Coordination Sequence:
#
# PCOD9538696 Si02
#       6
#    16  16  16  16  16  16
#     4  11  20  36  57  78 113 159 205 233 275 351
#     4  11  21  37  57  82 111 157 192 242 296 355
#     4  10  20  40  64  85 109 147 201 249 298 361
#     4  12  25  34  51  84 122 160 197 239 286 349
#     4  11  21  33  57  87 118 148 184 244 303 345
#     4  12  19  36  55  82 117 163 194 225 283 363
#
# _framework density 17.514358000000001
#
# number of rings (size 3 to 8) (size 9 to 14) (size 15 to 20)
#    0.000    0.833    6.667    4.000    0.000    3.000 
#    0.000    0.000    0.000    8.500    0.000    0.000 
#    0.000    0.000    0.000    0.000    0.000    0.000 
#
# Total GULP energy -267898.009019 kJ/mol
# GULP energy per Si atom -5581.208521 kJ/mol
# Density = 1.747449 g / cm^3
# Si number density = 17.514358 Si / 1000 Ang^3
#
#
#
# Elastic Constant Matrix: (Units=GPa)
#
#
# Indices 1 2 3 4 5 6 
#
# 1 136.0962 48.8218 19.5480 0.0000 0.0000 0.0000
# 2 48.8218 111.9403 23.7858 0.0000 0.0000 0.0000
# 3 19.5480 23.7858 53.0583 0.0000 0.0000 0.0000
# 4 0.0000 0.0000 0.0000 23.6763 0.0000 0.0000
# 5 0.0000 0.0000 0.0000 0.0000 14.2869 0.0000
# 6 0.0000 0.0000 0.0000 0.0000 0.0000 11.0093
#
#
#
# Elastic Compliance Matrix: (Units=1/GPa)
#
#
# Indices 1 2 3 4 5 6 
#
# 1 0.008846 -0.003499 -0.001690 0.000000 0.000000 0.000000
# 2 -0.003499 0.011258 -0.003758 0.000000 0.000000 0.000000
# 3 -0.001690 -0.003758 0.021155 0.000000 0.000000 0.000000
# 4 0.000000 0.000000 0.000000 0.042236 0.000000 0.000000
# 5 0.000000 0.000000 0.000000 0.000000 0.069994 0.000000
# 6 0.000000 0.000000 0.000000 0.000000 0.000000 0.090833
#
#
# Mechanical properties :
#
#
# Convention : Reuss Voigt Hill
#
# Bulk Modulus (GPa) = 42.80091 53.93400 48.36746
# Shear Modulus (GPa) = 18.51831 23.72378 21.12105
#
# Velocity S-wave (km/s) = 3.25518 3.68439 3.47641
# Velocity P-wave (km/s) = 6.21441 6.99719 6.61738
#
# Compressibility (1/GPa) = 0.02336399
#
# Stress axis : x y z
#
# Youngs Moduli (GPa) = 113.04970 88.82758 47.27108
#
# Poissons Ratio (x) = 0.31079 0.07991
# Poissons Ratio (y) = 0.39553 0.17763
# Poissons Ratio (z) = 0.19111 0.33379
#
# Static dielectric constant tensor:
#      x y z
#    x 1.632380 0.000000 0.000000 
#    y 0.000000 1.581390 0.000000 
#    z 0.000000 0.000000 1.626310 
# 
# From -- ./inp_files/22470.got.cif
#   From: 2010.05.17/outbox.cif.g08.bks.cpg/sg74_12_cif.got.tgz:22470.got - 2010.06.03 17:57:02.
