data_PCOD9538388
_publ_section_title
;
Structure prediction by ZEFSAII (Michael W. Deem and Ramdas Pophale) SiO2 
 PCOD9538388
Probable space group: I M M A
;
_chemical_formula_sum "Si O2"
_cell_formula_units_Z 112
_cell_length_a 15.992014
_cell_length_b 32.220610
_cell_length_c 9.459559
_cell_angle_alpha 90.000000
_cell_angle_beta 90.000000
_cell_angle_gamma 90.000000
_cell_volume 4874.250106
_symmetry_space_group_name_H-M "I M M A"
_symmetry_group_IT_number 74
_symmetry_cell_setting 'orthorhombic'
loop_
_space_group_symop_operation_xyz
x,y,z
-x,1/2-y,z
x,-y,-z
-x,1/2+y,-z
-x,-y,-z
x,1/2+y,-z
-x,y,z
x,1/2-y,z
1/2+x,1/2+y,1/2+z
1/2-x,-y,1/2+z
1/2+x,1/2-y,1/2-z
1/2-x,y,1/2-z
1/2-x,1/2-y,1/2-z
1/2+x,y,1/2-z
1/2-x,1/2+y,1/2+z
1/2+x,-y,1/2+z
loop_
_atom_site_type_symbol
_atom_site_label
_atom_site_fract_x
_atom_site_fract_y
_atom_site_fract_z
Si Si1 0.783281 0.833909 0.096977
Si Si2 0.650276 0.797753 0.928716
Si Si3 0.846582 0.882218 0.705892
Si Si4 0.406543 0.518977 0.159293
Si Si5 0.404989 0.550487 0.594335
Si Si6 0.096761 0.204921 0.751290
Si Si7 0.731582 0.927470 0.047207
O O1 0.750000 0.817516 0.250000
O O2 0.747412 0.807769 0.967250
O O3 0.878856 0.828024 0.129642
O O4 0.757868 0.881181 0.088859
O O5 0.637467 0.750000 0.884085
O O6 0.612860 0.804107 0.085790
O O7 0.620730 0.836896 0.837290
O O8 0.750000 0.876450 0.750000
O O9 0.897255 0.905293 0.826712
O O10 0.833979 0.915681 0.579552
O O11 0.500000 0.538094 0.172594
O O12 0.399561 0.484928 0.283921
O O13 0.402987 0.500000 0.000000
O O14 0.326603 0.549194 0.159822
O O15 0.500000 0.547169 0.531341
O O16 0.317545 0.549940 0.504190
O O17 0.135563 0.250000 0.785149
O O18 0.000000 0.208973 0.760326
#
# Coordination Sequence:
#
# PCOD9538388 Si02
#       7
#    16  16  16  16  16  16  16
#     4   9  18  34  52  79 110 147 194 231 286 349
#     4   9  17  30  50  75 107 144 187 239 287 333
#     4   9  18  32  51  80 107 141 187 229 286 342
#     4  10  20  37  63  91 111 146 200 240 288 356
#     4  10  21  38  61  87 116 153 193 238 294 354
#     4   9  17  30  50  77 110 150 194 239 285 337
#     4  10  20  37  58  87 114 149 191 243 293 345
#
# _framework density 22.977893000000002
#
# number of rings (size 3 to 8) (size 9 to 14) (size 15 to 20)
#    0.000    2.571    1.429    0.429    0.000    3.143 
#    2.571    5.714    0.000    1.286    0.000    0.000 
#    0.000    0.000    0.000    0.000    0.000    0.000 
#
# Total GULP energy -311865.805982 kJ/mol
# GULP energy per Si atom -5569.032250 kJ/mol
# Density = 2.292559 g / cm^3
# Si number density = 22.977893 Si / 1000 Ang^3
#
#
#
# Elastic Constant Matrix: (Units=GPa)
#
#
# Indices 1 2 3 4 5 6 
#
# 1 108.9848 68.5248 17.7702 -0.0007 0.0004 -0.0001
# 2 68.5248 111.7728 27.2338 -0.0038 0.0019 0.0015
# 3 17.7702 27.2338 40.0159 -0.0139 0.0066 0.0040
# 4 -0.0007 -0.0038 -0.0139 32.6252 0.0013 0.0044
# 5 0.0004 0.0019 0.0066 0.0013 14.7806 0.0008
# 6 -0.0001 0.0015 0.0040 0.0044 0.0008 19.4113
#
#
#
# Elastic Compliance Matrix: (Units=1/GPa)
#
#
# Indices 1 2 3 4 5 6 
#
# 1 0.014939 -0.009041 -0.000481 -0.000001 0.000001 0.000001
# 2 -0.009041 0.016197 -0.007008 -0.000001 0.000001 0.000000
# 3 -0.000481 -0.007008 0.029973 0.000012 -0.000013 -0.000006
# 4 -0.000001 -0.000001 0.000012 0.030651 -0.000003 -0.000007
# 5 0.000001 0.000001 -0.000013 -0.000003 0.067656 -0.000003
# 6 0.000001 0.000000 -0.000006 -0.000007 -0.000003 0.051516
#
#
# Mechanical properties :
#
#
# Convention : Reuss Voigt Hill
#
# Bulk Modulus (GPa) = 35.65256 54.20346 44.92801
# Shear Modulus (GPa) = 19.73604 23.17975 21.45789
#
# Velocity S-wave (km/s) = 2.93390 3.17958 3.05921
# Velocity P-wave (km/s) = 5.19873 6.09264 5.66335
#
# Compressibility (1/GPa) = 0.02804848
#
# Stress axis : x y z
#
# Youngs Moduli (GPa) = 66.93961 61.73821 33.36308
#
# Poissons Ratio (x) = 0.55821 0.01603
# Poissons Ratio (y) = 0.60523 0.23382
# Poissons Ratio (z) = 0.03217 0.43269
#
# Static dielectric constant tensor:
#      x y z
#    x 2.305260 0.000000 0.000000 
#    y 0.000000 1.985750 0.000000 
#    z 0.000000 0.000000 1.954180 
# 
# From -- ./inp_files/21110.got.cif
#   From: 2010.05.17/outbox.cif.g08.bks.cpg/sg74_11_cif.got.tgz:21110.got - 2010.06.03 17:57:02.
