data_PCOD9538338
_publ_section_title
;
Structure prediction by ZEFSAII (Michael W. Deem and Ramdas Pophale) SiO2 
 PCOD9538338
Probable space group: I M M A
;
_chemical_formula_sum "Si O2"
_cell_formula_units_Z 92
_cell_length_a 14.766066
_cell_length_b 14.257477
_cell_length_c 22.196872
_cell_angle_alpha 90.000000
_cell_angle_beta 90.000000
_cell_angle_gamma 90.000000
_cell_volume 4673.037462
_symmetry_space_group_name_H-M "I M M A"
_symmetry_group_IT_number 74
_symmetry_cell_setting 'orthorhombic'
loop_
_space_group_symop_operation_xyz
x,y,z
-x,1/2-y,z
x,-y,-z
-x,1/2+y,-z
-x,-y,-z
x,1/2+y,-z
-x,y,z
x,1/2-y,z
1/2+x,1/2+y,1/2+z
1/2-x,-y,1/2+z
1/2+x,1/2-y,1/2-z
1/2-x,y,1/2-z
1/2-x,1/2-y,1/2-z
1/2+x,y,1/2-z
1/2-x,1/2+y,1/2+z
1/2+x,-y,1/2+z
loop_
_atom_site_type_symbol
_atom_site_label
_atom_site_fract_x
_atom_site_fract_y
_atom_site_fract_z
Si Si1 0.724297 0.859330 0.896869
Si Si2 0.676795 0.860336 0.033296
Si Si3 0.500000 0.250000 0.259703
Si Si4 0.649502 0.479923 0.567426
Si Si5 0.000000 0.859049 0.134138
Si Si6 0.000000 0.138175 0.600161
Si Si7 0.500000 0.929952 0.235401
Si Si8 0.854389 0.589640 0.727734
O O1 0.749051 0.750000 0.888514
O O2 0.658275 0.889451 0.843316
O O3 0.813568 0.924871 0.901654
O O4 0.674656 0.868589 0.961192
O O5 0.688874 0.750000 0.047100
O O6 0.761999 0.918018 0.055584
O O7 0.588899 0.897932 0.066775
O O8 0.419346 0.168595 0.255979
O O9 0.611533 0.500000 0.500000
O O10 0.583807 0.418285 0.607829
O O11 0.000000 0.750000 0.114638
O O12 0.000000 0.864798 0.206242
O O13 0.000000 0.250000 0.590305
O O14 0.000000 0.118864 0.670668
O O15 0.409577 0.994062 0.237676
O O16 0.750000 0.589016 0.750000
#
# Coordination Sequence:
#
# PCOD9538338 Si02
#       8
#    16  16   4  16   8   8   8  16
#     4  10  20  36  61  90 124 165 202 251 311 386
#     4   9  19  36  59  91 124 160 204 258 322 382
#     4  10  22  34  56  86 112 160 214 238 296 374
#     4  10  21  40  64  93 124 157 204 257 314 373
#     4  12  25  44  67  90 120 165 213 268 315 362
#     4  10  20  37  59  88 125 163 203 261 317 376
#     4  11  25  39  59  91 120 165 219 261 311 376
#     4  11  22  40  59  84 125 165 208 257 309 370
#
# _framework density 19.687408999999999
#
# number of rings (size 3 to 8) (size 9 to 14) (size 15 to 20)
#    0.000    1.739    0.870    3.391    0.000    2.087 
#    1.565    5.217    0.000    5.217    0.000    0.000 
#    0.000    0.000    0.000    0.000    0.000    0.000 
#
# Total GULP energy -256324.469140 kJ/mol
# GULP energy per Si atom -5572.271068 kJ/mol
# Density = 1.964260 g / cm^3
# Si number density = 19.687409 Si / 1000 Ang^3
#
#
#
# Elastic Constant Matrix: (Units=GPa)
#
#
# Indices 1 2 3 4 5 6 
#
# 1 122.0050 27.6942 49.1158 0.0000 0.0000 0.0000
# 2 27.6942 82.4185 32.4429 0.0000 0.0000 0.0000
# 3 49.1158 32.4429 77.7936 0.0000 0.0000 0.0000
# 4 0.0000 0.0000 0.0000 29.3933 0.0000 0.0000
# 5 0.0000 0.0000 0.0000 0.0000 -10.2895 0.0000
# 6 0.0000 0.0000 0.0000 0.0000 0.0000 41.5993
#
#
#
# Elastic Compliance Matrix: (Units=1/GPa)
#
#
# Indices 1 2 3 4 5 6 
#
# 1 0.011082 -0.001160 -0.006513 0.000000 0.000000 0.000000
# 2 -0.001160 0.014638 -0.005372 0.000000 0.000000 0.000000
# 3 -0.006513 -0.005372 0.019207 0.000000 0.000000 0.000000
# 4 0.000000 0.000000 0.000000 0.034021 0.000000 0.000000
# 5 0.000000 0.000000 0.000000 0.000000 -0.097187 0.000000
# 6 0.000000 0.000000 0.000000 0.000000 0.000000 0.024039
#
#
# Mechanical properties :
#
#
# Convention : Reuss Voigt Hill
#
# Bulk Modulus (GPa) = 53.08871 55.63588 54.36230
# Shear Modulus (GPa) = 131.00014 23.67156 77.33585
#
# Velocity S-wave (km/s) = 8.16606 3.47128 6.27433
# Velocity P-wave (km/s) = 10.76741 6.66239 8.95334
#
# Compressibility (1/GPa) = 0.01883640
#
# Stress axis : x y z
#
# Youngs Moduli (GPa) = 90.24035 68.31715 52.06506
#
# Poissons Ratio (x) = 0.07925 0.33908
# Poissons Ratio (y) = 0.10468 0.27970
# Poissons Ratio (z) = 0.58771 0.36701
#
# Static dielectric constant tensor:
#      x y z
#    x 1.688090 0.000000 0.000000 
#    y 0.000000 1.701270 0.000000 
#    z 0.000000 0.000000 1.710020 
# 
# From -- ./inp_files/51995.got.cif
#   From: 2010.05.17/outbox.cif.g08.bks.cpg/sg74_26_cif.got.tgz:51995.got - 2010.06.03 17:57:02.
