data_PCOD9538679
_publ_section_title
;
Structure prediction by ZEFSAII (Michael W. Deem and Ramdas Pophale) SiO2 
 PCOD9538679
Probable space group: I M M A
;
_chemical_formula_sum "Si O2"
_cell_formula_units_Z 104
_cell_length_a 26.208566
_cell_length_b 22.394759
_cell_length_c 9.692451
_cell_angle_alpha 90.000000
_cell_angle_beta 90.000000
_cell_angle_gamma 90.000000
_cell_volume 5688.834069
_symmetry_space_group_name_H-M "I M M A"
_symmetry_group_IT_number 74
_symmetry_cell_setting 'orthorhombic'
loop_
_space_group_symop_operation_xyz
x,y,z
-x,1/2-y,z
x,-y,-z
-x,1/2+y,-z
-x,-y,-z
x,1/2+y,-z
-x,y,z
x,1/2-y,z
1/2+x,1/2+y,1/2+z
1/2-x,-y,1/2+z
1/2+x,1/2-y,1/2-z
1/2-x,y,1/2-z
1/2-x,1/2-y,1/2-z
1/2+x,y,1/2-z
1/2-x,1/2+y,1/2+z
1/2+x,-y,1/2+z
loop_
_atom_site_type_symbol
_atom_site_label
_atom_site_fract_x
_atom_site_fract_y
_atom_site_fract_z
Si Si1 0.662361 0.879569 0.519551
Si Si2 0.782391 0.620956 0.499312
Si Si3 0.634741 0.250000 0.372361
Si Si4 0.791620 0.250000 0.372200
Si Si5 0.939006 0.124885 0.486076
Si Si6 0.060843 0.750000 0.659086
Si Si7 0.362775 0.443957 0.198300
Si Si8 0.637546 0.086325 0.783061
O O1 0.722684 0.893432 0.505375
O O2 0.653208 0.809622 0.552826
O O3 0.641238 0.916186 0.649709
O O4 0.636313 0.896208 0.376104
O O5 0.787122 0.690204 0.540996
O O6 0.815210 0.582702 0.610062
O O7 0.810451 0.609893 0.354805
O O8 0.657490 0.250000 0.217206
O O9 0.576714 0.250000 0.321214
O O10 0.750000 0.250000 0.250000
O O11 0.925046 0.189721 0.423787
O O12 0.913535 0.078361 0.379346
O O13 0.909142 0.113376 0.628739
O O14 0.000000 0.119047 0.497892
O O15 0.000000 0.750000 0.657240
O O16 0.361678 0.514992 0.201552
#
# Coordination Sequence:
#
# PCOD9538679 Si02
#       8
#    16  16   8   8  16   8  16  16
#     4  12  23  37  59  87 124 160 195 246 302 354
#     4  11  21  37  60  84 117 163 207 247 287 348
#     4  12  20  38  61  89 117 151 195 251 299 354
#     4  12  18  35  59  87 110 150 211 254 290 343
#     4  10  21  42  69  90 111 148 199 253 302 356
#     4  10  20  39  70  93 108 143 199 254 304 353
#     4  11  22  39  61  85 118 162 208 246 284 349
#     4  11  26  38  53  90 127 161 198 239 301 358
#
# _framework density 18.281427000000001
#
# number of rings (size 3 to 8) (size 9 to 14) (size 15 to 20)
#    0.000    0.923    4.615    4.154    0.000    6.154 
#    0.000    3.077    0.000    1.846    0.000    0.000 
#    0.000    0.000    0.000    0.000    0.000    0.000 
#
# Total GULP energy -290452.556202 kJ/mol
# GULP energy per Si atom -5585.626081 kJ/mol
# Density = 1.823982 g / cm^3
# Si number density = 18.281427 Si / 1000 Ang^3
#
#
#
# Elastic Constant Matrix: (Units=GPa)
#
#
# Indices 1 2 3 4 5 6 
#
# 1 95.8851 37.1661 46.4747 0.0000 0.0000 0.0000
# 2 37.1661 102.6523 18.8466 0.0000 0.0000 0.0000
# 3 46.4747 18.8466 112.9343 0.0000 0.0000 0.0000
# 4 0.0000 0.0000 0.0000 -16.1860 0.0000 0.0000
# 5 0.0000 0.0000 0.0000 0.0000 17.4609 0.0000
# 6 0.0000 0.0000 0.0000 0.0000 0.0000 -7.8611
#
#
#
# Elastic Compliance Matrix: (Units=1/GPa)
#
#
# Indices 1 2 3 4 5 6 
#
# 1 0.014691 -0.004342 -0.005321 0.000000 0.000000 0.000000
# 2 -0.004342 0.011333 -0.000104 0.000000 0.000000 0.000000
# 3 -0.005321 -0.000104 0.011062 0.000000 0.000000 0.000000
# 4 0.000000 0.000000 0.000000 -0.061782 0.000000 0.000000
# 5 0.000000 0.000000 0.000000 0.000000 0.057271 0.000000
# 6 0.000000 0.000000 0.000000 0.000000 0.000000 -0.127209
#
#
# Mechanical properties :
#
#
# Convention : Reuss Voigt Hill
#
# Bulk Modulus (GPa) = 56.97760 57.38295 57.18027
# Shear Modulus (GPa) = -72.20432 12.61505 -29.79464
#
# Velocity S-wave (km/s) = -6.29140 2.62972 -4.04143
# Velocity P-wave (km/s) = 4.64124 6.37788 3.09325
#
# Compressibility (1/GPa) = 0.01755076
#
# Stress axis : x y z
#
# Youngs Moduli (GPa) = 68.06729 88.23870 90.40051
#
# Poissons Ratio (x) = 0.38315 0.48104
# Poissons Ratio (y) = 0.29556 0.00943
# Poissons Ratio (z) = 0.36220 0.00921
#
# Static dielectric constant tensor:
#      x y z
#    x 1.949650 0.000000 0.000000 
#    y 0.000000 1.622050 0.000000 
#    z 0.000000 0.000000 1.615030 
# 
# From -- ./inp_files/15265.got.cif
#   From: 2010.05.17/outbox.cif.g08.bks.cpg/sg74_8_cif.got.tgz:15265.got - 2010.06.03 17:57:02.
