data_PCOD9538401
_publ_section_title
;
Structure prediction by ZEFSAII (Michael W. Deem and Ramdas Pophale) SiO2 
 PCOD9538401
Probable space group: I M M A
;
_chemical_formula_sum "Si O2"
_cell_formula_units_Z 72
_cell_length_a 22.199185
_cell_length_b 8.677455
_cell_length_c 20.063349
_cell_angle_alpha 90.000000
_cell_angle_beta 90.000000
_cell_angle_gamma 90.000000
_cell_volume 3864.851649
_symmetry_space_group_name_H-M "I M M A"
_symmetry_group_IT_number 74
_symmetry_cell_setting 'orthorhombic'
loop_
_space_group_symop_operation_xyz
x,y,z
-x,1/2-y,z
x,-y,-z
-x,1/2+y,-z
-x,-y,-z
x,1/2+y,-z
-x,y,z
x,1/2-y,z
1/2+x,1/2+y,1/2+z
1/2-x,-y,1/2+z
1/2+x,1/2-y,1/2-z
1/2-x,y,1/2-z
1/2-x,1/2-y,1/2-z
1/2+x,y,1/2-z
1/2-x,1/2+y,1/2+z
1/2+x,-y,1/2+z
loop_
_atom_site_type_symbol
_atom_site_label
_atom_site_fract_x
_atom_site_fract_y
_atom_site_fract_z
Si Si1 0.141792 0.564874 0.428497
Si Si2 0.717935 0.935069 0.427586
Si Si3 0.112316 0.433656 0.158003
Si Si4 0.500000 0.565427 0.425337
Si Si5 0.570794 0.063828 0.796973
O O1 0.122432 0.500000 0.500000
O O2 0.139232 0.750000 0.431985
O O3 0.211934 0.521934 0.417634
O O4 0.101498 0.515064 0.366208
O O5 0.712984 0.750000 0.427709
O O6 0.699515 0.000000 0.500000
O O7 0.674730 0.005334 0.372129
O O8 0.109350 0.250000 0.153378
O O9 0.058565 0.506246 0.114063
O O10 0.102315 0.487971 0.233531
O O11 0.500000 0.750000 0.426746
O O12 0.500000 0.500000 0.500000
O O13 0.500000 0.025885 0.796201
O O14 0.576244 0.250000 0.791362
#
# Coordination Sequence:
#
# PCOD9538401 Si02
#       5
#    16  16  16   8  16
#     4   9  20  38  61  88 116 151 195 243 293 350
#     4  10  20  37  59  84 117 154 195 241 292 345
#     4  12  24  38  57  85 118 152 195 240 289 343
#     4  12  24  40  60  84 115 154 195 236 284 340
#     4  10  21  39  61  84 116 157 198 240 291 348
#
# _framework density 18.629435000000001
#
# number of rings (size 3 to 8) (size 9 to 14) (size 15 to 20)
#    0.000    1.556    1.111    4.333    0.000    3.111 
#    0.000    4.444    0.000    0.000    0.000    0.000 
#    0.000    0.000    0.000    0.000    0.000    0.000 
#
# Total GULP energy -201240.503042 kJ/mol
# GULP energy per Si atom -5590.013973 kJ/mol
# Density = 1.858703 g / cm^3
# Si number density = 18.629435 Si / 1000 Ang^3
#
#
#
# Elastic Constant Matrix: (Units=GPa)
#
#
# Indices 1 2 3 4 5 6 
#
# 1 64.1729 37.1963 74.8933 0.0000 0.0000 0.0000
# 2 37.1963 77.9141 56.3072 0.0000 0.0000 0.0000
# 3 74.8933 56.3072 182.9412 0.0000 0.0000 0.0000
# 4 0.0000 0.0000 0.0000 36.4958 0.0000 0.0000
# 5 0.0000 0.0000 0.0000 0.0000 52.9526 0.0000
# 6 0.0000 0.0000 0.0000 0.0000 0.0000 19.0103
#
#
#
# Elastic Compliance Matrix: (Units=1/GPa)
#
#
# Indices 1 2 3 4 5 6 
#
# 1 0.033101 -0.007728 -0.011172 0.000000 0.000000 0.000000
# 2 -0.007728 0.018311 -0.002472 0.000000 0.000000 0.000000
# 3 -0.011172 -0.002472 0.010801 0.000000 0.000000 0.000000
# 4 0.000000 0.000000 0.000000 0.027400 0.000000 0.000000
# 5 0.000000 0.000000 0.000000 0.000000 0.018885 0.000000
# 6 0.000000 0.000000 0.000000 0.000000 0.000000 0.052603
#
#
# Mechanical properties :
#
#
# Convention : Reuss Voigt Hill
#
# Bulk Modulus (GPa) = 51.36828 73.53575 62.45202
# Shear Modulus (GPa) = 23.77148 32.13381 27.95265
#
# Velocity S-wave (km/s) = 3.57601 4.15769 3.87777
# Velocity P-wave (km/s) = 6.68462 7.91246 7.32431
#
# Compressibility (1/GPa) = 0.01946727
#
# Stress axis : x y z
#
# Youngs Moduli (GPa) = 30.21017 54.61311 92.58497
#
# Poissons Ratio (x) = 0.42208 1.03440
# Poissons Ratio (y) = 0.23348 0.22886
# Poissons Ratio (z) = 0.33752 0.13500
#
# Static dielectric constant tensor:
#      x y z
#    x 1.633320 0.000000 0.000000 
#    y 0.000000 1.628520 0.000000 
#    z 0.000000 0.000000 1.614180 
# 
# From -- ./inp_files/39450.got.cif
#   From: 2010.05.17/outbox.cif.g08.bks.cpg/sg74_20_cif.got.tgz:39450.got - 2010.06.03 17:57:02.
