data_PCOD9538356
_publ_section_title
;
Structure prediction by ZEFSAII (Michael W. Deem and Ramdas Pophale) SiO2 
 PCOD9538356
Probable space group: I M M A
;
_chemical_formula_sum "Si O2"
_cell_formula_units_Z 44
_cell_length_a 9.487139
_cell_length_b 9.996706
_cell_length_c 22.601077
_cell_angle_alpha 90.000000
_cell_angle_beta 90.000000
_cell_angle_gamma 90.000000
_cell_volume 2143.489292
_symmetry_space_group_name_H-M "I M M A"
_symmetry_group_IT_number 74
_symmetry_cell_setting 'orthorhombic'
loop_
_space_group_symop_operation_xyz
x,y,z
-x,1/2-y,z
x,-y,-z
-x,1/2+y,-z
-x,-y,-z
x,1/2+y,-z
-x,y,z
x,1/2-y,z
1/2+x,1/2+y,1/2+z
1/2-x,-y,1/2+z
1/2+x,1/2-y,1/2-z
1/2-x,y,1/2-z
1/2-x,1/2-y,1/2-z
1/2+x,y,1/2-z
1/2-x,1/2+y,1/2+z
1/2+x,-y,1/2+z
loop_
_atom_site_type_symbol
_atom_site_label
_atom_site_fract_x
_atom_site_fract_y
_atom_site_fract_z
Si Si1 0.750000 0.464099 0.750000
Si Si2 0.836876 0.960665 0.874778
Si Si3 0.339898 0.750000 0.430907
Si Si4 0.000000 0.250000 0.729823
Si Si5 0.831696 0.250000 0.450308
O O1 0.794955 0.550733 0.806622
O O2 0.621908 0.367353 0.767653
O O3 0.826515 0.117568 0.891603
O O4 0.000000 0.921026 0.884293
O O5 0.734628 0.877152 0.916720
O O6 0.500000 0.750000 0.456197
O O7 0.227560 0.750000 0.483127
O O8 0.000000 0.250000 0.448943
#
# Coordination Sequence:
#
# PCOD9538356 Si02
#       5
#     8  16   8   4   8
#     4  11  22  39  66 104 134 170 212 274 326 396
#     4  11  24  44  70  98 133 177 221 265 328 403
#     4  10  22  44  73  97 123 173 230 272 318 393
#     4  10  20  36  62  96 140 162 208 264 324 380
#     4  12  28  45  62  96 137 177 220 275 336 383
#
# _framework density 20.527277999999999
#
# number of rings (size 3 to 8) (size 9 to 14) (size 15 to 20)
#    0.000    1.091    1.818    4.909    5.091    6.545 
#    3.273    0.000    0.000    0.000    0.000    0.000 
#    0.000    0.000    0.000    0.000    0.000    0.000 
#
# Total GULP energy -122534.218460 kJ/mol
# GULP energy per Si atom -5569.737203 kJ/mol
# Density = 2.048056 g / cm^3
# Si number density = 20.527278 Si / 1000 Ang^3
#
#
#
# Elastic Constant Matrix: (Units=GPa)
#
#
# Indices 1 2 3 4 5 6 
#
# 1 198.6807 31.7712 48.7598 0.0000 0.0000 0.0000
# 2 31.7712 67.0766 12.3967 0.0000 0.0000 0.0000
# 3 48.7598 12.3967 106.9895 0.0000 0.0000 0.0000
# 4 0.0000 0.0000 0.0000 7.1692 0.0000 0.0000
# 5 0.0000 0.0000 0.0000 0.0000 -20.5310 0.0000
# 6 0.0000 0.0000 0.0000 0.0000 0.0000 28.2474
#
#
#
# Elastic Compliance Matrix: (Units=1/GPa)
#
#
# Indices 1 2 3 4 5 6 
#
# 1 0.006022 -0.002396 -0.002467 0.000000 0.000000 0.000000
# 2 -0.002396 0.016188 -0.000784 0.000000 0.000000 0.000000
# 3 -0.002467 -0.000784 0.010562 0.000000 0.000000 0.000000
# 4 0.000000 0.000000 0.000000 0.139485 0.000000 0.000000
# 5 0.000000 0.000000 0.000000 0.000000 -0.048707 0.000000
# 6 0.000000 0.000000 0.000000 0.000000 0.000000 0.035402
#
#
# Mechanical properties :
#
#
# Convention : Reuss Voigt Hill
#
# Bulk Modulus (GPa) = 46.55851 62.06689 54.31270
# Shear Modulus (GPa) = 28.18430 21.63175 24.90803
#
# Velocity S-wave (km/s) = 3.70944 3.24976 3.48718
# Velocity P-wave (km/s) = 6.40915 6.66207 6.53683
#
# Compressibility (1/GPa) = 0.02147835
#
# Stress axis : x y z
#
# Youngs Moduli (GPa) = 166.06377 61.77343 94.68178
#
# Poissons Ratio (x) = 0.14803 0.23355
# Poissons Ratio (y) = 0.39795 0.07419
# Poissons Ratio (z) = 0.40963 0.04840
#
# Static dielectric constant tensor:
#      x y z
#    x 1.700100 0.000000 0.000000 
#    y 0.000000 1.721180 0.000000 
#    z 0.000000 0.000000 1.731850 
# 
# From -- ./inp_files/56186.got.cif
#   From: 2010.05.17/outbox.cif.g08.bks.cpg/sg74_29_cif.got.tgz:56186.got - 2010.06.03 17:57:02.
