data_PCOD9538421
_publ_section_title
;
Structure prediction by ZEFSAII (Michael W. Deem and Ramdas Pophale) SiO2 
 PCOD9538421
Probable space group: I M M A
;
_chemical_formula_sum "Si O2"
_cell_formula_units_Z 104
_cell_length_a 24.594929
_cell_length_b 8.203432
_cell_length_c 25.327122
_cell_angle_alpha 90.000000
_cell_angle_beta 90.000000
_cell_angle_gamma 90.000000
_cell_volume 5110.071750
_symmetry_space_group_name_H-M "I M M A"
_symmetry_group_IT_number 74
_symmetry_cell_setting 'orthorhombic'
loop_
_space_group_symop_operation_xyz
x,y,z
-x,1/2-y,z
x,-y,-z
-x,1/2+y,-z
-x,-y,-z
x,1/2+y,-z
-x,y,z
x,1/2-y,z
1/2+x,1/2+y,1/2+z
1/2-x,-y,1/2+z
1/2+x,1/2-y,1/2-z
1/2-x,y,1/2-z
1/2-x,1/2-y,1/2-z
1/2+x,y,1/2-z
1/2-x,1/2+y,1/2+z
1/2+x,-y,1/2+z
loop_
_atom_site_type_symbol
_atom_site_label
_atom_site_fract_x
_atom_site_fract_y
_atom_site_fract_z
Si Si1 0.500000 0.446444 0.438772
Si Si2 0.000000 0.436352 0.373403
Si Si3 0.899002 0.558305 0.440029
Si Si4 0.803758 0.949381 0.846949
Si Si5 0.619213 0.054679 0.252314
Si Si6 0.618779 0.052983 0.439349
Si Si7 0.821159 0.552060 0.646560
Si Si8 0.500000 0.563191 0.242713
O O1 0.500000 0.250000 0.435465
O O2 0.500000 0.500000 0.500000
O O3 0.441022 0.502485 0.418490
O O4 0.052482 0.468761 0.409056
O O5 0.000000 0.544471 0.321006
O O6 0.000000 0.250000 0.354393
O O7 0.895857 0.500000 0.500000
O O8 0.910194 0.750000 0.438865
O O9 0.844796 0.518067 0.407447
O O10 0.804034 0.750000 0.846280
O O11 0.840299 0.005307 0.797802
O O12 0.833593 0.002663 0.900621
O O13 0.741006 0.997857 0.843634
O O14 0.623663 0.250000 0.251512
O O15 0.640534 0.997422 0.195127
O O16 0.556493 0.013465 0.261729
O O17 0.618534 0.250000 0.438762
O O18 0.625335 0.000000 0.500000
O O19 0.823190 0.750000 0.643870
O O20 0.500000 0.750000 0.257866
#
# Coordination Sequence:
#
# PCOD9538421 Si02
#       8
#     8   8  16  16  16  16  16   8
#     4   8  14  25  44  68  93 129 167 212 266 327
#     4  12  23  41  65  91 122 159 201 247 305 366
#     4  12  25  41  62  91 125 162 204 251 302 360
#     4   9  19  35  58  87 114 150 199 251 296 351
#     4  10  20  37  62  87 115 154 201 245 296 359
#     4   9  17  31  51  76 108 142 184 232 288 347
#     4  10  20  37  60  85 117 155 200 248 298 354
#     4  12  24  38  60  91 127 160 194 245 305 361
#
# _framework density 20.351966000000001
#
# number of rings (size 3 to 8) (size 9 to 14) (size 15 to 20)
#    0.000    1.846    1.538    3.462    0.000    3.077 
#    0.000    6.154    0.000    5.538    0.000    0.000 
#    0.000    0.000    0.000    0.000    0.000    0.000 
#
# Total GULP energy -290424.821935 kJ/mol
# GULP energy per Si atom -5585.092730 kJ/mol
# Density = 2.030564 g / cm^3
# Si number density = 20.351966 Si / 1000 Ang^3
#
#
#
# Elastic Constant Matrix: (Units=GPa)
#
#
# Indices 1 2 3 4 5 6 
#
# 1 126.9036 -3.3291 17.7677 0.0000 0.0000 0.0000
# 2 -3.3291 18.2805 -8.8428 0.0000 0.0000 0.0000
# 3 17.7677 -8.8428 46.9228 0.0000 0.0000 0.0000
# 4 0.0000 0.0000 0.0000 16.9868 0.0000 0.0000
# 5 0.0000 0.0000 0.0000 0.0000 4.5388 0.0000
# 6 0.0000 0.0000 0.0000 0.0000 0.0000 8.2017
#
#
#
# Elastic Compliance Matrix: (Units=1/GPa)
#
#
# Indices 1 2 3 4 5 6 
#
# 1 0.008321 -0.000010 -0.003153 0.000000 0.000000 0.000000
# 2 -0.000010 0.060190 0.011347 0.000000 0.000000 0.000000
# 3 -0.003153 0.011347 0.024644 0.000000 0.000000 0.000000
# 4 0.000000 0.000000 0.000000 0.058869 0.000000 0.000000
# 5 0.000000 0.000000 0.000000 0.000000 0.220323 0.000000
# 6 0.000000 0.000000 0.000000 0.000000 0.000000 0.121926
#
#
# Mechanical properties :
#
#
# Convention : Reuss Voigt Hill
#
# Bulk Modulus (GPa) = 9.13043 22.58872 15.85957
# Shear Modulus (GPa) = 9.71982 18.37952 14.04967
#
# Velocity S-wave (km/s) = 2.18775 3.00839 2.63027
# Velocity P-wave (km/s) = 3.29813 4.81564 4.12723
#
# Compressibility (1/GPa) = 0.10952387
#
# Stress axis : x y z
#
# Youngs Moduli (GPa) = 120.17565 16.61400 40.57827
#
# Poissons Ratio (x) = 0.00016 0.12793
# Poissons Ratio (y) = 0.00116 -0.46043
# Poissons Ratio (z) = 0.37888 -0.18851
#
# Static dielectric constant tensor:
#      x y z
#    x 1.739430 0.000000 0.000000 
#    y 0.000000 1.714600 0.000000 
#    z 0.000000 0.000000 1.697910 
# 
# From -- ./inp_files/68293.got.cif
#   From: 2010.05.17/outbox.cif.g08.bks.cpg/sg74_35_cif.got.tgz:68293.got - 2010.06.03 17:57:02.
