data_PCOD9538896
_publ_section_title
;
Structure prediction by ZEFSAII (Michael W. Deem and Ramdas Pophale) SiO2 
 PCOD9538896
Probable space group: I M M A
;
_chemical_formula_sum "Si O2"
_cell_formula_units_Z 80
_cell_length_a 27.567742
_cell_length_b 8.472541
_cell_length_c 18.632362
_cell_angle_alpha 90.000000
_cell_angle_beta 90.000000
_cell_angle_gamma 90.000000
_cell_volume 4351.938888
_symmetry_space_group_name_H-M "I M M A"
_symmetry_group_IT_number 74
_symmetry_cell_setting 'orthorhombic'
loop_
_space_group_symop_operation_xyz
x,y,z
-x,1/2-y,z
x,-y,-z
-x,1/2+y,-z
-x,-y,-z
x,1/2+y,-z
-x,y,z
x,1/2-y,z
1/2+x,1/2+y,1/2+z
1/2-x,-y,1/2+z
1/2+x,1/2-y,1/2-z
1/2-x,y,1/2-z
1/2-x,1/2-y,1/2-z
1/2+x,y,1/2-z
1/2-x,1/2+y,1/2+z
1/2+x,-y,1/2+z
loop_
_atom_site_type_symbol
_atom_site_label
_atom_site_fract_x
_atom_site_fract_y
_atom_site_fract_z
Si Si1 0.247615 0.058886 0.332701
Si Si2 0.552049 0.059186 0.417658
Si Si3 0.654745 0.437376 0.918198
Si Si4 0.052748 0.939246 0.582223
Si Si5 0.342441 0.059024 0.418364
O O1 0.246439 0.250000 0.335004
O O2 0.250000 0.009717 0.250000
O O3 0.296278 0.004675 0.373319
O O4 0.199866 0.997636 0.372279
O O5 0.500000 0.007078 0.385639
O O6 0.551926 0.250000 0.417609
O O7 0.604588 0.008591 0.388229
O O8 0.552063 0.000000 0.500000
O O9 0.654596 0.250000 0.921153
O O10 0.602902 0.494969 0.887054
O O11 0.659209 0.500000 0.000000
O O12 0.055435 0.750000 0.581751
O O13 0.000000 0.985050 0.613952
O O14 0.052136 0.000000 0.500000
O O15 0.341768 0.250000 0.419276
O O16 0.338354 0.000000 0.500000
#
# Coordination Sequence:
#
# PCOD9538896 Si02
#       5
#    16  16  16  16  16
#     4  10  21  36  51  67  94 131 168 208 253 298
#     4   8  13  22  38  62  90 114 139 176 222 272
#     4  11  21  33  52  76 102 131 166 207 250 300
#     4   9  16  27  46  73 103 131 160 197 243 294
#     4   9  17  29  47  70  92 119 153 190 235 283
#
# _framework density 18.382612000000002
#
# number of rings (size 3 to 8) (size 9 to 14) (size 15 to 20)
#    0.000    2.600    0.000    4.200    0.000    4.000 
#    0.000    0.000    0.000    1.200    0.000    5.600 
#    0.000    3.200    0.000    0.000    0.000    0.000 
#
# Total GULP energy -222769.484424 kJ/mol
# GULP energy per Si atom -5569.237111 kJ/mol
# Density = 1.834077 g / cm^3
# Si number density = 18.382612 Si / 1000 Ang^3
#
#
#
# Elastic Constant Matrix: (Units=GPa)
#
#
# Indices 1 2 3 4 5 6 
#
# 1 255.2491 36.8154 72.2646 0.0000 0.0000 0.0000
# 2 36.8154 33.2957 16.6394 0.0000 0.0000 0.0000
# 3 72.2646 16.6394 53.6651 0.0000 0.0000 0.0000
# 4 0.0000 0.0000 0.0000 12.8591 0.0000 0.0000
# 5 0.0000 0.0000 0.0000 0.0000 -5.3343 0.0000
# 6 0.0000 0.0000 0.0000 0.0000 0.0000 -1.0479
#
#
#
# Elastic Compliance Matrix: (Units=1/GPa)
#
#
# Indices 1 2 3 4 5 6 
#
# 1 0.006642 -0.003401 -0.007889 0.000000 0.000000 0.000000
# 2 -0.003401 0.037283 -0.006980 0.000000 0.000000 0.000000
# 3 -0.007889 -0.006980 0.031422 0.000000 0.000000 0.000000
# 4 0.000000 0.000000 0.000000 0.077766 0.000000 0.000000
# 5 0.000000 0.000000 0.000000 0.000000 -0.187465 0.000000
# 6 0.000000 0.000000 0.000000 0.000000 0.000000 -0.954329
#
#
# Mechanical properties :
#
#
# Convention : Reuss Voigt Hill
#
# Bulk Modulus (GPa) = 25.76926 65.96099 45.86512
# Shear Modulus (GPa) = -5.32365 15.72807 5.20221
#
# Velocity S-wave (km/s) = -1.70362 2.92823 1.68407
# Velocity P-wave (km/s) = 3.19045 6.88425 5.36525
#
# Compressibility (1/GPa) = 0.03880593
#
# Stress axis : x y z
#
# Youngs Moduli (GPa) = 150.55968 26.82186 31.82513
#
# Poissons Ratio (x) = 0.09123 0.25108
# Poissons Ratio (y) = 0.51211 0.22213
# Poissons Ratio (z) = 1.18780 0.18721
#
# Static dielectric constant tensor:
#      x y z
#    x 1.711640 0.000000 0.000000 
#    y 0.000000 1.622150 0.000000 
#    z 0.000000 0.000000 1.606020 
# 
# From -- ./inp_files/46495.got.cif
#   From: 2010.05.17/outbox.cif.g08.bks.cpg/sg74_24_cif.got.tgz:46495.got - 2010.06.03 17:57:02.
