data_PCOD9538700
_publ_section_title
;
Structure prediction by ZEFSAII (Michael W. Deem and Ramdas Pophale) SiO2 
 PCOD9538700
Probable space group: I M M A
;
_chemical_formula_sum "Si O2"
_cell_formula_units_Z 96
_cell_length_a 23.958984
_cell_length_b 18.272464
_cell_length_c 11.213370
_cell_angle_alpha 90.000000
_cell_angle_beta 90.000000
_cell_angle_gamma 90.000000
_cell_volume 4909.097581
_symmetry_space_group_name_H-M "I M M A"
_symmetry_group_IT_number 74
_symmetry_cell_setting 'orthorhombic'
loop_
_space_group_symop_operation_xyz
x,y,z
-x,1/2-y,z
x,-y,-z
-x,1/2+y,-z
-x,-y,-z
x,1/2+y,-z
-x,y,z
x,1/2-y,z
1/2+x,1/2+y,1/2+z
1/2-x,-y,1/2+z
1/2+x,1/2-y,1/2-z
1/2-x,y,1/2-z
1/2-x,1/2-y,1/2-z
1/2+x,y,1/2-z
1/2-x,1/2+y,1/2+z
1/2+x,-y,1/2+z
loop_
_atom_site_type_symbol
_atom_site_label
_atom_site_fract_x
_atom_site_fract_y
_atom_site_fract_z
Si Si1 0.500000 0.041442 0.628974
Si Si2 0.321653 0.664475 0.123658
Si Si3 0.000000 0.549290 0.621291
Si Si4 0.694272 0.539504 0.695256
Si Si5 0.209973 0.334304 0.008558
Si Si6 0.124267 0.904064 0.143996
Si Si7 0.622097 0.576567 0.924108
O O1 0.441880 0.085890 0.636502
O O2 0.500000 0.000000 0.500000
O O3 0.500000 0.992808 0.751263
O O4 0.326066 0.750000 0.150533
O O5 0.256672 0.649581 0.092974
O O6 0.352884 0.621159 0.227543
O O7 0.352943 0.640578 0.003696
O O8 0.000000 0.500000 0.500000
O O9 0.058232 0.590851 0.610647
O O10 0.750000 0.503925 0.750000
O O11 0.714279 0.606450 0.613049
O O12 0.655724 0.481574 0.627030
O O13 0.657487 0.566967 0.805161
O O14 0.217781 0.250000 0.045720
O O15 0.149655 0.347657 0.950377
O O16 0.625800 0.500000 0.000000
#
# Coordination Sequence:
#
# PCOD9538700 Si02
#       7
#     8  16   8  16  16  16  16
#     4  12  24  42  66  98 130 172 220 274 332 386
#     4  11  23  42  66  95 133 168 210 269 333 391
#     4  10  20  40  64  92 134 170 211 276 332 382
#     4  12  22  36  66  94 126 162 214 267 317 389
#     4  11  25  41  60  92 134 173 207 261 334 393
#     4  12  24  41  66  94 125 167 218 270 318 385
#     4  11  21  39  63  96 128 166 218 270 328 384
#
# _framework density 19.555530000000001
#
# number of rings (size 3 to 8) (size 9 to 14) (size 15 to 20)
#    0.000    0.667    5.000    4.500    0.000    2.333 
#    0.000    2.917    0.000    0.000    0.000    0.000 
#    0.000    0.000    0.000    0.000    0.000    0.000 
#
# Total GULP energy -268084.246273 kJ/mol
# GULP energy per Si atom -5585.088464 kJ/mol
# Density = 1.951102 g / cm^3
# Si number density = 19.555530 Si / 1000 Ang^3
#
#
#
# Elastic Constant Matrix: (Units=GPa)
#
#
# Indices 1 2 3 4 5 6 
#
# 1 164.9250 39.9663 21.7168 0.0000 0.0000 0.0000
# 2 39.9663 80.8608 38.9228 0.0000 0.0000 0.0000
# 3 21.7168 38.9228 94.0303 0.0000 0.0000 0.0000
# 4 0.0000 0.0000 0.0000 29.0293 0.0000 0.0000
# 5 0.0000 0.0000 0.0000 0.0000 29.9872 0.0000
# 6 0.0000 0.0000 0.0000 0.0000 0.0000 82.6942
#
#
#
# Elastic Compliance Matrix: (Units=1/GPa)
#
#
# Indices 1 2 3 4 5 6 
#
# 1 0.006892 -0.003297 -0.000227 0.000000 0.000000 0.000000
# 2 -0.003297 0.017022 -0.006284 0.000000 0.000000 0.000000
# 3 -0.000227 -0.006284 0.013289 0.000000 0.000000 0.000000
# 4 0.000000 0.000000 0.000000 0.034448 0.000000 0.000000
# 5 0.000000 0.000000 0.000000 0.000000 0.033348 0.000000
# 6 0.000000 0.000000 0.000000 0.000000 0.000000 0.012093
#
#
# Mechanical properties :
#
#
# Convention : Reuss Voigt Hill
#
# Bulk Modulus (GPa) = 56.86571 60.11423 58.48997
# Shear Modulus (GPa) = 35.07047 44.28949 39.67998
#
# Velocity S-wave (km/s) = 4.23942 4.76416 4.50943
# Velocity P-wave (km/s) = 7.28738 7.81473 7.55565
#
# Compressibility (1/GPa) = 0.01758529
#
# Stress axis : x y z
#
# Youngs Moduli (GPa) = 145.08961 58.74838 75.25225
#
# Poissons Ratio (x) = 0.19372 0.01707
# Poissons Ratio (y) = 0.47841 0.47292
# Poissons Ratio (z) = 0.03292 0.36920
#
# Static dielectric constant tensor:
#      x y z
#    x 1.688090 0.000000 0.000000 
#    y 0.000000 1.695060 0.000000 
#    z 0.000000 0.000000 1.737270 
# 
# From -- ./inp_files/23957.got.cif
#   From: 2010.05.17/outbox.cif.g08.bks.cpg/sg74_12_cif.got.tgz:23957.got - 2010.06.03 17:57:02.
