data_PCOD9538024
_publ_section_title
;
Structure prediction by ZEFSAII (Michael W. Deem and Ramdas Pophale) SiO2 
 PCOD9538024
Probable space group: I M M A
;
_chemical_formula_sum "Si O2"
_cell_formula_units_Z 80
_cell_length_a 16.546280
_cell_length_b 29.804466
_cell_length_c 8.706750
_cell_angle_alpha 90.000000
_cell_angle_beta 90.000000
_cell_angle_gamma 90.000000
_cell_volume 4293.760228
_symmetry_space_group_name_H-M "I M M A"
_symmetry_group_IT_number 74
_symmetry_cell_setting 'orthorhombic'
loop_
_space_group_symop_operation_xyz
x,y,z
-x,1/2-y,z
x,-y,-z
-x,1/2+y,-z
-x,-y,-z
x,1/2+y,-z
-x,y,z
x,1/2-y,z
1/2+x,1/2+y,1/2+z
1/2-x,-y,1/2+z
1/2+x,1/2-y,1/2-z
1/2-x,y,1/2-z
1/2-x,1/2-y,1/2-z
1/2+x,y,1/2-z
1/2-x,1/2+y,1/2+z
1/2+x,-y,1/2+z
loop_
_atom_site_type_symbol
_atom_site_label
_atom_site_fract_x
_atom_site_fract_y
_atom_site_fract_z
Si Si1 0.596910 0.698315 0.049801
Si Si2 0.093402 0.106867 0.055809
Si Si3 0.237681 0.049696 0.931630
Si Si4 0.827600 0.118989 0.359356
Si Si5 0.402030 0.700376 0.408592
O O1 0.500000 0.690881 0.037828
O O2 0.612365 0.750000 0.006252
O O3 0.619474 0.693387 0.229732
O O4 0.643705 0.663233 0.946145
O O5 0.104921 0.103026 0.238528
O O6 0.000000 0.101806 0.012228
O O7 0.151230 0.071533 0.973379
O O8 0.121542 0.157146 0.006461
O O9 0.250000 0.049314 0.750000
O O10 0.302372 0.081449 0.017756
O O11 0.242722 0.000000 0.000000
O O12 0.750000 0.126394 0.250000
O O13 0.500000 0.702217 0.414837
O O14 0.372285 0.750000 0.457181
#
# Coordination Sequence:
#
# PCOD9538024 Si02
#       5
#    16  16  16  16  16
#     4   9  17  31  52  77 108 147 188 229 272 320
#     4  10  20  35  58  86 114 146 186 231 276 326
#     4  11  23  42  63  81 108 145 183 227 283 339
#     4  10  21  35  53  79 111 146 182 225 277 333
#     4   8  15  29  50  77 108 142 179 218 265 319
#
# _framework density 18.631688
#
# number of rings (size 3 to 8) (size 9 to 14) (size 15 to 20)
#    0.000    2.400    0.000    4.800    0.000    1.600 
#    0.000    6.000    0.000   15.000    0.000    0.000 
#    0.000    0.000    0.000    0.000    0.000    0.000 
#
# Total GULP energy -223206.595738 kJ/mol
# GULP energy per Si atom -5580.164893 kJ/mol
# Density = 1.858928 g / cm^3
# Si number density = 18.631688 Si / 1000 Ang^3
#
#
#
# Elastic Constant Matrix: (Units=GPa)
#
#
# Indices 1 2 3 4 5 6 
#
# 1 35.3469 51.5738 35.1094 -0.0005 -0.0002 0.0006
# 2 51.5738 147.5446 92.7006 0.0002 0.0004 -0.0002
# 3 35.1094 92.7006 132.4235 0.0038 0.0024 0.0008
# 4 -0.0005 0.0002 0.0038 32.0434 0.0000 0.0003
# 5 -0.0002 0.0004 0.0024 0.0000 11.9046 -0.0008
# 6 0.0006 -0.0002 0.0008 0.0003 -0.0008 25.6898
#
#
#
# Elastic Compliance Matrix: (Units=1/GPa)
#
#
# Indices 1 2 3 4 5 6 
#
# 1 0.058070 -0.018967 -0.002118 0.000001 0.000002 -0.000001
# 2 -0.018967 0.018294 -0.007778 0.000000 0.000001 0.000001
# 3 -0.002118 -0.007778 0.013558 -0.000002 -0.000003 0.000000
# 4 0.000001 0.000000 -0.000002 0.031208 0.000000 0.000000
# 5 0.000002 0.000001 -0.000003 0.000000 0.084001 0.000003
# 6 -0.000001 0.000001 0.000000 0.000000 0.000003 0.038926
#
#
# Mechanical properties :
#
#
# Convention : Reuss Voigt Hill
#
# Bulk Modulus (GPa) = 31.06057 74.89807 52.97932
# Shear Modulus (GPa) = 15.99923 22.98964 19.49444
#
# Velocity S-wave (km/s) = 2.93356 3.51650 3.23817
# Velocity P-wave (km/s) = 5.30861 7.53487 6.51750
#
# Compressibility (1/GPa) = 0.03219516
#
# Stress axis : x y z
#
# Youngs Moduli (GPa) = 17.22066 54.66221 73.75794
#
# Poissons Ratio (x) = 1.03678 0.15625
# Poissons Ratio (y) = 0.32663 0.57367
# Poissons Ratio (z) = 0.03648 0.42515
#
# Static dielectric constant tensor:
#      x y z
#    x 1.661620 0.000000 0.000000 
#    y 0.000000 1.627730 0.000000 
#    z 0.000000 0.000000 1.636980 
# 
# From -- ./inp_files/10938.got.cif
#   From: 2010.05.17/outbox.cif.g08.bks.cpg/sg74_6_cif.got.tgz:10938.got - 2010.06.03 17:57:02.
