data_PCOD9538123
_publ_section_title
;
Structure prediction by ZEFSAII (Michael W. Deem and Ramdas Pophale) SiO2 
 PCOD9538123
Probable space group: I M M A
;
_chemical_formula_sum "Si O2"
_cell_formula_units_Z 96
_cell_length_a 29.707308
_cell_length_b 7.693531
_cell_length_c 20.892326
_cell_angle_alpha 90.000000
_cell_angle_beta 90.000000
_cell_angle_gamma 90.000000
_cell_volume 4775.026662
_symmetry_space_group_name_H-M "I M M A"
_symmetry_group_IT_number 74
_symmetry_cell_setting 'orthorhombic'
loop_
_space_group_symop_operation_xyz
x,y,z
-x,1/2-y,z
x,-y,-z
-x,1/2+y,-z
-x,-y,-z
x,1/2+y,-z
-x,y,z
x,1/2-y,z
1/2+x,1/2+y,1/2+z
1/2-x,-y,1/2+z
1/2+x,1/2-y,1/2-z
1/2-x,y,1/2-z
1/2-x,1/2-y,1/2-z
1/2+x,y,1/2-z
1/2-x,1/2+y,1/2+z
1/2+x,-y,1/2+z
loop_
_atom_site_type_symbol
_atom_site_label
_atom_site_fract_x
_atom_site_fract_y
_atom_site_fract_z
Si Si1 0.586392 0.550271 0.701122
Si Si2 0.949007 0.458854 0.067623
Si Si3 0.219913 0.040600 0.652388
Si Si4 0.866172 0.459648 0.574803
Si Si5 0.188421 0.540644 0.202088
Si Si6 0.949086 0.546006 0.339177
O O1 0.571154 0.750000 0.705288
O O2 0.569873 0.472413 0.634182
O O3 0.640007 0.542355 0.695901
O O4 0.568025 0.466298 0.765994
O O5 0.949465 0.250000 0.071942
O O6 0.000000 0.525154 0.063596
O O7 0.925764 0.500000 0.000000
O O8 0.222306 0.250000 0.644268
O O9 0.181423 0.975050 0.604314
O O10 0.203040 0.008724 0.724609
O O11 0.271798 0.979185 0.654546
O O12 0.870053 0.500000 0.500000
O O13 0.865513 0.250000 0.582589
O O14 0.909322 0.526411 0.615285
O O15 0.183929 0.750000 0.195349
O O16 0.952319 0.750000 0.355041
O O17 0.000000 0.472973 0.345496
#
# Coordination Sequence:
#
# PCOD9538123 Si02
#       6
#    16  16  16  16  16  16
#     4  11  21  33  52  82 115 141 167 217 279 321
#     4   9  19  35  52  71  99 136 174 210 253 309
#     4   8  15  31  55  77  99 133 176 217 256 304
#     4  10  20  36  55  78 108 142 182 227 275 327
#     4   9  16  31  56  79 100 134 176 214 255 311
#     4  10  21  37  57  79 104 140 189 234 268 319
#
# _framework density 20.104599
#
# number of rings (size 3 to 8) (size 9 to 14) (size 15 to 20)
#    0.000    2.500    1.667    2.000    0.000    3.333 
#    0.000    5.000    0.000    4.000    0.000    0.000 
#    0.000    0.000    0.000    0.000    0.000    0.000 
#
# Total GULP energy -267457.939408 kJ/mol
# GULP energy per Si atom -5572.040404 kJ/mol
# Density = 2.005884 g / cm^3
# Si number density = 20.104599 Si / 1000 Ang^3
#
#
#
# Elastic Constant Matrix: (Units=GPa)
#
#
# Indices 1 2 3 4 5 6 
#
# 1 100.0711 -2.5821 46.1798 0.0000 0.0000 0.0000
# 2 -2.5821 29.8956 -1.6487 0.0000 0.0000 0.0000
# 3 46.1798 -1.6487 116.6638 0.0000 0.0000 0.0000
# 4 0.0000 0.0000 0.0000 17.1673 0.0000 0.0000
# 5 0.0000 0.0000 0.0000 0.0000 2.8381 0.0000
# 6 0.0000 0.0000 0.0000 0.0000 0.0000 48.0018
#
#
#
# Elastic Compliance Matrix: (Units=1/GPa)
#
#
# Indices 1 2 3 4 5 6 
#
# 1 0.012245 0.000791 -0.004836 0.000000 0.000000 0.000000
# 2 0.000791 0.033527 0.000161 0.000000 0.000000 0.000000
# 3 -0.004836 0.000161 0.010488 0.000000 0.000000 0.000000
# 4 0.000000 0.000000 0.000000 0.058250 0.000000 0.000000
# 5 0.000000 0.000000 0.000000 0.000000 0.352344 0.000000
# 6 0.000000 0.000000 0.000000 0.000000 0.000000 0.020833
#
#
# Mechanical properties :
#
#
# Convention : Reuss Voigt Hill
#
# Bulk Modulus (GPa) = 20.62212 36.72538 28.67375
# Shear Modulus (GPa) = 9.77290 27.24689 18.50989
#
# Velocity S-wave (km/s) = 2.20717 3.68537 3.03756
# Velocity P-wave (km/s) = 4.09574 6.03458 5.15709
#
# Compressibility (1/GPa) = 0.04849161
#
# Stress axis : x y z
#
# Youngs Moduli (GPa) = 81.66687 29.82676 95.34620
#
# Poissons Ratio (x) = -0.02359 0.46107
# Poissons Ratio (y) = -0.06459 -0.01533
# Poissons Ratio (z) = 0.39492 -0.00479
#
# Static dielectric constant tensor:
#      x y z
#    x 1.740000 0.000000 0.000000 
#    y 0.000000 1.748420 0.000000 
#    z 0.000000 0.000000 1.730860 
# 
# From -- ./inp_files/49089.got.cif
#   From: 2010.05.17/outbox.cif.g08.bks.cpg/sg74_25_cif.got.tgz:49089.got - 2010.06.03 17:57:02.
