data_PCOD9538530
_publ_section_title
;
Structure prediction by ZEFSAII (Michael W. Deem and Ramdas Pophale) SiO2 
 PCOD9538530
Probable space group: I M M A
;
_chemical_formula_sum "Si O2"
_cell_formula_units_Z 56
_cell_length_a 10.796773
_cell_length_b 22.640894
_cell_length_c 11.707464
_cell_angle_alpha 90.000000
_cell_angle_beta 90.000000
_cell_angle_gamma 90.000000
_cell_volume 2861.873103
_symmetry_space_group_name_H-M "I M M A"
_symmetry_group_IT_number 74
_symmetry_cell_setting 'orthorhombic'
loop_
_space_group_symop_operation_xyz
x,y,z
-x,1/2-y,z
x,-y,-z
-x,1/2+y,-z
-x,-y,-z
x,1/2+y,-z
-x,y,z
x,1/2-y,z
1/2+x,1/2+y,1/2+z
1/2-x,-y,1/2+z
1/2+x,1/2-y,1/2-z
1/2-x,y,1/2-z
1/2-x,1/2-y,1/2-z
1/2+x,y,1/2-z
1/2-x,1/2+y,1/2+z
1/2+x,-y,1/2+z
loop_
_atom_site_type_symbol
_atom_site_label
_atom_site_fract_x
_atom_site_fract_y
_atom_site_fract_z
Si Si1 0.639757 0.058939 0.444772
Si Si2 0.859466 0.250000 0.922183
Si Si3 0.750000 0.143663 0.250000
Si Si4 0.366554 0.875471 0.317776
Si Si5 0.360247 0.250000 0.111006
O O1 0.500000 0.041668 0.406311
O O2 0.697833 0.099064 0.346072
O O3 0.631117 0.099648 0.555256
O O4 0.700519 0.000000 0.500000
O O5 0.851731 0.306357 0.840892
O O6 0.000000 0.250000 0.975125
O O7 0.750603 0.250000 0.016880
O O8 0.658188 0.190722 0.187770
O O9 0.500000 0.887676 0.262105
O O10 0.250000 0.899664 0.250000
O O11 0.500000 0.250000 0.062841
#
# Coordination Sequence:
#
# PCOD9538530 Si02
#       5
#    16   8   8  16   8
#     4  10  22  40  62  87 120 165 208 249 306 371
#     4  10  20  38  60  85 122 163 200 246 312 373
#     4  11  22  40  64  90 126 161 206 256 320 369
#     4  10  21  38  60  86 119 161 204 249 302 364
#     4  11  23  36  62  98 126 156 204 264 316 370
#
# _framework density 19.567603999999999
#
# number of rings (size 3 to 8) (size 9 to 14) (size 15 to 20)
#    0.000    1.714    2.857    1.286    2.000    3.429 
#    0.000    0.000    0.000    4.286    0.000    0.000 
#    0.000    0.000    0.000    0.000    0.000    0.000 
#
# Total GULP energy -155895.597284 kJ/mol
# GULP energy per Si atom -5567.699903 kJ/mol
# Density = 1.952307 g / cm^3
# Si number density = 19.567604 Si / 1000 Ang^3
#
#
#
# Elastic Constant Matrix: (Units=GPa)
#
#
# Indices 1 2 3 4 5 6 
#
# 1 150.4436 19.4295 69.2698 0.0000 0.0000 0.0000
# 2 19.4295 86.4333 16.2357 0.0000 0.0000 0.0000
# 3 69.2698 16.2357 78.6325 0.0001 -0.0002 0.0001
# 4 0.0000 0.0000 0.0001 26.4433 0.0000 0.0000
# 5 0.0000 0.0000 -0.0002 0.0000 20.7216 0.0000
# 6 0.0000 0.0000 0.0001 0.0000 0.0000 4.7188
#
#
#
# Elastic Compliance Matrix: (Units=1/GPa)
#
#
# Indices 1 2 3 4 5 6 
#
# 1 0.011223 -0.000693 -0.009743 0.000000 0.000000 0.000000
# 2 -0.000693 0.012079 -0.001884 0.000000 0.000000 0.000000
# 3 -0.009743 -0.001884 0.021690 0.000000 0.000000 0.000000
# 4 0.000000 0.000000 0.000000 0.037817 0.000000 0.000000
# 5 0.000000 0.000000 0.000000 0.000000 0.048259 0.000000
# 6 0.000000 0.000000 0.000000 0.000000 0.000000 0.211916
#
#
# Mechanical properties :
#
#
# Convention : Reuss Voigt Hill
#
# Bulk Modulus (GPa) = 49.13607 58.37550 53.75579
# Shear Modulus (GPa) = 13.35444 24.41503 18.88474
#
# Velocity S-wave (km/s) = 2.61526 3.53615 3.10998
# Velocity P-wave (km/s) = 5.85533 6.82422 6.35826
#
# Compressibility (1/GPa) = 0.02035165
#
# Stress axis : x y z
#
# Youngs Moduli (GPa) = 89.10521 82.78710 46.10490
#
# Poissons Ratio (x) = 0.05733 0.44922
# Poissons Ratio (y) = 0.06171 0.08686
# Poissons Ratio (z) = 0.86819 0.15597
#
# Static dielectric constant tensor:
#      x y z
#    x 1.755390 0.000000 0.000000 
#    y 0.000000 2.001690 0.000000 
#    z 0.000000 0.000000 1.660800 
# 
# From -- ./inp_files/7136.got.cif
#   From: 2010.05.17/outbox.cif.g08.bks.cpg/sg74_4_cif.got.tgz:7136.got - 2010.06.03 17:57:02.
