data_PCOD9538160
_publ_section_title
;
Structure prediction by ZEFSAII (Michael W. Deem and Ramdas Pophale) SiO2 
 PCOD9538160
Probable space group: I M M A
;
_chemical_formula_sum "Si O2"
_cell_formula_units_Z 120
_cell_length_a 8.929096
_cell_length_b 25.702408
_cell_length_c 28.781978
_cell_angle_alpha 90.000000
_cell_angle_beta 90.000000
_cell_angle_gamma 90.000000
_cell_volume 6605.442896
_symmetry_space_group_name_H-M "I M M A"
_symmetry_group_IT_number 74
_symmetry_cell_setting 'orthorhombic'
loop_
_space_group_symop_operation_xyz
x,y,z
-x,1/2-y,z
x,-y,-z
-x,1/2+y,-z
-x,-y,-z
x,1/2+y,-z
-x,y,z
x,1/2-y,z
1/2+x,1/2+y,1/2+z
1/2-x,-y,1/2+z
1/2+x,1/2-y,1/2-z
1/2-x,y,1/2-z
1/2-x,1/2-y,1/2-z
1/2+x,y,1/2-z
1/2-x,1/2+y,1/2+z
1/2+x,-y,1/2+z
loop_
_atom_site_type_symbol
_atom_site_label
_atom_site_fract_x
_atom_site_fract_y
_atom_site_fract_z
Si Si1 0.822114 0.402907 0.436836
Si Si2 0.820597 0.809525 0.108626
Si Si3 0.680849 0.750000 0.801712
Si Si4 0.680424 0.852056 0.650554
Si Si5 0.320973 0.895925 0.462505
Si Si6 0.178527 0.537699 0.799956
Si Si7 0.172776 0.313478 0.703006
Si Si8 0.679799 0.506194 0.396203
O O1 0.740090 0.363436 0.401371
O O2 0.766599 0.398912 0.489586
O O3 0.770084 0.459635 0.419708
O O4 0.000000 0.396738 0.433346
O O5 0.771692 0.750000 0.103049
O O6 0.781573 0.843333 0.064358
O O7 0.751917 0.831230 0.156075
O O8 0.000000 0.810419 0.113726
O O9 0.500000 0.750000 0.799969
O O10 0.750000 0.750000 0.750000
O O11 0.741529 0.801631 0.827569
O O12 0.500000 0.846224 0.650485
O O13 0.717248 0.904433 0.680338
O O14 0.500000 0.897326 0.472130
O O15 0.290595 0.942044 0.425574
O O16 0.250000 0.528206 0.750000
O O17 0.217497 0.497124 0.841344
O O18 0.000000 0.536574 0.794481
O O19 0.183405 0.250000 0.703191
O O20 0.250000 0.332154 0.750000
O O21 0.000000 0.327547 0.702836
O O22 0.500000 0.495560 0.399528
#
# Coordination Sequence:
#
# PCOD9538160 Si02
#       8
#    16  16   8  16  16  16  16  16
#     4  11  22  36  56  83 111 138 177 234 289 337
#     4   9  18  33  52  75 102 133 175 221 264 320
#     4  12  24  38  58  88 124 160 200 244 289 332
#     4  10  21  39  59  81 111 152 197 238 281 338
#     4  10  20  36  57  77 104 144 184 225 278 340
#     4   9  18  32  53  79 107 140 180 222 273 334
#     4   9  16  27  46  70  95 126 164 207 254 302
#     4   9  19  36  56  78 106 142 183 224 271 337
#
# _framework density 18.166836
#
# number of rings (size 3 to 8) (size 9 to 14) (size 15 to 20)
#    0.000    2.267    0.000    4.200    0.000    8.000 
#    1.200    0.667    0.000    1.600    0.000    0.000 
#    0.000    0.000    0.000    0.000    0.000    0.000 
#
# Total GULP energy -334738.904370 kJ/mol
# GULP energy per Si atom -5578.981739 kJ/mol
# Density = 1.812549 g / cm^3
# Si number density = 18.166836 Si / 1000 Ang^3
#
#
#
# Elastic Constant Matrix: (Units=GPa)
#
#
# Indices 1 2 3 4 5 6 
#
# 1 62.1784 38.0834 66.2412 0.0000 0.0000 0.0000
# 2 38.0834 56.0663 53.3210 0.0000 0.0000 0.0000
# 3 66.2412 53.3210 173.6771 0.0000 0.0000 0.0000
# 4 0.0000 0.0000 0.0000 18.2891 0.0000 0.0000
# 5 0.0000 0.0000 0.0000 0.0000 35.9527 0.0000
# 6 0.0000 0.0000 0.0000 0.0000 0.0000 15.9402
#
#
#
# Elastic Compliance Matrix: (Units=1/GPa)
#
#
# Indices 1 2 3 4 5 6 
#
# 1 0.034507 -0.015427 -0.008425 0.000000 0.000000 0.000000
# 2 -0.015427 0.032088 -0.003968 0.000000 0.000000 0.000000
# 3 -0.008425 -0.003968 0.010189 0.000000 0.000000 0.000000
# 4 0.000000 0.000000 0.000000 0.054677 0.000000 0.000000
# 5 0.000000 0.000000 0.000000 0.000000 0.027814 0.000000
# 6 0.000000 0.000000 0.000000 0.000000 0.000000 0.062735
#
#
# Mechanical properties :
#
#
# Convention : Reuss Voigt Hill
#
# Bulk Modulus (GPa) = 47.29084 67.46811 57.37948
# Shear Modulus (GPa) = 17.56254 22.98814 20.27534
#
# Velocity S-wave (km/s) = 3.11261 3.56109 3.34438
# Velocity P-wave (km/s) = 6.24546 7.35712 6.82396
#
# Compressibility (1/GPa) = 0.02114574
#
# Stress axis : x y z
#
# Youngs Moduli (GPa) = 28.97991 31.16427 98.14314
#
# Poissons Ratio (x) = 0.48076 0.82684
# Poissons Ratio (y) = 0.44706 0.38940
# Poissons Ratio (z) = 0.24415 0.12365
#
# Static dielectric constant tensor:
#      x y z
#    x 1.607010 0.000000 0.000000 
#    y 0.000000 1.629000 0.000000 
#    z 0.000000 0.000000 1.614240 
# 
# From -- ./inp_files/65100.got.cif
#   From: 2010.05.17/outbox.cif.g08.bks.cpg/sg74_33_cif.got.tgz:65100.got - 2010.06.03 17:57:02.
