data_PCOD9538396
_publ_section_title
;
Structure prediction by ZEFSAII (Michael W. Deem and Ramdas Pophale) SiO2 
 PCOD9538396
Probable space group: I M M A
;
_chemical_formula_sum "Si O2"
_cell_formula_units_Z 72
_cell_length_a 29.635264
_cell_length_b 8.773055
_cell_length_c 14.850295
_cell_angle_alpha 90.000000
_cell_angle_beta 90.000000
_cell_angle_gamma 90.000000
_cell_volume 3860.954943
_symmetry_space_group_name_H-M "I M M A"
_symmetry_group_IT_number 74
_symmetry_cell_setting 'orthorhombic'
loop_
_space_group_symop_operation_xyz
x,y,z
-x,1/2-y,z
x,-y,-z
-x,1/2+y,-z
-x,-y,-z
x,1/2+y,-z
-x,y,z
x,1/2-y,z
1/2+x,1/2+y,1/2+z
1/2-x,-y,1/2+z
1/2+x,1/2-y,1/2-z
1/2-x,y,1/2-z
1/2-x,1/2-y,1/2-z
1/2+x,y,1/2-z
1/2-x,1/2+y,1/2+z
1/2+x,-y,1/2+z
loop_
_atom_site_type_symbol
_atom_site_label
_atom_site_fract_x
_atom_site_fract_y
_atom_site_fract_z
Si Si1 0.446862 0.068627 0.401378
Si Si2 0.277505 0.070584 0.343199
Si Si3 0.629758 0.918622 0.913701
Si Si4 0.870513 0.430834 0.779332
Si Si5 0.719921 0.500000 0.000000
O O1 0.500000 0.044001 0.383032
O O2 0.438381 0.250000 0.401461
O O3 0.437221 0.000000 0.500000
O O4 0.415346 0.986609 0.329365
O O5 0.276820 0.250000 0.371861
O O6 0.250000 0.059630 0.250000
O O7 0.328023 0.016534 0.323879
O O8 0.253840 0.964576 0.418389
O O9 0.611958 0.750000 0.895856
O O10 0.627963 0.019884 0.825098
O O11 0.682232 0.903922 0.945365
O O12 0.607510 0.000000 0.000000
O O13 0.864868 0.250000 0.786760
#
# Coordination Sequence:
#
# PCOD9538396 Si02
#       5
#    16  16  16  16   8
#     4  10  22  43  69  93 120 152 190 240 298 356
#     4  11  22  39  58  79 116 160 203 249 294 342
#     4  10  20  37  59  83 115 154 199 244 293 347
#     4  12  25  38  59  89 121 157 200 245 292 352
#     4  10  22  34  60  78 110 158 208 246 298 342
#
# _framework density 18.648235
#
# number of rings (size 3 to 8) (size 9 to 14) (size 15 to 20)
#    0.667    0.667    2.222    4.000    1.556    3.556 
#    0.000    0.000    0.000    0.667    0.000    0.000 
#    0.000    0.000    0.000    0.000    0.000    0.000 
#
# Total GULP energy -200537.818299 kJ/mol
# GULP energy per Si atom -5570.494953 kJ/mol
# Density = 1.860579 g / cm^3
# Si number density = 18.648235 Si / 1000 Ang^3
#
#
#
# Elastic Constant Matrix: (Units=GPa)
#
#
# Indices 1 2 3 4 5 6 
#
# 1 54.6697 40.2164 46.4543 0.0000 0.0000 0.0000
# 2 40.2164 86.3353 34.2390 0.0000 0.0000 0.0000
# 3 46.4543 34.2390 111.7216 0.0000 0.0000 0.0000
# 4 0.0000 0.0000 0.0000 -3.5794 0.0000 0.0000
# 5 0.0000 0.0000 0.0000 0.0000 27.1325 0.0000
# 6 0.0000 0.0000 0.0000 0.0000 0.0000 15.4305
#
#
#
# Elastic Compliance Matrix: (Units=1/GPa)
#
#
# Indices 1 2 3 4 5 6 
#
# 1 0.037801 -0.012949 -0.011749 0.000000 0.000000 0.000000
# 2 -0.012949 0.017621 -0.000016 0.000000 0.000000 0.000000
# 3 -0.011749 -0.000016 0.013841 0.000000 0.000000 0.000000
# 4 0.000000 0.000000 0.000000 -0.279373 0.000000 0.000000
# 5 0.000000 0.000000 0.000000 0.000000 0.036856 0.000000
# 6 0.000000 0.000000 0.000000 0.000000 0.000000 0.064807
#
#
# Mechanical properties :
#
#
# Convention : Reuss Voigt Hill
#
# Bulk Modulus (GPa) = 50.41709 54.94956 52.68332
# Shear Modulus (GPa) = -95.40534 16.58451 -39.41041
#
# Velocity S-wave (km/s) = -7.16042 2.98541 -4.60212
# Velocity P-wave (km/s) = 6.42398 6.43536 0.27045
#
# Compressibility (1/GPa) = 0.01983454
#
# Stress axis : x y z
#
# Youngs Moduli (GPa) = 26.45449 56.75110 72.24805
#
# Poissons Ratio (x) = 0.73485 0.84887
# Poissons Ratio (y) = 0.34255 0.00116
# Poissons Ratio (z) = 0.31082 0.00091
#
# Static dielectric constant tensor:
#      x y z
#    x 1.630370 0.000000 0.000000 
#    y 0.000000 1.613250 0.000000 
#    z 0.000000 0.000000 1.638360 
# 
# From -- ./inp_files/37060.got.cif
#   From: 2010.05.17/outbox.cif.g08.bks.cpg/sg74_19_cif.got.tgz:37060.got - 2010.06.03 17:57:02.
