data_PCOD9538111
_publ_section_title
;
Structure prediction by ZEFSAII (Michael W. Deem and Ramdas Pophale) SiO2 
 PCOD9538111
Probable space group: I M M A
;
_chemical_formula_sum "Si O2"
_cell_formula_units_Z 64
_cell_length_a 19.503621
_cell_length_b 14.204268
_cell_length_c 9.123238
_cell_angle_alpha 90.000000
_cell_angle_beta 90.000000
_cell_angle_gamma 90.000000
_cell_volume 2527.453134
_symmetry_space_group_name_H-M "I M M A"
_symmetry_group_IT_number 74
_symmetry_cell_setting 'orthorhombic'
loop_
_space_group_symop_operation_xyz
x,y,z
-x,1/2-y,z
x,-y,-z
-x,1/2+y,-z
-x,-y,-z
x,1/2+y,-z
-x,y,z
x,1/2-y,z
1/2+x,1/2+y,1/2+z
1/2-x,-y,1/2+z
1/2+x,1/2-y,1/2-z
1/2-x,y,1/2-z
1/2-x,1/2-y,1/2-z
1/2+x,y,1/2-z
1/2-x,1/2+y,1/2+z
1/2+x,-y,1/2+z
loop_
_atom_site_type_symbol
_atom_site_label
_atom_site_fract_x
_atom_site_fract_y
_atom_site_fract_z
Si Si1 0.864698 0.353027 0.238068
Si Si2 0.000000 0.889899 0.960432
Si Si3 0.717240 0.609285 0.469899
Si Si4 0.145602 0.071794 0.680864
Si Si5 0.500000 0.354331 0.804086
O O1 0.870191 0.250000 0.314922
O O2 0.851068 0.456825 0.310413
O O3 0.933745 0.366002 0.138654
O O4 0.804227 0.344175 0.118813
O O5 0.000000 0.849521 0.125575
O O6 0.000000 0.000000 0.000000
O O7 0.708356 0.500000 0.500000
O O8 0.794970 0.617417 0.417593
O O9 0.664403 0.621765 0.336242
O O10 0.068404 0.094958 0.643348
O O11 0.500000 0.250000 0.863935
#
# Coordination Sequence:
#
# PCOD9538111 Si02
#       5
#    16   8  16  16   8
#     4  11  20  33  57  86 113 144 181 226 279 335
#     4  12  18  33  53  80 118 143 168 222 292 335
#     4   9  19  36  54  74 108 147 180 221 271 323
#     4  10  20  36  54  78 112 144 179 227 278 324
#     4  12  22  33  53  79 108 144 183 224 274 333
#
# _framework density 25.321935
#
# number of rings (size 3 to 8) (size 9 to 14) (size 15 to 20)
#    0.000    1.500    5.000    1.875    0.000    1.000 
#    0.000   13.125    0.000    1.500    0.000    0.000 
#    0.000    0.000    0.000    0.000    0.000    0.000 
#
# Total GULP energy -178795.058278 kJ/mol
# GULP energy per Si atom -5587.345571 kJ/mol
# Density = 2.526430 g / cm^3
# Si number density = 25.321935 Si / 1000 Ang^3
#
#
#
# Elastic Constant Matrix: (Units=GPa)
#
#
# Indices 1 2 3 4 5 6 
#
# 1 194.2648 45.7707 34.9313 0.0000 0.0000 0.0000
# 2 45.7707 171.4816 -0.5841 0.0000 0.0000 0.0000
# 3 34.9313 -0.5841 22.3860 0.0000 0.0000 0.0000
# 4 0.0000 0.0000 0.0000 10.9824 0.0000 0.0000
# 5 0.0000 0.0000 0.0000 0.0000 22.3477 0.0000
# 6 0.0000 0.0000 0.0000 0.0000 0.0000 16.0711
#
#
#
# Elastic Compliance Matrix: (Units=1/GPa)
#
#
# Indices 1 2 3 4 5 6 
#
# 1 0.007871 -0.002143 -0.012338 0.000000 0.000000 0.000000
# 2 -0.002143 0.006415 0.003511 0.000000 0.000000 0.000000
# 3 -0.012338 0.003511 0.064015 0.000000 0.000000 0.000000
# 4 0.000000 0.000000 0.000000 0.091054 0.000000 0.000000
# 5 0.000000 0.000000 0.000000 0.000000 0.044747 0.000000
# 6 0.000000 0.000000 0.000000 0.000000 0.000000 0.062224
#
#
# Mechanical properties :
#
#
# Convention : Reuss Voigt Hill
#
# Bulk Modulus (GPa) = 17.74245 60.92980 39.33613
# Shear Modulus (GPa) = 15.77022 30.41454 23.09238
#
# Velocity S-wave (km/s) = 2.49828 3.46947 3.02313
# Velocity P-wave (km/s) = 3.91712 6.33750 5.26820
#
# Compressibility (1/GPa) = 0.05636200
#
# Stress axis : x y z
#
# Youngs Moduli (GPa) = 127.04822 155.87342 15.62139
#
# Poissons Ratio (x) = 0.33402 0.19274
# Poissons Ratio (y) = 0.27225 -0.05485
# Poissons Ratio (z) = 1.56752 -0.54731
#
# Static dielectric constant tensor:
#      x y z
#    x 1.983990 0.000000 0.000000 
#    y 0.000000 2.134900 0.000000 
#    z 0.000000 0.000000 2.128190 
# 
# From -- ./inp_files/21620.got.cif
#   From: 2010.05.17/outbox.cif.g08.bks.cpg/sg74_11_cif.got.tgz:21620.got - 2010.06.03 17:57:02.
