data_PCOD9538882
_publ_section_title
;
Structure prediction by ZEFSAII (Michael W. Deem and Ramdas Pophale) SiO2 
 PCOD9538882
Probable space group: I M M A
;
_chemical_formula_sum "Si O2"
_cell_formula_units_Z 72
_cell_length_a 7.416221
_cell_length_b 18.226288
_cell_length_c 28.172427
_cell_angle_alpha 90.000000
_cell_angle_beta 90.000000
_cell_angle_gamma 90.000000
_cell_volume 3808.072023
_symmetry_space_group_name_H-M "I M M A"
_symmetry_group_IT_number 74
_symmetry_cell_setting 'orthorhombic'
loop_
_space_group_symop_operation_xyz
x,y,z
-x,1/2-y,z
x,-y,-z
-x,1/2+y,-z
-x,-y,-z
x,1/2+y,-z
-x,y,z
x,1/2-y,z
1/2+x,1/2+y,1/2+z
1/2-x,-y,1/2+z
1/2+x,1/2-y,1/2-z
1/2-x,y,1/2-z
1/2-x,1/2-y,1/2-z
1/2+x,y,1/2-z
1/2-x,1/2+y,1/2+z
1/2+x,-y,1/2+z
loop_
_atom_site_type_symbol
_atom_site_label
_atom_site_fract_x
_atom_site_fract_y
_atom_site_fract_z
Si Si1 0.000000 0.926355 0.437190
Si Si2 0.283994 0.164344 0.383524
Si Si3 0.000000 0.101262 0.454164
Si Si4 0.714165 0.547813 0.694483
Si Si5 0.219083 0.398729 0.857355
Si Si6 0.214205 0.750000 0.194202
O O1 0.000000 0.891213 0.489253
O O2 0.824289 0.904638 0.406762
O O3 0.000000 0.014434 0.443040
O O4 0.500000 0.155484 0.390166
O O5 0.248584 0.250000 0.374529
O O6 0.222629 0.113725 0.339337
O O7 0.173428 0.137216 0.429054
O O8 0.500000 0.547027 0.689454
O O9 0.750000 0.556949 0.750000
O O10 0.775483 0.469457 0.673946
O O11 0.276973 0.324568 0.830641
O O12 0.000000 0.399475 0.862890
O O13 0.250000 0.750000 0.250000
O O14 0.000000 0.750000 0.188231
#
# Coordination Sequence:
#
# PCOD9538882 Si02
#       6
#     8  16   8  16  16   8
#     4  11  24  39  70  91 121 163 209 267 312 360
#     4  10  22  42  63  88 129 165 203 256 307 371
#     4  11  23  42  65  98 115 161 219 256 317 368
#     4  10  21  35  59  89 120 162 204 247 306 368
#     4  10  22  41  59  87 127 163 205 258 311 377
#     4  10  22  38  60  90 124 168 210 253 315 375
#
# _framework density 18.907205000000001
#
# number of rings (size 3 to 8) (size 9 to 14) (size 15 to 20)
#    0.000    1.778    2.222    1.000    4.667    1.333 
#    4.000    2.222    0.000    0.000    0.000    0.000 
#    0.000    0.000    0.000    0.000    0.000    0.000 
#
# Total GULP energy -201011.881915 kJ/mol
# GULP energy per Si atom -5583.663387 kJ/mol
# Density = 1.886417 g / cm^3
# Si number density = 18.907205 Si / 1000 Ang^3
#
#
#
# Elastic Constant Matrix: (Units=GPa)
#
#
# Indices 1 2 3 4 5 6 
#
# 1 80.8348 47.1731 49.0395 0.0000 0.0000 0.0000
# 2 47.1731 171.1850 103.4921 0.0000 0.0000 0.0000
# 3 49.0395 103.4921 190.0560 0.0000 0.0000 0.0000
# 4 0.0000 0.0000 0.0000 19.2767 0.0000 0.0000
# 5 0.0000 0.0000 0.0000 0.0000 35.2623 0.0000
# 6 0.0000 0.0000 0.0000 0.0000 0.0000 7.6642
#
#
#
# Elastic Compliance Matrix: (Units=1/GPa)
#
#
# Indices 1 2 3 4 5 6 
#
# 1 0.015496 -0.002762 -0.002494 0.000000 0.000000 0.000000
# 2 -0.002762 0.009201 -0.004297 0.000000 0.000000 0.000000
# 3 -0.002494 -0.004297 0.008245 0.000000 0.000000 0.000000
# 4 0.000000 0.000000 0.000000 0.051876 0.000000 0.000000
# 5 0.000000 0.000000 0.000000 0.000000 0.028359 0.000000
# 6 0.000000 0.000000 0.000000 0.000000 0.000000 0.130477
#
#
# Mechanical properties :
#
#
# Convention : Reuss Voigt Hill
#
# Bulk Modulus (GPa) = 72.28414 93.49835 82.89125
# Shear Modulus (GPa) = 18.70039 28.59871 23.64955
#
# Velocity S-wave (km/s) = 3.14835 3.89341 3.54053
# Velocity P-wave (km/s) = 7.17845 8.35285 7.78782
#
# Compressibility (1/GPa) = 0.01383429
#
# Stress axis : x y z
#
# Youngs Moduli (GPa) = 64.53248 108.68466 121.28103
#
# Poissons Ratio (x) = 0.30022 0.30250
# Poissons Ratio (y) = 0.17826 0.52120
# Poissons Ratio (z) = 0.16096 0.46707
#
# Static dielectric constant tensor:
#      x y z
#    x 1.665640 0.000000 0.000000 
#    y 0.000000 1.662710 0.000000 
#    z 0.000000 0.000000 1.666460 
# 
# From -- ./inp_files/56712.got.cif
#   From: 2010.05.17/outbox.cif.g08.bks.cpg/sg74_29_cif.got.tgz:56712.got - 2010.06.03 17:57:02.
