data_PCOD9538210
_publ_section_title
;
Structure prediction by ZEFSAII (Michael W. Deem and Ramdas Pophale) SiO2 
 PCOD9538210
Probable space group: I M M A
;
_chemical_formula_sum "Si O2"
_cell_formula_units_Z 88
_cell_length_a 8.757886
_cell_length_b 19.182905
_cell_length_c 28.071353
_cell_angle_alpha 90.000000
_cell_angle_beta 90.000000
_cell_angle_gamma 90.000000
_cell_volume 4716.034889
_symmetry_space_group_name_H-M "I M M A"
_symmetry_group_IT_number 74
_symmetry_cell_setting 'orthorhombic'
loop_
_space_group_symop_operation_xyz
x,y,z
-x,1/2-y,z
x,-y,-z
-x,1/2+y,-z
-x,-y,-z
x,1/2+y,-z
-x,y,z
x,1/2-y,z
1/2+x,1/2+y,1/2+z
1/2-x,-y,1/2+z
1/2+x,1/2-y,1/2-z
1/2-x,y,1/2-z
1/2-x,1/2-y,1/2-z
1/2+x,y,1/2-z
1/2-x,1/2+y,1/2+z
1/2+x,-y,1/2+z
loop_
_atom_site_type_symbol
_atom_site_label
_atom_site_fract_x
_atom_site_fract_y
_atom_site_fract_z
Si Si1 0.181015 0.750000 0.197822
Si Si2 0.681412 0.168852 0.014468
Si Si3 0.821000 0.107828 0.663219
Si Si4 0.819582 0.086892 0.095108
Si Si5 0.316969 0.033558 0.299904
Si Si6 0.819845 0.930322 0.064928
O O1 0.250000 0.750000 0.250000
O O2 0.242354 0.680588 0.173766
O O3 0.000000 0.750000 0.198903
O O4 0.500000 0.161034 0.007008
O O5 0.721715 0.250000 0.005831
O O6 0.725272 0.145488 0.067855
O O7 0.770987 0.115664 0.979970
O O8 0.786720 0.092910 0.608242
O O9 0.000000 0.110565 0.673546
O O10 0.745508 0.044743 0.692494
O O11 0.775933 0.072620 0.150361
O O12 0.000000 0.103536 0.094182
O O13 0.800908 0.014198 0.065522
O O14 0.500000 0.032034 0.297295
O O15 0.250000 0.061192 0.250000
O O16 0.000000 0.918432 0.075365
#
# Coordination Sequence:
#
# PCOD9538210 Si02
#       6
#     8  16  16  16  16  16
#     4  12  24  38  52  70 102 146 190 234 285 332
#     4  11  24  38  55  83 117 150 188 233 282 339
#     4  11  22  36  54  78 109 144 185 233 279 330
#     4   9  20  38  59  84 113 146 188 233 278 334
#     4  10  20  36  58  85 113 142 182 229 278 336
#     4  10  21  38  59  83 111 147 189 233 280 335
#
# _framework density 18.659742999999999
#
# number of rings (size 3 to 8) (size 9 to 14) (size 15 to 20)
#    0.000    1.636    0.000    6.273    1.273    8.000 
#    0.000    0.000    0.000    0.545    0.000    0.000 
#    0.000    0.000    0.000    0.000    0.000    0.000 
#
# Total GULP energy -245662.964600 kJ/mol
# GULP energy per Si atom -5583.249195 kJ/mol
# Density = 1.861727 g / cm^3
# Si number density = 18.659743 Si / 1000 Ang^3
#
#
#
# Elastic Constant Matrix: (Units=GPa)
#
#
# Indices 1 2 3 4 5 6 
#
# 1 71.3332 14.1010 18.3084 0.0000 0.0000 0.0000
# 2 14.1010 27.1254 20.4518 0.0000 0.0000 0.0000
# 3 18.3084 20.4518 83.9807 0.0000 0.0000 0.0000
# 4 0.0000 0.0000 0.0000 7.5734 0.0000 0.0000
# 5 0.0000 0.0000 0.0000 0.0000 35.1588 0.0000
# 6 0.0000 0.0000 0.0000 0.0000 0.0000 24.6923
#
#
#
# Elastic Compliance Matrix: (Units=1/GPa)
#
#
# Indices 1 2 3 4 5 6 
#
# 1 0.015837 -0.006896 -0.001773 0.000000 0.000000 0.000000
# 2 -0.006896 0.048160 -0.010225 0.000000 0.000000 0.000000
# 3 -0.001773 -0.010225 0.014784 0.000000 0.000000 0.000000
# 4 0.000000 0.000000 0.000000 0.132041 0.000000 0.000000
# 5 0.000000 0.000000 0.000000 0.000000 0.028442 0.000000
# 6 0.000000 0.000000 0.000000 0.000000 0.000000 0.040499
#
#
# Mechanical properties :
#
#
# Convention : Reuss Voigt Hill
#
# Bulk Modulus (GPa) = 24.39446 32.01798 28.20622
# Shear Modulus (GPa) = 15.09590 22.12343 18.60966
#
# Velocity S-wave (km/s) = 2.84739 3.44702 3.16146
# Velocity P-wave (km/s) = 4.88998 5.74793 5.33623
#
# Compressibility (1/GPa) = 0.04099291
#
# Stress axis : x y z
#
# Youngs Moduli (GPa) = 63.14327 20.76414 67.63984
#
# Poissons Ratio (x) = 0.14319 0.11994
# Poissons Ratio (y) = 0.43542 0.69162
# Poissons Ratio (z) = 0.11197 0.21231
#
# Static dielectric constant tensor:
#      x y z
#    x 1.617450 0.000000 0.000000 
#    y 0.000000 1.568330 0.000000 
#    z 0.000000 0.000000 1.678740 
# 
# From -- ./inp_files/70212.got.cif
#   From: 2010.05.17/outbox.cif.g08.bks.cpg/sg74_36_cif.got.tgz:70212.got - 2010.06.03 17:57:02.
