data_PCOD9538450
_publ_section_title
;
Structure prediction by ZEFSAII (Michael W. Deem and Ramdas Pophale) SiO2 
 PCOD9538450
Probable space group: I M M A
;
_chemical_formula_sum "Si O2"
_cell_formula_units_Z 112
_cell_length_a 12.045964
_cell_length_b 22.927432
_cell_length_c 18.637954
_cell_angle_alpha 90.000000
_cell_angle_beta 90.000000
_cell_angle_gamma 90.000000
_cell_volume 5147.486431
_symmetry_space_group_name_H-M "I M M A"
_symmetry_group_IT_number 74
_symmetry_cell_setting 'orthorhombic'
loop_
_space_group_symop_operation_xyz
x,y,z
-x,1/2-y,z
x,-y,-z
-x,1/2+y,-z
-x,-y,-z
x,1/2+y,-z
-x,y,z
x,1/2-y,z
1/2+x,1/2+y,1/2+z
1/2-x,-y,1/2+z
1/2+x,1/2-y,1/2-z
1/2-x,y,1/2-z
1/2-x,1/2-y,1/2-z
1/2+x,y,1/2-z
1/2-x,1/2+y,1/2+z
1/2+x,-y,1/2+z
loop_
_atom_site_type_symbol
_atom_site_label
_atom_site_fract_x
_atom_site_fract_y
_atom_site_fract_z
Si Si1 0.708253 0.094484 0.387085
Si Si2 0.875683 0.680350 0.782388
Si Si3 0.370792 0.101073 0.544746
Si Si4 0.875418 0.812714 0.577636
Si Si5 0.873994 0.626062 0.273073
Si Si6 0.626768 0.984816 0.320497
Si Si7 0.183984 0.683830 0.413972
O O1 0.628682 0.144866 0.356621
O O2 0.673551 0.078308 0.468249
O O3 0.822771 0.128741 0.393362
O O4 0.703816 0.040256 0.333430
O O5 0.876599 0.750000 0.788494
O O6 0.750000 0.666584 0.750000
O O7 0.000000 0.664986 0.751518
O O8 0.500000 0.112181 0.537499
O O9 0.354850 0.056267 0.610117
O O10 0.305415 0.158923 0.568215
O O11 0.820670 0.750000 0.598075
O O12 0.872321 0.815785 0.491555
O O13 0.000000 0.809163 0.601289
O O14 0.750000 0.650646 0.250000
O O15 0.867159 0.558795 0.247201
O O16 0.871756 0.640875 0.356931
O O17 0.000000 0.645142 0.246508
O O18 0.500000 0.007078 0.323782
O O19 0.183104 0.750000 0.385831
#
# Coordination Sequence:
#
# PCOD9538450 Si02
#       7
#    16  16  16  16  16  16  16
#     4  11  21  36  64  92 120 158 208 255 316 380
#     4  10  22  40  60  86 120 154 192 245 307 371
#     4  10  20  37  61  91 126 162 206 262 319 375
#     4   9  19  37  62  94 129 164 207 260 320 387
#     4  11  23  41  62  87 124 171 221 272 319 371
#     4  10  21  38  58  84 120 165 212 257 307 366
#     4  10  21  38  62  91 128 172 214 258 317 384
#
# _framework density 21.758192999999999
#
# number of rings (size 3 to 8) (size 9 to 14) (size 15 to 20)
#    0.000    1.857    1.429    2.571    0.000    4.286 
#    0.000    2.143    0.000    1.714    0.000    0.000 
#    0.000    0.000    0.000    0.000    0.000    0.000 
#
# Total GULP energy -311809.059117 kJ/mol
# GULP energy per Si atom -5568.018913 kJ/mol
# Density = 2.170867 g / cm^3
# Si number density = 21.758193 Si / 1000 Ang^3
#
#
#
# Elastic Constant Matrix: (Units=GPa)
#
#
# Indices 1 2 3 4 5 6 
#
# 1 137.6708 33.7471 8.3635 0.0000 0.0000 0.0000
# 2 33.7471 93.8654 60.1848 0.0000 0.0000 0.0000
# 3 8.3635 60.1848 79.5194 0.0000 0.0000 0.0000
# 4 0.0000 0.0000 0.0000 24.0232 0.0000 0.0000
# 5 0.0000 0.0000 0.0000 0.0000 9.7257 0.0000
# 6 0.0000 0.0000 0.0000 0.0000 0.0000 7.9301
#
#
#
# Elastic Compliance Matrix: (Units=1/GPa)
#
#
# Indices 1 2 3 4 5 6 
#
# 1 0.008249 -0.004681 0.002675 0.000000 0.000000 0.000000
# 2 -0.004681 0.023354 -0.017183 0.000000 0.000000 0.000000
# 3 0.002675 -0.017183 0.025300 0.000000 0.000000 0.000000
# 4 0.000000 0.000000 0.000000 0.041627 0.000000 0.000000
# 5 0.000000 0.000000 0.000000 0.000000 0.102820 0.000000
# 6 0.000000 0.000000 0.000000 0.000000 0.000000 0.126102
#
#
# Mechanical properties :
#
#
# Convention : Reuss Voigt Hill
#
# Bulk Modulus (GPa) = 53.98367 57.29404 55.63885
# Shear Modulus (GPa) = 13.44072 22.25314 17.84693
#
# Velocity S-wave (km/s) = 2.48812 3.20151 2.86709
# Velocity P-wave (km/s) = 5.75490 6.32895 6.04874
#
# Compressibility (1/GPa) = 0.01852412
#
# Stress axis : x y z
#
# Youngs Moduli (GPa) = 121.23266 42.81893 39.52631
#
# Poissons Ratio (x) = 0.20043 -0.10574
# Poissons Ratio (y) = 0.56748 0.67920
# Poissons Ratio (z) = -0.32432 0.73578
#
# Static dielectric constant tensor:
#      x y z
#    x 1.939080 0.000000 0.000000 
#    y 0.000000 1.770250 0.000000 
#    z 0.000000 0.000000 1.851430 
# 
# From -- ./inp_files/50997.got.cif
#   From: 2010.05.17/outbox.cif.g08.bks.cpg/sg74_26_cif.got.tgz:50997.got - 2010.06.03 17:57:02.
