data_PCOD9538911
_publ_section_title
;
Structure prediction by ZEFSAII (Michael W. Deem and Ramdas Pophale) SiO2 
 PCOD9538911
Probable space group: I M M A
;
_chemical_formula_sum "Si O2"
_cell_formula_units_Z 104
_cell_length_a 8.514810
_cell_length_b 21.209476
_cell_length_c 29.921309
_cell_angle_alpha 90.000000
_cell_angle_beta 90.000000
_cell_angle_gamma 90.000000
_cell_volume 5403.628576
_symmetry_space_group_name_H-M "I M M A"
_symmetry_group_IT_number 74
_symmetry_cell_setting 'orthorhombic'
loop_
_space_group_symop_operation_xyz
x,y,z
-x,1/2-y,z
x,-y,-z
-x,1/2+y,-z
-x,-y,-z
x,1/2+y,-z
-x,y,z
x,1/2-y,z
1/2+x,1/2+y,1/2+z
1/2-x,-y,1/2+z
1/2+x,1/2-y,1/2-z
1/2-x,y,1/2-z
1/2-x,1/2-y,1/2-z
1/2+x,y,1/2-z
1/2-x,1/2+y,1/2+z
1/2+x,-y,1/2+z
loop_
_atom_site_type_symbol
_atom_site_label
_atom_site_fract_x
_atom_site_fract_y
_atom_site_fract_z
Si Si1 0.812506 0.750000 0.198585
Si Si2 0.810400 0.318514 0.391285
Si Si3 0.310784 0.485367 0.798726
Si Si4 0.810299 0.426604 0.945281
Si Si5 0.810962 0.870140 0.701804
Si Si6 0.188457 0.868903 0.358350
Si Si7 0.688934 0.069313 0.451540
O O1 0.750000 0.750000 0.250000
O O2 0.755924 0.689122 0.170220
O O3 0.000000 0.750000 0.200911
O O4 0.757402 0.250000 0.407708
O O5 0.760540 0.328639 0.339980
O O6 0.749898 0.376290 0.419979
O O7 0.000000 0.319904 0.392121
O O8 0.500000 0.485663 0.798425
O O9 0.250000 0.466322 0.750000
O O10 0.257971 0.557318 0.806589
O O11 0.258623 0.433866 0.834367
O O12 0.741913 0.377760 0.909559
O O13 0.758557 0.499285 0.936517
O O14 0.000000 0.424055 0.942517
O O15 0.764560 0.416863 0.997085
O O16 0.750000 0.849907 0.750000
O O17 0.000000 0.870233 0.703358
O O18 0.000000 0.864664 0.356768
O O19 0.500000 0.067871 0.451004
#
# Coordination Sequence:
#
# PCOD9538911 Si02
#       7
#     8  16  16  16  16  16  16
#     4  12  26  44  62  82 116 160 202 246 295 352
#     4  10  21  36  53  76 109 148 186 226 277 330
#     4   9  18  31  50  76 105 136 174 222 273 324
#     4   9  19  37  60  86 114 144 182 233 291 343
#     4   9  18  33  51  75 107 141 179 224 272 322
#     4  11  22  37  58  86 114 148 193 237 285 347
#     4   9  19  37  60  85 113 146 187 232 282 345
#
# _framework density 19.246327000000001
#
# number of rings (size 3 to 8) (size 9 to 14) (size 15 to 20)
#    0.000    2.308    0.000    3.462    0.000    6.154 
#    1.385    4.615    0.000    0.000    0.000    0.000 
#    0.000    0.000    0.000    0.000    0.000    0.000 
#
# Total GULP energy -290177.974571 kJ/mol
# GULP energy per Si atom -5580.345665 kJ/mol
# Density = 1.920252 g / cm^3
# Si number density = 19.246327 Si / 1000 Ang^3
#
#
#
# Elastic Constant Matrix: (Units=GPa)
#
#
# Indices 1 2 3 4 5 6 
#
# 1 28.8287 24.6285 27.7213 0.0000 0.0000 0.0000
# 2 24.6285 79.1874 72.9487 0.0000 0.0000 0.0000
# 3 27.7213 72.9487 117.6308 0.0000 0.0000 0.0000
# 4 0.0000 0.0000 0.0000 23.0181 0.0000 0.0000
# 5 0.0000 0.0000 0.0000 0.0000 31.4907 0.0000
# 6 0.0000 0.0000 0.0000 0.0000 0.0000 20.9402
#
#
#
# Elastic Compliance Matrix: (Units=1/GPa)
#
#
# Indices 1 2 3 4 5 6 
#
# 1 0.048387 -0.010600 -0.004829 0.000000 0.000000 0.000000
# 2 -0.010600 0.031779 -0.017209 0.000000 0.000000 0.000000
# 3 -0.004829 -0.017209 0.020312 0.000000 0.000000 0.000000
# 4 0.000000 0.000000 0.000000 0.043444 0.000000 0.000000
# 5 0.000000 0.000000 0.000000 0.000000 0.031755 0.000000
# 6 0.000000 0.000000 0.000000 0.000000 0.000000 0.047755
#
#
# Mechanical properties :
#
#
# Convention : Reuss Voigt Hill
#
# Bulk Modulus (GPa) = 28.40948 52.91599 40.66273
# Shear Modulus (GPa) = 16.64204 21.77971 19.21088
#
# Velocity S-wave (km/s) = 2.94375 3.36762 3.16279
# Velocity P-wave (km/s) = 5.13295 6.53260 5.87461
#
# Compressibility (1/GPa) = 0.03519952
#
# Stress axis : x y z
#
# Youngs Moduli (GPa) = 20.66655 31.46751 49.23270
#
# Poissons Ratio (x) = 0.33357 0.23776
# Poissons Ratio (y) = 0.21907 0.84727
# Poissons Ratio (z) = 0.09980 0.54154
#
# Static dielectric constant tensor:
#      x y z
#    x 1.660680 0.000000 0.000000 
#    y 0.000000 1.673900 0.000000 
#    z 0.000000 0.000000 1.662760 
# 
# From -- ./inp_files/64467.got.cif
#   From: 2010.05.17/outbox.cif.g08.bks.cpg/sg74_33_cif.got.tgz:64467.got - 2010.06.03 17:57:02.
