data_PCOD9538178
_publ_section_title
;
Structure prediction by ZEFSAII (Michael W. Deem and Ramdas Pophale) SiO2 
 PCOD9538178
Probable space group: I M M A
;
_chemical_formula_sum "Si O2"
_cell_formula_units_Z 112
_cell_length_a 33.891167
_cell_length_b 16.387478
_cell_length_c 11.060706
_cell_angle_alpha 90.000000
_cell_angle_beta 90.000000
_cell_angle_gamma 90.000000
_cell_volume 6143.013841
_symmetry_space_group_name_H-M "I M M A"
_symmetry_group_IT_number 74
_symmetry_cell_setting 'orthorhombic'
loop_
_space_group_symop_operation_xyz
x,y,z
-x,1/2-y,z
x,-y,-z
-x,1/2+y,-z
-x,-y,-z
x,1/2+y,-z
-x,y,z
x,1/2-y,z
1/2+x,1/2+y,1/2+z
1/2-x,-y,1/2+z
1/2+x,1/2-y,1/2-z
1/2-x,y,1/2-z
1/2-x,1/2-y,1/2-z
1/2+x,y,1/2-z
1/2-x,1/2+y,1/2+z
1/2+x,-y,1/2+z
loop_
_atom_site_type_symbol
_atom_site_label
_atom_site_fract_x
_atom_site_fract_y
_atom_site_fract_z
Si Si1 0.308919 0.409267 0.837229
Si Si2 0.229733 0.652815 0.088305
Si Si3 0.884374 0.845995 0.477084
Si Si4 0.638338 0.442415 0.213880
Si Si5 0.154060 0.845732 0.947401
Si Si6 0.544541 0.152258 0.798511
Si Si7 0.089799 0.943554 0.105174
O O1 0.270426 0.396111 0.919380
O O2 0.293915 0.372258 0.710010
O O3 0.324189 0.501233 0.819621
O O4 0.346353 0.361564 0.891647
O O5 0.238174 0.750000 0.093006
O O6 0.199001 0.635238 0.982692
O O7 0.885878 0.750000 0.509144
O O8 0.879284 0.903140 0.593464
O O9 0.923570 0.867842 0.401955
O O10 0.647844 0.372228 0.310075
O O11 0.609240 0.501345 0.289658
O O12 0.147399 0.750000 0.965802
O O13 0.124743 0.894872 0.036226
O O14 0.500000 0.125516 0.826766
O O15 0.544901 0.250000 0.788028
O O16 0.559542 0.114604 0.672936
O O17 0.071782 0.000000 0.000000
#
# Coordination Sequence:
#
# PCOD9538178 Si02
#       7
#    16  16  16  16  16  16  16
#     4  11  20  35  57  80 112 145 193 243 282 338
#     4  10  20  36  57  84 112 149 198 239 289 345
#     4  11  22  39  59  81 114 154 194 237 287 345
#     4  11  22  37  54  87 116 147 196 238 291 343
#     4  10  20  38  60  82 116 157 194 237 289 352
#     4  10  21  38  63  90 115 150 195 237 283 346
#     4  10  20  36  59  87 120 150 189 234 290 346
#
# _framework density 18.232092999999999
#
# number of rings (size 3 to 8) (size 9 to 14) (size 15 to 20)
#    0.000    1.571    2.857    3.000    0.000    2.571 
#   10.286    1.429    0.000    3.429    0.000    8.000 
#    0.000    0.000    0.000    0.000    0.000    0.000 
#
# Total GULP energy -312596.798784 kJ/mol
# GULP energy per Si atom -5582.085693 kJ/mol
# Density = 1.819060 g / cm^3
# Si number density = 18.232093 Si / 1000 Ang^3
#
#
#
# Elastic Constant Matrix: (Units=GPa)
#
#
# Indices 1 2 3 4 5 6 
#
# 1 128.6545 33.7096 67.5494 0.0000 0.0000 0.0000
# 2 33.7096 46.7009 40.2561 0.0000 0.0000 0.0000
# 3 67.5494 40.2561 92.8131 0.0000 0.0000 0.0000
# 4 0.0000 0.0000 0.0000 37.6071 0.0000 0.0000
# 5 0.0000 0.0000 0.0000 0.0000 7.2263 0.0000
# 6 0.0000 0.0000 0.0000 0.0000 0.0000 22.0483
#
#
#
# Elastic Compliance Matrix: (Units=1/GPa)
#
#
# Indices 1 2 3 4 5 6 
#
# 1 0.012686 -0.001914 -0.008403 0.000000 0.000000 0.000000
# 2 -0.001914 0.034488 -0.013566 0.000000 0.000000 0.000000
# 3 -0.008403 -0.013566 0.022774 0.000000 0.000000 0.000000
# 4 0.000000 0.000000 0.000000 0.026591 0.000000 0.000000
# 5 0.000000 0.000000 0.000000 0.000000 0.138384 0.000000
# 6 0.000000 0.000000 0.000000 0.000000 0.000000 0.045355
#
#
# Mechanical properties :
#
#
# Convention : Reuss Voigt Hill
#
# Bulk Modulus (GPa) = 45.07933 61.24430 53.16181
# Shear Modulus (GPa) = 14.90595 21.81990 18.36293
#
# Velocity S-wave (km/s) = 2.86241 3.46321 3.17705
# Velocity P-wave (km/s) = 5.97524 7.04671 6.53298
#
# Compressibility (1/GPa) = 0.02218312
#
# Stress axis : x y z
#
# Youngs Moduli (GPa) = 78.82651 28.99573 43.91000
#
# Poissons Ratio (x) = 0.05549 0.36897
# Poissons Ratio (y) = 0.15086 0.59567
# Poissons Ratio (z) = 0.66237 0.39335
#
# Static dielectric constant tensor:
#      x y z
#    x 1.618970 0.000000 0.000000 
#    y 0.000000 1.637420 0.000000 
#    z 0.000000 0.000000 1.621660 
# 
# From -- ./inp_files/27210.got.cif
#   From: 2010.05.17/outbox.cif.g08.bks.cpg/sg74_14_cif.got.tgz:27210.got - 2010.06.03 17:57:02.
