data_PCOD9538447
_publ_section_title
;
Structure prediction by ZEFSAII (Michael W. Deem and Ramdas Pophale) SiO2 
 PCOD9538447
Probable space group: I M M A
;
_chemical_formula_sum "Si O2"
_cell_formula_units_Z 80
_cell_length_a 23.776236
_cell_length_b 14.735197
_cell_length_c 10.029060
_cell_angle_alpha 90.000000
_cell_angle_beta 90.000000
_cell_angle_gamma 90.000000
_cell_volume 3513.656313
_symmetry_space_group_name_H-M "I M M A"
_symmetry_group_IT_number 74
_symmetry_cell_setting 'orthorhombic'
loop_
_space_group_symop_operation_xyz
x,y,z
-x,1/2-y,z
x,-y,-z
-x,1/2+y,-z
-x,-y,-z
x,1/2+y,-z
-x,y,z
x,1/2-y,z
1/2+x,1/2+y,1/2+z
1/2-x,-y,1/2+z
1/2+x,1/2-y,1/2-z
1/2-x,y,1/2-z
1/2-x,1/2-y,1/2-z
1/2+x,y,1/2-z
1/2-x,1/2+y,1/2+z
1/2+x,-y,1/2+z
loop_
_atom_site_type_symbol
_atom_site_label
_atom_site_fract_x
_atom_site_fract_y
_atom_site_fract_z
Si Si1 0.157479 0.145407 0.722109
Si Si2 0.559938 0.593743 0.582730
Si Si3 0.092337 0.979841 0.647159
Si Si4 0.685687 0.356049 0.492523
Si Si5 0.699141 0.144087 0.079223
O O1 0.141425 0.250000 0.746748
O O2 0.188282 0.111031 0.854859
O O3 0.189816 0.144560 0.581851
O O4 0.105432 0.078854 0.705245
O O5 0.560735 0.500000 0.500000
O O6 0.500000 0.639641 0.547794
O O7 0.559447 0.573685 0.740484
O O8 0.621488 0.634510 0.553868
O O9 0.150907 0.923454 0.630094
O O10 0.069047 0.000000 0.500000
O O11 0.699346 0.250000 0.495871
O O12 0.737048 0.391679 0.402976
O O13 0.691395 0.250000 0.126208
#
# Coordination Sequence:
#
# PCOD9538447 Si02
#       5
#    16  16  16  16  16
#     4   9  17  34  58  89 124 158 199 242 293 360
#     4  11  24  41  59  83 118 157 206 256 296 352
#     4  10  21  39  61  92 119 161 198 245 305 365
#     4  10  20  37  61  88 122 161 200 249 304 358
#     4   9  19  35  58  92 128 158 193 244 303 370
#
# _framework density 22.768305000000002
#
# number of rings (size 3 to 8) (size 9 to 14) (size 15 to 20)
#    0.000    2.200    2.000    0.600    0.000    7.200 
#    7.200    2.000    0.000    0.600    0.000    5.600 
#    0.000    0.000    0.000    0.000    0.000    0.000 
#
# Total GULP energy -223026.491083 kJ/mol
# GULP energy per Si atom -5575.662277 kJ/mol
# Density = 2.271648 g / cm^3
# Si number density = 22.768305 Si / 1000 Ang^3
#
#
#
# Elastic Constant Matrix: (Units=GPa)
#
#
# Indices 1 2 3 4 5 6 
#
# 1 128.2613 16.1341 21.2470 0.0000 0.0000 0.0000
# 2 16.1341 56.6758 5.6415 0.0000 0.0000 0.0000
# 3 21.2470 5.6415 91.7910 0.0000 0.0000 0.0000
# 4 0.0000 0.0000 0.0000 15.5795 0.0000 0.0000
# 5 0.0000 0.0000 0.0000 0.0000 -3.5646 0.0000
# 6 0.0000 0.0000 0.0000 0.0000 0.0000 -10.4791
#
#
#
# Elastic Compliance Matrix: (Units=1/GPa)
#
#
# Indices 1 2 3 4 5 6 
#
# 1 0.008372 -0.002204 -0.001803 0.000000 0.000000 0.000000
# 2 -0.002204 0.018333 -0.000617 0.000000 0.000000 0.000000
# 3 -0.001803 -0.000617 0.011349 0.000000 0.000000 0.000000
# 4 0.000000 0.000000 0.000000 0.064187 0.000000 0.000000
# 5 0.000000 0.000000 0.000000 0.000000 -0.280533 0.000000
# 6 0.000000 0.000000 0.000000 0.000000 0.000000 -0.095428
#
#
# Mechanical properties :
#
#
# Convention : Reuss Voigt Hill
#
# Bulk Modulus (GPa) = 34.71177 40.30815 37.50996
# Shear Modulus (GPa) = -19.61779 15.88754 -1.86513
#
# Velocity S-wave (km/s) = -2.93853 2.64444 -0.90607
# Velocity P-wave (km/s) = 1.94048 5.20251 3.92630
#
# Compressibility (1/GPa) = 0.02880867
#
# Stress axis : x y z
#
# Youngs Moduli (GPa) = 119.43985 54.54648 88.11004
#
# Poissons Ratio (x) = 0.12022 0.15882
# Poissons Ratio (y) = 0.26324 0.05433
# Poissons Ratio (z) = 0.21529 0.03363
#
# Static dielectric constant tensor:
#      x y z
#    x 1.897680 0.000000 0.000000 
#    y 0.000000 1.833420 0.000000 
#    z 0.000000 0.000000 1.897010 
# 
# From -- ./inp_files/24877.got.cif
#   From: 2010.05.17/outbox.cif.g08.bks.cpg/sg74_13_cif.got.tgz:24877.got - 2010.06.03 17:57:02.
