data_PCOD9538545
_publ_section_title
;
Structure prediction by ZEFSAII (Michael W. Deem and Ramdas Pophale) SiO2 
 PCOD9538545
Probable space group: I M M A
;
_chemical_formula_sum "Si O2"
_cell_formula_units_Z 56
_cell_length_a 8.468533
_cell_length_b 14.443467
_cell_length_c 21.348008
_cell_angle_alpha 90.000000
_cell_angle_beta 90.000000
_cell_angle_gamma 90.000000
_cell_volume 2611.181106
_symmetry_space_group_name_H-M "I M M A"
_symmetry_group_IT_number 74
_symmetry_cell_setting 'orthorhombic'
loop_
_space_group_symop_operation_xyz
x,y,z
-x,1/2-y,z
x,-y,-z
-x,1/2+y,-z
-x,-y,-z
x,1/2+y,-z
-x,y,z
x,1/2-y,z
1/2+x,1/2+y,1/2+z
1/2-x,-y,1/2+z
1/2+x,1/2-y,1/2-z
1/2-x,y,1/2-z
1/2-x,1/2-y,1/2-z
1/2+x,y,1/2-z
1/2-x,1/2+y,1/2+z
1/2+x,-y,1/2+z
loop_
_atom_site_type_symbol
_atom_site_label
_atom_site_fract_x
_atom_site_fract_y
_atom_site_fract_z
Si Si1 0.313243 0.448817 0.683043
Si Si2 0.308140 0.750000 0.003775
Si Si3 0.810073 0.750000 0.819463
Si Si4 0.689825 0.250000 0.850490
Si Si5 0.187327 0.906617 0.591093
O O1 0.500000 0.456398 0.685016
O O2 0.250000 0.487544 0.750000
O O3 0.257409 0.343059 0.679005
O O4 0.254892 0.498199 0.618775
O O5 0.500000 0.750000 0.998548
O O6 0.255430 0.845231 0.968687
O O7 0.265858 0.750000 0.075994
O O8 0.750000 0.750000 0.750000
O O9 0.734407 0.662475 0.853422
O O10 0.000000 0.750000 0.824632
O O11 0.000000 0.250000 0.654799
O O12 0.000000 0.918775 0.583949
#
# Coordination Sequence:
#
# PCOD9538545 Si02
#       5
#    16   8   8   8  16
#     4  12  25  42  62  90 122 159 202 252 306 359
#     4   8  19  39  65  92 122 159 202 241 292 359
#     4  11  20  32  51  81 118 157 195 242 298 356
#     4  11  23  43  66  89 118 160 205 251 297 355
#     4  10  20  38  61  88 119 157 199 244 293 356
#
# _framework density 21.446234
#
# number of rings (size 3 to 8) (size 9 to 14) (size 15 to 20)
#    0.000    1.429    0.000    7.286    0.000    1.143 
#    0.000   14.286    0.000    0.000    0.000    0.000 
#    0.000    0.000    0.000    0.000    0.000    0.000 
#
# Total GULP energy -156315.304089 kJ/mol
# GULP energy per Si atom -5582.689432 kJ/mol
# Density = 2.139742 g / cm^3
# Si number density = 21.446234 Si / 1000 Ang^3
#
#
#
# Elastic Constant Matrix: (Units=GPa)
#
#
# Indices 1 2 3 4 5 6 
#
# 1 96.7628 15.4452 19.0511 0.0000 0.0000 0.0000
# 2 15.4452 95.8233 14.6541 0.0000 0.0000 0.0000
# 3 19.0511 14.6541 116.1629 0.0000 0.0000 0.0000
# 4 0.0000 0.0000 0.0000 31.0963 0.0000 0.0000
# 5 0.0000 0.0000 0.0000 0.0000 21.2027 0.0000
# 6 0.0000 0.0000 0.0000 0.0000 0.0000 -39.2617
#
#
#
# Elastic Compliance Matrix: (Units=1/GPa)
#
#
# Indices 1 2 3 4 5 6 
#
# 1 0.010890 -0.001511 -0.001595 0.000000 0.000000 0.000000
# 2 -0.001511 0.010851 -0.001121 0.000000 0.000000 0.000000
# 3 -0.001595 -0.001121 0.009012 0.000000 0.000000 0.000000
# 4 0.000000 0.000000 0.000000 0.032158 0.000000 0.000000
# 5 0.000000 0.000000 0.000000 0.000000 0.047164 0.000000
# 6 0.000000 0.000000 0.000000 0.000000 0.000000 -0.025470
#
#
# Mechanical properties :
#
#
# Convention : Reuss Voigt Hill
#
# Bulk Modulus (GPa) = 44.84871 45.22776 45.03824
# Shear Modulus (GPa) = 49.75522 19.91403 34.83462
#
# Velocity S-wave (km/s) = 4.82186 3.05053 4.03460
# Velocity P-wave (km/s) = 7.20819 5.79157 6.53836
#
# Compressibility (1/GPa) = 0.02229718
#
# Stress axis : x y z
#
# Youngs Moduli (GPa) = 91.82839 92.15822 110.96746
#
# Poissons Ratio (x) = 0.13928 0.17703
# Poissons Ratio (y) = 0.13878 0.12439
# Poissons Ratio (z) = 0.14650 0.10331
#
# Static dielectric constant tensor:
#      x y z
#    x 1.729670 0.000000 0.000000 
#    y 0.000000 1.849660 0.000000 
#    z 0.000000 0.000000 1.748750 
# 
# From -- ./inp_files/47875.got.cif
#   From: 2010.05.17/outbox.cif.g08.bks.cpg/sg74_24_cif.got.tgz:47875.got - 2010.06.03 17:57:02.
