data_PCOD9538558
_publ_section_title
;
Structure prediction by ZEFSAII (Michael W. Deem and Ramdas Pophale) SiO2 
 PCOD9538558
Probable space group: I M M A
;
_chemical_formula_sum "Si O2"
_cell_formula_units_Z 48
_cell_length_a 15.112886
_cell_length_b 12.886324
_cell_length_c 11.504857
_cell_angle_alpha 90.000000
_cell_angle_beta 90.000000
_cell_angle_gamma 90.000000
_cell_volume 2240.565673
_symmetry_space_group_name_H-M "I M M A"
_symmetry_group_IT_number 74
_symmetry_cell_setting 'orthorhombic'
loop_
_space_group_symop_operation_xyz
x,y,z
-x,1/2-y,z
x,-y,-z
-x,1/2+y,-z
-x,-y,-z
x,1/2+y,-z
-x,y,z
x,1/2-y,z
1/2+x,1/2+y,1/2+z
1/2-x,-y,1/2+z
1/2+x,1/2-y,1/2-z
1/2-x,y,1/2-z
1/2-x,1/2-y,1/2-z
1/2+x,y,1/2-z
1/2-x,1/2+y,1/2+z
1/2+x,-y,1/2+z
loop_
_atom_site_type_symbol
_atom_site_label
_atom_site_fract_x
_atom_site_fract_y
_atom_site_fract_z
Si Si1 0.402504 0.428920 0.173428
Si Si2 0.250000 0.073616 0.750000
Si Si3 0.711035 0.750000 0.405632
Si Si4 0.595811 0.750000 0.019348
Si Si5 0.340903 0.750000 0.673771
O O1 0.500000 0.478733 0.172745
O O2 0.318854 0.503999 0.177737
O O3 0.398670 0.350614 0.064249
O O4 0.392154 0.352231 0.284119
O O5 0.308520 0.145477 0.664518
O O6 0.818300 0.750000 0.403766
O O7 0.679889 0.750000 0.537899
O O8 0.500000 0.750000 0.077496
O O9 0.250000 0.750000 0.750000
#
# Coordination Sequence:
#
# PCOD9538558 Si02
#       5
#    16   8   8   8   8
#     4  10  20  38  62  89 115 145 192 241 287 337
#     4  11  24  39  54  84 124 157 186 227 288 350
#     4  11  23  38  57  81 119 160 189 231 286 339
#     4   9  18  35  62  89 110 139 191 253 290 324
#     4  11  18  38  63  86 111 146 190 238 281 332
#
# _framework density 21.423161
#
# number of rings (size 3 to 8) (size 9 to 14) (size 15 to 20)
#    0.000    1.667    5.000    1.500    0.000    6.667 
#    0.000   10.833    0.000    0.000    0.000    0.000 
#    0.000    0.000    0.000    0.000    0.000    0.000 
#
# Total GULP energy -134080.633031 kJ/mol
# GULP energy per Si atom -5586.693043 kJ/mol
# Density = 2.137440 g / cm^3
# Si number density = 21.423161 Si / 1000 Ang^3
#
#
#
# Elastic Constant Matrix: (Units=GPa)
#
#
# Indices 1 2 3 4 5 6 
#
# 1 76.1558 7.7864 -18.9930 0.0000 0.0000 0.0000
# 2 7.7864 77.5936 3.6077 0.0000 0.0000 0.0000
# 3 -18.9930 3.6077 69.8068 0.0000 0.0000 0.0000
# 4 0.0000 0.0000 0.0000 22.3923 0.0000 0.0000
# 5 0.0000 0.0000 0.0000 0.0000 21.5711 0.0000
# 6 0.0000 0.0000 0.0000 0.0000 0.0000 -13.5353
#
#
#
# Elastic Compliance Matrix: (Units=1/GPa)
#
#
# Indices 1 2 3 4 5 6 
#
# 1 0.014287 -0.001618 0.003971 0.000000 0.000000 0.000000
# 2 -0.001618 0.013102 -0.001117 0.000000 0.000000 0.000000
# 3 0.003971 -0.001117 0.015463 0.000000 0.000000 0.000000
# 4 0.000000 0.000000 0.000000 0.044658 0.000000 0.000000
# 5 0.000000 0.000000 0.000000 0.000000 0.046358 0.000000
# 6 0.000000 0.000000 0.000000 0.000000 0.000000 -0.073881
#
#
# Mechanical properties :
#
#
# Convention : Reuss Voigt Hill
#
# Bulk Modulus (GPa) = 22.06423 23.15093 22.60758
# Shear Modulus (GPa) = 68.84692 21.49597 45.17145
#
# Velocity S-wave (km/s) = 5.67507 3.17108 4.59686
# Velocity P-wave (km/s) = 7.29819 4.92317 6.22500
#
# Compressibility (1/GPa) = 0.04532223
#
# Stress axis : x y z
#
# Youngs Moduli (GPa) = 69.99505 76.32417 64.66899
#
# Poissons Ratio (x) = 0.12351 -0.25679
# Poissons Ratio (y) = 0.11327 0.07226
# Poissons Ratio (z) = -0.27793 0.08529
#
# Static dielectric constant tensor:
#      x y z
#    x 1.791320 0.000000 0.000000 
#    y 0.000000 1.849910 0.000000 
#    z 0.000000 0.000000 1.758960 
# 
# From -- ./inp_files/21416.got.cif
#   From: 2010.05.17/outbox.cif.g08.bks.cpg/sg74_11_cif.got.tgz:21416.got - 2010.06.03 17:57:02.
