data_PCOD9538098
_publ_section_title
;
Structure prediction by ZEFSAII (Michael W. Deem and Ramdas Pophale) SiO2 
 PCOD9538098
Probable space group: I M M A
;
_chemical_formula_sum "Si O2"
_cell_formula_units_Z 76
_cell_length_a 35.207433
_cell_length_b 11.572197
_cell_length_c 7.370797
_cell_angle_alpha 90.000000
_cell_angle_beta 90.000000
_cell_angle_gamma 90.000000
_cell_volume 3003.064293
_symmetry_space_group_name_H-M "I M M A"
_symmetry_group_IT_number 74
_symmetry_cell_setting 'orthorhombic'
loop_
_space_group_symop_operation_xyz
x,y,z
-x,1/2-y,z
x,-y,-z
-x,1/2+y,-z
-x,-y,-z
x,1/2+y,-z
-x,y,z
x,1/2-y,z
1/2+x,1/2+y,1/2+z
1/2-x,-y,1/2+z
1/2+x,1/2-y,1/2-z
1/2-x,y,1/2-z
1/2-x,1/2-y,1/2-z
1/2+x,y,1/2-z
1/2-x,1/2+y,1/2+z
1/2+x,-y,1/2+z
loop_
_atom_site_type_symbol
_atom_site_label
_atom_site_fract_x
_atom_site_fract_y
_atom_site_fract_z
Si Si1 0.000000 0.485684 0.787191
Si Si2 0.595936 0.250000 0.528140
Si Si3 0.416444 0.436910 0.241798
Si Si4 0.166274 0.508499 0.213427
Si Si5 0.416797 0.250000 0.958051
Si Si6 0.500000 0.750000 0.110438
Si Si7 0.677139 0.250000 0.319498
Si Si8 0.793740 0.750000 0.201848
O O1 0.959338 0.523838 0.707073
O O2 0.000000 0.353909 0.744373
O O3 0.000000 0.500000 0.000000
O O4 0.578975 0.360792 0.424924
O O5 0.589790 0.250000 0.743168
O O6 0.638733 0.250000 0.446497
O O7 0.379554 0.516811 0.270490
O O8 0.403207 0.640322 0.928860
O O9 0.177532 0.376582 0.278982
O O10 0.185743 0.630228 0.269401
O O11 0.175019 0.500000 0.000000
O O12 0.461778 0.250000 0.000212
O O13 0.707262 0.250000 0.481152
O O14 0.750000 0.750000 0.250000
#
# Coordination Sequence:
#
# PCOD9538098 Si02
#       8
#     8   8  16  16   8   4   8   8
#     4  12  25  42  65  94 132 180 245 299 353 421
#     4   9  19  40  70 105 135 180 234 288 355 428
#     4  10  22  40  67 100 134 184 237 292 356 419
#     4   9  18  37  67 100 135 182 234 290 352 434
#     4  11  23  41  66  93 141 176 233 301 356 418
#     4  12  28  42  56  90 134 190 226 296 376 418
#     4   8  17  37  67  93 134 181 231 279 349 436
#     4  10  20  35  66 103 138 176 230 287 358 428
#
# _framework density 25.307483999999999
#
# number of rings (size 3 to 8) (size 9 to 14) (size 15 to 20)
#    0.000    2.105    0.000    3.158    0.000    8.000 
#    0.000    0.526   13.895    0.000    0.000    7.368 
#    0.000    0.000    0.000    0.000    0.000    0.000 
#
# Total GULP energy -212178.773611 kJ/mol
# GULP energy per Si atom -5583.651937 kJ/mol
# Density = 2.524988 g / cm^3
# Si number density = 25.307484 Si / 1000 Ang^3
#
#
#
# Elastic Constant Matrix: (Units=GPa)
#
#
# Indices 1 2 3 4 5 6 
#
# 1 161.2270 94.0633 23.4857 0.0001 0.0000 0.0000
# 2 94.0633 238.2714 44.2364 0.0005 0.0002 0.0002
# 3 23.4857 44.2364 132.2048 0.0011 0.0004 0.0005
# 4 0.0001 0.0005 0.0011 26.5407 0.0003 0.0003
# 5 0.0000 0.0002 0.0004 0.0003 18.3915 0.0002
# 6 0.0000 0.0002 0.0005 0.0003 0.0002 22.8403
#
#
#
# Elastic Compliance Matrix: (Units=1/GPa)
#
#
# Indices 1 2 3 4 5 6 
#
# 1 0.008077 -0.003116 -0.000392 0.000000 0.000000 0.000000
# 2 -0.003116 0.005677 -0.001346 0.000000 0.000000 0.000000
# 3 -0.000392 -0.001346 0.008084 0.000000 0.000000 0.000000
# 4 0.000000 0.000000 0.000000 0.037678 -0.000001 0.000000
# 5 0.000000 0.000000 0.000000 -0.000001 0.054373 0.000000
# 6 0.000000 0.000000 0.000000 0.000000 0.000000 0.043782
#
#
# Mechanical properties :
#
#
# Convention : Reuss Voigt Hill
#
# Bulk Modulus (GPa) = 82.44048 95.03046 88.73547
# Shear Modulus (GPa) = 29.16756 38.21570 33.69163
#
# Velocity S-wave (km/s) = 3.39857 3.89016 3.65264
# Velocity P-wave (km/s) = 6.93157 7.60326 7.27517
#
# Compressibility (1/GPa) = 0.01212996
#
# Stress axis : x y z
#
# Youngs Moduli (GPa) = 123.80069 176.15321 123.69980
#
# Poissons Ratio (x) = 0.54888 0.04853
# Poissons Ratio (y) = 0.38576 0.16650
# Poissons Ratio (z) = 0.04857 0.23710
#
# Static dielectric constant tensor:
#      x y z
#    x 2.052810 0.000000 0.000000 
#    y 0.000000 2.047480 0.000000 
#    z 0.000000 0.000000 1.936680 
# 
# From -- ./inp_files/26963.got.cif
#   From: 2010.05.17/outbox.cif.g08.bks.cpg/sg74_14_cif.got.tgz:26963.got - 2010.06.03 17:57:02.
