data_PCOD9538305
_publ_section_title
;
Structure prediction by ZEFSAII (Michael W. Deem and Ramdas Pophale) SiO2 
 PCOD9538305
Probable space group: I M M A
;
_chemical_formula_sum "Si O2"
_cell_formula_units_Z 116
_cell_length_a 17.832713
_cell_length_b 24.815908
_cell_length_c 14.229097
_cell_angle_alpha 90.000000
_cell_angle_beta 90.000000
_cell_angle_gamma 90.000000
_cell_volume 6296.872946
_symmetry_space_group_name_H-M "I M M A"
_symmetry_group_IT_number 74
_symmetry_cell_setting 'orthorhombic'
loop_
_space_group_symop_operation_xyz
x,y,z
-x,1/2-y,z
x,-y,-z
-x,1/2+y,-z
-x,-y,-z
x,1/2+y,-z
-x,y,z
x,1/2-y,z
1/2+x,1/2+y,1/2+z
1/2-x,-y,1/2+z
1/2+x,1/2-y,1/2-z
1/2-x,y,1/2-z
1/2-x,1/2-y,1/2-z
1/2+x,y,1/2-z
1/2-x,1/2+y,1/2+z
1/2+x,-y,1/2+z
loop_
_atom_site_type_symbol
_atom_site_label
_atom_site_fract_x
_atom_site_fract_y
_atom_site_fract_z
Si Si1 0.717371 0.415624 0.644817
Si Si2 0.087839 0.603859 0.717095
Si Si3 0.376740 0.951887 0.074297
Si Si4 0.882912 0.847388 0.527245
Si Si5 0.721067 0.811305 0.470466
Si Si6 0.000000 0.750000 0.558153
Si Si7 0.913515 0.512347 0.216673
Si Si8 0.822377 0.687632 0.812422
O O1 0.750000 0.406398 0.750000
O O2 0.786819 0.441800 0.587067
O O3 0.694547 0.359140 0.597251
O O4 0.646157 0.454707 0.655639
O O5 0.131643 0.617520 0.621498
O O6 0.110302 0.549871 0.771028
O O7 0.106009 0.653710 0.783223
O O8 0.000000 0.599120 0.693206
O O9 0.408339 0.966682 0.176058
O O10 0.410205 0.894555 0.042021
O O11 0.390833 0.000000 0.000000
O O12 0.809776 0.821146 0.481745
O O13 0.936061 0.798234 0.554193
O O14 0.705504 0.750000 0.438899
O O15 0.691856 0.817414 0.577031
O O16 0.000000 0.515653 0.184334
O O17 0.834271 0.750000 0.788759
O O18 0.750000 0.670310 0.750000
#
# Coordination Sequence:
#
# PCOD9538305 Si02
#       8
#    16  16  16  16  16   4  16  16
#     4   9  21  39  59  86 116 152 198 251 299 343
#     4  11  22  34  53  84 117 155 188 228 299 363
#     4  10  20  36  60  88 116 152 202 246 302 359
#     4  11  21  33  54  86 119 159 184 232 298 365
#     4  10  20  38  60  84 112 150 204 246 290 346
#     4  12  24  32  50  86 134 156 186 226 304 392
#     4  10  22  38  57  82 118 154 199 251 302 360
#     4  10  21  34  55  81 115 153 194 237 288 352
#
# _framework density 18.421842999999999
#
# number of rings (size 3 to 8) (size 9 to 14) (size 15 to 20)
#    0.000    1.793    4.138    0.000    1.931    4.690 
#    0.000    0.690    0.000    3.310    0.000    0.000 
#    0.000    0.000    0.000    0.000    0.000    0.000 
#
# Total GULP energy -322870.689742 kJ/mol
# GULP energy per Si atom -5566.736030 kJ/mol
# Density = 1.837991 g / cm^3
# Si number density = 18.421843 Si / 1000 Ang^3
#
#
#
# Elastic Constant Matrix: (Units=GPa)
#
#
# Indices 1 2 3 4 5 6 
#
# 1 47.2461 31.1965 10.3122 0.0000 0.0000 0.0000
# 2 31.1965 95.4595 30.6309 0.0000 0.0000 0.0000
# 3 10.3122 30.6309 25.3711 0.0000 0.0000 0.0000
# 4 0.0000 0.0000 0.0000 18.0812 0.0000 0.0000
# 5 0.0000 0.0000 0.0000 0.0000 1.4991 0.0000
# 6 0.0000 0.0000 0.0000 0.0000 0.0000 35.7195
#
#
#
# Elastic Compliance Matrix: (Units=1/GPa)
#
#
# Indices 1 2 3 4 5 6 
#
# 1 0.026994 -0.008654 -0.000524 0.000000 0.000000 0.000000
# 2 -0.008654 0.019874 -0.020477 0.000000 0.000000 0.000000
# 3 -0.000524 -0.020477 0.064351 0.000000 0.000000 0.000000
# 4 0.000000 0.000000 0.000000 0.055306 0.000000 0.000000
# 5 0.000000 0.000000 0.000000 0.000000 0.667059 0.000000
# 6 0.000000 0.000000 0.000000 0.000000 0.000000 0.027996
#
#
# Mechanical properties :
#
#
# Convention : Reuss Voigt Hill
#
# Bulk Modulus (GPa) = 19.26459 34.70618 26.98539
# Shear Modulus (GPa) = 5.32939 17.45578 11.39259
#
# Velocity S-wave (km/s) = 1.70272 3.08158 2.48952
# Velocity P-wave (km/s) = 3.78759 5.61624 4.78999
#
# Compressibility (1/GPa) = 0.05190870
#
# Stress axis : x y z
#
# Youngs Moduli (GPa) = 37.04511 50.31601 15.53987
#
# Poissons Ratio (x) = 0.43541 0.00815
# Poissons Ratio (y) = 0.32057 0.31822
# Poissons Ratio (z) = 0.01942 1.03034
#
# Static dielectric constant tensor:
#      x y z
#    x 1.665380 0.000000 0.000000 
#    y 0.000000 1.646710 0.000000 
#    z 0.000000 0.000000 1.327910 
# 
# From -- ./inp_files/34517.got.cif
#   From: 2010.05.17/outbox.cif.g08.bks.cpg/sg74_18_cif.got.tgz:34517.got - 2010.06.03 17:57:02.
