data_PCOD9538241
_publ_section_title
;
Structure prediction by ZEFSAII (Michael W. Deem and Ramdas Pophale) SiO2 
 PCOD9538241
Probable space group: I M M A
;
_chemical_formula_sum "Si O2"
_cell_formula_units_Z 88
_cell_length_a 25.446478
_cell_length_b 8.493543
_cell_length_c 20.803413
_cell_angle_alpha 90.000000
_cell_angle_beta 90.000000
_cell_angle_gamma 90.000000
_cell_volume 4496.257360
_symmetry_space_group_name_H-M "I M M A"
_symmetry_group_IT_number 74
_symmetry_cell_setting 'orthorhombic'
loop_
_space_group_symop_operation_xyz
x,y,z
-x,1/2-y,z
x,-y,-z
-x,1/2+y,-z
-x,-y,-z
x,1/2+y,-z
-x,y,z
x,1/2-y,z
1/2+x,1/2+y,1/2+z
1/2-x,-y,1/2+z
1/2+x,1/2-y,1/2-z
1/2-x,y,1/2-z
1/2-x,1/2-y,1/2-z
1/2+x,y,1/2-z
1/2-x,1/2+y,1/2+z
1/2+x,-y,1/2+z
loop_
_atom_site_type_symbol
_atom_site_label
_atom_site_fract_x
_atom_site_fract_y
_atom_site_fract_z
Si Si1 0.500000 0.938562 0.074770
Si Si2 0.793303 0.940576 0.304060
Si Si3 0.761081 0.938597 0.065329
Si Si4 0.618062 0.059705 0.567119
Si Si5 0.940652 0.569092 0.192553
Si Si6 0.087990 0.564893 0.674140
O O1 0.500000 0.750000 0.072559
O O2 0.551777 0.991936 0.116699
O O3 0.500000 0.000000 0.000000
O O4 0.796347 0.750000 0.298920
O O5 0.750000 0.990131 0.250000
O O6 0.768064 0.989430 0.371369
O O7 0.853008 0.001705 0.310061
O O8 0.761689 0.750000 0.064057
O O9 0.821347 0.992922 0.067973
O O10 0.736110 0.000000 0.000000
O O11 0.615681 0.250000 0.567186
O O12 0.593034 0.004559 0.633653
O O13 0.594295 0.000000 0.500000
O O14 0.923328 0.750000 0.207128
O O15 0.939385 0.472914 0.257936
O O16 0.000000 0.576876 0.168650
O O17 0.090767 0.750000 0.661758
#
# Coordination Sequence:
#
# PCOD9538241 Si02
#       6
#     8  16  16  16  16  16
#     4  12  26  48  74  98 127 166 215 270 330 396
#     4  10  21  39  63  89 120 163 213 261 312 375
#     4   9  18  33  54  78 109 148 190 238 290 351
#     4   9  18  33  53  81 115 154 200 246 296 348
#     4  10  20  36  59  82 111 157 205 247 294 356
#     4  12  25  41  63  94 129 162 204 261 323 385
#
# _framework density 19.571833999999999
#
# number of rings (size 3 to 8) (size 9 to 14) (size 15 to 20)
#    0.000    1.818    0.909    3.545    0.000    5.818 
#    0.000    5.455    0.000    0.000    0.000    0.000 
#    0.000    0.000    0.000    0.000    0.000    0.000 
#
# Total GULP energy -245176.118388 kJ/mol
# GULP energy per Si atom -5572.184509 kJ/mol
# Density = 1.952729 g / cm^3
# Si number density = 19.571834 Si / 1000 Ang^3
#
#
#
# Elastic Constant Matrix: (Units=GPa)
#
#
# Indices 1 2 3 4 5 6 
#
# 1 116.6622 30.7334 72.2258 0.0000 0.0000 0.0000
# 2 30.7334 53.3651 30.7468 0.0000 0.0000 0.0000
# 3 72.2258 30.7468 139.1882 0.0000 0.0000 0.0000
# 4 0.0000 0.0000 0.0000 31.8127 0.0000 0.0000
# 5 0.0000 0.0000 0.0000 0.0000 34.0706 0.0000
# 6 0.0000 0.0000 0.0000 0.0000 0.0000 51.1287
#
#
#
# Elastic Compliance Matrix: (Units=1/GPa)
#
#
# Indices 1 2 3 4 5 6 
#
# 1 0.013424 -0.004260 -0.006025 0.000000 0.000000 0.000000
# 2 -0.004260 0.022823 -0.002831 0.000000 0.000000 0.000000
# 3 -0.006025 -0.002831 0.010936 0.000000 0.000000 0.000000
# 4 0.000000 0.000000 0.000000 0.031434 0.000000 0.000000
# 5 0.000000 0.000000 0.000000 0.000000 0.029351 0.000000
# 6 0.000000 0.000000 0.000000 0.000000 0.000000 0.019558
#
#
# Mechanical properties :
#
#
# Convention : Reuss Voigt Hill
#
# Bulk Modulus (GPa) = 47.72836 64.06972 55.89904
# Shear Modulus (GPa) = 31.10568 35.10302 33.10435
#
# Velocity S-wave (km/s) = 3.99094 4.23962 4.11716
# Velocity P-wave (km/s) = 6.75840 7.53476 7.15712
#
# Compressibility (1/GPa) = 0.02095190
#
# Stress axis : x y z
#
# Youngs Moduli (GPa) = 74.49414 43.81483 91.43894
#
# Poissons Ratio (x) = 0.18664 0.55090
# Poissons Ratio (y) = 0.31732 0.25889
# Poissons Ratio (z) = 0.44881 0.12405
#
# Static dielectric constant tensor:
#      x y z
#    x 1.766170 0.000000 0.000000 
#    y 0.000000 1.692020 0.000000 
#    z 0.000000 0.000000 1.687440 
# 
# From -- ./inp_files/54528.got.cif
#   From: 2010.05.17/outbox.cif.g08.bks.cpg/sg74_28_cif.got.tgz:54528.got - 2010.06.03 17:57:02.
