data_PCOD9538343
_publ_section_title
;
Structure prediction by ZEFSAII (Michael W. Deem and Ramdas Pophale) SiO2 
 PCOD9538343
Probable space group: I M M A
;
_chemical_formula_sum "Si O2"
_cell_formula_units_Z 96
_cell_length_a 14.582484
_cell_length_b 20.043568
_cell_length_c 12.251625
_cell_angle_alpha 90.000000
_cell_angle_beta 90.000000
_cell_angle_gamma 90.000000
_cell_volume 3580.966332
_symmetry_space_group_name_H-M "I M M A"
_symmetry_group_IT_number 74
_symmetry_cell_setting 'orthorhombic'
loop_
_space_group_symop_operation_xyz
x,y,z
-x,1/2-y,z
x,-y,-z
-x,1/2+y,-z
-x,-y,-z
x,1/2+y,-z
-x,y,z
x,1/2-y,z
1/2+x,1/2+y,1/2+z
1/2-x,-y,1/2+z
1/2+x,1/2-y,1/2-z
1/2-x,y,1/2-z
1/2-x,1/2-y,1/2-z
1/2+x,y,1/2-z
1/2-x,1/2+y,1/2+z
1/2+x,-y,1/2+z
loop_
_atom_site_type_symbol
_atom_site_label
_atom_site_fract_x
_atom_site_fract_y
_atom_site_fract_z
Si Si1 0.725380 0.831048 0.569773
Si Si2 0.500000 0.316191 0.617326
Si Si3 0.896149 0.330689 0.278077
Si Si4 0.600767 0.038243 0.884016
Si Si5 0.699295 0.449219 0.598759
Si Si6 0.848718 0.824087 0.303791
Si Si7 0.500000 0.454118 0.602889
O O1 0.719373 0.750000 0.551440
O O2 0.823496 0.847475 0.626571
O O3 0.650249 0.849247 0.662493
O O4 0.711876 0.877434 0.463822
O O5 0.500000 0.250000 0.547768
O O6 0.415707 0.317252 0.700425
O O7 0.500000 0.380976 0.548017
O O8 0.899538 0.250000 0.278253
O O9 0.000000 0.356291 0.291538
O O10 0.500000 0.020202 0.838456
O O11 0.705906 0.026829 0.847064
O O12 0.606265 0.119753 0.879722
O O13 0.600578 0.000000 0.000000
O O14 0.688083 0.500000 0.500000
O O15 0.600648 0.455074 0.658970
O O16 0.842189 0.750000 0.354272
O O17 0.750000 0.841673 0.250000
O O18 0.500000 0.500000 0.500000
#
# Coordination Sequence:
#
# PCOD9538343 Si02
#       7
#    16   8  16  16  16  16   8
#     4   9  18  32  54  86 112 145 195 243 296 359
#     4  10  20  36  61  93 122 151 200 263 324 377
#     4   8  15  30  54  81 113 142 179 238 297 349
#     4  10  21  39  63  88 128 170 213 259 322 400
#     4  10  22  38  57  76 120 161 200 249 302 360
#     4  10  20  36  63  97 130 164 210 273 335 387
#     4  10  22  40  60  81 124 167 210 253 310 385
#
# _framework density 26.808406000000002
#
# number of rings (size 3 to 8) (size 9 to 14) (size 15 to 20)
#    0.000    2.500    0.833    2.000    1.167    2.000 
#    0.000    0.000   44.000    0.000    0.000    0.000 
#    0.000    0.000    0.000    0.000    0.000    0.000 
#
# Total GULP energy -267867.144189 kJ/mol
# GULP energy per Si atom -5580.565504 kJ/mol
# Density = 2.674739 g / cm^3
# Si number density = 26.808406 Si / 1000 Ang^3
#
#
#
# Elastic Constant Matrix: (Units=GPa)
#
#
# Indices 1 2 3 4 5 6 
#
# 1 341.1211 3.8463 82.5804 0.0000 0.0000 0.0000
# 2 3.8463 144.5621 51.0483 0.0000 0.0000 0.0000
# 3 82.5804 51.0483 112.3550 0.0000 0.0000 0.0000
# 4 0.0000 0.0000 0.0000 34.0538 0.0000 0.0000
# 5 0.0000 0.0000 0.0000 0.0000 59.0512 0.0000
# 6 0.0000 0.0000 0.0000 0.0000 0.0000 20.3574
#
#
#
# Elastic Compliance Matrix: (Units=1/GPa)
#
#
# Indices 1 2 3 4 5 6 
#
# 1 0.003689 0.001024 -0.003176 0.000000 0.000000 0.000000
# 2 0.001024 0.008523 -0.004625 0.000000 0.000000 0.000000
# 3 -0.003176 -0.004625 0.013336 0.000000 0.000000 0.000000
# 4 0.000000 0.000000 0.000000 0.029365 0.000000 0.000000
# 5 0.000000 0.000000 0.000000 0.000000 0.016934 0.000000
# 6 0.000000 0.000000 0.000000 0.000000 0.000000 0.049122
#
#
# Mechanical properties :
#
#
# Convention : Reuss Voigt Hill
#
# Bulk Modulus (GPa) = 83.38107 96.99868 90.18987
# Shear Modulus (GPa) = 36.09494 53.39670 44.74582
#
# Velocity S-wave (km/s) = 3.67332 4.46779 4.08989
# Velocity P-wave (km/s) = 7.01150 7.92941 7.48454
#
# Compressibility (1/GPa) = 0.01199313
#
# Stress axis : x y z
#
# Youngs Moduli (GPa) = 271.08201 117.32479 74.98358
#
# Poissons Ratio (x) = -0.12008 0.23818
# Poissons Ratio (y) = -0.27745 0.34679
# Poissons Ratio (z) = 0.86106 0.54261
#
# Static dielectric constant tensor:
#      x y z
#    x 2.172780 0.000000 0.000000 
#    y 0.000000 2.108070 0.000000 
#    z 0.000000 0.000000 2.230020 
# 
# From -- ./inp_files/32466.got.cif
#   From: 2010.05.17/outbox.cif.g08.bks.cpg/sg74_17_cif.got.tgz:32466.got - 2010.06.03 17:57:02.
