data_PCOD9538582
_publ_section_title
;
Structure prediction by ZEFSAII (Michael W. Deem and Ramdas Pophale) SiO2 
 PCOD9538582
Probable space group: I M M A
;
_chemical_formula_sum "Si O2"
_cell_formula_units_Z 72
_cell_length_a 9.084835
_cell_length_b 26.665503
_cell_length_c 13.749887
_cell_angle_alpha 90.000000
_cell_angle_beta 90.000000
_cell_angle_gamma 90.000000
_cell_volume 3330.933431
_symmetry_space_group_name_H-M "I M M A"
_symmetry_group_IT_number 74
_symmetry_cell_setting 'orthorhombic'
loop_
_space_group_symop_operation_xyz
x,y,z
-x,1/2-y,z
x,-y,-z
-x,1/2+y,-z
-x,-y,-z
x,1/2+y,-z
-x,y,z
x,1/2-y,z
1/2+x,1/2+y,1/2+z
1/2-x,-y,1/2+z
1/2+x,1/2-y,1/2-z
1/2-x,y,1/2-z
1/2-x,1/2-y,1/2-z
1/2+x,y,1/2-z
1/2-x,1/2+y,1/2+z
1/2+x,-y,1/2+z
loop_
_atom_site_type_symbol
_atom_site_label
_atom_site_fract_x
_atom_site_fract_y
_atom_site_fract_z
Si Si1 0.169066 0.642378 0.647742
Si Si2 0.276740 0.194006 0.537947
Si Si3 0.000000 0.124593 0.859230
Si Si4 0.000000 0.507105 0.117792
Si Si5 0.169557 0.473881 0.393922
Si Si6 0.500000 0.304193 0.820818
O O1 0.250000 0.640950 0.750000
O O2 0.238351 0.680882 0.572087
O O3 0.173343 0.586430 0.602286
O O4 0.000000 0.655901 0.663209
O O5 0.340940 0.250000 0.543820
O O6 0.366878 0.147991 0.580788
O O7 0.136733 0.194655 0.607866
O O8 0.000000 0.065524 0.856502
O O9 0.000000 0.150689 0.754276
O O10 0.834861 0.487140 0.149515
O O11 0.000000 0.500000 0.000000
O O12 0.169799 0.500000 0.500000
O O13 0.000000 0.485991 0.353429
O O14 0.500000 0.250000 0.767397
#
# Coordination Sequence:
#
# PCOD9538582 Si02
#       6
#    16  16   8   8  16   8
#     4  11  25  43  69 100 137 184 235 285 348 419
#     4  11  23  43  70 100 139 181 226 287 354 418
#     4  12  24  40  69 105 134 180 234 283 349 428
#     4  10  20  38  63  97 139 176 223 284 337 403
#     4   9  19  39  66  93 128 181 224 279 345 407
#     4  10  22  44  70  98 138 178 221 281 353 419
#
# _framework density 21.615563000000002
#
# number of rings (size 3 to 8) (size 9 to 14) (size 15 to 20)
#    0.000    1.556    1.111    4.333    3.111    2.222 
#    2.000    4.444    0.000    0.000    0.000    0.000 
#    0.000    0.000    0.000    0.000    0.000    0.000 
#
# Total GULP energy -200774.869460 kJ/mol
# GULP energy per Si atom -5577.079707 kJ/mol
# Density = 2.156636 g / cm^3
# Si number density = 21.615563 Si / 1000 Ang^3
#
#
#
# Elastic Constant Matrix: (Units=GPa)
#
#
# Indices 1 2 3 4 5 6 
#
# 1 167.6349 30.0307 18.6030 0.0000 0.0000 0.0000
# 2 30.0307 83.5534 18.7588 -0.0001 0.0000 0.0000
# 3 18.6030 18.7588 101.0729 -0.0003 0.0001 0.0000
# 4 0.0000 -0.0001 -0.0003 22.6484 0.0000 0.0000
# 5 0.0000 0.0000 0.0001 0.0000 39.4345 0.0000
# 6 0.0000 0.0000 0.0000 0.0000 0.0000 31.0873
#
#
#
# Elastic Compliance Matrix: (Units=1/GPa)
#
#
# Indices 1 2 3 4 5 6 
#
# 1 0.006435 -0.002136 -0.000788 0.000000 0.000000 0.000000
# 2 -0.002136 0.013198 -0.002056 0.000000 0.000000 0.000000
# 3 -0.000788 -0.002056 0.010421 0.000000 0.000000 0.000000
# 4 0.000000 0.000000 0.000000 0.044153 0.000000 0.000000
# 5 0.000000 0.000000 0.000000 0.000000 0.025358 0.000000
# 6 0.000000 0.000000 0.000000 0.000000 0.000000 0.032167
#
#
# Mechanical properties :
#
#
# Convention : Reuss Voigt Hill
#
# Bulk Modulus (GPa) = 49.76876 54.11625 51.94250
# Shear Modulus (GPa) = 33.69463 37.62529 35.65996
#
# Velocity S-wave (km/s) = 3.95246 4.17664 4.06610
# Velocity P-wave (km/s) = 6.62599 6.95336 6.79165
#
# Compressibility (1/GPa) = 0.02009293
#
# Stress axis : x y z
#
# Youngs Moduli (GPa) = 155.38897 75.77007 95.96438
#
# Poissons Ratio (x) = 0.16185 0.07562
# Poissons Ratio (y) = 0.33193 0.19733
# Poissons Ratio (z) = 0.12245 0.15581
#
# Static dielectric constant tensor:
#      x y z
#    x 1.879620 0.000000 0.000000 
#    y 0.000000 1.728920 0.000000 
#    z 0.000000 0.000000 2.015090 
# 
# From -- ./inp_files/29234.got.cif
#   From: 2010.05.17/outbox.cif.g08.bks.cpg/sg74_15_cif.got.tgz:29234.got - 2010.06.03 17:57:02.
