data_PCOD9538631
_publ_section_title
;
Structure prediction by ZEFSAII (Michael W. Deem and Ramdas Pophale) SiO2 
 PCOD9538631
Probable space group: I M M A
;
_chemical_formula_sum "Si O2"
_cell_formula_units_Z 96
_cell_length_a 8.839075
_cell_length_b 25.805424
_cell_length_c 24.193071
_cell_angle_alpha 90.000000
_cell_angle_beta 90.000000
_cell_angle_gamma 90.000000
_cell_volume 5518.344613
_symmetry_space_group_name_H-M "I M M A"
_symmetry_group_IT_number 74
_symmetry_cell_setting 'orthorhombic'
loop_
_space_group_symop_operation_xyz
x,y,z
-x,1/2-y,z
x,-y,-z
-x,1/2+y,-z
-x,-y,-z
x,1/2+y,-z
-x,y,z
x,1/2-y,z
1/2+x,1/2+y,1/2+z
1/2-x,-y,1/2+z
1/2+x,1/2-y,1/2-z
1/2-x,y,1/2-z
1/2-x,1/2-y,1/2-z
1/2+x,y,1/2-z
1/2-x,1/2+y,1/2+z
1/2+x,-y,1/2+z
loop_
_atom_site_type_symbol
_atom_site_label
_atom_site_fract_x
_atom_site_fract_y
_atom_site_fract_z
Si Si1 0.181648 0.399213 0.880672
Si Si2 0.818302 0.094770 0.384090
Si Si3 0.817528 0.439009 0.001491
Si Si4 0.819318 0.810096 0.309465
Si Si5 0.681704 0.997811 0.688867
Si Si6 0.682160 0.190663 0.190431
O O1 0.225378 0.412997 0.943376
O O2 0.258057 0.348484 0.855837
O O3 0.219366 0.448481 0.842124
O O4 0.000000 0.393047 0.879253
O O5 0.757572 0.087671 0.445878
O O6 0.748708 0.049042 0.346933
O O7 0.773892 0.149263 0.355922
O O8 0.000000 0.090924 0.383554
O O9 0.000000 0.436552 0.007049
O O10 0.776642 0.500000 0.000000
O O11 0.777437 0.750000 0.319916
O O12 0.750000 0.824968 0.250000
O O13 0.000000 0.813503 0.306075
O O14 0.500000 0.993175 0.691167
O O15 0.750000 0.997235 0.750000
O O16 0.500000 0.189791 0.194875
O O17 0.728848 0.250000 0.178300
O O18 0.750000 0.176018 0.250000
#
# Coordination Sequence:
#
# PCOD9538631 Si02
#       6
#    16  16  16  16  16  16
#     4  10  21  37  58  81 108 145 185 226 276 328
#     4  11  22  35  55  83 110 144 185 226 275 331
#     4  10  20  39  59  78 108 148 186 227 276 324
#     4  10  21  37  58  84 114 147 183 227 278 329
#     4  11  22  36  53  79 113 145 178 225 280 332
#     4   9  19  36  56  79 109 143 180 223 272 323
#
# _framework density 17.396521
#
# number of rings (size 3 to 8) (size 9 to 14) (size 15 to 20)
#    0.000    1.833    1.667    2.500    0.000    7.333 
#    0.000    0.833    0.000    3.000    0.000    0.000 
#    0.000    0.000    0.000    0.000    0.000    0.000 
#
# Total GULP energy -268099.809763 kJ/mol
# GULP energy per Si atom -5585.412703 kJ/mol
# Density = 1.735693 g / cm^3
# Si number density = 17.396521 Si / 1000 Ang^3
#
#
#
# Elastic Constant Matrix: (Units=GPa)
#
#
# Indices 1 2 3 4 5 6 
#
# 1 30.5313 41.2264 50.3662 0.0000 0.0000 0.0000
# 2 41.2264 112.2531 93.2274 0.0000 0.0000 0.0000
# 3 50.3662 93.2274 177.0110 0.0000 0.0000 0.0000
# 4 0.0000 0.0000 0.0000 21.3705 0.0000 0.0000
# 5 0.0000 0.0000 0.0000 0.0000 35.8614 0.0000
# 6 0.0000 0.0000 0.0000 0.0000 0.0000 25.4040
#
#
#
# Elastic Compliance Matrix: (Units=1/GPa)
#
#
# Indices 1 2 3 4 5 6 
#
# 1 0.078255 -0.018215 -0.012673 0.000000 0.000000 0.000000
# 2 -0.018215 0.020075 -0.005390 0.000000 0.000000 0.000000
# 3 -0.012673 -0.005390 0.012094 0.000000 0.000000 0.000000
# 4 0.000000 0.000000 0.000000 0.046794 0.000000 0.000000
# 5 0.000000 0.000000 0.000000 0.000000 0.027885 0.000000
# 6 0.000000 0.000000 0.000000 0.000000 0.000000 0.039364
#
#
# Mechanical properties :
#
#
# Convention : Reuss Voigt Hill
#
# Bulk Modulus (GPa) = 26.40772 76.60392 51.50582
# Shear Modulus (GPa) = 16.14750 25.52555 20.83652
#
# Velocity S-wave (km/s) = 3.04995 3.83466 3.46459
# Velocity P-wave (km/s) = 5.25507 7.98347 6.75839
#
# Compressibility (1/GPa) = 0.03786772
#
# Stress axis : x y z
#
# Youngs Moduli (GPa) = 12.77866 49.81421 82.68545
#
# Poissons Ratio (x) = 0.90738 1.04787
# Poissons Ratio (y) = 0.23277 0.44566
# Poissons Ratio (z) = 0.16194 0.26849
#
# Static dielectric constant tensor:
#      x y z
#    x 1.584270 0.000000 0.000000 
#    y 0.000000 1.583890 0.000000 
#    z 0.000000 0.000000 1.559460 
# 
# From -- ./inp_files/49109.got.cif
#   From: 2010.05.17/outbox.cif.g08.bks.cpg/sg74_25_cif.got.tgz:49109.got - 2010.06.03 17:57:02.
