data_PCOD9538273
_publ_section_title
;
Structure prediction by ZEFSAII (Michael W. Deem and Ramdas Pophale) SiO2 
 PCOD9538273
Probable space group: I M M A
;
_chemical_formula_sum "Si O2"
_cell_formula_units_Z 116
_cell_length_a 21.510428
_cell_length_b 10.545603
_cell_length_c 24.927076
_cell_angle_alpha 90.000000
_cell_angle_beta 90.000000
_cell_angle_gamma 90.000000
_cell_volume 5654.468739
_symmetry_space_group_name_H-M "I M M A"
_symmetry_group_IT_number 74
_symmetry_cell_setting 'orthorhombic'
loop_
_space_group_symop_operation_xyz
x,y,z
-x,1/2-y,z
x,-y,-z
-x,1/2+y,-z
-x,-y,-z
x,1/2+y,-z
-x,y,z
x,1/2-y,z
1/2+x,1/2+y,1/2+z
1/2-x,-y,1/2+z
1/2+x,1/2-y,1/2-z
1/2-x,y,1/2-z
1/2-x,1/2-y,1/2-z
1/2+x,y,1/2-z
1/2-x,1/2+y,1/2+z
1/2+x,-y,1/2+z
loop_
_atom_site_type_symbol
_atom_site_label
_atom_site_fract_x
_atom_site_fract_y
_atom_site_fract_z
Si Si1 0.500000 0.750000 0.081059
Si Si2 0.775857 0.394345 0.189408
Si Si3 0.379506 0.602204 0.337402
Si Si4 0.428595 0.894075 0.221544
Si Si5 0.618696 0.104396 0.546576
Si Si6 0.606188 0.539980 0.062150
Si Si7 0.762596 0.886352 0.459501
Si Si8 0.139534 0.891226 0.656205
O O1 0.554040 0.639016 0.077934
O O2 0.801185 0.250000 0.185788
O O3 0.750000 0.411813 0.250000
O O4 0.825223 0.500857 0.174275
O O5 0.714227 0.400717 0.152871
O O6 0.357442 0.750000 0.338831
O O7 0.423714 0.594369 0.285712
O O8 0.410841 0.577112 0.395304
O O9 0.500000 0.908508 0.204053
O O10 0.409281 0.750000 0.207208
O O11 0.386125 0.999738 0.194810
O O12 0.604068 0.250000 0.529549
O O13 0.692641 0.103688 0.562079
O O14 0.608148 0.000000 0.500000
O O15 0.674321 0.601488 0.073762
O O16 0.607057 0.416356 0.099465
O O17 0.599766 0.500000 0.000000
O O18 0.765478 0.750000 0.487729
O O19 0.767175 0.000000 0.500000
O O20 0.125878 0.750000 0.676844
#
# Coordination Sequence:
#
# PCOD9538273 Si02
#       8
#     4  16  16  16  16  16  16  16
#     4  12  26  44  58  80 106 154 204 264 308 344
#     4  10  20  37  59  88 124 154 187 231 297 361
#     4  10  20  36  59  89 121 153 193 239 284 341
#     4  10  23  41  62  85 114 154 198 241 289 342
#     4   9  18  32  54  86 118 148 184 225 278 342
#     4  11  25  41  59  78 110 149 199 249 303 355
#     4   9  17  32  53  75 106 142 177 224 278 339
#     4  11  25  42  63  87 115 152 191 244 300 357
#
# _framework density 20.514747
#
# number of rings (size 3 to 8) (size 9 to 14) (size 15 to 20)
#    0.000    1.931    2.069    1.034    2.897    2.207 
#    0.000    5.517    0.000    0.414    0.000    0.000 
#    0.000    0.000    0.000    0.000    0.000    0.000 
#
# Total GULP energy -322875.832442 kJ/mol
# GULP energy per Si atom -5566.824697 kJ/mol
# Density = 2.046805 g / cm^3
# Si number density = 20.514747 Si / 1000 Ang^3
#
#
#
# Elastic Constant Matrix: (Units=GPa)
#
#
# Indices 1 2 3 4 5 6 
#
# 1 21.4633 23.3610 7.1104 0.0000 0.0000 0.0000
# 2 23.3610 134.2902 39.2870 0.0000 0.0000 0.0000
# 3 7.1104 39.2870 91.4300 0.0000 0.0000 0.0000
# 4 0.0000 0.0000 0.0000 25.7198 0.0000 0.0000
# 5 0.0000 0.0000 0.0000 0.0000 2.0317 0.0000
# 6 0.0000 0.0000 0.0000 0.0000 0.0000 16.0081
#
#
#
# Elastic Compliance Matrix: (Units=1/GPa)
#
#
# Indices 1 2 3 4 5 6 
#
# 1 0.057476 -0.009940 -0.000199 0.000000 0.000000 0.000000
# 2 -0.009940 0.010236 -0.003625 0.000000 0.000000 0.000000
# 3 -0.000199 -0.003625 0.012511 0.000000 0.000000 0.000000
# 4 0.000000 0.000000 0.000000 0.038881 0.000000 0.000000
# 5 0.000000 0.000000 0.000000 0.000000 0.492204 0.000000
# 6 0.000000 0.000000 0.000000 0.000000 0.000000 0.062468
#
#
# Mechanical properties :
#
#
# Convention : Reuss Voigt Hill
#
# Bulk Modulus (GPa) = 18.97737 42.96672 30.97205
# Shear Modulus (GPa) = 6.95537 20.58026 13.76781
#
# Velocity S-wave (km/s) = 1.84331 3.17076 2.59340
# Velocity P-wave (km/s) = 3.71498 5.86470 4.90896
#
# Compressibility (1/GPa) = 0.05269434
#
# Stress axis : x y z
#
# Youngs Moduli (GPa) = 17.39852 97.69030 79.93209
#
# Poissons Ratio (x) = 0.97108 0.01587
# Poissons Ratio (y) = 0.17295 0.28979
# Poissons Ratio (z) = 0.00345 0.35417
#
# Static dielectric constant tensor:
#      x y z
#    x 1.755930 0.000000 0.000000 
#    y 0.000000 1.713750 0.000000 
#    z 0.000000 0.000000 1.794350 
# 
# From -- ./inp_files/68755.got.cif
#   From: 2010.05.17/outbox.cif.g08.bks.cpg/sg74_35_cif.got.tgz:68755.got - 2010.06.03 17:57:02.
