data_PCOD9538914
_publ_section_title
;
Structure prediction by ZEFSAII (Michael W. Deem and Ramdas Pophale) SiO2 
 PCOD9538914
Probable space group: I M M A
;
_chemical_formula_sum "Si O2"
_cell_formula_units_Z 116
_cell_length_a 7.722587
_cell_length_b 29.420939
_cell_length_c 23.866324
_cell_angle_alpha 90.000000
_cell_angle_beta 90.000000
_cell_angle_gamma 90.000000
_cell_volume 5422.566308
_symmetry_space_group_name_H-M "I M M A"
_symmetry_group_IT_number 74
_symmetry_cell_setting 'orthorhombic'
loop_
_space_group_symop_operation_xyz
x,y,z
-x,1/2-y,z
x,-y,-z
-x,1/2+y,-z
-x,-y,-z
x,1/2+y,-z
-x,y,z
x,1/2-y,z
1/2+x,1/2+y,1/2+z
1/2-x,-y,1/2+z
1/2+x,1/2-y,1/2-z
1/2-x,y,1/2-z
1/2-x,1/2-y,1/2-z
1/2+x,y,1/2-z
1/2-x,1/2+y,1/2+z
1/2+x,-y,1/2+z
loop_
_atom_site_type_symbol
_atom_site_label
_atom_site_fract_x
_atom_site_fract_y
_atom_site_fract_z
Si Si1 0.697704 0.633854 0.573318
Si Si2 0.207511 0.501934 0.686330
Si Si3 0.289996 0.199324 0.522122
Si Si4 0.301608 0.949056 0.994648
Si Si5 0.210228 0.178840 0.847434
Si Si6 0.697721 0.582198 0.386643
Si Si7 0.799923 0.603841 0.689394
Si Si8 0.000000 0.750000 0.309141
O O1 0.500000 0.647807 0.579245
O O2 0.778371 0.664622 0.524300
O O3 0.708361 0.582858 0.549524
O O4 0.772617 0.634433 0.635316
O O5 0.250000 0.488928 0.750000
O O6 0.288718 0.465075 0.645539
O O7 0.278972 0.553407 0.679995
O O8 0.000000 0.500265 0.676886
O O9 0.500000 0.197518 0.520544
O O10 0.232804 0.250000 0.508244
O O11 0.249912 0.190087 0.586986
O O12 0.500000 0.953447 0.975142
O O13 0.296619 0.924622 0.055041
O O14 0.229597 0.000000 0.000000
O O15 0.246615 0.124594 0.846838
O O16 0.343888 0.210073 0.813321
O O17 0.000000 0.187106 0.837017
O O18 0.500000 0.592130 0.403884
O O19 0.750000 0.622743 0.750000
O O20 0.000000 0.594066 0.694221
#
# Coordination Sequence:
#
# PCOD9538914 Si02
#       8
#    16  16  16  16  16  16  16   4
#     4  11  21  34  55  81 108 145 186 227 283 342
#     4  10  21  37  58  81 111 145 190 233 277 332
#     4   9  17  34  54  74 110 146 181 231 283 332
#     4  11  23  35  49  74 113 155 190 228 275 338
#     4  10  21  36  53  82 117 147 190 238 280 346
#     4  11  22  36  55  80 116 150 184 234 284 335
#     4  10  21  38  57  80 108 145 186 238 281 327
#     4  12  22  32  60  82 108 156 194 228 300 334
#
# _framework density 21.392085000000002
#
# number of rings (size 3 to 8) (size 9 to 14) (size 15 to 20)
#    0.000    1.655    2.069    3.103    1.931    6.069 
#    1.241    0.000    0.000    0.414    0.000    0.483 
#    0.000    0.000    0.000    0.000    0.000    0.000 
#
# Total GULP energy -323260.596994 kJ/mol
# GULP energy per Si atom -5573.458569 kJ/mol
# Density = 2.134340 g / cm^3
# Si number density = 21.392085 Si / 1000 Ang^3
#
#
#
# Elastic Constant Matrix: (Units=GPa)
#
#
# Indices 1 2 3 4 5 6 
#
# 1 64.5822 5.2823 -2.8751 0.0000 0.0000 0.0000
# 2 5.2823 41.5842 -3.2302 0.0000 0.0000 0.0000
# 3 -2.8751 -3.2302 64.1681 -0.0001 0.0000 0.0000
# 4 0.0000 0.0000 -0.0001 -29.6016 0.0000 0.0000
# 5 0.0000 0.0000 0.0000 0.0000 18.9431 0.0000
# 6 0.0000 0.0000 0.0000 0.0000 0.0000 39.4950
#
#
#
# Elastic Compliance Matrix: (Units=1/GPa)
#
#
# Indices 1 2 3 4 5 6 
#
# 1 0.015670 -0.001944 0.000604 0.000000 0.000000 0.000000
# 2 -0.001944 0.024383 0.001140 0.000000 0.000000 0.000000
# 3 0.000604 0.001140 0.015669 0.000000 0.000000 0.000000
# 4 0.000000 0.000000 0.000000 -0.033782 0.000000 0.000000
# 5 0.000000 0.000000 0.000000 0.000000 0.052790 0.000000
# 6 0.000000 0.000000 0.000000 0.000000 0.000000 0.025320
#
#
# Mechanical properties :
#
#
# Convention : Reuss Voigt Hill
#
# Bulk Modulus (GPa) = 18.07543 18.74317 18.40930
# Shear Modulus (GPa) = 42.05631 17.17780 29.61705
#
# Velocity S-wave (km/s) = 4.43874 2.83680 3.72491
# Velocity P-wave (km/s) = 5.89388 4.41708 5.20809
#
# Compressibility (1/GPa) = 0.05532372
#
# Stress axis : x y z
#
# Youngs Moduli (GPa) = 63.81618 41.01209 63.82214
#
# Poissons Ratio (x) = 0.07971 -0.03857
# Poissons Ratio (y) = 0.12403 -0.07278
# Poissons Ratio (z) = -0.03856 -0.04677
#
# Static dielectric constant tensor:
#      x y z
#    x 1.788870 0.000000 0.000000 
#    y 0.000000 1.818150 0.000000 
#    z 0.000000 0.000000 1.988520 
# 
# From -- ./inp_files/57908.got.cif
#   From: 2010.05.17/outbox.cif.g08.bks.cpg/sg74_29_cif.got.tgz:57908.got - 2010.06.03 17:57:02.
