data_PCOD9538701
_publ_section_title
;
Structure prediction by ZEFSAII (Michael W. Deem and Ramdas Pophale) SiO2 
 PCOD9538701
Probable space group: I M M A
;
_chemical_formula_sum "Si O2"
_cell_formula_units_Z 80
_cell_length_a 23.304760
_cell_length_b 9.174944
_cell_length_c 19.866673
_cell_angle_alpha 90.000000
_cell_angle_beta 90.000000
_cell_angle_gamma 90.000000
_cell_volume 4247.889397
_symmetry_space_group_name_H-M "I M M A"
_symmetry_group_IT_number 74
_symmetry_cell_setting 'orthorhombic'
loop_
_space_group_symop_operation_xyz
x,y,z
-x,1/2-y,z
x,-y,-z
-x,1/2+y,-z
-x,-y,-z
x,1/2+y,-z
-x,y,z
x,1/2-y,z
1/2+x,1/2+y,1/2+z
1/2-x,-y,1/2+z
1/2+x,1/2-y,1/2-z
1/2-x,y,1/2-z
1/2-x,1/2-y,1/2-z
1/2+x,y,1/2-z
1/2-x,1/2+y,1/2+z
1/2+x,-y,1/2+z
loop_
_atom_site_type_symbol
_atom_site_label
_atom_site_fract_x
_atom_site_fract_y
_atom_site_fract_z
Si Si1 0.166263 0.924595 0.927869
Si Si2 0.932476 0.075140 0.175293
Si Si3 0.067565 0.586715 0.562919
Si Si4 0.111290 0.076730 0.688899
Si Si5 0.229369 0.580662 0.672768
O O1 0.166584 0.750000 0.936865
O O2 0.107584 0.963040 0.888233
O O3 0.219432 0.959890 0.878075
O O4 0.170745 0.000000 0.000000
O O5 0.926560 0.250000 0.186549
O O6 0.000000 0.043582 0.165695
O O7 0.908072 0.992842 0.240448
O O8 0.093933 0.500000 0.500000
O O9 0.091569 0.750000 0.570186
O O10 0.073711 0.493759 0.630065
O O11 0.000000 0.602367 0.549632
O O12 0.106561 0.250000 0.691115
O O13 0.175202 0.024649 0.669764
O O14 0.213266 0.750000 0.659236
O O15 0.250000 0.575654 0.750000
#
# Coordination Sequence:
#
# PCOD9538701 Si02
#       5
#    16  16  16  16  16
#     4  10  22  40  63  91 121 157 199 249 305 361
#     4  10  21  40  64  88 118 162 211 250 294 359
#     4  10  21  38  59  83 116 158 201 246 298 355
#     4  12  24  36  58  91 125 156 197 251 304 360
#     4  10  20  40  65  84 113 157 202 244 292 353
#
# _framework density 18.832882999999999
#
# number of rings (size 3 to 8) (size 9 to 14) (size 15 to 20)
#    0.000    1.600    2.000    3.000    0.000    7.200 
#    0.000    2.000    0.000    0.000    0.000    0.000 
#    0.000    0.000    0.000    0.000    0.000    0.000 
#
# Total GULP energy -223330.938311 kJ/mol
# GULP energy per Si atom -5583.273458 kJ/mol
# Density = 1.879002 g / cm^3
# Si number density = 18.832883 Si / 1000 Ang^3
#
#
#
# Elastic Constant Matrix: (Units=GPa)
#
#
# Indices 1 2 3 4 5 6 
#
# 1 104.3549 53.4039 61.7432 0.0000 0.0000 0.0000
# 2 53.4039 88.7380 63.6698 0.0000 0.0000 0.0000
# 3 61.7432 63.6698 164.7421 0.0000 0.0000 0.0000
# 4 0.0000 0.0000 0.0000 35.0142 0.0000 0.0000
# 5 0.0000 0.0000 0.0000 0.0000 23.7840 0.0000
# 6 0.0000 0.0000 0.0000 0.0000 0.0000 10.0888
#
#
#
# Elastic Compliance Matrix: (Units=1/GPa)
#
#
# Indices 1 2 3 4 5 6 
#
# 1 0.014791 -0.006814 -0.002910 0.000000 0.000000 0.000000
# 2 -0.006814 0.018732 -0.004686 0.000000 0.000000 0.000000
# 3 -0.002910 -0.004686 0.008972 0.000000 0.000000 0.000000
# 4 0.000000 0.000000 0.000000 0.028560 0.000000 0.000000
# 5 0.000000 0.000000 0.000000 0.000000 0.042045 0.000000
# 6 0.000000 0.000000 0.000000 0.000000 0.000000 0.099120
#
#
# Mechanical properties :
#
#
# Convention : Reuss Voigt Hill
#
# Bulk Modulus (GPa) = 73.12300 79.49651 76.30976
# Shear Modulus (GPa) = 20.35850 25.71195 23.03522
#
# Velocity S-wave (km/s) = 3.29144 3.69896 3.50113
# Velocity P-wave (km/s) = 7.30454 7.78115 7.54661
#
# Compressibility (1/GPa) = 0.01367559
#
# Stress axis : x y z
#
# Youngs Moduli (GPa) = 67.60643 53.38537 111.45985
#
# Poissons Ratio (x) = 0.36374 0.32439
# Poissons Ratio (y) = 0.46064 0.52228
# Poissons Ratio (z) = 0.19676 0.25015
#
# Static dielectric constant tensor:
#      x y z
#    x 1.720380 0.000000 0.000000 
#    y 0.000000 1.649910 0.000000 
#    z 0.000000 0.000000 1.627780 
# 
# From -- ./inp_files/46486.got.cif
#   From: 2010.05.17/outbox.cif.g08.bks.cpg/sg74_24_cif.got.tgz:46486.got - 2010.06.03 17:57:02.
