data_PCOD9538738
_publ_section_title
;
Structure prediction by ZEFSAII (Michael W. Deem and Ramdas Pophale) SiO2 
 PCOD9538738
Probable space group: I M M A
;
_chemical_formula_sum "Si O2"
_cell_formula_units_Z 60
_cell_length_a 24.578431
_cell_length_b 15.655259
_cell_length_c 8.643686
_cell_angle_alpha 90.000000
_cell_angle_beta 90.000000
_cell_angle_gamma 90.000000
_cell_volume 3325.932220
_symmetry_space_group_name_H-M "I M M A"
_symmetry_group_IT_number 74
_symmetry_cell_setting 'orthorhombic'
loop_
_space_group_symop_operation_xyz
x,y,z
-x,1/2-y,z
x,-y,-z
-x,1/2+y,-z
-x,-y,-z
x,1/2+y,-z
-x,y,z
x,1/2-y,z
1/2+x,1/2+y,1/2+z
1/2-x,-y,1/2+z
1/2+x,1/2-y,1/2-z
1/2-x,y,1/2-z
1/2-x,1/2-y,1/2-z
1/2+x,y,1/2-z
1/2-x,1/2+y,1/2+z
1/2+x,-y,1/2+z
loop_
_atom_site_type_symbol
_atom_site_label
_atom_site_fract_x
_atom_site_fract_y
_atom_site_fract_z
Si Si1 0.105766 0.345369 0.799115
Si Si2 0.500000 0.396614 0.511206
Si Si3 0.500000 0.750000 0.754562
Si Si4 0.731268 0.250000 0.074215
Si Si5 0.397933 0.250000 0.005452
Si Si6 0.782839 0.914329 0.094477
O O1 0.121970 0.250000 0.851825
O O2 0.096678 0.330533 0.614799
O O3 0.154945 0.403222 0.852957
O O4 0.052019 0.371261 0.887558
O O5 0.500000 0.500000 0.500000
O O6 0.500000 0.335085 0.357221
O O7 0.445532 0.750000 0.864996
O O8 0.750000 0.250000 0.250000
O O9 0.665036 0.250000 0.061718
O O10 0.757404 0.166868 0.993631
O O11 0.750000 0.922024 0.250000
O O12 0.776572 0.000000 0.000000
#
# Coordination Sequence:
#
# PCOD9538738 Si02
#       6
#    16   8   4   8   8  16
#     4  10  20  44  70  86 130 177 214 261 341 380
#     4  12  25  43  67  97 129 174 222 278 334 394
#     4  12  24  44  68 102 128 164 234 278 320 394
#     4  12  24  41  65  96 136 172 222 267 334 395
#     4  10  22  42  72  93 129 178 217 278 326 382
#     4  12  23  43  65 100 134 176 216 273 327 400
#
# _framework density 18.040054000000001
#
# number of rings (size 3 to 8) (size 9 to 14) (size 15 to 20)
#    0.800    0.000    5.333    2.800    3.733    0.000 
#    4.800    2.667    0.000    0.000    0.000    0.000 
#    0.000    0.000    0.000    0.000    0.000    0.000 
#
# Total GULP energy -167184.941140 kJ/mol
# GULP energy per Si atom -5572.831371 kJ/mol
# Density = 1.799899 g / cm^3
# Si number density = 18.040054 Si / 1000 Ang^3
#
#
#
# Elastic Constant Matrix: (Units=GPa)
#
#
# Indices 1 2 3 4 5 6 
#
# 1 158.6763 31.7586 105.9193 0.0000 0.0000 0.0000
# 2 31.7586 124.6979 83.7763 0.0000 0.0000 0.0000
# 3 105.9193 83.7763 177.4841 0.0000 0.0000 0.0000
# 4 0.0000 0.0000 0.0000 22.1436 0.0000 0.0000
# 5 0.0000 0.0000 0.0000 0.0000 38.6983 0.0000
# 6 0.0000 0.0000 0.0000 0.0000 0.0000 42.2539
#
#
#
# Elastic Compliance Matrix: (Units=1/GPa)
#
#
# Indices 1 2 3 4 5 6 
#
# 1 0.010922 0.002339 -0.007622 0.000000 0.000000 0.000000
# 2 0.002339 0.012244 -0.007176 0.000000 0.000000 0.000000
# 3 -0.007622 -0.007176 0.013570 0.000000 0.000000 0.000000
# 4 0.000000 0.000000 0.000000 0.045160 0.000000 0.000000
# 5 0.000000 0.000000 0.000000 0.000000 0.025841 0.000000
# 6 0.000000 0.000000 0.000000 0.000000 0.000000 0.023666
#
#
# Mechanical properties :
#
#
# Convention : Reuss Voigt Hill
#
# Bulk Modulus (GPa) = 84.60748 100.41853 92.51301
# Shear Modulus (GPa) = 31.19921 36.57943 33.88932
#
# Velocity S-wave (km/s) = 4.16317 4.50786 4.33894
# Velocity P-wave (km/s) = 8.37322 9.10382 8.74615
#
# Compressibility (1/GPa) = 0.01181929
#
# Stress axis : x y z
#
# Youngs Moduli (GPa) = 91.55955 81.66962 73.69151
#
# Poissons Ratio (x) = -0.19104 0.56168
# Poissons Ratio (y) = -0.21417 0.52878
# Poissons Ratio (z) = 0.69788 0.58603
#
# Static dielectric constant tensor:
#      x y z
#    x 1.509000 0.000000 0.000000 
#    y 0.000000 1.610470 0.000000 
#    z 0.000000 0.000000 1.616660 
# 
# From -- ./inp_files/11870.got.cif
#   From: 2010.05.17/outbox.cif.g08.bks.cpg/sg74_6_cif.got.tgz:11870.got - 2010.06.03 17:57:02.
