data_PCOD9538680
_publ_section_title
;
Structure prediction by ZEFSAII (Michael W. Deem and Ramdas Pophale) SiO2 
 PCOD9538680
Probable space group: I M M A
;
_chemical_formula_sum "Si O2"
_cell_formula_units_Z 100
_cell_length_a 15.066972
_cell_length_b 22.233516
_cell_length_c 15.819592
_cell_angle_alpha 90.000000
_cell_angle_beta 90.000000
_cell_angle_gamma 90.000000
_cell_volume 5299.433015
_symmetry_space_group_name_H-M "I M M A"
_symmetry_group_IT_number 74
_symmetry_cell_setting 'orthorhombic'
loop_
_space_group_symop_operation_xyz
x,y,z
-x,1/2-y,z
x,-y,-z
-x,1/2+y,-z
-x,-y,-z
x,1/2+y,-z
-x,y,z
x,1/2-y,z
1/2+x,1/2+y,1/2+z
1/2-x,-y,1/2+z
1/2+x,1/2-y,1/2-z
1/2-x,y,1/2-z
1/2-x,1/2-y,1/2-z
1/2+x,y,1/2-z
1/2-x,1/2+y,1/2+z
1/2+x,-y,1/2+z
loop_
_atom_site_type_symbol
_atom_site_label
_atom_site_fract_x
_atom_site_fract_y
_atom_site_fract_z
Si Si1 0.401214 0.017799 0.402638
Si Si2 0.604283 0.750000 0.983095
Si Si3 0.893431 0.925716 0.667510
Si Si4 0.764273 0.250000 0.349441
Si Si5 0.606393 0.617349 0.026632
Si Si6 0.777706 0.544980 0.338231
Si Si7 0.853804 0.145692 0.168521
Si Si8 0.500000 0.250000 0.317528
O O1 0.500000 0.004760 0.365237
O O2 0.381720 0.088366 0.386962
O O3 0.406308 0.000000 0.500000
O O4 0.315580 0.982366 0.369509
O O5 0.500000 0.750000 0.978171
O O6 0.638423 0.750000 0.887001
O O7 0.629718 0.688016 0.027327
O O8 0.882205 0.906240 0.569781
O O9 0.847897 0.882261 0.736738
O O10 0.000000 0.927156 0.683368
O O11 0.844649 0.989293 0.679424
O O12 0.750000 0.250000 0.250000
O O13 0.722483 0.185802 0.375653
O O14 0.500000 0.609534 0.046362
O O15 0.670608 0.583371 0.091487
O O16 0.750000 0.576262 0.250000
O O17 0.925359 0.197376 0.179090
#
# Coordination Sequence:
#
# PCOD9538680 Si02
#       8
#    16   8  16   8  16  16  16   4
#     4  11  24  41  62  84 123 173 221 263 308 365
#     4  10  23  44  66  90 127 165 207 267 325 392
#     4  11  21  38  64  91 135 167 206 259 318 384
#     4  11  25  35  59  90 131 177 211 237 305 389
#     4  10  23  42  65  98 127 163 207 262 330 393
#     4  12  25  38  65  92 123 162 209 270 327 376
#     4  11  22  38  60  93 132 174 213 253 307 373
#     4  10  20  40  58  90 134 172 210 254 288 380
#
# _framework density 18.869942999999999
#
# number of rings (size 3 to 8) (size 9 to 14) (size 15 to 20)
#    0.000    1.120    3.200    2.880    6.720    2.560 
#    4.320    0.400    0.000    0.000    0.000    0.000 
#    0.000    0.000    0.000    0.000    0.000    0.000 
#
# Total GULP energy -278401.875753 kJ/mol
# GULP energy per Si atom -5568.037515 kJ/mol
# Density = 1.882699 g / cm^3
# Si number density = 18.869943 Si / 1000 Ang^3
#
#
#
# Elastic Constant Matrix: (Units=GPa)
#
#
# Indices 1 2 3 4 5 6 
#
# 1 99.0976 51.2803 41.1925 0.0000 0.0000 0.0000
# 2 51.2803 126.3219 68.1388 0.0000 0.0000 0.0000
# 3 41.1925 68.1388 104.6293 0.0001 0.0000 0.0000
# 4 0.0000 0.0000 0.0001 23.8756 0.0000 0.0000
# 5 0.0000 0.0000 0.0000 0.0000 36.6584 0.0000
# 6 0.0000 0.0000 0.0000 0.0000 0.0000 37.8264
#
#
#
# Elastic Compliance Matrix: (Units=1/GPa)
#
#
# Indices 1 2 3 4 5 6 
#
# 1 0.013231 -0.003948 -0.002638 0.000000 0.000000 0.000000
# 2 -0.003948 0.013381 -0.007160 0.000000 0.000000 0.000000
# 3 -0.002638 -0.007160 0.015259 0.000000 0.000000 0.000000
# 4 0.000000 0.000000 0.000000 0.041884 0.000000 0.000000
# 5 0.000000 0.000000 0.000000 0.000000 0.027279 0.000000
# 6 0.000000 0.000000 0.000000 0.000000 0.000000 0.026437
#
#
# Mechanical properties :
#
#
# Convention : Reuss Voigt Hill
#
# Bulk Modulus (GPa) = 69.54590 72.36356 70.95473
# Shear Modulus (GPa) = 29.45433 30.96790 30.21112
#
# Velocity S-wave (km/s) = 3.95512 4.05547 4.00561
# Velocity P-wave (km/s) = 7.60215 7.76923 7.68615
#
# Compressibility (1/GPa) = 0.01437899
#
# Stress axis : x y z
#
# Youngs Moduli (GPa) = 75.58270 74.73189 65.53570
#
# Poissons Ratio (x) = 0.29505 0.17286
# Poissons Ratio (y) = 0.29841 0.46923
# Poissons Ratio (z) = 0.19936 0.53508
#
# Static dielectric constant tensor:
#      x y z
#    x 1.707970 0.000000 0.000000 
#    y 0.000000 1.672590 0.000000 
#    z 0.000000 0.000000 1.670490 
# 
# From -- ./inp_files/32677.got.cif
#   From: 2010.05.17/outbox.cif.g08.bks.cpg/sg74_17_cif.got.tgz:32677.got - 2010.06.03 17:57:02.
