data_PCOD9538110
_publ_section_title
;
Structure prediction by ZEFSAII (Michael W. Deem and Ramdas Pophale) SiO2 
 PCOD9538110
Probable space group: I M M A
;
_chemical_formula_sum "Si O2"
_cell_formula_units_Z 104
_cell_length_a 9.505905
_cell_length_b 21.615634
_cell_length_c 28.842436
_cell_angle_alpha 90.000000
_cell_angle_beta 90.000000
_cell_angle_gamma 90.000000
_cell_volume 5926.433090
_symmetry_space_group_name_H-M "I M M A"
_symmetry_group_IT_number 74
_symmetry_cell_setting 'orthorhombic'
loop_
_space_group_symop_operation_xyz
x,y,z
-x,1/2-y,z
x,-y,-z
-x,1/2+y,-z
-x,-y,-z
x,1/2+y,-z
-x,y,z
x,1/2-y,z
1/2+x,1/2+y,1/2+z
1/2-x,-y,1/2+z
1/2+x,1/2-y,1/2-z
1/2-x,y,1/2-z
1/2-x,1/2-y,1/2-z
1/2+x,y,1/2-z
1/2-x,1/2+y,1/2+z
1/2+x,-y,1/2+z
loop_
_atom_site_type_symbol
_atom_site_label
_atom_site_fract_x
_atom_site_fract_y
_atom_site_fract_z
Si Si1 0.165728 0.926795 0.049918
Si Si2 0.668673 0.375352 0.144505
Si Si3 0.169879 0.750000 0.700584
Si Si4 0.157012 0.176896 0.791973
Si Si5 0.334003 0.114622 0.864735
Si Si6 0.166537 0.497600 0.297429
Si Si7 0.665235 0.574925 0.557381
O O1 0.270149 0.893578 0.084711
O O2 0.000000 0.914034 0.059199
O O3 0.186053 0.000458 0.058431
O O4 0.194501 0.909756 0.996475
O O5 0.500000 0.376143 0.137241
O O6 0.704708 0.311145 0.170238
O O7 0.704475 0.432592 0.178415
O O8 0.744546 0.389525 0.095752
O O9 0.250000 0.750000 0.750000
O O10 0.000000 0.750000 0.708514
O O11 0.143355 0.250000 0.784367
O O12 0.250000 0.150945 0.750000
O O13 0.244108 0.165579 0.838074
O O14 0.000000 0.149779 0.793284
O O15 0.500000 0.126982 0.864663
O O16 0.308462 0.052067 0.834680
O O17 0.250000 0.505844 0.250000
O O18 0.000000 0.497183 0.287468
O O19 0.500000 0.586334 0.566123
#
# Coordination Sequence:
#
# PCOD9538110 Si02
#       7
#    16  16   8  16  16  16  16
#     4   9  18  33  53  80 111 138 174 218 266 323
#     4  10  20  36  54  77 108 141 181 227 274 324
#     4  10  22  38  58  80 108 148 190 234 277 326
#     4  10  21  37  56  77 104 141 180 217 259 310
#     4  11  21  33  52  80 109 140 177 218 268 319
#     4  10  21  33  47  73 107 138 171 214 263 316
#     4   9  18  33  55  81 106 138 175 217 268 324
#
# _framework density 17.548499
#
# number of rings (size 3 to 8) (size 9 to 14) (size 15 to 20)
#    0.000    2.154    1.538    2.769    0.000    5.231 
#    0.000    1.538    1.692    0.000    0.000    0.000 
#    0.000    0.000    0.000    0.000    0.000    0.000 
#
# Total GULP energy -290054.885315 kJ/mol
# GULP energy per Si atom -5577.978564 kJ/mol
# Density = 1.750856 g / cm^3
# Si number density = 17.548499 Si / 1000 Ang^3
#
#
#
# Elastic Constant Matrix: (Units=GPa)
#
#
# Indices 1 2 3 4 5 6 
#
# 1 88.1345 27.5421 76.2454 0.0000 0.0000 0.0000
# 2 27.5421 52.2322 27.5955 0.0000 0.0000 0.0000
# 3 76.2454 27.5955 126.2983 0.0000 0.0000 0.0000
# 4 0.0000 0.0000 0.0000 28.4642 0.0000 0.0000
# 5 0.0000 0.0000 0.0000 0.0000 41.8708 0.0000
# 6 0.0000 0.0000 0.0000 0.0000 0.0000 -28.7623
#
#
#
# Elastic Compliance Matrix: (Units=1/GPa)
#
#
# Indices 1 2 3 4 5 6 
#
# 1 0.025289 -0.005957 -0.013965 0.000000 0.000000 0.000000
# 2 -0.005957 0.023047 -0.001440 0.000000 0.000000 0.000000
# 3 -0.013965 -0.001440 0.016663 0.000000 0.000000 0.000000
# 4 0.000000 0.000000 0.000000 0.035132 0.000000 0.000000
# 5 0.000000 0.000000 0.000000 0.000000 0.023883 0.000000
# 6 0.000000 0.000000 0.000000 0.000000 0.000000 -0.034768
#
#
# Mechanical properties :
#
#
# Convention : Reuss Voigt Hill
#
# Bulk Modulus (GPa) = 44.89192 58.82566 51.85879
# Shear Modulus (GPa) = 35.86921 17.33335 26.60128
#
# Velocity S-wave (km/s) = 4.52597 3.14624 3.89764
# Velocity P-wave (km/s) = 7.27666 6.84054 7.06197
#
# Compressibility (1/GPa) = 0.02227572
#
# Stress axis : x y z
#
# Youngs Moduli (GPa) = 39.54226 43.38991 60.01265
#
# Poissons Ratio (x) = 0.25847 0.83811
# Poissons Ratio (y) = 0.23555 0.08639
# Poissons Ratio (z) = 0.55223 0.06246
#
# Static dielectric constant tensor:
#      x y z
#    x 1.591770 0.000000 0.000000 
#    y 0.000000 1.621790 0.000000 
#    z 0.000000 0.000000 1.608660 
# 
# From -- ./inp_files/64761.got.cif
#   From: 2010.05.17/outbox.cif.g08.bks.cpg/sg74_33_cif.got.tgz:64761.got - 2010.06.03 17:57:02.
