data_PCOD9538215
_publ_section_title
;
Structure prediction by ZEFSAII (Michael W. Deem and Ramdas Pophale) SiO2 
 PCOD9538215
Probable space group: I M M A
;
_chemical_formula_sum "Si O2"
_cell_formula_units_Z 96
_cell_length_a 23.901881
_cell_length_b 18.071153
_cell_length_c 12.046080
_cell_angle_alpha 90.000000
_cell_angle_beta 90.000000
_cell_angle_gamma 90.000000
_cell_volume 5203.118126
_symmetry_space_group_name_H-M "I M M A"
_symmetry_group_IT_number 74
_symmetry_cell_setting 'orthorhombic'
loop_
_space_group_symop_operation_xyz
x,y,z
-x,1/2-y,z
x,-y,-z
-x,1/2+y,-z
-x,-y,-z
x,1/2+y,-z
-x,y,z
x,1/2-y,z
1/2+x,1/2+y,1/2+z
1/2-x,-y,1/2+z
1/2+x,1/2-y,1/2-z
1/2-x,y,1/2-z
1/2-x,1/2-y,1/2-z
1/2+x,y,1/2-z
1/2-x,1/2+y,1/2+z
1/2+x,-y,1/2+z
loop_
_atom_site_type_symbol
_atom_site_label
_atom_site_fract_x
_atom_site_fract_y
_atom_site_fract_z
Si Si1 0.660055 0.415368 0.040650
Si Si2 0.627925 0.580920 0.701719
Si Si3 0.934028 0.429184 0.837945
Si Si4 0.732309 0.664706 0.619729
Si Si5 0.064842 0.161241 0.609713
Si Si6 0.433732 0.668896 0.544179
O O1 0.641519 0.416248 0.169040
O O2 0.717963 0.369079 0.045179
O O3 0.667989 0.500000 0.000000
O O4 0.611517 0.376300 0.968297
O O5 0.604125 0.500476 0.676551
O O6 0.680115 0.608714 0.627306
O O7 0.581053 0.639360 0.665104
O O8 0.929683 0.375093 0.731873
O O9 0.000000 0.450573 0.847962
O O10 0.915744 0.387201 0.948788
O O11 0.719899 0.750000 0.587729
O O12 0.750000 0.668038 0.750000
O O13 0.072259 0.250000 0.614104
O O14 0.000000 0.146850 0.573456
O O15 0.500000 0.672960 0.532274
O O16 0.409751 0.750000 0.525927
#
# Coordination Sequence:
#
# PCOD9538215 Si02
#       6
#    16  16  16  16  16  16
#     4  11  22  38  58  88 120 157 196 245 296 355
#     4  11  21  36  58  86 117 150 195 251 300 354
#     4  10  20  36  58  85 118 156 200 245 295 358
#     4   9  20  38  59  80 108 149 195 240 288 346
#     4  10  21  37  59  86 120 164 204 240 294 361
#     4  10  21  36  56  83 116 153 196 246 299 355
#
# _framework density 18.450474
#
# number of rings (size 3 to 8) (size 9 to 14) (size 15 to 20)
#    0.000    1.833    1.667    2.500    0.000    8.333 
#    0.000    1.667    0.000    0.000    0.000    4.667 
#    0.000    0.000    0.000    0.000    0.000    0.000 
#
# Total GULP energy -267643.540582 kJ/mol
# GULP energy per Si atom -5575.907095 kJ/mol
# Density = 1.840848 g / cm^3
# Si number density = 18.450474 Si / 1000 Ang^3
#
#
#
# Elastic Constant Matrix: (Units=GPa)
#
#
# Indices 1 2 3 4 5 6 
#
# 1 84.2027 67.6559 44.5119 0.0000 0.0000 0.0000
# 2 67.6559 128.9681 35.9891 0.0000 0.0000 0.0000
# 3 44.5119 35.9891 73.5496 0.0000 0.0000 0.0000
# 4 0.0000 0.0000 0.0000 -110.3496 0.0000 0.0000
# 5 0.0000 0.0000 0.0000 0.0000 23.3908 0.0000
# 6 0.0000 0.0000 0.0000 0.0000 0.0000 56.7882
#
#
#
# Elastic Compliance Matrix: (Units=1/GPa)
#
#
# Indices 1 2 3 4 5 6 
#
# 1 0.026065 -0.010738 -0.010520 0.000000 0.000000 0.000000
# 2 -0.010738 0.013404 -0.000060 0.000000 0.000000 0.000000
# 3 -0.010520 -0.000060 0.019992 0.000000 0.000000 0.000000
# 4 0.000000 0.000000 0.000000 -0.009062 0.000000 0.000000
# 5 0.000000 0.000000 0.000000 0.000000 0.042752 0.000000
# 6 0.000000 0.000000 0.000000 0.000000 0.000000 0.017609
#
#
# Mechanical properties :
#
#
# Convention : Reuss Voigt Hill
#
# Bulk Modulus (GPa) = 59.43625 64.78156 62.10891
# Shear Modulus (GPa) = 31.44550 3.20346 17.32448
#
# Velocity S-wave (km/s) = 4.13282 1.31910 3.06759
# Velocity P-wave (km/s) = 7.42007 6.12432 6.80312
#
# Compressibility (1/GPa) = 0.01682475
#
# Stress axis : x y z
#
# Youngs Moduli (GPa) = 38.36535 74.60645 50.01876
#
# Poissons Ratio (x) = 0.80112 0.52621
# Poissons Ratio (y) = 0.41196 0.00301
# Poissons Ratio (z) = 0.40361 0.00448
#
# Static dielectric constant tensor:
#      x y z
#    x 1.678320 0.000000 0.000000 
#    y 0.000000 1.649250 0.000000 
#    z 0.000000 0.000000 1.606440 
# 
# From -- ./inp_files/22464.got.cif
#   From: 2010.05.17/outbox.cif.g08.bks.cpg/sg74_12_cif.got.tgz:22464.got - 2010.06.03 17:57:02.
