data_PCOD9538685
_publ_section_title
;
Structure prediction by ZEFSAII (Michael W. Deem and Ramdas Pophale) SiO2 
 PCOD9538685
Probable space group: I M M A
;
_chemical_formula_sum "Si O2"
_cell_formula_units_Z 96
_cell_length_a 8.863770
_cell_length_b 25.480052
_cell_length_c 24.115388
_cell_angle_alpha 90.000000
_cell_angle_beta 90.000000
_cell_angle_gamma 90.000000
_cell_volume 5446.443994
_symmetry_space_group_name_H-M "I M M A"
_symmetry_group_IT_number 74
_symmetry_cell_setting 'orthorhombic'
loop_
_space_group_symop_operation_xyz
x,y,z
-x,1/2-y,z
x,-y,-z
-x,1/2+y,-z
-x,-y,-z
x,1/2+y,-z
-x,y,z
x,1/2-y,z
1/2+x,1/2+y,1/2+z
1/2-x,-y,1/2+z
1/2+x,1/2-y,1/2-z
1/2-x,y,1/2-z
1/2-x,1/2-y,1/2-z
1/2+x,y,1/2-z
1/2-x,1/2+y,1/2+z
1/2+x,-y,1/2+z
loop_
_atom_site_type_symbol
_atom_site_label
_atom_site_fract_x
_atom_site_fract_y
_atom_site_fract_z
Si Si1 0.180638 0.398496 0.884159
Si Si2 0.819988 0.097555 0.379715
Si Si3 0.818562 0.438034 0.005489
Si Si4 0.819947 0.810987 0.309201
Si Si5 0.681131 0.998595 0.689047
Si Si6 0.820540 0.187998 0.190008
O O1 0.259882 0.348786 0.856869
O O2 0.215986 0.450037 0.847648
O O3 0.000000 0.391193 0.881860
O O4 0.221882 0.410165 0.947722
O O5 0.764058 0.086218 0.441859
O O6 0.750940 0.051714 0.341281
O O7 0.756147 0.152015 0.356029
O O8 0.000000 0.096647 0.376614
O O9 0.000000 0.433986 0.013534
O O10 0.783883 0.500000 0.000000
O O11 0.777801 0.750000 0.318693
O O12 0.750000 0.827160 0.250000
O O13 0.000000 0.814346 0.305468
O O14 0.500000 0.993050 0.691978
O O15 0.750000 0.004110 0.750000
O O16 0.794908 0.250000 0.180414
O O17 0.750000 0.174756 0.250000
O O18 0.000000 0.178635 0.191362
#
# Coordination Sequence:
#
# PCOD9538685 Si02
#       6
#    16  16  16  16  16  16
#     4  10  21  37  60  85 111 147 189 235 286 338
#     4  12  24  37  57  86 117 152 192 236 285 340
#     4  10  20  40  62  82 112 153 195 237 285 340
#     4  10  21  37  58  84 116 152 189 233 284 338
#     4  11  22  37  55  82 116 149 186 233 288 342
#     4  10  21  39  63  88 116 152 192 237 290 345
#
# _framework density 17.626179
#
# number of rings (size 3 to 8) (size 9 to 14) (size 15 to 20)
#    0.000    1.500    1.667    4.000    0.000    5.667 
#    0.000    0.833    0.000    1.000    0.000    0.000 
#    0.000    0.000    0.000    0.000    0.000    0.000 
#
# Total GULP energy -268306.613296 kJ/mol
# GULP energy per Si atom -5589.721110 kJ/mol
# Density = 1.758606 g / cm^3
# Si number density = 17.626179 Si / 1000 Ang^3
#
#
#
# Elastic Constant Matrix: (Units=GPa)
#
#
# Indices 1 2 3 4 5 6 
#
# 1 78.2788 57.9679 72.4009 0.0000 0.0000 0.0000
# 2 57.9679 85.8240 71.7724 0.0000 0.0000 0.0000
# 3 72.4009 71.7724 154.3784 0.0000 0.0000 0.0000
# 4 0.0000 0.0000 0.0000 16.5602 0.0000 0.0000
# 5 0.0000 0.0000 0.0000 0.0000 36.0167 0.0000
# 6 0.0000 0.0000 0.0000 0.0000 0.0000 25.9352
#
#
#
# Elastic Compliance Matrix: (Units=1/GPa)
#
#
# Indices 1 2 3 4 5 6 
#
# 1 0.030248 -0.014017 -0.007669 0.000000 0.000000 0.000000
# 2 -0.014017 0.025559 -0.005309 0.000000 0.000000 0.000000
# 3 -0.007669 -0.005309 0.012543 0.000000 0.000000 0.000000
# 4 0.000000 0.000000 0.000000 0.060386 0.000000 0.000000
# 5 0.000000 0.000000 0.000000 0.000000 0.027765 0.000000
# 6 0.000000 0.000000 0.000000 0.000000 0.000000 0.038558
#
#
# Mechanical properties :
#
#
# Convention : Reuss Voigt Hill
#
# Bulk Modulus (GPa) = 69.64069 80.30706 74.97388
# Shear Modulus (GPa) = 19.69788 23.45842 21.57815
#
# Velocity S-wave (km/s) = 3.34658 3.65209 3.50267
# Velocity P-wave (km/s) = 7.38433 7.96516 7.68024
#
# Compressibility (1/GPa) = 0.01435942
#
# Stress axis : x y z
#
# Youngs Moduli (GPa) = 33.05990 39.12540 79.72856
#
# Poissons Ratio (x) = 0.54841 0.61146
# Poissons Ratio (y) = 0.46339 0.42328
# Poissons Ratio (z) = 0.25355 0.20772
#
# Static dielectric constant tensor:
#      x y z
#    x 1.587430 0.000000 0.000000 
#    y 0.000000 1.587710 0.000000 
#    z 0.000000 0.000000 1.571550 
# 
# From -- ./inp_files/57268.got.cif
#   From: 2010.05.17/outbox.cif.g08.bks.cpg/sg74_29_cif.got.tgz:57268.got - 2010.06.03 17:57:02.
