data_PCOD9538270
_publ_section_title
;
Structure prediction by ZEFSAII (Michael W. Deem and Ramdas Pophale) SiO2 
 PCOD9538270
Probable space group: I M M A
;
_chemical_formula_sum "Si O2"
_cell_formula_units_Z 112
_cell_length_a 14.358163
_cell_length_b 29.008072
_cell_length_c 10.947720
_cell_angle_alpha 90.000000
_cell_angle_beta 90.000000
_cell_angle_gamma 90.000000
_cell_volume 4559.754130
_symmetry_space_group_name_H-M "I M M A"
_symmetry_group_IT_number 74
_symmetry_cell_setting 'orthorhombic'
loop_
_space_group_symop_operation_xyz
x,y,z
-x,1/2-y,z
x,-y,-z
-x,1/2+y,-z
-x,-y,-z
x,1/2+y,-z
-x,y,z
x,1/2-y,z
1/2+x,1/2+y,1/2+z
1/2-x,-y,1/2+z
1/2+x,1/2-y,1/2-z
1/2-x,y,1/2-z
1/2-x,1/2-y,1/2-z
1/2+x,y,1/2-z
1/2-x,1/2+y,1/2+z
1/2+x,-y,1/2+z
loop_
_atom_site_type_symbol
_atom_site_label
_atom_site_fract_x
_atom_site_fract_y
_atom_site_fract_z
Si Si1 0.860935 0.472450 0.233921
Si Si2 0.711831 0.198636 0.061451
Si Si3 0.893745 0.664861 0.040286
Si Si4 0.106320 0.941973 0.036215
Si Si5 0.181121 0.456398 0.590654
Si Si6 0.396391 0.386680 0.098488
Si Si7 0.109385 0.197023 0.698503
O O1 0.750000 0.467586 0.250000
O O2 0.887707 0.469499 0.092984
O O3 0.879638 0.521177 0.300700
O O4 0.898906 0.428225 0.304489
O O5 0.688525 0.250000 0.106153
O O6 0.821122 0.193280 0.038708
O O7 0.665581 0.192421 0.926417
O O8 0.670847 0.155177 0.133698
O O9 0.890120 0.612071 0.999724
O O10 0.865726 0.666497 0.184280
O O11 0.000000 0.681818 0.033615
O O12 0.207799 0.947249 0.103675
O O13 0.000000 0.947254 0.085673
O O14 0.177878 0.500000 0.500000
O O15 0.137928 0.412106 0.525472
O O16 0.500000 0.368248 0.082817
O O17 0.122682 0.250000 0.740599
O O18 0.000000 0.190213 0.672620
#
# Coordination Sequence:
#
# PCOD9538270 Si02
#       7
#    16  16  16  16  16  16  16
#     4  11  21  42  67  90 126 168 211 262 328 390
#     4  11  21  37  61  90 130 172 210 267 334 388
#     4  10  20  36  59  88 123 164 215 263 312 385
#     4  11  22  41  65  94 128 171 214 264 331 396
#     4  10  21  41  64  92 125 161 208 273 321 383
#     4  11  23  40  63  93 125 164 219 269 319 386
#     4   9  18  33  54  84 120 162 212 261 319 389
#
# _framework density 24.562728
#
# number of rings (size 3 to 8) (size 9 to 14) (size 15 to 20)
#    0.000    1.571    4.286    1.714    0.000    6.286 
#    2.571    0.000    0.000    4.714    0.000    6.000 
#    0.000    0.000    0.000    0.000    0.000    0.000 
#
# Total GULP energy -313005.010463 kJ/mol
# GULP energy per Si atom -5589.375187 kJ/mol
# Density = 2.450682 g / cm^3
# Si number density = 24.562728 Si / 1000 Ang^3
#
#
#
# Elastic Constant Matrix: (Units=GPa)
#
#
# Indices 1 2 3 4 5 6 
#
# 1 126.6615 28.9790 20.8753 0.0001 -0.0001 0.0000
# 2 28.9790 110.4108 31.1869 0.0000 0.0000 0.0000
# 3 20.8753 31.1869 77.2735 -0.0004 0.0002 0.0001
# 4 0.0001 0.0000 -0.0004 24.1637 0.0000 0.0000
# 5 -0.0001 0.0000 0.0002 0.0000 17.6794 0.0000
# 6 0.0000 0.0000 0.0001 0.0000 0.0000 23.8303
#
#
#
# Elastic Compliance Matrix: (Units=1/GPa)
#
#
# Indices 1 2 3 4 5 6 
#
# 1 0.008569 -0.001800 -0.001588 0.000000 0.000000 0.000000
# 2 -0.001800 0.010601 -0.003792 0.000000 0.000000 0.000000
# 3 -0.001588 -0.003792 0.014901 0.000000 0.000000 0.000000
# 4 0.000000 0.000000 0.000000 0.041384 0.000000 0.000000
# 5 0.000000 0.000000 0.000000 0.000000 0.056563 0.000000
# 6 0.000000 0.000000 0.000000 0.000000 0.000000 0.041963
#
#
# Mechanical properties :
#
#
# Convention : Reuss Voigt Hill
#
# Bulk Modulus (GPa) = 50.73878 52.93649 51.83763
# Shear Modulus (GPa) = 25.65269 28.68832 27.17050
#
# Velocity S-wave (km/s) = 3.23518 3.42125 3.32952
# Velocity P-wave (km/s) = 5.88701 6.09959 5.99424
#
# Compressibility (1/GPa) = 0.01970879
#
# Stress axis : x y z
#
# Youngs Moduli (GPa) = 116.70342 94.33319 67.11176
#
# Poissons Ratio (x) = 0.16984 0.10659
# Poissons Ratio (y) = 0.21011 0.25449
# Poissons Ratio (z) = 0.18535 0.35771
#
# Static dielectric constant tensor:
#      x y z
#    x 1.916630 0.000000 0.000000 
#    y 0.000000 1.974140 0.000000 
#    z 0.000000 0.000000 2.061740 
# 
# From -- ./inp_files/32932.got.cif
#   From: 2010.05.17/outbox.cif.g08.bks.cpg/sg74_17_cif.got.tgz:32932.got - 2010.06.03 17:57:02.
