data_PCOD9538510
_publ_section_title
;
Structure prediction by ZEFSAII (Michael W. Deem and Ramdas Pophale) SiO2 
 PCOD9538510
Probable space group: I M M A
;
_chemical_formula_sum "Si O2"
_cell_formula_units_Z 72
_cell_length_a 7.536990
_cell_length_b 17.642127
_cell_length_c 26.201282
_cell_angle_alpha 90.000000
_cell_angle_beta 90.000000
_cell_angle_gamma 90.000000
_cell_volume 3483.946077
_symmetry_space_group_name_H-M "I M M A"
_symmetry_group_IT_number 74
_symmetry_cell_setting 'orthorhombic'
loop_
_space_group_symop_operation_xyz
x,y,z
-x,1/2-y,z
x,-y,-z
-x,1/2+y,-z
-x,-y,-z
x,1/2+y,-z
-x,y,z
x,1/2-y,z
1/2+x,1/2+y,1/2+z
1/2-x,-y,1/2+z
1/2+x,1/2-y,1/2-z
1/2-x,y,1/2-z
1/2-x,1/2-y,1/2-z
1/2+x,y,1/2-z
1/2-x,1/2+y,1/2+z
1/2+x,-y,1/2+z
loop_
_atom_site_type_symbol
_atom_site_label
_atom_site_fract_x
_atom_site_fract_y
_atom_site_fract_z
Si Si1 0.716309 0.897453 0.873143
Si Si2 0.702234 0.089593 0.010235
Si Si3 0.500000 0.335664 0.554356
Si Si4 0.212863 0.750000 0.689606
Si Si5 0.789532 0.461228 0.694448
Si Si6 0.000000 0.162973 0.823806
O O1 0.500000 0.897417 0.872730
O O2 0.768850 0.893898 0.932355
O O3 0.776989 0.825897 0.839445
O O4 0.767911 0.977316 0.847679
O O5 0.500000 0.117738 0.006207
O O6 0.827479 0.125054 0.968262
O O7 0.700566 0.000000 0.000000
O O8 0.500000 0.250000 0.535711
O O9 0.500000 0.336290 0.615003
O O10 0.250000 0.750000 0.750000
O O11 0.000000 0.750000 0.684354
O O12 0.750000 0.496478 0.750000
O O13 0.671943 0.385639 0.692133
O O14 0.000000 0.446558 0.689365
O O15 0.000000 0.250000 0.805328
#
# Coordination Sequence:
#
# PCOD9538510 Si02
#       6
#    16  16   8   8  16   8
#     4   9  20  36  62  91 128 168 214 257 318 377
#     4  10  21  40  65  92 123 168 213 264 318 381
#     4  11  25  41  61  93 130 162 212 265 321 382
#     4  10  20  38  56  86 130 170 210 266 306 365
#     4  11  22  42  66  94 125 169 210 261 322 388
#     4  11  26  45  65  94 128 165 210 271 329 382
#
# _framework density 20.666222000000001
#
# number of rings (size 3 to 8) (size 9 to 14) (size 15 to 20)
#    0.000    1.778    1.111    2.333    1.556    4.889 
#    4.000    2.222    0.000    0.000    0.000    0.000 
#    0.000    0.000    0.000    0.000    0.000    0.000 
#
# Total GULP energy -201196.740762 kJ/mol
# GULP energy per Si atom -5588.798354 kJ/mol
# Density = 2.061918 g / cm^3
# Si number density = 20.666222 Si / 1000 Ang^3
#
#
#
# Elastic Constant Matrix: (Units=GPa)
#
#
# Indices 1 2 3 4 5 6 
#
# 1 93.2031 27.2116 2.6746 0.0000 0.0000 0.0000
# 2 27.2116 81.9721 1.0186 0.0000 0.0000 0.0000
# 3 2.6746 1.0186 74.1094 0.0000 0.0000 0.0000
# 4 0.0000 0.0000 0.0000 38.0309 0.0000 0.0000
# 5 0.0000 0.0000 0.0000 0.0000 23.9466 0.0000
# 6 0.0000 0.0000 0.0000 0.0000 0.0000 27.0099
#
#
#
# Elastic Compliance Matrix: (Units=1/GPa)
#
#
# Indices 1 2 3 4 5 6 
#
# 1 0.011891 -0.003943 -0.000375 0.000000 0.000000 0.000000
# 2 -0.003943 0.013509 -0.000043 0.000000 0.000000 0.000000
# 3 -0.000375 -0.000043 0.013508 0.000000 0.000000 0.000000
# 4 0.000000 0.000000 0.000000 0.026294 0.000000 0.000000
# 5 0.000000 0.000000 0.000000 0.000000 0.041760 0.000000
# 6 0.000000 0.000000 0.000000 0.000000 0.000000 0.037023
#
#
# Mechanical properties :
#
#
# Convention : Reuss Voigt Hill
#
# Bulk Modulus (GPa) = 33.12868 34.56602 33.84735
# Shear Modulus (GPa) = 30.71843 32.35616 31.53729
#
# Velocity S-wave (km/s) = 3.85958 3.96113 3.91068
# Velocity P-wave (km/s) = 5.99391 6.13864 6.06670
#
# Compressibility (1/GPa) = 0.03018533
#
# Stress axis : x y z
#
# Youngs Moduli (GPa) = 84.09624 74.02661 74.03192
#
# Poissons Ratio (x) = 0.29187 0.02776
# Poissons Ratio (y) = 0.33157 0.00321
# Poissons Ratio (z) = 0.03153 0.00321
#
# Static dielectric constant tensor:
#      x y z
#    x 1.681890 0.000000 0.000000 
#    y 0.000000 1.775040 0.000000 
#    z 0.000000 0.000000 1.715070 
# 
# From -- ./inp_files/60624.got.cif
#   From: 2010.05.17/outbox.cif.g08.bks.cpg/sg74_31_cif.got.tgz:60624.got - 2010.06.03 17:57:02.
