data_PCOD9538089
_publ_section_title
;
Structure prediction by ZEFSAII (Michael W. Deem and Ramdas Pophale) SiO2 
 PCOD9538089
Probable space group: I M M A
;
_chemical_formula_sum "Si O2"
_cell_formula_units_Z 68
_cell_length_a 27.915599
_cell_length_b 7.655892
_cell_length_c 15.576389
_cell_angle_alpha 90.000000
_cell_angle_beta 90.000000
_cell_angle_gamma 90.000000
_cell_volume 3328.967338
_symmetry_space_group_name_H-M "I M M A"
_symmetry_group_IT_number 74
_symmetry_cell_setting 'orthorhombic'
loop_
_space_group_symop_operation_xyz
x,y,z
-x,1/2-y,z
x,-y,-z
-x,1/2+y,-z
-x,-y,-z
x,1/2+y,-z
-x,y,z
x,1/2-y,z
1/2+x,1/2+y,1/2+z
1/2-x,-y,1/2+z
1/2+x,1/2-y,1/2-z
1/2-x,y,1/2-z
1/2-x,1/2-y,1/2-z
1/2+x,y,1/2-z
1/2-x,1/2+y,1/2+z
1/2+x,-y,1/2+z
loop_
_atom_site_type_symbol
_atom_site_label
_atom_site_fract_x
_atom_site_fract_y
_atom_site_fract_z
Si Si1 0.837076 0.043985 0.093218
Si Si2 0.763525 0.546455 0.342377
Si Si3 0.000000 0.250000 0.785160
Si Si4 0.417369 0.546547 0.730838
Si Si5 0.866246 0.958996 0.402625
O O1 0.830261 0.250000 0.099058
O O2 0.872338 0.993768 0.170260
O O3 0.784473 0.963101 0.102189
O O4 0.858011 0.000000 0.000000
O O5 0.774390 0.750000 0.326951
O O6 0.750000 0.465779 0.250000
O O7 0.811720 0.475310 0.385214
O O8 0.958458 0.405246 0.783404
O O9 0.429900 0.750000 0.710434
O O10 0.399721 0.537705 0.829215
O O11 0.868293 0.750000 0.392846
O O12 0.880023 0.000000 0.500000
#
# Coordination Sequence:
#
# PCOD9538089 Si02
#       5
#    16  16   4  16  16
#     4  11  24  39  65  97 137 176 221 271 327 397
#     4  10  20  35  61  96 137 183 221 259 317 395
#     4  12  26  48  80  92 132 170 220 290 360 390
#     4  11  25  46  72 101 129 173 223 279 342 405
#     4  11  22  39  65  98 139 181 221 273 329 393
#
# _framework density 20.426755
#
# number of rings (size 3 to 8) (size 9 to 14) (size 15 to 20)
#    0.000    1.176    3.529    2.471    3.294    4.235 
#    0.000    1.176    0.000    0.000    0.000    0.000 
#    0.000    0.000    0.000    0.000    0.000    0.000 
#
# Total GULP energy -189399.077927 kJ/mol
# GULP energy per Si atom -5570.561116 kJ/mol
# Density = 2.038026 g / cm^3
# Si number density = 20.426755 Si / 1000 Ang^3
#
#
#
# Elastic Constant Matrix: (Units=GPa)
#
#
# Indices 1 2 3 4 5 6 
#
# 1 48.4193 21.0367 -28.2459 0.0000 0.0000 0.0000
# 2 21.0367 91.1210 -16.3747 0.0000 0.0000 0.0000
# 3 -28.2459 -16.3747 71.5475 0.0000 0.0000 0.0000
# 4 0.0000 0.0000 0.0000 20.5142 0.0000 0.0000
# 5 0.0000 0.0000 0.0000 0.0000 -5.4429 0.0000
# 6 0.0000 0.0000 0.0000 0.0000 0.0000 21.0451
#
#
#
# Elastic Compliance Matrix: (Units=1/GPa)
#
#
# Indices 1 2 3 4 5 6 
#
# 1 0.028704 -0.004787 0.010236 0.000000 0.000000 0.000000
# 2 -0.004787 0.012244 0.000912 0.000000 0.000000 0.000000
# 3 0.010236 0.000912 0.018227 0.000000 0.000000 0.000000
# 4 0.000000 0.000000 0.000000 0.048747 0.000000 0.000000
# 5 0.000000 0.000000 0.000000 0.000000 -0.183725 0.000000
# 6 0.000000 0.000000 0.000000 0.000000 0.000000 0.047517
#
#
# Mechanical properties :
#
#
# Convention : Reuss Voigt Hill
#
# Bulk Modulus (GPa) = 13.90878 18.21333 16.06105
# Shear Modulus (GPa) = -293.37037 22.86806 -135.25116
#
# Velocity S-wave (km/s) = -11.99718 3.34955 -8.14595
# Velocity P-wave (km/s) = 13.60463 4.88825 8.97750
#
# Compressibility (1/GPa) = 0.07189703
#
# Stress axis : x y z
#
# Youngs Moduli (GPa) = 34.83793 81.67555 54.86467
#
# Poissons Ratio (x) = 0.39101 -0.56162
# Poissons Ratio (y) = 0.16678 -0.05005
# Poissons Ratio (z) = -0.35661 -0.07450
#
# Static dielectric constant tensor:
#      x y z
#    x 1.708270 0.000000 0.000000 
#    y 0.000000 1.749630 0.000000 
#    z 0.000000 0.000000 1.750260 
# 
# From -- ./inp_files/36955.got.cif
#   From: 2010.05.17/outbox.cif.g08.bks.cpg/sg74_19_cif.got.tgz:36955.got - 2010.06.03 17:57:02.
