data_PCOD9538006
_publ_section_title
;
Structure prediction by ZEFSAII (Michael W. Deem and Ramdas Pophale) SiO2 
 PCOD9538006
Probable space group: I M M A
;
_chemical_formula_sum "Si O2"
_cell_formula_units_Z 56
_cell_length_a 19.278934
_cell_length_b 11.047317
_cell_length_c 11.739343
_cell_angle_alpha 90.000000
_cell_angle_beta 90.000000
_cell_angle_gamma 90.000000
_cell_volume 2500.251087
_symmetry_space_group_name_H-M "I M M A"
_symmetry_group_IT_number 74
_symmetry_cell_setting 'orthorhombic'
loop_
_space_group_symop_operation_xyz
x,y,z
-x,1/2-y,z
x,-y,-z
-x,1/2+y,-z
-x,-y,-z
x,1/2+y,-z
-x,y,z
x,1/2-y,z
1/2+x,1/2+y,1/2+z
1/2-x,-y,1/2+z
1/2+x,1/2-y,1/2-z
1/2-x,y,1/2-z
1/2-x,1/2-y,1/2-z
1/2+x,y,1/2-z
1/2-x,1/2+y,1/2+z
1/2+x,-y,1/2+z
loop_
_atom_site_type_symbol
_atom_site_label
_atom_site_fract_x
_atom_site_fract_y
_atom_site_fract_z
Si Si1 0.500000 0.116244 0.581656
Si Si2 0.149642 0.115269 0.811759
Si Si3 0.140068 0.117714 0.543543
Si Si4 0.774913 0.620813 0.880574
O O1 0.500000 0.250000 0.523402
O O2 0.431400 0.112621 0.658615
O O3 0.500000 0.000000 0.500000
O O4 0.177125 0.250000 0.840927
O O5 0.159265 0.101425 0.676104
O O6 0.182897 0.004019 0.879207
O O7 0.106370 0.250000 0.532874
O O8 0.208493 0.119968 0.463390
O O9 0.099428 0.000000 0.500000
O O10 0.813227 0.750000 0.902125
O O11 0.750000 0.626896 0.750000
#
# Coordination Sequence:
#
# PCOD9538006 Si02
#       4
#     8  16  16  16
#     4  10  24  48  71  92 120 164 219 271 316 378
#     4  10  22  41  65  91 123 164 215 264 314 377
#     4  10  20  35  57  87 126 166 203 251 310 371
#     4  10  20  35  58  91 132 168 203 253 313 376
#
# _framework density 22.397749999999998
#
# number of rings (size 3 to 8) (size 9 to 14) (size 15 to 20)
#    0.000    2.000    2.857    0.000    0.000    4.000 
#    0.000    6.429    0.000    0.000    0.000    0.000 
#    0.000    0.000    0.000    0.000    0.000    0.000 
#
# Total GULP energy -156355.959890 kJ/mol
# GULP energy per Si atom -5584.141425 kJ/mol
# Density = 2.234677 g / cm^3
# Si number density = 22.397750 Si / 1000 Ang^3
#
#
#
# Elastic Constant Matrix: (Units=GPa)
#
#
# Indices 1 2 3 4 5 6 
#
# 1 56.8998 27.3743 26.8546 0.0000 0.0000 0.0000
# 2 27.3743 253.9175 51.5142 0.0000 0.0000 0.0000
# 3 26.8546 51.5142 170.2889 0.0000 0.0000 0.0000
# 4 0.0000 0.0000 0.0000 4.4498 0.0000 0.0000
# 5 0.0000 0.0000 0.0000 0.0000 9.4898 0.0000
# 6 0.0000 0.0000 0.0000 0.0000 0.0000 22.0322
#
#
#
# Elastic Compliance Matrix: (Units=1/GPa)
#
#
# Indices 1 2 3 4 5 6 
#
# 1 0.019566 -0.001580 -0.002607 0.000000 0.000000 0.000000
# 2 -0.001580 0.004323 -0.001059 0.000000 0.000000 0.000000
# 3 -0.002607 -0.001059 0.006604 0.000000 0.000000 0.000000
# 4 0.000000 0.000000 0.000000 0.224730 0.000000 0.000000
# 5 0.000000 0.000000 0.000000 0.000000 0.105377 0.000000
# 6 0.000000 0.000000 0.000000 0.000000 0.000000 0.045388
#
#
# Mechanical properties :
#
#
# Convention : Reuss Voigt Hill
#
# Bulk Modulus (GPa) = 49.99991 76.95473 63.47732
# Shear Modulus (GPa) = 11.81622 32.21856 22.01739
#
# Velocity S-wave (km/s) = 2.29937 3.79684 3.13871
# Velocity P-wave (km/s) = 5.42416 7.32490 6.44498
#
# Compressibility (1/GPa) = 0.02000004
#
# Stress axis : x y z
#
# Youngs Moduli (GPa) = 51.10995 231.29729 151.42746
#
# Poissons Ratio (x) = 0.36553 0.39484
# Poissons Ratio (y) = 0.08077 0.16031
# Poissons Ratio (z) = 0.13327 0.24487
#
# Static dielectric constant tensor:
#      x y z
#    x 1.793290 0.000000 0.000000 
#    y 0.000000 1.997090 0.000000 
#    z 0.000000 0.000000 1.809430 
# 
# From -- ./inp_files/23141.got.cif
#   From: 2010.05.17/outbox.cif.g08.bks.cpg/sg74_12_cif.got.tgz:23141.got - 2010.06.03 17:57:02.
