data_PCOD9538838
_publ_section_title
;
Structure prediction by ZEFSAII (Michael W. Deem and Ramdas Pophale) SiO2 
 PCOD9538838
Probable space group: I M M A
;
_chemical_formula_sum "Si O2"
_cell_formula_units_Z 112
_cell_length_a 15.979268
_cell_length_b 14.418513
_cell_length_c 25.237955
_cell_angle_alpha 90.000000
_cell_angle_beta 90.000000
_cell_angle_gamma 90.000000
_cell_volume 5814.756270
_symmetry_space_group_name_H-M "I M M A"
_symmetry_group_IT_number 74
_symmetry_cell_setting 'orthorhombic'
loop_
_space_group_symop_operation_xyz
x,y,z
-x,1/2-y,z
x,-y,-z
-x,1/2+y,-z
-x,-y,-z
x,1/2+y,-z
-x,y,z
x,1/2-y,z
1/2+x,1/2+y,1/2+z
1/2-x,-y,1/2+z
1/2+x,1/2-y,1/2-z
1/2-x,y,1/2-z
1/2-x,1/2-y,1/2-z
1/2+x,y,1/2-z
1/2-x,1/2+y,1/2+z
1/2+x,-y,1/2+z
loop_
_atom_site_type_symbol
_atom_site_label
_atom_site_fract_x
_atom_site_fract_y
_atom_site_fract_z
Si Si1 0.594878 0.136889 0.505311
Si Si2 0.248875 0.638541 0.688265
Si Si3 0.908580 0.572415 0.452534
Si Si4 0.405184 0.862964 0.617131
Si Si5 0.236303 0.642302 0.083523
Si Si6 0.591939 0.480395 0.162373
Si Si7 0.802559 0.640875 0.303562
O O1 0.500000 0.108539 0.518801
O O2 0.596382 0.250000 0.506050
O O3 0.612264 0.111682 0.444140
O O4 0.663330 0.101343 0.546936
O O5 0.246143 0.750000 0.684904
O O6 0.250000 0.611957 0.750000
O O7 0.331392 0.606651 0.656380
O O8 0.164130 0.595235 0.666033
O O9 0.899351 0.500000 0.500000
O O10 0.825304 0.632798 0.446354
O O11 0.911620 0.515547 0.397885
O O12 0.000000 0.619870 0.458265
O O13 0.500000 0.893855 0.630693
O O14 0.406316 0.750000 0.619034
O O15 0.215608 0.750000 0.089305
O O16 0.250148 0.610024 0.144028
O O17 0.500000 0.446891 0.178425
O O18 0.619805 0.570752 0.196021
O O19 0.825579 0.750000 0.310524
O O20 0.750000 0.632847 0.250000
#
# Coordination Sequence:
#
# PCOD9538838 Si02
#       7
#    16  16  16  16  16  16  16
#     4   8  14  26  46  73 102 129 163 208 259 319
#     4  10  21  35  53  79 109 142 182 224 265 315
#     4   9  19  34  49  69  99 135 172 213 264 315
#     4   8  15  29  49  72  99 135 177 219 264 313
#     4   9  17  29  51  78  99 130 168 210 268 318
#     4  10  21  36  54  77 108 145 181 220 269 320
#     4   9  18  35  57  79 104 136 180 228 271 325
#
# _framework density 19.261341000000002
#
# number of rings (size 3 to 8) (size 9 to 14) (size 15 to 20)
#    0.000    3.000    0.000    1.286    2.000    1.429 
#    0.000    5.000    0.000    9.000    0.000    0.000 
#    0.000    0.000    0.000    0.000    0.000    0.000 
#
# Total GULP energy -312007.942956 kJ/mol
# GULP energy per Si atom -5571.570410 kJ/mol
# Density = 1.921750 g / cm^3
# Si number density = 19.261341 Si / 1000 Ang^3
#
#
#
# Elastic Constant Matrix: (Units=GPa)
#
#
# Indices 1 2 3 4 5 6 
#
# 1 154.1846 15.1865 71.6361 0.0000 0.0000 0.0000
# 2 15.1865 30.5520 5.9004 0.0000 0.0000 0.0000
# 3 71.6361 5.9004 78.6718 0.0000 0.0000 0.0000
# 4 0.0000 0.0000 0.0000 3.2708 0.0000 0.0000
# 5 0.0000 0.0000 0.0000 0.0000 1.0533 0.0000
# 6 0.0000 0.0000 0.0000 0.0000 0.0000 28.1913
#
#
#
# Elastic Compliance Matrix: (Units=1/GPa)
#
#
# Indices 1 2 3 4 5 6 
#
# 1 0.011661 -0.003801 -0.010333 0.000000 0.000000 0.000000
# 2 -0.003801 0.034451 0.000877 0.000000 0.000000 0.000000
# 3 -0.010333 0.000877 0.022054 0.000000 0.000000 0.000000
# 4 0.000000 0.000000 0.000000 0.305738 0.000000 0.000000
# 5 0.000000 0.000000 0.000000 0.000000 0.949433 0.000000
# 6 0.000000 0.000000 0.000000 0.000000 0.000000 0.035472
#
#
# Mechanical properties :
#
#
# Convention : Reuss Voigt Hill
#
# Bulk Modulus (GPa) = 24.00813 49.87272 36.94042
# Shear Modulus (GPa) = 3.57345 17.88209 10.72777
#
# Velocity S-wave (km/s) = 1.36355 3.05026 2.36256
# Velocity P-wave (km/s) = 3.86917 6.19309 5.16356
#
# Compressibility (1/GPa) = 0.04165256
#
# Stress axis : x y z
#
# Youngs Moduli (GPa) = 85.75628 29.02677 45.34278
#
# Poissons Ratio (x) = 0.11032 0.46853
# Poissons Ratio (y) = 0.32594 -0.03977
# Poissons Ratio (z) = 0.88612 -0.02546
#
# Static dielectric constant tensor:
#      x y z
#    x 1.702640 0.000000 0.000000 
#    y 0.000000 1.689110 0.000000 
#    z 0.000000 0.000000 1.652330 
# 
# From -- ./inp_files/60175.got.cif
#   From: 2010.05.17/outbox.cif.g08.bks.cpg/sg74_31_cif.got.tgz:60175.got - 2010.06.03 17:57:02.
