data_PCOD9538132
_publ_section_title
;
Structure prediction by ZEFSAII (Michael W. Deem and Ramdas Pophale) SiO2 
 PCOD9538132
Probable space group: I M M A
;
_chemical_formula_sum "Si O2"
_cell_formula_units_Z 116
_cell_length_a 9.145259
_cell_length_b 22.715644
_cell_length_c 29.833225
_cell_angle_alpha 90.000000
_cell_angle_beta 90.000000
_cell_angle_gamma 90.000000
_cell_volume 6197.567519
_symmetry_space_group_name_H-M "I M M A"
_symmetry_group_IT_number 74
_symmetry_cell_setting 'orthorhombic'
loop_
_space_group_symop_operation_xyz
x,y,z
-x,1/2-y,z
x,-y,-z
-x,1/2+y,-z
-x,-y,-z
x,1/2+y,-z
-x,y,z
x,1/2-y,z
1/2+x,1/2+y,1/2+z
1/2-x,-y,1/2+z
1/2+x,1/2-y,1/2-z
1/2-x,y,1/2-z
1/2-x,1/2-y,1/2-z
1/2+x,y,1/2-z
1/2-x,1/2+y,1/2+z
1/2+x,-y,1/2+z
loop_
_atom_site_type_symbol
_atom_site_label
_atom_site_fract_x
_atom_site_fract_y
_atom_site_fract_z
Si Si1 0.828759 0.024515 0.449327
Si Si2 0.322056 0.082906 0.203539
Si Si3 0.164376 0.681418 0.443487
Si Si4 0.172527 0.421577 0.894614
Si Si5 0.000000 0.750000 0.962448
Si Si6 0.825430 0.544148 0.204665
Si Si7 0.260912 0.844496 0.956987
Si Si8 0.833245 0.313258 0.358736
O O1 0.741398 0.085810 0.449202
O O2 0.000000 0.036176 0.437719
O O3 0.825261 0.000000 0.500000
O O4 0.761161 0.975769 0.416574
O O5 0.500000 0.078256 0.205842
O O6 0.250000 0.104135 0.250000
O O7 0.273911 0.129018 0.165486
O O8 0.251821 0.018891 0.196169
O O9 0.207511 0.750000 0.440766
O O10 0.272309 0.637790 0.418106
O O11 0.159433 0.662937 0.495602
O O12 0.000000 0.674909 0.425101
O O13 0.195817 0.419866 0.841072
O O14 0.000000 0.430336 0.902729
O O15 0.124184 0.801961 0.961843
O O16 0.750000 0.567985 0.250000
O O17 0.000000 0.536442 0.211861
O O18 0.336633 0.822311 0.911782
O O19 0.759867 0.250000 0.349130
O O20 0.000000 0.309761 0.342521
#
# Coordination Sequence:
#
# PCOD9538132 Si02
#       8
#    16  16  16  16   4  16  16  16
#     4  11  23  39  62  90 122 164 211 257 303 363
#     4  10  20  36  58  84 110 148 190 244 306 363
#     4  11  23  40  64  88 120 165 212 249 290 358
#     4  11  25  40  61  95 131 161 198 251 318 368
#     4  12  28  40  56  88 122 168 216 256 322 364
#     4  10  21  39  61  89 116 151 191 240 300 364
#     4  12  23  40  58  84 120 162 211 254 304 359
#     4  10  20  36  56  77 107 150 203 250 296 351
#
# _framework density 18.717019000000001
#
# number of rings (size 3 to 8) (size 9 to 14) (size 15 to 20)
#    0.000    1.241    2.759    4.138    1.931    5.241 
#    2.483    0.000    0.000    0.414    0.000    0.000 
#    0.000    0.000    0.000    0.000    0.000    0.000 
#
# Total GULP energy -323038.695262 kJ/mol
# GULP energy per Si atom -5569.632677 kJ/mol
# Density = 1.867442 g / cm^3
# Si number density = 18.717019 Si / 1000 Ang^3
#
#
#
# Elastic Constant Matrix: (Units=GPa)
#
#
# Indices 1 2 3 4 5 6 
#
# 1 86.5854 30.0858 42.6082 0.0000 0.0000 0.0000
# 2 30.0858 94.5473 33.8161 0.0000 0.0000 0.0000
# 3 42.6082 33.8161 104.9169 0.0000 0.0000 0.0000
# 4 0.0000 0.0000 0.0000 17.3121 0.0000 0.0000
# 5 0.0000 0.0000 0.0000 0.0000 37.8424 0.0000
# 6 0.0000 0.0000 0.0000 0.0000 0.0000 44.6161
#
#
#
# Elastic Compliance Matrix: (Units=1/GPa)
#
#
# Indices 1 2 3 4 5 6 
#
# 1 0.015132 -0.002958 -0.005192 0.000000 0.000000 0.000000
# 2 -0.002958 0.012533 -0.002838 0.000000 0.000000 0.000000
# 3 -0.005192 -0.002838 0.012555 0.000000 0.000000 0.000000
# 4 0.000000 0.000000 0.000000 0.057763 0.000000 0.000000
# 5 0.000000 0.000000 0.000000 0.000000 0.026425 0.000000
# 6 0.000000 0.000000 0.000000 0.000000 0.000000 0.022413
#
#
# Mechanical properties :
#
#
# Convention : Reuss Voigt Hill
#
# Bulk Modulus (GPa) = 54.81479 55.45219 55.13349
# Shear Modulus (GPa) = 28.59112 31.92343 30.25727
#
# Velocity S-wave (km/s) = 3.91262 4.13435 4.02501
# Velocity P-wave (km/s) = 7.05416 7.24441 7.14991
#
# Compressibility (1/GPa) = 0.01824325
#
# Stress axis : x y z
#
# Youngs Moduli (GPa) = 66.08480 79.78825 79.65174
#
# Poissons Ratio (x) = 0.23603 0.41354
# Poissons Ratio (y) = 0.19549 0.22607
# Poissons Ratio (z) = 0.34310 0.22646
#
# Static dielectric constant tensor:
#      x y z
#    x 1.672250 0.000000 0.000000 
#    y 0.000000 1.652270 0.000000 
#    z 0.000000 0.000000 1.661850 
# 
# From -- ./inp_files/64870.got.cif
#   From: 2010.05.17/outbox.cif.g08.bks.cpg/sg74_33_cif.got.tgz:64870.got - 2010.06.03 17:57:02.
