data_PCOD9538108
_publ_section_title
;
Structure prediction by ZEFSAII (Michael W. Deem and Ramdas Pophale) SiO2 
 PCOD9538108
Probable space group: I M M A
;
_chemical_formula_sum "Si O2"
_cell_formula_units_Z 112
_cell_length_a 18.312352
_cell_length_b 29.519207
_cell_length_c 12.139559
_cell_angle_alpha 90.000000
_cell_angle_beta 90.000000
_cell_angle_gamma 90.000000
_cell_volume 6562.234178
_symmetry_space_group_name_H-M "I M M A"
_symmetry_group_IT_number 74
_symmetry_cell_setting 'orthorhombic'
loop_
_space_group_symop_operation_xyz
x,y,z
-x,1/2-y,z
x,-y,-z
-x,1/2+y,-z
-x,-y,-z
x,1/2+y,-z
-x,y,z
x,1/2-y,z
1/2+x,1/2+y,1/2+z
1/2-x,-y,1/2+z
1/2+x,1/2-y,1/2-z
1/2-x,y,1/2-z
1/2-x,1/2-y,1/2-z
1/2+x,y,1/2-z
1/2-x,1/2+y,1/2+z
1/2+x,-y,1/2+z
loop_
_atom_site_type_symbol
_atom_site_label
_atom_site_fract_x
_atom_site_fract_y
_atom_site_fract_z
Si Si1 0.834214 0.126029 0.213804
Si Si2 0.584810 0.560641 0.400717
Si Si3 0.080645 0.303879 0.787683
Si Si4 0.683793 0.803491 0.090901
Si Si5 0.584139 0.962371 0.662210
Si Si6 0.586836 0.197709 0.128873
Si Si7 0.834821 0.852179 0.044275
O O1 0.750000 0.127165 0.250000
O O2 0.866434 0.075075 0.220875
O O3 0.879857 0.161310 0.287274
O O4 0.840121 0.140240 0.085944
O O5 0.500000 0.572588 0.374590
O O6 0.604838 0.515391 0.333189
O O7 0.584949 0.548545 0.531161
O O8 0.640838 0.601904 0.393081
O O9 0.077707 0.250000 0.775775
O O10 0.140555 0.319003 0.699253
O O11 0.000000 0.322197 0.764473
O O12 0.106834 0.316517 0.909094
O O13 0.704203 0.750000 0.102827
O O14 0.629310 0.806782 0.986950
O O15 0.755213 0.833209 0.071568
O O16 0.500000 0.957713 0.698853
O O17 0.500000 0.191271 0.114690
O O18 0.598507 0.250000 0.166630
#
# Coordination Sequence:
#
# PCOD9538108 Si02
#       7
#    16  16  16  16  16  16  16
#     4  11  21  34  50  80 115 145 179 219 269 322
#     4   8  15  29  50  77 104 132 169 215 267 317
#     4  10  21  36  54  76 101 134 179 229 276 323
#     4  10  20  36  54  74 104 142 184 228 272 322
#     4   8  15  30  52  73  99 136 175 215 258 310
#     4  10  21  36  54  75 104 149 196 228 260 317
#     4  11  20  32  53  79 110 140 171 221 283 327
#
# _framework density 17.067359
#
# number of rings (size 3 to 8) (size 9 to 14) (size 15 to 20)
#    0.000    2.286    1.429    3.000    0.000    6.000 
#    0.000    2.857    0.000    0.000    0.000    0.000 
#    0.000    5.714    0.000    0.000    0.000    0.000 
#
# Total GULP energy -312070.642755 kJ/mol
# GULP energy per Si atom -5572.690049 kJ/mol
# Density = 1.702851 g / cm^3
# Si number density = 17.067359 Si / 1000 Ang^3
#
#
#
# Elastic Constant Matrix: (Units=GPa)
#
#
# Indices 1 2 3 4 5 6 
#
# 1 102.4410 63.4334 23.2120 0.0000 0.0000 0.0000
# 2 63.4334 91.5240 32.8511 0.0000 0.0000 0.0000
# 3 23.2120 32.8511 54.0242 -0.0001 -0.0003 0.0004
# 4 0.0000 0.0000 -0.0001 12.6273 -0.0001 0.0000
# 5 0.0000 0.0000 -0.0003 -0.0001 1.8381 0.0000
# 6 0.0000 0.0000 0.0004 0.0000 0.0000 63.2614
#
#
#
# Elastic Compliance Matrix: (Units=1/GPa)
#
#
# Indices 1 2 3 4 5 6 
#
# 1 0.017102 -0.011789 -0.000180 0.000000 -0.000001 0.000000
# 2 -0.011789 0.022103 -0.008375 0.000000 -0.000001 0.000000
# 3 -0.000180 -0.008375 0.023680 0.000000 0.000004 0.000000
# 4 0.000000 0.000000 0.000000 0.079193 0.000006 0.000000
# 5 -0.000001 -0.000001 0.000004 0.000006 0.544050 0.000000
# 6 0.000000 0.000000 0.000000 0.000000 0.000000 0.015807
#
#
# Mechanical properties :
#
#
# Convention : Reuss Voigt Hill
#
# Bulk Modulus (GPa) = 45.04879 54.10914 49.57896
# Shear Modulus (GPa) = 6.66647 24.11155 15.38901
#
# Velocity S-wave (km/s) = 1.97850 3.76271 3.00603
# Velocity P-wave (km/s) = 5.62772 7.11684 6.41563
#
# Compressibility (1/GPa) = 0.02219816
#
# Stress axis : x y z
#
# Youngs Moduli (GPa) = 58.47197 45.24322 42.22947
#
# Poissons Ratio (x) = 0.53336 0.00758
# Poissons Ratio (y) = 0.68931 0.35368
# Poissons Ratio (z) = 0.01050 0.37892
#
# Static dielectric constant tensor:
#      x y z
#    x 1.574720 0.000000 0.000000 
#    y 0.000000 1.606890 0.000000 
#    z 0.000000 0.000000 1.558080 
# 
# From -- ./inp_files/21130.got.cif
#   From: 2010.05.17/outbox.cif.g08.bks.cpg/sg74_11_cif.got.tgz:21130.got - 2010.06.03 17:57:02.
