data_PCOD9538196
_publ_section_title
;
Structure prediction by ZEFSAII (Michael W. Deem and Ramdas Pophale) SiO2 
 PCOD9538196
Probable space group: I M M A
;
_chemical_formula_sum "Si O2"
_cell_formula_units_Z 88
_cell_length_a 22.501005
_cell_length_b 8.795992
_cell_length_c 25.159943
_cell_angle_alpha 90.000000
_cell_angle_beta 90.000000
_cell_angle_gamma 90.000000
_cell_volume 4979.622204
_symmetry_space_group_name_H-M "I M M A"
_symmetry_group_IT_number 74
_symmetry_cell_setting 'orthorhombic'
loop_
_space_group_symop_operation_xyz
x,y,z
-x,1/2-y,z
x,-y,-z
-x,1/2+y,-z
-x,-y,-z
x,1/2+y,-z
-x,y,z
x,1/2-y,z
1/2+x,1/2+y,1/2+z
1/2-x,-y,1/2+z
1/2+x,1/2-y,1/2-z
1/2-x,y,1/2-z
1/2-x,1/2-y,1/2-z
1/2+x,y,1/2-z
1/2-x,1/2+y,1/2+z
1/2+x,-y,1/2+z
loop_
_atom_site_type_symbol
_atom_site_label
_atom_site_fract_x
_atom_site_fract_y
_atom_site_fract_z
Si Si1 0.500000 0.932539 0.440697
Si Si2 0.889722 0.431040 0.125072
Si Si3 0.071277 0.070450 0.766172
Si Si4 0.430006 0.068570 0.152382
Si Si5 0.146541 0.568995 0.442523
Si Si6 0.786831 0.068663 0.942368
O O1 0.500000 0.750000 0.442387
O O2 0.500000 0.000000 0.500000
O O3 0.442308 0.991411 0.409081
O O4 0.894539 0.250000 0.120511
O O5 0.897858 0.483018 0.185740
O O6 0.828005 0.489968 0.101056
O O7 0.083484 0.250000 0.769699
O O8 0.000000 0.048906 0.772119
O O9 0.087810 0.007177 0.708314
O O10 0.500000 0.034292 0.143937
O O11 0.423540 0.250000 0.156164
O O12 0.391854 0.004481 0.104005
O O13 0.130965 0.500000 0.500000
O O14 0.137649 0.750000 0.443531
O O15 0.216821 0.539743 0.433572
O O16 0.796629 0.250000 0.942672
O O17 0.802524 0.000000 0.000000
#
# Coordination Sequence:
#
# PCOD9538196 Si02
#       6
#     8  16  16  16  16  16
#     4  12  24  38  54  78 112 148 189 240 289 332
#     4  12  23  36  56  82 112 148 190 235 283 336
#     4  10  20  36  58  82 112 150 189 232 282 336
#     4  10  21  37  59  87 118 149 184 229 280 337
#     4  10  21  38  61  86 114 149 187 230 280 337
#     4  10  21  38  58  81 111 148 190 233 282 339
#
# _framework density 17.672025000000001
#
# number of rings (size 3 to 8) (size 9 to 14) (size 15 to 20)
#    0.000    1.455    0.909    5.182    0.000    4.364 
#    0.000    0.909    0.000    5.455    0.000    0.000 
#    0.000    0.000    0.000    0.000    0.000    0.000 
#
# Total GULP energy -245965.336803 kJ/mol
# GULP energy per Si atom -5590.121291 kJ/mol
# Density = 1.763180 g / cm^3
# Si number density = 17.672025 Si / 1000 Ang^3
#
#
#
# Elastic Constant Matrix: (Units=GPa)
#
#
# Indices 1 2 3 4 5 6 
#
# 1 54.6793 58.7131 73.1039 0.0000 0.0000 0.0000
# 2 58.7131 127.5447 86.1469 0.0000 0.0000 0.0000
# 3 73.1039 86.1469 167.6326 0.0000 0.0000 0.0000
# 4 0.0000 0.0000 0.0000 40.0521 0.0000 0.0000
# 5 0.0000 0.0000 0.0000 0.0000 7.2337 0.0000
# 6 0.0000 0.0000 0.0000 0.0000 0.0000 28.3746
#
#
#
# Elastic Compliance Matrix: (Units=1/GPa)
#
#
# Indices 1 2 3 4 5 6 
#
# 1 0.057373 -0.014568 -0.017533 0.000000 0.000000 0.000000
# 2 -0.014568 0.015708 -0.001719 0.000000 0.000000 0.000000
# 3 -0.017533 -0.001719 0.014495 0.000000 0.000000 0.000000
# 4 0.000000 0.000000 0.000000 0.024967 0.000000 0.000000
# 5 0.000000 0.000000 0.000000 0.000000 0.138243 0.000000
# 6 0.000000 0.000000 0.000000 0.000000 0.000000 0.035243
#
#
# Mechanical properties :
#
#
# Convention : Reuss Voigt Hill
#
# Bulk Modulus (GPa) = 50.16490 87.30938 68.73714
# Shear Modulus (GPa) = 13.87676 23.92491 18.90084
#
# Velocity S-wave (km/s) = 2.80525 3.68343 3.27392
# Velocity P-wave (km/s) = 6.24026 8.22210 7.29876
#
# Compressibility (1/GPa) = 0.01993426
#
# Stress axis : x y z
#
# Youngs Moduli (GPa) = 17.42989 63.66289 68.98851
#
# Poissons Ratio (x) = 0.92745 1.20960
# Poissons Ratio (y) = 0.25392 0.11860
# Poissons Ratio (z) = 0.30561 0.10945
#
# Static dielectric constant tensor:
#      x y z
#    x 1.587310 0.000000 0.000000 
#    y 0.000000 1.586450 0.000000 
#    z 0.000000 0.000000 1.570650 
# 
# From -- ./inp_files/54495.got.cif
#   From: 2010.05.17/outbox.cif.g08.bks.cpg/sg74_28_cif.got.tgz:54495.got - 2010.06.03 17:57:02.
