data_PCOD9538918
_publ_section_title
;
Structure prediction by ZEFSAII (Michael W. Deem and Ramdas Pophale) SiO2 
 PCOD9538918
Probable space group: I M M A
;
_chemical_formula_sum "Si O2"
_cell_formula_units_Z 80
_cell_length_a 8.788879
_cell_length_b 19.224079
_cell_length_c 27.571140
_cell_angle_alpha 90.000000
_cell_angle_beta 90.000000
_cell_angle_gamma 90.000000
_cell_volume 4658.367546
_symmetry_space_group_name_H-M "I M M A"
_symmetry_group_IT_number 74
_symmetry_cell_setting 'orthorhombic'
loop_
_space_group_symop_operation_xyz
x,y,z
-x,1/2-y,z
x,-y,-z
-x,1/2+y,-z
-x,-y,-z
x,1/2+y,-z
-x,y,z
x,1/2-y,z
1/2+x,1/2+y,1/2+z
1/2-x,-y,1/2+z
1/2+x,1/2-y,1/2-z
1/2-x,y,1/2-z
1/2-x,1/2-y,1/2-z
1/2+x,y,1/2-z
1/2-x,1/2+y,1/2+z
1/2+x,-y,1/2+z
loop_
_atom_site_type_symbol
_atom_site_label
_atom_site_fract_x
_atom_site_fract_y
_atom_site_fract_z
Si Si1 0.183676 0.467424 0.854582
Si Si2 0.316536 0.827315 0.303727
Si Si3 0.182076 0.607325 0.801613
Si Si4 0.183888 0.829082 0.904477
Si Si5 0.182282 0.035603 0.449640
O O1 0.232563 0.391771 0.836543
O O2 0.222490 0.527534 0.815479
O O3 0.257862 0.489751 0.904881
O O4 0.000000 0.468763 0.859988
O O5 0.500000 0.829843 0.300626
O O6 0.273329 0.750000 0.321530
O O7 0.250000 0.835529 0.250000
O O8 0.250000 0.627797 0.750000
O O9 0.229340 0.651622 0.848978
O O10 0.000000 0.612086 0.798185
O O11 0.227839 0.750000 0.915817
O O12 0.252087 0.887419 0.939689
O O13 0.000000 0.834290 0.906310
O O14 0.000000 0.038950 0.448645
O O15 0.230394 0.000000 0.500000
#
# Coordination Sequence:
#
# PCOD9538918 Si02
#       5
#    16  16  16  16  16
#     4   9  18  32  49  69  96 130 167 206 244 289
#     4   9  17  29  46  70 100 132 165 202 245 292
#     4   9  17  28  44  69  99 130 163 197 233 277
#     4   9  19  36  55  75 101 132 165 200 238 285
#     4  10  21  36  54  76  99 124 159 205 253 296
#
# _framework density 17.173397999999999
#
# number of rings (size 3 to 8) (size 9 to 14) (size 15 to 20)
#    0.000    2.800    0.000    2.400    0.000    6.400 
#    0.000    1.000    0.000    3.600    0.000    0.000 
#    0.000    0.000    0.000    0.000    0.000    0.000 
#
# Total GULP energy -222962.487501 kJ/mol
# GULP energy per Si atom -5574.062188 kJ/mol
# Density = 1.713431 g / cm^3
# Si number density = 17.173398 Si / 1000 Ang^3
#
#
#
# Elastic Constant Matrix: (Units=GPa)
#
#
# Indices 1 2 3 4 5 6 
#
# 1 10.1885 31.0667 23.1777 0.0000 0.0000 0.0000
# 2 31.0667 163.3008 65.5784 0.0000 0.0000 0.0000
# 3 23.1777 65.5784 96.0944 0.0000 0.0000 0.0000
# 4 0.0000 0.0000 0.0000 12.2016 0.0000 0.0000
# 5 0.0000 0.0000 0.0000 0.0000 29.7194 0.0000
# 6 0.0000 0.0000 0.0000 0.0000 0.0000 15.0326
#
#
#
# Elastic Compliance Matrix: (Units=1/GPa)
#
#
# Indices 1 2 3 4 5 6 
#
# 1 0.379298 -0.048791 -0.058189 0.000000 0.000000 0.000000
# 2 -0.048791 0.014712 0.001728 0.000000 0.000000 0.000000
# 3 -0.058189 0.001728 0.023262 0.000000 0.000000 0.000000
# 4 0.000000 0.000000 0.000000 0.081957 0.000000 0.000000
# 5 0.000000 0.000000 0.000000 0.000000 0.033648 0.000000
# 6 0.000000 0.000000 0.000000 0.000000 0.000000 0.066522
#
#
# Mechanical properties :
#
#
# Convention : Reuss Voigt Hill
#
# Bulk Modulus (GPa) = 4.83633 56.58103 30.70868
# Shear Modulus (GPa) = 5.68943 21.37477 13.53210
#
# Velocity S-wave (km/s) = 1.82212 3.53178 2.81012
# Velocity P-wave (km/s) = 2.69242 7.04626 5.33380
#
# Compressibility (1/GPa) = 0.20676843
#
# Stress axis : x y z
#
# Youngs Moduli (GPa) = 2.63645 67.97363 42.98870
#
# Poissons Ratio (x) = 3.31648 2.50147
# Poissons Ratio (y) = 0.12863 -0.07430
# Poissons Ratio (z) = 0.15341 -0.11749
#
# Static dielectric constant tensor:
#      x y z
#    x 1.577310 0.000000 0.000000 
#    y 0.000000 1.603750 0.000000 
#    z 0.000000 0.000000 1.551810 
# 
# From -- ./inp_files/63914.got.cif
#   From: 2010.05.17/outbox.cif.g08.bks.cpg/sg74_32_cif.got.tgz:63914.got - 2010.06.03 17:57:02.
