data_PCOD9538310
_publ_section_title
;
Structure prediction by ZEFSAII (Michael W. Deem and Ramdas Pophale) SiO2 
 PCOD9538310
Probable space group: I M M A
;
_chemical_formula_sum "Si O2"
_cell_formula_units_Z 96
_cell_length_a 14.118554
_cell_length_b 20.150269
_cell_length_c 15.001283
_cell_angle_alpha 90.000000
_cell_angle_beta 90.000000
_cell_angle_gamma 90.000000
_cell_volume 4267.754919
_symmetry_space_group_name_H-M "I M M A"
_symmetry_group_IT_number 74
_symmetry_cell_setting 'orthorhombic'
loop_
_space_group_symop_operation_xyz
x,y,z
-x,1/2-y,z
x,-y,-z
-x,1/2+y,-z
-x,-y,-z
x,1/2+y,-z
-x,y,z
x,1/2-y,z
1/2+x,1/2+y,1/2+z
1/2-x,-y,1/2+z
1/2+x,1/2-y,1/2-z
1/2-x,y,1/2-z
1/2-x,1/2-y,1/2-z
1/2+x,y,1/2-z
1/2-x,1/2+y,1/2+z
1/2+x,-y,1/2+z
loop_
_atom_site_type_symbol
_atom_site_label
_atom_site_fract_x
_atom_site_fract_y
_atom_site_fract_z
Si Si1 0.890007 0.098507 0.191532
Si Si2 0.328109 0.951356 0.326436
Si Si3 0.614817 0.171383 0.128849
Si Si4 0.892377 0.823673 0.978945
Si Si5 0.711058 0.632132 0.053462
Si Si6 0.637590 0.676013 0.234308
O O1 0.853178 0.129219 0.284185
O O2 0.854390 0.131179 0.100823
O O3 0.000000 0.117687 0.192216
O O4 0.882013 0.020121 0.176812
O O5 0.250000 0.959007 0.250000
O O6 0.264449 0.935090 0.413706
O O7 0.389471 0.887130 0.295248
O O8 0.500000 0.168856 0.123654
O O9 0.641409 0.250000 0.135073
O O10 0.657646 0.139147 0.039564
O O11 0.900819 0.750000 0.942260
O O12 0.000000 0.843432 0.008075
O O13 0.806690 0.823077 0.048909
O O14 0.637481 0.655068 0.130196
O O15 0.599028 0.750000 0.249848
O O16 0.750000 0.680839 0.250000
#
# Coordination Sequence:
#
# PCOD9538310 Si02
#       6
#    16  16  16  16  16  16
#     4  10  22  40  58  82 123 167 206 251 306 372
#     4   9  21  38  56  83 115 160 203 245 299 373
#     4  10  21  38  63  94 126 163 210 262 314 370
#     4  10  21  36  57  88 121 156 201 252 307 367
#     4  10  20  36  60  89 119 151 199 256 313 365
#     4   8  15  32  56  79 108 149 198 247 299 352
#
# _framework density 22.494264000000001
#
# number of rings (size 3 to 8) (size 9 to 14) (size 15 to 20)
#    0.000    2.833    0.000    2.000    2.333    4.667 
#    3.000    6.667    0.000   13.500    0.000   28.000 
#    0.000    0.000    0.000    0.000    0.000    0.000 
#
# Total GULP energy -267255.627200 kJ/mol
# GULP energy per Si atom -5567.825567 kJ/mol
# Density = 2.244307 g / cm^3
# Si number density = 22.494264 Si / 1000 Ang^3
#
#
#
# Elastic Constant Matrix: (Units=GPa)
#
#
# Indices 1 2 3 4 5 6 
#
# 1 69.0356 7.4029 20.5923 0.0000 0.0000 0.0000
# 2 7.4029 100.9826 74.3384 0.0001 0.0001 0.0000
# 3 20.5923 74.3384 103.6601 -0.0002 0.0001 0.0001
# 4 0.0000 0.0001 -0.0002 21.1922 0.0000 0.0000
# 5 0.0000 0.0001 0.0001 0.0000 -2.5644 0.0000
# 6 0.0000 0.0000 0.0001 0.0000 0.0000 26.1722
#
#
#
# Elastic Compliance Matrix: (Units=1/GPa)
#
#
# Indices 1 2 3 4 5 6 
#
# 1 0.015672 0.002421 -0.004850 0.000000 0.000000 0.000000
# 2 0.002421 0.021351 -0.015792 0.000000 0.000000 0.000000
# 3 -0.004850 -0.015792 0.021936 0.000000 0.000000 0.000000
# 4 0.000000 0.000000 0.000000 0.047187 0.000000 0.000000
# 5 0.000000 0.000000 0.000000 0.000000 -0.389960 0.000000
# 6 0.000000 0.000000 0.000000 0.000000 0.000000 0.038209
#
#
# Mechanical properties :
#
#
# Convention : Reuss Voigt Hill
#
# Bulk Modulus (GPa) = 44.41111 53.14947 48.78029
# Shear Modulus (GPa) = -24.79432 20.38300 -2.20566
#
# Velocity S-wave (km/s) = -3.32362 3.01349 -0.99130
# Velocity P-wave (km/s) = 2.24891 5.98226 4.51913
#
# Compressibility (1/GPa) = 0.02251689
#
# Stress axis : x y z
#
# Youngs Moduli (GPa) = 63.80724 46.83677 45.58813
#
# Poissons Ratio (x) = -0.11340 0.22108
# Poissons Ratio (y) = -0.15448 0.71994
# Poissons Ratio (z) = 0.30944 0.73966
#
# Static dielectric constant tensor:
#      x y z
#    x 1.853450 0.000000 0.000000 
#    y 0.000000 1.910640 0.000000 
#    z 0.000000 0.000000 1.906330 
# 
# From -- ./inp_files/32417.got.cif
#   From: 2010.05.17/outbox.cif.g08.bks.cpg/sg74_17_cif.got.tgz:32417.got - 2010.06.03 17:57:02.
