data_PCOD9538431
_publ_section_title
;
Structure prediction by ZEFSAII (Michael W. Deem and Ramdas Pophale) SiO2 
 PCOD9538431
Probable space group: I M M A
;
_chemical_formula_sum "Si O2"
_cell_formula_units_Z 112
_cell_length_a 14.646830
_cell_length_b 14.983953
_cell_length_c 22.700679
_cell_angle_alpha 90.000000
_cell_angle_beta 90.000000
_cell_angle_gamma 90.000000
_cell_volume 4982.059278
_symmetry_space_group_name_H-M "I M M A"
_symmetry_group_IT_number 74
_symmetry_cell_setting 'orthorhombic'
loop_
_space_group_symop_operation_xyz
x,y,z
-x,1/2-y,z
x,-y,-z
-x,1/2+y,-z
-x,-y,-z
x,1/2+y,-z
-x,y,z
x,1/2-y,z
1/2+x,1/2+y,1/2+z
1/2-x,-y,1/2+z
1/2+x,1/2-y,1/2-z
1/2-x,y,1/2-z
1/2-x,1/2-y,1/2-z
1/2+x,y,1/2-z
1/2-x,1/2+y,1/2+z
1/2+x,-y,1/2+z
loop_
_atom_site_type_symbol
_atom_site_label
_atom_site_fract_x
_atom_site_fract_y
_atom_site_fract_z
Si Si1 0.896182 0.970849 0.788404
Si Si2 0.763592 0.655000 0.572826
Si Si3 0.104781 0.606255 0.007940
Si Si4 0.396357 0.854251 0.154577
Si Si5 0.802978 0.030302 0.328156
Si Si6 0.597932 0.395501 0.983782
Si Si7 0.609060 0.848385 0.358866
O O1 0.879356 0.946568 0.720175
O O2 0.799862 0.935891 0.814275
O O3 0.000000 0.945506 0.806363
O O4 0.884174 0.074209 0.809785
O O5 0.770081 0.750000 0.604348
O O6 0.662394 0.640438 0.547599
O O7 0.812446 0.576820 0.609434
O O8 0.820264 0.655374 0.512982
O O9 0.141634 0.626676 0.074402
O O10 0.000000 0.637519 0.004786
O O11 0.105836 0.500000 0.000000
O O12 0.500000 0.874144 0.178754
O O13 0.378738 0.750000 0.165578
O O14 0.402369 0.874550 0.085143
O O15 0.317373 0.923168 0.173128
O O16 0.500000 0.365640 0.008053
O O17 0.606504 0.500000 0.000000
O O18 0.500000 0.841650 0.366309
O O19 0.644261 0.750000 0.342237
#
# Coordination Sequence:
#
# PCOD9538431 Si02
#       7
#    16  16  16  16  16  16  16
#     4  10  23  43  65  87 119 166 217 272 328 380
#     4  12  25  39  62  95 131 172 216 268 328 393
#     4  10  21  38  62  95 137 179 216 259 324 403
#     4  10  21  38  62  92 126 165 207 255 316 386
#     4  11  24  42  64  91 124 163 216 270 326 387
#     4  10  20  37  60  87 127 170 210 259 314 377
#     4   9  18  34  58  89 124 162 206 256 313 384
#
# _framework density 22.480663
#
# number of rings (size 3 to 8) (size 9 to 14) (size 15 to 20)
#    0.000    1.714    1.429    2.571    2.000    5.143 
#    0.000    4.286    0.000    0.857    0.000    0.000 
#    0.000    0.000    0.000    0.000    0.000    0.000 
#
# Total GULP energy -311777.072582 kJ/mol
# GULP energy per Si atom -5567.447725 kJ/mol
# Density = 2.242950 g / cm^3
# Si number density = 22.480663 Si / 1000 Ang^3
#
#
#
# Elastic Constant Matrix: (Units=GPa)
#
#
# Indices 1 2 3 4 5 6 
#
# 1 73.8677 17.1765 8.3261 0.0000 0.0000 0.0000
# 2 17.1765 50.7781 -4.3171 0.0000 0.0000 0.0000
# 3 8.3261 -4.3171 58.0828 0.0000 0.0000 0.0000
# 4 0.0000 0.0000 0.0000 -2.5370 0.0000 0.0000
# 5 0.0000 0.0000 0.0000 0.0000 25.4762 0.0000
# 6 0.0000 0.0000 0.0000 0.0000 0.0000 8.6347
#
#
#
# Elastic Compliance Matrix: (Units=1/GPa)
#
#
# Indices 1 2 3 4 5 6 
#
# 1 0.015061 -0.005312 -0.002554 0.000000 0.000000 0.000000
# 2 -0.005312 0.021692 0.002374 0.000000 0.000000 0.000000
# 3 -0.002554 0.002374 0.017759 0.000000 0.000000 0.000000
# 4 0.000000 0.000000 0.000000 -0.394164 0.000000 0.000000
# 5 0.000000 0.000000 0.000000 0.000000 0.039252 0.000000
# 6 0.000000 0.000000 0.000000 0.000000 0.000000 0.115812
#
#
# Mechanical properties :
#
#
# Convention : Reuss Voigt Hill
#
# Bulk Modulus (GPa) = 22.97329 25.01106 23.99217
# Shear Modulus (GPa) = -31.42772 17.08432 -7.17170
#
# Velocity S-wave (km/s) = -3.74303 2.75972 -1.78804
# Velocity P-wave (km/s) = 2.90500 4.61568 2.53629
#
# Compressibility (1/GPa) = 0.04352881
#
# Stress axis : x y z
#
# Youngs Moduli (GPa) = 66.39812 46.09980 56.30848
#
# Poissons Ratio (x) = 0.24486 0.14380
# Poissons Ratio (y) = 0.35268 -0.13366
# Poissons Ratio (z) = 0.16956 -0.10943
#
# Static dielectric constant tensor:
#      x y z
#    x 1.883270 0.000000 0.000000 
#    y 0.000000 1.908800 0.000000 
#    z 0.000000 0.000000 1.924500 
# 
# From -- ./inp_files/60143.got.cif
#   From: 2010.05.17/outbox.cif.g08.bks.cpg/sg74_31_cif.got.tgz:60143.got - 2010.06.03 17:57:02.
