data_PCOD9538969
_publ_section_title
;
Structure prediction by ZEFSAII (Michael W. Deem and Ramdas Pophale) SiO2 
 PCOD9538969
Probable space group: I M M A
;
_chemical_formula_sum "Si O2"
_cell_formula_units_Z 88
_cell_length_a 15.579927
_cell_length_b 14.229839
_cell_length_c 20.603214
_cell_angle_alpha 90.000000
_cell_angle_beta 90.000000
_cell_angle_gamma 90.000000
_cell_volume 4567.729512
_symmetry_space_group_name_H-M "I M M A"
_symmetry_group_IT_number 74
_symmetry_cell_setting 'orthorhombic'
loop_
_space_group_symop_operation_xyz
x,y,z
-x,1/2-y,z
x,-y,-z
-x,1/2+y,-z
-x,-y,-z
x,1/2+y,-z
-x,y,z
x,1/2-y,z
1/2+x,1/2+y,1/2+z
1/2-x,-y,1/2+z
1/2+x,1/2-y,1/2-z
1/2-x,y,1/2-z
1/2-x,1/2-y,1/2-z
1/2+x,y,1/2-z
1/2-x,1/2+y,1/2+z
1/2+x,-y,1/2+z
loop_
_atom_site_type_symbol
_atom_site_label
_atom_site_fract_x
_atom_site_fract_y
_atom_site_fract_z
Si Si1 0.122854 0.250000 0.880170
Si Si2 0.901061 0.961181 0.165742
Si Si3 0.096403 0.250000 0.031258
Si Si4 0.905162 0.434557 0.435753
Si Si5 0.789462 0.429500 0.061273
Si Si6 0.206153 0.750000 0.321078
Si Si7 0.403109 0.933809 0.189996
O O1 0.098772 0.347954 0.845639
O O2 0.225291 0.250000 0.878144
O O3 0.091623 0.250000 0.953187
O O4 0.878204 0.978369 0.240985
O O5 0.000000 0.992929 0.152384
O O6 0.829676 0.010111 0.120723
O O7 0.147647 0.157637 0.051395
O O8 0.000000 0.250000 0.057836
O O9 0.905972 0.500000 0.500000
O O10 0.808968 0.391793 0.434379
O O11 0.903524 0.496582 0.370418
O O12 0.000000 0.384865 0.436362
O O13 0.792918 0.500000 0.000000
O O14 0.250000 0.750000 0.250000
O O15 0.153421 0.844548 0.325506
O O16 0.500000 0.899567 0.200431
#
# Coordination Sequence:
#
# PCOD9538969 Si02
#       7
#     8  16   8  16  16   8  16
#     4  12  22  32  53  84 123 165 197 236 288 348
#     4  11  21  35  56  88 124 162 201 242 294 358
#     4  12  26  42  58  87 126 160 198 246 294 357
#     4   9  20  39  60  82 113 150 199 253 297 348
#     4  11  23  38  62  88 116 160 204 241 298 355
#     4  12  21  30  49  82 128 162 197 240 293 366
#     4  10  21  36  56  83 118 160 201 250 305 358
#
# _framework density 19.26559
#
# number of rings (size 3 to 8) (size 9 to 14) (size 15 to 20)
#    0.000    1.273    3.636    2.727    2.545    2.182 
#    0.000    0.455    0.000    2.182    0.000    3.818 
#    0.000    0.000    0.000    0.000    0.000    0.000 
#
# Total GULP energy -245356.469454 kJ/mol
# GULP energy per Si atom -5576.283397 kJ/mol
# Density = 1.922174 g / cm^3
# Si number density = 19.265590 Si / 1000 Ang^3
#
#
#
# Elastic Constant Matrix: (Units=GPa)
#
#
# Indices 1 2 3 4 5 6 
#
# 1 167.1674 37.1836 27.7571 0.0000 0.0000 0.0000
# 2 37.1836 57.0737 15.0338 0.0000 0.0000 0.0000
# 3 27.7571 15.0338 106.3268 0.0000 0.0000 0.0000
# 4 0.0000 0.0000 0.0000 11.9644 0.0000 0.0000
# 5 0.0000 0.0000 0.0000 0.0000 28.3446 0.0000
# 6 0.0000 0.0000 0.0000 0.0000 0.0000 41.2123
#
#
#
# Elastic Compliance Matrix: (Units=1/GPa)
#
#
# Indices 1 2 3 4 5 6 
#
# 1 0.007154 -0.004330 -0.001255 0.000000 0.000000 0.000000
# 2 -0.004330 0.020820 -0.001813 0.000000 0.000000 0.000000
# 3 -0.001255 -0.001813 0.009989 0.000000 0.000000 0.000000
# 4 0.000000 0.000000 0.000000 0.083582 0.000000 0.000000
# 5 0.000000 0.000000 0.000000 0.000000 0.035280 0.000000
# 6 0.000000 0.000000 0.000000 0.000000 0.000000 0.024265
#
#
# Mechanical properties :
#
#
# Convention : Reuss Voigt Hill
#
# Bulk Modulus (GPa) = 43.16805 54.50187 48.83496
# Shear Modulus (GPa) = 24.55703 33.01048 28.78376
#
# Velocity S-wave (km/s) = 3.57411 4.14387 3.86949
# Velocity P-wave (km/s) = 6.28393 7.15868 6.73552
#
# Compressibility (1/GPa) = 0.02316528
#
# Stress axis : x y z
#
# Youngs Moduli (GPa) = 139.79032 48.03111 100.10949
#
# Poissons Ratio (x) = 0.20797 0.12566
# Poissons Ratio (y) = 0.60528 0.18154
# Poissons Ratio (z) = 0.17547 0.08710
#
# Static dielectric constant tensor:
#      x y z
#    x 1.758130 0.000000 0.000000 
#    y 0.000000 1.663980 0.000000 
#    z 0.000000 0.000000 1.694630 
# 
# From -- ./inp_files/51766.got.cif
#   From: 2010.05.17/outbox.cif.g08.bks.cpg/sg74_26_cif.got.tgz:51766.got - 2010.06.03 17:57:02.
