data_PCOD9538682
_publ_section_title
;
Structure prediction by ZEFSAII (Michael W. Deem and Ramdas Pophale) SiO2 
 PCOD9538682
Probable space group: I M M A
;
_chemical_formula_sum "Si O2"
_cell_formula_units_Z 88
_cell_length_a 27.545309
_cell_length_b 8.671030
_cell_length_c 19.717747
_cell_angle_alpha 90.000000
_cell_angle_beta 90.000000
_cell_angle_gamma 90.000000
_cell_volume 4709.508957
_symmetry_space_group_name_H-M "I M M A"
_symmetry_group_IT_number 74
_symmetry_cell_setting 'orthorhombic'
loop_
_space_group_symop_operation_xyz
x,y,z
-x,1/2-y,z
x,-y,-z
-x,1/2+y,-z
-x,-y,-z
x,1/2+y,-z
-x,y,z
x,1/2-y,z
1/2+x,1/2+y,1/2+z
1/2-x,-y,1/2+z
1/2+x,1/2-y,1/2-z
1/2-x,y,1/2-z
1/2-x,1/2-y,1/2-z
1/2+x,y,1/2-z
1/2-x,1/2+y,1/2+z
1/2+x,-y,1/2+z
loop_
_atom_site_type_symbol
_atom_site_label
_atom_site_fract_x
_atom_site_fract_y
_atom_site_fract_z
Si Si1 0.694409 0.436253 0.424440
Si Si2 0.500000 0.065657 0.576385
Si Si3 0.905130 0.435092 0.151188
Si Si4 0.617173 0.066267 0.798476
Si Si5 0.722084 0.431531 0.178615
Si Si6 0.443766 0.564313 0.071057
O O1 0.696520 0.500000 0.500000
O O2 0.694722 0.250000 0.425786
O O3 0.644197 0.483230 0.387952
O O4 0.740739 0.484716 0.379562
O O5 0.500000 0.250000 0.573710
O O6 0.500000 0.000000 0.500000
O O7 0.452124 0.007700 0.615727
O O8 0.908798 0.250000 0.147712
O O9 0.899302 0.486426 0.228964
O O10 0.611654 0.250000 0.790361
O O11 0.585330 0.014450 0.862723
O O12 0.672624 0.024611 0.815104
O O13 0.710656 0.250000 0.167611
O O14 0.750000 0.442064 0.250000
O O15 0.500000 0.515616 0.076880
O O16 0.442330 0.750000 0.068225
O O17 0.424189 0.500000 0.000000
#
# Coordination Sequence:
#
# PCOD9538682 Si02
#       6
#    16   8  16  16  16  16
#     4  10  22  39  62  88 118 156 200 248 300 359
#     4  12  26  44  64  92 127 164 205 256 308 360
#     4  11  23  42  64  90 122 164 209 249 301 367
#     4  11  23  37  60  93 124 157 199 255 308 359
#     4  10  20  40  61  81 116 159 199 245 296 354
#     4   9  20  39  60  84 118 156 195 242 298 355
#
# _framework density 18.685600999999998
#
# number of rings (size 3 to 8) (size 9 to 14) (size 15 to 20)
#    0.000    1.636    1.818    2.455    1.273    6.182 
#    0.000    3.636    0.000    0.000    0.000    0.000 
#    0.000    0.000    0.000    0.000    0.000    0.000 
#
# Total GULP energy -245858.592804 kJ/mol
# GULP energy per Si atom -5587.695291 kJ/mol
# Density = 1.864307 g / cm^3
# Si number density = 18.685601 Si / 1000 Ang^3
#
#
#
# Elastic Constant Matrix: (Units=GPa)
#
#
# Indices 1 2 3 4 5 6 
#
# 1 118.4700 38.2077 88.0395 0.0000 0.0000 0.0000
# 2 38.2077 47.8382 43.7419 0.0000 0.0000 0.0000
# 3 88.0395 43.7419 188.6262 0.0000 0.0000 0.0000
# 4 0.0000 0.0000 0.0000 36.8353 0.0000 0.0000
# 5 0.0000 0.0000 0.0000 0.0000 36.0811 0.0000
# 6 0.0000 0.0000 0.0000 0.0000 0.0000 65.2293
#
#
#
# Elastic Compliance Matrix: (Units=1/GPa)
#
#
# Indices 1 2 3 4 5 6 
#
# 1 0.014497 -0.006842 -0.005180 0.000000 0.000000 0.000000
# 2 -0.006842 0.029759 -0.003707 0.000000 0.000000 0.000000
# 3 -0.005180 -0.003707 0.008579 0.000000 0.000000 0.000000
# 4 0.000000 0.000000 0.000000 0.027148 0.000000 0.000000
# 5 0.000000 0.000000 0.000000 0.000000 0.027715 0.000000
# 6 0.000000 0.000000 0.000000 0.000000 0.000000 0.015331
#
#
# Mechanical properties :
#
#
# Convention : Reuss Voigt Hill
#
# Bulk Modulus (GPa) = 46.78221 77.21251 61.99736
# Shear Modulus (GPa) = 30.93842 39.95882 35.44862
#
# Velocity S-wave (km/s) = 4.07349 4.62939 4.36031
# Velocity P-wave (km/s) = 6.87134 8.36580 7.65513
#
# Compressibility (1/GPa) = 0.02137565
#
# Stress axis : x y z
#
# Youngs Moduli (GPa) = 68.98091 33.60377 116.56784
#
# Poissons Ratio (x) = 0.22993 0.60376
# Poissons Ratio (y) = 0.47199 0.43215
# Poissons Ratio (z) = 0.35729 0.12458
#
# Static dielectric constant tensor:
#      x y z
#    x 1.735390 0.000000 0.000000 
#    y 0.000000 1.642470 0.000000 
#    z 0.000000 0.000000 1.615270 
# 
# From -- ./inp_files/54510.got.cif
#   From: 2010.05.17/outbox.cif.g08.bks.cpg/sg74_28_cif.got.tgz:54510.got - 2010.06.03 17:57:02.
