data_PCOD9538189
_publ_section_title
;
Structure prediction by ZEFSAII (Michael W. Deem and Ramdas Pophale) SiO2 
 PCOD9538189
Probable space group: I M M A
;
_chemical_formula_sum "Si O2"
_cell_formula_units_Z 96
_cell_length_a 30.952121
_cell_length_b 7.634223
_cell_length_c 19.117553
_cell_angle_alpha 90.000000
_cell_angle_beta 90.000000
_cell_angle_gamma 90.000000
_cell_volume 4517.389719
_symmetry_space_group_name_H-M "I M M A"
_symmetry_group_IT_number 74
_symmetry_cell_setting 'orthorhombic'
loop_
_space_group_symop_operation_xyz
x,y,z
-x,1/2-y,z
x,-y,-z
-x,1/2+y,-z
-x,-y,-z
x,1/2+y,-z
-x,y,z
x,1/2-y,z
1/2+x,1/2+y,1/2+z
1/2-x,-y,1/2+z
1/2+x,1/2-y,1/2-z
1/2-x,y,1/2-z
1/2-x,1/2-y,1/2-z
1/2+x,y,1/2-z
1/2-x,1/2+y,1/2+z
1/2+x,-y,1/2+z
loop_
_atom_site_type_symbol
_atom_site_label
_atom_site_fract_x
_atom_site_fract_y
_atom_site_fract_z
Si Si1 0.384549 0.952553 0.684468
Si Si2 0.729335 0.036144 0.824814
Si Si3 0.048710 0.039766 0.075483
Si Si4 0.951791 0.960677 0.417613
Si Si5 0.308453 0.458322 0.581524
Si Si6 0.867110 0.949825 0.338415
O O1 0.392760 0.750000 0.703172
O O2 0.424226 0.027262 0.640162
O O3 0.344710 0.958941 0.630896
O O4 0.376196 0.051322 0.755767
O O5 0.726736 0.250000 0.820628
O O6 0.750000 0.979896 0.750000
O O7 0.762372 0.988768 0.886221
O O8 0.681073 0.970269 0.841608
O O9 0.047395 0.250000 0.081244
O O10 0.000000 0.970461 0.075043
O O11 0.069018 0.000000 0.000000
O O12 0.952556 0.750000 0.408130
O O13 0.909225 0.027927 0.376990
O O14 0.000000 0.025349 0.395726
O O15 0.947402 0.000000 0.500000
O O16 0.312776 0.500000 0.500000
O O17 0.312704 0.250000 0.590407
O O18 0.863323 0.750000 0.365071
#
# Coordination Sequence:
#
# PCOD9538189 Si02
#       6
#    16  16  16  16  16  16
#     4  11  22  35  53  80 110 141 179 222 271 323
#     4   9  17  34  57  77 101 143 186 220 268 326
#     4   9  19  35  52  71  99 135 174 216 261 310
#     4   9  19  36  58  84 114 147 184 229 283 339
#     4  11  22  37  57  80 109 142 182 225 272 327
#     4  10  20  36  58  81 108 145 185 224 271 329
#
# _framework density 21.251211000000001
#
# number of rings (size 3 to 8) (size 9 to 14) (size 15 to 20)
#    0.000    2.167    1.667    1.500    0.000    4.667 
#    0.000    2.500    0.000    0.000    0.000    0.000 
#    0.000    0.000    0.000    0.000    0.000    0.000 
#
# Total GULP energy -267870.887909 kJ/mol
# GULP energy per Si atom -5580.643498 kJ/mol
# Density = 2.120284 g / cm^3
# Si number density = 21.251211 Si / 1000 Ang^3
#
#
#
# Elastic Constant Matrix: (Units=GPa)
#
#
# Indices 1 2 3 4 5 6 
#
# 1 156.4464 -1.1109 54.5853 0.0000 0.0000 0.0000
# 2 -1.1109 48.6021 -10.2483 0.0000 0.0000 0.0000
# 3 54.5853 -10.2483 80.3047 0.0000 0.0000 0.0000
# 4 0.0000 0.0000 0.0000 20.4100 0.0000 0.0000
# 5 0.0000 0.0000 0.0000 0.0000 40.7326 0.0000
# 6 0.0000 0.0000 0.0000 0.0000 0.0000 -0.5444
#
#
#
# Elastic Compliance Matrix: (Units=1/GPa)
#
#
# Indices 1 2 3 4 5 6 
#
# 1 0.008430 -0.001044 -0.005864 0.000000 0.000000 0.000000
# 2 -0.001044 0.021273 0.003424 0.000000 0.000000 0.000000
# 3 -0.005864 0.003424 0.016875 0.000000 0.000000 0.000000
# 4 0.000000 0.000000 0.000000 0.048996 0.000000 0.000000
# 5 0.000000 0.000000 0.000000 0.000000 0.024550 0.000000
# 6 0.000000 0.000000 0.000000 0.000000 0.000000 -1.836899
#
#
# Mechanical properties :
#
#
# Convention : Reuss Voigt Hill
#
# Bulk Modulus (GPa) = 25.24420 41.31171 33.27796
# Shear Modulus (GPa) = -2.94706 28.26144 12.65719
#
# Velocity S-wave (km/s) = -1.17889 3.65070 2.44314
# Velocity P-wave (km/s) = 3.17044 6.10345 4.86332
#
# Compressibility (1/GPa) = 0.03961306
#
# Stress axis : x y z
#
# Youngs Moduli (GPa) = 118.61842 47.00702 59.25859
#
# Poissons Ratio (x) = 0.04906 0.34747
# Poissons Ratio (y) = 0.12380 -0.20292
# Poissons Ratio (z) = 0.69553 -0.16097
#
# Static dielectric constant tensor:
#      x y z
#    x 1.812850 0.000000 0.000000 
#    y 0.000000 1.712780 0.000000 
#    z 0.000000 0.000000 1.716310 
# 
# From -- ./inp_files/49168.got.cif
#   From: 2010.05.17/outbox.cif.g08.bks.cpg/sg74_25_cif.got.tgz:49168.got - 2010.06.03 17:57:02.
