data_PCOD9538725
_publ_section_title
;
Structure prediction by ZEFSAII (Michael W. Deem and Ramdas Pophale) SiO2 
 PCOD9538725
Probable space group: I M M A
;
_chemical_formula_sum "Si O2"
_cell_formula_units_Z 104
_cell_length_a 20.475763
_cell_length_b 20.740702
_cell_length_c 12.356209
_cell_angle_alpha 90.000000
_cell_angle_beta 90.000000
_cell_angle_gamma 90.000000
_cell_volume 5247.455826
_symmetry_space_group_name_H-M "I M M A"
_symmetry_group_IT_number 74
_symmetry_cell_setting 'orthorhombic'
loop_
_space_group_symop_operation_xyz
x,y,z
-x,1/2-y,z
x,-y,-z
-x,1/2+y,-z
-x,-y,-z
x,1/2+y,-z
-x,y,z
x,1/2-y,z
1/2+x,1/2+y,1/2+z
1/2-x,-y,1/2+z
1/2+x,1/2-y,1/2-z
1/2-x,y,1/2-z
1/2-x,1/2-y,1/2-z
1/2+x,y,1/2-z
1/2-x,1/2+y,1/2+z
1/2+x,-y,1/2+z
loop_
_atom_site_type_symbol
_atom_site_label
_atom_site_fract_x
_atom_site_fract_y
_atom_site_fract_z
Si Si1 0.074848 0.496580 0.374009
Si Si2 0.500000 0.612488 0.207567
Si Si3 0.751850 0.671780 0.372420
Si Si4 0.144378 0.172508 0.455706
Si Si5 0.822327 0.407085 0.256550
Si Si6 0.640006 0.673037 0.545075
Si Si7 0.000000 0.176018 0.491253
Si Si8 0.000000 0.325784 0.940544
O O1 0.095732 0.500000 0.500000
O O2 0.061458 0.567219 0.323396
O O3 0.124612 0.457513 0.300297
O O4 0.000000 0.469490 0.374126
O O5 0.500000 0.670106 0.121238
O O6 0.500000 0.634495 0.329879
O O7 0.755423 0.750000 0.366518
O O8 0.750000 0.647088 0.250000
O O9 0.814980 0.649994 0.440266
O O10 0.688244 0.657700 0.444883
O O11 0.143412 0.250000 0.457971
O O12 0.179973 0.147735 0.349286
O O13 0.069513 0.148854 0.453852
O O14 0.750000 0.436168 0.250000
O O15 0.842712 0.371961 0.146103
O O16 0.648089 0.750000 0.570361
O O17 0.565529 0.662307 0.508464
O O18 0.000000 0.250000 0.456040
O O19 0.000000 0.250000 0.911149
#
# Coordination Sequence:
#
# PCOD9538725 Si02
#       8
#    16   8  16  16  16  16   8   8
#     4   9  22  44  68  89 116 168 215 273 322 366
#     4  10  20  41  66  85 118 166 199 255 328 362
#     4   9  18  34  53  81 130 177 207 241 311 388
#     4  10  21  34  56  94 129 164 203 257 320 377
#     4  12  23  39  65  93 123 167 216 265 308 376
#     4  10  22  39  58  92 134 171 203 251 319 378
#     4  10  21  34  60  98 126 150 202 259 309 382
#     4  10  23  39  62  95 128 160 202 246 303 385
#
# _framework density 19.819127999999999
#
# number of rings (size 3 to 8) (size 9 to 14) (size 15 to 20)
#    0.462    1.538    1.538    1.615    4.308    0.615 
#    0.000    5.385    0.000    0.000    0.000    0.000 
#    0.000    0.000    0.000    0.000    0.000    0.000 
#
# Total GULP energy -290120.696572 kJ/mol
# GULP energy per Si atom -5579.244165 kJ/mol
# Density = 1.977402 g / cm^3
# Si number density = 19.819128 Si / 1000 Ang^3
#
#
#
# Elastic Constant Matrix: (Units=GPa)
#
#
# Indices 1 2 3 4 5 6 
#
# 1 138.5928 31.6615 54.3668 0.0000 0.0000 0.0000
# 2 31.6615 35.3685 31.8352 0.0000 0.0000 0.0000
# 3 54.3668 31.8352 143.3054 0.0000 0.0000 0.0000
# 4 0.0000 0.0000 0.0000 27.9718 0.0000 0.0000
# 5 0.0000 0.0000 0.0000 0.0000 26.1767 0.0000
# 6 0.0000 0.0000 0.0000 0.0000 0.0000 13.4185
#
#
#
# Elastic Compliance Matrix: (Units=1/GPa)
#
#
# Indices 1 2 3 4 5 6 
#
# 1 0.009577 -0.006629 -0.002161 0.000000 0.000000 0.000000
# 2 -0.006629 0.039928 -0.006355 0.000000 0.000000 0.000000
# 3 -0.002161 -0.006355 0.009210 0.000000 0.000000 0.000000
# 4 0.000000 0.000000 0.000000 0.035750 0.000000 0.000000
# 5 0.000000 0.000000 0.000000 0.000000 0.038202 0.000000
# 6 0.000000 0.000000 0.000000 0.000000 0.000000 0.074524
#
#
# Mechanical properties :
#
#
# Convention : Reuss Voigt Hill
#
# Bulk Modulus (GPa) = 35.17955 61.44374 48.31165
# Shear Modulus (GPa) = 20.24656 26.80696 23.52676
#
# Velocity S-wave (km/s) = 3.19966 3.68173 3.44913
# Velocity P-wave (km/s) = 5.60708 7.01021 6.34753
#
# Compressibility (1/GPa) = 0.02842560
#
# Stress axis : x y z
#
# Youngs Moduli (GPa) = 104.41316 25.04519 108.58102
#
# Poissons Ratio (x) = 0.16601 0.23463
# Poissons Ratio (y) = 0.69210 0.69006
# Poissons Ratio (z) = 0.22563 0.15917
#
# Static dielectric constant tensor:
#      x y z
#    x 1.723500 0.000000 0.000000 
#    y 0.000000 1.715180 0.000000 
#    z 0.000000 0.000000 1.653460 
# 
# From -- ./inp_files/22792.got.cif
#   From: 2010.05.17/outbox.cif.g08.bks.cpg/sg74_12_cif.got.tgz:22792.got - 2010.06.03 17:57:02.
