data_PCOD9538578
_publ_section_title
;
Structure prediction by ZEFSAII (Michael W. Deem and Ramdas Pophale) SiO2 
 PCOD9538578
Probable space group: I M M A
;
_chemical_formula_sum "Si O2"
_cell_formula_units_Z 116
_cell_length_a 8.262675
_cell_length_b 22.186728
_cell_length_c 31.859776
_cell_angle_alpha 90.000000
_cell_angle_beta 90.000000
_cell_angle_gamma 90.000000
_cell_volume 5840.589024
_symmetry_space_group_name_H-M "I M M A"
_symmetry_group_IT_number 74
_symmetry_cell_setting 'orthorhombic'
loop_
_space_group_symop_operation_xyz
x,y,z
-x,1/2-y,z
x,-y,-z
-x,1/2+y,-z
-x,-y,-z
x,1/2+y,-z
-x,y,z
x,1/2-y,z
1/2+x,1/2+y,1/2+z
1/2-x,-y,1/2+z
1/2+x,1/2-y,1/2-z
1/2-x,y,1/2-z
1/2-x,1/2-y,1/2-z
1/2+x,y,1/2-z
1/2-x,1/2+y,1/2+z
1/2+x,-y,1/2+z
loop_
_atom_site_type_symbol
_atom_site_label
_atom_site_fract_x
_atom_site_fract_y
_atom_site_fract_z
Si Si1 0.806061 0.947921 0.203566
Si Si2 0.184998 0.505858 0.055291
Si Si3 0.804088 0.682037 0.864799
Si Si4 0.312817 0.897416 0.379548
Si Si5 0.500000 0.000000 0.000000
Si Si6 0.807788 0.585233 0.703460
Si Si7 0.685979 0.137870 0.454000
Si Si8 0.808280 0.317816 0.543299
O O1 0.750000 0.930909 0.250000
O O2 0.740209 0.904685 0.166687
O O3 0.000000 0.946059 0.202031
O O4 0.756292 0.017480 0.196344
O O5 0.194173 0.535389 0.100737
O O6 0.189441 0.433729 0.054328
O O7 0.000000 0.525036 0.040263
O O8 0.350795 0.523998 0.031311
O O9 0.756920 0.750000 0.852535
O O10 0.747918 0.631871 0.832038
O O11 0.743384 0.668523 0.912207
O O12 0.000000 0.679187 0.866399
O O13 0.500000 0.879698 0.375213
O O14 0.244284 0.855264 0.415998
O O15 0.750000 0.604278 0.750000
O O16 0.000000 0.582558 0.703630
O O17 0.500000 0.157280 0.457594
O O18 0.763695 0.153034 0.498494
O O19 0.739303 0.250000 0.544547
O O20 0.000000 0.314250 0.544385
#
# Coordination Sequence:
#
# PCOD9538578 Si02
#       8
#    16  16  16  16   4  16  16  16
#     4  10  20  38  63  93 122 148 183 231 295 361
#     4  10  22  37  55  87 122 153 197 250 299 355
#     4  10  21  38  59  81 109 151 200 249 300 351
#     4  10  22  40  62  86 119 156 193 242 291 351
#     4  12  22  32  52  82 114 160 194 232 300 352
#     4  11  22  37  59  86 117 152 190 235 291 351
#     4  10  21  39  61  82 113 154 198 246 296 355
#     4  11  25  40  56  83 118 154 197 247 288 335
#
# _framework density 19.86101
#
# number of rings (size 3 to 8) (size 9 to 14) (size 15 to 20)
#    0.000    1.655    0.000    5.172    3.862    8.276 
#    2.483    0.000    0.000    0.414    0.000    0.000 
#    0.000    0.000    0.000    0.000    0.000    0.000 
#
# Total GULP energy -323092.241788 kJ/mol
# GULP energy per Si atom -5570.555893 kJ/mol
# Density = 1.981581 g / cm^3
# Si number density = 19.861010 Si / 1000 Ang^3
#
#
#
# Elastic Constant Matrix: (Units=GPa)
#
#
# Indices 1 2 3 4 5 6 
#
# 1 90.6704 14.3071 31.5779 0.0000 0.0000 0.0000
# 2 14.3071 77.2171 61.6797 0.0000 0.0000 0.0000
# 3 31.5779 61.6797 155.8746 0.0000 0.0000 0.0000
# 4 0.0000 0.0000 0.0000 15.8640 0.0000 0.0000
# 5 0.0000 0.0000 0.0000 0.0000 27.0045 0.0000
# 6 0.0000 0.0000 0.0000 0.0000 0.0000 28.1402
#
#
#
# Elastic Compliance Matrix: (Units=1/GPa)
#
#
# Indices 1 2 3 4 5 6 
#
# 1 0.011875 -0.000407 -0.002244 0.000000 0.000000 0.000000
# 2 -0.000407 0.018950 -0.007416 0.000000 0.000000 0.000000
# 3 -0.002244 -0.007416 0.009805 0.000000 0.000000 0.000000
# 4 0.000000 0.000000 0.000000 0.063036 0.000000 0.000000
# 5 0.000000 0.000000 0.000000 0.000000 0.037031 0.000000
# 6 0.000000 0.000000 0.000000 0.000000 0.000000 0.035536
#
#
# Mechanical properties :
#
#
# Convention : Reuss Voigt Hill
#
# Bulk Modulus (GPa) = 48.79546 59.87683 54.33615
# Shear Modulus (GPa) = 24.60642 28.61489 26.61066
#
# Velocity S-wave (km/s) = 3.52366 3.79985 3.66436
# Velocity P-wave (km/s) = 6.41691 7.03315 6.73208
#
# Compressibility (1/GPa) = 0.02049371
#
# Stress axis : x y z
#
# Youngs Moduli (GPa) = 84.21104 52.77139 101.99313
#
# Poissons Ratio (x) = 0.02150 0.22892
# Poissons Ratio (y) = 0.03431 0.75637
# Poissons Ratio (z) = 0.18901 0.39135
#
# Static dielectric constant tensor:
#      x y z
#    x 1.712900 0.000000 0.000000 
#    y 0.000000 1.721400 0.000000 
#    z 0.000000 0.000000 1.742460 
# 
# From -- ./inp_files/70921.got.cif
#   From: 2010.05.17/outbox.cif.g08.bks.cpg/sg74_36_cif.got.tgz:70921.got - 2010.06.03 17:57:02.
