data_PCOD9538260
_publ_section_title
;
Structure prediction by ZEFSAII (Michael W. Deem and Ramdas Pophale) SiO2 
 PCOD9538260
Probable space group: I M M A
;
_chemical_formula_sum "Si O2"
_cell_formula_units_Z 88
_cell_length_a 20.341574
_cell_length_b 8.418181
_cell_length_c 25.013992
_cell_angle_alpha 90.000000
_cell_angle_beta 90.000000
_cell_angle_gamma 90.000000
_cell_volume 4283.372271
_symmetry_space_group_name_H-M "I M M A"
_symmetry_group_IT_number 74
_symmetry_cell_setting 'orthorhombic'
loop_
_space_group_symop_operation_xyz
x,y,z
-x,1/2-y,z
x,-y,-z
-x,1/2+y,-z
-x,-y,-z
x,1/2+y,-z
-x,y,z
x,1/2-y,z
1/2+x,1/2+y,1/2+z
1/2-x,-y,1/2+z
1/2+x,1/2-y,1/2-z
1/2-x,y,1/2-z
1/2-x,1/2-y,1/2-z
1/2+x,y,1/2-z
1/2-x,1/2+y,1/2+z
1/2+x,-y,1/2+z
loop_
_atom_site_type_symbol
_atom_site_label
_atom_site_fract_x
_atom_site_fract_y
_atom_site_fract_z
Si Si1 0.570518 0.059025 0.830341
Si Si2 0.375951 0.058695 0.367428
Si Si3 0.760342 0.440772 0.056711
Si Si4 0.174051 0.057571 0.754819
Si Si5 0.390583 0.439809 0.056863
Si Si6 0.500000 0.060054 0.562229
O O1 0.500000 0.009526 0.806668
O O2 0.572882 0.250000 0.829990
O O3 0.632228 0.000944 0.796225
O O4 0.574092 0.002267 0.890952
O O5 0.379776 0.250000 0.366868
O O6 0.308870 0.006692 0.397109
O O7 0.365703 0.997837 0.307250
O O8 0.436703 0.996784 0.403145
O O9 0.758915 0.250000 0.056377
O O10 0.685416 0.497488 0.061790
O O11 0.786634 0.500000 0.000000
O O12 0.175242 0.250000 0.755536
O O13 0.250000 0.002892 0.750000
O O14 0.391622 0.250000 0.056592
O O15 0.416197 0.500000 0.000000
O O16 0.500000 0.250000 0.559995
O O17 0.500000 0.000000 0.500000
#
# Coordination Sequence:
#
# PCOD9538260 Si02
#       6
#    16  16  16  16  16   8
#     4  10  22  39  58  82 116 155 195 243 296 352
#     4  11  23  39  61  90 123 161 208 258 314 376
#     4   9  19  34  55  84 117 150 190 242 297 353
#     4  10  22  40  63  91 122 162 210 258 312 373
#     4  10  20  36  59  87 117 152 193 240 296 355
#     4  12  26  44  64  90 128 170 215 266 323 388
#
# _framework density 20.544561000000002
#
# number of rings (size 3 to 8) (size 9 to 14) (size 15 to 20)
#    0.000    1.818    0.000    3.545    1.273    5.455 
#    0.000    0.000    0.000    0.000    0.000    0.000 
#    0.000    0.000    0.000    0.000    0.000    0.000 
#
# Total GULP energy -245711.136193 kJ/mol
# GULP energy per Si atom -5584.344004 kJ/mol
# Density = 2.049780 g / cm^3
# Si number density = 20.544561 Si / 1000 Ang^3
#
#
#
# Elastic Constant Matrix: (Units=GPa)
#
#
# Indices 1 2 3 4 5 6 
#
# 1 129.2839 28.2809 72.7910 0.0000 0.0000 0.0000
# 2 28.2809 23.1985 14.0936 0.0000 0.0000 0.0000
# 3 72.7910 14.0936 142.0335 0.0000 0.0000 0.0000
# 4 0.0000 0.0000 0.0000 34.7346 0.0000 0.0000
# 5 0.0000 0.0000 0.0000 0.0000 63.6373 0.0000
# 6 0.0000 0.0000 0.0000 0.0000 0.0000 -16.5915
#
#
#
# Elastic Compliance Matrix: (Units=1/GPa)
#
#
# Indices 1 2 3 4 5 6 
#
# 1 0.013959 -0.013484 -0.005816 0.000000 0.000000 0.000000
# 2 -0.013484 0.058897 0.001066 0.000000 0.000000 0.000000
# 3 -0.005816 0.001066 0.009915 0.000000 0.000000 0.000000
# 4 0.000000 0.000000 0.000000 0.028790 0.000000 0.000000
# 5 0.000000 0.000000 0.000000 0.000000 0.015714 0.000000
# 6 0.000000 0.000000 0.000000 0.000000 0.000000 -0.060272
#
#
# Mechanical properties :
#
#
# Convention : Reuss Voigt Hill
#
# Bulk Modulus (GPa) = 21.59651 58.31631 39.95641
# Shear Modulus (GPa) = 42.05040 28.31278 35.18159
#
# Velocity S-wave (km/s) = 4.52905 3.71633 4.14267
# Velocity P-wave (km/s) = 6.15505 6.84556 6.50947
#
# Compressibility (1/GPa) = 0.04630378
#
# Stress axis : x y z
#
# Youngs Moduli (GPa) = 71.63778 16.97893 100.85307
#
# Poissons Ratio (x) = 0.22894 0.58656
# Poissons Ratio (y) = 0.96596 -0.10754
# Poissons Ratio (z) = 0.41664 -0.01810
#
# Static dielectric constant tensor:
#      x y z
#    x 1.762650 0.000000 0.000000 
#    y 0.000000 1.692910 0.000000 
#    z 0.000000 0.000000 1.723880 
# 
# From -- ./inp_files/61459.got.cif
#   From: 2010.05.17/outbox.cif.g08.bks.cpg/sg74_31_cif.got.tgz:61459.got - 2010.06.03 17:57:02.
