data_PCOD9538884
_publ_section_title
;
Structure prediction by ZEFSAII (Michael W. Deem and Ramdas Pophale) SiO2 
 PCOD9538884
Probable space group: I M M A
;
_chemical_formula_sum "Si O2"
_cell_formula_units_Z 80
_cell_length_a 16.339404
_cell_length_b 21.626078
_cell_length_c 12.258267
_cell_angle_alpha 90.000000
_cell_angle_beta 90.000000
_cell_angle_gamma 90.000000
_cell_volume 4331.547215
_symmetry_space_group_name_H-M "I M M A"
_symmetry_group_IT_number 74
_symmetry_cell_setting 'orthorhombic'
loop_
_space_group_symop_operation_xyz
x,y,z
-x,1/2-y,z
x,-y,-z
-x,1/2+y,-z
-x,-y,-z
x,1/2+y,-z
-x,y,z
x,1/2-y,z
1/2+x,1/2+y,1/2+z
1/2-x,-y,1/2+z
1/2+x,1/2-y,1/2-z
1/2-x,y,1/2-z
1/2-x,1/2-y,1/2-z
1/2+x,y,1/2-z
1/2-x,1/2+y,1/2+z
1/2+x,-y,1/2+z
loop_
_atom_site_type_symbol
_atom_site_label
_atom_site_fract_x
_atom_site_fract_y
_atom_site_fract_z
Si Si1 0.332311 0.081283 0.003152
Si Si2 0.406286 0.320075 0.483753
Si Si3 0.849549 0.549354 0.911414
Si Si4 0.250996 0.821178 0.130348
Si Si5 0.595318 0.488729 0.177405
O O1 0.313482 0.147015 0.951762
O O2 0.363987 0.039665 0.902099
O O3 0.244363 0.060371 0.052488
O O4 0.394301 0.072668 0.102721
O O5 0.500000 0.322265 0.521810
O O6 0.394110 0.250000 0.435357
O O7 0.390684 0.382390 0.413899
O O8 0.339578 0.325299 0.579513
O O9 0.860069 0.520394 0.792146
O O10 0.883865 0.500000 0.000000
O O11 0.273789 0.750000 0.141631
O O12 0.250000 0.850935 0.250000
O O13 0.500000 0.502356 0.195482
#
# Coordination Sequence:
#
# PCOD9538884 Si02
#       5
#    16  16  16  16  16
#     4  10  21  35  60  80 111 153 186 223 287 343
#     4   9  19  36  55  80 114 146 178 227 289 337
#     4  11  22  36  60  87 113 144 193 238 280 338
#     4   9  19  35  56  81 110 146 190 233 273 335
#     4  11  23  38  56  83 116 148 186 237 291 338
#
# _framework density 18.469152000000001
#
# number of rings (size 3 to 8) (size 9 to 14) (size 15 to 20)
#    0.000    2.000    2.000    2.400    5.600    1.600 
#    0.000    2.000    0.000    9.600    0.000    0.000 
#    0.000    0.000    0.000    0.000    0.000    0.000 
#
# Total GULP energy -222682.214000 kJ/mol
# GULP energy per Si atom -5567.055350 kJ/mol
# Density = 1.842712 g / cm^3
# Si number density = 18.469152 Si / 1000 Ang^3
#
#
#
# Elastic Constant Matrix: (Units=GPa)
#
#
# Indices 1 2 3 4 5 6 
#
# 1 64.0633 29.8065 15.1107 0.0000 0.0000 0.0000
# 2 29.8065 65.1114 35.9767 0.0000 0.0000 0.0000
# 3 15.1107 35.9767 124.7378 0.0000 0.0000 0.0000
# 4 0.0000 0.0000 0.0000 21.4293 0.0000 0.0000
# 5 0.0000 0.0000 0.0000 0.0000 9.9674 0.0000
# 6 0.0000 0.0000 0.0000 0.0000 0.0000 24.7688
#
#
#
# Elastic Compliance Matrix: (Units=1/GPa)
#
#
# Indices 1 2 3 4 5 6 
#
# 1 0.019841 -0.009225 0.000257 0.000000 0.000000 0.000000
# 2 -0.009225 0.022559 -0.005389 0.000000 0.000000 0.000000
# 3 0.000257 -0.005389 0.009540 0.000000 0.000000 0.000000
# 4 0.000000 0.000000 0.000000 0.046665 0.000000 0.000000
# 5 0.000000 0.000000 0.000000 0.000000 0.100327 0.000000
# 6 0.000000 0.000000 0.000000 0.000000 0.000000 0.040373
#
#
# Mechanical properties :
#
#
# Convention : Reuss Voigt Hill
#
# Bulk Modulus (GPa) = 43.05437 46.18894 44.62165
# Shear Modulus (GPa) = 18.13169 22.76766 20.44967
#
# Velocity S-wave (km/s) = 3.13665 3.51485 3.33112
# Velocity P-wave (km/s) = 6.03989 6.44478 6.24562
#
# Compressibility (1/GPa) = 0.02322645
#
# Stress axis : x y z
#
# Youngs Moduli (GPa) = 50.40089 44.32864 104.82254
#
# Poissons Ratio (x) = 0.40892 -0.02695
# Poissons Ratio (y) = 0.46494 0.56488
# Poissons Ratio (z) = -0.01296 0.23888
#
# Static dielectric constant tensor:
#      x y z
#    x 1.645250 0.000000 0.000000 
#    y 0.000000 1.708160 0.000000 
#    z 0.000000 0.000000 1.622090 
# 
# From -- ./inp_files/20498.got.cif
#   From: 2010.05.17/outbox.cif.g08.bks.cpg/sg74_11_cif.got.tgz:20498.got - 2010.06.03 17:57:02.
