data_PCOD9538888
_publ_section_title
;
Structure prediction by ZEFSAII (Michael W. Deem and Ramdas Pophale) SiO2 
 PCOD9538888
Probable space group: I M M A
;
_chemical_formula_sum "Si O2"
_cell_formula_units_Z 64
_cell_length_a 23.530955
_cell_length_b 15.025341
_cell_length_c 9.792226
_cell_angle_alpha 90.000000
_cell_angle_beta 90.000000
_cell_angle_gamma 90.000000
_cell_volume 3462.145524
_symmetry_space_group_name_H-M "I M M A"
_symmetry_group_IT_number 74
_symmetry_cell_setting 'orthorhombic'
loop_
_space_group_symop_operation_xyz
x,y,z
-x,1/2-y,z
x,-y,-z
-x,1/2+y,-z
-x,-y,-z
x,1/2+y,-z
-x,y,z
x,1/2-y,z
1/2+x,1/2+y,1/2+z
1/2-x,-y,1/2+z
1/2+x,1/2-y,1/2-z
1/2-x,y,1/2-z
1/2-x,1/2-y,1/2-z
1/2+x,y,1/2-z
1/2-x,1/2+y,1/2+z
1/2+x,-y,1/2+z
loop_
_atom_site_type_symbol
_atom_site_label
_atom_site_fract_x
_atom_site_fract_y
_atom_site_fract_z
Si Si1 0.404478 0.349676 0.299195
Si Si2 0.896113 0.020454 0.645400
Si Si3 0.500000 0.647416 0.171584
Si Si4 0.000000 0.392625 0.990680
Si Si5 0.805454 0.526533 0.843485
O O1 0.406799 0.250000 0.244764
O O2 0.424066 0.427488 0.196182
O O3 0.444861 0.358112 0.429815
O O4 0.340807 0.380958 0.337391
O O5 0.943636 0.094516 0.627515
O O6 0.867535 0.000000 0.500000
O O7 0.850361 0.038741 0.764816
O O8 0.500000 0.750000 0.129735
O O9 0.500000 0.638757 0.336111
O O10 0.000000 0.500000 0.000000
O O11 0.750000 0.530736 0.750000
O O12 0.795475 0.500000 0.000000
#
# Coordination Sequence:
#
# PCOD9538888 Si02
#       5
#    16  16   8   8  16
#     4  10  21  35  62  89 121 158 202 248 294 363
#     4  10  22  39  59  88 124 158 200 242 304 358
#     4  12  23  35  60  89 126 159 196 250 296 356
#     4  12  18  37  58  88 123 160 201 244 298 359
#     4  10  21  38  65  87 118 159 206 247 304 354
#
# _framework density 18.485647
#
# number of rings (size 3 to 8) (size 9 to 14) (size 15 to 20)
#    1.500    0.000    2.500    4.500    0.000    1.500 
#    0.000    0.000    0.000    1.500    0.000    0.000 
#    0.000    0.000    0.000    0.000    0.000    0.000 
#
# Total GULP energy -178196.781555 kJ/mol
# GULP energy per Si atom -5568.649424 kJ/mol
# Density = 1.844357 g / cm^3
# Si number density = 18.485647 Si / 1000 Ang^3
#
#
#
# Elastic Constant Matrix: (Units=GPa)
#
#
# Indices 1 2 3 4 5 6 
#
# 1 115.1109 33.1564 35.2730 0.0000 0.0000 0.0000
# 2 33.1564 124.5022 5.7484 0.0000 0.0000 0.0000
# 3 35.2730 5.7484 118.9106 0.0000 0.0000 0.0000
# 4 0.0000 0.0000 0.0000 3.0684 0.0000 0.0000
# 5 0.0000 0.0000 0.0000 0.0000 27.3219 0.0000
# 6 0.0000 0.0000 0.0000 0.0000 0.0000 33.7552
#
#
#
# Elastic Compliance Matrix: (Units=1/GPa)
#
#
# Indices 1 2 3 4 5 6 
#
# 1 0.010343 -0.002619 -0.002941 0.000000 0.000000 0.000000
# 2 -0.002619 0.008713 0.000356 0.000000 0.000000 0.000000
# 3 -0.002941 0.000356 0.009265 0.000000 0.000000 0.000000
# 4 0.000000 0.000000 0.000000 0.325906 0.000000 0.000000
# 5 0.000000 0.000000 0.000000 0.000000 0.036601 0.000000
# 6 0.000000 0.000000 0.000000 0.000000 0.000000 0.029625
#
#
# Mechanical properties :
#
#
# Convention : Reuss Voigt Hill
#
# Bulk Modulus (GPa) = 55.82906 56.31992 56.07449
# Shear Modulus (GPa) = 11.44606 31.78551 21.61578
#
# Velocity S-wave (km/s) = 2.49104 4.15115 3.42325
# Velocity P-wave (km/s) = 6.20811 7.31499 6.78416
#
# Compressibility (1/GPa) = 0.01791182
#
# Stress axis : x y z
#
# Youngs Moduli (GPa) = 96.68490 114.77185 107.93273
#
# Poissons Ratio (x) = 0.30054 0.31748
# Poissons Ratio (y) = 0.25318 -0.03838
# Poissons Ratio (z) = 0.28440 -0.04081
#
# Static dielectric constant tensor:
#      x y z
#    x 1.645260 0.000000 0.000000 
#    y 0.000000 1.643020 0.000000 
#    z 0.000000 0.000000 1.647840 
# 
# From -- ./inp_files/13302.got.cif
#   From: 2010.05.17/outbox.cif.g08.bks.cpg/sg74_7_cif.got.tgz:13302.got - 2010.06.03 17:57:02.
