data_PCOD9538076
_publ_section_title
;
Structure prediction by ZEFSAII (Michael W. Deem and Ramdas Pophale) SiO2 
 PCOD9538076
Probable space group: I M M A
;
_chemical_formula_sum "Si O2"
_cell_formula_units_Z 96
_cell_length_a 18.077527
_cell_length_b 24.410682
_cell_length_c 11.609124
_cell_angle_alpha 90.000000
_cell_angle_beta 90.000000
_cell_angle_gamma 90.000000
_cell_volume 5122.929532
_symmetry_space_group_name_H-M "I M M A"
_symmetry_group_IT_number 74
_symmetry_cell_setting 'orthorhombic'
loop_
_space_group_symop_operation_xyz
x,y,z
-x,1/2-y,z
x,-y,-z
-x,1/2+y,-z
-x,-y,-z
x,1/2+y,-z
-x,y,z
x,1/2-y,z
1/2+x,1/2+y,1/2+z
1/2-x,-y,1/2+z
1/2+x,1/2-y,1/2-z
1/2-x,y,1/2-z
1/2-x,1/2-y,1/2-z
1/2+x,y,1/2-z
1/2-x,1/2+y,1/2+z
1/2+x,-y,1/2+z
loop_
_atom_site_type_symbol
_atom_site_label
_atom_site_fract_x
_atom_site_fract_y
_atom_site_fract_z
Si Si1 0.368551 0.123900 0.422725
Si Si2 0.166769 0.688086 0.296222
Si Si3 0.195409 0.008170 0.137511
Si Si4 0.583861 0.092688 0.669571
Si Si5 0.784950 0.686802 0.556237
Si Si6 0.079972 0.684099 0.707567
O O1 0.349996 0.064666 0.369553
O O2 0.411523 0.116490 0.540905
O O3 0.289347 0.152186 0.446647
O O4 0.412976 0.161295 0.335043
O O5 0.144619 0.750000 0.259946
O O6 0.250000 0.678592 0.250000
O O7 0.113958 0.640698 0.251549
O O8 0.175431 0.687073 0.433058
O O9 0.250000 0.010790 0.250000
O O10 0.140411 0.958049 0.165462
O O11 0.222769 0.000000 0.000000
O O12 0.500000 0.076679 0.697956
O O13 0.765988 0.750000 0.586028
O O14 0.846061 0.664494 0.643883
O O15 0.082714 0.750000 0.704970
O O16 0.000000 0.667600 0.657300
#
# Coordination Sequence:
#
# PCOD9538076 Si02
#       6
#    16  16  16  16  16  16
#     4  11  21  37  60  87 114 153 203 247 296 352
#     4  10  20  37  61  87 117 153 196 246 297 353
#     4  10  23  40  64  89 115 157 203 254 302 359
#     4  11  24  39  59  87 121 155 193 246 306 361
#     4  10  20  35  60  87 116 154 200 247 295 356
#     4  10  21  35  53  82 122 158 189 237 299 358
#
# _framework density 18.739277000000001
#
# number of rings (size 3 to 8) (size 9 to 14) (size 15 to 20)
#    0.000    1.667    1.667    3.000    2.333    6.667 
#    0.000    1.667    0.000    0.500    0.000    0.000 
#    0.000    0.000    0.000    0.000    0.000    0.000 
#
# Total GULP energy -267683.647479 kJ/mol
# GULP energy per Si atom -5576.742656 kJ/mol
# Density = 1.869663 g / cm^3
# Si number density = 18.739277 Si / 1000 Ang^3
#
#
#
# Elastic Constant Matrix: (Units=GPa)
#
#
# Indices 1 2 3 4 5 6 
#
# 1 71.3226 28.2115 16.5645 0.0000 0.0000 0.0000
# 2 28.2115 54.6196 5.5124 0.0000 0.0000 0.0000
# 3 16.5645 5.5124 46.0470 0.0000 0.0000 0.0000
# 4 0.0000 0.0000 0.0000 12.5486 0.0000 0.0000
# 5 0.0000 0.0000 0.0000 0.0000 16.6451 0.0000
# 6 0.0000 0.0000 0.0000 0.0000 0.0000 67.9388
#
#
#
# Elastic Compliance Matrix: (Units=1/GPa)
#
#
# Indices 1 2 3 4 5 6 
#
# 1 0.019006 -0.009238 -0.005731 0.000000 0.000000 0.000000
# 2 -0.009238 0.023023 0.000567 0.000000 0.000000 0.000000
# 3 -0.005731 0.000567 0.023711 0.000000 0.000000 0.000000
# 4 0.000000 0.000000 0.000000 0.079690 0.000000 0.000000
# 5 0.000000 0.000000 0.000000 0.000000 0.060078 0.000000
# 6 0.000000 0.000000 0.000000 0.000000 0.000000 0.014719
#
#
# Mechanical properties :
#
#
# Convention : Reuss Voigt Hill
#
# Bulk Modulus (GPa) = 27.07453 30.28511 28.67982
# Shear Modulus (GPa) = 19.13194 27.53988 23.33591
#
# Velocity S-wave (km/s) = 3.19870 3.83774 3.53270
# Velocity P-wave (km/s) = 5.30298 5.98615 5.65490
#
# Compressibility (1/GPa) = 0.03693508
#
# Stress axis : x y z
#
# Youngs Moduli (GPa) = 52.61475 43.43497 42.17505
#
# Poissons Ratio (x) = 0.40127 0.24171
# Poissons Ratio (y) = 0.48608 -0.02392
# Poissons Ratio (z) = 0.30154 -0.02464
#
# Static dielectric constant tensor:
#      x y z
#    x 1.690280 0.000000 0.000000 
#    y 0.000000 1.643240 0.000000 
#    z 0.000000 0.000000 1.689800 
# 
# From -- ./inp_files/22479.got.cif
#   From: 2010.05.17/outbox.cif.g08.bks.cpg/sg74_12_cif.got.tgz:22479.got - 2010.06.03 17:57:02.
