data_PCOD9538415
_publ_section_title
;
Structure prediction by ZEFSAII (Michael W. Deem and Ramdas Pophale) SiO2 
 PCOD9538415
Probable space group: I M M A
;
_chemical_formula_sum "Si O2"
_cell_formula_units_Z 64
_cell_length_a 16.783639
_cell_length_b 21.345176
_cell_length_c 9.424134
_cell_angle_alpha 90.000000
_cell_angle_beta 90.000000
_cell_angle_gamma 90.000000
_cell_volume 3376.193446
_symmetry_space_group_name_H-M "I M M A"
_symmetry_group_IT_number 74
_symmetry_cell_setting 'orthorhombic'
loop_
_space_group_symop_operation_xyz
x,y,z
-x,1/2-y,z
x,-y,-z
-x,1/2+y,-z
-x,-y,-z
x,1/2+y,-z
-x,y,z
x,1/2-y,z
1/2+x,1/2+y,1/2+z
1/2-x,-y,1/2+z
1/2+x,1/2-y,1/2-z
1/2-x,y,1/2-z
1/2-x,1/2-y,1/2-z
1/2+x,y,1/2-z
1/2-x,1/2+y,1/2+z
1/2+x,-y,1/2+z
loop_
_atom_site_type_symbol
_atom_site_label
_atom_site_fract_x
_atom_site_fract_y
_atom_site_fract_z
Si Si1 0.341344 0.631166 0.199231
Si Si2 0.905614 0.863867 0.613287
Si Si3 0.403050 0.750000 0.686422
Si Si4 0.832452 0.492637 0.331924
Si Si5 0.405621 0.250000 0.632779
O O1 0.250000 0.631018 0.250000
O O2 0.369031 0.558865 0.219884
O O3 0.381361 0.687028 0.285564
O O4 0.356921 0.643683 0.032832
O O5 0.880554 0.811325 0.725241
O O6 0.888631 0.932456 0.676874
O O7 0.000000 0.857062 0.581796
O O8 0.500000 0.750000 0.680388
O O9 0.371469 0.750000 0.526696
O O10 0.814782 0.500000 0.500000
O O11 0.750000 0.481515 0.250000
O O12 0.500000 0.250000 0.622682
#
# Coordination Sequence:
#
# PCOD9538415 Si02
#       5
#    16  16   8  16   8
#     4  10  21  37  56  82 113 144 182 230 282 337
#     4  10  20  37  60  83 111 148 190 231 274 330
#     4   9  21  37  52  78 110 141 180 227 276 325
#     4   9  20  36  56  82 113 145 182 230 279 334
#     4  11  22  37  57  80 111 147 188 235 279 327
#
# _framework density 18.956258999999999
#
# number of rings (size 3 to 8) (size 9 to 14) (size 15 to 20)
#    0.000    2.250    0.000    1.875    0.000   12.500 
#    0.000    1.875    0.000    5.250    0.000    0.000 
#    0.000    0.000    0.000    0.000    0.000    0.000 
#
# Total GULP energy -178457.964448 kJ/mol
# GULP energy per Si atom -5576.811389 kJ/mol
# Density = 1.891311 g / cm^3
# Si number density = 18.956259 Si / 1000 Ang^3
#
#
#
# Elastic Constant Matrix: (Units=GPa)
#
#
# Indices 1 2 3 4 5 6 
#
# 1 31.8385 42.7493 25.0582 0.0000 0.0000 0.0000
# 2 42.7493 174.6345 104.6711 0.0000 0.0000 0.0000
# 3 25.0582 104.6711 101.0212 0.0000 0.0000 0.0000
# 4 0.0000 0.0000 0.0000 16.9979 0.0000 0.0000
# 5 0.0000 0.0000 0.0000 0.0000 31.6428 0.0000
# 6 0.0000 0.0000 0.0000 0.0000 0.0000 36.7244
#
#
#
# Elastic Compliance Matrix: (Units=1/GPa)
#
#
# Indices 1 2 3 4 5 6 
#
# 1 0.046805 -0.011871 0.000690 0.000000 0.000000 0.000000
# 2 -0.011871 0.018121 -0.015831 0.000000 0.000000 0.000000
# 3 0.000690 -0.015831 0.026131 0.000000 0.000000 0.000000
# 4 0.000000 0.000000 0.000000 0.058831 0.000000 0.000000
# 5 0.000000 0.000000 0.000000 0.000000 0.031603 0.000000
# 6 0.000000 0.000000 0.000000 0.000000 0.000000 0.027230
#
#
# Mechanical properties :
#
#
# Convention : Reuss Voigt Hill
#
# Bulk Modulus (GPa) = 27.00340 72.49461 49.74900
# Shear Modulus (GPa) = 18.17604 26.07403 22.12503
#
# Velocity S-wave (km/s) = 3.09987 3.71278 3.42008
# Velocity P-wave (km/s) = 5.20465 7.53032 6.47279
#
# Compressibility (1/GPa) = 0.03703237
#
# Stress axis : x y z
#
# Youngs Moduli (GPa) = 21.36540 55.18509 38.26935
#
# Poissons Ratio (x) = 0.65511 -0.02642
# Poissons Ratio (y) = 0.25363 0.60584
# Poissons Ratio (z) = -0.01475 0.87363
#
# Static dielectric constant tensor:
#      x y z
#    x 1.650420 0.000000 0.000000 
#    y 0.000000 1.680530 0.000000 
#    z 0.000000 0.000000 1.643790 
# 
# From -- ./inp_files/10295.got.cif
#   From: 2010.05.17/outbox.cif.g08.bks.cpg/sg74_6_cif.got.tgz:10295.got - 2010.06.03 17:57:02.
