data_PCOD9538913
_publ_section_title
;
Structure prediction by ZEFSAII (Michael W. Deem and Ramdas Pophale) SiO2 
 PCOD9538913
Probable space group: I M M A
;
_chemical_formula_sum "Si O2"
_cell_formula_units_Z 100
_cell_length_a 9.334691
_cell_length_b 18.656898
_cell_length_c 30.391183
_cell_angle_alpha 90.000000
_cell_angle_beta 90.000000
_cell_angle_gamma 90.000000
_cell_volume 5292.818350
_symmetry_space_group_name_H-M "I M M A"
_symmetry_group_IT_number 74
_symmetry_cell_setting 'orthorhombic'
loop_
_space_group_symop_operation_xyz
x,y,z
-x,1/2-y,z
x,-y,-z
-x,1/2+y,-z
-x,-y,-z
x,1/2+y,-z
-x,y,z
x,1/2-y,z
1/2+x,1/2+y,1/2+z
1/2-x,-y,1/2+z
1/2+x,1/2-y,1/2-z
1/2-x,y,1/2-z
1/2-x,1/2-y,1/2-z
1/2+x,y,1/2-z
1/2-x,1/2+y,1/2+z
1/2+x,-y,1/2+z
loop_
_atom_site_type_symbol
_atom_site_label
_atom_site_fract_x
_atom_site_fract_y
_atom_site_fract_z
Si Si1 0.330803 0.560625 0.536395
Si Si2 0.500000 0.750000 0.897948
Si Si3 0.665693 0.336807 0.875694
Si Si4 0.163195 0.164439 0.961044
Si Si5 0.342124 0.104192 0.119009
Si Si6 0.666594 0.924960 0.705712
Si Si7 0.165992 0.901783 0.206003
O O1 0.298999 0.500000 0.500000
O O2 0.500000 0.555609 0.547479
O O3 0.303435 0.632790 0.508590
O O4 0.236802 0.561918 0.579980
O O5 0.377808 0.814566 0.895634
O O6 0.500000 0.357420 0.871833
O O7 0.674394 0.250000 0.873824
O O8 0.731344 0.359846 0.922550
O O9 0.757974 0.369323 0.836486
O O10 0.167102 0.250000 0.962532
O O11 0.000000 0.141513 0.950069
O O12 0.500000 0.071673 0.128717
O O13 0.246770 0.103342 0.162644
O O14 0.500000 0.903492 0.707316
O O15 0.750000 0.902983 0.750000
O O16 0.671366 0.011758 0.703491
O O17 0.250000 0.879538 0.250000
O O18 0.000000 0.879960 0.208208
#
# Coordination Sequence:
#
# PCOD9538913 Si02
#       7
#    16   4  16  16  16  16  16
#     4  10  22  38  59  92 127 159 204 254 305 360
#     4   8  24  44  62  92 126 164 204 252 302 372
#     4  10  21  36  53  78 113 153 198 243 290 345
#     4   9  19  35  55  78 110 156 200 242 292 350
#     4  10  22  41  64  87 127 159 200 248 303 359
#     4  10  21  39  65  93 120 156 201 249 305 369
#     4  10  21  36  57  84 113 148 193 241 295 354
#
# _framework density 18.893525
#
# number of rings (size 3 to 8) (size 9 to 14) (size 15 to 20)
#    0.480    1.760    0.000    1.920    3.360    4.160 
#    0.000    1.600    0.000    0.000    0.000    0.000 
#    0.000    0.000    0.000    0.000    0.000    0.000 
#
# Total GULP energy -278426.316709 kJ/mol
# GULP energy per Si atom -5568.526334 kJ/mol
# Density = 1.885052 g / cm^3
# Si number density = 18.893525 Si / 1000 Ang^3
#
#
#
# Elastic Constant Matrix: (Units=GPa)
#
#
# Indices 1 2 3 4 5 6 
#
# 1 133.1391 29.0521 63.5786 0.0000 0.0000 0.0000
# 2 29.0521 18.2754 22.2221 0.0000 0.0000 0.0000
# 3 63.5786 22.2221 90.7606 0.0000 0.0000 0.0000
# 4 0.0000 0.0000 0.0000 14.3077 0.0000 0.0000
# 5 0.0000 0.0000 0.0000 0.0000 35.2092 0.0000
# 6 0.0000 0.0000 0.0000 0.0000 0.0000 23.7373
#
#
#
# Elastic Compliance Matrix: (Units=1/GPa)
#
#
# Indices 1 2 3 4 5 6 
#
# 1 0.013435 -0.014116 -0.005955 0.000000 0.000000 0.000000
# 2 -0.014116 0.092748 -0.012820 0.000000 0.000000 0.000000
# 3 -0.005955 -0.012820 0.018328 0.000000 0.000000 0.000000
# 4 0.000000 0.000000 0.000000 0.069892 0.000000 0.000000
# 5 0.000000 0.000000 0.000000 0.000000 0.028402 0.000000
# 6 0.000000 0.000000 0.000000 0.000000 0.000000 0.042128
#
#
# Mechanical properties :
#
#
# Convention : Reuss Voigt Hill
#
# Bulk Modulus (GPa) = 17.02757 52.43118 34.72938
# Shear Modulus (GPa) = 14.27381 23.13899 18.70640
#
# Velocity S-wave (km/s) = 2.75159 3.50338 3.14999
# Velocity P-wave (km/s) = 4.37344 6.64650 5.62596
#
# Compressibility (1/GPa) = 0.05872829
#
# Stress axis : x y z
#
# Youngs Moduli (GPa) = 74.43248 10.78195 54.56007
#
# Poissons Ratio (x) = 0.15220 0.32491
# Poissons Ratio (y) = 1.05072 0.69946
# Poissons Ratio (z) = 0.44325 0.13822
#
# Static dielectric constant tensor:
#      x y z
#    x 1.655450 0.000000 0.000000 
#    y 0.000000 1.674470 0.000000 
#    z 0.000000 0.000000 1.625420 
# 
# From -- ./inp_files/70606.got.cif
#   From: 2010.05.17/outbox.cif.g08.bks.cpg/sg74_36_cif.got.tgz:70606.got - 2010.06.03 17:57:02.
