data_PCOD9538221
_publ_section_title
;
Structure prediction by ZEFSAII (Michael W. Deem and Ramdas Pophale) SiO2 
 PCOD9538221
Probable space group: I M M A
;
_chemical_formula_sum "Si O2"
_cell_formula_units_Z 64
_cell_length_a 7.729485
_cell_length_b 15.697561
_cell_length_c 28.147920
_cell_angle_alpha 90.000000
_cell_angle_beta 90.000000
_cell_angle_gamma 90.000000
_cell_volume 3415.301479
_symmetry_space_group_name_H-M "I M M A"
_symmetry_group_IT_number 74
_symmetry_cell_setting 'orthorhombic'
loop_
_space_group_symop_operation_xyz
x,y,z
-x,1/2-y,z
x,-y,-z
-x,1/2+y,-z
-x,-y,-z
x,1/2+y,-z
-x,y,z
x,1/2-y,z
1/2+x,1/2+y,1/2+z
1/2-x,-y,1/2+z
1/2+x,1/2-y,1/2-z
1/2-x,y,1/2-z
1/2-x,1/2-y,1/2-z
1/2+x,y,1/2-z
1/2-x,1/2+y,1/2+z
1/2+x,-y,1/2+z
loop_
_atom_site_type_symbol
_atom_site_label
_atom_site_fract_x
_atom_site_fract_y
_atom_site_fract_z
Si Si1 0.791295 0.250000 0.805358
Si Si2 0.802490 0.916233 0.140989
Si Si3 0.000000 0.852993 0.946009
Si Si4 0.000000 0.352337 0.943990
Si Si5 0.206138 0.750000 0.694847
Si Si6 0.698648 0.898122 0.875398
O O1 0.750000 0.250000 0.750000
O O2 0.727463 0.163541 0.830382
O O3 0.000000 0.250000 0.812713
O O4 0.000000 0.932008 0.159207
O O5 0.837675 0.887165 0.086496
O O6 0.705824 0.004985 0.142479
O O7 0.831203 0.887394 0.918820
O O8 0.000000 0.750000 0.943071
O O9 0.000000 0.877446 0.001324
O O10 0.000000 0.250000 0.940543
O O11 0.250000 0.750000 0.750000
O O12 0.262427 0.666635 0.665576
O O13 0.000000 0.750000 0.692799
O O14 0.500000 0.876488 0.888126
#
# Coordination Sequence:
#
# PCOD9538221 Si02
#       6
#     8  16   8   8   8  16
#     4  10  20  36  58  86 117 158 203 257 300 357
#     4   9  18  37  61  81 118 160 199 243 302 356
#     4  11  21  37  69  92 117 169 202 241 313 362
#     4   9  17  37  67  92 115 161 214 239 299 372
#     4  10  24  40  58  82 119 154 201 254 299 356
#     4  11  23  39  59  91 123 155 202 252 298 363
#
# _framework density 18.739194999999999
#
# number of rings (size 3 to 8) (size 9 to 14) (size 15 to 20)
#    0.750    1.250    3.750    0.000    1.750    4.000 
#    0.000    7.500    0.000    1.500    0.000    0.000 
#    0.000    0.000    0.000    0.000    0.000    0.000 
#
# Total GULP energy -178354.179731 kJ/mol
# GULP energy per Si atom -5573.568117 kJ/mol
# Density = 1.869654 g / cm^3
# Si number density = 18.739195 Si / 1000 Ang^3
#
#
#
# Elastic Constant Matrix: (Units=GPa)
#
#
# Indices 1 2 3 4 5 6 
#
# 1 62.2469 23.1246 28.9096 0.0000 0.0000 0.0000
# 2 23.1246 149.3106 78.9791 0.0000 0.0000 0.0000
# 3 28.9096 78.9791 160.6964 0.0000 0.0000 0.0000
# 4 0.0000 0.0000 0.0000 2.0217 0.0000 0.0000
# 5 0.0000 0.0000 0.0000 0.0000 20.7150 0.0000
# 6 0.0000 0.0000 0.0000 0.0000 0.0000 2.9644
#
#
#
# Elastic Compliance Matrix: (Units=1/GPa)
#
#
# Indices 1 2 3 4 5 6 
#
# 1 0.017754 -0.001433 -0.002490 0.000000 0.000000 0.000000
# 2 -0.001433 0.009166 -0.004247 0.000000 0.000000 0.000000
# 3 -0.002490 -0.004247 0.008758 0.000000 0.000000 0.000000
# 4 0.000000 0.000000 0.000000 0.494634 0.000000 0.000000
# 5 0.000000 0.000000 0.000000 0.000000 0.048274 0.000000
# 6 0.000000 0.000000 0.000000 0.000000 0.000000 0.337334
#
#
# Mechanical properties :
#
#
# Convention : Reuss Voigt Hill
#
# Bulk Modulus (GPa) = 51.70992 70.47561 61.09277
# Shear Modulus (GPa) = 5.32649 21.22292 13.27470
#
# Velocity S-wave (km/s) = 1.68778 3.36898 2.66445
# Velocity P-wave (km/s) = 5.60826 7.26799 6.49139
#
# Compressibility (1/GPa) = 0.01933865
#
# Stress axis : x y z
#
# Youngs Moduli (GPa) = 56.32648 109.10036 114.17846
#
# Poissons Ratio (x) = 0.15630 0.28428
# Poissons Ratio (y) = 0.08069 0.48493
# Poissons Ratio (z) = 0.14024 0.46336
#
# Static dielectric constant tensor:
#      x y z
#    x 1.672520 0.000000 0.000000 
#    y 0.000000 1.675310 0.000000 
#    z 0.000000 0.000000 1.629850 
# 
# From -- ./inp_files/63569.got.cif
#   From: 2010.05.17/outbox.cif.g08.bks.cpg/sg74_32_cif.got.tgz:63569.got - 2010.06.03 17:57:02.
