data_PCOD9538505
_publ_section_title
;
Structure prediction by ZEFSAII (Michael W. Deem and Ramdas Pophale) SiO2 
 PCOD9538505
Probable space group: I M M A
;
_chemical_formula_sum "Si O2"
_cell_formula_units_Z 88
_cell_length_a 8.078611
_cell_length_b 20.848783
_cell_length_c 23.519364
_cell_angle_alpha 90.000000
_cell_angle_beta 90.000000
_cell_angle_gamma 90.000000
_cell_volume 3961.347844
_symmetry_space_group_name_H-M "I M M A"
_symmetry_group_IT_number 74
_symmetry_cell_setting 'orthorhombic'
loop_
_space_group_symop_operation_xyz
x,y,z
-x,1/2-y,z
x,-y,-z
-x,1/2+y,-z
-x,-y,-z
x,1/2+y,-z
-x,y,z
x,1/2-y,z
1/2+x,1/2+y,1/2+z
1/2-x,-y,1/2+z
1/2+x,1/2-y,1/2-z
1/2-x,y,1/2-z
1/2-x,1/2-y,1/2-z
1/2+x,y,1/2-z
1/2-x,1/2+y,1/2+z
1/2+x,-y,1/2+z
loop_
_atom_site_type_symbol
_atom_site_label
_atom_site_fract_x
_atom_site_fract_y
_atom_site_fract_z
Si Si1 0.300287 0.178199 0.842544
Si Si2 0.200258 0.645969 0.590702
Si Si3 0.190364 0.498458 0.423327
Si Si4 0.694584 0.750000 0.683323
Si Si5 0.799217 0.367143 0.532522
Si Si6 0.812711 0.047895 0.809236
O O1 0.500000 0.168433 0.837494
O O2 0.261599 0.250000 0.825048
O O3 0.254471 0.168098 0.909285
O O4 0.201407 0.124630 0.808794
O O5 0.262338 0.572203 0.587848
O O6 0.254568 0.688808 0.643967
O O7 0.248841 0.666963 0.526351
O O8 0.000000 0.646183 0.593663
O O9 0.257804 0.557593 0.461999
O O10 0.196492 0.528698 0.360770
O O11 0.000000 0.488045 0.440120
O O12 0.500000 0.750000 0.686258
O O13 0.750000 0.750000 0.750000
O O14 0.000000 0.370196 0.532352
O O15 0.750000 0.020907 0.750000
O O16 0.000000 0.028349 0.821170
#
# Coordination Sequence:
#
# PCOD9538505 Si02
#       6
#    16  16  16   8  16  16
#     4   9  18  33  54  81 113 150 190 235 278 326
#     4  10  20  37  66  94 118 151 191 235 290 349
#     4   9  18  35  59  90 121 150 188 238 288 343
#     4  12  28  48  64  84 118 158 205 256 301 354
#     4   8  15  30  58  93 122 148 186 231 279 341
#     4  11  22  36  54  76 107 149 193 240 286 339
#
# _framework density 22.214659999999999
#
# number of rings (size 3 to 8) (size 9 to 14) (size 15 to 20)
#    0.000    2.364    0.000    4.091    1.273    4.364 
#    0.000    3.636    0.000    5.455    0.000    0.000 
#    0.000    0.000    0.000    0.000    0.000    0.000 
#
# Total GULP energy -245238.776779 kJ/mol
# GULP energy per Si atom -5573.608563 kJ/mol
# Density = 2.216410 g / cm^3
# Si number density = 22.214660 Si / 1000 Ang^3
#
#
#
# Elastic Constant Matrix: (Units=GPa)
#
#
# Indices 1 2 3 4 5 6 
#
# 1 47.4590 7.7540 22.3827 0.0000 0.0000 0.0000
# 2 7.7540 81.2829 32.1986 0.0000 0.0000 0.0000
# 3 22.3827 32.1986 160.4865 0.0000 0.0000 0.0000
# 4 0.0000 0.0000 0.0000 9.7062 0.0000 0.0000
# 5 0.0000 0.0000 0.0000 0.0000 14.2970 0.0000
# 6 0.0000 0.0000 0.0000 0.0000 0.0000 8.6234
#
#
#
# Elastic Compliance Matrix: (Units=1/GPa)
#
#
# Indices 1 2 3 4 5 6 
#
# 1 0.022627 -0.000987 -0.002958 0.000000 0.000000 0.000000
# 2 -0.000987 0.013408 -0.002552 0.000000 0.000000 0.000000
# 3 -0.002958 -0.002552 0.007156 0.000000 0.000000 0.000000
# 4 0.000000 0.000000 0.000000 0.103027 0.000000 0.000000
# 5 0.000000 0.000000 0.000000 0.000000 0.069945 0.000000
# 6 0.000000 0.000000 0.000000 0.000000 0.000000 0.115963
#
#
# Mechanical properties :
#
#
# Convention : Reuss Voigt Hill
#
# Bulk Modulus (GPa) = 33.11636 45.98879 39.55257
# Shear Modulus (GPa) = 14.07716 21.65153 17.86434
#
# Velocity S-wave (km/s) = 2.52005 3.12533 2.83886
# Velocity P-wave (km/s) = 4.83811 5.81124 5.34686
#
# Compressibility (1/GPa) = 0.03019656
#
# Stress axis : x y z
#
# Youngs Moduli (GPa) = 44.19498 74.58269 139.74961
#
# Poissons Ratio (x) = 0.07360 0.41334
# Poissons Ratio (y) = 0.04361 0.35670
# Poissons Ratio (z) = 0.13072 0.19037
#
# Static dielectric constant tensor:
#      x y z
#    x 1.806650 0.000000 0.000000 
#    y 0.000000 1.895940 0.000000 
#    z 0.000000 0.000000 1.851220 
# 
# From -- ./inp_files/57030.got.cif
#   From: 2010.05.17/outbox.cif.g08.bks.cpg/sg74_29_cif.got.tgz:57030.got - 2010.06.03 17:57:02.
