data_PCOD9538818
_publ_section_title
;
Structure prediction by ZEFSAII (Michael W. Deem and Ramdas Pophale) SiO2 
 PCOD9538818
Probable space group: I M M A
;
_chemical_formula_sum "Si O2"
_cell_formula_units_Z 116
_cell_length_a 23.719625
_cell_length_b 8.826749
_cell_length_c 27.382342
_cell_angle_alpha 90.000000
_cell_angle_beta 90.000000
_cell_angle_gamma 90.000000
_cell_volume 5732.963624
_symmetry_space_group_name_H-M "I M M A"
_symmetry_group_IT_number 74
_symmetry_cell_setting 'orthorhombic'
loop_
_space_group_symop_operation_xyz
x,y,z
-x,1/2-y,z
x,-y,-z
-x,1/2+y,-z
-x,-y,-z
x,1/2+y,-z
-x,y,z
x,1/2-y,z
1/2+x,1/2+y,1/2+z
1/2-x,-y,1/2+z
1/2+x,1/2-y,1/2-z
1/2-x,y,1/2-z
1/2-x,1/2-y,1/2-z
1/2+x,y,1/2-z
1/2-x,1/2+y,1/2+z
1/2+x,-y,1/2+z
loop_
_atom_site_type_symbol
_atom_site_label
_atom_site_fract_x
_atom_site_fract_y
_atom_site_fract_z
Si Si1 0.361428 0.074505 0.628767
Si Si2 0.566236 0.569003 0.053651
Si Si3 0.067400 0.577931 0.949535
Si Si4 0.000000 0.750000 0.771683
Si Si5 0.882452 0.414302 0.228054
Si Si6 0.797994 0.572140 0.289826
Si Si7 0.332545 0.929551 0.891331
Si Si8 0.763585 0.071882 0.950303
O O1 0.364354 0.250000 0.643955
O O2 0.308049 0.055188 0.593508
O O3 0.413270 0.025236 0.594915
O O4 0.362141 0.966096 0.674990
O O5 0.500000 0.536480 0.063297
O O6 0.573760 0.250000 0.948391
O O7 0.606866 0.500769 0.095110
O O8 0.579437 0.500000 0.000000
O O9 0.089821 0.750000 0.945200
O O10 0.000000 0.587230 0.949676
O O11 0.084680 0.500000 0.000000
O O12 0.050910 0.879921 0.772079
O O13 0.856437 0.250000 0.241483
O O14 0.858003 0.537534 0.264670
O O15 0.788587 0.750000 0.298881
O O16 0.750000 0.524605 0.250000
O O17 0.803181 0.490098 0.341812
O O18 0.337463 0.750000 0.888856
O O19 0.292157 0.982966 0.935068
O O20 0.752302 0.250000 0.956639
O O21 0.786132 0.000000 0.000000
#
# Coordination Sequence:
#
# PCOD9538818 Si02
#       8
#    16  16  16   4  16  16  16  16
#     4  11  23  37  59  87 117 157 207 256 314 370
#     4  10  21  40  66  96 132 172 214 257 307 367
#     4  10  21  35  52  75 107 146 192 247 305 365
#     4   8  24  44  64  92 130 164 218 266 328 376
#     4  10  22  42  65  90 126 164 210 263 320 381
#     4  11  24  44  69  97 129 163 211 268 328 391
#     4  12  25  41  65  96 127 168 210 253 312 377
#     4  11  24  41  60  88 129 167 209 261 314 376
#
# _framework density 20.233864000000001
#
# number of rings (size 3 to 8) (size 9 to 14) (size 15 to 20)
#    0.414    0.966    0.000    5.379    0.966    9.379 
#    1.241    1.034    0.000    0.000    0.000    0.000 
#    0.000    0.000    0.000    0.000    0.000    0.000 
#
# Total GULP energy -323372.781523 kJ/mol
# GULP energy per Si atom -5575.392785 kJ/mol
# Density = 2.018781 g / cm^3
# Si number density = 20.233864 Si / 1000 Ang^3
#
#
#
# Elastic Constant Matrix: (Units=GPa)
#
#
# Indices 1 2 3 4 5 6 
#
# 1 90.8392 55.6525 35.1175 0.0000 0.0000 0.0000
# 2 55.6525 89.5154 23.9814 0.0000 0.0000 0.0000
# 3 35.1175 23.9814 66.9551 0.0000 0.0000 0.0000
# 4 0.0000 0.0000 0.0000 32.6139 0.0000 0.0000
# 5 0.0000 0.0000 0.0000 0.0000 15.9259 0.0000
# 6 0.0000 0.0000 0.0000 0.0000 0.0000 -27.3240
#
#
#
# Elastic Compliance Matrix: (Units=1/GPa)
#
#
# Indices 1 2 3 4 5 6 
#
# 1 0.020205 -0.010754 -0.006745 0.000000 0.000000 0.000000
# 2 -0.010754 0.018081 -0.000836 0.000000 0.000000 0.000000
# 3 -0.006745 -0.000836 0.018773 0.000000 0.000000 0.000000
# 4 0.000000 0.000000 0.000000 0.030662 0.000000 0.000000
# 5 0.000000 0.000000 0.000000 0.000000 0.062791 0.000000
# 6 0.000000 0.000000 0.000000 0.000000 0.000000 -0.036598
#
#
# Mechanical properties :
#
#
# Convention : Reuss Voigt Hill
#
# Bulk Modulus (GPa) = 49.04866 52.97919 51.01392
# Shear Modulus (GPa) = 31.77020 13.08038 22.42529
#
# Velocity S-wave (km/s) = 3.96681 2.54532 3.33273
# Velocity P-wave (km/s) = 6.72862 5.90580 6.33059
#
# Compressibility (1/GPa) = 0.02038792
#
# Stress axis : x y z
#
# Youngs Moduli (GPa) = 49.49309 55.30601 53.26925
#
# Poissons Ratio (x) = 0.59478 0.35932
# Poissons Ratio (y) = 0.53227 0.04451
# Poissons Ratio (z) = 0.33385 0.04621
#
# Static dielectric constant tensor:
#      x y z
#    x 1.737230 0.000000 0.000000 
#    y 0.000000 1.704390 0.000000 
#    z 0.000000 0.000000 1.597580 
# 
# From -- ./inp_files/68723.got.cif
#   From: 2010.05.17/outbox.cif.g08.bks.cpg/sg74_35_cif.got.tgz:68723.got - 2010.06.03 17:57:02.
