data_PCOD9538213
_publ_section_title
;
Structure prediction by ZEFSAII (Michael W. Deem and Ramdas Pophale) SiO2 
 PCOD9538213
Probable space group: I M M A
;
_chemical_formula_sum "Si O2"
_cell_formula_units_Z 128
_cell_length_a 26.274084
_cell_length_b 7.613479
_cell_length_c 30.020064
_cell_angle_alpha 90.000000
_cell_angle_beta 90.000000
_cell_angle_gamma 90.000000
_cell_volume 6005.129149
_symmetry_space_group_name_H-M "I M M A"
_symmetry_group_IT_number 74
_symmetry_cell_setting 'orthorhombic'
loop_
_space_group_symop_operation_xyz
x,y,z
-x,1/2-y,z
x,-y,-z
-x,1/2+y,-z
-x,-y,-z
x,1/2+y,-z
-x,y,z
x,1/2-y,z
1/2+x,1/2+y,1/2+z
1/2-x,-y,1/2+z
1/2+x,1/2-y,1/2-z
1/2-x,y,1/2-z
1/2-x,1/2-y,1/2-z
1/2+x,y,1/2-z
1/2-x,1/2+y,1/2+z
1/2+x,-y,1/2+z
loop_
_atom_site_type_symbol
_atom_site_label
_atom_site_fract_x
_atom_site_fract_y
_atom_site_fract_z
Si Si1 0.648954 0.538886 0.551787
Si Si2 0.657334 0.044964 0.947868
Si Si3 0.610600 0.035290 0.197530
Si Si4 0.441488 0.464733 0.386762
Si Si5 0.771976 0.534883 0.702450
Si Si6 0.243740 0.544241 0.892621
Si Si7 0.440860 0.963435 0.712094
Si Si8 0.057584 0.538705 0.606552
O O1 0.649430 0.500000 0.500000
O O2 0.648731 0.750000 0.555906
O O3 0.598324 0.474093 0.576596
O O4 0.699686 0.469683 0.576006
O O5 0.834946 0.750000 0.443240
O O6 0.701421 0.963891 0.916871
O O7 0.600997 0.002070 0.929645
O O8 0.662618 0.000000 0.000000
O O9 0.608699 0.250000 0.197094
O O10 0.669344 0.984593 0.195713
O O11 0.588448 0.973934 0.244587
O O12 0.578708 0.976016 0.154546
O O13 0.500000 0.520692 0.393579
O O14 0.442260 0.250000 0.387041
O O15 0.423935 0.518959 0.337125
O O16 0.770248 0.750000 0.703076
O O17 0.750000 0.476486 0.750000
O O18 0.744390 0.471961 0.657551
O O19 0.232352 0.750000 0.887160
O O20 0.500000 0.010191 0.716339
O O21 0.437843 0.750000 0.712530
O O22 0.054905 0.750000 0.608895
O O23 0.000000 0.474571 0.597615
#
# Coordination Sequence:
#
# PCOD9538213 Si02
#       8
#    16  16  16  16  16  16  16  16
#     4  10  21  34  52  76 102 136 179 225 271 320
#     4  12  25  41  62  83 108 143 186 232 286 338
#     4   9  15  25  45  74 109 143 177 213 259 316
#     4   8  15  28  45  70 107 144 175 214 268 323
#     4   9  17  27  46  78 111 142 175 217 267 320
#     4  10  20  37  57  81 113 144 182 227 276 333
#     4   8  13  21  37  66 102 136 168 205 252 306
#     4  10  20  36  58  85 117 150 184 227 278 330
#
# _framework density 21.315111999999999
#
# number of rings (size 3 to 8) (size 9 to 14) (size 15 to 20)
#    0.000    2.500    1.250    2.625    1.750    3.750 
#    0.000    0.000    0.000    0.375    0.000    0.875 
#    0.000    1.000    0.000    0.000    0.000    0.000 
#
# Total GULP energy -357253.954223 kJ/mol
# GULP energy per Si atom -5582.093035 kJ/mol
# Density = 2.126660 g / cm^3
# Si number density = 21.315112 Si / 1000 Ang^3
#
#
#
# Elastic Constant Matrix: (Units=GPa)
#
#
# Indices 1 2 3 4 5 6 
#
# 1 83.3898 -2.1976 72.7798 0.0000 0.0000 0.0000
# 2 -2.1976 43.4661 0.5852 0.0000 0.0000 0.0000
# 3 72.7798 0.5852 187.0147 0.0000 0.0000 0.0000
# 4 0.0000 0.0000 0.0000 7.9903 0.0000 0.0000
# 5 0.0000 0.0000 0.0000 0.0000 7.1501 0.0000
# 6 0.0000 0.0000 0.0000 0.0000 0.0000 5.5411
#
#
#
# Elastic Compliance Matrix: (Units=1/GPa)
#
#
# Indices 1 2 3 4 5 6 
#
# 1 0.018205 0.001016 -0.007088 0.000000 0.000000 0.000000
# 2 0.001016 0.023064 -0.000467 0.000000 0.000000 0.000000
# 3 -0.007088 -0.000467 0.008107 0.000000 0.000000 0.000000
# 4 0.000000 0.000000 0.000000 0.125152 0.000000 0.000000
# 5 0.000000 0.000000 0.000000 0.000000 0.139859 0.000000
# 6 0.000000 0.000000 0.000000 0.000000 0.000000 0.180469
#
#
# Mechanical properties :
#
#
# Convention : Reuss Voigt Hill
#
# Bulk Modulus (GPa) = 27.55066 50.68948 39.12007
# Shear Modulus (GPa) = 9.61476 20.31651 14.96564
#
# Velocity S-wave (km/s) = 2.12616 3.09066 2.65262
# Velocity P-wave (km/s) = 4.35671 6.04722 5.27019
#
# Compressibility (1/GPa) = 0.03629677
#
# Stress axis : x y z
#
# Youngs Moduli (GPa) = 54.93098 43.35746 123.35056
#
# Poissons Ratio (x) = -0.04404 0.87429
# Poissons Ratio (y) = -0.05580 0.05767
# Poissons Ratio (z) = 0.38934 0.02027
#
# Static dielectric constant tensor:
#      x y z
#    x 1.775810 0.000000 0.000000 
#    y 0.000000 1.841520 0.000000 
#    z 0.000000 0.000000 1.744320 
# 
# From -- ./inp_files/59287.got.cif
#   From: 2010.05.17/outbox.cif.g08.bks.cpg/sg74_30_cif.got.tgz:59287.got - 2010.06.03 17:57:02.
