data_PCOD9538534
_publ_section_title
;
Structure prediction by ZEFSAII (Michael W. Deem and Ramdas Pophale) SiO2 
 PCOD9538534
Probable space group: I M M A
;
_chemical_formula_sum "Si O2"
_cell_formula_units_Z 88
_cell_length_a 15.510753
_cell_length_b 25.809323
_cell_length_c 11.367042
_cell_angle_alpha 90.000000
_cell_angle_beta 90.000000
_cell_angle_gamma 90.000000
_cell_volume 4550.477376
_symmetry_space_group_name_H-M "I M M A"
_symmetry_group_IT_number 74
_symmetry_cell_setting 'orthorhombic'
loop_
_space_group_symop_operation_xyz
x,y,z
-x,1/2-y,z
x,-y,-z
-x,1/2+y,-z
-x,-y,-z
x,1/2+y,-z
-x,y,z
x,1/2-y,z
1/2+x,1/2+y,1/2+z
1/2-x,-y,1/2+z
1/2+x,1/2-y,1/2-z
1/2-x,y,1/2-z
1/2-x,1/2-y,1/2-z
1/2+x,y,1/2-z
1/2-x,1/2+y,1/2+z
1/2+x,-y,1/2+z
loop_
_atom_site_type_symbol
_atom_site_label
_atom_site_fract_x
_atom_site_fract_y
_atom_site_fract_z
Si Si1 0.904290 0.407326 0.840219
Si Si2 0.000000 0.808592 0.511200
Si Si3 0.250000 0.656325 0.250000
Si Si4 0.000000 0.808587 0.791755
Si Si5 0.807256 0.190257 0.503669
Si Si6 0.152459 0.872460 0.904784
Si Si7 0.807333 0.009697 0.134251
O O1 0.832217 0.380948 0.760996
O O2 0.884128 0.467991 0.857550
O O3 0.000000 0.398679 0.796141
O O4 0.890417 0.380817 0.967087
O O5 0.000000 0.805890 0.651829
O O6 0.905228 0.830642 0.482807
O O7 0.000000 0.750000 0.459640
O O8 0.236671 0.688677 0.367955
O O9 0.914333 0.838577 0.831552
O O10 0.000000 0.750000 0.840126
O O11 0.812143 0.250000 0.461542
O O12 0.744594 0.155797 0.422509
O O13 0.165715 0.930505 0.857904
O O14 0.750000 0.998975 0.250000
O O15 0.770146 0.000000 0.000000
#
# Coordination Sequence:
#
# PCOD9538534 Si02
#       7
#    16   8   8   8  16  16  16
#     4  10  20  38  60  88 121 153 196 256 309 364
#     4   9  22  38  55  79 117 155 197 246 309 365
#     4  10  21  36  62  88 118 158 205 248 310 386
#     4  11  22  38  56  87 123 157 202 258 308 363
#     4  10  21  40  59  85 119 163 206 256 309 370
#     4  10  22  36  61  87 116 156 209 250 304 365
#     4  10  22  39  62  91 125 160 208 257 314 373
#
# _framework density 19.338629999999998
#
# number of rings (size 3 to 8) (size 9 to 14) (size 15 to 20)
#    0.000    2.000    1.818    0.818    5.091    1.091 
#    0.000    2.727    0.000    0.545    0.000    0.000 
#    0.000    0.000    0.000    0.000    0.000    0.000 
#
# Total GULP energy -245261.145937 kJ/mol
# GULP energy per Si atom -5574.116953 kJ/mol
# Density = 1.929461 g / cm^3
# Si number density = 19.338630 Si / 1000 Ang^3
#
#
#
# Elastic Constant Matrix: (Units=GPa)
#
#
# Indices 1 2 3 4 5 6 
#
# 1 158.0759 42.8605 23.0638 0.0000 0.0000 0.0000
# 2 42.8605 100.6103 14.0139 0.0003 0.0000 0.0000
# 3 23.0638 14.0139 52.1785 0.0009 -0.0001 -0.0002
# 4 0.0000 0.0003 0.0009 9.5018 0.0000 -0.0001
# 5 0.0000 0.0000 -0.0001 0.0000 29.3356 0.0000
# 6 0.0000 0.0000 -0.0002 -0.0001 0.0000 11.2085
#
#
#
# Elastic Compliance Matrix: (Units=1/GPa)
#
#
# Indices 1 2 3 4 5 6 
#
# 1 0.007463 -0.002825 -0.002540 0.000000 0.000000 0.000000
# 2 -0.002825 0.011395 -0.001812 0.000000 0.000000 0.000000
# 3 -0.002540 -0.001812 0.020774 -0.000002 0.000000 0.000000
# 4 0.000000 0.000000 -0.000002 0.105243 0.000000 0.000001
# 5 0.000000 0.000000 0.000000 0.000000 0.034088 0.000000
# 6 0.000000 0.000000 0.000000 0.000001 0.000000 0.089218
#
#
# Mechanical properties :
#
#
# Convention : Reuss Voigt Hill
#
# Bulk Modulus (GPa) = 39.55926 52.30457 45.93192
# Shear Modulus (GPa) = 17.18441 25.40428 21.29434
#
# Velocity S-wave (km/s) = 2.98418 3.62837 3.32193
# Velocity P-wave (km/s) = 5.68984 6.68272 6.20617
#
# Compressibility (1/GPa) = 0.02527853
#
# Stress axis : x y z
#
# Youngs Moduli (GPa) = 133.99943 87.75541 48.13667
#
# Poissons Ratio (x) = 0.24794 0.12226
# Poissons Ratio (y) = 0.37860 0.08721
# Poissons Ratio (z) = 0.34034 0.15898
#
# Static dielectric constant tensor:
#      x y z
#    x 1.681300 0.000000 0.000000 
#    y 0.000000 1.667600 0.000000 
#    z 0.000000 0.000000 1.688930 
# 
# From -- ./inp_files/20706.got.cif
#   From: 2010.05.17/outbox.cif.g08.bks.cpg/sg74_11_cif.got.tgz:20706.got - 2010.06.03 17:57:02.
