data_PCOD9538480
_publ_section_title
;
Structure prediction by ZEFSAII (Michael W. Deem and Ramdas Pophale) SiO2 
 PCOD9538480
Probable space group: I M M A
;
_chemical_formula_sum "Si O2"
_cell_formula_units_Z 72
_cell_length_a 8.674915
_cell_length_b 17.124834
_cell_length_c 25.145724
_cell_angle_alpha 90.000000
_cell_angle_beta 90.000000
_cell_angle_gamma 90.000000
_cell_volume 3735.560228
_symmetry_space_group_name_H-M "I M M A"
_symmetry_group_IT_number 74
_symmetry_cell_setting 'orthorhombic'
loop_
_space_group_symop_operation_xyz
x,y,z
-x,1/2-y,z
x,-y,-z
-x,1/2+y,-z
-x,-y,-z
x,1/2+y,-z
-x,y,z
x,1/2-y,z
1/2+x,1/2+y,1/2+z
1/2-x,-y,1/2+z
1/2+x,1/2-y,1/2-z
1/2-x,y,1/2-z
1/2-x,1/2-y,1/2-z
1/2+x,y,1/2-z
1/2-x,1/2+y,1/2+z
1/2+x,-y,1/2+z
loop_
_atom_site_type_symbol
_atom_site_label
_atom_site_fract_x
_atom_site_fract_y
_atom_site_fract_z
Si Si1 0.816045 0.750000 0.809786
Si Si2 0.182835 0.374990 0.390843
Si Si3 0.685525 0.160652 0.693402
Si Si4 0.815517 0.336544 0.995639
Si Si5 0.686659 0.952051 0.402720
O O1 0.750000 0.750000 0.750000
O O2 0.759481 0.824972 0.843713
O O3 0.000000 0.750000 0.807535
O O4 0.233393 0.340801 0.447860
O O5 0.239398 0.464181 0.393492
O O6 0.000000 0.370583 0.384799
O O7 0.500000 0.161241 0.695624
O O8 0.737759 0.250000 0.684652
O O9 0.750000 0.134053 0.750000
O O10 0.730478 0.104670 0.645624
O O11 0.789723 0.250000 0.971461
O O12 0.768251 0.406705 0.956728
O O13 0.000000 0.343888 0.004222
O O14 0.500000 0.960333 0.403884
#
# Coordination Sequence:
#
# PCOD9538480 Si02
#       5
#     8  16  16  16  16
#     4  12  26  48  74  96 120 158 207 258 313 374
#     4  12  25  41  61  90 126 161 199 251 312 370
#     4   9  18  34  56  82 115 154 198 247 297 354
#     4  10  20  37  63  90 120 163 211 256 309 372
#     4  10  21  37  59  88 121 161 210 257 306 366
#
# _framework density 19.274217
#
# number of rings (size 3 to 8) (size 9 to 14) (size 15 to 20)
#    0.000    1.556    1.111    4.333    0.000    8.000 
#    0.000    2.222    0.000    4.000    0.000    0.000 
#    0.000    0.000    0.000    0.000    0.000    0.000 
#
# Total GULP energy -201170.001313 kJ/mol
# GULP energy per Si atom -5588.055592 kJ/mol
# Density = 1.923035 g / cm^3
# Si number density = 19.274217 Si / 1000 Ang^3
#
#
#
# Elastic Constant Matrix: (Units=GPa)
#
#
# Indices 1 2 3 4 5 6 
#
# 1 78.7734 57.8635 59.3971 0.0000 0.0000 0.0000
# 2 57.8635 133.7401 87.1182 0.0000 0.0000 0.0000
# 3 59.3971 87.1182 153.4477 0.0000 0.0000 0.0000
# 4 0.0000 0.0000 0.0000 -1.4395 0.0000 0.0000
# 5 0.0000 0.0000 0.0000 0.0000 32.9585 0.0000
# 6 0.0000 0.0000 0.0000 0.0000 0.0000 13.4232
#
#
#
# Elastic Compliance Matrix: (Units=1/GPa)
#
#
# Indices 1 2 3 4 5 6 
#
# 1 0.020464 -0.005862 -0.004593 0.000000 0.000000 0.000000
# 2 -0.005862 0.013544 -0.005421 0.000000 0.000000 0.000000
# 3 -0.004593 -0.005421 0.011372 0.000000 0.000000 0.000000
# 4 0.000000 0.000000 0.000000 -0.694666 0.000000 0.000000
# 5 0.000000 0.000000 0.000000 0.000000 0.030341 0.000000
# 6 0.000000 0.000000 0.000000 0.000000 0.000000 0.074498
#
#
# Mechanical properties :
#
#
# Convention : Reuss Voigt Hill
#
# Bulk Modulus (GPa) = 73.37193 86.07987 79.72590
# Shear Modulus (GPa) = -9.83958 19.76058 4.96050
#
# Velocity S-wave (km/s) = -2.26189 3.20540 1.60600
# Velocity P-wave (km/s) = 5.59719 7.64572 6.70021
#
# Compressibility (1/GPa) = 0.01362919
#
# Stress axis : x y z
#
# Youngs Moduli (GPa) = 48.86656 73.83159 87.93238
#
# Poissons Ratio (x) = 0.43278 0.40390
# Poissons Ratio (y) = 0.28645 0.47665
# Poissons Ratio (z) = 0.22446 0.40022
#
# Static dielectric constant tensor:
#      x y z
#    x 1.649930 0.000000 0.000000 
#    y 0.000000 1.685750 0.000000 
#    z 0.000000 0.000000 1.646520 
# 
# From -- ./inp_files/56695.got.cif
#   From: 2010.05.17/outbox.cif.g08.bks.cpg/sg74_29_cif.got.tgz:56695.got - 2010.06.03 17:57:02.
