data_PCOD9538112
_publ_section_title
;
Structure prediction by ZEFSAII (Michael W. Deem and Ramdas Pophale) SiO2 
 PCOD9538112
Probable space group: I M M A
;
_chemical_formula_sum "Si O2"
_cell_formula_units_Z 96
_cell_length_a 21.558460
_cell_length_b 11.855762
_cell_length_c 18.409450
_cell_angle_alpha 90.000000
_cell_angle_beta 90.000000
_cell_angle_gamma 90.000000
_cell_volume 4705.307608
_symmetry_space_group_name_H-M "I M M A"
_symmetry_group_IT_number 74
_symmetry_cell_setting 'orthorhombic'
loop_
_space_group_symop_operation_xyz
x,y,z
-x,1/2-y,z
x,-y,-z
-x,1/2+y,-z
-x,-y,-z
x,1/2+y,-z
-x,y,z
x,1/2-y,z
1/2+x,1/2+y,1/2+z
1/2-x,-y,1/2+z
1/2+x,1/2-y,1/2-z
1/2-x,y,1/2-z
1/2-x,1/2-y,1/2-z
1/2+x,y,1/2-z
1/2-x,1/2+y,1/2+z
1/2+x,-y,1/2+z
loop_
_atom_site_type_symbol
_atom_site_label
_atom_site_fract_x
_atom_site_fract_y
_atom_site_fract_z
Si Si1 0.803799 0.015031 0.415932
Si Si2 0.253973 0.750000 0.868498
Si Si3 0.199254 0.121375 0.833769
Si Si4 0.354760 0.750000 0.737213
Si Si5 0.864599 0.377960 0.978145
Si Si6 0.500000 0.379053 0.552507
Si Si7 0.500000 0.885858 0.284290
Si Si8 0.880995 0.008184 0.275936
O O1 0.769200 0.135306 0.409663
O O2 0.819879 0.000000 0.500000
O O3 0.756627 0.923115 0.381685
O O4 0.861647 0.013708 0.360292
O O5 0.302551 0.750000 0.800905
O O6 0.185110 0.750000 0.836204
O O7 0.208365 0.250000 0.810546
O O8 0.142789 0.122145 0.891168
O O9 0.178658 0.041047 0.768339
O O10 0.391495 0.634671 0.746962
O O11 0.843139 0.250000 0.000665
O O12 0.937528 0.388377 0.994215
O O13 0.835768 0.500000 0.000000
O O14 0.500000 0.250000 0.574814
O O15 0.500000 0.434651 0.632429
O O16 0.500000 0.750000 0.280635
O O17 0.561010 0.931337 0.243453
#
# Coordination Sequence:
#
# PCOD9538112 Si02
#       8
#    16   8  16   8  16   8   8  16
#     4  11  24  40  61  94 127 163 202 252 314 373
#     4   9  18  38  62  86 127 164 198 242 307 373
#     4  11  22  37  59  90 125 160 201 251 304 364
#     4   9  18  37  64  90 116 163 205 246 302 365
#     4  10  20  36  54  80 119 161 199 245 302 360
#     4   9  17  33  57  76 110 155 197 246 301 354
#     4  11  22  40  65  91 119 159 209 264 316 360
#     4  11  22  41  66  90 122 161 210 258 306 367
#
# _framework density 20.402491999999999
#
# number of rings (size 3 to 8) (size 9 to 14) (size 15 to 20)
#    0.000    1.667    3.333    1.750    1.167    2.333 
#    3.000    0.417    1.833    0.000    0.000    0.000 
#    0.000    0.000    0.000    0.000    0.000    0.000 
#
# Total GULP energy -267720.260205 kJ/mol
# GULP energy per Si atom -5577.505421 kJ/mol
# Density = 2.035605 g / cm^3
# Si number density = 20.402492 Si / 1000 Ang^3
#
#
#
# Elastic Constant Matrix: (Units=GPa)
#
#
# Indices 1 2 3 4 5 6 
#
# 1 49.1217 22.7488 4.3406 0.0000 0.0000 0.0000
# 2 22.7488 171.1870 47.6213 0.0000 0.0000 0.0000
# 3 4.3406 47.6213 111.1411 0.0000 0.0000 0.0000
# 4 0.0000 0.0000 0.0000 17.3800 0.0000 0.0000
# 5 0.0000 0.0000 0.0000 0.0000 388.5138 0.0000
# 6 0.0000 0.0000 0.0000 0.0000 0.0000 195.8093
#
#
#
# Elastic Compliance Matrix: (Units=1/GPa)
#
#
# Indices 1 2 3 4 5 6 
#
# 1 0.021712 -0.003008 0.000441 0.000000 0.000000 0.000000
# 2 -0.003008 0.007049 -0.002903 0.000000 0.000000 0.000000
# 3 0.000441 -0.002903 0.010224 0.000000 0.000000 0.000000
# 4 0.000000 0.000000 0.000000 0.057538 0.000000 0.000000
# 5 0.000000 0.000000 0.000000 0.000000 0.002574 0.000000
# 6 0.000000 0.000000 0.000000 0.000000 0.000000 0.005107
#
#
# Mechanical properties :
#
#
# Convention : Reuss Voigt Hill
#
# Bulk Modulus (GPa) = 35.65701 53.43012 44.54356
# Shear Modulus (GPa) = 40.16361 137.45657 88.81009
#
# Velocity S-wave (km/s) = 4.44166 8.21698 6.60481
# Velocity P-wave (km/s) = 6.61961 10.78285 8.94676
#
# Compressibility (1/GPa) = 0.02804498
#
# Stress axis : x y z
#
# Youngs Moduli (GPa) = 46.05831 141.86870 97.80791
#
# Poissons Ratio (x) = 0.42672 -0.04312
# Poissons Ratio (y) = 0.13854 0.28391
# Poissons Ratio (z) = -0.02031 0.41181
#
# Static dielectric constant tensor:
#      x y z
#    x 1.773920 0.000000 0.000000 
#    y 0.000000 1.786540 0.000000 
#    z 0.000000 0.000000 1.742940 
# 
# From -- ./inp_files/53924.got.cif
#   From: 2010.05.17/outbox.cif.g08.bks.cpg/sg74_27_cif.got.tgz:53924.got - 2010.06.03 17:57:02.
