data_PCOD9538923
_publ_section_title
;
Structure prediction by ZEFSAII (Michael W. Deem and Ramdas Pophale) SiO2 
 PCOD9538923
Probable space group: I M M A
;
_chemical_formula_sum "Si O2"
_cell_formula_units_Z 96
_cell_length_a 13.527210
_cell_length_b 15.726839
_cell_length_c 27.153631
_cell_angle_alpha 90.000000
_cell_angle_beta 90.000000
_cell_angle_gamma 90.000000
_cell_volume 5776.670350
_symmetry_space_group_name_H-M "I M M A"
_symmetry_group_IT_number 74
_symmetry_cell_setting 'orthorhombic'
loop_
_space_group_symop_operation_xyz
x,y,z
-x,1/2-y,z
x,-y,-z
-x,1/2+y,-z
-x,-y,-z
x,1/2+y,-z
-x,y,z
x,1/2-y,z
1/2+x,1/2+y,1/2+z
1/2-x,-y,1/2+z
1/2+x,1/2-y,1/2-z
1/2-x,y,1/2-z
1/2-x,1/2-y,1/2-z
1/2+x,y,1/2-z
1/2-x,1/2+y,1/2+z
1/2+x,-y,1/2+z
loop_
_atom_site_type_symbol
_atom_site_label
_atom_site_fract_x
_atom_site_fract_y
_atom_site_fract_z
Si Si1 0.779832 0.089456 0.194578
Si Si2 0.766987 0.651225 0.124432
Si Si3 0.385679 0.416184 0.713446
Si Si4 0.881068 0.250000 0.028259
Si Si5 0.119211 0.916129 0.031888
Si Si6 0.879922 0.250000 0.143251
Si Si7 0.116346 0.042496 0.673376
O O1 0.750000 0.115317 0.250000
O O2 0.829216 0.167083 0.166639
O O3 0.858423 0.012584 0.198271
O O4 0.682769 0.043168 0.171903
O O5 0.762599 0.750000 0.110351
O O6 0.822998 0.642053 0.176917
O O7 0.826950 0.596539 0.084020
O O8 0.661199 0.607783 0.134032
O O9 0.500000 0.397446 0.705915
O O10 0.365992 0.416509 0.772067
O O11 0.856606 0.250000 0.085386
O O12 0.000000 0.250000 0.025612
O O13 0.849508 0.334927 0.000495
O O14 0.000000 0.914835 0.039710
O O15 0.141944 0.000000 0.000000
O O16 0.000000 0.250000 0.150005
O O17 0.000000 0.026810 0.668461
#
# Coordination Sequence:
#
# PCOD9538923 Si02
#       7
#    16  16  16   8  16   8  16
#     4   9  18  33  51  76 107 143 181 213 255 311
#     4  11  21  33  53  79 105 137 173 215 266 322
#     4   9  18  32  51  75 108 142 171 211 261 319
#     4   9  20  35  49  78 113 136 168 208 259 327
#     4  10  21  36  54  78 109 141 171 211 266 329
#     4  11  21  31  52  84 113 138 168 216 268 319
#     4   9  20  37  53  73 103 140 182 221 256 303
#
# _framework density 16.618569999999998
#
# number of rings (size 3 to 8) (size 9 to 14) (size 15 to 20)
#    0.000    2.333    0.833    2.750    4.667    3.333 
#    0.000    2.083    0.000    0.500    0.000    0.000 
#    0.000    0.000    0.000    0.000    0.000    0.000 
#
# Total GULP energy -267479.649351 kJ/mol
# GULP energy per Si atom -5572.492695 kJ/mol
# Density = 1.658075 g / cm^3
# Si number density = 16.618570 Si / 1000 Ang^3
#
#
#
# Elastic Constant Matrix: (Units=GPa)
#
#
# Indices 1 2 3 4 5 6 
#
# 1 89.4598 32.9160 37.3572 0.0000 0.0000 0.0000
# 2 32.9160 88.7244 45.0628 0.0000 0.0000 0.0000
# 3 37.3572 45.0628 64.9283 0.0000 0.0000 0.0000
# 4 0.0000 0.0000 0.0000 26.7906 0.0000 0.0000
# 5 0.0000 0.0000 0.0000 0.0000 26.3736 0.0000
# 6 0.0000 0.0000 0.0000 0.0000 0.0000 8.6878
#
#
#
# Elastic Compliance Matrix: (Units=1/GPa)
#
#
# Indices 1 2 3 4 5 6 
#
# 1 0.014900 -0.001813 -0.007315 0.000000 0.000000 0.000000
# 2 -0.001813 0.017627 -0.011191 0.000000 0.000000 0.000000
# 3 -0.007315 -0.011191 0.027377 0.000000 0.000000 0.000000
# 4 0.000000 0.000000 0.000000 0.037326 0.000000 0.000000
# 5 0.000000 0.000000 0.000000 0.000000 0.037917 0.000000
# 6 0.000000 0.000000 0.000000 0.000000 0.000000 0.115103
#
#
# Mechanical properties :
#
#
# Convention : Reuss Voigt Hill
#
# Bulk Modulus (GPa) = 51.90107 52.64271 52.27189
# Shear Modulus (GPa) = 16.81746 20.88884 18.85315
#
# Velocity S-wave (km/s) = 3.18460 3.54921 3.37183
# Velocity P-wave (km/s) = 6.69483 6.96718 6.83236
#
# Compressibility (1/GPa) = 0.01926743
#
# Stress axis : x y z
#
# Youngs Moduli (GPa) = 67.11578 56.73038 36.52665
#
# Poissons Ratio (x) = 0.10283 0.26718
# Poissons Ratio (y) = 0.12165 0.40877
# Poissons Ratio (z) = 0.49093 0.63488
#
# Static dielectric constant tensor:
#      x y z
#    x 1.553490 0.000000 0.000000 
#    y 0.000000 1.558580 0.000000 
#    z 0.000000 0.000000 1.570190 
# 
# From -- ./inp_files/60059.got.cif
#   From: 2010.05.17/outbox.cif.g08.bks.cpg/sg74_31_cif.got.tgz:60059.got - 2010.06.03 17:57:02.
