data_PCOD9538753
_publ_section_title
;
Structure prediction by ZEFSAII (Michael W. Deem and Ramdas Pophale) SiO2 
 PCOD9538753
Probable space group: I M M A
;
_chemical_formula_sum "Si O2"
_cell_formula_units_Z 84
_cell_length_a 17.813161
_cell_length_b 15.096672
_cell_length_c 14.486548
_cell_angle_alpha 90.000000
_cell_angle_beta 90.000000
_cell_angle_gamma 90.000000
_cell_volume 3895.714505
_symmetry_space_group_name_H-M "I M M A"
_symmetry_group_IT_number 74
_symmetry_cell_setting 'orthorhombic'
loop_
_space_group_symop_operation_xyz
x,y,z
-x,1/2-y,z
x,-y,-z
-x,1/2+y,-z
-x,-y,-z
x,1/2+y,-z
-x,y,z
x,1/2-y,z
1/2+x,1/2+y,1/2+z
1/2-x,-y,1/2+z
1/2+x,1/2-y,1/2-z
1/2-x,y,1/2-z
1/2-x,1/2-y,1/2-z
1/2+x,y,1/2-z
1/2-x,1/2+y,1/2+z
1/2+x,-y,1/2+z
loop_
_atom_site_type_symbol
_atom_site_label
_atom_site_fract_x
_atom_site_fract_y
_atom_site_fract_z
Si Si1 0.111884 0.398090 0.601837
Si Si2 0.500000 0.750000 0.035873
Si Si3 0.276563 0.851320 0.958432
Si Si4 0.180545 0.037347 0.175078
Si Si5 0.915481 0.595546 0.661531
Si Si6 0.167074 0.845469 0.204918
O O1 0.192190 0.397020 0.551155
O O2 0.085008 0.498668 0.612161
O O3 0.115258 0.359512 0.704923
O O4 0.063539 0.328634 0.544974
O O5 0.257078 0.750000 0.978104
O O6 0.210635 0.904108 0.908164
O O7 0.347101 0.853488 0.886804
O O8 0.250000 0.032116 0.250000
O O9 0.112014 0.078533 0.233697
O O10 0.160683 0.936407 0.149427
O O11 0.000000 0.633166 0.655611
O O12 0.151566 0.750000 0.161193
O O13 0.250000 0.841645 0.250000
#
# Coordination Sequence:
#
# PCOD9538753 Si02
#       6
#    16   4  16  16  16  16
#     4  11  21  34  52  82 118 143 172 217 278 341
#     4  12  20  32  52  84 120 148 164 206 280 364
#     4  11  22  35  52  71 107 148 186 223 272 325
#     4   8  18  34  47  68 101 140 181 217 260 320
#     4  10  21  33  51  75 109 142 178 224 271 322
#     4   9  16  30  51  74 103 134 174 219 261 315
#
# _framework density 21.562155000000001
#
# number of rings (size 3 to 8) (size 9 to 14) (size 15 to 20)
#    0.000    2.095    2.857    1.714    1.333    4.571 
#    0.000    0.000    0.000    0.000    0.000    0.000 
#    2.857   76.952    0.000   10.286    0.000    8.762 
#
# Total GULP energy -234032.374203 kJ/mol
# GULP energy per Si atom -5572.199386 kJ/mol
# Density = 2.151308 g / cm^3
# Si number density = 21.562155 Si / 1000 Ang^3
#
#
#
# Elastic Constant Matrix: (Units=GPa)
#
#
# Indices 1 2 3 4 5 6 
#
# 1 47.1409 5.4830 34.9494 0.0000 0.0000 0.0000
# 2 5.4830 87.6601 23.8373 0.0000 0.0000 0.0000
# 3 34.9494 23.8373 64.2394 0.0000 0.0000 0.0000
# 4 0.0000 0.0000 0.0000 8.7465 0.0000 0.0000
# 5 0.0000 0.0000 0.0000 0.0000 9.8757 0.0000
# 6 0.0000 0.0000 0.0000 0.0000 0.0000 28.9294
#
#
#
# Elastic Compliance Matrix: (Units=1/GPa)
#
#
# Indices 1 2 3 4 5 6 
#
# 1 0.036476 0.003464 -0.021130 0.000000 0.000000 0.000000
# 2 0.003464 0.013017 -0.006715 0.000000 0.000000 0.000000
# 3 -0.021130 -0.006715 0.029554 0.000000 0.000000 0.000000
# 4 0.000000 0.000000 0.000000 0.114331 0.000000 0.000000
# 5 0.000000 0.000000 0.000000 0.000000 0.101259 0.000000
# 6 0.000000 0.000000 0.000000 0.000000 0.000000 0.034567
#
#
# Mechanical properties :
#
#
# Convention : Reuss Voigt Hill
#
# Bulk Modulus (GPa) = 33.01909 36.39776 34.70843
# Shear Modulus (GPa) = 12.88459 18.49503 15.68981
#
# Velocity S-wave (km/s) = 2.44715 2.93192 2.70043
# Velocity P-wave (km/s) = 4.83026 5.32716 5.08478
#
# Compressibility (1/GPa) = 0.03028551
#
# Stress axis : x y z
#
# Youngs Moduli (GPa) = 27.41565 76.82259 33.83605
#
# Poissons Ratio (x) = -0.26614 0.71496
# Poissons Ratio (y) = -0.09498 0.22721
# Poissons Ratio (z) = 0.57929 0.51586
#
# Static dielectric constant tensor:
#      x y z
#    x 1.850680 0.000000 0.000000 
#    y 0.000000 1.802090 0.000000 
#    z 0.000000 0.000000 1.841870 
# 
# From -- ./inp_files/35155.got.cif
#   From: 2010.05.17/outbox.cif.g08.bks.cpg/sg74_18_cif.got.tgz:35155.got - 2010.06.03 17:57:02.
