data_PCOD9538399
_publ_section_title
;
Structure prediction by ZEFSAII (Michael W. Deem and Ramdas Pophale) SiO2 
 PCOD9538399
Probable space group: I M M A
;
_chemical_formula_sum "Si O2"
_cell_formula_units_Z 104
_cell_length_a 7.974525
_cell_length_b 26.826772
_cell_length_c 21.628389
_cell_angle_alpha 90.000000
_cell_angle_beta 90.000000
_cell_angle_gamma 90.000000
_cell_volume 4626.977782
_symmetry_space_group_name_H-M "I M M A"
_symmetry_group_IT_number 74
_symmetry_cell_setting 'orthorhombic'
loop_
_space_group_symop_operation_xyz
x,y,z
-x,1/2-y,z
x,-y,-z
-x,1/2+y,-z
-x,-y,-z
x,1/2+y,-z
-x,y,z
x,1/2-y,z
1/2+x,1/2+y,1/2+z
1/2-x,-y,1/2+z
1/2+x,1/2-y,1/2-z
1/2-x,y,1/2-z
1/2-x,1/2-y,1/2-z
1/2+x,y,1/2-z
1/2-x,1/2+y,1/2+z
1/2+x,-y,1/2+z
loop_
_atom_site_type_symbol
_atom_site_label
_atom_site_fract_x
_atom_site_fract_y
_atom_site_fract_z
Si Si1 0.810419 0.609972 0.514014
Si Si2 0.198104 0.619949 0.320692
Si Si3 0.798727 0.307114 0.917328
Si Si4 0.796785 0.459613 0.183587
Si Si5 0.306409 0.536152 0.414686
Si Si6 0.306925 0.857348 0.642241
Si Si7 0.202672 0.750000 0.821926
O O1 0.784470 0.654937 0.465462
O O2 0.773848 0.559431 0.476078
O O3 0.696561 0.622941 0.572180
O O4 0.000000 0.609387 0.536441
O O5 0.250000 0.616197 0.250000
O O6 0.244845 0.673222 0.350094
O O7 0.293583 0.579908 0.363215
O O8 0.000000 0.611008 0.327719
O O9 0.750990 0.250000 0.927979
O O10 0.000000 0.311388 0.923421
O O11 0.750000 0.482267 0.250000
O O12 0.733775 0.489521 0.123347
O O13 0.729730 0.403107 0.180294
O O14 0.000000 0.459812 0.179705
O O15 0.500000 0.526253 0.429208
O O16 0.500000 0.853300 0.662925
O O17 0.233127 0.802088 0.649242
O O18 0.250000 0.750000 0.750000
O O19 0.000000 0.750000 0.829785
#
# Coordination Sequence:
#
# PCOD9538399 Si02
#       7
#    16  16  16  16  16  16   8
#     4  11  23  38  58  87 118 153 195 246 296 347
#     4  11  21  34  53  78 110 148 191 240 291 349
#     4  10  21  37  57  79 107 146 189 239 295 353
#     4  10  22  38  61  89 120 156 198 246 298 354
#     4  10  20  37  59  84 115 155 195 241 296 354
#     4  10  22  41  61  88 121 159 201 243 297 361
#     4  10  22  40  66  92 122 160 199 246 301 356
#
# _framework density 22.476873999999999
#
# number of rings (size 3 to 8) (size 9 to 14) (size 15 to 20)
#    0.000    1.692    0.000    6.462    1.077    5.846 
#    0.000    3.077    0.000    0.000    0.000    0.000 
#    0.000    0.000    0.000    0.000    0.000    0.000 
#
# Total GULP energy -290580.369454 kJ/mol
# GULP energy per Si atom -5588.084028 kJ/mol
# Density = 2.242572 g / cm^3
# Si number density = 22.476874 Si / 1000 Ang^3
#
#
#
# Elastic Constant Matrix: (Units=GPa)
#
#
# Indices 1 2 3 4 5 6 
#
# 1 50.1346 4.5562 -17.6221 0.0000 0.0000 0.0000
# 2 4.5562 140.9020 31.7166 0.0000 0.0000 0.0000
# 3 -17.6221 31.7166 93.4158 0.0000 0.0000 -0.0001
# 4 0.0000 0.0000 0.0000 24.7876 0.0000 0.0000
# 5 0.0000 0.0000 0.0000 0.0000 25.9754 0.0000
# 6 0.0000 0.0000 -0.0001 0.0000 0.0000 23.7222
#
#
#
# Elastic Compliance Matrix: (Units=1/GPa)
#
#
# Indices 1 2 3 4 5 6 
#
# 1 0.021760 -0.001762 0.004703 0.000000 0.000000 0.000000
# 2 -0.001762 0.007827 -0.002990 0.000000 0.000000 0.000000
# 3 0.004703 -0.002990 0.012607 0.000000 0.000000 0.000000
# 4 0.000000 0.000000 0.000000 0.040343 0.000000 0.000000
# 5 0.000000 0.000000 0.000000 0.000000 0.038498 0.000000
# 6 0.000000 0.000000 0.000000 0.000000 0.000000 0.042155
#
#
# Mechanical properties :
#
#
# Convention : Reuss Voigt Hill
#
# Bulk Modulus (GPa) = 23.75539 35.75042 29.75291
# Shear Modulus (GPa) = 28.19769 32.61713 30.40741
#
# Velocity S-wave (km/s) = 3.54576 3.81352 3.68208
# Velocity P-wave (km/s) = 5.23020 5.94395 5.59846
#
# Compressibility (1/GPa) = 0.04209571
#
# Stress axis : x y z
#
# Youngs Moduli (GPa) = 45.95677 127.76066 79.31993
#
# Poissons Ratio (x) = 0.22515 -0.37305
# Poissons Ratio (y) = 0.08099 0.23716
# Poissons Ratio (z) = -0.21614 0.38199
#
# Static dielectric constant tensor:
#      x y z
#    x 1.819930 0.000000 0.000000 
#    y 0.000000 1.880560 0.000000 
#    z 0.000000 0.000000 1.815230 
# 
# From -- ./inp_files/49299.got.cif
#   From: 2010.05.17/outbox.cif.g08.bks.cpg/sg74_25_cif.got.tgz:49299.got - 2010.06.03 17:57:02.
