data_PCOD9538143
_publ_section_title
;
Structure prediction by ZEFSAII (Michael W. Deem and Ramdas Pophale) SiO2 
 PCOD9538143
Probable space group: I M M A
;
_chemical_formula_sum "Si O2"
_cell_formula_units_Z 72
_cell_length_a 8.544740
_cell_length_b 16.628849
_cell_length_c 28.217768
_cell_angle_alpha 90.000000
_cell_angle_beta 90.000000
_cell_angle_gamma 90.000000
_cell_volume 4009.439833
_symmetry_space_group_name_H-M "I M M A"
_symmetry_group_IT_number 74
_symmetry_cell_setting 'orthorhombic'
loop_
_space_group_symop_operation_xyz
x,y,z
-x,1/2-y,z
x,-y,-z
-x,1/2+y,-z
-x,-y,-z
x,1/2+y,-z
-x,y,z
x,1/2-y,z
1/2+x,1/2+y,1/2+z
1/2-x,-y,1/2+z
1/2+x,1/2-y,1/2-z
1/2-x,y,1/2-z
1/2-x,1/2-y,1/2-z
1/2+x,y,1/2-z
1/2-x,1/2+y,1/2+z
1/2+x,-y,1/2+z
loop_
_atom_site_type_symbol
_atom_site_label
_atom_site_fract_x
_atom_site_fract_y
_atom_site_fract_z
Si Si1 0.688650 0.660084 0.387473
Si Si2 0.187753 0.590526 0.854842
Si Si3 0.190483 0.004066 0.946101
Si Si4 0.314327 0.433466 0.801983
Si Si5 0.313768 0.250000 0.195920
O O1 0.500000 0.655611 0.382230
O O2 0.729611 0.750000 0.402755
O O3 0.735249 0.589822 0.423628
O O4 0.765488 0.637005 0.337736
O O5 0.238636 0.564809 0.908324
O O6 0.237140 0.514921 0.822496
O O7 0.257673 0.671182 0.832686
O O8 0.000000 0.597392 0.854711
O O9 0.000000 0.001013 0.947232
O O10 0.247021 0.000000 0.000000
O O11 0.500000 0.443497 0.801224
O O12 0.250000 0.417932 0.750000
O O13 0.500000 0.250000 0.198714
O O14 0.250000 0.250000 0.250000
#
# Coordination Sequence:
#
# PCOD9538143 Si02
#       5
#    16  16  16  16   8
#     4   9  18  33  52  76 106 139 176 221 265 311
#     4  10  20  36  56  81 111 142 182 227 271 322
#     4   8  15  31  55  82 108 136 175 225 271 314
#     4  11  21  34  53  76 104 141 178 217 265 320
#     4  12  24  38  56  80 114 150 188 230 279 332
#
# _framework density 17.957622000000001
#
# number of rings (size 3 to 8) (size 9 to 14) (size 15 to 20)
#    0.000    2.222    0.000    5.667    0.000    0.889 
#    2.000    0.000    0.000   16.667    0.000    0.000 
#    0.000    0.000    0.000    0.000    0.000    0.000 
#
# Total GULP energy -200837.012650 kJ/mol
# GULP energy per Si atom -5578.805907 kJ/mol
# Density = 1.791675 g / cm^3
# Si number density = 17.957622 Si / 1000 Ang^3
#
#
#
# Elastic Constant Matrix: (Units=GPa)
#
#
# Indices 1 2 3 4 5 6 
#
# 1 65.4100 36.5414 37.1147 0.0000 0.0000 0.0000
# 2 36.5414 121.3625 70.3078 0.0000 0.0000 0.0000
# 3 37.1147 70.3078 177.6985 0.0000 0.0000 0.0000
# 4 0.0000 0.0000 0.0000 12.4495 0.0000 0.0000
# 5 0.0000 0.0000 0.0000 0.0000 18.8788 0.0000
# 6 0.0000 0.0000 0.0000 0.0000 0.0000 26.6708
#
#
#
# Elastic Compliance Matrix: (Units=1/GPa)
#
#
# Indices 1 2 3 4 5 6 
#
# 1 0.019029 -0.004446 -0.002215 0.000000 0.000000 0.000000
# 2 -0.004446 0.011729 -0.003712 0.000000 0.000000 0.000000
# 3 -0.002215 -0.003712 0.007559 0.000000 0.000000 0.000000
# 4 0.000000 0.000000 0.000000 0.080325 0.000000 0.000000
# 5 0.000000 0.000000 0.000000 0.000000 0.052970 0.000000
# 6 0.000000 0.000000 0.000000 0.000000 0.000000 0.037494
#
#
# Mechanical properties :
#
#
# Convention : Reuss Voigt Hill
#
# Bulk Modulus (GPa) = 56.91540 72.48874 64.70207
# Shear Modulus (GPa) = 21.21263 26.30028 23.75646
#
# Velocity S-wave (km/s) = 3.44068 3.83113 3.64114
# Velocity P-wave (km/s) = 6.89546 7.74753 7.33388
#
# Compressibility (1/GPa) = 0.01756994
#
# Stress axis : x y z
#
# Youngs Moduli (GPa) = 52.55124 85.25938 132.29451
#
# Poissons Ratio (x) = 0.37907 0.29308
# Poissons Ratio (y) = 0.23365 0.49108
# Poissons Ratio (z) = 0.11642 0.31648
#
# Static dielectric constant tensor:
#      x y z
#    x 1.611290 0.000000 0.000000 
#    y 0.000000 1.602380 0.000000 
#    z 0.000000 0.000000 1.524030 
# 
# From -- ./inp_files/63642.got.cif
#   From: 2010.05.17/outbox.cif.g08.bks.cpg/sg74_32_cif.got.tgz:63642.got - 2010.06.03 17:57:02.
