data_PCOD9538639
_publ_section_title
;
Structure prediction by ZEFSAII (Michael W. Deem and Ramdas Pophale) SiO2 
 PCOD9538639
Probable space group: I M M A
;
_chemical_formula_sum "Si O2"
_cell_formula_units_Z 68
_cell_length_a 30.706436
_cell_length_b 14.854572
_cell_length_c 8.296274
_cell_angle_alpha 90.000000
_cell_angle_beta 90.000000
_cell_angle_gamma 90.000000
_cell_volume 3784.187461
_symmetry_space_group_name_H-M "I M M A"
_symmetry_group_IT_number 74
_symmetry_cell_setting 'orthorhombic'
loop_
_space_group_symop_operation_xyz
x,y,z
-x,1/2-y,z
x,-y,-z
-x,1/2+y,-z
-x,-y,-z
x,1/2+y,-z
-x,y,z
x,1/2-y,z
1/2+x,1/2+y,1/2+z
1/2-x,-y,1/2+z
1/2+x,1/2-y,1/2-z
1/2-x,y,1/2-z
1/2-x,1/2-y,1/2-z
1/2+x,y,1/2-z
1/2-x,1/2+y,1/2+z
1/2+x,-y,1/2+z
loop_
_atom_site_type_symbol
_atom_site_label
_atom_site_fract_x
_atom_site_fract_y
_atom_site_fract_z
Si Si1 0.381750 0.750000 0.484638
Si Si2 0.349606 0.906154 0.062103
Si Si3 0.301700 0.750000 0.241256
Si Si4 0.900005 0.250000 0.363716
Si Si5 0.000000 0.439571 0.660283
Si Si6 0.587248 0.936269 0.351390
Si Si7 0.500000 0.250000 0.018748
O O1 0.333163 0.750000 0.401813
O O2 0.384717 0.750000 0.677921
O O3 0.407241 0.664172 0.417024
O O4 0.315669 0.837874 0.140795
O O5 0.380072 0.943014 0.203781
O O6 0.379458 0.840067 0.948732
O O7 0.329740 0.000000 0.000000
O O8 0.250000 0.750000 0.250000
O O9 0.953085 0.250000 0.386016
O O10 0.000000 0.500000 0.500000
O O11 0.041084 0.456597 0.773159
O O12 0.000000 0.337898 0.593784
O O13 0.597463 0.000000 0.500000
#
# Coordination Sequence:
#
# PCOD9538639 Si02
#       7
#     8  16   8   8   8  16   4
#     4  10  23  39  61  85 114 156 196 251 305 368
#     4  10  20  39  62  88 119 160 200 249 310 373
#     4   9  21  43  65  90 124 157 192 254 316 376
#     4  11  22  38  61  87 120 165 213 249 301 367
#     4  12  25  38  55  83 117 162 212 253 301 352
#     4  11  22  37  57  83 120 157 203 258 302 354
#     4  12  24  36  60  80 122 170 208 256 302 356
#
# _framework density 17.969511000000001
#
# number of rings (size 3 to 8) (size 9 to 14) (size 15 to 20)
#    0.000    1.412    2.353    3.882    3.294    0.941 
#    0.000    9.412    0.000    0.000    0.000    0.000 
#    0.000    0.000    0.000    0.000    0.000    0.000 
#
# Total GULP energy -189552.994878 kJ/mol
# GULP energy per Si atom -5575.088085 kJ/mol
# Density = 1.792861 g / cm^3
# Si number density = 17.969511 Si / 1000 Ang^3
#
#
#
# Elastic Constant Matrix: (Units=GPa)
#
#
# Indices 1 2 3 4 5 6 
#
# 1 106.0472 -4.8617 19.2964 0.0000 0.0000 0.0000
# 2 -4.8617 49.0588 -13.0249 0.0000 0.0000 0.0000
# 3 19.2964 -13.0249 81.9608 0.0000 0.0000 0.0000
# 4 0.0000 0.0000 0.0000 22.9306 0.0000 0.0000
# 5 0.0000 0.0000 0.0000 0.0000 -3.6850 0.0000
# 6 0.0000 0.0000 0.0000 0.0000 0.0000 -13.0613
#
#
#
# Elastic Compliance Matrix: (Units=1/GPa)
#
#
# Indices 1 2 3 4 5 6 
#
# 1 0.009858 0.000377 -0.002261 0.000000 0.000000 0.000000
# 2 0.000377 0.021296 0.003296 0.000000 0.000000 0.000000
# 3 -0.002261 0.003296 0.013257 0.000000 0.000000 0.000000
# 4 0.000000 0.000000 0.000000 0.043610 0.000000 0.000000
# 5 0.000000 0.000000 0.000000 0.000000 -0.271368 0.000000
# 6 0.000000 0.000000 0.000000 0.000000 0.000000 -0.076562
#
#
# Mechanical properties :
#
#
# Convention : Reuss Voigt Hill
#
# Bulk Modulus (GPa) = 21.17134 26.65405 23.91269
# Shear Modulus (GPa) = -20.24401 16.94732 -1.64835
#
# Velocity S-wave (km/s) = -3.36009 3.07435 -0.95880
# Velocity P-wave (km/s) = 1.80173 5.24093 3.48002
#
# Compressibility (1/GPa) = 0.04723367
#
# Stress axis : x y z
#
# Youngs Moduli (GPa) = 101.43556 46.95714 75.43159
#
# Poissons Ratio (x) = -0.01769 0.17056
# Poissons Ratio (y) = -0.03820 -0.24859
# Poissons Ratio (z) = 0.22936 -0.15475
#
# Static dielectric constant tensor:
#      x y z
#    x 1.484900 0.000000 0.000000 
#    y 0.000000 1.696380 0.000000 
#    z 0.000000 0.000000 1.987950 
# 
# From -- ./inp_files/9104.got.cif
#   From: 2010.05.17/outbox.cif.g08.bks.cpg/sg74_5_cif.got.tgz:9104.got - 2010.06.03 17:57:02.
