data_PCOD9538374
_publ_section_title
;
Structure prediction by ZEFSAII (Michael W. Deem and Ramdas Pophale) SiO2 
 PCOD9538374
Probable space group: I M M A
;
_chemical_formula_sum "Si O2"
_cell_formula_units_Z 56
_cell_length_a 27.642617
_cell_length_b 9.956162
_cell_length_c 10.981808
_cell_angle_alpha 90.000000
_cell_angle_beta 90.000000
_cell_angle_gamma 90.000000
_cell_volume 3022.351403
_symmetry_space_group_name_H-M "I M M A"
_symmetry_group_IT_number 74
_symmetry_cell_setting 'orthorhombic'
loop_
_space_group_symop_operation_xyz
x,y,z
-x,1/2-y,z
x,-y,-z
-x,1/2+y,-z
-x,-y,-z
x,1/2+y,-z
-x,y,z
x,1/2-y,z
1/2+x,1/2+y,1/2+z
1/2-x,-y,1/2+z
1/2+x,1/2-y,1/2-z
1/2-x,y,1/2-z
1/2-x,1/2-y,1/2-z
1/2+x,y,1/2-z
1/2-x,1/2+y,1/2+z
1/2+x,-y,1/2+z
loop_
_atom_site_type_symbol
_atom_site_label
_atom_site_fract_x
_atom_site_fract_y
_atom_site_fract_z
Si Si1 0.347149 0.460248 0.240324
Si Si2 0.692140 0.250000 0.721113
Si Si3 0.555421 0.908235 0.881271
Si Si4 0.816176 0.750000 0.945176
Si Si5 0.215842 0.250000 0.371965
O O1 0.328563 0.610365 0.229952
O O2 0.403848 0.445228 0.216504
O O3 0.332340 0.379911 0.365028
O O4 0.318542 0.376832 0.136685
O O5 0.750000 0.250000 0.750000
O O6 0.668846 0.250000 0.584042
O O7 0.500000 0.929145 0.839765
O O8 0.560745 0.750000 0.911075
O O9 0.563022 0.000000 0.000000
O O10 0.757984 0.750000 0.967863
O O11 0.250000 0.250000 0.250000
#
# Coordination Sequence:
#
# PCOD9538374 Si02
#       5
#    16   8  16   8   8
#     4  10  20  37  57  81 115 153 189 237 294 347
#     4  12  24  34  55  88 113 149 205 244 284 341
#     4  10  21  38  62  89 116 148 189 240 300 357
#     4  10  20  38  56  74 115 160 190 236 289 348
#     4   8  16  34  56  72 107 151 185 226 288 345
#
# _framework density 18.52862
#
# number of rings (size 3 to 8) (size 9 to 14) (size 15 to 20)
#    0.000    2.286    2.857    3.429    2.000    2.286 
#    0.000    0.000    0.000    5.143    0.000    0.000 
#    0.000    0.000    0.000    0.000    0.000    0.000 
#
# Total GULP energy -155904.233278 kJ/mol
# GULP energy per Si atom -5568.008331 kJ/mol
# Density = 1.848645 g / cm^3
# Si number density = 18.528620 Si / 1000 Ang^3
#
#
#
# Elastic Constant Matrix: (Units=GPa)
#
#
# Indices 1 2 3 4 5 6 
#
# 1 137.7006 70.1564 38.7306 0.0000 0.0000 0.0000
# 2 70.1564 179.1614 30.5785 0.0000 0.0000 0.0000
# 3 38.7306 30.5785 40.6649 0.0000 0.0000 0.0000
# 4 0.0000 0.0000 0.0000 6.3246 0.0000 0.0000
# 5 0.0000 0.0000 0.0000 0.0000 16.7463 0.0000
# 6 0.0000 0.0000 0.0000 0.0000 0.0000 32.1540
#
#
#
# Elastic Compliance Matrix: (Units=1/GPa)
#
#
# Indices 1 2 3 4 5 6 
#
# 1 0.011107 -0.002918 -0.008384 0.000000 0.000000 0.000000
# 2 -0.002918 0.007170 -0.002612 0.000000 0.000000 0.000000
# 3 -0.008384 -0.002612 0.034541 0.000000 0.000000 0.000000
# 4 0.000000 0.000000 0.000000 0.158114 0.000000 0.000000
# 5 0.000000 0.000000 0.000000 0.000000 0.059715 0.000000
# 6 0.000000 0.000000 0.000000 0.000000 0.000000 0.031100
#
#
# Mechanical properties :
#
#
# Convention : Reuss Voigt Hill
#
# Bulk Modulus (GPa) = 40.01818 70.71752 55.36785
# Shear Modulus (GPa) = 14.79698 25.58239 20.18969
#
# Velocity S-wave (km/s) = 2.82902 3.71980 3.30456
# Velocity P-wave (km/s) = 5.68472 7.52986 6.67139
#
# Compressibility (1/GPa) = 0.02498864
#
# Stress axis : x y z
#
# Youngs Moduli (GPa) = 90.03113 139.46660 28.95104
#
# Poissons Ratio (x) = 0.40702 0.24274
# Poissons Ratio (y) = 0.26275 0.07562
# Poissons Ratio (z) = 0.75486 0.36430
#
# Static dielectric constant tensor:
#      x y z
#    x 1.672670 0.000000 0.000000 
#    y 0.000000 1.649380 0.000000 
#    z 0.000000 0.000000 1.705930 
# 
# From -- ./inp_files/26718.got.cif
#   From: 2010.05.17/outbox.cif.g08.bks.cpg/sg74_14_cif.got.tgz:26718.got - 2010.06.03 17:57:02.
