data_PCOD9538096
_publ_section_title
;
Structure prediction by ZEFSAII (Michael W. Deem and Ramdas Pophale) SiO2 
 PCOD9538096
Probable space group: I M M A
;
_chemical_formula_sum "Si O2"
_cell_formula_units_Z 72
_cell_length_a 14.810938
_cell_length_b 8.269932
_cell_length_c 28.187879
_cell_angle_alpha 90.000000
_cell_angle_beta 90.000000
_cell_angle_gamma 90.000000
_cell_volume 3452.605047
_symmetry_space_group_name_H-M "I M M A"
_symmetry_group_IT_number 74
_symmetry_cell_setting 'orthorhombic'
loop_
_space_group_symop_operation_xyz
x,y,z
-x,1/2-y,z
x,-y,-z
-x,1/2+y,-z
-x,-y,-z
x,1/2+y,-z
-x,y,z
x,1/2-y,z
1/2+x,1/2+y,1/2+z
1/2-x,-y,1/2+z
1/2+x,1/2-y,1/2-z
1/2-x,y,1/2-z
1/2-x,1/2-y,1/2-z
1/2+x,y,1/2-z
1/2-x,1/2+y,1/2+z
1/2+x,-y,1/2+z
loop_
_atom_site_type_symbol
_atom_site_label
_atom_site_fract_x
_atom_site_fract_y
_atom_site_fract_z
Si Si1 0.000000 0.561851 0.168302
Si Si2 0.000000 0.938639 0.394410
Si Si3 0.690933 0.939504 0.629051
Si Si4 0.317476 0.555050 0.053983
Si Si5 0.680946 0.066900 0.792593
Si Si6 0.000000 0.510139 0.718385
O O1 0.090359 0.485638 0.145712
O O2 0.000000 0.551260 0.226159
O O3 0.000000 0.750000 0.156413
O O4 0.093199 0.004241 0.416828
O O5 0.000000 0.750000 0.407192
O O6 0.000000 0.948174 0.337356
O O7 0.703291 0.750000 0.637702
O O8 0.725863 0.982667 0.576624
O O9 0.761344 0.039740 0.660988
O O10 0.313031 0.750000 0.056974
O O11 0.327982 0.500000 0.000000
O O12 0.639817 0.250000 0.792183
O O13 0.750000 0.060946 0.750000
O O14 0.603578 0.935742 0.783747
#
# Coordination Sequence:
#
# PCOD9538096 Si02
#       6
#     8   8  16  16  16   8
#     4  12  24  43  70  97 127 173 224 268 318 384
#     4  10  20  35  63  99 133 170 216 264 315 380
#     4  12  26  43  62  93 133 171 214 270 331 389
#     4  11  23  43  69  96 128 169 218 274 331 389
#     4  11  21  37  62  91 127 176 228 271 316 378
#     4  12  21  36  65 100 133 174 226 270 311 377
#
# _framework density 20.853819000000001
#
# number of rings (size 3 to 8) (size 9 to 14) (size 15 to 20)
#    0.000    0.667    4.444    5.333    0.000    0.444 
#    0.000    3.889    0.000    0.000    0.000    0.000 
#    0.000    0.000    0.000    0.000    0.000    0.000 
#
# Total GULP energy -200521.450991 kJ/mol
# GULP energy per Si atom -5570.040305 kJ/mol
# Density = 2.080636 g / cm^3
# Si number density = 20.853819 Si / 1000 Ang^3
#
#
#
# Elastic Constant Matrix: (Units=GPa)
#
#
# Indices 1 2 3 4 5 6 
#
# 1 155.8002 23.2702 67.2200 0.0000 0.0000 0.0000
# 2 23.2702 66.1133 14.8157 0.0000 0.0000 0.0000
# 3 67.2200 14.8157 123.0402 0.0000 0.0000 0.0000
# 4 0.0000 0.0000 0.0000 0.2975 0.0000 0.0000
# 5 0.0000 0.0000 0.0000 0.0000 27.8361 0.0000
# 6 0.0000 0.0000 0.0000 0.0000 0.0000 -28.5261
#
#
#
# Elastic Compliance Matrix: (Units=1/GPa)
#
#
# Indices 1 2 3 4 5 6 
#
# 1 0.008658 -0.002043 -0.004484 0.000000 0.000000 0.000000
# 2 -0.002043 0.016027 -0.000814 0.000000 0.000000 0.000000
# 3 -0.004484 -0.000814 0.010675 0.000000 0.000000 0.000000
# 4 0.000000 0.000000 0.000000 3.361394 0.000000 0.000000
# 5 0.000000 0.000000 0.000000 0.000000 0.035925 0.000000
# 6 0.000000 0.000000 0.000000 0.000000 0.000000 -0.035056
#
#
# Mechanical properties :
#
#
# Convention : Reuss Voigt Hill
#
# Bulk Modulus (GPa) = 48.35854 61.72949 55.04401
# Shear Modulus (GPa) = 1.46233 15.89801 8.68017
#
# Velocity S-wave (km/s) = 0.83830 2.76407 2.04241
# Velocity P-wave (km/s) = 4.91697 6.31285 5.65812
#
# Compressibility (1/GPa) = 0.02067887
#
# Stress axis : x y z
#
# Youngs Moduli (GPa) = 115.49601 62.39509 93.67404
#
# Poissons Ratio (x) = 0.12745 0.42006
# Poissons Ratio (y) = 0.23591 0.07624
# Poissons Ratio (z) = 0.51792 0.05079
#
# Static dielectric constant tensor:
#      x y z
#    x 1.770980 0.000000 0.000000 
#    y 0.000000 1.798760 0.000000 
#    z 0.000000 0.000000 1.757250 
# 
# From -- ./inp_files/66781.got.cif
#   From: 2010.05.17/outbox.cif.g08.bks.cpg/sg74_34_cif.got.tgz:66781.got - 2010.06.03 17:57:02.
