data_PCOD9538454
_publ_section_title
;
Structure prediction by ZEFSAII (Michael W. Deem and Ramdas Pophale) SiO2 
 PCOD9538454
Probable space group: I M M A
;
_chemical_formula_sum "Si O2"
_cell_formula_units_Z 112
_cell_length_a 15.371908
_cell_length_b 23.825734
_cell_length_c 15.876730
_cell_angle_alpha 90.000000
_cell_angle_beta 90.000000
_cell_angle_gamma 90.000000
_cell_volume 5814.804591
_symmetry_space_group_name_H-M "I M M A"
_symmetry_group_IT_number 74
_symmetry_cell_setting 'orthorhombic'
loop_
_space_group_symop_operation_xyz
x,y,z
-x,1/2-y,z
x,-y,-z
-x,1/2+y,-z
-x,-y,-z
x,1/2+y,-z
-x,y,z
x,1/2-y,z
1/2+x,1/2+y,1/2+z
1/2-x,-y,1/2+z
1/2+x,1/2-y,1/2-z
1/2-x,y,1/2-z
1/2-x,1/2-y,1/2-z
1/2+x,y,1/2-z
1/2-x,1/2+y,1/2+z
1/2+x,-y,1/2+z
loop_
_atom_site_type_symbol
_atom_site_label
_atom_site_fract_x
_atom_site_fract_y
_atom_site_fract_z
Si Si1 0.907674 0.911012 0.760487
Si Si2 0.346631 0.684605 0.626205
Si Si3 0.764737 0.402516 0.848793
Si Si4 0.200855 0.099164 0.395063
Si Si5 0.646398 0.985907 0.589806
Si Si6 0.599860 0.817027 0.434129
Si Si7 0.900476 0.436841 0.539360
O O1 0.893400 0.849847 0.800322
O O2 0.833366 0.923477 0.693592
O O3 0.904662 0.951330 0.840676
O O4 0.000000 0.916082 0.716912
O O5 0.344236 0.750000 0.643138
O O6 0.251451 0.656806 0.618878
O O7 0.391039 0.675004 0.535170
O O8 0.750000 0.392188 0.750000
O O9 0.821472 0.457940 0.865880
O O10 0.822555 0.352589 0.890791
O O11 0.672028 0.418265 0.892614
O O12 0.271708 0.055113 0.430472
O O13 0.122512 0.102545 0.459955
O O14 0.604660 0.000000 0.500000
O O15 0.500000 0.833011 0.409651
O O16 0.610034 0.750000 0.418133
O O17 0.890682 0.500000 0.500000
O O18 0.000000 0.431699 0.568806
#
# Coordination Sequence:
#
# PCOD9538454 Si02
#       7
#    16  16  16  16  16  16  16
#     4  11  24  35  53  87 122 155 197 246 297 352
#     4  10  20  37  62  84 112 155 202 245 292 349
#     4  12  22  38  63  90 123 152 198 254 301 357
#     4  11  19  39  58  81 120 157 200 240 292 355
#     4  11  20  37  59  81 116 159 196 240 295 354
#     4  10  22  41  64  87 115 156 200 244 302 365
#     4  11  22  39  63  89 122 165 205 239 293 364
#
# _framework density 19.261181000000001
#
# number of rings (size 3 to 8) (size 9 to 14) (size 15 to 20)
#    0.000    1.143    4.286    4.286    0.000    3.714 
#    0.000    0.000    0.000    3.000    0.000    0.000 
#    0.000    0.000    0.000    0.000    0.000    0.000 
#
# Total GULP energy -312464.492602 kJ/mol
# GULP energy per Si atom -5579.723082 kJ/mol
# Density = 1.921734 g / cm^3
# Si number density = 19.261181 Si / 1000 Ang^3
#
#
#
# Elastic Constant Matrix: (Units=GPa)
#
#
# Indices 1 2 3 4 5 6 
#
# 1 125.1896 30.9458 33.4758 0.0000 0.0000 0.0000
# 2 30.9458 61.1594 6.3567 0.0000 0.0000 0.0000
# 3 33.4758 6.3567 81.5203 -0.0002 -0.0001 -0.0001
# 4 0.0000 0.0000 -0.0002 19.1440 -0.0001 0.0000
# 5 0.0000 0.0000 -0.0001 -0.0001 4.2071 0.0000
# 6 0.0000 0.0000 -0.0001 0.0000 0.0000 -12.0458
#
#
#
# Elastic Compliance Matrix: (Units=1/GPa)
#
#
# Indices 1 2 3 4 5 6 
#
# 1 0.010183 -0.004756 -0.003811 0.000000 0.000000 0.000000
# 2 -0.004756 0.018706 0.000494 0.000000 0.000000 0.000000
# 3 -0.003811 0.000494 0.013793 0.000000 0.000000 0.000000
# 4 0.000000 0.000000 0.000000 0.052236 0.000001 0.000000
# 5 0.000000 0.000000 0.000000 0.000001 0.237695 0.000000
# 6 0.000000 0.000000 0.000000 0.000000 0.000000 -0.083016
#
#
# Mechanical properties :
#
#
# Convention : Reuss Voigt Hill
#
# Bulk Modulus (GPa) = 37.68314 45.49177 41.58745
# Shear Modulus (GPa) = 18.20925 15.40045 16.80485
#
# Velocity S-wave (km/s) = 3.07805 2.83071 2.95697
# Velocity P-wave (km/s) = 5.67796 5.86119 5.77031
#
# Compressibility (1/GPa) = 0.02653707
#
# Stress axis : x y z
#
# Youngs Moduli (GPa) = 98.20763 53.45910 72.50005
#
# Poissons Ratio (x) = 0.25426 0.27626
# Poissons Ratio (y) = 0.46709 -0.03585
# Poissons Ratio (z) = 0.37422 -0.02643
#
# Static dielectric constant tensor:
#      x y z
#    x 1.741900 0.000000 0.000000 
#    y 0.000000 1.660740 0.000000 
#    z 0.000000 0.000000 1.676870 
# 
# From -- ./inp_files/32717.got.cif
#   From: 2010.05.17/outbox.cif.g08.bks.cpg/sg74_17_cif.got.tgz:32717.got - 2010.06.03 17:57:02.
