data_PCOD9538952
_publ_section_title
;
Structure prediction by ZEFSAII (Michael W. Deem and Ramdas Pophale) SiO2 
 PCOD9538952
Probable space group: I M M A
;
_chemical_formula_sum "Si O2"
_cell_formula_units_Z 80
_cell_length_a 13.782037
_cell_length_b 10.867202
_cell_length_c 27.440691
_cell_angle_alpha 90.000000
_cell_angle_beta 90.000000
_cell_angle_gamma 90.000000
_cell_volume 4109.852113
_symmetry_space_group_name_H-M "I M M A"
_symmetry_group_IT_number 74
_symmetry_cell_setting 'orthorhombic'
loop_
_space_group_symop_operation_xyz
x,y,z
-x,1/2-y,z
x,-y,-z
-x,1/2+y,-z
-x,-y,-z
x,1/2+y,-z
-x,y,z
x,1/2-y,z
1/2+x,1/2+y,1/2+z
1/2-x,-y,1/2+z
1/2+x,1/2-y,1/2-z
1/2-x,y,1/2-z
1/2-x,1/2-y,1/2-z
1/2+x,y,1/2-z
1/2-x,1/2+y,1/2+z
1/2+x,-y,1/2+z
loop_
_atom_site_type_symbol
_atom_site_label
_atom_site_fract_x
_atom_site_fract_y
_atom_site_fract_z
Si Si1 0.322461 0.614788 0.971201
Si Si2 0.891599 0.385121 0.880757
Si Si3 0.607507 0.117044 0.451371
Si Si4 0.615755 0.610589 0.859693
Si Si5 0.283987 0.109996 0.805396
O O1 0.362591 0.750000 0.983613
O O2 0.206535 0.618632 0.981728
O O3 0.337151 0.596098 0.913407
O O4 0.365137 0.500000 0.000000
O O5 0.880804 0.250000 0.905080
O O6 0.885648 0.499243 0.917058
O O7 0.810418 0.394103 0.839913
O O8 0.000000 0.388701 0.859192
O O9 0.500000 0.114793 0.475354
O O10 0.610443 0.250000 0.424469
O O11 0.500000 0.605717 0.865762
O O12 0.641074 0.750000 0.842619
O O13 0.649461 0.500821 0.824659
O O14 0.325299 0.250000 0.809723
O O15 0.250000 0.092511 0.750000
#
# Coordination Sequence:
#
# PCOD9538952 Si02
#       5
#    16  16  16  16  16
#     4  10  21  36  55  81 112 147 188 237 287 340
#     4   9  17  30  50  76 106 139 175 217 266 323
#     4   9  17  31  52  77 105 139 178 220 271 330
#     4  10  22  41  61  82 113 152 194 241 289 335
#     4  10  21  36  57  86 116 147 184 228 280 339
#
# _framework density 19.465420999999999
#
# number of rings (size 3 to 8) (size 9 to 14) (size 15 to 20)
#    0.000    2.400    2.000    0.000    0.000    4.000 
#    0.000    2.000    0.000    2.400    0.000    0.000 
#    0.000    0.000    0.000    0.000    0.000    0.000 
#
# Total GULP energy -222841.327804 kJ/mol
# GULP energy per Si atom -5571.033195 kJ/mol
# Density = 1.942112 g / cm^3
# Si number density = 19.465421 Si / 1000 Ang^3
#
#
#
# Elastic Constant Matrix: (Units=GPa)
#
#
# Indices 1 2 3 4 5 6 
#
# 1 59.7814 33.5822 6.3771 0.0000 0.0000 0.0000
# 2 33.5822 203.4413 70.1051 0.0000 0.0000 0.0000
# 3 6.3771 70.1051 43.6410 0.0000 0.0000 0.0000
# 4 0.0000 0.0000 0.0000 28.5198 0.0000 0.0000
# 5 0.0000 0.0000 0.0000 0.0000 -1.6390 0.0000
# 6 0.0000 0.0000 0.0000 0.0000 0.0000 23.5021
#
#
#
# Elastic Compliance Matrix: (Units=1/GPa)
#
#
# Indices 1 2 3 4 5 6 
#
# 1 0.018921 -0.004862 0.005045 0.000000 0.000000 0.000000
# 2 -0.004862 0.012260 -0.018983 0.000000 0.000000 0.000000
# 3 0.005045 -0.018983 0.052672 0.000000 0.000000 0.000000
# 4 0.000000 0.000000 0.000000 0.035063 0.000000 0.000000
# 5 0.000000 0.000000 0.000000 0.000000 -0.610120 0.000000
# 6 0.000000 0.000000 0.000000 0.000000 0.000000 0.042549
#
#
# Mechanical properties :
#
#
# Convention : Reuss Voigt Hill
#
# Bulk Modulus (GPa) = 21.62064 58.55472 40.08768
# Shear Modulus (GPa) = -12.63781 23.19654 5.27936
#
# Velocity S-wave (km/s) = -2.55079 3.45582 1.64865
# Velocity P-wave (km/s) = 1.56714 6.78751 4.92576
#
# Compressibility (1/GPa) = 0.04625211
#
# Stress axis : x y z
#
# Youngs Moduli (GPa) = 52.85264 81.56919 18.98550
#
# Poissons Ratio (x) = 0.39657 -0.09579
# Poissons Ratio (y) = 0.25696 0.36041
# Poissons Ratio (z) = -0.26665 1.54845
#
# Static dielectric constant tensor:
#      x y z
#    x 1.705780 0.000000 0.000000 
#    y 0.000000 1.742790 0.000000 
#    z 0.000000 0.000000 1.638100 
# 
# From -- ./inp_files/59706.got.cif
#   From: 2010.05.17/outbox.cif.g08.bks.cpg/sg74_30_cif.got.tgz:59706.got - 2010.06.03 17:57:02.
