data_PCOD9538163
_publ_section_title
;
Structure prediction by ZEFSAII (Michael W. Deem and Ramdas Pophale) SiO2 
 PCOD9538163
Probable space group: I M M A
;
_chemical_formula_sum "Si O2"
_cell_formula_units_Z 96
_cell_length_a 8.702691
_cell_length_b 19.012974
_cell_length_c 33.512640
_cell_angle_alpha 90.000000
_cell_angle_beta 90.000000
_cell_angle_gamma 90.000000
_cell_volume 5545.136729
_symmetry_space_group_name_H-M "I M M A"
_symmetry_group_IT_number 74
_symmetry_cell_setting 'orthorhombic'
loop_
_space_group_symop_operation_xyz
x,y,z
-x,1/2-y,z
x,-y,-z
-x,1/2+y,-z
-x,-y,-z
x,1/2+y,-z
-x,y,z
x,1/2-y,z
1/2+x,1/2+y,1/2+z
1/2-x,-y,1/2+z
1/2+x,1/2-y,1/2-z
1/2-x,y,1/2-z
1/2-x,1/2-y,1/2-z
1/2+x,y,1/2-z
1/2-x,1/2+y,1/2+z
1/2+x,-y,1/2+z
loop_
_atom_site_type_symbol
_atom_site_label
_atom_site_fract_x
_atom_site_fract_y
_atom_site_fract_z
Si Si1 0.684249 0.541477 0.869787
Si Si2 0.186192 0.402388 0.584704
Si Si3 0.683741 0.666805 0.003497
Si Si4 0.685791 0.169937 0.833239
Si Si5 0.817040 0.033006 0.793085
Si Si6 0.183452 0.668567 0.917124
O O1 0.500000 0.539982 0.866937
O O2 0.731870 0.480236 0.901259
O O3 0.753858 0.518165 0.827587
O O4 0.741269 0.615631 0.885950
O O5 0.240942 0.376715 0.541690
O O6 0.228232 0.350530 0.621150
O O7 0.000000 0.401104 0.582716
O O8 0.500000 0.655866 0.998920
O O9 0.707313 0.750000 0.011352
O O10 0.763414 0.648907 0.961848
O O11 0.500000 0.164039 0.830246
O O12 0.729532 0.250000 0.824197
O O13 0.760123 0.111159 0.805329
O O14 0.750000 0.014809 0.750000
O O15 0.000000 0.031208 0.792394
O O16 0.230180 0.750000 0.910818
O O17 0.000000 0.664369 0.914437
#
# Coordination Sequence:
#
# PCOD9538163 Si02
#       6
#    16  16  16  16  16  16
#     4  10  20  36  57  79 102 130 168 211 258 310
#     4   8  15  28  48  74 102 135 176 219 257 295
#     4   9  16  28  48  72  99 136 180 218 251 292
#     4   9  17  31  51  75 105 142 183 223 260 298
#     4  11  22  37  56  78 105 135 169 208 255 309
#     4  10  21  36  52  73 103 136 169 208 256 307
#
# _framework density 17.312469
#
# number of rings (size 3 to 8) (size 9 to 14) (size 15 to 20)
#    0.000    2.500    0.000    4.000    0.000    4.333 
#    0.000    7.500    0.000    4.500    0.000    0.000 
#    0.000    0.000    0.000    0.000    0.000    0.000 
#
# Total GULP energy -267800.262606 kJ/mol
# GULP energy per Si atom -5579.172138 kJ/mol
# Density = 1.727306 g / cm^3
# Si number density = 17.312469 Si / 1000 Ang^3
#
#
#
# Elastic Constant Matrix: (Units=GPa)
#
#
# Indices 1 2 3 4 5 6 
#
# 1 58.1974 41.8313 52.1485 0.0000 0.0000 0.0000
# 2 41.8313 83.7517 85.2111 0.0000 0.0000 0.0000
# 3 52.1485 85.2111 134.7988 0.0000 0.0000 0.0000
# 4 0.0000 0.0000 0.0000 8.7953 0.0000 0.0000
# 5 0.0000 0.0000 0.0000 0.0000 25.7055 0.0000
# 6 0.0000 0.0000 0.0000 0.0000 0.0000 22.7273
#
#
#
# Elastic Compliance Matrix: (Units=1/GPa)
#
#
# Indices 1 2 3 4 5 6 
#
# 1 0.028254 -0.008382 -0.005632 0.000000 0.000000 0.000000
# 2 -0.008382 0.035946 -0.019480 0.000000 0.000000 0.000000
# 3 -0.005632 -0.019480 0.021911 0.000000 0.000000 0.000000
# 4 0.000000 0.000000 0.000000 0.113696 0.000000 0.000000
# 5 0.000000 0.000000 0.000000 0.000000 0.038902 0.000000
# 6 0.000000 0.000000 0.000000 0.000000 0.000000 0.044000
#
#
# Mechanical properties :
#
#
# Convention : Reuss Voigt Hill
#
# Bulk Modulus (GPa) = 52.29147 70.56999 61.43073
# Shear Modulus (GPa) = 14.04203 17.94943 15.99573
#
# Velocity S-wave (km/s) = 2.85106 3.22342 3.04294
# Velocity P-wave (km/s) = 6.41156 7.39628 6.92145
#
# Compressibility (1/GPa) = 0.01912358
#
# Stress axis : x y z
#
# Youngs Moduli (GPa) = 35.39273 27.81918 45.63834
#
# Poissons Ratio (x) = 0.23318 0.25703
# Poissons Ratio (y) = 0.29667 0.88905
# Poissons Ratio (z) = 0.19933 0.54193
#
# Static dielectric constant tensor:
#      x y z
#    x 1.583550 0.000000 0.000000 
#    y 0.000000 1.580210 0.000000 
#    z 0.000000 0.000000 1.572450 
# 
# From -- ./inp_files/64332.got.cif
#   From: 2010.05.17/outbox.cif.g08.bks.cpg/sg74_33_cif.got.tgz:64332.got - 2010.06.03 17:57:02.
