data_PCOD9538283
_publ_section_title
;
Structure prediction by ZEFSAII (Michael W. Deem and Ramdas Pophale) SiO2 
 PCOD9538283
Probable space group: I M M A
;
_chemical_formula_sum "Si O2"
_cell_formula_units_Z 100
_cell_length_a 19.342230
_cell_length_b 8.791460
_cell_length_c 34.071921
_cell_angle_alpha 90.000000
_cell_angle_beta 90.000000
_cell_angle_gamma 90.000000
_cell_volume 5793.808916
_symmetry_space_group_name_H-M "I M M A"
_symmetry_group_IT_number 74
_symmetry_cell_setting 'orthorhombic'
loop_
_space_group_symop_operation_xyz
x,y,z
-x,1/2-y,z
x,-y,-z
-x,1/2+y,-z
-x,-y,-z
x,1/2+y,-z
-x,y,z
x,1/2-y,z
1/2+x,1/2+y,1/2+z
1/2-x,-y,1/2+z
1/2+x,1/2-y,1/2-z
1/2-x,y,1/2-z
1/2-x,1/2-y,1/2-z
1/2+x,y,1/2-z
1/2-x,1/2+y,1/2+z
1/2+x,-y,1/2+z
loop_
_atom_site_type_symbol
_atom_site_label
_atom_site_fract_x
_atom_site_fract_y
_atom_site_fract_z
Si Si1 0.622108 0.425175 0.181258
Si Si2 0.500000 0.927822 0.942081
Si Si3 0.000000 0.422266 0.639426
Si Si4 0.768392 0.928391 0.612778
Si Si5 0.500000 0.250000 0.352029
Si Si6 0.350759 0.069139 0.959670
Si Si7 0.668062 0.076390 0.741821
Si Si8 0.141333 0.918935 0.839670
O O1 0.598981 0.250000 0.176913
O O2 0.566379 0.542823 0.165214
O O3 0.688447 0.445799 0.153188
O O4 0.636027 0.463333 0.226273
O O5 0.500000 0.750000 0.952038
O O6 0.500000 0.956725 0.895576
O O7 0.428797 0.004117 0.955864
O O8 0.000000 0.250000 0.623852
O O9 0.770901 0.750000 0.601572
O O10 0.689909 0.970930 0.624303
O O11 0.806262 0.018848 0.578155
O O12 0.562335 0.380874 0.350373
O O13 0.353756 0.250000 0.961914
O O14 0.321289 0.000000 0.000000
O O15 0.644784 0.250000 0.748535
O O16 0.750000 0.072090 0.750000
O O17 0.650061 0.024842 0.697940
O O18 0.170618 0.750000 0.828332
#
# Coordination Sequence:
#
# PCOD9538283 Si02
#       8
#    16   8   8  16   4  16  16  16
#     4  11  22  36  56  77 108 155 203 247 291 346
#     4  12  23  39  59  81 119 168 212 246 288 337
#     4  12  24  38  54  79 113 153 203 255 296 333
#     4  10  20  36  60  85 112 149 193 243 292 353
#     4   8  20  38  64  88 112 140 196 238 300 376
#     4  12  25  40  60  87 123 159 200 246 290 339
#     4  11  22  34  53  82 117 154 198 250 300 345
#     4   9  19  38  61  84 114 148 195 241 296 365
#
# _framework density 17.259803000000002
#
# number of rings (size 3 to 8) (size 9 to 14) (size 15 to 20)
#    0.480    0.800    3.200    4.080    0.000    2.560 
#    0.000    1.200    0.000    0.000    0.000    0.560 
#    0.000    0.000    0.000    0.000    0.000    0.000 
#
# Total GULP energy -278384.934577 kJ/mol
# GULP energy per Si atom -5567.698692 kJ/mol
# Density = 1.722052 g / cm^3
# Si number density = 17.259803 Si / 1000 Ang^3
#
#
#
# Elastic Constant Matrix: (Units=GPa)
#
#
# Indices 1 2 3 4 5 6 
#
# 1 111.2611 33.0771 36.2928 0.0000 0.0000 0.0000
# 2 33.0771 91.8311 33.5466 0.0000 0.0000 0.0000
# 3 36.2928 33.5466 86.4763 0.0000 0.0000 0.0000
# 4 0.0000 0.0000 0.0000 28.0415 0.0000 0.0000
# 5 0.0000 0.0000 0.0000 0.0000 16.3269 0.0000
# 6 0.0000 0.0000 0.0000 0.0000 0.0000 91.1636
#
#
#
# Elastic Compliance Matrix: (Units=1/GPa)
#
#
# Indices 1 2 3 4 5 6 
#
# 1 0.010935 -0.002636 -0.003567 0.000000 0.000000 0.000000
# 2 -0.002636 0.013323 -0.004062 0.000000 0.000000 0.000000
# 3 -0.003567 -0.004062 0.014637 0.000000 0.000000 0.000000
# 4 0.000000 0.000000 0.000000 0.035661 0.000000 0.000000
# 5 0.000000 0.000000 0.000000 0.000000 0.061249 0.000000
# 6 0.000000 0.000000 0.000000 0.000000 0.000000 0.010969
#
#
# Mechanical properties :
#
#
# Convention : Reuss Voigt Hill
#
# Bulk Modulus (GPa) = 54.45103 55.04462 54.74782
# Shear Modulus (GPa) = 28.83096 39.54986 34.19041
#
# Velocity S-wave (km/s) = 4.09150 4.79210 4.45559
# Velocity P-wave (km/s) = 7.34417 7.91075 7.63272
#
# Compressibility (1/GPa) = 0.01836513
#
# Stress axis : x y z
#
# Youngs Moduli (GPa) = 91.45021 75.05891 68.32189
#
# Poissons Ratio (x) = 0.19784 0.24369
# Poissons Ratio (y) = 0.24104 0.27753
# Poissons Ratio (z) = 0.32618 0.30490
#
# Static dielectric constant tensor:
#      x y z
#    x 1.599070 0.000000 0.000000 
#    y 0.000000 1.600530 0.000000 
#    z 0.000000 0.000000 1.587410 
# 
# From -- ./inp_files/73452.got.cif
#   From: 2010.05.17/outbox.cif.g08.bks.cpg/sg74_37_cif.got.tgz:73452.got - 2010.06.03 17:57:02.
