data_PCOD9538066
_publ_section_title
;
Structure prediction by ZEFSAII (Michael W. Deem and Ramdas Pophale) SiO2 
 PCOD9538066
Probable space group: I M M A
;
_chemical_formula_sum "Si O2"
_cell_formula_units_Z 88
_cell_length_a 20.860188
_cell_length_b 17.021686
_cell_length_c 13.251718
_cell_angle_alpha 90.000000
_cell_angle_beta 90.000000
_cell_angle_gamma 90.000000
_cell_volume 4705.361323
_symmetry_space_group_name_H-M "I M M A"
_symmetry_group_IT_number 74
_symmetry_cell_setting 'orthorhombic'
loop_
_space_group_symop_operation_xyz
x,y,z
-x,1/2-y,z
x,-y,-z
-x,1/2+y,-z
-x,-y,-z
x,1/2+y,-z
-x,y,z
x,1/2-y,z
1/2+x,1/2+y,1/2+z
1/2-x,-y,1/2+z
1/2+x,1/2-y,1/2-z
1/2-x,y,1/2-z
1/2-x,1/2-y,1/2-z
1/2+x,y,1/2-z
1/2-x,1/2+y,1/2+z
1/2+x,-y,1/2+z
loop_
_atom_site_type_symbol
_atom_site_label
_atom_site_fract_x
_atom_site_fract_y
_atom_site_fract_z
Si Si1 0.363408 0.156408 0.139962
Si Si2 0.500000 0.589872 0.882130
Si Si3 0.709763 0.158498 0.940171
Si Si4 0.879373 0.841835 0.254391
Si Si5 0.500000 0.098961 0.880960
Si Si6 0.324511 0.047331 0.592787
Si Si7 0.250000 0.064137 0.250000
O O1 0.364078 0.250000 0.153763
O O2 0.433483 0.121933 0.162846
O O3 0.306396 0.116726 0.202560
O O4 0.344251 0.139329 0.023153
O O5 0.500000 0.495669 0.874779
O O6 0.500000 0.616732 0.999811
O O7 0.726200 0.250000 0.952959
O O8 0.681808 0.147992 0.828156
O O9 0.771241 0.105179 0.954214
O O10 0.883035 0.750000 0.225668
O O11 0.871217 0.899757 0.160507
O O12 0.939119 0.865569 0.323531
O O13 0.354898 0.000000 0.500000
O O14 0.284828 0.989747 0.666557
#
# Coordination Sequence:
#
# PCOD9538066 Si02
#       7
#    16   8  16  16   8  16   8
#     4  11  23  39  59  90 128 167 205 248 304 375
#     4  11  23  37  63  93 129 163 196 253 316 373
#     4  10  20  35  59  89 123 158 199 251 312 370
#     4  11  22  39  61  90 124 162 207 258 319 379
#     4  11  23  37  62  93 124 155 202 255 318 373
#     4  12  23  37  59  86 121 159 208 259 315 365
#     4  12  23  38  61  88 126 166 208 252 309 366
#
# _framework density 18.702071
#
# number of rings (size 3 to 8) (size 9 to 14) (size 15 to 20)
#    0.000    0.909    5.455    2.455    0.000    2.182 
#    0.000    0.455    0.000    0.000    0.000    2.545 
#    0.000    0.000    0.000    0.000    0.000    0.000 
#
# Total GULP energy -245855.836456 kJ/mol
# GULP energy per Si atom -5587.632647 kJ/mol
# Density = 1.865950 g / cm^3
# Si number density = 18.702071 Si / 1000 Ang^3
#
#
#
# Elastic Constant Matrix: (Units=GPa)
#
#
# Indices 1 2 3 4 5 6 
#
# 1 93.3362 37.4457 29.5416 0.0000 0.0000 0.0000
# 2 37.4457 50.0234 39.3480 0.0000 0.0000 0.0000
# 3 29.5416 39.3480 79.2130 0.0000 0.0000 0.0000
# 4 0.0000 0.0000 0.0000 27.3804 0.0000 0.0000
# 5 0.0000 0.0000 0.0000 0.0000 30.2619 0.0000
# 6 0.0000 0.0000 0.0000 0.0000 0.0000 34.9938
#
#
#
# Elastic Compliance Matrix: (Units=1/GPa)
#
#
# Indices 1 2 3 4 5 6 
#
# 1 0.015313 -0.011441 -0.000028 0.000000 0.000000 0.000000
# 2 -0.011441 0.041359 -0.016278 0.000000 0.000000 0.000000
# 3 -0.000028 -0.016278 0.020720 0.000000 0.000000 0.000000
# 4 0.000000 0.000000 0.000000 0.036522 0.000000 0.000000
# 5 0.000000 0.000000 0.000000 0.000000 0.033045 0.000000
# 6 0.000000 0.000000 0.000000 0.000000 0.000000 0.028576
#
#
# Mechanical properties :
#
#
# Convention : Reuss Voigt Hill
#
# Bulk Modulus (GPa) = 45.66335 48.36035 47.01185
# Shear Modulus (GPa) = 20.97955 26.27637 23.62796
#
# Velocity S-wave (km/s) = 3.35293 3.75240 3.55827
# Velocity P-wave (km/s) = 6.28162 6.68494 6.48641
#
# Compressibility (1/GPa) = 0.02189940
#
# Stress axis : x y z
#
# Youngs Moduli (GPa) = 65.30565 24.17874 48.26196
#
# Poissons Ratio (x) = 0.27662 0.00133
# Poissons Ratio (y) = 0.74714 0.78559
# Poissons Ratio (z) = 0.00180 0.39357
#
# Static dielectric constant tensor:
#      x y z
#    x 1.630900 0.000000 0.000000 
#    y 0.000000 1.643260 0.000000 
#    z 0.000000 0.000000 1.660430 
# 
# From -- ./inp_files/35214.got.cif
#   From: 2010.05.17/outbox.cif.g08.bks.cpg/sg74_18_cif.got.tgz:35214.got - 2010.06.03 17:57:02.
