data_PCOD9538554
_publ_section_title
;
Structure prediction by ZEFSAII (Michael W. Deem and Ramdas Pophale) SiO2 
 PCOD9538554
Probable space group: I M M A
;
_chemical_formula_sum "Si O2"
_cell_formula_units_Z 64
_cell_length_a 10.593312
_cell_length_b 10.631720
_cell_length_c 32.248276
_cell_angle_alpha 90.000000
_cell_angle_beta 90.000000
_cell_angle_gamma 90.000000
_cell_volume 3631.966182
_symmetry_space_group_name_H-M "I M M A"
_symmetry_group_IT_number 74
_symmetry_cell_setting 'orthorhombic'
loop_
_space_group_symop_operation_xyz
x,y,z
-x,1/2-y,z
x,-y,-z
-x,1/2+y,-z
-x,-y,-z
x,1/2+y,-z
-x,y,z
x,1/2-y,z
1/2+x,1/2+y,1/2+z
1/2-x,-y,1/2+z
1/2+x,1/2-y,1/2-z
1/2-x,y,1/2-z
1/2-x,1/2-y,1/2-z
1/2+x,y,1/2-z
1/2-x,1/2+y,1/2+z
1/2+x,-y,1/2+z
loop_
_atom_site_type_symbol
_atom_site_label
_atom_site_fract_x
_atom_site_fract_y
_atom_site_fract_z
Si Si1 0.222529 0.601889 0.398221
Si Si2 0.750000 0.022037 0.250000
Si Si3 0.350098 0.613984 0.834751
Si Si4 0.500000 0.400734 0.616396
Si Si5 0.500000 0.104252 0.964517
Si Si6 0.000000 0.899939 0.212603
O O1 0.216050 0.750000 0.385468
O O2 0.183659 0.506673 0.362076
O O3 0.369107 0.568449 0.406381
O O4 0.123906 0.587656 0.435626
O O5 0.713199 0.101192 0.209837
O O6 0.873747 0.943849 0.236237
O O7 0.500000 0.612794 0.829228
O O8 0.314846 0.750000 0.853830
O O9 0.500000 0.250000 0.619615
O O10 0.500000 0.447636 0.664427
O O11 0.500000 0.250000 0.979502
O O12 0.500000 0.000000 0.000000
O O13 0.000000 0.750000 0.211051
#
# Coordination Sequence:
#
# PCOD9538554 Si02
#       6
#    16   8  16   8   8   8
#     4  10  20  38  62  88 114 149 192 237 288 344
#     4  12  22  38  50  78 117 158 203 244 297 348
#     4  11  23  37  54  80 114 157 199 242 294 343
#     4   9  18  34  56  82 115 148 187 236 289 336
#     4  10  22  39  64  93 119 149 187 234 293 358
#     4  11  22  33  53  81 112 151 197 251 296 335
#
# _framework density 17.621309
#
# number of rings (size 3 to 8) (size 9 to 14) (size 15 to 20)
#    0.000    1.500    5.000    0.750    0.000    2.000 
#    0.000    2.500    0.000    0.000    0.000    0.000 
#    0.000    0.000    0.000    0.000    0.000    0.000 
#
# Total GULP energy -178343.965616 kJ/mol
# GULP energy per Si atom -5573.248925 kJ/mol
# Density = 1.758120 g / cm^3
# Si number density = 17.621309 Si / 1000 Ang^3
#
#
#
# Elastic Constant Matrix: (Units=GPa)
#
#
# Indices 1 2 3 4 5 6 
#
# 1 158.7921 50.9885 46.6391 0.0000 0.0000 0.0000
# 2 50.9885 111.1270 62.4682 0.0000 0.0000 0.0000
# 3 46.6391 62.4682 75.8424 0.0000 0.0000 0.0000
# 4 0.0000 0.0000 0.0000 29.2836 0.0000 0.0000
# 5 0.0000 0.0000 0.0000 0.0000 16.8861 0.0000
# 6 0.0000 0.0000 0.0000 0.0000 0.0000 -9.0224
#
#
#
# Elastic Compliance Matrix: (Units=1/GPa)
#
#
# Indices 1 2 3 4 5 6 
#
# 1 0.007845 -0.001653 -0.003463 0.000000 0.000000 0.000000
# 2 -0.001653 0.017106 -0.013073 0.000000 0.000000 0.000000
# 3 -0.003463 -0.013073 0.026082 0.000000 0.000000 0.000000
# 4 0.000000 0.000000 0.000000 0.034149 0.000000 0.000000
# 5 0.000000 0.000000 0.000000 0.000000 0.059220 0.000000
# 6 0.000000 0.000000 0.000000 0.000000 0.000000 -0.110835
#
#
# Mechanical properties :
#
#
# Convention : Reuss Voigt Hill
#
# Bulk Modulus (GPa) = 68.23194 73.99478 71.11336
# Shear Modulus (GPa) = 66.81772 19.80718 43.31245
#
# Velocity S-wave (km/s) = 6.16450 3.35632 4.96316
# Velocity P-wave (km/s) = 9.45904 7.55663 8.56084
#
# Compressibility (1/GPa) = 0.01465589
#
# Stress axis : x y z
#
# Youngs Moduli (GPa) = 127.46214 58.45949 38.34014
#
# Poissons Ratio (x) = 0.09664 0.13277
# Poissons Ratio (y) = 0.21071 0.50121
# Poissons Ratio (z) = 0.44140 0.76423
#
# Static dielectric constant tensor:
#      x y z
#    x 1.631780 0.000000 0.000000 
#    y 0.000000 1.617730 0.000000 
#    z 0.000000 0.000000 1.573180 
# 
# From -- ./inp_files/69816.got.cif
#   From: 2010.05.17/outbox.cif.g08.bks.cpg/sg74_35_cif.got.tgz:69816.got - 2010.06.03 17:57:02.
