data_PCOD9538593
_publ_section_title
;
Structure prediction by ZEFSAII (Michael W. Deem and Ramdas Pophale) SiO2 
 PCOD9538593
Probable space group: I M M A
;
_chemical_formula_sum "Si O2"
_cell_formula_units_Z 84
_cell_length_a 20.484500
_cell_length_b 7.586752
_cell_length_c 25.529357
_cell_angle_alpha 90.000000
_cell_angle_beta 90.000000
_cell_angle_gamma 90.000000
_cell_volume 3967.538340
_symmetry_space_group_name_H-M "I M M A"
_symmetry_group_IT_number 74
_symmetry_cell_setting 'orthorhombic'
loop_
_space_group_symop_operation_xyz
x,y,z
-x,1/2-y,z
x,-y,-z
-x,1/2+y,-z
-x,-y,-z
x,1/2+y,-z
-x,y,z
x,1/2-y,z
1/2+x,1/2+y,1/2+z
1/2-x,-y,1/2+z
1/2+x,1/2-y,1/2-z
1/2-x,y,1/2-z
1/2-x,1/2-y,1/2-z
1/2+x,y,1/2-z
1/2-x,1/2+y,1/2+z
1/2+x,-y,1/2+z
loop_
_atom_site_type_symbol
_atom_site_label
_atom_site_fract_x
_atom_site_fract_y
_atom_site_fract_z
Si Si1 0.870273 0.959391 0.940881
Si Si2 0.220943 0.960369 0.559778
Si Si3 0.500000 0.750000 0.877376
Si Si4 0.571188 0.543239 0.332814
Si Si5 0.675858 0.963812 0.251565
Si Si6 0.110164 0.452440 0.640614
O O1 0.868716 0.750000 0.935418
O O2 0.795604 0.026099 0.934364
O O3 0.914341 0.029736 0.894283
O O4 0.891801 0.000000 0.000000
O O5 0.221039 0.750000 0.567215
O O6 0.201115 0.000000 0.500000
O O7 0.170940 0.041101 0.600637
O O8 0.443160 0.594432 0.875992
O O9 0.500000 0.465827 0.320255
O O10 0.568147 0.750000 0.319377
O O11 0.631702 0.469527 0.299643
O O12 0.680509 0.750000 0.255916
O O13 0.750000 0.030814 0.250000
O O14 0.638008 0.000882 0.197882
O O15 0.085743 0.250000 0.642755
#
# Coordination Sequence:
#
# PCOD9538593 Si02
#       6
#    16  16   4  16  16  16
#     4  10  21  37  60  90 122 159 203 256 311 372
#     4  10  20  38  64  94 124 155 205 263 315 375
#     4  12  26  44  60  94 130 168 216 268 304 402
#     4  10  21  37  57  85 124 166 207 255 309 376
#     4   9  19  37  64  95 123 160 211 258 312 379
#     4  11  23  42  68  91 126 172 210 261 326 377
#
# _framework density 21.171817999999998
#
# number of rings (size 3 to 8) (size 9 to 14) (size 15 to 20)
#    0.000    1.905    0.952    2.571    1.333    4.571 
#    1.714    0.952    0.000    0.000    0.000    0.000 
#    0.000    0.000    0.000    0.000    0.000    0.000 
#
# Total GULP energy -234145.271035 kJ/mol
# GULP energy per Si atom -5574.887406 kJ/mol
# Density = 2.112363 g / cm^3
# Si number density = 21.171818 Si / 1000 Ang^3
#
#
#
# Elastic Constant Matrix: (Units=GPa)
#
#
# Indices 1 2 3 4 5 6 
#
# 1 108.6141 8.0747 48.8596 0.0000 0.0000 0.0000
# 2 8.0747 81.0429 -6.8156 0.0000 0.0000 0.0000
# 3 48.8596 -6.8156 86.7910 0.0000 0.0000 0.0000
# 4 0.0000 0.0000 0.0000 9.7159 0.0000 0.0000
# 5 0.0000 0.0000 0.0000 0.0000 19.9935 0.0000
# 6 0.0000 0.0000 0.0000 0.0000 0.0000 43.5226
#
#
#
# Elastic Compliance Matrix: (Units=1/GPa)
#
#
# Indices 1 2 3 4 5 6 
#
# 1 0.012603 -0.001865 -0.007241 0.000000 0.000000 0.000000
# 2 -0.001865 0.012697 0.002047 0.000000 0.000000 0.000000
# 3 -0.007241 0.002047 0.015759 0.000000 0.000000 0.000000
# 4 0.000000 0.000000 0.000000 0.102925 0.000000 0.000000
# 5 0.000000 0.000000 0.000000 0.000000 0.050016 0.000000
# 6 0.000000 0.000000 0.000000 0.000000 0.000000 0.022977
#
#
# Mechanical properties :
#
#
# Convention : Reuss Voigt Hill
#
# Bulk Modulus (GPa) = 37.11836 41.85393 39.48614
# Shear Modulus (GPa) = 20.82677 29.73501 25.28089
#
# Velocity S-wave (km/s) = 3.13981 3.75168 3.45930
# Velocity P-wave (km/s) = 5.54207 6.21115 5.88613
#
# Compressibility (1/GPa) = 0.02694085
#
# Stress axis : x y z
#
# Youngs Moduli (GPa) = 79.34585 78.75831 63.45469
#
# Poissons Ratio (x) = 0.14686 0.45950
# Poissons Ratio (y) = 0.14796 -0.12988
# Poissons Ratio (z) = 0.57458 -0.16120
#
# Static dielectric constant tensor:
#      x y z
#    x 1.748490 0.000000 0.000000 
#    y 0.000000 1.778740 0.000000 
#    z 0.000000 0.000000 1.641620 
# 
# From -- ./inp_files/61339.got.cif
#   From: 2010.05.17/outbox.cif.g08.bks.cpg/sg74_31_cif.got.tgz:61339.got - 2010.06.03 17:57:02.
