data_PCOD9538263
_publ_section_title
;
Structure prediction by ZEFSAII (Michael W. Deem and Ramdas Pophale) SiO2 
 PCOD9538263
Probable space group: I M M A
;
_chemical_formula_sum "Si O2"
_cell_formula_units_Z 112
_cell_length_a 23.338940
_cell_length_b 14.270990
_cell_length_c 16.915263
_cell_angle_alpha 90.000000
_cell_angle_beta 90.000000
_cell_angle_gamma 90.000000
_cell_volume 5633.962915
_symmetry_space_group_name_H-M "I M M A"
_symmetry_group_IT_number 74
_symmetry_cell_setting 'orthorhombic'
loop_
_space_group_symop_operation_xyz
x,y,z
-x,1/2-y,z
x,-y,-z
-x,1/2+y,-z
-x,-y,-z
x,1/2+y,-z
-x,y,z
x,1/2-y,z
1/2+x,1/2+y,1/2+z
1/2-x,-y,1/2+z
1/2+x,1/2-y,1/2-z
1/2-x,y,1/2-z
1/2-x,1/2-y,1/2-z
1/2+x,y,1/2-z
1/2-x,1/2+y,1/2+z
1/2+x,-y,1/2+z
loop_
_atom_site_type_symbol
_atom_site_label
_atom_site_fract_x
_atom_site_fract_y
_atom_site_fract_z
Si Si1 0.737110 0.138569 0.566082
Si Si2 0.614074 0.136589 0.631317
Si Si3 0.363734 0.862073 0.686042
Si Si4 0.931635 0.014937 0.725106
Si Si5 0.844482 0.487499 0.592559
Si Si6 0.563249 0.136178 0.465167
Si Si7 0.254480 0.638605 0.881203
O O1 0.742093 0.250000 0.573617
O O2 0.679934 0.109951 0.612588
O O3 0.733137 0.119140 0.471712
O O4 0.793883 0.089029 0.597269
O O5 0.611313 0.250000 0.637325
O O6 0.588418 0.088752 0.708281
O O7 0.579356 0.106296 0.553136
O O8 0.367235 0.750000 0.696741
O O9 0.390604 0.887395 0.600588
O O10 0.296622 0.886952 0.678743
O O11 0.403522 0.917279 0.746279
O O12 0.000000 0.011092 0.719571
O O13 0.899560 0.037729 0.643459
O O14 0.858086 0.500000 0.500000
O O15 0.812675 0.580705 0.625088
O O16 0.500000 0.103729 0.442090
O O17 0.562669 0.250000 0.467489
O O18 0.264110 0.750000 0.874307
#
# Coordination Sequence:
#
# PCOD9538263 Si02
#       7
#    16  16  16  16  16  16  16
#     4   9  17  34  62  92 119 147 183 229 283 345
#     4  10  20  36  59  87 121 156 187 226 275 334
#     4  10  20  36  59  87 121 156 187 226 275 334
#     4  12  27  41  55  81 114 152 201 247 287 332
#     4  10  23  42  62  82 107 145 193 250 305 348
#     4   9  16  29  51  79 116 163 195 207 244 319
#     4   9  17  34  62  92 119 147 183 229 283 345
#
# _framework density 19.879435000000001
#
# number of rings (size 3 to 8) (size 9 to 14) (size 15 to 20)
#    0.000    2.143    1.429    1.714    0.000    6.000 
#    0.000    4.286    0.000    0.000    0.000    6.000 
#    0.000    0.000    0.000    0.000    0.000    0.000 
#
# Total GULP energy -312934.929491 kJ/mol
# GULP energy per Si atom -5588.123741 kJ/mol
# Density = 1.983419 g / cm^3
# Si number density = 19.879435 Si / 1000 Ang^3
#
#
#
# Elastic Constant Matrix: (Units=GPa)
#
#
# Indices 1 2 3 4 5 6 
#
# 1 156.6493 29.4447 78.7602 0.0000 0.0000 0.0000
# 2 29.4447 39.7270 6.7387 0.0000 0.0000 0.0000
# 3 78.7602 6.7387 75.8729 0.0000 0.0000 0.0000
# 4 0.0000 0.0000 0.0000 11.6352 0.0000 0.0000
# 5 0.0000 0.0000 0.0000 0.0000 24.0559 0.0000
# 6 0.0000 0.0000 0.0000 0.0000 0.0000 13.2332
#
#
#
# Elastic Compliance Matrix: (Units=1/GPa)
#
#
# Indices 1 2 3 4 5 6 
#
# 1 0.016126 -0.009252 -0.015918 0.000000 0.000000 0.000000
# 2 -0.009252 0.030865 0.006863 0.000000 0.000000 0.000000
# 3 -0.015918 0.006863 0.029094 0.000000 0.000000 0.000000
# 4 0.000000 0.000000 0.000000 0.085946 0.000000 0.000000
# 5 0.000000 0.000000 0.000000 0.000000 0.041570 0.000000
# 6 0.000000 0.000000 0.000000 0.000000 0.000000 0.075568
#
#
# Mechanical properties :
#
#
# Convention : Reuss Voigt Hill
#
# Bulk Modulus (GPa) = 25.33512 55.79294 40.56403
# Shear Modulus (GPa) = 15.20033 20.27189 17.73611
#
# Velocity S-wave (km/s) = 2.76819 3.19680 2.99018
# Velocity P-wave (km/s) = 4.79470 6.46163 5.68955
#
# Compressibility (1/GPa) = 0.03947090
#
# Stress axis : x y z
#
# Youngs Moduli (GPa) = 62.01171 32.39901 34.37128
#
# Poissons Ratio (x) = 0.29976 0.54712
# Poissons Ratio (y) = 0.57374 -0.23589
# Poissons Ratio (z) = 0.98710 -0.22235
#
# Static dielectric constant tensor:
#      x y z
#    x 1.670160 0.000000 0.000000 
#    y 0.000000 1.740090 0.000000 
#    z 0.000000 0.000000 1.712110 
# 
# From -- ./inp_files/36539.got.cif
#   From: 2010.05.17/outbox.cif.g08.bks.cpg/sg74_19_cif.got.tgz:36539.got - 2010.06.03 17:57:02.
