data_PCOD9538126
_publ_section_title
;
Structure prediction by ZEFSAII (Michael W. Deem and Ramdas Pophale) SiO2 
 PCOD9538126
Probable space group: I M M A
;
_chemical_formula_sum "Si O2"
_cell_formula_units_Z 116
_cell_length_a 14.360159
_cell_length_b 30.342121
_cell_length_c 11.524415
_cell_angle_alpha 90.000000
_cell_angle_beta 90.000000
_cell_angle_gamma 90.000000
_cell_volume 5021.391390
_symmetry_space_group_name_H-M "I M M A"
_symmetry_group_IT_number 74
_symmetry_cell_setting 'orthorhombic'
loop_
_space_group_symop_operation_xyz
x,y,z
-x,1/2-y,z
x,-y,-z
-x,1/2+y,-z
-x,-y,-z
x,1/2+y,-z
-x,y,z
x,1/2-y,z
1/2+x,1/2+y,1/2+z
1/2-x,-y,1/2+z
1/2+x,1/2-y,1/2-z
1/2-x,y,1/2-z
1/2-x,1/2-y,1/2-z
1/2+x,y,1/2-z
1/2-x,1/2+y,1/2+z
1/2+x,-y,1/2+z
loop_
_atom_site_type_symbol
_atom_site_label
_atom_site_fract_x
_atom_site_fract_y
_atom_site_fract_z
Si Si1 0.890045 0.102481 0.815140
Si Si2 0.861506 0.339210 0.237980
Si Si3 0.393400 0.394947 0.940234
Si Si4 0.393957 0.564270 0.827398
Si Si5 0.000000 0.250000 0.899096
Si Si6 0.609510 0.499892 0.628079
Si Si7 0.350031 0.819755 0.478147
Si Si8 0.636870 0.202163 0.026468
O O1 0.849066 0.105765 0.685923
O O2 0.887423 0.051008 0.840214
O O3 0.000000 0.115620 0.812799
O O4 0.845009 0.133745 0.911637
O O5 0.750000 0.343607 0.250000
O O6 0.898229 0.387505 0.268797
O O7 0.888030 0.325996 0.108812
O O8 0.884743 0.303691 0.336737
O O9 0.500000 0.411260 0.926019
O O10 0.351016 0.423921 0.045761
O O11 0.399044 0.343726 0.975878
O O12 0.500000 0.548722 0.849702
O O13 0.353544 0.530647 0.732360
O O14 0.082008 0.211876 0.908014
O O15 0.653476 0.500000 0.500000
O O16 0.500000 0.514015 0.615298
O O17 0.247080 0.800520 0.499050
O O18 0.603891 0.250000 0.984900
#
# Coordination Sequence:
#
# PCOD9538126 Si02
#       8
#    16  16  16  16   4  16  16  16
#     4  10  20  36  55  81 118 149 186 245 296 344
#     4   9  20  34  56  79 114 150 176 230 292 345
#     4   9  20  38  56  80 111 152 199 245 293 345
#     4   9  17  32  54  82 109 144 192 230 278 349
#     4  12  24  36  54  90 118 154 196 244 300 366
#     4   9  17  29  53  86 116 145 183 232 293 358
#     4  11  22  37  56  83 116 149 192 241 295 356
#     4  10  21  39  58  80 112 151 196 241 292 350
#
# _framework density 23.101165999999999
#
# number of rings (size 3 to 8) (size 9 to 14) (size 15 to 20)
#    0.000    2.345    1.379    0.828    1.931    3.310 
#    1.241    3.448    3.034    0.000    0.000    0.000 
#    0.000    0.000    0.000    0.000    0.000    0.000 
#
# Total GULP energy -323068.749223 kJ/mol
# GULP energy per Si atom -5570.150849 kJ/mol
# Density = 2.304859 g / cm^3
# Si number density = 23.101166 Si / 1000 Ang^3
#
#
#
# Elastic Constant Matrix: (Units=GPa)
#
#
# Indices 1 2 3 4 5 6 
#
# 1 80.4804 9.6985 -0.3744 0.0001 0.0000 0.0000
# 2 9.6985 96.7662 39.4064 0.0002 0.0012 0.0001
# 3 -0.3744 39.4064 106.1568 0.0010 0.0042 0.0004
# 4 0.0001 0.0002 0.0010 15.3351 0.0007 0.0001
# 5 0.0000 0.0012 0.0042 0.0007 85.3382 -0.0003
# 6 0.0000 0.0001 0.0004 0.0001 -0.0003 -16.8911
#
#
#
# Elastic Compliance Matrix: (Units=1/GPa)
#
#
# Indices 1 2 3 4 5 6 
#
# 1 0.012610 -0.001510 0.000605 0.000000 0.000000 0.000000
# 2 -0.001510 0.012355 -0.004592 0.000000 0.000000 0.000000
# 3 0.000605 -0.004592 0.011127 -0.000001 0.000000 0.000000
# 4 0.000000 0.000000 -0.000001 0.065210 -0.000001 0.000000
# 5 0.000000 0.000000 0.000000 -0.000001 0.011718 0.000000
# 6 0.000000 0.000000 0.000000 0.000000 0.000000 -0.059203
#
#
# Mechanical properties :
#
#
# Convention : Reuss Voigt Hill
#
# Bulk Modulus (GPa) = 39.84316 42.31825 41.08070
# Shear Modulus (GPa) = 68.32700 32.40131 50.36415
#
# Velocity S-wave (km/s) = 5.44440 3.74917 4.67428
# Velocity P-wave (km/s) = 7.53702 6.09099 6.85226
#
# Compressibility (1/GPa) = 0.02509841
#
# Stress axis : x y z
#
# Youngs Moduli (GPa) = 79.30092 80.93568 89.87406
#
# Poissons Ratio (x) = 0.12224 -0.05438
# Poissons Ratio (y) = 0.11977 0.41268
# Poissons Ratio (z) = -0.04799 0.37164
#
# Static dielectric constant tensor:
#      x y z
#    x 1.948840 0.000000 0.000000 
#    y 0.000000 1.808740 0.000000 
#    z 0.000000 0.000000 1.907510 
# 
# From -- ./inp_files/22823.got.cif
#   From: 2010.05.17/outbox.cif.g08.bks.cpg/sg74_12_cif.got.tgz:22823.got - 2010.06.03 17:57:02.
