data_PCOD9538553
_publ_section_title
;
Structure prediction by ZEFSAII (Michael W. Deem and Ramdas Pophale) SiO2 
 PCOD9538553
Probable space group: I M M A
;
_chemical_formula_sum "Si O2"
_cell_formula_units_Z 104
_cell_length_a 24.123614
_cell_length_b 25.596300
_cell_length_c 9.265775
_cell_angle_alpha 90.000000
_cell_angle_beta 90.000000
_cell_angle_gamma 90.000000
_cell_volume 5721.386837
_symmetry_space_group_name_H-M "I M M A"
_symmetry_group_IT_number 74
_symmetry_cell_setting 'orthorhombic'
loop_
_space_group_symop_operation_xyz
x,y,z
-x,1/2-y,z
x,-y,-z
-x,1/2+y,-z
-x,-y,-z
x,1/2+y,-z
-x,y,z
x,1/2-y,z
1/2+x,1/2+y,1/2+z
1/2-x,-y,1/2+z
1/2+x,1/2-y,1/2-z
1/2-x,y,1/2-z
1/2-x,1/2-y,1/2-z
1/2+x,y,1/2-z
1/2-x,1/2+y,1/2+z
1/2+x,-y,1/2+z
loop_
_atom_site_type_symbol
_atom_site_label
_atom_site_fract_x
_atom_site_fract_y
_atom_site_fract_z
Si Si1 0.691896 0.098031 0.170594
Si Si2 0.500000 0.982001 0.334400
Si Si3 0.000000 0.643223 0.164508
Si Si4 0.613268 0.500440 0.827161
Si Si5 0.391896 0.311161 0.821567
Si Si6 0.691067 0.401714 0.825390
Si Si7 0.000000 0.687241 0.844824
Si Si8 0.609836 0.189151 0.166098
O O1 0.750000 0.093326 0.250000
O O2 0.660065 0.151511 0.207045
O O3 0.651302 0.050187 0.207584
O O4 0.699968 0.096997 0.997848
O O5 0.500000 0.919131 0.321932
O O6 0.444574 0.001800 0.255693
O O7 0.500000 0.000000 0.500000
O O8 0.054247 0.667442 0.240069
O O9 0.000000 0.658896 0.997194
O O10 0.648480 0.448553 0.790116
O O11 0.603188 0.500000 0.000000
O O12 0.383356 0.250000 0.789339
O O13 0.339417 0.347565 0.785552
O O14 0.400814 0.316546 0.994443
O O15 0.750000 0.408107 0.750000
O O16 0.945324 0.674488 0.752985
O O17 0.000000 0.750000 0.868353
O O18 0.622263 0.250000 0.193743
#
# Coordination Sequence:
#
# PCOD9538553 Si02
#       8
#    16   8   8  16  16  16   8  16
#     4  10  22  37  60  87 112 155 199 235 287 346
#     4  12  27  40  58  93 121 149 185 246 302 341
#     4  12  23  38  58  87 121 150 189 241 299 349
#     4  10  22  43  63  84 114 154 197 237 288 355
#     4  10  20  38  62  87 115 156 198 236 286 350
#     4  10  21  38  59  85 118 152 192 242 287 338
#     4  10  21  36  56  86 120 155 188 235 291 346
#     4   9  20  38  60  86 119 155 197 239 285 345
#
# _framework density 18.177409999999998
#
# number of rings (size 3 to 8) (size 9 to 14) (size 15 to 20)
#    0.000    1.846    1.538    1.846    2.154    4.308 
#    0.000    0.000    0.000    0.000    0.000    0.000 
#    0.000    0.000    0.000    0.000    0.000    0.000 
#
# Total GULP energy -290500.814755 kJ/mol
# GULP energy per Si atom -5586.554130 kJ/mol
# Density = 1.813604 g / cm^3
# Si number density = 18.177410 Si / 1000 Ang^3
#
#
#
# Elastic Constant Matrix: (Units=GPa)
#
#
# Indices 1 2 3 4 5 6 
#
# 1 191.0799 85.4703 80.4049 0.0000 0.0000 0.0000
# 2 85.4703 116.7690 53.9270 0.0000 0.0000 0.0000
# 3 80.4049 53.9270 51.7361 0.0000 0.0000 0.0000
# 4 0.0000 0.0000 0.0000 20.7793 0.0000 0.0000
# 5 0.0000 0.0000 0.0000 0.0000 35.7239 0.0000
# 6 0.0000 0.0000 0.0000 0.0000 0.0000 19.9429
#
#
#
# Elastic Compliance Matrix: (Units=1/GPa)
#
#
# Indices 1 2 3 4 5 6 
#
# 1 0.015134 -0.000415 -0.023088 0.000000 0.000000 0.000000
# 2 -0.000415 0.016524 -0.016579 0.000000 0.000000 0.000000
# 3 -0.023088 -0.016579 0.072493 0.000000 0.000000 0.000000
# 4 0.000000 0.000000 0.000000 0.048125 0.000000 0.000000
# 5 0.000000 0.000000 0.000000 0.000000 0.027992 0.000000
# 6 0.000000 0.000000 0.000000 0.000000 0.000000 0.050143
#
#
# Mechanical properties :
#
#
# Convention : Reuss Voigt Hill
#
# Bulk Modulus (GPa) = 41.69056 88.79883 65.24470
# Shear Modulus (GPa) = 15.69502 24.60807 20.15154
#
# Velocity S-wave (km/s) = 2.94162 3.68336 3.33318
# Velocity P-wave (km/s) = 5.87560 8.18821 7.12634
#
# Compressibility (1/GPa) = 0.02398625
#
# Stress axis : x y z
#
# Youngs Moduli (GPa) = 66.07445 60.51664 13.79452
#
# Poissons Ratio (x) = 0.02511 0.31849
# Poissons Ratio (y) = 0.02742 0.22870
# Poissons Ratio (z) = 1.52555 1.00332
#
# Static dielectric constant tensor:
#      x y z
#    x 1.574430 0.000000 0.000000 
#    y 0.000000 1.630280 0.000000 
#    z 0.000000 0.000000 1.604950 
# 
# From -- ./inp_files/12820.got.cif
#   From: 2010.05.17/outbox.cif.g08.bks.cpg/sg74_7_cif.got.tgz:12820.got - 2010.06.03 17:57:02.
