data_PCOD9538264
_publ_section_title
;
Structure prediction by ZEFSAII (Michael W. Deem and Ramdas Pophale) SiO2 
 PCOD9538264
Probable space group: I M M A
;
_chemical_formula_sum "Si O2"
_cell_formula_units_Z 116
_cell_length_a 9.640105
_cell_length_b 24.010617
_cell_length_c 25.549464
_cell_angle_alpha 90.000000
_cell_angle_beta 90.000000
_cell_angle_gamma 90.000000
_cell_volume 5913.803338
_symmetry_space_group_name_H-M "I M M A"
_symmetry_group_IT_number 74
_symmetry_cell_setting 'orthorhombic'
loop_
_space_group_symop_operation_xyz
x,y,z
-x,1/2-y,z
x,-y,-z
-x,1/2+y,-z
-x,-y,-z
x,1/2+y,-z
-x,y,z
x,1/2-y,z
1/2+x,1/2+y,1/2+z
1/2-x,-y,1/2+z
1/2+x,1/2-y,1/2-z
1/2-x,y,1/2-z
1/2-x,1/2-y,1/2-z
1/2+x,y,1/2-z
1/2-x,1/2+y,1/2+z
1/2+x,-y,1/2+z
loop_
_atom_site_type_symbol
_atom_site_label
_atom_site_fract_x
_atom_site_fract_y
_atom_site_fract_z
Si Si1 0.850029 0.515769 0.794478
Si Si2 0.660785 0.138223 0.101061
Si Si3 0.664743 0.183522 0.303306
Si Si4 0.337810 0.893983 0.098524
Si Si5 0.256869 0.481438 0.413695
Si Si6 0.500000 0.000000 0.500000
Si Si7 0.658397 0.118104 0.701948
Si Si8 0.168175 0.811653 0.492488
O O1 0.750000 0.537895 0.750000
O O2 0.812322 0.524497 0.854388
O O3 0.853819 0.448566 0.788840
O O4 0.000000 0.539172 0.783526
O O5 0.500000 0.150971 0.114260
O O6 0.760114 0.150559 0.149815
O O7 0.669276 0.074734 0.080073
O O8 0.708943 0.175009 0.051694
O O9 0.500000 0.171375 0.298969
O O10 0.677327 0.250000 0.314156
O O11 0.750000 0.172987 0.250000
O O12 0.500000 0.882241 0.109603
O O13 0.243064 0.877593 0.147946
O O14 0.322317 0.959536 0.086431
O O15 0.288602 0.858517 0.048630
O O16 0.378553 0.485925 0.455906
O O17 0.500000 0.139600 0.699442
O O18 0.750000 0.141037 0.750000
O O19 0.214316 0.750000 0.476630
O O20 0.000000 0.812522 0.492428
#
# Coordination Sequence:
#
# PCOD9538264 Si02
#       8
#    16  16  16  16  16   4  16  16
#     4   9  18  33  52  77 112 150 199 241 291 357
#     4  11  23  39  61  90 125 163 209 264 321 387
#     4  10  22  41  66  95 128 171 223 275 328 385
#     4  10  20  36  59  87 121 156 201 252 301 370
#     4  11  23  37  58  88 122 168 212 251 323 382
#     4  12  24  40  58  80 122 172 214 274 308 402
#     4   9  17  30  52  83 117 154 193 233 286 350
#     4   9  19  37  60  85 112 149 196 249 310 368
#
# _framework density 19.615127000000001
#
# number of rings (size 3 to 8) (size 9 to 14) (size 15 to 20)
#    0.000    2.069    0.690    2.483    1.931    5.793 
#    0.000    2.759    0.000    1.655    0.000    0.000 
#    0.000    0.000    0.000    0.000    0.000    0.000 
#
# Total GULP energy -323046.791348 kJ/mol
# GULP energy per Si atom -5569.772265 kJ/mol
# Density = 1.957048 g / cm^3
# Si number density = 19.615127 Si / 1000 Ang^3
#
#
#
# Elastic Constant Matrix: (Units=GPa)
#
#
# Indices 1 2 3 4 5 6 
#
# 1 104.6481 28.5827 50.7682 0.0000 0.0000 0.0000
# 2 28.5827 77.5336 56.1584 0.0000 0.0000 0.0000
# 3 50.7682 56.1584 110.9037 0.0000 0.0000 0.0000
# 4 0.0000 0.0000 0.0000 26.5380 0.0000 0.0000
# 5 0.0000 0.0000 0.0000 0.0000 30.0063 0.0000
# 6 0.0000 0.0000 0.0000 0.0000 0.0000 -4.6752
#
#
#
# Elastic Compliance Matrix: (Units=1/GPa)
#
#
# Indices 1 2 3 4 5 6 
#
# 1 0.012309 -0.000721 -0.005270 0.000000 0.000000 0.000000
# 2 -0.000721 0.020410 -0.010005 0.000000 0.000000 0.000000
# 3 -0.005270 -0.010005 0.016495 0.000000 0.000000 0.000000
# 4 0.000000 0.000000 0.000000 0.037682 0.000000 0.000000
# 5 0.000000 0.000000 0.000000 0.000000 0.033326 0.000000
# 6 0.000000 0.000000 0.000000 0.000000 0.000000 -0.213895
#
#
# Mechanical properties :
#
#
# Convention : Reuss Voigt Hill
#
# Bulk Modulus (GPa) = 58.06053 62.67822 60.36937
# Shear Modulus (GPa) = -89.38287 20.87890 -34.25198
#
# Velocity S-wave (km/s) = -6.75776 3.26610 -4.18329
# Velocity P-wave (km/s) = 5.58798 6.80048 2.74053
#
# Compressibility (1/GPa) = 0.01722340
#
# Stress axis : x y z
#
# Youngs Moduli (GPa) = 81.23964 48.99515 60.62279
#
# Poissons Ratio (x) = 0.03532 0.31947
# Poissons Ratio (y) = 0.05856 0.60654
# Poissons Ratio (z) = 0.42811 0.49020
#
# Static dielectric constant tensor:
#      x y z
#    x 1.682550 0.000000 0.000000 
#    y 0.000000 1.706450 0.000000 
#    z 0.000000 0.000000 1.651130 
# 
# From -- ./inp_files/64883.got.cif
#   From: 2010.05.17/outbox.cif.g08.bks.cpg/sg74_33_cif.got.tgz:64883.got - 2010.06.03 17:57:02.
