data_PCOD9538647
_publ_section_title
;
Structure prediction by ZEFSAII (Michael W. Deem and Ramdas Pophale) SiO2 
 PCOD9538647
Probable space group: I M M A
;
_chemical_formula_sum "Si O2"
_cell_formula_units_Z 64
_cell_length_a 21.572685
_cell_length_b 16.450301
_cell_length_c 8.538306
_cell_angle_alpha 90.000000
_cell_angle_beta 90.000000
_cell_angle_gamma 90.000000
_cell_volume 3030.049798
_symmetry_space_group_name_H-M "I M M A"
_symmetry_group_IT_number 74
_symmetry_cell_setting 'orthorhombic'
loop_
_space_group_symop_operation_xyz
x,y,z
-x,1/2-y,z
x,-y,-z
-x,1/2+y,-z
-x,-y,-z
x,1/2+y,-z
-x,y,z
x,1/2-y,z
1/2+x,1/2+y,1/2+z
1/2-x,-y,1/2+z
1/2+x,1/2-y,1/2-z
1/2-x,y,1/2-z
1/2-x,1/2-y,1/2-z
1/2+x,y,1/2-z
1/2-x,1/2+y,1/2+z
1/2+x,-y,1/2+z
loop_
_atom_site_type_symbol
_atom_site_label
_atom_site_fract_x
_atom_site_fract_y
_atom_site_fract_z
Si Si1 0.379155 0.847007 0.409220
Si Si2 0.254575 0.656003 0.059505
Si Si3 0.000000 0.410310 0.071568
Si Si4 0.885883 0.911015 0.438095
Si Si5 0.000000 0.659947 0.607144
O O1 0.374796 0.750000 0.372393
O O2 0.314102 0.870435 0.492080
O O3 0.438571 0.864888 0.512792
O O4 0.386057 0.897474 0.248739
O O5 0.263605 0.750000 0.015880
O O6 0.250000 0.652302 0.250000
O O7 0.315641 0.608896 0.008322
O O8 0.000000 0.407240 0.257836
O O9 0.000000 0.500000 0.000000
O O10 0.938288 0.851746 0.505620
O O11 0.901591 0.000000 0.500000
O O12 0.000000 0.750000 0.678593
#
# Coordination Sequence:
#
# PCOD9538647 Si02
#       5
#    16  16   8  16   8
#     4  10  20  39  64  84 111 158 205 232 271 351
#     4   8  16  33  58  84 108 142 191 235 271 330
#     4  12  25  40  57  84 118 150 190 242 297 346
#     4  11  21  36  59  89 118 147 188 243 295 336
#     4  12  24  38  56  82 118 152 188 238 294 344
#
# _framework density 21.121763999999999
#
# number of rings (size 3 to 8) (size 9 to 14) (size 15 to 20)
#    0.000    1.750    0.000    7.500    0.000    1.000 
#    0.000    3.750    0.000    4.500    0.000    0.000 
#    0.000    0.000    0.000    0.000    0.000    0.000 
#
# Total GULP energy -178740.718166 kJ/mol
# GULP energy per Si atom -5585.647443 kJ/mol
# Density = 2.107369 g / cm^3
# Si number density = 21.121764 Si / 1000 Ang^3
#
#
#
# Elastic Constant Matrix: (Units=GPa)
#
#
# Indices 1 2 3 4 5 6 
#
# 1 176.1333 15.6802 29.0484 0.0000 0.0000 0.0000
# 2 15.6802 67.4819 1.8189 0.0000 0.0000 0.0000
# 3 29.0484 1.8189 35.6796 0.0000 0.0000 0.0000
# 4 0.0000 0.0000 0.0000 18.0187 0.0000 0.0000
# 5 0.0000 0.0000 0.0000 0.0000 1.1876 0.0000
# 6 0.0000 0.0000 0.0000 0.0000 0.0000 22.5680
#
#
#
# Elastic Compliance Matrix: (Units=1/GPa)
#
#
# Indices 1 2 3 4 5 6 
#
# 1 0.006689 -0.001409 -0.005374 0.000000 0.000000 0.000000
# 2 -0.001409 0.015136 0.000376 0.000000 0.000000 0.000000
# 3 -0.005374 0.000376 0.032383 0.000000 0.000000 0.000000
# 4 0.000000 0.000000 0.000000 0.055498 0.000000 0.000000
# 5 0.000000 0.000000 0.000000 0.000000 0.842019 0.000000
# 6 0.000000 0.000000 0.000000 0.000000 0.000000 0.044311
#
#
# Mechanical properties :
#
#
# Convention : Reuss Voigt Hill
#
# Bulk Modulus (GPa) = 24.15849 41.37665 32.76757
# Shear Modulus (GPa) = 4.88926 23.87135 14.38030
#
# Velocity S-wave (km/s) = 1.52310 3.36546 2.61210
# Velocity P-wave (km/s) = 3.81519 5.89354 4.96435
#
# Compressibility (1/GPa) = 0.04139332
#
# Stress axis : x y z
#
# Youngs Moduli (GPa) = 149.49173 66.06690 30.87996
#
# Poissons Ratio (x) = 0.09312 0.16596
# Poissons Ratio (y) = 0.21071 -0.01161
# Poissons Ratio (z) = 0.80341 -0.02483
#
# Static dielectric constant tensor:
#      x y z
#    x 1.786560 0.000000 0.000000 
#    y 0.000000 1.752370 0.000000 
#    z 0.000000 0.000000 1.729980 
# 
# From -- ./inp_files/11832.got.cif
#   From: 2010.05.17/outbox.cif.g08.bks.cpg/sg74_6_cif.got.tgz:11832.got - 2010.06.03 17:57:02.
