data_PCOD9538569
_publ_section_title
;
Structure prediction by ZEFSAII (Michael W. Deem and Ramdas Pophale) SiO2 
 PCOD9538569
Probable space group: I M M A
;
_chemical_formula_sum "Si O2"
_cell_formula_units_Z 112
_cell_length_a 14.074960
_cell_length_b 31.061965
_cell_length_c 12.186698
_cell_angle_alpha 90.000000
_cell_angle_beta 90.000000
_cell_angle_gamma 90.000000
_cell_volume 5327.974582
_symmetry_space_group_name_H-M "I M M A"
_symmetry_group_IT_number 74
_symmetry_cell_setting 'orthorhombic'
loop_
_space_group_symop_operation_xyz
x,y,z
-x,1/2-y,z
x,-y,-z
-x,1/2+y,-z
-x,-y,-z
x,1/2+y,-z
-x,y,z
x,1/2-y,z
1/2+x,1/2+y,1/2+z
1/2-x,-y,1/2+z
1/2+x,1/2-y,1/2-z
1/2-x,y,1/2-z
1/2-x,1/2-y,1/2-z
1/2+x,y,1/2-z
1/2-x,1/2+y,1/2+z
1/2+x,-y,1/2+z
loop_
_atom_site_type_symbol
_atom_site_label
_atom_site_fract_x
_atom_site_fract_y
_atom_site_fract_z
Si Si1 0.891680 0.886997 0.804718
Si Si2 0.614801 0.958478 0.866299
Si Si3 0.701826 0.451813 0.895369
Si Si4 0.112740 0.627985 0.273158
Si Si5 0.149210 0.798485 0.691529
Si Si6 0.115046 0.700854 0.440959
Si Si7 0.886787 0.908501 0.047062
O O1 0.853738 0.920717 0.715740
O O2 0.893297 0.839202 0.755044
O O3 0.000000 0.900828 0.818169
O O4 0.853945 0.891072 0.928290
O O5 0.500000 0.964200 0.862580
O O6 0.668474 0.003235 0.844164
O O7 0.645536 0.947228 0.989855
O O8 0.666069 0.413136 0.820697
O O9 0.813734 0.446613 0.921355
O O10 0.143905 0.668970 0.343880
O O11 0.125514 0.627436 0.142129
O O12 0.000000 0.622523 0.292512
O O13 0.106088 0.750000 0.697910
O O14 0.250000 0.794996 0.750000
O O15 0.153670 0.809668 0.562366
O O16 0.141328 0.750000 0.415722
O O17 0.000000 0.698750 0.450995
O O18 0.000000 0.920009 0.048401
#
# Coordination Sequence:
#
# PCOD9538569 Si02
#       7
#    16  16  16  16  16  16  16
#     4  10  22  41  63  88 126 170 205 254 319 384
#     4  10  22  41  66  98 124 150 205 269 319 375
#     4  11  21  39  64  91 119 161 209 259 321 369
#     4  10  20  38  63  89 120 159 206 262 312 367
#     4  10  21  35  57  94 131 160 202 260 316 376
#     4   9  18  34  60  92 121 155 204 261 321 376
#     4  10  24  43  58  86 128 170 216 253 303 385
#
# _framework density 21.021121000000001
#
# number of rings (size 3 to 8) (size 9 to 14) (size 15 to 20)
#    0.000    2.000    0.000    3.429    4.000    3.143 
#   10.286    2.143    0.000    4.286    0.000    0.000 
#    0.000    0.000    0.000    0.000    0.000    0.000 
#
# Total GULP energy -312464.004179 kJ/mol
# GULP energy per Si atom -5579.714360 kJ/mol
# Density = 2.097328 g / cm^3
# Si number density = 21.021121 Si / 1000 Ang^3
#
#
#
# Elastic Constant Matrix: (Units=GPa)
#
#
# Indices 1 2 3 4 5 6 
#
# 1 94.8610 36.4393 41.8413 0.0005 0.0000 0.0000
# 2 36.4393 115.3732 87.1942 -0.0013 0.0000 0.0000
# 3 41.8413 87.1942 145.3553 -0.0011 0.0002 -0.0001
# 4 0.0005 -0.0013 -0.0011 -63.4449 -0.0002 0.0000
# 5 0.0000 0.0000 0.0002 -0.0002 24.9611 0.0000
# 6 0.0000 0.0000 -0.0001 0.0000 0.0000 18.4962
#
#
#
# Elastic Compliance Matrix: (Units=1/GPa)
#
#
# Indices 1 2 3 4 5 6 
#
# 1 0.012380 -0.002226 -0.002228 0.000000 0.000000 0.000000
# 2 -0.002226 0.016256 -0.009111 0.000000 0.000000 0.000000
# 3 -0.002228 -0.009111 0.012986 0.000000 0.000000 0.000000
# 4 0.000000 0.000000 0.000000 -0.015762 0.000000 0.000000
# 5 0.000000 0.000000 0.000000 0.000000 0.040062 0.000000
# 6 0.000000 0.000000 0.000000 0.000000 0.000000 0.054065
#
#
# Mechanical properties :
#
#
# Convention : Reuss Voigt Hill
#
# Bulk Modulus (GPa) = 69.00289 76.28212 72.64250
# Shear Modulus (GPa) = 32.90584 8.67679 20.79132
#
# Velocity S-wave (km/s) = 3.96077 2.03387 3.14836
# Velocity P-wave (km/s) = 7.33578 6.47168 6.91723
#
# Compressibility (1/GPa) = 0.01449215
#
# Stress axis : x y z
#
# Youngs Moduli (GPa) = 80.77778 61.51527 77.00354
#
# Poissons Ratio (x) = 0.13693 0.17159
# Poissons Ratio (y) = 0.17981 0.70156
# Poissons Ratio (z) = 0.18000 0.56045
#
# Static dielectric constant tensor:
#      x y z
#    x 1.581500 0.000000 0.000000 
#    y 0.000000 1.750270 0.000000 
#    z 0.000000 0.000000 1.782040 
# 
# From -- ./inp_files/21140.got.cif
#   From: 2010.05.17/outbox.cif.g08.bks.cpg/sg74_11_cif.got.tgz:21140.got - 2010.06.03 17:57:02.
