data_PCOD9538335
_publ_section_title
;
Structure prediction by ZEFSAII (Michael W. Deem and Ramdas Pophale) SiO2 
 PCOD9538335
Probable space group: I M M A
;
_chemical_formula_sum "Si O2"
_cell_formula_units_Z 112
_cell_length_a 13.993151
_cell_length_b 16.406325
_cell_length_c 24.564479
_cell_angle_alpha 90.000000
_cell_angle_beta 90.000000
_cell_angle_gamma 90.000000
_cell_volume 5639.419328
_symmetry_space_group_name_H-M "I M M A"
_symmetry_group_IT_number 74
_symmetry_cell_setting 'orthorhombic'
loop_
_space_group_symop_operation_xyz
x,y,z
-x,1/2-y,z
x,-y,-z
-x,1/2+y,-z
-x,-y,-z
x,1/2+y,-z
-x,y,z
x,1/2-y,z
1/2+x,1/2+y,1/2+z
1/2-x,-y,1/2+z
1/2+x,1/2-y,1/2-z
1/2-x,y,1/2-z
1/2-x,1/2-y,1/2-z
1/2+x,y,1/2-z
1/2-x,1/2+y,1/2+z
1/2+x,-y,1/2+z
loop_
_atom_site_type_symbol
_atom_site_label
_atom_site_fract_x
_atom_site_fract_y
_atom_site_fract_z
Si Si1 0.259111 0.595679 0.122990
Si Si2 0.239204 0.845502 0.574074
Si Si3 0.105428 0.159880 0.795830
Si Si4 0.390913 0.652535 0.025063
Si Si5 0.395313 0.841304 0.823188
Si Si6 0.650289 0.492194 0.779196
Si Si7 0.109195 0.521506 0.936206
O O1 0.195146 0.650684 0.163666
O O2 0.325918 0.636383 0.077908
O O3 0.327713 0.541100 0.160711
O O4 0.178515 0.541432 0.093925
O O5 0.254293 0.750000 0.563588
O O6 0.167744 0.879277 0.527371
O O7 0.186229 0.853043 0.631843
O O8 0.338504 0.892593 0.572020
O O9 0.112687 0.250000 0.769330
O O10 0.000000 0.157255 0.823137
O O11 0.107469 0.083640 0.754521
O O12 0.500000 0.620835 0.029196
O O13 0.398101 0.750000 0.018240
O O14 0.500000 0.840794 0.850870
O O15 0.383250 0.750000 0.798776
O O16 0.395629 0.918809 0.783542
O O17 0.750000 0.507548 0.750000
O O18 0.000000 0.519841 0.916149
O O19 0.108282 0.500000 0.000000
#
# Coordination Sequence:
#
# PCOD9538335 Si02
#       7
#    16  16  16  16  16  16  16
#     4  11  21  38  58  85 116 156 199 243 295 353
#     4  10  20  38  60  86 120 156 196 240 291 350
#     4  10  22  40  62  88 119 156 200 252 306 360
#     4  10  21  36  56  86 124 160 194 238 291 350
#     4  10  20  36  61  90 120 155 195 241 296 360
#     4  10  22  37  59  85 115 154 198 248 303 357
#     4  11  22  38  59  85 118 156 198 244 294 349
#
# _framework density 19.860199999999999
#
# number of rings (size 3 to 8) (size 9 to 14) (size 15 to 20)
#    0.000    1.714    2.857    1.714    0.000    6.571 
#    0.000    2.143    0.000    0.000    0.000    0.000 
#    0.000    0.000    0.000    0.000    0.000    0.000 
#
# Total GULP energy -312198.741283 kJ/mol
# GULP energy per Si atom -5574.977523 kJ/mol
# Density = 1.981500 g / cm^3
# Si number density = 19.860200 Si / 1000 Ang^3
#
#
#
# Elastic Constant Matrix: (Units=GPa)
#
#
# Indices 1 2 3 4 5 6 
#
# 1 98.4583 31.6106 0.5024 0.0000 0.0000 0.0000
# 2 31.6106 111.5041 25.5940 0.0000 0.0000 0.0000
# 3 0.5024 25.5940 34.2949 0.0000 0.0000 0.0000
# 4 0.0000 0.0000 0.0000 16.7694 0.0000 0.0000
# 5 0.0000 0.0000 0.0000 0.0000 26.2448 0.0000
# 6 0.0000 0.0000 0.0000 0.0000 0.0000 31.0465
#
#
#
# Elastic Compliance Matrix: (Units=1/GPa)
#
#
# Indices 1 2 3 4 5 6 
#
# 1 0.011378 -0.003846 0.002704 0.000000 0.000000 0.000000
# 2 -0.003846 0.012122 -0.008990 0.000000 0.000000 0.000000
# 3 0.002704 -0.008990 0.035829 0.000000 0.000000 0.000000
# 4 0.000000 0.000000 0.000000 0.059632 0.000000 0.000000
# 5 0.000000 0.000000 0.000000 0.000000 0.038103 0.000000
# 6 0.000000 0.000000 0.000000 0.000000 0.000000 0.032210
#
#
# Mechanical properties :
#
#
# Convention : Reuss Voigt Hill
#
# Bulk Modulus (GPa) = 25.59975 39.96347 32.78161
# Shear Modulus (GPa) = 22.46586 27.24883 24.85734
#
# Velocity S-wave (km/s) = 3.36698 3.70811 3.54166
# Velocity P-wave (km/s) = 5.29465 6.20480 5.76771
#
# Compressibility (1/GPa) = 0.03906288
#
# Stress axis : x y z
#
# Youngs Moduli (GPa) = 87.89217 82.49332 27.91061
#
# Poissons Ratio (x) = 0.31727 -0.07546
# Poissons Ratio (y) = 0.33804 0.25093
# Poissons Ratio (z) = -0.23762 0.74164
#
# Static dielectric constant tensor:
#      x y z
#    x 1.710430 0.000000 0.000000 
#    y 0.000000 1.828500 0.000000 
#    z 0.000000 0.000000 1.716190 
# 
# From -- ./inp_files/60155.got.cif
#   From: 2010.05.17/outbox.cif.g08.bks.cpg/sg74_31_cif.got.tgz:60155.got - 2010.06.03 17:57:02.
