data_PCOD9538832
_publ_section_title
;
Structure prediction by ZEFSAII (Michael W. Deem and Ramdas Pophale) SiO2 
 PCOD9538832
Probable space group: I M M A
;
_chemical_formula_sum "Si O2"
_cell_formula_units_Z 68
_cell_length_a 7.690129
_cell_length_b 20.941721
_cell_length_c 18.845586
_cell_angle_alpha 90.000000
_cell_angle_beta 90.000000
_cell_angle_gamma 90.000000
_cell_volume 3034.978652
_symmetry_space_group_name_H-M "I M M A"
_symmetry_group_IT_number 74
_symmetry_cell_setting 'orthorhombic'
loop_
_space_group_symop_operation_xyz
x,y,z
-x,1/2-y,z
x,-y,-z
-x,1/2+y,-z
-x,-y,-z
x,1/2+y,-z
-x,y,z
x,1/2-y,z
1/2+x,1/2+y,1/2+z
1/2-x,-y,1/2+z
1/2+x,1/2-y,1/2-z
1/2-x,y,1/2-z
1/2-x,1/2-y,1/2-z
1/2+x,y,1/2-z
1/2-x,1/2+y,1/2+z
1/2+x,-y,1/2+z
loop_
_atom_site_type_symbol
_atom_site_label
_atom_site_fract_x
_atom_site_fract_y
_atom_site_fract_z
Si Si1 0.707791 0.319598 0.333095
Si Si2 0.708316 0.063431 0.833166
Si Si3 0.199688 0.441256 0.420771
Si Si4 0.693372 0.354342 0.541673
Si Si5 0.000000 0.750000 0.483187
O O1 0.500000 0.322811 0.342314
O O2 0.770136 0.250000 0.359217
O O3 0.750000 0.322795 0.250000
O O4 0.792125 0.378102 0.372456
O O5 0.500000 0.066084 0.840123
O O6 0.750000 0.062685 0.750000
O O7 0.784307 0.122534 0.877318
O O8 0.770782 0.998886 0.872921
O O9 0.288826 0.418118 0.492916
O O10 0.000000 0.455752 0.437372
O O11 0.500000 0.328234 0.529661
O O12 0.846285 0.306052 0.521497
#
# Coordination Sequence:
#
# PCOD9538832 Si02
#       5
#    16  16  16  16   4
#     4  10  21  35  52  82 125 176 231 285 345 417
#     4  11  24  45  72 103 145 187 239 304 362 425
#     4  11  23  40  66 101 141 185 231 290 356 420
#     4  12  26  46  76 106 143 188 241 295 366 428
#     4  12  26  52  72 106 148 188 234 310 352 440
#
# _framework density 22.405431
#
# number of rings (size 3 to 8) (size 9 to 14) (size 15 to 20)
#    0.000    0.941    2.353    3.882    1.647    9.882 
#    0.000    0.588    0.000    0.000    0.000    0.000 
#    0.000    0.000    0.000    0.000    0.000    0.000 
#
# Total GULP energy -189765.670236 kJ/mol
# GULP energy per Si atom -5581.343242 kJ/mol
# Density = 2.235444 g / cm^3
# Si number density = 22.405431 Si / 1000 Ang^3
#
#
#
# Elastic Constant Matrix: (Units=GPa)
#
#
# Indices 1 2 3 4 5 6 
#
# 1 148.2337 15.7266 12.9315 0.0000 0.0000 0.0000
# 2 15.7266 61.0753 40.5650 0.0000 0.0000 0.0000
# 3 12.9315 40.5650 130.1038 0.0000 0.0000 0.0000
# 4 0.0000 0.0000 0.0000 26.9381 0.0000 0.0000
# 5 0.0000 0.0000 0.0000 0.0000 25.3047 0.0000
# 6 0.0000 0.0000 0.0000 0.0000 0.0000 5.7261
#
#
#
# Elastic Compliance Matrix: (Units=1/GPa)
#
#
# Indices 1 2 3 4 5 6 
#
# 1 0.006938 -0.001676 -0.000167 0.000000 0.000000 0.000000
# 2 -0.001676 0.021054 -0.006398 0.000000 0.000000 0.000000
# 3 -0.000167 -0.006398 0.009698 0.000000 0.000000 0.000000
# 4 0.000000 0.000000 0.000000 0.037122 0.000000 0.000000
# 5 0.000000 0.000000 0.000000 0.000000 0.039518 0.000000
# 6 0.000000 0.000000 0.000000 0.000000 0.000000 0.174639
#
#
# Mechanical properties :
#
#
# Convention : Reuss Voigt Hill
#
# Bulk Modulus (GPa) = 47.15037 53.09547 50.12292
# Shear Modulus (GPa) = 15.99897 29.60642 22.80270
#
# Velocity S-wave (km/s) = 2.67510 3.63904 3.19365
# Velocity P-wave (km/s) = 5.53457 6.43474 6.00155
#
# Compressibility (1/GPa) = 0.02120874
#
# Stress axis : x y z
#
# Youngs Moduli (GPa) = 144.12427 47.49682 103.11840
#
# Poissons Ratio (x) = 0.07958 0.01724
# Poissons Ratio (y) = 0.24149 0.65974
# Poissons Ratio (z) = 0.02410 0.30388
#
# Static dielectric constant tensor:
#      x y z
#    x 1.844890 0.000000 0.000000 
#    y 0.000000 1.832850 0.000000 
#    z 0.000000 0.000000 1.829980 
# 
# From -- ./inp_files/39208.got.cif
#   From: 2010.05.17/outbox.cif.g08.bks.cpg/sg74_20_cif.got.tgz:39208.got - 2010.06.03 17:57:02.
