data_PCOD9538285
_publ_section_title
;
Structure prediction by ZEFSAII (Michael W. Deem and Ramdas Pophale) SiO2 
 PCOD9538285
Probable space group: I M M A
;
_chemical_formula_sum "Si O2"
_cell_formula_units_Z 88
_cell_length_a 21.311994
_cell_length_b 27.395474
_cell_length_c 8.820248
_cell_angle_alpha 90.000000
_cell_angle_beta 90.000000
_cell_angle_gamma 90.000000
_cell_volume 5149.721001
_symmetry_space_group_name_H-M "I M M A"
_symmetry_group_IT_number 74
_symmetry_cell_setting 'orthorhombic'
loop_
_space_group_symop_operation_xyz
x,y,z
-x,1/2-y,z
x,-y,-z
-x,1/2+y,-z
-x,-y,-z
x,1/2+y,-z
-x,y,z
x,1/2-y,z
1/2+x,1/2+y,1/2+z
1/2-x,-y,1/2+z
1/2+x,1/2-y,1/2-z
1/2-x,y,1/2-z
1/2-x,1/2-y,1/2-z
1/2+x,y,1/2-z
1/2-x,1/2+y,1/2+z
1/2+x,-y,1/2+z
loop_
_atom_site_type_symbol
_atom_site_label
_atom_site_fract_x
_atom_site_fract_y
_atom_site_fract_z
Si Si1 0.000000 0.307454 0.384470
Si Si2 0.380181 0.154488 0.933395
Si Si3 0.000000 0.045037 0.885865
Si Si4 0.500000 0.351798 0.438855
Si Si5 0.622703 0.808494 0.408171
Si Si6 0.748721 0.191126 0.074122
Si Si7 0.571287 0.951607 0.084052
O O1 0.062287 0.318738 0.481758
O O2 0.000000 0.250000 0.338519
O O3 0.000000 0.343978 0.241356
O O4 0.382615 0.168846 0.757734
O O5 0.389912 0.096609 0.947727
O O6 0.313650 0.170616 0.998499
O O7 0.000000 0.094397 0.985358
O O8 0.058123 0.043042 0.765215
O O9 0.000000 0.000000 0.000000
O O10 0.437542 0.325239 0.497980
O O11 0.623102 0.750000 0.395433
O O12 0.687415 0.823736 0.489456
O O13 0.745515 0.250000 0.066759
O O14 0.750000 0.176848 0.250000
O O15 0.500000 0.943336 0.022646
O O16 0.595044 0.000000 0.000000
#
# Coordination Sequence:
#
# PCOD9538285 Si02
#       7
#     8  16   8   8  16  16  16
#     4  12  24  33  51  87 124 159 191 238 293 346
#     4  12  21  38  59  84 116 153 203 242 290 353
#     4  10  20  36  60  85 117 151 190 243 300 357
#     4  12  23  37  56  89 123 152 190 249 299 342
#     4  11  21  37  59  85 119 158 195 238 289 353
#     4  10  22  39  57  83 119 160 199 234 287 360
#     4   9  19  38  58  85 113 145 192 249 298 345
#
# _framework density 17.088303
#
# number of rings (size 3 to 8) (size 9 to 14) (size 15 to 20)
#    0.545    0.727    2.727    4.636    2.545    2.909 
#    0.000    0.000    0.000    3.273    0.000    0.000 
#    0.000    0.000    0.000    0.000    0.000    0.000 
#
# Total GULP energy -245518.349822 kJ/mol
# GULP energy per Si atom -5579.962496 kJ/mol
# Density = 1.704941 g / cm^3
# Si number density = 17.088303 Si / 1000 Ang^3
#
#
#
# Elastic Constant Matrix: (Units=GPa)
#
#
# Indices 1 2 3 4 5 6 
#
# 1 126.3102 22.7811 48.8113 0.0000 0.0000 0.0000
# 2 22.7811 80.1663 31.7967 0.0000 0.0000 0.0000
# 3 48.8113 31.7967 111.3680 0.0000 0.0000 0.0000
# 4 0.0000 0.0000 0.0000 13.8969 0.0000 0.0000
# 5 0.0000 0.0000 0.0000 0.0000 30.1305 0.0000
# 6 0.0000 0.0000 0.0000 0.0000 0.0000 -26.2905
#
#
#
# Elastic Compliance Matrix: (Units=1/GPa)
#
#
# Indices 1 2 3 4 5 6 
#
# 1 0.009632 -0.001198 -0.003880 0.000000 0.000000 0.000000
# 2 -0.001198 0.014216 -0.003534 0.000000 0.000000 0.000000
# 3 -0.003880 -0.003534 0.011688 0.000000 0.000000 0.000000
# 4 0.000000 0.000000 0.000000 0.071958 0.000000 0.000000
# 5 0.000000 0.000000 0.000000 0.000000 0.033189 0.000000
# 6 0.000000 0.000000 0.000000 0.000000 0.000000 -0.038037
#
#
# Mechanical properties :
#
#
# Convention : Reuss Voigt Hill
#
# Bulk Modulus (GPa) = 54.60377 58.29143 56.44760
# Shear Modulus (GPa) = 39.69019 17.84441 28.76730
#
# Velocity S-wave (km/s) = 4.82462 3.23499 4.10744
# Velocity P-wave (km/s) = 7.94098 6.93826 7.45650
#
# Compressibility (1/GPa) = 0.01831375
#
# Stress axis : x y z
#
# Youngs Moduli (GPa) = 103.81630 70.34233 85.55427
#
# Poissons Ratio (x) = 0.08430 0.33192
# Poissons Ratio (y) = 0.12442 0.30231
# Poissons Ratio (z) = 0.40276 0.24856
#
# Static dielectric constant tensor:
#      x y z
#    x 1.605750 0.000000 0.000000 
#    y 0.000000 1.571410 0.000000 
#    z 0.000000 0.000000 1.587670 
# 
# From -- ./inp_files/12488.got.cif
#   From: 2010.05.17/outbox.cif.g08.bks.cpg/sg74_7_cif.got.tgz:12488.got - 2010.06.03 17:57:02.
