data_PCOD9538116
_publ_section_title
;
Structure prediction by ZEFSAII (Michael W. Deem and Ramdas Pophale) SiO2 
 PCOD9538116
Probable space group: I M M A
;
_chemical_formula_sum "Si O2"
_cell_formula_units_Z 96
_cell_length_a 8.421634
_cell_length_b 23.392052
_cell_length_c 28.549358
_cell_angle_alpha 90.000000
_cell_angle_beta 90.000000
_cell_angle_gamma 90.000000
_cell_volume 5624.203554
_symmetry_space_group_name_H-M "I M M A"
_symmetry_group_IT_number 74
_symmetry_cell_setting 'orthorhombic'
loop_
_space_group_symop_operation_xyz
x,y,z
-x,1/2-y,z
x,-y,-z
-x,1/2+y,-z
-x,-y,-z
x,1/2+y,-z
-x,y,z
x,1/2-y,z
1/2+x,1/2+y,1/2+z
1/2-x,-y,1/2+z
1/2+x,1/2-y,1/2-z
1/2-x,y,1/2-z
1/2-x,1/2-y,1/2-z
1/2+x,y,1/2-z
1/2-x,1/2+y,1/2+z
1/2+x,-y,1/2+z
loop_
_atom_site_type_symbol
_atom_site_label
_atom_site_fract_x
_atom_site_fract_y
_atom_site_fract_z
Si Si1 0.189663 0.983676 0.198259
Si Si2 0.814078 0.370974 0.649396
Si Si3 0.807026 0.632838 0.967148
Si Si4 0.805455 0.250000 0.984225
Si Si5 0.189456 0.750000 0.125321
Si Si6 0.809762 0.067541 0.940564
Si Si7 0.691972 0.050649 0.391631
O O1 0.500000 0.985978 0.302324
O O2 0.250000 0.995920 0.250000
O O3 0.238551 0.919876 0.182080
O O4 0.250533 0.028630 0.158846
O O5 0.745816 0.307285 0.651141
O O6 0.777434 0.392784 0.596836
O O7 0.000000 0.369766 0.658403
O O8 0.749463 0.607854 0.917470
O O9 0.000000 0.636018 0.964414
O O10 0.753375 0.693641 0.987461
O O11 0.769426 0.586667 0.007433
O O12 0.754445 0.250000 0.929548
O O13 0.000000 0.250000 0.983123
O O14 0.000000 0.750000 0.123566
O O15 0.000000 0.076461 0.934340
O O16 0.776659 0.002597 0.926436
O O17 0.500000 0.055491 0.387914
#
# Coordination Sequence:
#
# PCOD9538116 Si02
#       7
#    16  16  16   8   8  16  16
#     4  10  20  36  55  74  93 120 155 203 256 302
#     4  11  21  32  48  72  99 131 165 202 241 286
#     4   9  14  23  40  68  99 127 163 202 239 279
#     4   9  16  23  41  70  99 130 164 204 237 267
#     4  11  19  33  50  70  97 134 176 208 234 272
#     4   9  15  26  44  66  94 129 164 199 238 280
#     4   8  15  25  43  69  94 121 157 200 247 293
#
# _framework density 17.069082999999999
#
# number of rings (size 3 to 8) (size 9 to 14) (size 15 to 20)
#    0.000    2.500    1.667    3.750    0.000    2.000 
#    0.000    0.417    0.000    9.000    0.000    0.583 
#    0.000    0.000    0.000    0.000    0.000    0.000 
#
# Total GULP energy -267451.877071 kJ/mol
# GULP energy per Si atom -5571.914106 kJ/mol
# Density = 1.703023 g / cm^3
# Si number density = 17.069083 Si / 1000 Ang^3
#
#
#
# Elastic Constant Matrix: (Units=GPa)
#
#
# Indices 1 2 3 4 5 6 
#
# 1 26.7538 7.5792 13.8759 0.0000 0.0000 0.0000
# 2 7.5792 42.1352 47.3214 0.0000 0.0000 0.0000
# 3 13.8759 47.3214 110.8929 0.0000 0.0000 0.0000
# 4 0.0000 0.0000 0.0000 11.4683 0.0000 0.0000
# 5 0.0000 0.0000 0.0000 0.0000 15.0569 0.0000
# 6 0.0000 0.0000 0.0000 0.0000 0.0000 2.5402
#
#
#
# Elastic Compliance Matrix: (Units=1/GPa)
#
#
# Indices 1 2 3 4 5 6 
#
# 1 0.040173 -0.003036 -0.003731 0.000000 0.000000 0.000000
# 2 -0.003036 0.045805 -0.019166 0.000000 0.000000 0.000000
# 3 -0.003731 -0.019166 0.017664 0.000000 0.000000 0.000000
# 4 0.000000 0.000000 0.000000 0.087197 0.000000 0.000000
# 5 0.000000 0.000000 0.000000 0.000000 0.066415 0.000000
# 6 0.000000 0.000000 0.000000 0.000000 0.000000 0.393664
#
#
# Mechanical properties :
#
#
# Convention : Reuss Voigt Hill
#
# Bulk Modulus (GPa) = 19.31452 35.25944 27.28698
# Shear Modulus (GPa) = 6.94404 13.21345 10.07874
#
# Velocity S-wave (km/s) = 2.01917 2.78531 2.43259
# Velocity P-wave (km/s) = 4.09586 5.57187 4.88988
#
# Compressibility (1/GPa) = 0.05177451
#
# Stress axis : x y z
#
# Youngs Moduli (GPa) = 24.89222 21.83180 56.61376
#
# Poissons Ratio (x) = 0.06627 0.21125
# Poissons Ratio (y) = 0.07556 1.08509
# Poissons Ratio (z) = 0.09288 0.41844
#
# Static dielectric constant tensor:
#      x y z
#    x 1.585440 0.000000 0.000000 
#    y 0.000000 1.597260 0.000000 
#    z 0.000000 0.000000 1.586640 
# 
# From -- ./inp_files/64734.got.cif
#   From: 2010.05.17/outbox.cif.g08.bks.cpg/sg74_33_cif.got.tgz:64734.got - 2010.06.03 17:57:02.
