data_PCOD9538634
_publ_section_title
;
Structure prediction by ZEFSAII (Michael W. Deem and Ramdas Pophale) SiO2 
 PCOD9538634
Probable space group: I M M A
;
_chemical_formula_sum "Si O2"
_cell_formula_units_Z 88
_cell_length_a 27.665440
_cell_length_b 8.884983
_cell_length_c 19.732611
_cell_angle_alpha 90.000000
_cell_angle_beta 90.000000
_cell_angle_gamma 90.000000
_cell_volume 4850.413203
_symmetry_space_group_name_H-M "I M M A"
_symmetry_group_IT_number 74
_symmetry_cell_setting 'orthorhombic'
loop_
_space_group_symop_operation_xyz
x,y,z
-x,1/2-y,z
x,-y,-z
-x,1/2+y,-z
-x,-y,-z
x,1/2+y,-z
-x,y,z
x,1/2-y,z
1/2+x,1/2+y,1/2+z
1/2-x,-y,1/2+z
1/2+x,1/2-y,1/2-z
1/2-x,y,1/2-z
1/2-x,1/2-y,1/2-z
1/2+x,y,1/2-z
1/2-x,1/2+y,1/2+z
1/2+x,-y,1/2+z
loop_
_atom_site_type_symbol
_atom_site_label
_atom_site_fract_x
_atom_site_fract_y
_atom_site_fract_z
Si Si1 0.381098 0.570042 0.199138
Si Si2 0.902789 0.568325 0.844559
Si Si3 0.222535 0.572369 0.678506
Si Si4 0.556231 0.431010 0.929736
Si Si5 0.500000 0.931847 0.575128
Si Si6 0.194173 0.068300 0.074447
O O1 0.383486 0.750000 0.204752
O O2 0.398419 0.499001 0.269719
O O3 0.326755 0.518660 0.182960
O O4 0.414348 0.521080 0.136205
O O5 0.902387 0.750000 0.839247
O O6 0.951717 0.523675 0.883688
O O7 0.855249 0.523172 0.887281
O O8 0.211471 0.750000 0.669341
O O9 0.250000 0.557779 0.750000
O O10 0.259606 0.524171 0.619802
O O11 0.500000 0.474876 0.922554
O O12 0.558560 0.250000 0.934370
O O13 0.574847 0.500000 0.000000
O O14 0.500000 0.750000 0.569691
O O15 0.500000 0.000000 0.500000
O O16 0.194042 0.250000 0.070448
O O17 0.196055 0.000000 0.000000
#
# Coordination Sequence:
#
# PCOD9538634 Si02
#       6
#    16  16  16  16   8  16
#     4  11  23  36  58  89 117 147 187 241 287 330
#     4  10  21  39  58  83 117 155 195 231 280 344
#     4  10  20  39  60  78 110 153 189 228 279 335
#     4   9  20  39  59  82 114 149 186 229 281 337
#     4  10  22  38  60  86 117 154 195 242 285 338
#     4  10  21  37  59  83 112 150 189 231 281 336
#
# _framework density 18.142783000000001
#
# number of rings (size 3 to 8) (size 9 to 14) (size 15 to 20)
#    0.000    2.000    1.818    1.091    1.273    4.727 
#    0.000    3.636    0.000    0.000    0.000    0.000 
#    0.000    0.000    0.000    0.000    0.000    0.000 
#
# Total GULP energy -245700.420367 kJ/mol
# GULP energy per Si atom -5584.100463 kJ/mol
# Density = 1.810149 g / cm^3
# Si number density = 18.142783 Si / 1000 Ang^3
#
#
#
# Elastic Constant Matrix: (Units=GPa)
#
#
# Indices 1 2 3 4 5 6 
#
# 1 127.0527 34.2899 100.6565 0.0000 0.0000 0.0000
# 2 34.2899 14.8269 44.5736 0.0000 0.0000 0.0000
# 3 100.6565 44.5736 204.3071 0.0000 0.0000 0.0000
# 4 0.0000 0.0000 0.0000 38.0945 0.0000 0.0000
# 5 0.0000 0.0000 0.0000 0.0000 34.4841 0.0000
# 6 0.0000 0.0000 0.0000 0.0000 0.0000 -135.4332
#
#
#
# Elastic Compliance Matrix: (Units=1/GPa)
#
#
# Indices 1 2 3 4 5 6 
#
# 1 0.020979 -0.050695 0.000724 0.000000 0.000000 0.000000
# 2 -0.050695 0.318494 -0.044510 0.000000 0.000000 0.000000
# 3 0.000724 -0.044510 0.014248 0.000000 0.000000 0.000000
# 4 0.000000 0.000000 0.000000 0.026250 0.000000 0.000000
# 5 0.000000 0.000000 0.000000 0.000000 0.028999 0.000000
# 6 0.000000 0.000000 0.000000 0.000000 0.000000 -0.007384
#
#
# Mechanical properties :
#
#
# Convention : Reuss Voigt Hill
#
# Bulk Modulus (GPa) = 6.06941 78.35852 42.21397
# Shear Modulus (GPa) = 7.74633 -1.45980 3.14327
#
# Velocity S-wave (km/s) = 2.06855 -0.89798 1.31768
# Velocity P-wave (km/s) = 3.00963 6.49681 5.06292
#
# Compressibility (1/GPa) = 0.16476063
#
# Stress axis : x y z
#
# Youngs Moduli (GPa) = 47.66744 3.13978 70.18353
#
# Poissons Ratio (x) = 0.15917 -0.05084
# Poissons Ratio (y) = 2.41649 3.12385
# Poissons Ratio (z) = -0.03453 0.13975
#
# Static dielectric constant tensor:
#      x y z
#    x 1.637990 0.000000 0.000000 
#    y 0.000000 1.616670 0.000000 
#    z 0.000000 0.000000 1.587670 
# 
# From -- ./inp_files/47025.got.cif
#   From: 2010.05.17/outbox.cif.g08.bks.cpg/sg74_24_cif.got.tgz:47025.got - 2010.06.03 17:57:02.
