data_PCOD9538817
_publ_section_title
;
Structure prediction by ZEFSAII (Michael W. Deem and Ramdas Pophale) SiO2 
 PCOD9538817
Probable space group: I M M A
;
_chemical_formula_sum "Si O2"
_cell_formula_units_Z 64
_cell_length_a 13.463334
_cell_length_b 7.643341
_cell_length_c 37.271346
_cell_angle_alpha 90.000000
_cell_angle_beta 90.000000
_cell_angle_gamma 90.000000
_cell_volume 3835.402372
_symmetry_space_group_name_H-M "I M M A"
_symmetry_group_IT_number 74
_symmetry_cell_setting 'orthorhombic'
loop_
_space_group_symop_operation_xyz
x,y,z
-x,1/2-y,z
x,-y,-z
-x,1/2+y,-z
-x,-y,-z
x,1/2+y,-z
-x,y,z
x,1/2-y,z
1/2+x,1/2+y,1/2+z
1/2-x,-y,1/2+z
1/2+x,1/2-y,1/2-z
1/2-x,y,1/2-z
1/2-x,1/2-y,1/2-z
1/2+x,y,1/2-z
1/2-x,1/2+y,1/2+z
1/2+x,-y,1/2+z
loop_
_atom_site_type_symbol
_atom_site_label
_atom_site_fract_x
_atom_site_fract_y
_atom_site_fract_z
Si Si1 0.388555 0.040071 0.458190
Si Si2 0.263086 0.250000 0.707627
Si Si3 0.885159 0.450319 0.171534
Si Si4 0.754748 0.545722 0.603292
Si Si5 0.118516 0.250000 0.640536
O O1 0.500000 0.974126 0.448651
O O2 0.391126 0.250000 0.453639
O O3 0.298714 0.979839 0.432959
O O4 0.372597 0.000000 0.500000
O O5 0.250000 0.250000 0.750000
O O6 0.326501 0.419380 0.696819
O O7 0.168362 0.250000 0.680447
O O8 0.878391 0.250000 0.184136
O O9 0.832886 0.458561 0.132887
O O10 0.000000 0.499076 0.168640
O O11 0.786402 0.750000 0.599603
O O12 0.838966 0.418668 0.618972
O O13 0.000000 0.250000 0.642465
#
# Coordination Sequence:
#
# PCOD9538817 Si02
#       5
#    16   8  16  16   8
#     4   9  17  28  45  75 109 136 161 197 253 317
#     4  10  21  35  52  75 105 132 161 205 258 307
#     4   9  17  31  52  76 101 129 162 196 242 306
#     4   9  18  33  52  74 100 134 167 209 252 296
#     4  10  22  37  54  75  96 132 182 221 250 287
#
# _framework density 16.686644999999999
#
# number of rings (size 3 to 8) (size 9 to 14) (size 15 to 20)
#    0.000    2.750    0.000    1.125    1.750    5.000 
#    0.000    1.250    0.000    0.750    0.000    0.000 
#    0.000    0.000    0.000    0.000    0.000    0.000 
#
# Total GULP energy -178310.667757 kJ/mol
# GULP energy per Si atom -5572.208367 kJ/mol
# Density = 1.664867 g / cm^3
# Si number density = 16.686645 Si / 1000 Ang^3
#
#
#
# Elastic Constant Matrix: (Units=GPa)
#
#
# Indices 1 2 3 4 5 6 
#
# 1 142.5340 57.5661 52.1392 0.0000 0.0000 0.0000
# 2 57.5661 66.0960 36.7311 0.0000 0.0000 0.0000
# 3 52.1392 36.7311 76.1028 0.0000 0.0000 0.0000
# 4 0.0000 0.0000 0.0000 17.2883 0.0000 0.0000
# 5 0.0000 0.0000 0.0000 0.0000 6.3334 0.0000
# 6 0.0000 0.0000 0.0000 0.0000 0.0000 4.3478
#
#
#
# Elastic Compliance Matrix: (Units=1/GPa)
#
#
# Indices 1 2 3 4 5 6 
#
# 1 0.011750 -0.007871 -0.004251 0.000000 0.000000 0.000000
# 2 -0.007871 0.025948 -0.007131 0.000000 0.000000 0.000000
# 3 -0.004251 -0.007131 0.019494 0.000000 0.000000 0.000000
# 4 0.000000 0.000000 0.000000 0.057843 0.000000 0.000000
# 5 0.000000 0.000000 0.000000 0.000000 0.157893 0.000000
# 6 0.000000 0.000000 0.000000 0.000000 0.000000 0.230001
#
#
# Mechanical properties :
#
#
# Convention : Reuss Voigt Hill
#
# Bulk Modulus (GPa) = 53.51724 64.17839 58.84782
# Shear Modulus (GPa) = 9.12970 14.81366 11.97168
#
# Velocity S-wave (km/s) = 2.34161 2.98276 2.68141
# Velocity P-wave (km/s) = 6.28111 7.09978 6.70296
#
# Compressibility (1/GPa) = 0.01868557
#
# Stress axis : x y z
#
# Youngs Moduli (GPa) = 85.10746 38.53906 51.29693
#
# Poissons Ratio (x) = 0.30335 0.21806
# Poissons Ratio (y) = 0.66989 0.36580
# Poissons Ratio (z) = 0.36179 0.27482
#
# Static dielectric constant tensor:
#      x y z
#    x 1.537670 0.000000 0.000000 
#    y 0.000000 1.599750 0.000000 
#    z 0.000000 0.000000 1.560820 
# 
# From -- ./inp_files/71317.got.cif
#   From: 2010.05.17/outbox.cif.g08.bks.cpg/sg74_36_cif.got.tgz:71317.got - 2010.06.03 17:57:02.
