data_PCOD9538585
_publ_section_title
;
Structure prediction by ZEFSAII (Michael W. Deem and Ramdas Pophale) SiO2 
 PCOD9538585
Probable space group: I M M A
;
_chemical_formula_sum "Si O2"
_cell_formula_units_Z 72
_cell_length_a 16.931668
_cell_length_b 9.057623
_cell_length_c 24.888868
_cell_angle_alpha 90.000000
_cell_angle_beta 90.000000
_cell_angle_gamma 90.000000
_cell_volume 3816.973360
_symmetry_space_group_name_H-M "I M M A"
_symmetry_group_IT_number 74
_symmetry_cell_setting 'orthorhombic'
loop_
_space_group_symop_operation_xyz
x,y,z
-x,1/2-y,z
x,-y,-z
-x,1/2+y,-z
-x,-y,-z
x,1/2+y,-z
-x,y,z
x,1/2-y,z
1/2+x,1/2+y,1/2+z
1/2-x,-y,1/2+z
1/2+x,1/2-y,1/2-z
1/2-x,y,1/2-z
1/2-x,1/2-y,1/2-z
1/2+x,y,1/2-z
1/2-x,1/2+y,1/2+z
1/2+x,-y,1/2+z
loop_
_atom_site_type_symbol
_atom_site_label
_atom_site_fract_x
_atom_site_fract_y
_atom_site_fract_z
Si Si1 0.500000 0.928206 0.941456
Si Si2 0.361963 0.424711 0.140513
Si Si3 0.094344 0.923198 0.943344
Si Si4 0.589136 0.575557 0.737097
Si Si5 0.806720 0.574344 0.150553
O O1 0.500000 0.750000 0.946166
O O2 0.577014 0.968886 0.906131
O O3 0.500000 0.000000 0.000000
O O4 0.344158 0.250000 0.133944
O O5 0.402050 0.441236 0.198964
O O6 0.281425 0.515109 0.141681
O O7 0.115225 0.750000 0.944355
O O8 0.000000 0.934112 0.935149
O O9 0.139283 0.005836 0.896149
O O10 0.113067 0.000000 0.000000
O O11 0.500000 0.532057 0.720832
O O12 0.598720 0.750000 0.724619
O O13 0.655487 0.485817 0.705771
O O14 0.808612 0.750000 0.149559
#
# Coordination Sequence:
#
# PCOD9538585 Si02
#       5
#     8  16  16  16  16
#     4  10  22  42  68  94 118 154 203 254 309 366
#     4  10  21  41  64  86 116 155 202 254 305 360
#     4  10  21  39  62  86 115 154 198 245 297 353
#     4  10  20  38  64  89 116 156 205 252 304 364
#     4  12  25  37  55  89 127 161 199 243 300 364
#
# _framework density 18.863112999999998
#
# number of rings (size 3 to 8) (size 9 to 14) (size 15 to 20)
#    0.000    1.556    1.111    4.000    0.000    9.778 
#    0.000    2.222    0.000    0.000    0.000    0.000 
#    0.000    0.000    0.000    0.000    0.000    0.000 
#
# Total GULP energy -201247.814711 kJ/mol
# GULP energy per Si atom -5590.217075 kJ/mol
# Density = 1.882018 g / cm^3
# Si number density = 18.863113 Si / 1000 Ang^3
#
#
#
# Elastic Constant Matrix: (Units=GPa)
#
#
# Indices 1 2 3 4 5 6 
#
# 1 95.8518 73.0680 67.2627 0.0000 0.0000 0.0000
# 2 73.0680 107.5188 67.5244 0.0000 0.0000 0.0000
# 3 67.2627 67.5244 116.1142 0.0000 0.0000 0.0000
# 4 0.0000 0.0000 0.0000 33.2836 0.0000 0.0000
# 5 0.0000 0.0000 0.0000 0.0000 -18.1713 0.0000
# 6 0.0000 0.0000 0.0000 0.0000 0.0000 19.3537
#
#
#
# Elastic Compliance Matrix: (Units=1/GPa)
#
#
# Indices 1 2 3 4 5 6 
#
# 1 0.025001 -0.012437 -0.007250 0.000000 0.000000 0.000000
# 2 -0.012437 0.020839 -0.004914 0.000000 0.000000 0.000000
# 3 -0.007250 -0.004914 0.015670 0.000000 0.000000 0.000000
# 4 0.000000 0.000000 0.000000 0.030045 0.000000 0.000000
# 5 0.000000 0.000000 0.000000 0.000000 -0.055032 0.000000
# 6 0.000000 0.000000 0.000000 0.000000 0.000000 0.051670
#
#
# Mechanical properties :
#
#
# Convention : Reuss Voigt Hill
#
# Bulk Modulus (GPa) = 81.25182 81.68833 81.47008
# Shear Modulus (GPa) = 35.33627 14.33518 24.83573
#
# Velocity S-wave (km/s) = 4.33286 2.75972 3.63248
# Velocity P-wave (km/s) = 8.25830 7.31810 7.80238
#
# Compressibility (1/GPa) = 0.01230742
#
# Stress axis : x y z
#
# Youngs Moduli (GPa) = 39.99770 47.98720 63.81774
#
# Poissons Ratio (x) = 0.59683 0.46269
# Poissons Ratio (y) = 0.49746 0.31359
# Poissons Ratio (z) = 0.28999 0.23580
#
# Static dielectric constant tensor:
#      x y z
#    x 1.640420 0.000000 0.000000 
#    y 0.000000 1.626650 0.000000 
#    z 0.000000 0.000000 1.646290 
# 
# From -- ./inp_files/56670.got.cif
#   From: 2010.05.17/outbox.cif.g08.bks.cpg/sg74_29_cif.got.tgz:56670.got - 2010.06.03 17:57:02.
