data_PCOD9538286
_publ_section_title
;
Structure prediction by ZEFSAII (Michael W. Deem and Ramdas Pophale) SiO2 
 PCOD9538286
Probable space group: I M M A
;
_chemical_formula_sum "Si O2"
_cell_formula_units_Z 96
_cell_length_a 18.438174
_cell_length_b 19.166286
_cell_length_c 13.976285
_cell_angle_alpha 90.000000
_cell_angle_beta 90.000000
_cell_angle_gamma 90.000000
_cell_volume 4939.097752
_symmetry_space_group_name_H-M "I M M A"
_symmetry_group_IT_number 74
_symmetry_cell_setting 'orthorhombic'
loop_
_space_group_symop_operation_xyz
x,y,z
-x,1/2-y,z
x,-y,-z
-x,1/2+y,-z
-x,-y,-z
x,1/2+y,-z
-x,y,z
x,1/2-y,z
1/2+x,1/2+y,1/2+z
1/2-x,-y,1/2+z
1/2+x,1/2-y,1/2-z
1/2-x,y,1/2-z
1/2-x,1/2-y,1/2-z
1/2+x,y,1/2-z
1/2-x,1/2+y,1/2+z
1/2+x,-y,1/2+z
loop_
_atom_site_type_symbol
_atom_site_label
_atom_site_fract_x
_atom_site_fract_y
_atom_site_fract_z
Si Si1 0.300915 0.332904 0.837867
Si Si2 0.914957 0.328221 0.915416
Si Si3 0.291421 0.670670 0.944029
Si Si4 0.871523 0.827406 0.870048
Si Si5 0.165955 0.932062 0.714290
Si Si6 0.586453 0.923169 0.243103
O O1 0.303355 0.250000 0.829924
O O2 0.250000 0.358399 0.750000
O O3 0.380964 0.363924 0.825535
O O4 0.276033 0.349192 0.945737
O O5 0.881369 0.250000 0.897339
O O6 0.891890 0.391447 0.847459
O O7 0.000000 0.321185 0.895182
O O8 0.905670 0.343634 0.027115
O O9 0.323069 0.750000 0.941871
O O10 0.214293 0.676098 0.891257
O O11 0.333183 0.611263 0.884989
O O12 0.896234 0.750000 0.840313
O O13 0.878684 0.884967 0.789724
O O14 0.250000 0.939367 0.750000
O O15 0.128353 0.006855 0.715072
O O16 0.500000 0.931849 0.238118
#
# Coordination Sequence:
#
# PCOD9538286 Si02
#       6
#    16  16  16  16  16  16
#     4  10  20  36  60  86 109 135 175 227 278 326
#     4   9  18  33  54  80 108 138 174 219 273 331
#     4   9  18  34  57  82 105 134 178 228 271 317
#     4   9  17  32  56  82 107 137 174 219 271 324
#     4  10  21  36  54  78 110 146 181 217 262 320
#     4  11  23  37  53  76 110 147 182 222 270 324
#
# _framework density 19.436748000000001
#
# number of rings (size 3 to 8) (size 9 to 14) (size 15 to 20)
#    0.000    2.333    0.000    2.500    0.000    7.667 
#    0.000    6.667    0.000    2.500    0.000    0.000 
#    0.000    0.000    0.000    0.000    0.000    0.000 
#
# Total GULP energy -267458.397393 kJ/mol
# GULP energy per Si atom -5572.049946 kJ/mol
# Density = 1.939251 g / cm^3
# Si number density = 19.436748 Si / 1000 Ang^3
#
#
#
# Elastic Constant Matrix: (Units=GPa)
#
#
# Indices 1 2 3 4 5 6 
#
# 1 50.8655 34.1877 19.8583 0.0000 0.0000 0.0000
# 2 34.1877 74.1969 60.9906 0.0000 0.0000 0.0000
# 3 19.8583 60.9906 85.6774 0.0000 0.0000 0.0000
# 4 0.0000 0.0000 0.0000 39.8207 0.0000 0.0000
# 5 0.0000 0.0000 0.0000 0.0000 22.5166 0.0000
# 6 0.0000 0.0000 0.0000 0.0000 0.0000 4.1111
#
#
#
# Elastic Compliance Matrix: (Units=1/GPa)
#
#
# Indices 1 2 3 4 5 6 
#
# 1 0.030120 -0.019621 0.006987 0.000000 0.000000 0.000000
# 2 -0.019621 0.045271 -0.027679 0.000000 0.000000 0.000000
# 3 0.006987 -0.027679 0.029756 0.000000 0.000000 0.000000
# 4 0.000000 0.000000 0.000000 0.025113 0.000000 0.000000
# 5 0.000000 0.000000 0.000000 0.000000 0.044412 0.000000
# 6 0.000000 0.000000 0.000000 0.000000 0.000000 0.243242
#
#
# Mechanical properties :
#
#
# Convention : Reuss Voigt Hill
#
# Bulk Modulus (GPa) = 40.78401 48.97921 44.88161
# Shear Modulus (GPa) = 9.86749 19.66990 14.76870
#
# Velocity S-wave (km/s) = 2.25560 3.18464 2.75950
# Velocity P-wave (km/s) = 5.27372 6.22708 5.77013
#
# Compressibility (1/GPa) = 0.02451941
#
# Stress axis : x y z
#
# Youngs Moduli (GPa) = 33.20047 22.08919 33.60673
#
# Poissons Ratio (x) = 0.43342 -0.23480
# Poissons Ratio (y) = 0.65144 0.93020
# Poissons Ratio (z) = -0.23196 0.61140
#
# Static dielectric constant tensor:
#      x y z
#    x 1.719700 0.000000 0.000000 
#    y 0.000000 1.690290 0.000000 
#    z 0.000000 0.000000 1.708890 
# 
# From -- ./inp_files/25171.got.cif
#   From: 2010.05.17/outbox.cif.g08.bks.cpg/sg74_13_cif.got.tgz:25171.got - 2010.06.03 17:57:02.
