data_PCOD9538435
_publ_section_title
;
Structure prediction by ZEFSAII (Michael W. Deem and Ramdas Pophale) SiO2 
 PCOD9538435
Probable space group: I M M A
;
_chemical_formula_sum "Si O2"
_cell_formula_units_Z 44
_cell_length_a 10.010417
_cell_length_b 7.590854
_cell_length_c 25.385124
_cell_angle_alpha 90.000000
_cell_angle_beta 90.000000
_cell_angle_gamma 90.000000
_cell_volume 1928.955002
_symmetry_space_group_name_H-M "I M M A"
_symmetry_group_IT_number 74
_symmetry_cell_setting 'orthorhombic'
loop_
_space_group_symop_operation_xyz
x,y,z
-x,1/2-y,z
x,-y,-z
-x,1/2+y,-z
-x,-y,-z
x,1/2+y,-z
-x,y,z
x,1/2-y,z
1/2+x,1/2+y,1/2+z
1/2-x,-y,1/2+z
1/2+x,1/2-y,1/2-z
1/2-x,y,1/2-z
1/2-x,1/2-y,1/2-z
1/2+x,y,1/2-z
1/2-x,1/2+y,1/2+z
1/2+x,-y,1/2+z
loop_
_atom_site_type_symbol
_atom_site_label
_atom_site_fract_x
_atom_site_fract_y
_atom_site_fract_z
Si Si1 0.650642 0.538929 0.794858
Si Si2 0.000000 0.250000 0.449817
Si Si3 0.799564 0.056147 0.585910
Si Si4 0.000000 0.041812 0.061599
O O1 0.500000 0.512559 0.776224
O O2 0.671532 0.750000 0.802270
O O3 0.750000 0.475365 0.750000
O O4 0.665954 0.456811 0.852222
O O5 0.883006 0.404841 0.442851
O O6 0.836314 0.250000 0.565168
O O7 0.640147 0.031793 0.582435
O O8 0.000000 0.250000 0.071287
O O9 0.000000 0.000000 0.000000
#
# Coordination Sequence:
#
# PCOD9538435 Si02
#       4
#    16   4  16   8
#     4  10  20  37  60  94 138 183 231 287 348 411
#     4  12  22  46  70 102 138 182 224 290 348 416
#     4  12  24  44  73 102 140 187 234 291 355 419
#     4  12  26  50  77 105 145 183 239 296 353 428
#
# _framework density 22.810278
#
# number of rings (size 3 to 8) (size 9 to 14) (size 15 to 20)
#    0.000    0.727    5.455    2.182    2.545    0.727 
#    0.000    0.909    0.000    0.000    0.000    0.000 
#    0.000    0.000    0.000    0.000    0.000    0.000 
#
# Total GULP energy -122707.200495 kJ/mol
# GULP energy per Si atom -5577.600023 kJ/mol
# Density = 2.275836 g / cm^3
# Si number density = 22.810278 Si / 1000 Ang^3
#
#
#
# Elastic Constant Matrix: (Units=GPa)
#
#
# Indices 1 2 3 4 5 6 
#
# 1 148.6041 64.7673 8.6953 0.0000 0.0000 0.0000
# 2 64.7673 197.0691 12.2892 0.0000 0.0000 0.0000
# 3 8.6953 12.2892 67.7951 0.0000 0.0000 0.0000
# 4 0.0000 0.0000 0.0000 24.8447 0.0000 0.0000
# 5 0.0000 0.0000 0.0000 0.0000 63.8646 0.0000
# 6 0.0000 0.0000 0.0000 0.0000 0.0000 3.8758
#
#
#
# Elastic Compliance Matrix: (Units=1/GPa)
#
#
# Indices 1 2 3 4 5 6 
#
# 1 0.007874 -0.002554 -0.000547 0.000000 0.000000 0.000000
# 2 -0.002554 0.005961 -0.000753 0.000000 0.000000 0.000000
# 3 -0.000547 -0.000753 0.014957 0.000000 0.000000 0.000000
# 4 0.000000 0.000000 0.000000 0.040250 0.000000 0.000000
# 5 0.000000 0.000000 0.000000 0.000000 0.015658 0.000000
# 6 0.000000 0.000000 0.000000 0.000000 0.000000 0.258013
#
#
# Mechanical properties :
#
#
# Convention : Reuss Voigt Hill
#
# Bulk Modulus (GPa) = 47.42839 64.99688 56.21263
# Shear Modulus (GPa) = 13.98800 40.36479 27.17640
#
# Velocity S-wave (km/s) = 2.47904 4.21121 3.45543
# Velocity P-wave (km/s) = 5.38812 7.22510 6.37315
#
# Compressibility (1/GPa) = 0.02108442
#
# Stress axis : x y z
#
# Youngs Moduli (GPa) = 126.99464 167.76744 66.85841
#
# Poissons Ratio (x) = 0.42845 0.03657
# Poissons Ratio (y) = 0.32432 0.05034
# Poissons Ratio (z) = 0.06947 0.12632
#
# Static dielectric constant tensor:
#      x y z
#    x 1.786400 0.000000 0.000000 
#    y 0.000000 1.874580 0.000000 
#    z 0.000000 0.000000 1.837690 
# 
# From -- ./inp_files/69484.got.cif
#   From: 2010.05.17/outbox.cif.g08.bks.cpg/sg74_35_cif.got.tgz:69484.got - 2010.06.03 17:57:02.
