data_PCOD9538105
_publ_section_title
;
Structure prediction by ZEFSAII (Michael W. Deem and Ramdas Pophale) SiO2 
 PCOD9538105
Probable space group: I M M A
;
_chemical_formula_sum "Si O2"
_cell_formula_units_Z 96
_cell_length_a 8.673851
_cell_length_b 32.404439
_cell_length_c 19.878146
_cell_angle_alpha 90.000000
_cell_angle_beta 90.000000
_cell_angle_gamma 90.000000
_cell_volume 5587.175853
_symmetry_space_group_name_H-M "I M M A"
_symmetry_group_IT_number 74
_symmetry_cell_setting 'orthorhombic'
loop_
_space_group_symop_operation_xyz
x,y,z
-x,1/2-y,z
x,-y,-z
-x,1/2+y,-z
-x,-y,-z
x,1/2+y,-z
-x,y,z
x,1/2-y,z
1/2+x,1/2+y,1/2+z
1/2-x,-y,1/2+z
1/2+x,1/2-y,1/2-z
1/2-x,y,1/2-z
1/2-x,1/2-y,1/2-z
1/2+x,y,1/2-z
1/2-x,1/2+y,1/2+z
1/2+x,-y,1/2+z
loop_
_atom_site_type_symbol
_atom_site_label
_atom_site_fract_x
_atom_site_fract_y
_atom_site_fract_z
Si Si1 0.317158 0.617939 0.426085
Si Si2 0.181600 0.704687 0.423727
Si Si3 0.687645 0.616164 0.923190
Si Si4 0.185760 0.543526 0.675867
Si Si5 0.185086 0.050695 0.675442
Si Si6 0.317830 0.294255 0.086782
O O1 0.500000 0.615028 0.429483
O O2 0.269377 0.663832 0.401406
O O3 0.247596 0.612352 0.500830
O O4 0.250319 0.583412 0.376917
O O5 0.235276 0.750000 0.399881
O O6 0.192915 0.705457 0.505314
O O7 0.000000 0.700660 0.407941
O O8 0.500000 0.617209 0.925893
O O9 0.736524 0.577874 0.877397
O O10 0.742040 0.660561 0.893413
O O11 0.250000 0.552143 0.750000
O O12 0.229911 0.496553 0.657338
O O13 0.000000 0.544806 0.678757
O O14 0.250000 0.058683 0.750000
O O15 0.000000 0.053102 0.676656
O O16 0.500000 0.293537 0.103420
O O17 0.250812 0.250000 0.109995
#
# Coordination Sequence:
#
# PCOD9538105 Si02
#       6
#    16  16  16  16  16  16
#     4  11  21  31  47  75 105 131 160 199 245 285
#     4   8  14  27  47  69  95 129 164 196 234 282
#     4   9  17  31  49  71  98 128 164 204 246 291
#     4   9  19  34  53  72  92 124 164 206 251 298
#     4  10  20  36  54  71  93 124 163 203 246 299
#     4   7  10  19  39  65  90 118 154 192 227 270
#
# _framework density 17.182205
#
# number of rings (size 3 to 8) (size 9 to 14) (size 15 to 20)
#    0.000    3.000    0.000    4.000    0.000    2.333 
#    0.000    3.333    0.000    1.000    0.000    0.000 
#    0.000    0.000    0.000    0.000    0.000    0.000 
#
# Total GULP energy -267212.781784 kJ/mol
# GULP energy per Si atom -5566.932954 kJ/mol
# Density = 1.714310 g / cm^3
# Si number density = 17.182205 Si / 1000 Ang^3
#
#
#
# Elastic Constant Matrix: (Units=GPa)
#
#
# Indices 1 2 3 4 5 6 
#
# 1 35.3128 45.6181 21.3546 0.0000 0.0000 0.0000
# 2 45.6181 193.7827 86.9580 0.0000 0.0000 0.0000
# 3 21.3546 86.9580 54.7157 0.0000 0.0000 0.0000
# 4 0.0000 0.0000 0.0000 -9.6004 0.0000 0.0000
# 5 0.0000 0.0000 0.0000 0.0000 20.4511 0.0000
# 6 0.0000 0.0000 0.0000 0.0000 0.0000 13.0413
#
#
#
# Elastic Compliance Matrix: (Units=1/GPa)
#
#
# Indices 1 2 3 4 5 6 
#
# 1 0.040776 -0.008569 -0.002297 0.000000 0.000000 0.000000
# 2 -0.008569 0.019792 -0.028110 0.000000 0.000000 0.000000
# 3 -0.002297 -0.028110 0.063847 0.000000 0.000000 0.000000
# 4 0.000000 0.000000 0.000000 -0.104163 0.000000 0.000000
# 5 0.000000 0.000000 0.000000 0.000000 0.048897 0.000000
# 6 0.000000 0.000000 0.000000 0.000000 0.000000 0.076680
#
#
# Mechanical properties :
#
#
# Convention : Reuss Voigt Hill
#
# Bulk Modulus (GPa) = 21.52174 65.74139 43.63157
# Shear Modulus (GPa) = 20.89709 13.43710 17.16710
#
# Velocity S-wave (km/s) = 3.49120 2.79952 3.16432
# Velocity P-wave (km/s) = 5.36694 6.98528 6.22889
#
# Compressibility (1/GPa) = 0.04646464
#
# Stress axis : x y z
#
# Youngs Moduli (GPa) = 24.52410 50.52638 15.66242
#
# Poissons Ratio (x) = 0.43294 0.03597
# Poissons Ratio (y) = 0.21014 0.44027
# Poissons Ratio (z) = 0.05632 1.42030
#
# Static dielectric constant tensor:
#      x y z
#    x 1.572720 0.000000 0.000000 
#    y 0.000000 1.640490 0.000000 
#    z 0.000000 0.000000 1.539550 
# 
# From -- ./inp_files/49057.got.cif
#   From: 2010.05.17/outbox.cif.g08.bks.cpg/sg74_25_cif.got.tgz:49057.got - 2010.06.03 17:57:02.
