data_PCOD9538772
_publ_section_title
;
Structure prediction by ZEFSAII (Michael W. Deem and Ramdas Pophale) SiO2 
 PCOD9538772
Probable space group: I M M A
;
_chemical_formula_sum "Si O2"
_cell_formula_units_Z 116
_cell_length_a 27.748001
_cell_length_b 8.826938
_cell_length_c 27.451956
_cell_angle_alpha 90.000000
_cell_angle_beta 90.000000
_cell_angle_gamma 90.000000
_cell_volume 6723.804411
_symmetry_space_group_name_H-M "I M M A"
_symmetry_group_IT_number 74
_symmetry_cell_setting 'orthorhombic'
loop_
_space_group_symop_operation_xyz
x,y,z
-x,1/2-y,z
x,-y,-z
-x,1/2+y,-z
-x,-y,-z
x,1/2+y,-z
-x,y,z
x,1/2-y,z
1/2+x,1/2+y,1/2+z
1/2-x,-y,1/2+z
1/2+x,1/2-y,1/2-z
1/2-x,y,1/2-z
1/2-x,1/2-y,1/2-z
1/2+x,y,1/2-z
1/2-x,1/2+y,1/2+z
1/2+x,-y,1/2+z
loop_
_atom_site_type_symbol
_atom_site_label
_atom_site_fract_x
_atom_site_fract_y
_atom_site_fract_z
Si Si1 0.690431 0.574957 0.427792
Si Si2 0.916856 0.933557 0.077297
Si Si3 0.219468 0.924415 0.183638
Si Si4 0.443160 0.930613 0.681929
Si Si5 0.791455 0.070030 0.450198
Si Si6 0.500000 0.000000 0.500000
Si Si7 0.818893 0.430158 0.343005
Si Si8 0.867770 0.431010 0.745141
O O1 0.696796 0.750000 0.443661
O O2 0.636796 0.521632 0.439937
O O3 0.693884 0.573462 0.368980
O O4 0.735362 0.478402 0.445922
O O5 0.919399 0.750000 0.076471
O O6 0.925715 0.990916 0.132027
O O7 0.957932 0.996367 0.042281
O O8 0.234985 0.750000 0.192699
O O9 0.180409 0.969268 0.223607
O O10 0.266507 0.026702 0.178940
O O11 0.500000 0.960838 0.688100
O O12 0.436239 0.750000 0.677584
O O13 0.412090 0.993464 0.726749
O O14 0.794507 0.250000 0.452394
O O15 0.816283 0.018883 0.399579
O O16 0.811121 0.000000 0.500000
O O17 0.825296 0.250000 0.341649
O O18 0.858179 0.509977 0.309153
O O19 0.872797 0.250000 0.746100
#
# Coordination Sequence:
#
# PCOD9538772 Si02
#       8
#    16  16  16  16  16   4  16  16
#     4   9  18  34  53  74  98 132 175 221 269 323
#     4  11  23  41  59  74  98 134 179 232 289 339
#     4   9  17  31  51  75 104 137 174 213 260 321
#     4  11  24  40  59  81 106 136 176 226 282 336
#     4  10  21  36  53  76 105 142 179 217 262 312
#     4  12  26  36  56  82  98 132 184 246 292 332
#     4  10  21  34  50  78 112 141 175 218 265 316
#     4  11  21  35  56  80 106 141 179 216 267 325
#
# _framework density 17.252137999999999
#
# number of rings (size 3 to 8) (size 9 to 14) (size 15 to 20)
#    0.000    1.793    2.069    2.276    0.966    6.897 
#    0.000    0.000    0.000    0.000    0.000    0.000 
#    0.000    0.552    0.000    1.793    0.000    2.207 
#
# Total GULP energy -323377.492955 kJ/mol
# GULP energy per Si atom -5575.474016 kJ/mol
# Density = 1.721287 g / cm^3
# Si number density = 17.252138 Si / 1000 Ang^3
#
#
#
# Elastic Constant Matrix: (Units=GPa)
#
#
# Indices 1 2 3 4 5 6 
#
# 1 44.1935 9.3506 37.0997 0.0000 0.0000 0.0000
# 2 9.3506 16.8437 21.6348 0.0000 0.0000 0.0000
# 3 37.0997 21.6348 115.8004 0.0000 0.0000 0.0000
# 4 0.0000 0.0000 0.0000 12.4222 0.0000 0.0000
# 5 0.0000 0.0000 0.0000 0.0000 967.1486 0.0000
# 6 0.0000 0.0000 0.0000 0.0000 0.0000 17.7031
#
#
#
# Elastic Compliance Matrix: (Units=1/GPa)
#
#
# Indices 1 2 3 4 5 6 
#
# 1 0.031397 -0.005934 -0.008950 0.000000 0.000000 0.000000
# 2 -0.005934 0.079236 -0.012903 0.000000 0.000000 0.000000
# 3 -0.008950 -0.012903 0.013914 0.000000 0.000000 0.000000
# 4 0.000000 0.000000 0.000000 0.080501 0.000000 0.000000
# 5 0.000000 0.000000 0.000000 0.000000 0.001034 0.000000
# 6 0.000000 0.000000 0.000000 0.000000 0.000000 0.056487
#
#
# Mechanical properties :
#
#
# Convention : Reuss Voigt Hill
#
# Bulk Modulus (GPa) = 14.49826 34.77866 24.63846
# Shear Modulus (GPa) = 14.65704 206.70493 110.68099
#
# Velocity S-wave (km/s) = 2.91791 10.95784 8.01837
# Velocity P-wave (km/s) = 4.44683 13.42765 10.00190
#
# Compressibility (1/GPa) = 0.06897379
#
# Stress axis : x y z
#
# Youngs Moduli (GPa) = 31.85042 12.62047 71.87230
#
# Poissons Ratio (x) = 0.07488 0.64327
# Poissons Ratio (y) = 0.18899 0.92734
# Poissons Ratio (z) = 0.28507 0.16284
#
# Static dielectric constant tensor:
#      x y z
#    x 1.562770 0.000000 0.000000 
#    y 0.000000 1.593970 0.000000 
#    z 0.000000 0.000000 1.613270 
# 
# From -- ./inp_files/68717.got.cif
#   From: 2010.05.17/outbox.cif.g08.bks.cpg/sg74_35_cif.got.tgz:68717.got - 2010.06.03 17:57:02.
