data_PCOD9538057
_publ_section_title
;
Structure prediction by ZEFSAII (Michael W. Deem and Ramdas Pophale) SiO2 
 PCOD9538057
Probable space group: I M M A
;
_chemical_formula_sum "Si O2"
_cell_formula_units_Z 96
_cell_length_a 26.997557
_cell_length_b 18.073546
_cell_length_c 10.911747
_cell_angle_alpha 90.000000
_cell_angle_beta 90.000000
_cell_angle_gamma 90.000000
_cell_volume 5324.295163
_symmetry_space_group_name_H-M "I M M A"
_symmetry_group_IT_number 74
_symmetry_cell_setting 'orthorhombic'
loop_
_space_group_symop_operation_xyz
x,y,z
-x,1/2-y,z
x,-y,-z
-x,1/2+y,-z
-x,-y,-z
x,1/2+y,-z
-x,y,z
x,1/2-y,z
1/2+x,1/2+y,1/2+z
1/2-x,-y,1/2+z
1/2+x,1/2-y,1/2-z
1/2-x,y,1/2-z
1/2-x,1/2-y,1/2-z
1/2+x,y,1/2-z
1/2-x,1/2+y,1/2+z
1/2+x,-y,1/2+z
loop_
_atom_site_type_symbol
_atom_site_label
_atom_site_fract_x
_atom_site_fract_y
_atom_site_fract_z
Si Si1 0.308911 0.835976 0.243922
Si Si2 0.748288 0.438846 0.390525
Si Si3 0.554458 0.838650 0.904849
Si Si4 0.446055 0.839481 0.615529
Si Si5 0.160132 0.338212 0.023175
Si Si6 0.848216 0.087181 0.507417
O O1 0.317784 0.750000 0.208760
O O2 0.250000 0.846662 0.250000
O O3 0.329940 0.847928 0.379075
O O4 0.332413 0.888208 0.142722
O O5 0.743803 0.500000 0.500000
O O6 0.750000 0.467491 0.250000
O O7 0.702095 0.383732 0.405685
O O8 0.800338 0.398148 0.421073
O O9 0.500000 0.863527 0.950243
O O10 0.556136 0.750000 0.916630
O O11 0.556890 0.855802 0.760054
O O12 0.601997 0.872270 0.968775
O O13 0.500000 0.866292 0.569636
O O14 0.446587 0.750000 0.603142
O O15 0.395292 0.864820 0.554014
O O16 0.164117 0.250000 0.050513
O O17 0.856909 0.000000 0.500000
#
# Coordination Sequence:
#
# PCOD9538057 Si02
#       6
#    16  16  16  16  16  16
#     4  10  20  37  57  80 114 157 192 236 290 351
#     4  11  25  38  57  83 118 156 190 237 289 347
#     4   9  18  35  58  80 106 143 187 237 291 342
#     4   8  15  31  55  81 107 135 174 229 288 337
#     4  10  20  35  59  86 112 146 194 238 287 337
#     4  11  23  34  55  81 114 147 193 232 287 345
#
# _framework density 18.030557000000002
#
# number of rings (size 3 to 8) (size 9 to 14) (size 15 to 20)
#    0.000    2.167    1.667    2.500    4.667    1.333 
#    0.000    0.833    0.000    3.500    0.000    0.000 
#    0.000    0.000    0.000    0.000    0.000    0.000 
#
# Total GULP energy -267718.128856 kJ/mol
# GULP energy per Si atom -5577.461018 kJ/mol
# Density = 1.798952 g / cm^3
# Si number density = 18.030557 Si / 1000 Ang^3
#
#
#
# Elastic Constant Matrix: (Units=GPa)
#
#
# Indices 1 2 3 4 5 6 
#
# 1 179.5034 42.9051 60.0652 0.0000 0.0000 0.0000
# 2 42.9051 53.5334 47.1759 0.0000 0.0000 0.0000
# 3 60.0652 47.1759 88.2843 0.0000 0.0000 0.0000
# 4 0.0000 0.0000 0.0000 8.4994 0.0000 0.0000
# 5 0.0000 0.0000 0.0000 0.0000 34.6712 0.0000
# 6 0.0000 0.0000 0.0000 0.0000 0.0000 3.8440
#
#
#
# Elastic Compliance Matrix: (Units=1/GPa)
#
#
# Indices 1 2 3 4 5 6 
#
# 1 0.007434 -0.002837 -0.003542 0.000000 0.000000 0.000000
# 2 -0.002837 0.036388 -0.017514 0.000000 0.000000 0.000000
# 3 -0.003542 -0.017514 0.023096 0.000000 0.000000 0.000000
# 4 0.000000 0.000000 0.000000 0.117656 0.000000 0.000000
# 5 0.000000 0.000000 0.000000 0.000000 0.028842 0.000000
# 6 0.000000 0.000000 0.000000 0.000000 0.000000 0.260145
#
#
# Mechanical properties :
#
#
# Convention : Reuss Voigt Hill
#
# Bulk Modulus (GPa) = 52.26939 69.06816 60.66878
# Shear Modulus (GPa) = 9.47464 20.81459 15.14462
#
# Velocity S-wave (km/s) = 2.29482 3.40134 2.90132
# Velocity P-wave (km/s) = 6.00615 7.33586 6.70405
#
# Compressibility (1/GPa) = 0.01913166
#
# Stress axis : x y z
#
# Youngs Moduli (GPa) = 134.51298 27.48170 43.29775
#
# Poissons Ratio (x) = 0.07796 0.15336
# Poissons Ratio (y) = 0.38159 0.75833
# Poissons Ratio (z) = 0.47645 0.48132
#
# Static dielectric constant tensor:
#      x y z
#    x 1.629570 0.000000 0.000000 
#    y 0.000000 1.630070 0.000000 
#    z 0.000000 0.000000 1.597350 
# 
# From -- ./inp_files/25184.got.cif
#   From: 2010.05.17/outbox.cif.g08.bks.cpg/sg74_13_cif.got.tgz:25184.got - 2010.06.03 17:57:02.
