data_PCOD9538507
_publ_section_title
;
Structure prediction by ZEFSAII (Michael W. Deem and Ramdas Pophale) SiO2 
 PCOD9538507
Probable space group: I M M A
;
_chemical_formula_sum "Si O2"
_cell_formula_units_Z 56
_cell_length_a 22.563893
_cell_length_b 28.382076
_cell_length_c 5.055021
_cell_angle_alpha 90.000000
_cell_angle_beta 90.000000
_cell_angle_gamma 90.000000
_cell_volume 3237.286635
_symmetry_space_group_name_H-M "I M M A"
_symmetry_group_IT_number 74
_symmetry_cell_setting 'orthorhombic'
loop_
_space_group_symop_operation_xyz
x,y,z
-x,1/2-y,z
x,-y,-z
-x,1/2+y,-z
-x,-y,-z
x,1/2+y,-z
-x,y,z
x,1/2-y,z
1/2+x,1/2+y,1/2+z
1/2-x,-y,1/2+z
1/2+x,1/2-y,1/2-z
1/2-x,y,1/2-z
1/2-x,1/2-y,1/2-z
1/2+x,y,1/2-z
1/2-x,1/2+y,1/2+z
1/2+x,-y,1/2+z
loop_
_atom_site_type_symbol
_atom_site_label
_atom_site_fract_x
_atom_site_fract_y
_atom_site_fract_z
Si Si1 0.870793 0.052441 0.127138
Si Si2 0.500000 0.034096 0.249289
Si Si3 0.706661 0.698914 0.999120
Si Si4 0.683484 0.097012 0.871388
O O1 0.828255 0.062980 0.377516
O O2 0.937394 0.060244 0.235077
O O3 0.857426 0.085413 0.878115
O O4 0.864676 0.000000 0.000000
O O5 0.500000 0.000000 0.500000
O O6 0.500000 0.000000 0.000000
O O7 0.675331 0.750000 0.983104
O O8 0.750000 0.694693 0.750000
O O9 0.750000 0.700418 0.250000
O O10 0.672091 0.650153 0.026836
O O11 0.750000 0.093063 0.750000
#
# Coordination Sequence:
#
# PCOD9538507 Si02
#       4
#    16   8  16  16
#     4  11  22  36  53  73 101 138 174 210 249 296
#     4  10  20  38  56  70  91 130 187 226 240 274
#     4   9  17  31  50  71  99 134 169 205 243 292
#     4  11  21  34  51  78 109 134 164 202 257 320
#
# _framework density 17.298438999999998
#
# number of rings (size 3 to 8) (size 9 to 14) (size 15 to 20)
#    0.000    1.714    0.000    8.571    0.000    2.286 
#    0.000    2.857    0.000    0.000    0.000    6.000 
#    0.000    0.000    0.000    0.000    0.000    0.000 
#
# Total GULP energy -155996.690710 kJ/mol
# GULP energy per Si atom -5571.310382 kJ/mol
# Density = 1.725907 g / cm^3
# Si number density = 17.298439 Si / 1000 Ang^3
#
#
#
# Elastic Constant Matrix: (Units=GPa)
#
#
# Indices 1 2 3 4 5 6 
#
# 1 64.3727 52.8619 34.1086 0.0000 0.0000 0.0000
# 2 52.8619 101.8371 42.5506 0.0000 0.0000 0.0000
# 3 34.1086 42.5506 147.4793 0.0000 0.0000 0.0000
# 4 0.0000 0.0000 0.0000 31.5231 0.0000 0.0000
# 5 0.0000 0.0000 0.0000 0.0000 28.5669 0.0000
# 6 0.0000 0.0000 0.0000 0.0000 0.0000 -4.9299
#
#
#
# Elastic Compliance Matrix: (Units=1/GPa)
#
#
# Indices 1 2 3 4 5 6 
#
# 1 0.027918 -0.013411 -0.002588 0.000000 0.000000 0.000000
# 2 -0.013411 0.017608 -0.001979 0.000000 0.000000 0.000000
# 3 -0.002588 -0.001979 0.007950 0.000000 0.000000 0.000000
# 4 0.000000 0.000000 0.000000 0.031723 0.000000 0.000000
# 5 0.000000 0.000000 0.000000 0.000000 0.035006 0.000000
# 6 0.000000 0.000000 0.000000 0.000000 0.000000 -0.202844
#
#
# Mechanical properties :
#
#
# Convention : Reuss Voigt Hill
#
# Bulk Modulus (GPa) = 57.07098 63.63682 60.35390
# Shear Modulus (GPa) = -122.41361 23.30987 -49.55187
#
# Velocity S-wave (km/s) = -8.42136 3.67483 -5.35794
# Velocity P-wave (km/s) = 7.84191 7.40765 1.81964
#
# Compressibility (1/GPa) = 0.01752204
#
# Stress axis : x y z
#
# Youngs Moduli (GPa) = 35.81885 56.79380 125.78750
#
# Poissons Ratio (x) = 0.76164 0.32549
# Poissons Ratio (y) = 0.48036 0.24887
# Poissons Ratio (z) = 0.09269 0.11237
#
# Static dielectric constant tensor:
#      x y z
#    x 1.621310 0.000000 0.000000 
#    y 0.000000 1.662160 0.000000 
#    z 0.000000 0.000000 1.581120 
# 
# From -- ./inp_files/2985.got.cif
#   From: 2010.05.17/outbox.cif.g08.bks.cpg/sg74_2_cif.got.tgz:2985.got - 2010.06.03 17:57:02.
