data_PCOD9538681
_publ_section_title
;
Structure prediction by ZEFSAII (Michael W. Deem and Ramdas Pophale) SiO2 
 PCOD9538681
Probable space group: I M M A
;
_chemical_formula_sum "Si O2"
_cell_formula_units_Z 68
_cell_length_a 14.226035
_cell_length_b 21.291937
_cell_length_c 11.542619
_cell_angle_alpha 90.000000
_cell_angle_beta 90.000000
_cell_angle_gamma 90.000000
_cell_volume 3496.257460
_symmetry_space_group_name_H-M "I M M A"
_symmetry_group_IT_number 74
_symmetry_cell_setting 'orthorhombic'
loop_
_space_group_symop_operation_xyz
x,y,z
-x,1/2-y,z
x,-y,-z
-x,1/2+y,-z
-x,-y,-z
x,1/2+y,-z
-x,y,z
x,1/2-y,z
1/2+x,1/2+y,1/2+z
1/2-x,-y,1/2+z
1/2+x,1/2-y,1/2-z
1/2-x,y,1/2-z
1/2-x,1/2-y,1/2-z
1/2+x,y,1/2-z
1/2-x,1/2+y,1/2+z
1/2+x,-y,1/2+z
loop_
_atom_site_type_symbol
_atom_site_label
_atom_site_fract_x
_atom_site_fract_y
_atom_site_fract_z
Si Si1 0.000000 0.750000 0.854723
Si Si2 0.176224 0.884768 0.091654
Si Si3 0.250000 0.519287 0.250000
Si Si4 0.392492 0.250000 0.587470
Si Si5 0.000000 0.931063 0.949502
Si Si6 0.343409 0.937841 0.944208
Si Si7 0.000000 0.122423 0.294145
O O1 0.000000 0.688771 0.773125
O O2 0.087278 0.750000 0.946890
O O3 0.171231 0.933413 0.198876
O O4 0.161829 0.812571 0.123306
O O5 0.092717 0.898444 0.001073
O O6 0.276223 0.901000 0.033035
O O7 0.276945 0.473044 0.147329
O O8 0.500000 0.250000 0.634700
O O9 0.000000 0.927409 0.811480
O O10 0.000000 0.000000 0.000000
O O11 0.411316 0.891559 0.875654
O O12 0.391867 0.000000 0.000000
#
# Coordination Sequence:
#
# PCOD9538681 Si02
#       7
#     4  16   8   8   8  16   8
#     4  10  22  38  56  94 112 152 214 234 282 362
#     4  11  21  39  59  86 123 152 197 251 288 350
#     4  10  22  35  58  91 112 154 204 236 308 354
#     4  10  20  40  59  85 123 152 198 251 283 341
#     4  12  20  33  59  85 112 153 196 248 291 342
#     4  10  22  38  57  89 123 152 195 251 296 351
#     4  12  21  38  59  82 121 163 194 236 301 346
#
# _framework density 19.449368
#
# number of rings (size 3 to 8) (size 9 to 14) (size 15 to 20)
#    0.353    0.941    3.529    5.294    0.000    1.412 
#    0.000    2.353    0.000    0.000    0.000    0.000 
#    0.000    0.000    0.000    0.000    0.000    0.000 
#
# Total GULP energy -189550.224638 kJ/mol
# GULP energy per Si atom -5575.006607 kJ/mol
# Density = 1.940510 g / cm^3
# Si number density = 19.449368 Si / 1000 Ang^3
#
#
#
# Elastic Constant Matrix: (Units=GPa)
#
#
# Indices 1 2 3 4 5 6 
#
# 1 58.2130 18.0560 1.1231 0.0000 0.0000 0.0000
# 2 18.0560 120.8780 -0.5953 0.0000 0.0000 0.0000
# 3 1.1231 -0.5953 41.0214 0.0001 -0.0001 -0.0001
# 4 0.0000 0.0000 0.0001 35.7848 0.0000 0.0000
# 5 0.0000 0.0000 -0.0001 0.0000 18.8004 0.0000
# 6 0.0000 0.0000 -0.0001 0.0000 0.0000 76.6564
#
#
#
# Elastic Compliance Matrix: (Units=1/GPa)
#
#
# Indices 1 2 3 4 5 6 
#
# 1 0.018024 -0.002695 -0.000533 0.000000 0.000000 0.000000
# 2 -0.002695 0.008676 0.000200 0.000000 0.000000 0.000000
# 3 -0.000533 0.000200 0.024395 0.000000 0.000000 0.000000
# 4 0.000000 0.000000 0.000000 0.027945 0.000000 0.000000
# 5 0.000000 0.000000 0.000000 0.000000 0.053190 0.000000
# 6 0.000000 0.000000 0.000000 0.000000 0.000000 0.013045
#
#
# Mechanical properties :
#
#
# Convention : Reuss Voigt Hill
#
# Bulk Modulus (GPa) = 22.20245 28.58666 25.39456
# Shear Modulus (GPa) = 30.05793 39.68357 34.87075
#
# Velocity S-wave (km/s) = 3.93548 4.52193 4.23886
# Velocity P-wave (km/s) = 5.66489 6.48025 6.08624
#
# Compressibility (1/GPa) = 0.04504006
#
# Stress axis : x y z
#
# Youngs Moduli (GPa) = 55.48014 115.25580 40.99199
#
# Poissons Ratio (x) = 0.31062 0.02183
# Poissons Ratio (y) = 0.14952 -0.00819
# Poissons Ratio (z) = 0.02955 -0.02302
#
# Static dielectric constant tensor:
#      x y z
#    x 1.693930 0.000000 0.000000 
#    y 0.000000 1.699380 0.000000 
#    z 0.000000 0.000000 1.702760 
# 
# From -- ./inp_files/20278.got.cif
#   From: 2010.05.17/outbox.cif.g08.bks.cpg/sg74_11_cif.got.tgz:20278.got - 2010.06.03 17:57:02.
