data_PCOD9538222
_publ_section_title
;
Structure prediction by ZEFSAII (Michael W. Deem and Ramdas Pophale) SiO2 
 PCOD9538222
Probable space group: I M M A
;
_chemical_formula_sum "Si O2"
_cell_formula_units_Z 72
_cell_length_a 15.844344
_cell_length_b 8.349410
_cell_length_c 27.473210
_cell_angle_alpha 90.000000
_cell_angle_beta 90.000000
_cell_angle_gamma 90.000000
_cell_volume 3634.456343
_symmetry_space_group_name_H-M "I M M A"
_symmetry_group_IT_number 74
_symmetry_cell_setting 'orthorhombic'
loop_
_space_group_symop_operation_xyz
x,y,z
-x,1/2-y,z
x,-y,-z
-x,1/2+y,-z
-x,-y,-z
x,1/2+y,-z
-x,y,z
x,1/2-y,z
1/2+x,1/2+y,1/2+z
1/2-x,-y,1/2+z
1/2+x,1/2-y,1/2-z
1/2-x,y,1/2-z
1/2-x,1/2-y,1/2-z
1/2+x,y,1/2-z
1/2-x,1/2+y,1/2+z
1/2+x,-y,1/2+z
loop_
_atom_site_type_symbol
_atom_site_label
_atom_site_fract_x
_atom_site_fract_y
_atom_site_fract_z
Si Si1 0.000000 0.554237 0.210817
Si Si2 0.335711 0.443741 0.885001
Si Si3 0.500000 0.057794 0.598400
Si Si4 0.838532 0.554319 0.273130
Si Si5 0.500000 0.443664 0.944703
Si Si6 0.823930 0.559758 0.945375
O O1 0.000000 0.502429 0.154730
O O2 0.916968 0.502348 0.240109
O O3 0.000000 0.750000 0.210431
O O4 0.336012 0.250000 0.884751
O O5 0.344591 0.497389 0.829138
O O6 0.415814 0.498294 0.916687
O O7 0.248793 0.498160 0.909335
O O8 0.500000 0.250000 0.598140
O O9 0.415426 0.999889 0.572001
O O10 0.839552 0.750000 0.273197
O O11 0.750000 0.503496 0.250000
O O12 0.500000 0.250000 0.943981
O O13 0.500000 0.500000 0.000000
O O14 0.823457 0.750000 0.945381
O O15 0.806684 0.500000 0.000000
#
# Coordination Sequence:
#
# PCOD9538222 Si02
#       6
#     8  16   8  16   8  16
#     4   9  17  30  54  87 116 146 187 234 280 328
#     4  10  20  36  58  86 118 151 189 235 286 336
#     4  11  22  39  63  89 117 150 191 238 288 341
#     4   9  16  28  50  81 113 143 180 227 275 325
#     4  10  21  35  54  80 111 146 185 232 280 329
#     4  12  25  41  60  84 115 151 193 239 290 347
#
# _framework density 19.810390999999999
#
# number of rings (size 3 to 8) (size 9 to 14) (size 15 to 20)
#    0.000    1.778    0.000    5.333    0.000    8.889 
#    0.000    0.000    0.000    7.333    0.000    0.000 
#    0.000    0.000    0.000    0.000    0.000    0.000 
#
# Total GULP energy -201248.511599 kJ/mol
# GULP energy per Si atom -5590.236433 kJ/mol
# Density = 1.976530 g / cm^3
# Si number density = 19.810391 Si / 1000 Ang^3
#
#
#
# Elastic Constant Matrix: (Units=GPa)
#
#
# Indices 1 2 3 4 5 6 
#
# 1 68.4071 2.8736 -19.8753 0.0000 0.0000 0.0000
# 2 2.8736 27.4467 7.4532 0.0000 0.0000 0.0000
# 3 -19.8753 7.4532 77.2881 0.0000 0.0000 0.0000
# 4 0.0000 0.0000 0.0000 22.0737 0.0000 0.0000
# 5 0.0000 0.0000 0.0000 0.0000 45.6261 0.0000
# 6 0.0000 0.0000 0.0000 0.0000 0.0000 -19.5288
#
#
#
# Elastic Compliance Matrix: (Units=1/GPa)
#
#
# Indices 1 2 3 4 5 6 
#
# 1 0.016016 -0.002870 0.004395 0.000000 0.000000 0.000000
# 2 -0.002870 0.037928 -0.004396 0.000000 0.000000 0.000000
# 3 0.004395 -0.004396 0.014493 0.000000 0.000000 0.000000
# 4 0.000000 0.000000 0.000000 0.045303 0.000000 0.000000
# 5 0.000000 0.000000 0.000000 0.000000 0.021917 0.000000
# 6 0.000000 0.000000 0.000000 0.000000 0.000000 -0.051206
#
#
# Mechanical properties :
#
#
# Convention : Reuss Voigt Hill
#
# Bulk Modulus (GPa) = 15.94999 17.11608 16.53303
# Shear Modulus (GPa) = 45.00819 21.81358 33.41088
#
# Velocity S-wave (km/s) = 4.77167 3.32191 4.11120
# Velocity P-wave (km/s) = 6.19897 4.83448 5.55875
#
# Compressibility (1/GPa) = 0.06269598
#
# Stress axis : x y z
#
# Youngs Moduli (GPa) = 62.43744 26.36540 68.99961
#
# Poissons Ratio (x) = 0.07568 -0.30329
# Poissons Ratio (y) = 0.17922 0.30330
# Poissons Ratio (z) = -0.27444 0.11590
#
# Static dielectric constant tensor:
#      x y z
#    x 1.657950 0.000000 0.000000 
#    y 0.000000 1.693590 0.000000 
#    z 0.000000 0.000000 1.672870 
# 
# From -- ./inp_files/63651.got.cif
#   From: 2010.05.17/outbox.cif.g08.bks.cpg/sg74_32_cif.got.tgz:63651.got - 2010.06.03 17:57:02.
