data_PCOD9538115
_publ_section_title
;
Structure prediction by ZEFSAII (Michael W. Deem and Ramdas Pophale) SiO2 
 PCOD9538115
Probable space group: I M M A
;
_chemical_formula_sum "Si O2"
_cell_formula_units_Z 116
_cell_length_a 32.962045
_cell_length_b 7.420680
_cell_length_c 22.432739
_cell_angle_alpha 90.000000
_cell_angle_beta 90.000000
_cell_angle_gamma 90.000000
_cell_volume 5487.065638
_symmetry_space_group_name_H-M "I M M A"
_symmetry_group_IT_number 74
_symmetry_cell_setting 'orthorhombic'
loop_
_space_group_symop_operation_xyz
x,y,z
-x,1/2-y,z
x,-y,-z
-x,1/2+y,-z
-x,-y,-z
x,1/2+y,-z
-x,y,z
x,1/2-y,z
1/2+x,1/2+y,1/2+z
1/2-x,-y,1/2+z
1/2+x,1/2-y,1/2-z
1/2-x,y,1/2-z
1/2-x,1/2-y,1/2-z
1/2+x,y,1/2-z
1/2-x,1/2+y,1/2+z
1/2+x,-y,1/2+z
loop_
_atom_site_type_symbol
_atom_site_label
_atom_site_fract_x
_atom_site_fract_y
_atom_site_fract_z
Si Si1 0.693880 0.046142 0.585866
Si Si2 0.159108 0.533017 0.328935
Si Si3 0.289925 0.456507 0.282508
Si Si4 0.046812 0.468483 0.825983
Si Si5 0.000000 0.750000 0.652128
Si Si6 0.782873 0.465215 0.565297
Si Si7 0.567046 0.533123 0.189157
Si Si8 0.395815 0.034266 0.566626
O O1 0.693250 0.250000 0.561400
O O2 0.736785 0.961501 0.566945
O O3 0.650451 0.962245 0.570234
O O4 0.697190 0.052123 0.657387
O O5 0.162513 0.750000 0.326467
O O6 0.175192 0.462115 0.266247
O O7 0.188449 0.467298 0.381786
O O8 0.111928 0.492463 0.334711
O O9 0.280499 0.250000 0.298943
O O10 0.250000 0.533241 0.250000
O O11 0.045967 0.250000 0.829275
O O12 0.063343 0.511837 0.760055
O O13 0.075412 0.532576 0.879993
O O14 0.000000 0.530327 0.830757
O O15 0.034973 0.591253 0.656527
O O16 0.800298 0.500000 0.500000
O O17 0.779481 0.250000 0.574058
O O18 0.559626 0.750000 0.183807
O O19 0.392982 0.250000 0.574890
O O20 0.411815 0.000000 0.500000
#
# Coordination Sequence:
#
# PCOD9538115 Si02
#       8
#    16  16  16  16   4  16  16  16
#     4  10  20  36  55  74 107 154 198 236 285 353
#     4  10  21  38  59  82 117 158 196 232 292 358
#     4  11  22  33  51  84 119 149 187 245 299 337
#     4   9  17  34  56  74 106 147 184 232 297 352
#     4  12  22  36  64  98 122 148 194 224 304 374
#     4  10  21  36  56  81 110 152 198 239 283 340
#     4  10  21  39  61  89 125 154 186 242 296 363
#     4  10  21  36  52  74 102 144 196 244 293 340
#
# _framework density 21.140625
#
# number of rings (size 3 to 8) (size 9 to 14) (size 15 to 20)
#    0.000    1.931    2.069    1.862    0.966    4.690 
#    1.241    0.000    0.000    0.000    0.000    0.483 
#    0.000    0.000    0.000    0.000    0.000    0.000 
#
# Total GULP energy -323466.473888 kJ/mol
# GULP energy per Si atom -5577.008170 kJ/mol
# Density = 2.109251 g / cm^3
# Si number density = 21.140625 Si / 1000 Ang^3
#
#
#
# Elastic Constant Matrix: (Units=GPa)
#
#
# Indices 1 2 3 4 5 6 
#
# 1 120.4031 25.3766 23.8017 0.0000 0.0000 0.0000
# 2 25.3766 75.9806 -2.2539 0.0000 0.0000 0.0000
# 3 23.8017 -2.2539 77.4889 0.0000 0.0000 0.0000
# 4 0.0000 0.0000 0.0000 14.3159 0.0000 0.0000
# 5 0.0000 0.0000 0.0000 0.0000 -49.0074 0.0000
# 6 0.0000 0.0000 0.0000 0.0000 0.0000 -0.0620
#
#
#
# Elastic Compliance Matrix: (Units=1/GPa)
#
#
# Indices 1 2 3 4 5 6 
#
# 1 0.009602 -0.003297 -0.003045 0.000000 0.000000 0.000000
# 2 -0.003297 0.014305 0.001429 0.000000 0.000000 0.000000
# 3 -0.003045 0.001429 0.013882 0.000000 0.000000 0.000000
# 4 0.000000 0.000000 0.000000 0.069852 0.000000 0.000000
# 5 0.000000 0.000000 0.000000 0.000000 -0.020405 0.000000
# 6 0.000000 0.000000 0.000000 0.000000 0.000000-16.135323
#
#
# Mechanical properties :
#
#
# Convention : Reuss Voigt Hill
#
# Bulk Modulus (GPa) = 35.76329 40.85790 38.31059
# Shear Modulus (GPa) = -0.31194 8.17918 3.93362
#
# Velocity S-wave (km/s) = -0.38454 1.96910 1.36555
# Velocity P-wave (km/s) = 4.09346 4.95363 4.54395
#
# Compressibility (1/GPa) = 0.02796163
#
# Stress axis : x y z
#
# Youngs Moduli (GPa) = 104.14016 69.90586 72.03529
#
# Poissons Ratio (x) = 0.23051 0.21938
# Poissons Ratio (y) = 0.34340 -0.10293
# Poissons Ratio (z) = 0.31715 -0.09989
#
# Static dielectric constant tensor:
#      x y z
#    x 1.761540 0.000000 0.000000 
#    y 0.000000 1.798480 0.000000 
#    z 0.000000 0.000000 1.738840 
# 
# From -- ./inp_files/62724.got.cif
#   From: 2010.05.17/outbox.cif.g08.bks.cpg/sg74_32_cif.got.tgz:62724.got - 2010.06.03 17:57:02.
