data_PCOD9538849
_publ_section_title
;
Structure prediction by ZEFSAII (Michael W. Deem and Ramdas Pophale) SiO2 
 PCOD9538849
Probable space group: I M M A
;
_chemical_formula_sum "Si O2"
_cell_formula_units_Z 116
_cell_length_a 7.872724
_cell_length_b 22.648293
_cell_length_c 32.173181
_cell_angle_alpha 90.000000
_cell_angle_beta 90.000000
_cell_angle_gamma 90.000000
_cell_volume 5736.599139
_symmetry_space_group_name_H-M "I M M A"
_symmetry_group_IT_number 74
_symmetry_cell_setting 'orthorhombic'
loop_
_space_group_symop_operation_xyz
x,y,z
-x,1/2-y,z
x,-y,-z
-x,1/2+y,-z
-x,-y,-z
x,1/2+y,-z
-x,y,z
x,1/2-y,z
1/2+x,1/2+y,1/2+z
1/2-x,-y,1/2+z
1/2+x,1/2-y,1/2-z
1/2-x,y,1/2-z
1/2-x,1/2-y,1/2-z
1/2+x,y,1/2-z
1/2-x,1/2+y,1/2+z
1/2+x,-y,1/2+z
loop_
_atom_site_type_symbol
_atom_site_label
_atom_site_fract_x
_atom_site_fract_y
_atom_site_fract_z
Si Si1 0.303528 0.663184 0.309481
Si Si2 0.303650 0.532709 0.205836
Si Si3 0.795202 0.316190 0.202148
Si Si4 0.299839 0.073421 0.350382
Si Si5 0.000000 0.750000 0.283408
Si Si6 0.202637 0.184792 0.906999
Si Si7 0.297593 0.579115 0.032937
Si Si8 0.794010 0.948980 0.557504
O O1 0.500000 0.684124 0.301973
O O2 0.296017 0.593823 0.299721
O O3 0.264385 0.671016 0.358670
O O4 0.152571 0.698904 0.287504
O O5 0.500000 0.548725 0.207464
O O6 0.250000 0.505069 0.250000
O O7 0.276823 0.485966 0.169222
O O8 0.732416 0.250000 0.191863
O O9 0.750000 0.328195 0.250000
O O10 0.731045 0.368592 0.172906
O O11 0.000000 0.314957 0.198782
O O12 0.500000 0.069717 0.341973
O O13 0.271290 0.076407 0.399473
O O14 0.273468 0.250000 0.916416
O O15 0.261551 0.134065 0.937829
O O16 0.000000 0.187240 0.910914
O O17 0.500000 0.572740 0.030168
O O18 0.236174 0.517236 0.052408
O O19 0.237546 0.582933 0.985132
O O20 0.000000 0.947913 0.559429
#
# Coordination Sequence:
#
# PCOD9538849 Si02
#       8
#    16  16  16  16   4  16  16  16
#     4  11  23  41  63  90 124 158 210 262 303 369
#     4  12  25  42  63  88 120 157 198 252 309 360
#     4   9  19  36  57  82 113 147 188 231 282 346
#     4  11  22  36  58  88 117 153 192 239 298 359
#     4  12  22  40  66  90 118 170 210 248 324 354
#     4  10  21  35  54  81 115 150 190 243 292 341
#     4   9  19  34  56  79 107 144 186 236 288 345
#     4   9  19  37  55  80 111 143 184 234 289 348
#
# _framework density 20.221039999999999
#
# number of rings (size 3 to 8) (size 9 to 14) (size 15 to 20)
#    0.000    1.793    1.379    3.931    0.966    5.793 
#    0.000    2.414    0.000    2.483    0.000    0.000 
#    0.000    0.000    0.000    0.000    0.000    0.000 
#
# Total GULP energy -323553.863799 kJ/mol
# GULP energy per Si atom -5578.514893 kJ/mol
# Density = 2.017502 g / cm^3
# Si number density = 20.221040 Si / 1000 Ang^3
#
#
#
# Elastic Constant Matrix: (Units=GPa)
#
#
# Indices 1 2 3 4 5 6 
#
# 1 70.9906 24.8035 18.0106 0.0000 0.0000 0.0000
# 2 24.8035 104.2208 65.1503 0.0000 0.0000 0.0000
# 3 18.0106 65.1503 108.4116 0.0000 0.0000 0.0000
# 4 0.0000 0.0000 0.0000 30.5130 0.0000 0.0000
# 5 0.0000 0.0000 0.0000 0.0000 27.5351 0.0000
# 6 0.0000 0.0000 0.0000 0.0000 0.0000 21.2450
#
#
#
# Elastic Compliance Matrix: (Units=1/GPa)
#
#
# Indices 1 2 3 4 5 6 
#
# 1 0.015386 -0.003306 -0.000570 0.000000 0.000000 0.000000
# 2 -0.003306 0.016079 -0.009113 0.000000 0.000000 0.000000
# 3 -0.000570 -0.009113 0.014795 0.000000 0.000000 0.000000
# 4 0.000000 0.000000 0.000000 0.032773 0.000000 0.000000
# 5 0.000000 0.000000 0.000000 0.000000 0.036317 0.000000
# 6 0.000000 0.000000 0.000000 0.000000 0.000000 0.047070
#
#
# Mechanical properties :
#
#
# Convention : Reuss Voigt Hill
#
# Bulk Modulus (GPa) = 49.30273 55.50574 52.40424
# Shear Modulus (GPa) = 25.62026 27.56919 26.59472
#
# Velocity S-wave (km/s) = 3.56337 3.69642 3.63050
# Velocity P-wave (km/s) = 6.43156 6.76218 6.59894
#
# Compressibility (1/GPa) = 0.02028285
#
# Stress axis : x y z
#
# Youngs Moduli (GPa) = 64.99483 62.19425 67.58844
#
# Poissons Ratio (x) = 0.20559 0.03849
# Poissons Ratio (y) = 0.21485 0.61596
# Poissons Ratio (z) = 0.03702 0.56680
#
# Static dielectric constant tensor:
#      x y z
#    x 1.737820 0.000000 0.000000 
#    y 0.000000 1.723320 0.000000 
#    z 0.000000 0.000000 1.720450 
# 
# From -- ./inp_files/64879.got.cif
#   From: 2010.05.17/outbox.cif.g08.bks.cpg/sg74_33_cif.got.tgz:64879.got - 2010.06.03 17:57:02.
