data_PCOD9538177
_publ_section_title
;
Structure prediction by ZEFSAII (Michael W. Deem and Ramdas Pophale) SiO2 
 PCOD9538177
Probable space group: I M M A
;
_chemical_formula_sum "Si O2"
_cell_formula_units_Z 100
_cell_length_a 30.572347
_cell_length_b 7.455202
_cell_length_c 19.388449
_cell_angle_alpha 90.000000
_cell_angle_beta 90.000000
_cell_angle_gamma 90.000000
_cell_volume 4419.073898
_symmetry_space_group_name_H-M "I M M A"
_symmetry_group_IT_number 74
_symmetry_cell_setting 'orthorhombic'
loop_
_space_group_symop_operation_xyz
x,y,z
-x,1/2-y,z
x,-y,-z
-x,1/2+y,-z
-x,-y,-z
x,1/2+y,-z
-x,y,z
x,1/2-y,z
1/2+x,1/2+y,1/2+z
1/2-x,-y,1/2+z
1/2+x,1/2-y,1/2-z
1/2-x,y,1/2-z
1/2-x,1/2-y,1/2-z
1/2+x,y,1/2-z
1/2-x,1/2+y,1/2+z
1/2+x,-y,1/2+z
loop_
_atom_site_type_symbol
_atom_site_label
_atom_site_fract_x
_atom_site_fract_y
_atom_site_fract_z
Si Si1 0.725534 0.041622 0.822254
Si Si2 0.198843 0.964929 0.080652
Si Si3 0.628372 0.034753 0.815312
Si Si4 0.550133 0.470066 0.714302
Si Si5 0.064549 0.954408 0.580094
Si Si6 0.399590 0.535637 0.419462
Si Si7 0.000000 0.250000 0.631846
O O1 0.718204 0.250000 0.843958
O O2 0.750000 0.042310 0.750000
O O3 0.760130 0.962727 0.876483
O O4 0.677466 0.964840 0.808520
O O5 0.197463 0.750000 0.093056
O O6 0.149635 0.032500 0.097323
O O7 0.205211 0.000000 0.000000
O O8 0.629446 0.250000 0.805104
O O9 0.590146 0.968424 0.763488
O O10 0.613084 0.984635 0.892226
O O11 0.500000 0.527780 0.729309
O O12 0.548391 0.250000 0.719434
O O13 0.565012 0.523128 0.636986
O O14 0.051453 0.750000 0.590484
O O15 0.058558 0.000000 0.500000
O O16 0.037097 0.094490 0.623869
O O17 0.409205 0.500000 0.500000
O O18 0.397800 0.750000 0.412407
#
# Coordination Sequence:
#
# PCOD9538177 Si02
#       7
#    16  16  16  16  16  16   4
#     4   9  17  31  55  83 109 146 197 244 293 356
#     4   9  17  30  50  77 104 134 176 223 274 337
#     4  10  20  36  57  83 117 155 196 252 306 360
#     4   9  18  31  51  76 105 143 187 229 283 347
#     4  12  25  41  64  93 124 162 208 258 309 366
#     4   9  17  31  51  76 105 139 179 229 284 345
#     4  12  24  44  66  94 122 162 210 258 306 366
#
# _framework density 22.629173999999999
#
# number of rings (size 3 to 8) (size 9 to 14) (size 15 to 20)
#    0.000    2.240    1.600    1.440    1.120    4.800 
#    0.000    3.200    0.000    4.800    0.000    0.000 
#    0.000    0.000    0.000    0.000    0.000    0.000 
#
# Total GULP energy -278589.097463 kJ/mol
# GULP energy per Si atom -5571.781949 kJ/mol
# Density = 2.257767 g / cm^3
# Si number density = 22.629174 Si / 1000 Ang^3
#
#
#
# Elastic Constant Matrix: (Units=GPa)
#
#
# Indices 1 2 3 4 5 6 
#
# 1 159.6236 16.8673 55.8382 0.0000 0.0000 0.0000
# 2 16.8673 103.5683 -3.1314 0.0000 0.0000 0.0000
# 3 55.8382 -3.1314 71.1528 0.0000 0.0000 0.0000
# 4 0.0000 0.0000 0.0000 9.0681 0.0000 0.0000
# 5 0.0000 0.0000 0.0000 0.0000 -19.6922 0.0000
# 6 0.0000 0.0000 0.0000 0.0000 0.0000 3.1105
#
#
#
# Elastic Compliance Matrix: (Units=1/GPa)
#
#
# Indices 1 2 3 4 5 6 
#
# 1 0.008913 -0.001665 -0.007068 0.000000 0.000000 0.000000
# 2 -0.001665 0.009979 0.001746 0.000000 0.000000 0.000000
# 3 -0.007068 0.001746 0.019678 0.000000 0.000000 0.000000
# 4 0.000000 0.000000 0.000000 0.110277 0.000000 0.000000
# 5 0.000000 0.000000 0.000000 0.000000 -0.050782 0.000000
# 6 0.000000 0.000000 0.000000 0.000000 0.000000 0.321489
#
#
# Mechanical properties :
#
#
# Convention : Reuss Voigt Hill
#
# Bulk Modulus (GPa) = 40.65711 52.61031 46.63371
# Shear Modulus (GPa) = 11.31917 16.14865 13.73391
#
# Velocity S-wave (km/s) = 2.23895 2.67427 2.46623
# Velocity P-wave (km/s) = 4.96886 5.73018 5.36304
#
# Compressibility (1/GPa) = 0.02459594
#
# Stress axis : x y z
#
# Youngs Moduli (GPa) = 112.19316 100.20566 50.81852
#
# Poissons Ratio (x) = 0.16687 0.35919
# Poissons Ratio (y) = 0.18684 -0.08873
# Poissons Ratio (z) = 0.79299 -0.17497
#
# Static dielectric constant tensor:
#      x y z
#    x 1.866490 0.000000 0.000000 
#    y 0.000000 1.800750 0.000000 
#    z 0.000000 0.000000 1.849200 
# 
# From -- ./inp_files/55210.got.cif
#   From: 2010.05.17/outbox.cif.g08.bks.cpg/sg74_28_cif.got.tgz:55210.got - 2010.06.03 17:57:02.
