data_PCOD9538027
_publ_section_title
;
Structure prediction by ZEFSAII (Michael W. Deem and Ramdas Pophale) SiO2 
 PCOD9538027
Probable space group: I M M A
;
_chemical_formula_sum "Si O2"
_cell_formula_units_Z 64
_cell_length_a 22.748991
_cell_length_b 14.555481
_cell_length_c 7.894422
_cell_angle_alpha 90.000000
_cell_angle_beta 90.000000
_cell_angle_gamma 90.000000
_cell_volume 2614.020798
_symmetry_space_group_name_H-M "I M M A"
_symmetry_group_IT_number 74
_symmetry_cell_setting 'orthorhombic'
loop_
_space_group_symop_operation_xyz
x,y,z
-x,1/2-y,z
x,-y,-z
-x,1/2+y,-z
-x,-y,-z
x,1/2+y,-z
-x,y,z
x,1/2-y,z
1/2+x,1/2+y,1/2+z
1/2-x,-y,1/2+z
1/2+x,1/2-y,1/2-z
1/2-x,y,1/2-z
1/2-x,1/2-y,1/2-z
1/2+x,y,1/2-z
1/2-x,1/2+y,1/2+z
1/2+x,-y,1/2+z
loop_
_atom_site_type_symbol
_atom_site_label
_atom_site_fract_x
_atom_site_fract_y
_atom_site_fract_z
Si Si1 0.727476 0.643801 0.067188
Si Si2 0.566100 0.107186 0.789903
Si Si3 0.890479 0.400125 0.373609
Si Si4 0.855184 0.611304 0.982406
O O1 0.710386 0.750000 0.096428
O O2 0.750000 0.603918 0.250000
O O3 0.787967 0.640322 0.965717
O O4 0.674454 0.598541 0.962526
O O5 0.500000 0.114253 0.724978
O O6 0.612219 0.143528 0.652618
O O7 0.583430 0.000719 0.827484
O O8 0.571797 0.146064 0.978894
O O9 0.886233 0.357194 0.188905
O O10 0.855894 0.500000 0.000000
#
# Coordination Sequence:
#
# PCOD9538027 Si02
#       4
#    16  16  16  16
#     4  11  23  39  60  86 124 162 200 252 315 374
#     4  10  21  38  59  90 126 156 197 250 300 357
#     4  10  20  35  58  86 115 158 193 243 299 361
#     4  10  22  35  60  92 119 156 196 251 301 367
#
# _framework density 24.483353999999999
#
# number of rings (size 3 to 8) (size 9 to 14) (size 15 to 20)
#    0.000    1.750    2.500    2.250    3.500    7.500 
#    0.000    0.000    0.000    5.250    0.000   10.500 
#    0.000    0.000    0.000    0.000    0.000    0.000 
#
# Total GULP energy -178628.681289 kJ/mol
# GULP energy per Si atom -5582.146290 kJ/mol
# Density = 2.442763 g / cm^3
# Si number density = 24.483354 Si / 1000 Ang^3
#
#
#
# Elastic Constant Matrix: (Units=GPa)
#
#
# Indices 1 2 3 4 5 6 
#
# 1 133.5292 9.7113 8.9746 0.0000 0.0000 0.0000
# 2 9.7113 99.1449 8.1184 0.0000 0.0000 0.0000
# 3 8.9746 8.1184 118.2174 0.0000 0.0000 0.0000
# 4 0.0000 0.0000 0.0000 -8.0245 0.0000 0.0000
# 5 0.0000 0.0000 0.0000 0.0000 25.1440 0.0000
# 6 0.0000 0.0000 0.0000 0.0000 0.0000 -214.2223
#
#
#
# Elastic Compliance Matrix: (Units=1/GPa)
#
#
# Indices 1 2 3 4 5 6 
#
# 1 0.007575 -0.000699 -0.000527 0.000000 0.000000 0.000000
# 2 -0.000699 0.010208 -0.000648 0.000000 0.000000 0.000000
# 3 -0.000527 -0.000648 0.008543 0.000000 0.000000 0.000000
# 4 0.000000 0.000000 0.000000 -0.124619 0.000000 0.000000
# 5 0.000000 0.000000 0.000000 0.000000 0.039771 0.000000
# 6 0.000000 0.000000 0.000000 0.000000 0.000000 -0.004668
#
#
# Mechanical properties :
#
#
# Convention : Reuss Voigt Hill
#
# Bulk Modulus (GPa) = 44.28943 44.94445 44.61694
# Shear Modulus (GPa) = -96.31058 -17.81473 -57.06266
#
# Velocity S-wave (km/s) = -6.27874 -2.70038 -4.83294
# Velocity P-wave (km/s) = 5.86810 2.94521 3.58889
#
# Compressibility (1/GPa) = 0.02257875
#
# Stress axis : x y z
#
# Youngs Moduli (GPa) = 132.00885 97.96472 117.04805
#
# Poissons Ratio (x) = 0.06846 0.06169
# Poissons Ratio (y) = 0.09225 0.07584
# Poissons Ratio (z) = 0.06958 0.06348
#
# Static dielectric constant tensor:
#      x y z
#    x 1.913570 0.000000 0.000000 
#    y 0.000000 2.036750 0.000000 
#    z 0.000000 0.000000 2.001710 
# 
# From -- ./inp_files/10209.got.cif
#   From: 2010.05.17/outbox.cif.g08.bks.cpg/sg74_6_cif.got.tgz:10209.got - 2010.06.03 17:57:02.
