data_PCOD9538224
_publ_section_title
;
Structure prediction by ZEFSAII (Michael W. Deem and Ramdas Pophale) SiO2 
 PCOD9538224
Probable space group: I M M A
;
_chemical_formula_sum "Si O2"
_cell_formula_units_Z 72
_cell_length_a 8.864432
_cell_length_b 26.843747
_cell_length_c 14.976483
_cell_angle_alpha 90.000000
_cell_angle_beta 90.000000
_cell_angle_gamma 90.000000
_cell_volume 3563.722571
_symmetry_space_group_name_H-M "I M M A"
_symmetry_group_IT_number 74
_symmetry_cell_setting 'orthorhombic'
loop_
_space_group_symop_operation_xyz
x,y,z
-x,1/2-y,z
x,-y,-z
-x,1/2+y,-z
-x,-y,-z
x,1/2+y,-z
-x,y,z
x,1/2-y,z
1/2+x,1/2+y,1/2+z
1/2-x,-y,1/2+z
1/2+x,1/2-y,1/2-z
1/2-x,y,1/2-z
1/2-x,1/2-y,1/2-z
1/2+x,y,1/2-z
1/2-x,1/2+y,1/2+z
1/2+x,-y,1/2+z
loop_
_atom_site_type_symbol
_atom_site_label
_atom_site_fract_x
_atom_site_fract_y
_atom_site_fract_z
Si Si1 0.820033 0.375096 0.155663
Si Si2 0.175076 0.586440 0.340780
Si Si3 0.180240 0.338604 0.965733
Si Si4 0.676166 0.478037 0.094726
Si Si5 0.819693 0.750000 0.349560
O O1 0.750000 0.359806 0.250000
O O2 0.764290 0.430954 0.132016
O O3 0.000000 0.375598 0.163018
O O4 0.779019 0.340805 0.070443
O O5 0.250000 0.605277 0.250000
O O6 0.266711 0.609366 0.422744
O O7 0.180791 0.526653 0.343166
O O8 0.000000 0.601275 0.346849
O O9 0.262111 0.297166 0.906624
O O10 0.000000 0.332798 0.958101
O O11 0.500000 0.463163 0.082658
O O12 0.730737 0.500000 0.000000
O O13 0.750000 0.750000 0.250000
O O14 0.000000 0.750000 0.342559
#
# Coordination Sequence:
#
# PCOD9538224 Si02
#       5
#    16  16  16  16   8
#     4  11  24  40  63  91 125 168 212 259 309 365
#     4  11  22  36  57  86 122 163 206 253 305 364
#     4  11  24  43  65  92 124 159 203 255 308 368
#     4  10  20  36  58  86 123 166 211 258 306 360
#     4  12  26  46  73 100 127 160 195 246 310 374
#
# _framework density 20.203590999999999
#
# number of rings (size 3 to 8) (size 9 to 14) (size 15 to 20)
#    0.000    1.111    2.222    4.333    0.000    6.667 
#    0.000    0.556    0.000    0.000    0.000    0.000 
#    0.000    0.000    0.000    0.000    0.000    0.000 
#
# Total GULP energy -201221.769783 kJ/mol
# GULP energy per Si atom -5589.493605 kJ/mol
# Density = 2.015761 g / cm^3
# Si number density = 20.203591 Si / 1000 Ang^3
#
#
#
# Elastic Constant Matrix: (Units=GPa)
#
#
# Indices 1 2 3 4 5 6 
#
# 1 99.3001 38.8887 76.8862 0.0000 0.0000 0.0000
# 2 38.8887 74.4239 37.3035 0.0000 0.0000 0.0000
# 3 76.8862 37.3035 184.7972 0.0001 0.0000 0.0000
# 4 0.0000 0.0000 0.0001 21.7591 0.0000 0.0000
# 5 0.0000 0.0000 0.0000 0.0000 32.5266 0.0000
# 6 0.0000 0.0000 0.0000 0.0000 0.0000 26.9378
#
#
#
# Elastic Compliance Matrix: (Units=1/GPa)
#
#
# Indices 1 2 3 4 5 6 
#
# 1 0.016907 -0.005906 -0.005842 0.000000 0.000000 0.000000
# 2 -0.005906 0.017012 -0.000977 0.000000 0.000000 0.000000
# 3 -0.005842 -0.000977 0.008039 0.000000 0.000000 0.000000
# 4 0.000000 0.000000 0.000000 0.045958 0.000000 0.000000
# 5 0.000000 0.000000 0.000000 0.000000 0.030744 0.000000
# 6 0.000000 0.000000 0.000000 0.000000 0.000000 0.037123
#
#
# Mechanical properties :
#
#
# Convention : Reuss Voigt Hill
#
# Bulk Modulus (GPa) = 60.57553 73.85311 67.21432
# Shear Modulus (GPa) = 26.77586 29.94088 28.35837
#
# Velocity S-wave (km/s) = 3.64442 3.85380 3.75057
# Velocity P-wave (km/s) = 6.91062 7.51240 7.21779
#
# Compressibility (1/GPa) = 0.01650832
#
# Stress axis : x y z
#
# Youngs Moduli (GPa) = 59.14765 58.78095 124.39173
#
# Poissons Ratio (x) = 0.34717 0.72669
# Poissons Ratio (y) = 0.34934 0.12151
# Poissons Ratio (z) = 0.34554 0.05742
#
# Static dielectric constant tensor:
#      x y z
#    x 1.682390 0.000000 0.000000 
#    y 0.000000 1.738340 0.000000 
#    z 0.000000 0.000000 1.774980 
# 
# From -- ./inp_files/29179.got.cif
#   From: 2010.05.17/outbox.cif.g08.bks.cpg/sg74_15_cif.got.tgz:29179.got - 2010.06.03 17:57:02.
