data_PCOD9538443
_publ_section_title
;
Structure prediction by ZEFSAII (Michael W. Deem and Ramdas Pophale) SiO2 
 PCOD9538443
Probable space group: I M M A
;
_chemical_formula_sum "Si O2"
_cell_formula_units_Z 96
_cell_length_a 8.331451
_cell_length_b 24.184752
_cell_length_c 23.981911
_cell_angle_alpha 90.000000
_cell_angle_beta 90.000000
_cell_angle_gamma 90.000000
_cell_volume 4832.213003
_symmetry_space_group_name_H-M "I M M A"
_symmetry_group_IT_number 74
_symmetry_cell_setting 'orthorhombic'
loop_
_space_group_symop_operation_xyz
x,y,z
-x,1/2-y,z
x,-y,-z
-x,1/2+y,-z
-x,-y,-z
x,1/2+y,-z
-x,y,z
x,1/2-y,z
1/2+x,1/2+y,1/2+z
1/2-x,-y,1/2+z
1/2+x,1/2-y,1/2-z
1/2-x,y,1/2-z
1/2-x,1/2-y,1/2-z
1/2+x,y,1/2-z
1/2-x,1/2+y,1/2+z
1/2+x,-y,1/2+z
loop_
_atom_site_type_symbol
_atom_site_label
_atom_site_fract_x
_atom_site_fract_y
_atom_site_fract_z
Si Si1 0.304646 0.629805 0.492176
Si Si2 0.190294 0.475859 0.187026
Si Si3 0.807306 0.311637 0.685944
Si Si4 0.693492 0.581246 0.380764
Si Si5 0.809576 0.127814 0.380874
Si Si6 0.806395 0.750000 0.608636
Si Si7 0.813732 0.250000 0.984082
O O1 0.500000 0.631692 0.495583
O O2 0.255785 0.585970 0.445359
O O3 0.240835 0.621124 0.554319
O O4 0.245754 0.689979 0.469397
O O5 0.250000 0.477039 0.250000
O O6 0.256958 0.527678 0.151520
O O7 0.231126 0.418696 0.156781
O O8 0.000000 0.481866 0.188435
O O9 0.755762 0.250000 0.665950
O O10 0.750000 0.316747 0.750000
O O11 0.740340 0.362740 0.651125
O O12 0.000000 0.313530 0.684744
O O13 0.500000 0.578646 0.381380
O O14 0.769567 0.191180 0.363500
O O15 0.000000 0.121709 0.377053
O O16 0.707084 0.750000 0.551226
O O17 0.000000 0.750000 0.596032
O O18 0.000000 0.250000 0.967529
#
# Coordination Sequence:
#
# PCOD9538443 Si02
#       7
#    16  16  16  16  16   8   8
#     4   9  18  33  54  84 117 153 190 231 279 334
#     4  11  24  42  61  83 110 147 193 241 289 344
#     4  10  21  36  54  78 109 148 195 247 297 342
#     4  10  22  37  57  83 114 153 194 239 287 335
#     4  10  20  37  61  88 117 151 185 228 282 340
#     4   8  16  32  55  83 114 143 176 218 271 328
#     4   8  14  26  48  77 110 147 186 220 263 322
#
# _framework density 19.866672999999999
#
# number of rings (size 3 to 8) (size 9 to 14) (size 15 to 20)
#    0.000    2.333    0.000    2.000    1.167    5.667 
#    0.000    3.750    0.000    0.000    0.000    0.000 
#    0.000    0.000    0.000    0.000    0.000    0.000 
#
# Total GULP energy -267765.800189 kJ/mol
# GULP energy per Si atom -5578.454171 kJ/mol
# Density = 1.982146 g / cm^3
# Si number density = 19.866673 Si / 1000 Ang^3
#
#
#
# Elastic Constant Matrix: (Units=GPa)
#
#
# Indices 1 2 3 4 5 6 
#
# 1 16.6153 17.0409 10.4210 0.0000 0.0000 0.0000
# 2 17.0409 114.9253 42.0111 0.0000 0.0000 0.0000
# 3 10.4210 42.0111 44.3089 0.0000 0.0000 0.0000
# 4 0.0000 0.0000 0.0000 -173.1934 0.0000 0.0000
# 5 0.0000 0.0000 0.0000 0.0000 26.4313 0.0000
# 6 0.0000 0.0000 0.0000 0.0000 0.0000 29.2513
#
#
#
# Elastic Compliance Matrix: (Units=1/GPa)
#
#
# Indices 1 2 3 4 5 6 
#
# 1 0.074175 -0.007073 -0.010739 0.000000 0.000000 0.000000
# 2 -0.007073 0.013991 -0.011602 0.000000 0.000000 0.000000
# 3 -0.010739 -0.011602 0.036095 0.000000 0.000000 0.000000
# 4 0.000000 0.000000 0.000000 -0.005774 0.000000 0.000000
# 5 0.000000 0.000000 0.000000 0.000000 0.037834 0.000000
# 6 0.000000 0.000000 0.000000 0.000000 0.000000 0.034186
#
#
# Mechanical properties :
#
#
# Convention : Reuss Voigt Hill
#
# Bulk Modulus (GPa) = 15.28283 34.97727 25.13005
# Shear Modulus (GPa) = 18.44015 -16.41039 1.01488
#
# Velocity S-wave (km/s) = 3.04993 -2.87718 0.71551
# Velocity P-wave (km/s) = 4.48466 2.57034 3.65505
#
# Compressibility (1/GPa) = 0.06543292
#
# Stress axis : x y z
#
# Youngs Moduli (GPa) = 13.48161 71.47329 27.70457
#
# Poissons Ratio (x) = 0.50551 0.29753
# Poissons Ratio (y) = 0.09535 0.32143
# Poissons Ratio (z) = 0.14478 0.82925
#
# Static dielectric constant tensor:
#      x y z
#    x 1.695460 0.000000 0.000000 
#    y 0.000000 1.739440 0.000000 
#    z 0.000000 0.000000 1.681450 
# 
# From -- ./inp_files/57312.got.cif
#   From: 2010.05.17/outbox.cif.g08.bks.cpg/sg74_29_cif.got.tgz:57312.got - 2010.06.03 17:57:02.
