data_PCOD9538093
_publ_section_title
;
Structure prediction by ZEFSAII (Michael W. Deem and Ramdas Pophale) SiO2 
 PCOD9538093
Probable space group: I M M A
;
_chemical_formula_sum "Si O2"
_cell_formula_units_Z 96
_cell_length_a 18.515452
_cell_length_b 15.752424
_cell_length_c 15.530955
_cell_angle_alpha 90.000000
_cell_angle_beta 90.000000
_cell_angle_gamma 90.000000
_cell_volume 4529.808818
_symmetry_space_group_name_H-M "I M M A"
_symmetry_group_IT_number 74
_symmetry_cell_setting 'orthorhombic'
loop_
_space_group_symop_operation_xyz
x,y,z
-x,1/2-y,z
x,-y,-z
-x,1/2+y,-z
-x,-y,-z
x,1/2+y,-z
-x,y,z
x,1/2-y,z
1/2+x,1/2+y,1/2+z
1/2-x,-y,1/2+z
1/2+x,1/2-y,1/2-z
1/2-x,y,1/2-z
1/2-x,1/2-y,1/2-z
1/2+x,y,1/2-z
1/2-x,1/2+y,1/2+z
1/2+x,-y,1/2+z
loop_
_atom_site_type_symbol
_atom_site_label
_atom_site_fract_x
_atom_site_fract_y
_atom_site_fract_z
Si Si1 0.811612 0.848278 0.177199
Si Si2 0.084110 0.535279 0.287265
Si Si3 0.414450 0.844347 0.792101
Si Si4 0.229301 0.902351 0.498083
Si Si5 0.579034 0.346690 0.954061
Si Si6 0.296015 0.652841 0.668722
O O1 0.839705 0.750000 0.170525
O O2 0.750000 0.847067 0.250000
O O3 0.868351 0.918738 0.213105
O O4 0.772013 0.873646 0.087824
O O5 0.106030 0.440555 0.319602
O O6 0.087568 0.594148 0.371438
O O7 0.000000 0.531064 0.259723
O O8 0.500000 0.842271 0.792703
O O9 0.392083 0.750000 0.827658
O O10 0.378568 0.846560 0.697631
O O11 0.152357 0.855480 0.507169
O O12 0.279675 0.890345 0.580145
O O13 0.209636 0.000000 0.500000
O O14 0.500000 0.365206 0.996362
O O15 0.576158 0.250000 0.924003
O O16 0.272610 0.750000 0.658317
O O17 0.250000 0.618314 0.750000
#
# Coordination Sequence:
#
# PCOD9538093 Si02
#       6
#    16  16  16  16  16  16
#     4  11  22  39  65  95 129 167 211 260 315 380
#     4  10  20  35  62  96 129 166 210 257 315 383
#     4   9  19  37  61  89 123 167 214 263 318 375
#     4  12  25  38  61  93 127 165 207 263 314 380
#     4  10  21  39  62  90 128 168 208 259 316 378
#     4  10  22  40  62  85 118 163 210 260 309 365
#
# _framework density 21.192948000000001
#
# number of rings (size 3 to 8) (size 9 to 14) (size 15 to 20)
#    0.000    1.667    1.667    3.000    2.333    2.667 
#    0.000    1.667    0.000    8.000    0.000    0.000 
#    0.000    0.000    0.000    0.000    0.000    0.000 
#
# Total GULP energy -267679.739826 kJ/mol
# GULP energy per Si atom -5576.661246 kJ/mol
# Density = 2.114471 g / cm^3
# Si number density = 21.192948 Si / 1000 Ang^3
#
#
#
# Elastic Constant Matrix: (Units=GPa)
#
#
# Indices 1 2 3 4 5 6 
#
# 1 61.2893 43.3442 25.5589 0.0000 0.0000 0.0000
# 2 43.3442 173.1190 41.2829 0.0000 0.0000 0.0000
# 3 25.5589 41.2829 104.5451 0.0000 0.0000 0.0000
# 4 0.0000 0.0000 0.0000 15.5788 0.0000 0.0000
# 5 0.0000 0.0000 0.0000 0.0000 4.0164 0.0000
# 6 0.0000 0.0000 0.0000 0.0000 0.0000 10.7020
#
#
#
# Elastic Compliance Matrix: (Units=1/GPa)
#
#
# Indices 1 2 3 4 5 6 
#
# 1 0.020838 -0.004418 -0.003350 0.000000 0.000000 0.000000
# 2 -0.004418 0.007314 -0.001808 0.000000 0.000000 0.000000
# 3 -0.003350 -0.001808 0.011098 0.000000 0.000000 0.000000
# 4 0.000000 0.000000 0.000000 0.064190 0.000000 0.000000
# 5 0.000000 0.000000 0.000000 0.000000 0.248976 0.000000
# 6 0.000000 0.000000 0.000000 0.000000 0.000000 0.093440
#
#
# Mechanical properties :
#
#
# Convention : Reuss Voigt Hill
#
# Bulk Modulus (GPa) = 49.75691 62.14728 55.95209
# Shear Modulus (GPa) = 10.59981 21.31062 15.95521
#
# Velocity S-wave (km/s) = 2.23885 3.17448 2.74680
# Velocity P-wave (km/s) = 5.49657 6.54405 6.04305
#
# Compressibility (1/GPa) = 0.02009771
#
# Stress axis : x y z
#
# Youngs Moduli (GPa) = 47.99004 136.72910 90.10604
#
# Poissons Ratio (x) = 0.60413 0.30182
# Poissons Ratio (y) = 0.21204 0.16290
# Poissons Ratio (z) = 0.16075 0.24719
#
# Static dielectric constant tensor:
#      x y z
#    x 1.802080 0.000000 0.000000 
#    y 0.000000 1.870740 0.000000 
#    z 0.000000 0.000000 1.754590 
# 
# From -- ./inp_files/35240.got.cif
#   From: 2010.05.17/outbox.cif.g08.bks.cpg/sg74_18_cif.got.tgz:35240.got - 2010.06.03 17:57:02.
