data_PCOD9538756
_publ_section_title
;
Structure prediction by ZEFSAII (Michael W. Deem and Ramdas Pophale) SiO2 
 PCOD9538756
Probable space group: I M M A
;
_chemical_formula_sum "Si O2"
_cell_formula_units_Z 72
_cell_length_a 10.546853
_cell_length_b 15.126598
_cell_length_c 25.394391
_cell_angle_alpha 90.000000
_cell_angle_beta 90.000000
_cell_angle_gamma 90.000000
_cell_volume 4051.370491
_symmetry_space_group_name_H-M "I M M A"
_symmetry_group_IT_number 74
_symmetry_cell_setting 'orthorhombic'
loop_
_space_group_symop_operation_xyz
x,y,z
-x,1/2-y,z
x,-y,-z
-x,1/2+y,-z
-x,-y,-z
x,1/2+y,-z
-x,y,z
x,1/2-y,z
1/2+x,1/2+y,1/2+z
1/2-x,-y,1/2+z
1/2+x,1/2-y,1/2-z
1/2-x,y,1/2-z
1/2-x,1/2-y,1/2-z
1/2+x,y,1/2-z
1/2-x,1/2+y,1/2+z
1/2+x,-y,1/2+z
loop_
_atom_site_type_symbol
_atom_site_label
_atom_site_fract_x
_atom_site_fract_y
_atom_site_fract_z
Si Si1 0.749815 0.958102 0.657149
Si Si2 0.500000 0.353666 0.326763
Si Si3 0.346682 0.053643 0.947513
Si Si4 0.654708 0.750000 0.072599
Si Si5 0.359904 0.750000 0.188634
Si Si6 0.000000 0.355699 0.300346
Si Si7 0.750000 0.407937 0.750000
O O1 0.628054 0.896292 0.650934
O O2 0.873596 0.903244 0.677078
O O3 0.787326 0.009339 0.604245
O O4 0.711585 0.028471 0.702504
O O5 0.500000 0.250000 0.336803
O O6 0.500000 0.365926 0.263013
O O7 0.500000 0.050722 0.940896
O O8 0.306889 0.156179 0.951673
O O9 0.314578 0.000000 0.000000
O O10 0.500000 0.750000 0.067624
O O11 0.710814 0.750000 0.132761
O O12 0.500000 0.750000 0.168766
O O13 0.343848 0.837487 0.223197
O O14 0.000000 0.250000 0.311977
#
# Coordination Sequence:
#
# PCOD9538756 Si02
#       7
#    16   8  16   8   8   8   8
#     4  12  22  38  63  88 121 155 205 250 295 366
#     4  11  24  40  57  86 126 168 194 235 307 363
#     4  10  21  39  61  90 119 156 200 252 304 350
#     4   9  17  33  57  83 124 154 188 247 297 347
#     4  10  21  33  54  85 127 155 189 232 299 368
#     4  11  22  38  59  90 124 156 200 251 295 349
#     4  11  22  32  55  90 118 158 193 240 300 357
#
# _framework density 17.771761999999999
#
# number of rings (size 3 to 8) (size 9 to 14) (size 15 to 20)
#    0.000    1.333    5.556    0.667    3.111    1.778 
#    4.000    0.556    0.000    0.000    0.000    0.000 
#    0.000    0.000    0.000    0.000    0.000    0.000 
#
# Total GULP energy -200564.596329 kJ/mol
# GULP energy per Si atom -5571.238787 kJ/mol
# Density = 1.773131 g / cm^3
# Si number density = 17.771762 Si / 1000 Ang^3
#
#
#
# Elastic Constant Matrix: (Units=GPa)
#
#
# Indices 1 2 3 4 5 6 
#
# 1 62.4527 45.3182 9.9589 0.0000 0.0000 0.0000
# 2 45.3182 175.1686 73.6473 0.0000 0.0000 0.0000
# 3 9.9589 73.6473 108.5017 0.0000 0.0000 0.0000
# 4 0.0000 0.0000 0.0000 17.1082 0.0000 0.0000
# 5 0.0000 0.0000 0.0000 0.0000 18.9034 0.0000
# 6 0.0000 0.0000 0.0000 0.0000 0.0000 47.8090
#
#
#
# Elastic Compliance Matrix: (Units=1/GPa)
#
#
# Indices 1 2 3 4 5 6 
#
# 1 0.020136 -0.006202 0.002362 0.000000 0.000000 0.000000
# 2 -0.006202 0.009899 -0.006150 0.000000 0.000000 0.000000
# 3 0.002362 -0.006150 0.013174 0.000000 0.000000 0.000000
# 4 0.000000 0.000000 0.000000 0.058451 0.000000 0.000000
# 5 0.000000 0.000000 0.000000 0.000000 0.052901 0.000000
# 6 0.000000 0.000000 0.000000 0.000000 0.000000 0.020917
#
#
# Mechanical properties :
#
#
# Convention : Reuss Voigt Hill
#
# Bulk Modulus (GPa) = 43.05098 67.10797 55.07948
# Shear Modulus (GPa) = 24.60610 31.24404 27.92507
#
# Velocity S-wave (km/s) = 3.72501 4.19749 3.96828
# Velocity P-wave (km/s) = 6.54048 7.83166 7.21501
#
# Compressibility (1/GPa) = 0.02322827
#
# Stress axis : x y z
#
# Youngs Moduli (GPa) = 49.66160 101.01971 75.90727
#
# Poissons Ratio (x) = 0.62657 -0.17928
# Poissons Ratio (y) = 0.30803 0.46682
# Poissons Ratio (z) = -0.11729 0.62126
#
# Static dielectric constant tensor:
#      x y z
#    x 1.590370 0.000000 0.000000 
#    y 0.000000 1.622710 0.000000 
#    z 0.000000 0.000000 1.604520 
# 
# From -- ./inp_files/63741.got.cif
#   From: 2010.05.17/outbox.cif.g08.bks.cpg/sg74_32_cif.got.tgz:63741.got - 2010.06.03 17:57:02.
