data_PCOD9538619
_publ_section_title
;
Structure prediction by ZEFSAII (Michael W. Deem and Ramdas Pophale) SiO2 
 PCOD9538619
Probable space group: I M M A
;
_chemical_formula_sum "Si O2"
_cell_formula_units_Z 60
_cell_length_a 9.835657
_cell_length_b 16.170211
_cell_length_c 17.056457
_cell_angle_alpha 90.000000
_cell_angle_beta 90.000000
_cell_angle_gamma 90.000000
_cell_volume 2712.738217
_symmetry_space_group_name_H-M "I M M A"
_symmetry_group_IT_number 74
_symmetry_cell_setting 'orthorhombic'
loop_
_space_group_symop_operation_xyz
x,y,z
-x,1/2-y,z
x,-y,-z
-x,1/2+y,-z
-x,-y,-z
x,1/2+y,-z
-x,y,z
x,1/2-y,z
1/2+x,1/2+y,1/2+z
1/2-x,-y,1/2+z
1/2+x,1/2-y,1/2-z
1/2-x,y,1/2-z
1/2-x,1/2-y,1/2-z
1/2+x,y,1/2-z
1/2-x,1/2+y,1/2+z
1/2+x,-y,1/2+z
loop_
_atom_site_type_symbol
_atom_site_label
_atom_site_fract_x
_atom_site_fract_y
_atom_site_fract_z
Si Si1 0.754074 0.879691 0.439446
Si Si2 0.853321 0.750000 0.179716
Si Si3 0.152381 0.150812 0.105878
Si Si4 0.338350 0.520685 0.823659
Si Si5 0.000000 0.750000 0.463790
O O1 0.668509 0.828926 0.375147
O O2 0.667921 0.885722 0.518505
O O3 0.881585 0.821838 0.460669
O O4 0.807069 0.962093 0.397900
O O5 0.750000 0.750000 0.250000
O O6 0.000000 0.750000 0.217392
O O7 0.165872 0.250000 0.102081
O O8 0.271521 0.109232 0.156064
O O9 0.000000 0.131474 0.136003
O O10 0.500000 0.522980 0.809414
O O11 0.250000 0.488362 0.750000
#
# Coordination Sequence:
#
# PCOD9538619 Si02
#       5
#    16   8  16  16   4
#     4  11  23  41  71  99 143 176 230 277 338 405
#     4  11  24  37  61  97 139 183 220 266 332 401
#     4  11  25  46  73 102 136 178 231 288 349 412
#     4  12  28  46  69 100 138 184 232 287 347 408
#     4  10  20  38  68 110 138 174 220 278 326 412
#
# _framework density 22.117874
#
# number of rings (size 3 to 8) (size 9 to 14) (size 15 to 20)
#    0.000    0.800    4.000    3.200    5.600    9.600 
#    0.000    0.000    0.000    0.000    0.000    0.000 
#    0.000    0.000    0.000    0.000    0.000    0.000 
#
# Total GULP energy -167270.090396 kJ/mol
# GULP energy per Si atom -5575.669680 kJ/mol
# Density = 2.206753 g / cm^3
# Si number density = 22.117874 Si / 1000 Ang^3
#
#
#
# Elastic Constant Matrix: (Units=GPa)
#
#
# Indices 1 2 3 4 5 6 
#
# 1 181.2099 42.5017 8.3282 0.0000 0.0000 0.0000
# 2 42.5017 76.3951 13.1073 0.0000 0.0000 0.0000
# 3 8.3282 13.1073 49.8568 0.0000 0.0000 0.0000
# 4 0.0000 0.0000 0.0000 21.2587 0.0000 0.0000
# 5 0.0000 0.0000 0.0000 0.0000 11.2290 0.0000
# 6 0.0000 0.0000 0.0000 0.0000 0.0000 18.3826
#
#
#
# Elastic Compliance Matrix: (Units=1/GPa)
#
#
# Indices 1 2 3 4 5 6 
#
# 1 0.006348 -0.003508 -0.000138 0.000000 0.000000 0.000000
# 2 -0.003508 0.015647 -0.003528 0.000000 0.000000 0.000000
# 3 -0.000138 -0.003528 0.021008 0.000000 0.000000 0.000000
# 4 0.000000 0.000000 0.000000 0.047040 0.000000 0.000000
# 5 0.000000 0.000000 0.000000 0.000000 0.089055 0.000000
# 6 0.000000 0.000000 0.000000 0.000000 0.000000 0.054399
#
#
# Mechanical properties :
#
#
# Convention : Reuss Voigt Hill
#
# Bulk Modulus (GPa) = 34.89759 48.37069 41.63414
# Shear Modulus (GPa) = 19.42541 26.40900 22.91721
#
# Velocity S-wave (km/s) = 2.96677 3.45920 3.22240
# Velocity P-wave (km/s) = 5.24861 6.15400 5.71925
#
# Compressibility (1/GPa) = 0.02865528
#
# Stress axis : x y z
#
# Youngs Moduli (GPa) = 157.54184 63.91185 47.60108
#
# Poissons Ratio (x) = 0.22418 0.00658
# Poissons Ratio (y) = 0.55261 0.16791
# Poissons Ratio (z) = 0.02176 0.22545
#
# Static dielectric constant tensor:
#      x y z
#    x 1.785160 0.000000 0.000000 
#    y 0.000000 1.817220 0.000000 
#    z 0.000000 0.000000 1.834410 
# 
# From -- ./inp_files/38897.got.cif
#   From: 2010.05.17/outbox.cif.g08.bks.cpg/sg74_20_cif.got.tgz:38897.got - 2010.06.03 17:57:02.
