data_PCOD9538500
_publ_section_title
;
Structure prediction by ZEFSAII (Michael W. Deem and Ramdas Pophale) SiO2 
 PCOD9538500
Probable space group: I M M A
;
_chemical_formula_sum "Si O2"
_cell_formula_units_Z 84
_cell_length_a 14.418655
_cell_length_b 24.311799
_cell_length_c 12.783448
_cell_angle_alpha 90.000000
_cell_angle_beta 90.000000
_cell_angle_gamma 90.000000
_cell_volume 4481.153865
_symmetry_space_group_name_H-M "I M M A"
_symmetry_group_IT_number 74
_symmetry_cell_setting 'orthorhombic'
loop_
_space_group_symop_operation_xyz
x,y,z
-x,1/2-y,z
x,-y,-z
-x,1/2+y,-z
-x,-y,-z
x,1/2+y,-z
-x,y,z
x,1/2-y,z
1/2+x,1/2+y,1/2+z
1/2-x,-y,1/2+z
1/2+x,1/2-y,1/2-z
1/2-x,y,1/2-z
1/2-x,1/2-y,1/2-z
1/2+x,y,1/2-z
1/2-x,1/2+y,1/2+z
1/2+x,-y,1/2+z
loop_
_atom_site_type_symbol
_atom_site_label
_atom_site_fract_x
_atom_site_fract_y
_atom_site_fract_z
Si Si1 0.500000 0.369394 0.260546
Si Si2 0.000000 0.564279 0.545055
Si Si3 0.282627 0.250000 0.129378
Si Si4 0.838990 0.644979 0.928844
Si Si5 0.000000 0.750000 0.650633
Si Si6 0.697711 0.436507 0.971052
Si Si7 0.604357 0.312837 0.649031
Si Si8 0.750000 0.393258 0.750000
O O1 0.500000 0.416338 0.168547
O O2 0.591758 0.370072 0.334302
O O3 0.500000 0.307942 0.212171
O O4 0.000000 0.500000 0.500000
O O5 0.096325 0.587133 0.499820
O O6 0.250000 0.250000 0.250000
O O7 0.232916 0.194770 0.089807
O O8 0.393382 0.250000 0.105117
O O9 0.776748 0.593758 0.963035
O O10 0.895335 0.665682 0.029929
O O11 0.718549 0.428181 0.849292
O O12 0.698288 0.500000 0.000000
O O13 0.500000 0.313441 0.689592
O O14 0.638994 0.250000 0.650889
O O15 0.667907 0.353455 0.713735
#
# Coordination Sequence:
#
# PCOD9538500 Si02
#       8
#     8   8   8  16   4  16  16   8
#     4  12  22  38  64  97 134 170 212 257 320 389
#     4  10  24  42  61  85 121 168 213 255 319 391
#     4  12  22  36  58  95 132 172 198 256 310 382
#     4  11  22  38  64  95 130 163 212 260 312 380
#     4  12  24  32  56  96 132 170 210 230 324 382
#     4  10  24  44  64  90 121 166 216 267 325 374
#     4  10  20  37  65  92 126 166 206 254 311 379
#     4  10  23  40  64  90 124 159 214 270 304 380
#
# _framework density 18.745172
#
# number of rings (size 3 to 8) (size 9 to 14) (size 15 to 20)
#    0.000    1.333    3.810    1.429    1.333    3.048 
#    0.000    0.476    0.000    0.000    0.000    0.000 
#    0.000    0.000    0.000    0.000    0.000    0.000 
#
# Total GULP energy -234051.639187 kJ/mol
# GULP energy per Si atom -5572.658076 kJ/mol
# Density = 1.870251 g / cm^3
# Si number density = 18.745172 Si / 1000 Ang^3
#
#
#
# Elastic Constant Matrix: (Units=GPa)
#
#
# Indices 1 2 3 4 5 6 
#
# 1 145.6498 47.0443 69.2998 0.0000 -0.0001 -0.0002
# 2 47.0443 97.9745 62.4624 0.0000 0.0002 0.0004
# 3 69.2998 62.4624 111.6268 0.0002 0.0018 0.0042
# 4 0.0000 0.0000 0.0002 13.0281 0.0007 0.0023
# 5 -0.0001 0.0002 0.0018 0.0007 -673.3643 0.0134
# 6 -0.0002 0.0004 0.0042 0.0023 0.0134 334.4349
#
#
#
# Elastic Compliance Matrix: (Units=1/GPa)
#
#
# Indices 1 2 3 4 5 6 
#
# 1 0.009848 -0.001292 -0.005391 0.000000 0.000000 0.000000
# 2 -0.001292 0.016037 -0.008172 0.000000 0.000000 0.000000
# 3 -0.005391 -0.008172 0.016878 0.000000 0.000000 0.000000
# 4 0.000000 0.000000 0.000000 0.076757 0.000000 -0.000001
# 5 0.000000 0.000000 0.000000 0.000000 -0.001485 0.000000
# 6 0.000000 0.000000 0.000000 -0.000001 0.000000 0.002990
#
#
# Mechanical properties :
#
#
# Convention : Reuss Voigt Hill
#
# Bulk Modulus (GPa) = 76.60622 79.20713 77.90667
# Shear Modulus (GPa) = 32.24036 -53.41731 -10.58847
#
# Velocity S-wave (km/s) = 4.15170 -5.34401 -2.37927
# Velocity P-wave (km/s) = 7.99613 2.06604 5.83980
#
# Compressibility (1/GPa) = 0.01305377
#
# Stress axis : x y z
#
# Youngs Moduli (GPa) = 101.54294 62.35682 59.24934
#
# Poissons Ratio (x) = 0.08055 0.31941
# Poissons Ratio (y) = 0.13117 0.48416
# Poissons Ratio (z) = 0.54742 0.50956
#
# Static dielectric constant tensor:
#      x y z
#    x 1.665300 0.000000 0.000000 
#    y 0.000000 2.054120 0.000000 
#    z 0.000000 0.000000 1.669630 
# 
# From -- ./inp_files/20716.got.cif
#   From: 2010.05.17/outbox.cif.g08.bks.cpg/sg74_11_cif.got.tgz:20716.got - 2010.06.03 17:57:02.
