data_PCOD9538864
_publ_section_title
;
Structure prediction by ZEFSAII (Michael W. Deem and Ramdas Pophale) SiO2 
 PCOD9538864
Probable space group: I M M A
;
_chemical_formula_sum "Si O2"
_cell_formula_units_Z 96
_cell_length_a 18.156584
_cell_length_b 15.919939
_cell_length_c 16.152078
_cell_angle_alpha 90.000000
_cell_angle_beta 90.000000
_cell_angle_gamma 90.000000
_cell_volume 4668.785762
_symmetry_space_group_name_H-M "I M M A"
_symmetry_group_IT_number 74
_symmetry_cell_setting 'orthorhombic'
loop_
_space_group_symop_operation_xyz
x,y,z
-x,1/2-y,z
x,-y,-z
-x,1/2+y,-z
-x,-y,-z
x,1/2+y,-z
-x,y,z
x,1/2-y,z
1/2+x,1/2+y,1/2+z
1/2-x,-y,1/2+z
1/2+x,1/2-y,1/2-z
1/2-x,y,1/2-z
1/2-x,1/2-y,1/2-z
1/2+x,y,1/2-z
1/2-x,1/2+y,1/2+z
1/2+x,-y,1/2+z
loop_
_atom_site_type_symbol
_atom_site_label
_atom_site_fract_x
_atom_site_fract_y
_atom_site_fract_z
Si Si1 0.182102 0.016347 0.902767
Si Si2 0.335541 0.078170 0.834667
Si Si3 0.412457 0.346451 0.680712
Si Si4 0.913173 0.904322 0.675552
Si Si5 0.679280 0.659015 0.689648
Si Si6 0.586129 0.849488 0.006979
O O1 0.250629 0.059570 0.854113
O O2 0.115696 0.081107 0.882164
O O3 0.173219 0.922714 0.866578
O O4 0.195405 0.000000 0.000000
O O5 0.363614 0.141996 0.764345
O O6 0.369750 0.104268 0.922295
O O7 0.372197 0.990974 0.807567
O O8 0.500000 0.357751 0.699076
O O9 0.402705 0.250000 0.650727
O O10 0.889455 0.842878 0.747983
O O11 0.888812 0.872373 0.585337
O O12 0.000000 0.916715 0.673505
O O13 0.684630 0.750000 0.646908
O O14 0.750000 0.650649 0.750000
O O15 0.500000 0.872881 0.014113
O O16 0.592244 0.750000 0.018272
#
# Coordination Sequence:
#
# PCOD9538864 Si02
#       6
#    16  16  16  16  16  16
#     4  12  26  45  68  98 136 176 229 284 338 399
#     4  12  22  39  64  98 133 176 221 267 333 403
#     4  11  25  46  72 101 136 181 231 283 340 401
#     4  11  21  37  62  93 128 169 214 266 323 395
#     4  11  23  42  65  90 127 173 219 270 332 397
#     4  10  21  35  55  92 137 174 212 259 320 397
#
# _framework density 20.562092
#
# number of rings (size 3 to 8) (size 9 to 14) (size 15 to 20)
#    0.000    0.833    3.333    4.500    0.000    6.667 
#    0.000    0.000    0.000    0.000    0.000    0.000 
#    0.000    0.000    0.000    0.000    0.000    0.000 
#
# Total GULP energy -268186.007276 kJ/mol
# GULP energy per Si atom -5587.208485 kJ/mol
# Density = 2.051529 g / cm^3
# Si number density = 20.562092 Si / 1000 Ang^3
#
#
#
# Elastic Constant Matrix: (Units=GPa)
#
#
# Indices 1 2 3 4 5 6 
#
# 1 57.9045 35.2446 14.8159 0.0000 0.0000 0.0000
# 2 35.2446 125.6547 28.6796 0.0000 0.0000 0.0000
# 3 14.8159 28.6796 67.6817 0.0000 0.0000 0.0000
# 4 0.0000 0.0000 0.0000 -31.8356 0.0000 0.0000
# 5 0.0000 0.0000 0.0000 0.0000 46.0562 0.0000
# 6 0.0000 0.0000 0.0000 0.0000 0.0000 4.7783
#
#
#
# Elastic Compliance Matrix: (Units=1/GPa)
#
#
# Indices 1 2 3 4 5 6 
#
# 1 0.021156 -0.005399 -0.002343 0.000000 0.000000 0.000000
# 2 -0.005399 0.010188 -0.003135 0.000000 0.000000 0.000000
# 3 -0.002343 -0.003135 0.016617 0.000000 0.000000 0.000000
# 4 0.000000 0.000000 0.000000 -0.031411 0.000000 0.000000
# 5 0.000000 0.000000 0.000000 0.000000 0.021713 0.000000
# 6 0.000000 0.000000 0.000000 0.000000 0.000000 0.209278
#
#
# Mechanical properties :
#
#
# Convention : Reuss Voigt Hill
#
# Bulk Modulus (GPa) = 38.16042 45.41346 41.78694
# Shear Modulus (GPa) = 17.98364 15.29984 16.64174
#
# Velocity S-wave (km/s) = 2.96057 2.73074 2.84798
# Velocity P-wave (km/s) = 5.50323 5.66362 5.58400
#
# Compressibility (1/GPa) = 0.02620516
#
# Stress axis : x y z
#
# Youngs Moduli (GPa) = 47.26878 98.15181 60.18087
#
# Poissons Ratio (x) = 0.52993 0.14102
# Poissons Ratio (y) = 0.25521 0.18869
# Poissons Ratio (z) = 0.11076 0.30774
#
# Static dielectric constant tensor:
#      x y z
#    x 1.754170 0.000000 0.000000 
#    y 0.000000 1.764170 0.000000 
#    z 0.000000 0.000000 1.909380 
# 
# From -- ./inp_files/35287.got.cif
#   From: 2010.05.17/outbox.cif.g08.bks.cpg/sg74_18_cif.got.tgz:35287.got - 2010.06.03 17:57:02.
