data_PCOD9538662
_publ_section_title
;
Structure prediction by ZEFSAII (Michael W. Deem and Ramdas Pophale) SiO2 
 PCOD9538662
Probable space group: I M M A
;
_chemical_formula_sum "Si O2"
_cell_formula_units_Z 88
_cell_length_a 19.561144
_cell_length_b 18.001629
_cell_length_c 11.068809
_cell_angle_alpha 90.000000
_cell_angle_beta 90.000000
_cell_angle_gamma 90.000000
_cell_volume 3897.686910
_symmetry_space_group_name_H-M "I M M A"
_symmetry_group_IT_number 74
_symmetry_cell_setting 'orthorhombic'
loop_
_space_group_symop_operation_xyz
x,y,z
-x,1/2-y,z
x,-y,-z
-x,1/2+y,-z
-x,-y,-z
x,1/2+y,-z
-x,y,z
x,1/2-y,z
1/2+x,1/2+y,1/2+z
1/2-x,-y,1/2+z
1/2+x,1/2-y,1/2-z
1/2-x,y,1/2-z
1/2-x,1/2-y,1/2-z
1/2+x,y,1/2-z
1/2-x,1/2+y,1/2+z
1/2+x,-y,1/2+z
loop_
_atom_site_type_symbol
_atom_site_label
_atom_site_fract_x
_atom_site_fract_y
_atom_site_fract_z
Si Si1 0.000000 0.108869 0.187431
Si Si2 0.776686 0.334866 0.027465
Si Si3 0.861139 0.410511 0.518594
Si Si4 0.852030 0.115202 0.798735
Si Si5 0.630085 0.537438 0.624857
Si Si6 0.500000 0.660589 0.406902
Si Si7 0.000000 0.666414 0.563872
O O1 0.065876 0.057709 0.204366
O O2 0.000000 0.169165 0.290746
O O3 0.000000 0.138463 0.049454
O O4 0.778246 0.250000 0.067308
O O5 0.829583 0.388280 0.095977
O O6 0.703223 0.372153 0.046314
O O7 0.802752 0.338551 0.887217
O O8 0.858058 0.500000 0.500000
O O9 0.852729 0.380212 0.655726
O O10 0.933087 0.378465 0.475113
O O11 0.930040 0.130454 0.845490
O O12 0.828326 0.030006 0.820550
O O13 0.604745 0.500000 0.500000
O O14 0.500000 0.750000 0.397705
O O15 0.000000 0.750000 0.513439
#
# Coordination Sequence:
#
# PCOD9538662 Si02
#       7
#     8  16  16  16  16   8   8
#     4  12  21  41  70  93 138 176 223 270 331 399
#     4  11  24  41  68 103 137 174 216 276 343 395
#     4  12  26  48  69  95 136 179 230 270 322 403
#     4  11  23  40  70 102 134 177 222 276 333 389
#     4  10  20  39  66 100 134 170 219 273 332 390
#     4  12  23  37  67 108 139 167 220 286 339 388
#     4  12  29  47  67  98 134 182 222 267 335 398
#
# _framework density 22.577494000000002
#
# number of rings (size 3 to 8) (size 9 to 14) (size 15 to 20)
#    0.000    0.727    3.636    6.273    0.000    5.091 
#    0.000    2.727    0.000    5.455    0.000    0.000 
#    0.000    0.000    0.000    0.000    0.000    0.000 
#
# Total GULP energy -245917.479926 kJ/mol
# GULP energy per Si atom -5589.033635 kJ/mol
# Density = 2.252611 g / cm^3
# Si number density = 22.577494 Si / 1000 Ang^3
#
#
#
# Elastic Constant Matrix: (Units=GPa)
#
#
# Indices 1 2 3 4 5 6 
#
# 1 107.5205 58.6018 -0.2719 0.0000 0.0000 0.0000
# 2 58.6018 188.8843 -10.7802 0.0000 0.0000 0.0000
# 3 -0.2719 -10.7802 32.5567 0.0000 0.0000 0.0000
# 4 0.0000 0.0000 0.0000 -5.9424 0.0000 0.0000
# 5 0.0000 0.0000 0.0000 0.0000 -66.4362 0.0000
# 6 0.0000 0.0000 0.0000 0.0000 0.0000 27.1136
#
#
#
# Elastic Compliance Matrix: (Units=1/GPa)
#
#
# Indices 1 2 3 4 5 6 
#
# 1 0.011230 -0.003546 -0.001080 0.000000 0.000000 0.000000
# 2 -0.003546 0.006516 0.002128 0.000000 0.000000 0.000000
# 3 -0.001080 0.002128 0.031411 0.000000 0.000000 0.000000
# 4 0.000000 0.000000 0.000000 -0.168281 0.000000 0.000000
# 5 0.000000 0.000000 0.000000 0.000000 -0.015052 0.000000
# 6 0.000000 0.000000 0.000000 0.000000 0.000000 0.036882
#
#
# Mechanical properties :
#
#
# Convention : Reuss Voigt Hill
#
# Bulk Modulus (GPa) = 22.64454 47.11788 34.88121
# Shear Modulus (GPa) = -64.45226 9.70776 -27.37225
#
# Velocity S-wave (km/s) = -5.34875 2.07583 -3.48569
# Velocity P-wave (km/s) = 5.30038 5.16335 0.84671
#
# Compressibility (1/GPa) = 0.04416077
#
# Stress axis : x y z
#
# Youngs Moduli (GPa) = 89.04351 153.47235 31.83578
#
# Poissons Ratio (x) = 0.54420 0.03439
# Poissons Ratio (y) = 0.31574 -0.06774
# Poissons Ratio (z) = 0.09620 -0.32658
#
# Static dielectric constant tensor:
#      x y z
#    x 1.824100 0.000000 0.000000 
#    y 0.000000 1.817380 0.000000 
#    z 0.000000 0.000000 1.918970 
# 
# From -- ./inp_files/23724.got.cif
#   From: 2010.05.17/outbox.cif.g08.bks.cpg/sg74_12_cif.got.tgz:23724.got - 2010.06.03 17:57:02.
