data_PCOD9538417
_publ_section_title
;
Structure prediction by ZEFSAII (Michael W. Deem and Ramdas Pophale) SiO2 
 PCOD9538417
Probable space group: I M M A
;
_chemical_formula_sum "Si O2"
_cell_formula_units_Z 104
_cell_length_a 9.425237
_cell_length_b 21.318328
_cell_length_c 28.215445
_cell_angle_alpha 90.000000
_cell_angle_beta 90.000000
_cell_angle_gamma 90.000000
_cell_volume 5669.337655
_symmetry_space_group_name_H-M "I M M A"
_symmetry_group_IT_number 74
_symmetry_cell_setting 'orthorhombic'
loop_
_space_group_symop_operation_xyz
x,y,z
-x,1/2-y,z
x,-y,-z
-x,1/2+y,-z
-x,-y,-z
x,1/2+y,-z
-x,y,z
x,1/2-y,z
1/2+x,1/2+y,1/2+z
1/2-x,-y,1/2+z
1/2+x,1/2-y,1/2-z
1/2-x,y,1/2-z
1/2-x,1/2-y,1/2-z
1/2+x,y,1/2-z
1/2-x,1/2+y,1/2+z
1/2+x,-y,1/2+z
loop_
_atom_site_type_symbol
_atom_site_label
_atom_site_fract_x
_atom_site_fract_y
_atom_site_fract_z
Si Si1 0.335426 0.081970 0.796104
Si Si2 0.830991 0.140911 0.126561
Si Si3 0.833758 0.084371 0.944438
Si Si4 0.829068 0.181358 0.019941
Si Si5 0.664004 0.177235 0.645393
Si Si6 0.665676 0.012495 0.115077
Si Si7 0.829632 0.250000 0.200247
O O1 0.500000 0.090895 0.784754
O O2 0.250000 0.061092 0.750000
O O3 0.265472 0.145308 0.816379
O O4 0.323811 0.031659 0.838459
O O5 0.805034 0.173153 0.075641
O O6 0.743253 0.077197 0.126591
O O7 0.794480 0.188929 0.168538
O O8 0.000000 0.127700 0.129322
O O9 0.825984 0.136534 0.902629
O O10 0.000000 0.066795 0.950405
O O11 0.744979 0.024947 0.926950
O O12 0.778226 0.121214 0.990542
O O13 0.775591 0.250000 0.004184
O O14 0.000000 0.181853 0.012476
O O15 0.500000 0.172542 0.661331
O O16 0.696373 0.250000 0.636753
O O17 0.500000 0.021689 0.104216
O O18 0.750000 0.250000 0.250000
O O19 0.000000 0.250000 0.207270
#
# Coordination Sequence:
#
# PCOD9538417 Si02
#       7
#    16  16  16  16  16  16   8
#     4  10  21  36  53  72  97 133 176 222 270 318
#     4  10  20  37  60  84 110 141 179 223 273 325
#     4   9  17  31  54  82 109 143 184 223 265 313
#     4   9  16  30  56  86 113 141 181 230 271 314
#     4   9  17  30  49  75 106 137 173 217 263 313
#     4  10  22  38  54  76 110 146 180 222 272 328
#     4  10  22  40  62  88 116 146 182 230 285 342
#
# _framework density 18.344294999999999
#
# number of rings (size 3 to 8) (size 9 to 14) (size 15 to 20)
#    0.000    2.462    0.769    1.385    0.000    6.154 
#    0.000    6.923    0.000    2.308    0.000    0.000 
#    0.000    0.000    0.000    0.000    0.000    0.000 
#
# Total GULP energy -290115.181398 kJ/mol
# GULP energy per Si atom -5579.138104 kJ/mol
# Density = 1.830254 g / cm^3
# Si number density = 18.344295 Si / 1000 Ang^3
#
#
#
# Elastic Constant Matrix: (Units=GPa)
#
#
# Indices 1 2 3 4 5 6 
#
# 1 75.9473 67.5041 48.1140 0.0000 0.0000 0.0000
# 2 67.5041 140.2034 41.4739 0.0000 0.0000 0.0000
# 3 48.1140 41.4739 91.6695 0.0000 0.0000 0.0000
# 4 0.0000 0.0000 0.0000 1.2731 0.0000 0.0000
# 5 0.0000 0.0000 0.0000 0.0000 21.2906 0.0000
# 6 0.0000 0.0000 0.0000 0.0000 0.0000 17.4120
#
#
#
# Elastic Compliance Matrix: (Units=1/GPa)
#
#
# Indices 1 2 3 4 5 6 
#
# 1 0.029878 -0.011253 -0.010591 0.000000 0.000000 0.000000
# 2 -0.011253 0.012472 0.000263 0.000000 0.000000 0.000000
# 3 -0.010591 0.000263 0.016349 0.000000 0.000000 0.000000
# 4 0.000000 0.000000 0.000000 0.785467 0.000000 0.000000
# 5 0.000000 0.000000 0.000000 0.000000 0.046969 0.000000
# 6 0.000000 0.000000 0.000000 0.000000 0.000000 0.057432
#
#
# Mechanical properties :
#
#
# Convention : Reuss Voigt Hill
#
# Bulk Modulus (GPa) = 64.35682 69.11159 66.73420
# Shear Modulus (GPa) = 5.01551 18.04369 11.52960
#
# Velocity S-wave (km/s) = 1.65530 3.13966 2.50973
# Velocity P-wave (km/s) = 6.22995 7.13441 6.69747
#
# Compressibility (1/GPa) = 0.01553837
#
# Stress axis : x y z
#
# Youngs Moduli (GPa) = 33.46912 80.17662 61.16755
#
# Poissons Ratio (x) = 0.90220 0.64783
# Poissons Ratio (y) = 0.37662 -0.01610
# Poissons Ratio (z) = 0.35447 -0.02110
#
# Static dielectric constant tensor:
#      x y z
#    x 1.610240 0.000000 0.000000 
#    y 0.000000 1.628600 0.000000 
#    z 0.000000 0.000000 1.637070 
# 
# From -- ./inp_files/64448.got.cif
#   From: 2010.05.17/outbox.cif.g08.bks.cpg/sg74_33_cif.got.tgz:64448.got - 2010.06.03 17:57:02.
