data_PCOD9538277
_publ_section_title
;
Structure prediction by ZEFSAII (Michael W. Deem and Ramdas Pophale) SiO2 
 PCOD9538277
Probable space group: I M M A
;
_chemical_formula_sum "Si O2"
_cell_formula_units_Z 112
_cell_length_a 23.196154
_cell_length_b 13.926422
_cell_length_c 16.618712
_cell_angle_alpha 90.000000
_cell_angle_beta 90.000000
_cell_angle_gamma 90.000000
_cell_volume 5368.499242
_symmetry_space_group_name_H-M "I M M A"
_symmetry_group_IT_number 74
_symmetry_cell_setting 'orthorhombic'
loop_
_space_group_symop_operation_xyz
x,y,z
-x,1/2-y,z
x,-y,-z
-x,1/2+y,-z
-x,-y,-z
x,1/2+y,-z
-x,y,z
x,1/2-y,z
1/2+x,1/2+y,1/2+z
1/2-x,-y,1/2+z
1/2+x,1/2-y,1/2-z
1/2-x,y,1/2-z
1/2-x,1/2-y,1/2-z
1/2+x,y,1/2-z
1/2-x,1/2+y,1/2+z
1/2+x,-y,1/2+z
loop_
_atom_site_type_symbol
_atom_site_label
_atom_site_fract_x
_atom_site_fract_y
_atom_site_fract_z
Si Si1 0.842801 0.136765 0.638182
Si Si2 0.841967 0.862814 0.818651
Si Si3 0.436757 0.866258 0.007193
Si Si4 0.933695 0.138412 0.781532
Si Si5 0.864242 0.135569 0.365330
Si Si6 0.743971 0.019491 0.091763
Si Si7 0.567439 0.029463 0.411428
O O1 0.829987 0.250000 0.631131
O O2 0.884707 0.105529 0.565098
O O3 0.883706 0.123508 0.715848
O O4 0.785018 0.074351 0.632141
O O5 0.825187 0.750000 0.819123
O O6 0.859362 0.891510 0.727877
O O7 0.896398 0.883660 0.874976
O O8 0.792103 0.931036 0.853212
O O9 0.500000 0.899828 0.031314
O O10 0.437993 0.750000 0.011780
O O11 0.420414 0.893254 0.915916
O O12 0.929672 0.250000 0.808253
O O13 0.000000 0.126656 0.749616
O O14 0.926116 0.062239 0.852667
O O15 0.861899 0.250000 0.367642
O O16 0.809010 0.093907 0.410393
O O17 0.763196 0.000000 0.000000
O O18 0.500000 0.053870 0.415595
O O19 0.587409 0.000000 0.500000
#
# Coordination Sequence:
#
# PCOD9538277 Si02
#       7
#    16  16  16  16  16  16  16
#     4  10  20  36  59  90 130 171 207 253 313 373
#     4  11  25  43  65  89 119 164 213 263 321 383
#     4   9  17  32  57  90 129 168 205 248 304 372
#     4   9  18  35  62  93 125 164 206 250 310 383
#     4  10  21  39  60  86 122 165 211 258 310 371
#     4  12  23  38  60  86 120 164 214 266 311 370
#     4  10  22  42  66  93 124 157 199 261 325 382
#
# _framework density 20.862441
#
# number of rings (size 3 to 8) (size 9 to 14) (size 15 to 20)
#    0.000    1.857    1.429    2.571    0.000    4.857 
#    0.000    5.714    0.000    3.429    0.000    0.000 
#    0.000    0.000    0.000    0.000    0.000    0.000 
#
# Total GULP energy -312808.589404 kJ/mol
# GULP energy per Si atom -5585.867668 kJ/mol
# Density = 2.081496 g / cm^3
# Si number density = 20.862441 Si / 1000 Ang^3
#
#
#
# Elastic Constant Matrix: (Units=GPa)
#
#
# Indices 1 2 3 4 5 6 
#
# 1 68.1141 29.1386 25.7156 0.0000 0.0000 0.0000
# 2 29.1386 101.1263 23.3931 0.0000 0.0000 0.0000
# 3 25.7156 23.3931 88.7332 0.0000 0.0000 0.0000
# 4 0.0000 0.0000 0.0000 16.5805 0.0000 0.0000
# 5 0.0000 0.0000 0.0000 0.0000 15.7625 0.0000
# 6 0.0000 0.0000 0.0000 0.0000 0.0000 29.8853
#
#
#
# Elastic Compliance Matrix: (Units=1/GPa)
#
#
# Indices 1 2 3 4 5 6 
#
# 1 0.018052 -0.004250 -0.004111 0.000000 0.000000 0.000000
# 2 -0.004250 0.011532 -0.001808 0.000000 0.000000 0.000000
# 3 -0.004111 -0.001808 0.012938 0.000000 0.000000 0.000000
# 4 0.000000 0.000000 0.000000 0.060312 0.000000 0.000000
# 5 0.000000 0.000000 0.000000 0.000000 0.063442 0.000000
# 6 0.000000 0.000000 0.000000 0.000000 0.000000 0.033461
#
#
# Mechanical properties :
#
#
# Convention : Reuss Voigt Hill
#
# Bulk Modulus (GPa) = 45.08220 46.05202 45.56711
# Shear Modulus (GPa) = 21.98101 24.42742 23.20421
#
# Velocity S-wave (km/s) = 3.24947 3.42552 3.33866
# Velocity P-wave (km/s) = 5.97787 6.14554 6.06228
#
# Compressibility (1/GPa) = 0.02218170
#
# Stress axis : x y z
#
# Youngs Moduli (GPa) = 55.39688 86.71786 77.29254
#
# Poissons Ratio (x) = 0.36859 0.31775
# Poissons Ratio (y) = 0.23546 0.13977
# Poissons Ratio (z) = 0.22773 0.15681
#
# Static dielectric constant tensor:
#      x y z
#    x 1.735460 0.000000 0.000000 
#    y 0.000000 1.775070 0.000000 
#    z 0.000000 0.000000 1.756340 
# 
# From -- ./inp_files/36537.got.cif
#   From: 2010.05.17/outbox.cif.g08.bks.cpg/sg74_19_cif.got.tgz:36537.got - 2010.06.03 17:57:02.
