data_PCOD9538860
_publ_section_title
;
Structure prediction by ZEFSAII (Michael W. Deem and Ramdas Pophale) SiO2 
 PCOD9538860
Probable space group: I M M A
;
_chemical_formula_sum "Si O2"
_cell_formula_units_Z 96
_cell_length_a 15.172137
_cell_length_b 14.299232
_cell_length_c 21.356449
_cell_angle_alpha 90.000000
_cell_angle_beta 90.000000
_cell_angle_gamma 90.000000
_cell_volume 4633.279622
_symmetry_space_group_name_H-M "I M M A"
_symmetry_group_IT_number 74
_symmetry_cell_setting 'orthorhombic'
loop_
_space_group_symop_operation_xyz
x,y,z
-x,1/2-y,z
x,-y,-z
-x,1/2+y,-z
-x,-y,-z
x,1/2+y,-z
-x,y,z
x,1/2-y,z
1/2+x,1/2+y,1/2+z
1/2-x,-y,1/2+z
1/2+x,1/2-y,1/2-z
1/2-x,y,1/2-z
1/2-x,1/2-y,1/2-z
1/2+x,y,1/2-z
1/2-x,1/2+y,1/2+z
1/2+x,-y,1/2+z
loop_
_atom_site_type_symbol
_atom_site_label
_atom_site_fract_x
_atom_site_fract_y
_atom_site_fract_z
Si Si1 0.897384 0.546027 0.330658
Si Si2 0.233399 0.447557 0.901303
Si Si3 0.595838 0.858860 0.491784
Si Si4 0.601279 0.860548 0.302181
Si Si5 0.819571 0.854182 0.881064
Si Si6 0.105663 0.855268 0.741272
O O1 0.832180 0.581994 0.384466
O O2 0.887742 0.612506 0.270188
O O3 0.872342 0.442534 0.303286
O O4 0.000000 0.543431 0.348980
O O5 0.178814 0.408684 0.959913
O O6 0.170847 0.415873 0.843774
O O7 0.238819 0.559248 0.901304
O O8 0.500000 0.896663 0.472227
O O9 0.599425 0.750000 0.472552
O O10 0.603255 0.860632 0.566920
O O11 0.500000 0.885659 0.319000
O O12 0.612521 0.750000 0.311357
O O13 0.781819 0.750000 0.887960
O O14 0.851548 0.865687 0.809856
O O15 0.129063 0.750000 0.718559
O O16 0.000000 0.858265 0.749419
#
# Coordination Sequence:
#
# PCOD9538860 Si02
#       6
#    16  16  16  16  16  16
#     4  10  22  38  54  79 114 151 195 239 280 329
#     4  12  22  34  57  83 112 154 190 230 282 338
#     4  10  22  39  59  86 118 150 186 231 285 347
#     4  10  21  36  54  78 110 147 186 230 281 339
#     4  10  21  35  55  85 118 149 184 227 282 345
#     4   9  17  32  55  82 115 152 186 225 276 337
#
# _framework density 20.719664999999999
#
# number of rings (size 3 to 8) (size 9 to 14) (size 15 to 20)
#    0.000    1.833    1.667    2.500    0.000    8.667 
#    0.000    1.667    0.000    2.000    0.000    2.333 
#    0.000    0.000    0.000    0.000    0.000    0.000 
#
# Total GULP energy -267927.623519 kJ/mol
# GULP energy per Si atom -5581.825490 kJ/mol
# Density = 2.067251 g / cm^3
# Si number density = 20.719665 Si / 1000 Ang^3
#
#
#
# Elastic Constant Matrix: (Units=GPa)
#
#
# Indices 1 2 3 4 5 6 
#
# 1 87.3146 20.5580 53.6154 0.0000 0.0000 0.0000
# 2 20.5580 66.3472 9.6870 0.0000 0.0000 0.0000
# 3 53.6154 9.6870 54.4067 0.0000 0.0000 0.0000
# 4 0.0000 0.0000 0.0000 12.6822 0.0000 0.0000
# 5 0.0000 0.0000 0.0000 0.0000 41.2501 0.0000
# 6 0.0000 0.0000 0.0000 0.0000 0.0000 2.1892
#
#
#
# Elastic Compliance Matrix: (Units=1/GPa)
#
#
# Indices 1 2 3 4 5 6 
#
# 1 0.030672 -0.005227 -0.029296 0.000000 0.000000 0.000000
# 2 -0.005227 0.016365 0.002237 0.000000 0.000000 0.000000
# 3 -0.029296 0.002237 0.046851 0.000000 0.000000 0.000000
# 4 0.000000 0.000000 0.000000 0.078851 0.000000 0.000000
# 5 0.000000 0.000000 0.000000 0.000000 0.024242 0.000000
# 6 0.000000 0.000000 0.000000 0.000000 0.000000 0.456782
#
#
# Mechanical properties :
#
#
# Convention : Reuss Voigt Hill
#
# Bulk Modulus (GPa) = 34.10877 41.75437 37.93157
# Shear Modulus (GPa) = 6.86711 19.50484 13.18597
#
# Velocity S-wave (km/s) = 1.82250 3.07150 2.52543
# Velocity P-wave (km/s) = 4.57454 5.72491 5.18175
#
# Compressibility (1/GPa) = 0.02931797
#
# Stress axis : x y z
#
# Youngs Moduli (GPa) = 32.60257 61.10544 21.34408
#
# Poissons Ratio (x) = 0.31938 0.62529
# Poissons Ratio (y) = 0.17040 -0.04774
# Poissons Ratio (z) = 0.95511 -0.13669
#
# Static dielectric constant tensor:
#      x y z
#    x 1.749150 0.000000 0.000000 
#    y 0.000000 1.782450 0.000000 
#    z 0.000000 0.000000 1.757950 
# 
# From -- ./inp_files/51860.got.cif
#   From: 2010.05.17/outbox.cif.g08.bks.cpg/sg74_26_cif.got.tgz:51860.got - 2010.06.03 17:57:02.
