data_PCOD9538095
_publ_section_title
;
Structure prediction by ZEFSAII (Michael W. Deem and Ramdas Pophale) SiO2 
 PCOD9538095
Probable space group: I M M A
;
_chemical_formula_sum "Si O2"
_cell_formula_units_Z 60
_cell_length_a 12.960288
_cell_length_b 14.246504
_cell_length_c 17.589551
_cell_angle_alpha 90.000000
_cell_angle_beta 90.000000
_cell_angle_gamma 90.000000
_cell_volume 3247.713498
_symmetry_space_group_name_H-M "I M M A"
_symmetry_group_IT_number 74
_symmetry_cell_setting 'orthorhombic'
loop_
_space_group_symop_operation_xyz
x,y,z
-x,1/2-y,z
x,-y,-z
-x,1/2+y,-z
-x,-y,-z
x,1/2+y,-z
-x,y,z
x,1/2-y,z
1/2+x,1/2+y,1/2+z
1/2-x,-y,1/2+z
1/2+x,1/2-y,1/2-z
1/2-x,y,1/2-z
1/2-x,1/2-y,1/2-z
1/2+x,y,1/2-z
1/2-x,1/2+y,1/2+z
1/2+x,-y,1/2+z
loop_
_atom_site_type_symbol
_atom_site_label
_atom_site_fract_x
_atom_site_fract_y
_atom_site_fract_z
Si Si1 0.701342 0.451473 0.334244
Si Si2 0.310848 0.250000 0.407116
Si Si3 0.000000 0.250000 0.973671
Si Si4 0.888568 0.452585 0.581813
Si Si5 0.118866 0.250000 0.518004
Si Si6 0.500000 0.958139 0.411798
O O1 0.750000 0.457140 0.250000
O O2 0.681561 0.343632 0.357239
O O3 0.794329 0.495528 0.381504
O O4 0.599277 0.506927 0.363298
O O5 0.400029 0.250000 0.471178
O O6 0.201317 0.250000 0.450759
O O7 0.000000 0.345848 0.924934
O O8 0.897953 0.500000 0.500000
O O9 0.867920 0.343033 0.568066
O O10 0.000000 0.463687 0.621643
O O11 0.000000 0.250000 0.489544
O O12 0.500000 0.000000 0.500000
#
# Coordination Sequence:
#
# PCOD9538095 Si02
#       6
#    16   8   4  16   8   8
#     4  12  26  41  65  98 139 174 212 274 343 396
#     4  12  21  40  65 100 131 166 218 282 323 396
#     4  12  24  42  80 102 124 172 258 280 314 394
#     4  10  20  38  63  90 124 168 213 261 316 392
#     4  10  20  35  63  97 118 157 221 264 311 383
#     4  12  24  48  72  98 133 184 235 276 326 412
#
# _framework density 18.474537000000002
#
# number of rings (size 3 to 8) (size 9 to 14) (size 15 to 20)
#    0.000    0.800    5.333    2.800    1.867    0.000 
#    0.000    2.667    0.000    0.000    0.000    0.000 
#    0.000    0.000    0.000    0.000    0.000    0.000 
#
# Total GULP energy -167317.895562 kJ/mol
# GULP energy per Si atom -5577.263185 kJ/mol
# Density = 1.843249 g / cm^3
# Si number density = 18.474537 Si / 1000 Ang^3
#
#
#
# Elastic Constant Matrix: (Units=GPa)
#
#
# Indices 1 2 3 4 5 6 
#
# 1 129.8192 56.7412 81.2659 0.0000 0.0000 0.0000
# 2 56.7412 170.7285 51.6511 0.0000 0.0000 0.0000
# 3 81.2659 51.6511 97.3668 0.0000 0.0000 0.0000
# 4 0.0000 0.0000 0.0000 26.5676 0.0000 0.0000
# 5 0.0000 0.0000 0.0000 0.0000 29.1845 0.0000
# 6 0.0000 0.0000 0.0000 0.0000 0.0000 34.3497
#
#
#
# Elastic Compliance Matrix: (Units=1/GPa)
#
#
# Indices 1 2 3 4 5 6 
#
# 1 0.016476 -0.001567 -0.012920 0.000000 0.000000 0.000000
# 2 -0.001567 0.007126 -0.002472 0.000000 0.000000 0.000000
# 3 -0.012920 -0.002472 0.022366 0.000000 0.000000 0.000000
# 4 0.000000 0.000000 0.000000 0.037640 0.000000 0.000000
# 5 0.000000 0.000000 0.000000 0.000000 0.034265 0.000000
# 6 0.000000 0.000000 0.000000 0.000000 0.000000 0.029112
#
#
# Mechanical properties :
#
#
# Convention : Reuss Voigt Hill
#
# Bulk Modulus (GPa) = 82.99737 86.35899 84.67818
# Shear Modulus (GPa) = 27.03886 31.90412 29.47149
#
# Velocity S-wave (km/s) = 3.82982 4.16014 3.99839
# Velocity P-wave (km/s) = 8.03614 8.36194 8.20066
#
# Compressibility (1/GPa) = 0.01204857
#
# Stress axis : x y z
#
# Youngs Moduli (GPa) = 60.69534 140.33130 44.71169
#
# Poissons Ratio (x) = 0.21989 0.57768
# Poissons Ratio (y) = 0.09510 0.11054
# Poissons Ratio (z) = 0.78419 0.34695
#
# Static dielectric constant tensor:
#      x y z
#    x 1.690220 0.000000 0.000000 
#    y 0.000000 1.629430 0.000000 
#    z 0.000000 0.000000 1.766010 
# 
# From -- ./inp_files/40654.got.cif
#   From: 2010.05.17/outbox.cif.g08.bks.cpg/sg74_21_cif.got.tgz:40654.got - 2010.06.03 17:57:02.
