data_PCOD9538584
_publ_section_title
;
Structure prediction by ZEFSAII (Michael W. Deem and Ramdas Pophale) SiO2 
 PCOD9538584
Probable space group: I M M A
;
_chemical_formula_sum "Si O2"
_cell_formula_units_Z 112
_cell_length_a 28.628246
_cell_length_b 14.323467
_cell_length_c 14.178974
_cell_angle_alpha 90.000000
_cell_angle_beta 90.000000
_cell_angle_gamma 90.000000
_cell_volume 5814.169631
_symmetry_space_group_name_H-M "I M M A"
_symmetry_group_IT_number 74
_symmetry_cell_setting 'orthorhombic'
loop_
_space_group_symop_operation_xyz
x,y,z
-x,1/2-y,z
x,-y,-z
-x,1/2+y,-z
-x,-y,-z
x,1/2+y,-z
-x,y,z
x,1/2-y,z
1/2+x,1/2+y,1/2+z
1/2-x,-y,1/2+z
1/2+x,1/2-y,1/2-z
1/2-x,y,1/2-z
1/2-x,1/2-y,1/2-z
1/2+x,y,1/2-z
1/2-x,1/2+y,1/2+z
1/2+x,-y,1/2+z
loop_
_atom_site_type_symbol
_atom_site_label
_atom_site_fract_x
_atom_site_fract_y
_atom_site_fract_z
Si Si1 0.446134 0.358281 0.797919
Si Si2 0.638676 0.474260 0.860252
Si Si3 0.447922 0.360705 0.380635
Si Si4 0.856212 0.520376 0.850739
Si Si5 0.088747 0.143649 0.914694
Si Si6 0.732168 0.640944 0.643777
Si Si7 0.673615 0.859528 0.973084
O O1 0.500000 0.375073 0.818457
O O2 0.434773 0.250000 0.820526
O O3 0.412012 0.427359 0.852298
O O4 0.437456 0.368154 0.685102
O O5 0.655714 0.483363 0.753579
O O6 0.640147 0.575628 0.908821
O O7 0.669887 0.405812 0.924231
O O8 0.500000 0.392109 0.350962
O O9 0.443681 0.250000 0.359636
O O10 0.403537 0.417207 0.342070
O O11 0.443336 0.370874 0.494211
O O12 0.870449 0.432171 0.913708
O O13 0.812504 0.580456 0.882878
O O14 0.106216 0.250000 0.919113
O O15 0.718588 0.750000 0.644926
O O16 0.750000 0.618761 0.750000
O O17 0.775350 0.629182 0.572935
O O18 0.661902 0.750000 0.973025
#
# Coordination Sequence:
#
# PCOD9538584 Si02
#       7
#    16  16  16  16  16  16  16
#     4   9  17  32  58  87 119 161 205 246 289 346
#     4  10  21  36  58  89 116 151 193 244 293 356
#     4  10  21  37  57  86 124 160 198 245 300 358
#     4  11  21  35  59  89 121 155 197 248 293 354
#     4   9  19  35  54  82 122 166 203 238 288 351
#     4  10  20  38  64  89 113 148 196 246 300 359
#     4  10  21  40  63  85 113 153 196 241 295 354
#
# _framework density 19.263283999999999
#
# number of rings (size 3 to 8) (size 9 to 14) (size 15 to 20)
#    0.000    2.143    1.429    1.714    0.000    6.286 
#    5.143    1.429    0.000    2.571    0.000    2.000 
#    0.000    0.000    0.000    0.000    0.000    0.000 
#
# Total GULP energy -312564.503099 kJ/mol
# GULP energy per Si atom -5581.508984 kJ/mol
# Density = 1.921944 g / cm^3
# Si number density = 19.263284 Si / 1000 Ang^3
#
#
#
# Elastic Constant Matrix: (Units=GPa)
#
#
# Indices 1 2 3 4 5 6 
#
# 1 98.3260 69.9670 25.9684 0.0000 0.0000 0.0000
# 2 69.9670 115.3962 24.2411 0.0000 0.0000 0.0000
# 3 25.9684 24.2411 56.4622 0.0000 0.0000 0.0000
# 4 0.0000 0.0000 0.0000 22.4385 0.0000 0.0000
# 5 0.0000 0.0000 0.0000 0.0000 19.2685 0.0000
# 6 0.0000 0.0000 0.0000 0.0000 0.0000 33.8713
#
#
#
# Elastic Compliance Matrix: (Units=1/GPa)
#
#
# Indices 1 2 3 4 5 6 
#
# 1 0.018716 -0.010485 -0.004106 0.000000 0.000000 0.000000
# 2 -0.010485 0.015399 -0.001789 0.000000 0.000000 0.000000
# 3 -0.004106 -0.001789 0.020368 0.000000 0.000000 0.000000
# 4 0.000000 0.000000 0.000000 0.044566 0.000000 0.000000
# 5 0.000000 0.000000 0.000000 0.000000 0.051898 0.000000
# 6 0.000000 0.000000 0.000000 0.000000 0.000000 0.029524
#
#
# Mechanical properties :
#
#
# Convention : Reuss Voigt Hill
#
# Bulk Modulus (GPa) = 46.03689 56.72637 51.38163
# Shear Modulus (GPa) = 22.67870 25.11620 23.89745
#
# Velocity S-wave (km/s) = 3.43491 3.61479 3.52599
# Velocity P-wave (km/s) = 6.29937 6.85085 6.58089
#
# Compressibility (1/GPa) = 0.02172171
#
# Stress axis : x y z
#
# Youngs Moduli (GPa) = 53.43089 64.93952 49.09775
#
# Poissons Ratio (x) = 0.68090 0.20161
# Poissons Ratio (y) = 0.56023 0.08783
# Poissons Ratio (z) = 0.21940 0.11617
#
# Static dielectric constant tensor:
#      x y z
#    x 1.652460 0.000000 0.000000 
#    y 0.000000 1.694050 0.000000 
#    z 0.000000 0.000000 1.689470 
# 
# From -- ./inp_files/36514.got.cif
#   From: 2010.05.17/outbox.cif.g08.bks.cpg/sg74_19_cif.got.tgz:36514.got - 2010.06.03 17:57:02.
