data_PCOD9538548
_publ_section_title
;
Structure prediction by ZEFSAII (Michael W. Deem and Ramdas Pophale) SiO2 
 PCOD9538548
Probable space group: I M M A
;
_chemical_formula_sum "Si O2"
_cell_formula_units_Z 96
_cell_length_a 20.964323
_cell_length_b 16.291070
_cell_length_c 15.251257
_cell_angle_alpha 90.000000
_cell_angle_beta 90.000000
_cell_angle_gamma 90.000000
_cell_volume 5208.780921
_symmetry_space_group_name_H-M "I M M A"
_symmetry_group_IT_number 74
_symmetry_cell_setting 'orthorhombic'
loop_
_space_group_symop_operation_xyz
x,y,z
-x,1/2-y,z
x,-y,-z
-x,1/2+y,-z
-x,-y,-z
x,1/2+y,-z
-x,y,z
x,1/2-y,z
1/2+x,1/2+y,1/2+z
1/2-x,-y,1/2+z
1/2+x,1/2-y,1/2-z
1/2-x,y,1/2-z
1/2-x,1/2-y,1/2-z
1/2+x,y,1/2-z
1/2-x,1/2+y,1/2+z
1/2+x,-y,1/2+z
loop_
_atom_site_type_symbol
_atom_site_label
_atom_site_fract_x
_atom_site_fract_y
_atom_site_fract_z
Si Si1 0.069516 0.845566 0.781681
Si Si2 0.428682 0.250000 0.590920
Si Si3 0.691401 0.094386 0.179876
Si Si4 0.799645 0.092373 0.669556
Si Si5 0.170311 0.750000 0.249849
Si Si6 0.738240 0.346868 0.488961
Si Si7 0.401820 0.591650 0.529946
O O1 0.073336 0.750000 0.806596
O O2 0.129114 0.865893 0.721452
O O3 0.074394 0.894977 0.871858
O O4 0.000000 0.860324 0.740482
O O5 0.500000 0.250000 0.631926
O O6 0.369252 0.250000 0.659388
O O7 0.424044 0.332816 0.531926
O O8 0.750000 0.099889 0.250000
O O9 0.713837 0.137196 0.090797
O O10 0.675446 0.999368 0.159413
O O11 0.750000 0.084445 0.750000
O O12 0.845746 0.165973 0.699645
O O13 0.765601 0.122161 0.581189
O O14 0.250000 0.750000 0.250000
O O15 0.723578 0.250000 0.493902
O O16 0.674614 0.397673 0.468695
O O17 0.418695 0.500000 0.500000
#
# Coordination Sequence:
#
# PCOD9538548 Si02
#       7
#    16   8  16  16   8  16  16
#     4  11  24  43  61  85 128 171 207 257 317 375
#     4  12  26  42  62  94 132 169 211 262 318 389
#     4  11  23  38  61  95 123 157 213 261 303 369
#     4  10  21  37  59  91 124 158 202 257 316 371
#     4  10  20  38  62  81 117 163 208 253 310 363
#     4  12  22  38  66  95 128 164 205 264 322 368
#     4  12  24  39  62  92 130 172 212 252 315 388
#
# _framework density 18.430416000000001
#
# number of rings (size 3 to 8) (size 9 to 14) (size 15 to 20)
#    0.000    0.833    4.167    4.500    4.667    2.000 
#    0.000    0.000    0.000    3.000    0.000    0.000 
#    0.000    0.000    0.000    0.000    0.000    0.000 
#
# Total GULP energy -267987.790422 kJ/mol
# GULP energy per Si atom -5583.078967 kJ/mol
# Density = 1.838847 g / cm^3
# Si number density = 18.430416 Si / 1000 Ang^3
#
#
#
# Elastic Constant Matrix: (Units=GPa)
#
#
# Indices 1 2 3 4 5 6 
#
# 1 103.1882 28.5746 49.9983 0.0000 0.0000 0.0000
# 2 28.5746 115.4667 24.0919 0.0000 0.0000 0.0000
# 3 49.9983 24.0919 99.1369 0.0000 0.0000 0.0000
# 4 0.0000 0.0000 0.0000 30.9652 0.0000 0.0000
# 5 0.0000 0.0000 0.0000 0.0000 -4.1652 0.0000
# 6 0.0000 0.0000 0.0000 0.0000 0.0000 8.5850
#
#
#
# Elastic Compliance Matrix: (Units=1/GPa)
#
#
# Indices 1 2 3 4 5 6 
#
# 1 0.013243 -0.001984 -0.006197 0.000000 0.000000 0.000000
# 2 -0.001984 0.009420 -0.001289 0.000000 0.000000 0.000000
# 3 -0.006197 -0.001289 0.013525 0.000000 0.000000 0.000000
# 4 0.000000 0.000000 0.000000 0.032294 0.000000 0.000000
# 5 0.000000 0.000000 0.000000 0.000000 -0.240085 0.000000
# 6 0.000000 0.000000 0.000000 0.000000 0.000000 0.116483
#
#
# Mechanical properties :
#
#
# Convention : Reuss Voigt Hill
#
# Bulk Modulus (GPa) = 57.97200 58.12458 58.04829
# Shear Modulus (GPa) = -164.31168 21.41881 -71.44644
#
# Velocity S-wave (km/s) = -9.45230 3.41272 -6.23295
# Velocity P-wave (km/s) = 9.35976 6.86547 4.49836
#
# Compressibility (1/GPa) = 0.01724971
#
# Stress axis : x y z
#
# Youngs Moduli (GPa) = 75.51132 106.15242 73.93480
#
# Poissons Ratio (x) = 0.21064 0.45815
# Poissons Ratio (y) = 0.14984 0.09527
# Poissons Ratio (z) = 0.46792 0.13678
#
# Static dielectric constant tensor:
#      x y z
#    x 1.653030 0.000000 0.000000 
#    y 0.000000 1.679120 0.000000 
#    z 0.000000 0.000000 1.635940 
# 
# From -- ./inp_files/35336.got.cif
#   From: 2010.05.17/outbox.cif.g08.bks.cpg/sg74_18_cif.got.tgz:35336.got - 2010.06.03 17:57:02.
