data_PCOD9538117
_publ_section_title
;
Structure prediction by ZEFSAII (Michael W. Deem and Ramdas Pophale) SiO2 
 PCOD9538117
Probable space group: I M M A
;
_chemical_formula_sum "Si O2"
_cell_formula_units_Z 72
_cell_length_a 30.724692
_cell_length_b 7.356943
_cell_length_c 14.138207
_cell_angle_alpha 90.000000
_cell_angle_beta 90.000000
_cell_angle_gamma 90.000000
_cell_volume 3195.797592
_symmetry_space_group_name_H-M "I M M A"
_symmetry_group_IT_number 74
_symmetry_cell_setting 'orthorhombic'
loop_
_space_group_symop_operation_xyz
x,y,z
-x,1/2-y,z
x,-y,-z
-x,1/2+y,-z
-x,-y,-z
x,1/2+y,-z
-x,y,z
x,1/2-y,z
1/2+x,1/2+y,1/2+z
1/2-x,-y,1/2+z
1/2+x,1/2-y,1/2-z
1/2-x,y,1/2-z
1/2-x,1/2-y,1/2-z
1/2+x,y,1/2-z
1/2-x,1/2+y,1/2+z
1/2+x,-y,1/2+z
loop_
_atom_site_type_symbol
_atom_site_label
_atom_site_fract_x
_atom_site_fract_y
_atom_site_fract_z
Si Si1 0.177111 0.533106 0.112303
Si Si2 0.728776 0.032969 0.886503
Si Si3 0.088198 0.972172 0.209204
Si Si4 0.500000 0.467157 0.611770
Si Si5 0.633118 0.533241 0.110553
O O1 0.177870 0.750000 0.128403
O O2 0.224260 0.463956 0.148532
O O3 0.132243 0.466553 0.156566
O O4 0.175527 0.500000 0.000000
O O5 0.728681 0.250000 0.869246
O O6 0.681069 0.962678 0.858711
O O7 0.729591 0.000000 0.000000
O O8 0.087259 0.750000 0.204480
O O9 0.044178 0.036741 0.160197
O O10 0.095837 0.027810 0.317878
O O11 0.500000 0.250000 0.625034
O O12 0.500000 0.500000 0.500000
O O13 0.635833 0.750000 0.120850
O O14 0.625867 0.500000 0.000000
#
# Coordination Sequence:
#
# PCOD9538117 Si02
#       5
#    16  16  16   8  16
#     4   9  16  27  43  66  93 121 152 188 227 271
#     4   8  14  24  41  63  89 119 151 185 223 264
#     4   9  18  31  49  70  92 120 155 189 228 274
#     4  10  20  36  55  74  96 122 149 184 229 276
#     4   9  17  31  48  67  92 123 155 189 226 267
#
# _framework density 22.529586999999999
#
# number of rings (size 3 to 8) (size 9 to 14) (size 15 to 20)
#    0.000    3.111    0.000    0.667    0.000    0.889 
#    0.000    7.222    0.000    0.000    0.000   15.556 
#    0.000    0.000    0.000    0.000    0.000    0.000 
#
# Total GULP energy -200867.380285 kJ/mol
# GULP energy per Si atom -5579.649452 kJ/mol
# Density = 2.247831 g / cm^3
# Si number density = 22.529587 Si / 1000 Ang^3
#
#
#
# Elastic Constant Matrix: (Units=GPa)
#
#
# Indices 1 2 3 4 5 6 
#
# 1 220.2722 11.0055 117.9889 0.0000 0.0000 0.0000
# 2 11.0055 87.1632 -5.1311 0.0000 0.0000 0.0000
# 3 117.9889 -5.1311 136.6241 0.0000 0.0000 0.0000
# 4 0.0000 0.0000 0.0000 9.3703 0.0000 0.0000
# 5 0.0000 0.0000 0.0000 0.0000 42.0421 0.0000
# 6 0.0000 0.0000 0.0000 0.0000 0.0000 -2.9147
#
#
#
# Elastic Compliance Matrix: (Units=1/GPa)
#
#
# Indices 1 2 3 4 5 6 
#
# 1 0.008648 -0.001535 -0.007526 0.000000 0.000000 0.000000
# 2 -0.001535 0.011771 0.001768 0.000000 0.000000 0.000000
# 3 -0.007526 0.001768 0.013885 0.000000 0.000000 0.000000
# 4 0.000000 0.000000 0.000000 0.106720 0.000000 0.000000
# 5 0.000000 0.000000 0.000000 0.000000 0.023786 0.000000
# 6 0.000000 0.000000 0.000000 0.000000 0.000000 -0.343088
#
#
# Mechanical properties :
#
#
# Convention : Reuss Voigt Hill
#
# Bulk Modulus (GPa) = 50.71737 76.86513 63.79125
# Shear Modulus (GPa) = -31.82285 31.04595 -0.38845
#
# Velocity S-wave (km/s) = -3.76239 3.71618 -0.41568
# Velocity P-wave (km/s) = 1.91995 7.25292 5.30523
#
# Compressibility (1/GPa) = 0.01971711
#
# Stress axis : x y z
#
# Youngs Moduli (GPa) = 115.63679 84.95748 72.01964
#
# Poissons Ratio (x) = 0.13040 0.54201
# Poissons Ratio (y) = 0.17749 -0.12730
# Poissons Ratio (z) = 0.87027 -0.15017
#
# Static dielectric constant tensor:
#      x y z
#    x 1.832910 0.000000 0.000000 
#    y 0.000000 2.008120 0.000000 
#    z 0.000000 0.000000 1.839980 
# 
# From -- ./inp_files/18794.got.cif
#   From: 2010.05.17/outbox.cif.g08.bks.cpg/sg74_10_cif.got.tgz:18794.got - 2010.06.03 17:57:02.
