data_PCOD9538877
_publ_section_title
;
Structure prediction by ZEFSAII (Michael W. Deem and Ramdas Pophale) SiO2 
 PCOD9538877
Probable space group: I M M A
;
_chemical_formula_sum "Si O2"
_cell_formula_units_Z 112
_cell_length_a 28.839365
_cell_length_b 14.227122
_cell_length_c 14.075841
_cell_angle_alpha 90.000000
_cell_angle_beta 90.000000
_cell_angle_gamma 90.000000
_cell_volume 5775.333950
_symmetry_space_group_name_H-M "I M M A"
_symmetry_group_IT_number 74
_symmetry_cell_setting 'orthorhombic'
loop_
_space_group_symop_operation_xyz
x,y,z
-x,1/2-y,z
x,-y,-z
-x,1/2+y,-z
-x,-y,-z
x,1/2+y,-z
-x,y,z
x,1/2-y,z
1/2+x,1/2+y,1/2+z
1/2-x,-y,1/2+z
1/2+x,1/2-y,1/2-z
1/2-x,y,1/2-z
1/2-x,1/2-y,1/2-z
1/2+x,y,1/2-z
1/2-x,1/2+y,1/2+z
1/2+x,-y,1/2+z
loop_
_atom_site_type_symbol
_atom_site_label
_atom_site_fract_x
_atom_site_fract_y
_atom_site_fract_z
Si Si1 0.052796 0.951978 0.398974
Si Si2 0.733132 0.137041 0.465734
Si Si3 0.769836 0.471486 0.643924
Si Si4 0.140455 0.644288 0.322608
Si Si5 0.372362 0.361378 0.422699
Si Si6 0.087938 0.857328 0.131261
Si Si7 0.050548 0.458009 0.201948
O O1 0.092059 0.876443 0.375227
O O2 0.000000 0.914562 0.395597
O O3 0.060301 0.000000 0.500000
O O4 0.056156 0.029134 0.314648
O O5 0.738776 0.250000 0.464271
O O6 0.741035 0.095169 0.571182
O O7 0.681636 0.112217 0.427360
O O8 0.767225 0.076352 0.399151
O O9 0.750000 0.468602 0.750000
O O10 0.821513 0.430553 0.647115
O O11 0.156965 0.750000 0.342080
O O12 0.128404 0.636746 0.210629
O O13 0.373994 0.250000 0.406637
O O14 0.392904 0.379400 0.527384
O O15 0.405547 0.409486 0.346330
O O16 0.070627 0.750000 0.132939
O O17 0.051713 0.935756 0.161646
O O18 0.000000 0.414901 0.180537
#
# Coordination Sequence:
#
# PCOD9538877 Si02
#       7
#    16  16  16  16  16  16  16
#     4   9  20  39  63  86 116 159 202 248 305 365
#     4  10  24  42  60  89 123 163 211 256 308 371
#     4  11  24  38  65  92 123 170 207 262 307 367
#     4  10  21  37  60  92 121 152 204 258 308 362
#     4  10  21  37  58  82 117 162 200 238 293 362
#     4   9  19  34  57  85 118 153 191 241 296 357
#     4  10  21  35  58  88 118 153 196 243 295 360
#
# _framework density 19.392817999999998
#
# number of rings (size 3 to 8) (size 9 to 14) (size 15 to 20)
#    0.000    2.143    0.000    1.714   10.000    4.571 
#    0.000    5.000    0.000    2.571    0.000    0.000 
#    0.000    0.000    0.000    0.000    0.000    0.000 
#
# Total GULP energy -312487.983155 kJ/mol
# GULP energy per Si atom -5580.142556 kJ/mol
# Density = 1.934868 g / cm^3
# Si number density = 19.392818 Si / 1000 Ang^3
#
#
#
# Elastic Constant Matrix: (Units=GPa)
#
#
# Indices 1 2 3 4 5 6 
#
# 1 62.3487 35.5511 39.7643 0.0000 0.0000 0.0000
# 2 35.5511 77.2688 44.2654 0.0000 0.0000 0.0000
# 3 39.7643 44.2654 95.4427 0.0000 0.0000 0.0000
# 4 0.0000 0.0000 0.0000 20.4934 0.0000 0.0000
# 5 0.0000 0.0000 0.0000 0.0000 10.2505 0.0000
# 6 0.0000 0.0000 0.0000 0.0000 0.0000 13.7917
#
#
#
# Elastic Compliance Matrix: (Units=1/GPa)
#
#
# Indices 1 2 3 4 5 6 
#
# 1 0.024617 -0.007423 -0.006813 0.000000 0.000000 0.000000
# 2 -0.007423 0.019863 -0.006120 0.000000 0.000000 0.000000
# 3 -0.006813 -0.006120 0.016154 0.000000 0.000000 0.000000
# 4 0.000000 0.000000 0.000000 0.048796 0.000000 0.000000
# 5 0.000000 0.000000 0.000000 0.000000 0.097556 0.000000
# 6 0.000000 0.000000 0.000000 0.000000 0.000000 0.072507
#
#
# Mechanical properties :
#
#
# Convention : Reuss Voigt Hill
#
# Bulk Modulus (GPa) = 50.19524 52.69130 51.44327
# Shear Modulus (GPa) = 15.29770 16.60574 15.95172
#
# Velocity S-wave (km/s) = 2.81166 2.92941 2.87114
# Velocity P-wave (km/s) = 6.03989 6.21863 6.12991
#
# Compressibility (1/GPa) = 0.01992221
#
# Stress axis : x y z
#
# Youngs Moduli (GPa) = 40.62281 50.34529 61.90265
#
# Poissons Ratio (x) = 0.37370 0.42177
# Poissons Ratio (y) = 0.30154 0.37882
# Poissons Ratio (z) = 0.27678 0.30809
#
# Static dielectric constant tensor:
#      x y z
#    x 1.691290 0.000000 0.000000 
#    y 0.000000 1.677960 0.000000 
#    z 0.000000 0.000000 1.682240 
# 
# From -- ./inp_files/36484.got.cif
#   From: 2010.05.17/outbox.cif.g08.bks.cpg/sg74_19_cif.got.tgz:36484.got - 2010.06.03 17:57:02.
