data_PCOD9538357
_publ_section_title
;
Structure prediction by ZEFSAII (Michael W. Deem and Ramdas Pophale) SiO2 
 PCOD9538357
Probable space group: I M M A
;
_chemical_formula_sum "Si O2"
_cell_formula_units_Z 88
_cell_length_a 15.287370
_cell_length_b 11.859208
_cell_length_c 25.517745
_cell_angle_alpha 90.000000
_cell_angle_beta 90.000000
_cell_angle_gamma 90.000000
_cell_volume 4626.267665
_symmetry_space_group_name_H-M "I M M A"
_symmetry_group_IT_number 74
_symmetry_cell_setting 'orthorhombic'
loop_
_space_group_symop_operation_xyz
x,y,z
-x,1/2-y,z
x,-y,-z
-x,1/2+y,-z
-x,-y,-z
x,1/2+y,-z
-x,y,z
x,1/2-y,z
1/2+x,1/2+y,1/2+z
1/2-x,-y,1/2+z
1/2+x,1/2-y,1/2-z
1/2-x,y,1/2-z
1/2-x,1/2-y,1/2-z
1/2+x,y,1/2-z
1/2-x,1/2+y,1/2+z
1/2+x,-y,1/2+z
loop_
_atom_site_type_symbol
_atom_site_label
_atom_site_fract_x
_atom_site_fract_y
_atom_site_fract_z
Si Si1 0.823440 0.384646 0.895640
Si Si2 0.500000 0.383855 0.243725
Si Si3 0.155585 0.469269 0.776647
Si Si4 0.594899 0.750000 0.111899
Si Si5 0.846305 0.750000 0.276261
Si Si6 0.146247 0.978183 0.438519
Si Si7 0.000000 0.384521 0.378895
Si Si8 0.000000 0.113463 0.962780
O O1 0.804127 0.250000 0.899695
O O2 0.832529 0.424442 0.835567
O O3 0.746329 0.460859 0.920275
O O4 0.913626 0.398403 0.927091
O O5 0.500000 0.250000 0.245081
O O6 0.413072 0.430847 0.271360
O O7 0.500000 0.418750 0.182272
O O8 0.250000 0.495506 0.750000
O O9 0.113879 0.365269 0.744181
O O10 0.500000 0.750000 0.137580
O O11 0.657789 0.750000 0.161744
O O12 0.604914 0.641513 0.076505
O O13 0.750000 0.750000 0.250000
O O14 0.141830 0.000000 0.500000
O O15 0.086921 0.067142 0.406995
O O16 0.000000 0.250000 0.382116
O O17 0.000000 0.250000 0.981892
O O18 0.000000 0.000000 0.000000
#
# Coordination Sequence:
#
# PCOD9538357 Si02
#       8
#    16   8  16   8   8  16   8   8
#     4  11  22  42  66 100 130 162 211 277 342 401
#     4  11  25  43  61  88 129 180 217 250 303 392
#     4  11  22  38  66  97 134 160 204 262 334 388
#     4  12  24  38  62  95 133 172 217 266 330 384
#     4  10  20  36  62  98 130 157 197 267 339 388
#     4  12  25  40  65  91 129 172 218 269 321 380
#     4  11  25  43  63  91 134 175 223 258 307 381
#     4  10  23  44  68  93 130 173 223 284 342 396
#
# _framework density 19.021813000000002
#
# number of rings (size 3 to 8) (size 9 to 14) (size 15 to 20)
#    0.000    0.909    2.727    5.727    2.545    0.364 
#    0.000    3.636    0.000    0.000    0.000    0.000 
#    0.000    0.000    0.000    0.000    0.000    0.000 
#
# Total GULP energy -245577.593494 kJ/mol
# GULP energy per Si atom -5581.308943 kJ/mol
# Density = 1.897852 g / cm^3
# Si number density = 19.021813 Si / 1000 Ang^3
#
#
#
# Elastic Constant Matrix: (Units=GPa)
#
#
# Indices 1 2 3 4 5 6 
#
# 1 131.8170 38.6694 33.9899 0.0000 0.0000 0.0000
# 2 38.6694 95.8743 49.0103 0.0000 0.0000 0.0000
# 3 33.9899 49.0103 120.9610 0.0000 0.0000 0.0000
# 4 0.0000 0.0000 0.0000 58.1457 0.0000 0.0000
# 5 0.0000 0.0000 0.0000 0.0000 7.7370 0.0000
# 6 0.0000 0.0000 0.0000 0.0000 0.0000 17.8790
#
#
#
# Elastic Compliance Matrix: (Units=1/GPa)
#
#
# Indices 1 2 3 4 5 6 
#
# 1 0.008763 -0.002870 -0.001300 0.000000 0.000000 0.000000
# 2 -0.002870 0.014095 -0.004904 0.000000 0.000000 0.000000
# 3 -0.001300 -0.004904 0.010619 0.000000 0.000000 0.000000
# 4 0.000000 0.000000 0.000000 0.017198 0.000000 0.000000
# 5 0.000000 0.000000 0.000000 0.000000 0.129249 0.000000
# 6 0.000000 0.000000 0.000000 0.000000 0.000000 0.055931
#
#
# Mechanical properties :
#
#
# Convention : Reuss Voigt Hill
#
# Bulk Modulus (GPa) = 65.23385 65.77682 65.50534
# Shear Modulus (GPa) = 19.29649 31.88455 25.59052
#
# Velocity S-wave (km/s) = 3.18848 4.09860 3.67185
# Velocity P-wave (km/s) = 6.92271 7.55333 7.24488
#
# Compressibility (1/GPa) = 0.01532947
#
# Stress axis : x y z
#
# Youngs Moduli (GPa) = 114.11127 70.94665 94.16685
#
# Poissons Ratio (x) = 0.20363 0.12237
# Poissons Ratio (y) = 0.32753 0.46184
# Poissons Ratio (z) = 0.14829 0.34795
#
# Static dielectric constant tensor:
#      x y z
#    x 1.702690 0.000000 0.000000 
#    y 0.000000 1.676120 0.000000 
#    z 0.000000 0.000000 1.636300 
# 
# From -- ./inp_files/59869.got.cif
#   From: 2010.05.17/outbox.cif.g08.bks.cpg/sg74_30_cif.got.tgz:59869.got - 2010.06.03 17:57:02.
