data_PCOD9538837
_publ_section_title
;
Structure prediction by ZEFSAII (Michael W. Deem and Ramdas Pophale) SiO2 
 PCOD9538837
Probable space group: I M M A
;
_chemical_formula_sum "Si O2"
_cell_formula_units_Z 96
_cell_length_a 23.738769
_cell_length_b 8.702989
_cell_length_c 22.853081
_cell_angle_alpha 90.000000
_cell_angle_beta 90.000000
_cell_angle_gamma 90.000000
_cell_volume 4721.406438
_symmetry_space_group_name_H-M "I M M A"
_symmetry_group_IT_number 74
_symmetry_cell_setting 'orthorhombic'
loop_
_space_group_symop_operation_xyz
x,y,z
-x,1/2-y,z
x,-y,-z
-x,1/2+y,-z
-x,-y,-z
x,1/2+y,-z
-x,y,z
x,1/2-y,z
1/2+x,1/2+y,1/2+z
1/2-x,-y,1/2+z
1/2+x,1/2-y,1/2-z
1/2-x,y,1/2-z
1/2-x,1/2-y,1/2-z
1/2+x,y,1/2-z
1/2-x,1/2+y,1/2+z
1/2+x,-y,1/2+z
loop_
_atom_site_type_symbol
_atom_site_label
_atom_site_fract_x
_atom_site_fract_y
_atom_site_fract_z
Si Si1 0.261020 0.064904 0.439706
Si Si2 0.000000 0.074772 0.906256
Si Si3 0.500000 0.573760 0.263676
Si Si4 0.381876 0.065709 0.264485
Si Si5 0.164041 0.063890 0.354020
Si Si6 0.935118 0.434375 0.565357
Si Si7 0.881690 0.564493 0.899029
O O1 0.261200 0.250000 0.441712
O O2 0.221207 0.016693 0.386398
O O3 0.325428 0.012547 0.431653
O O4 0.237469 0.000000 0.500000
O O5 0.000000 0.071530 0.834885
O O6 0.000000 0.250000 0.926160
O O7 0.058808 0.995812 0.922856
O O8 0.500000 0.750000 0.244022
O O9 0.556348 0.488715 0.245009
O O10 0.380418 0.250000 0.266912
O O11 0.339785 0.014339 0.213640
O O12 0.373996 0.012626 0.331187
O O13 0.161650 0.250000 0.355233
O O14 0.110919 0.001501 0.390443
O O15 0.925562 0.500000 0.500000
O O16 0.930379 0.250000 0.563842
O O17 0.000000 0.473523 0.581885
O O18 0.883913 0.750000 0.899652
#
# Coordination Sequence:
#
# PCOD9538837 Si02
#       7
#    16   8   8  16  16  16  16
#     4  10  22  39  58  80 106 141 183 227 273 324
#     4   9  17  31  54  84 113 140 171 212 263 318
#     4   9  17  29  47  74 111 146 177 214 259 314
#     4   9  18  32  52  79 109 144 180 219 266 321
#     4  10  21  35  53  79 109 142 181 224 271 321
#     4  10  21  36  53  74 102 140 186 233 278 318
#     4   9  18  35  58  82 111 144 179 218 266 323
#
# _framework density 20.332923999999998
#
# number of rings (size 3 to 8) (size 9 to 14) (size 15 to 20)
#    0.000    2.500    0.000    1.500    1.167    7.000 
#    0.000    3.750    0.000    0.000    0.000    7.000 
#    0.000    0.000    0.000    0.000    0.000    0.000 
#
# Total GULP energy -267890.170466 kJ/mol
# GULP energy per Si atom -5581.045218 kJ/mol
# Density = 2.028665 g / cm^3
# Si number density = 20.332924 Si / 1000 Ang^3
#
#
#
# Elastic Constant Matrix: (Units=GPa)
#
#
# Indices 1 2 3 4 5 6 
#
# 1 79.8113 10.7889 23.7173 0.0000 0.0000 0.0000
# 2 10.7889 4.7887 6.5879 0.0000 0.0000 0.0000
# 3 23.7173 6.5879 60.2581 0.0000 0.0000 0.0000
# 4 0.0000 0.0000 0.0000 16.5927 0.0000 0.0000
# 5 0.0000 0.0000 0.0000 0.0000 37.9943 0.0000
# 6 0.0000 0.0000 0.0000 0.0000 0.0000 14.6301
#
#
#
# Elastic Compliance Matrix: (Units=1/GPa)
#
#
# Indices 1 2 3 4 5 6 
#
# 1 0.018530 -0.037329 -0.003212 0.000000 0.000000 0.000000
# 2 -0.037329 0.320992 -0.020401 0.000000 0.000000 0.000000
# 3 -0.003212 -0.020401 0.020090 0.000000 0.000000 0.000000
# 4 0.000000 0.000000 0.000000 0.060268 0.000000 0.000000
# 5 0.000000 0.000000 0.000000 0.000000 0.026320 0.000000
# 6 0.000000 0.000000 0.000000 0.000000 0.000000 0.068352
#
#
# Mechanical properties :
#
#
# Convention : Reuss Voigt Hill
#
# Bulk Modulus (GPa) = 4.20650 25.22736 14.71693
# Shear Modulus (GPa) = 6.98637 20.76101 13.87369
#
# Velocity S-wave (km/s) = 1.85565 3.19886 2.61497
# Velocity P-wave (km/s) = 2.58158 5.10663 4.04612
#
# Compressibility (1/GPa) = 0.23772758
#
# Stress axis : x y z
#
# Youngs Moduli (GPa) = 53.96566 3.11534 49.77589
#
# Poissons Ratio (x) = 0.11629 0.15990
# Poissons Ratio (y) = 2.01449 1.01548
# Poissons Ratio (z) = 0.17335 0.06356
#
# Static dielectric constant tensor:
#      x y z
#    x 1.690110 0.000000 0.000000 
#    y 0.000000 1.690320 0.000000 
#    z 0.000000 0.000000 1.742880 
# 
# From -- ./inp_files/61938.got.cif
#   From: 2010.05.17/outbox.cif.g08.bks.cpg/sg74_31_cif.got.tgz:61938.got - 2010.06.03 17:57:02.
