data_PCOD9538194
_publ_section_title
;
Structure prediction by ZEFSAII (Michael W. Deem and Ramdas Pophale) SiO2 
 PCOD9538194
Probable space group: I M M A
;
_chemical_formula_sum "Si O2"
_cell_formula_units_Z 120
_cell_length_a 17.928590
_cell_length_b 30.010995
_cell_length_c 12.133305
_cell_angle_alpha 90.000000
_cell_angle_beta 90.000000
_cell_angle_gamma 90.000000
_cell_volume 6528.383297
_symmetry_space_group_name_H-M "I M M A"
_symmetry_group_IT_number 74
_symmetry_cell_setting 'orthorhombic'
loop_
_space_group_symop_operation_xyz
x,y,z
-x,1/2-y,z
x,-y,-z
-x,1/2+y,-z
-x,-y,-z
x,1/2+y,-z
-x,y,z
x,1/2-y,z
1/2+x,1/2+y,1/2+z
1/2-x,-y,1/2+z
1/2+x,1/2-y,1/2-z
1/2-x,y,1/2-z
1/2-x,1/2-y,1/2-z
1/2+x,y,1/2-z
1/2-x,1/2+y,1/2+z
1/2+x,-y,1/2+z
loop_
_atom_site_type_symbol
_atom_site_label
_atom_site_fract_x
_atom_site_fract_y
_atom_site_fract_z
Si Si1 0.911850 0.699074 0.622355
Si Si2 0.341931 0.145497 0.539879
Si Si3 0.695621 0.555376 0.353200
Si Si4 0.161891 0.627462 0.782447
Si Si5 0.808854 0.697703 0.407268
Si Si6 0.581887 0.696602 0.284402
Si Si7 0.159884 0.971841 0.733705
Si Si8 0.305081 0.000000 0.000000
O O1 0.899664 0.750000 0.662956
O O2 0.880415 0.662804 0.706408
O O3 0.866829 0.695115 0.508198
O O4 0.000000 0.693329 0.604183
O O5 0.345759 0.098034 0.600815
O O6 0.347365 0.139659 0.409841
O O7 0.262145 0.167892 0.566707
O O8 0.402611 0.177117 0.595789
O O9 0.750000 0.566752 0.250000
O O10 0.643358 0.514652 0.310338
O O11 0.750086 0.537534 0.450145
O O12 0.250000 0.628705 0.750000
O O13 0.132312 0.576990 0.764284
O O14 0.786947 0.750000 0.394471
O O15 0.852425 0.682480 0.298115
O O16 0.500000 0.682941 0.243723
O O17 0.583852 0.750000 0.286520
O O18 0.250000 0.969228 0.750000
O O19 0.148835 0.982644 0.604804
#
# Coordination Sequence:
#
# PCOD9538194 Si02
#       8
#    16  16  16  16  16  16  16   8
#     4  10  22  39  58  81 112 153 195 233 285 349
#     4  12  21  32  55  86 117 142 187 237 285 336
#     4   9  16  27  45  75 110 140 176 222 276 329
#     4  11  21  35  54  83 115 150 189 235 282 332
#     4  10  20  36  58  82 110 143 189 244 289 334
#     4  10  22  39  56  77 110 151 188 227 285 347
#     4   8  16  29  47  74 110 144 182 225 279 332
#     4   8  14  26  46  70 106 144 176 222 276 320
#
# _framework density 18.381274000000001
#
# number of rings (size 3 to 8) (size 9 to 14) (size 15 to 20)
#    0.000    2.400    1.333    4.400    0.000    4.533 
#    0.000    1.333    0.000    0.800    0.000    2.800 
#    0.000    0.000    0.000    0.000    0.000    0.000 
#
# Total GULP energy -334621.750621 kJ/mol
# GULP energy per Si atom -5577.029177 kJ/mol
# Density = 1.833944 g / cm^3
# Si number density = 18.381274 Si / 1000 Ang^3
#
#
#
# Elastic Constant Matrix: (Units=GPa)
#
#
# Indices 1 2 3 4 5 6 
#
# 1 36.8207 26.2813 9.6370 0.0001 0.0000 0.0000
# 2 26.2813 69.8059 35.2897 0.0004 0.0000 0.0000
# 3 9.6370 35.2897 102.1035 -0.0005 -0.0003 -0.0057
# 4 0.0001 0.0004 -0.0005 31.7972 0.0001 -0.0005
# 5 0.0000 0.0000 -0.0003 0.0001 9.3487 0.0012
# 6 0.0000 0.0000 -0.0057 -0.0005 0.0012 -77.6583
#
#
#
# Elastic Compliance Matrix: (Units=1/GPa)
#
#
# Indices 1 2 3 4 5 6 
#
# 1 0.037358 -0.014883 0.001618 0.000000 0.000000 0.000000
# 2 -0.014883 0.023288 -0.006644 0.000000 0.000000 0.000000
# 3 0.001618 -0.006644 0.011938 0.000000 0.000000 -0.000001
# 4 0.000000 0.000000 0.000000 0.031449 0.000000 0.000000
# 5 0.000000 0.000000 0.000000 0.000000 0.106966 0.000002
# 6 0.000000 0.000000 -0.000001 0.000000 0.000002 -0.012877
#
#
# Mechanical properties :
#
#
# Convention : Reuss Voigt Hill
#
# Bulk Modulus (GPa) = 30.52029 39.01625 34.76827
# Shear Modulus (GPa) = 20.09146 1.86567 10.97857
#
# Velocity S-wave (km/s) = 3.30970 1.00856 2.44656
# Velocity P-wave (km/s) = 5.58977 4.75693 5.19009
#
# Compressibility (1/GPa) = 0.03276509
#
# Stress axis : x y z
#
# Youngs Moduli (GPa) = 26.76798 42.94128 83.76854
#
# Poissons Ratio (x) = 0.63909 -0.13553
# Poissons Ratio (y) = 0.39839 0.55657
# Poissons Ratio (z) = -0.04331 0.28531
#
# Static dielectric constant tensor:
#      x y z
#    x 1.616370 0.000000 0.000000 
#    y 0.000000 1.660710 0.000000 
#    z 0.000000 0.000000 1.639780 
# 
# From -- ./inp_files/24463.got.cif
#   From: 2010.05.17/outbox.cif.g08.bks.cpg/sg74_13_cif.got.tgz:24463.got - 2010.06.03 17:57:02.
