data_PCOD9538082
_publ_section_title
;
Structure prediction by ZEFSAII (Michael W. Deem and Ramdas Pophale) SiO2 
 PCOD9538082
Probable space group: I M M A
;
_chemical_formula_sum "Si O2"
_cell_formula_units_Z 80
_cell_length_a 23.634650
_cell_length_b 33.995289
_cell_length_c 4.941637
_cell_angle_alpha 90.000000
_cell_angle_beta 90.000000
_cell_angle_gamma 90.000000
_cell_volume 3970.441055
_symmetry_space_group_name_H-M "I M M A"
_symmetry_group_IT_number 74
_symmetry_cell_setting 'orthorhombic'
loop_
_space_group_symop_operation_xyz
x,y,z
-x,1/2-y,z
x,-y,-z
-x,1/2+y,-z
-x,-y,-z
x,1/2+y,-z
-x,y,z
x,1/2-y,z
1/2+x,1/2+y,1/2+z
1/2-x,-y,1/2+z
1/2+x,1/2-y,1/2-z
1/2-x,y,1/2-z
1/2-x,1/2-y,1/2-z
1/2+x,y,1/2-z
1/2-x,1/2+y,1/2+z
1/2+x,-y,1/2+z
loop_
_atom_site_type_symbol
_atom_site_label
_atom_site_fract_x
_atom_site_fract_y
_atom_site_fract_z
Si Si1 0.064098 0.387200 0.181138
Si Si2 0.287719 0.933009 0.010252
Si Si3 0.210019 0.705315 0.510161
Si Si4 0.632780 0.637287 0.178806
Si Si5 0.602813 0.474097 0.235507
O O1 0.081826 0.375281 0.482645
O O2 0.071410 0.434425 0.171999
O O3 0.000000 0.376324 0.116628
O O4 0.108924 0.366797 0.980162
O O5 0.250000 0.951420 0.250000
O O6 0.317149 0.894442 0.136585
O O7 0.250000 0.923107 0.750000
O O8 0.338883 0.959325 0.900549
O O9 0.193079 0.750000 0.586679
O O10 0.250000 0.689046 0.750000
O O11 0.157909 0.678308 0.423562
O O12 0.250000 0.707178 0.250000
O O13 0.612957 0.500000 0.500000
O O14 0.573709 0.500000 0.000000
#
# Coordination Sequence:
#
# PCOD9538082 Si02
#       5
#    16  16  16  16  16
#     4  11  24  41  61  81 105 147 196 244 294 334
#     4  11  21  35  55  79 110 148 180 215 273 341
#     4  10  20  35  60  94 127 157 186 222 277 340
#     4  11  21  38  60  84 116 147 190 237 275 337
#     4  11  23  39  56  80 109 141 188 240 290 345
#
# _framework density 20.148895
#
# number of rings (size 3 to 8) (size 9 to 14) (size 15 to 20)
#    0.000    1.200    0.000    9.000    0.000    2.400 
#    0.000    2.000    0.000    3.600    0.000    0.000 
#    0.000    0.000    0.000    0.000    0.000    0.000 
#
# Total GULP energy -223636.808394 kJ/mol
# GULP energy per Si atom -5590.920210 kJ/mol
# Density = 2.010304 g / cm^3
# Si number density = 20.148895 Si / 1000 Ang^3
#
#
#
# Elastic Constant Matrix: (Units=GPa)
#
#
# Indices 1 2 3 4 5 6 
#
# 1 68.2218 11.0759 1.1139 0.0000 0.0000 0.0000
# 2 11.0759 67.1474 -12.1041 0.0000 0.0000 0.0000
# 3 1.1139 -12.1041 89.7882 0.0000 0.0000 0.0000
# 4 0.0000 0.0000 0.0000 35.6219 0.0000 0.0000
# 5 0.0000 0.0000 0.0000 0.0000 21.6888 0.0000
# 6 0.0000 0.0000 0.0000 0.0000 0.0000 -2.1902
#
#
#
# Elastic Compliance Matrix: (Units=1/GPa)
#
#
# Indices 1 2 3 4 5 6 
#
# 1 0.015086 -0.002585 -0.000536 0.000000 0.000000 0.000000
# 2 -0.002585 0.015706 0.002149 0.000000 0.000000 0.000000
# 3 -0.000536 0.002149 0.011434 0.000000 0.000000 0.000000
# 4 0.000000 0.000000 0.000000 0.028073 0.000000 0.000000
# 5 0.000000 0.000000 0.000000 0.000000 0.046107 0.000000
# 6 0.000000 0.000000 0.000000 0.000000 0.000000 -0.456580
#
#
# Mechanical properties :
#
#
# Convention : Reuss Voigt Hill
#
# Bulk Modulus (GPa) = 24.82366 25.03652 24.93009
# Shear Modulus (GPa) = -15.39394 26.02887 5.31747
#
# Velocity S-wave (km/s) = -2.76707 3.59810 1.62629
# Velocity P-wave (km/s) = 1.46217 5.45110 3.99077
#
# Compressibility (1/GPa) = 0.04028414
#
# Stress axis : x y z
#
# Youngs Moduli (GPa) = 66.28444 63.66802 87.46060
#
# Poissons Ratio (x) = 0.16459 0.04685
# Poissons Ratio (y) = 0.17135 -0.18799
# Poissons Ratio (z) = 0.03550 -0.13685
#
# Static dielectric constant tensor:
#      x y z
#    x 1.700860 0.000000 0.000000 
#    y 0.000000 1.748630 0.000000 
#    z 0.000000 0.000000 1.650550 
# 
# From -- ./inp_files/3839.got.cif
#   From: 2010.05.17/outbox.cif.g08.bks.cpg/sg74_2_cif.got.tgz:3839.got - 2010.06.03 17:57:02.
