data_PCOD9538778
_publ_section_title
;
Structure prediction by ZEFSAII (Michael W. Deem and Ramdas Pophale) SiO2 
 PCOD9538778
Probable space group: I M M A
;
_chemical_formula_sum "Si O2"
_cell_formula_units_Z 96
_cell_length_a 15.924371
_cell_length_b 16.257269
_cell_length_c 18.219780
_cell_angle_alpha 90.000000
_cell_angle_beta 90.000000
_cell_angle_gamma 90.000000
_cell_volume 4716.860231
_symmetry_space_group_name_H-M "I M M A"
_symmetry_group_IT_number 74
_symmetry_cell_setting 'orthorhombic'
loop_
_space_group_symop_operation_xyz
x,y,z
-x,1/2-y,z
x,-y,-z
-x,1/2+y,-z
-x,-y,-z
x,1/2+y,-z
-x,y,z
x,1/2-y,z
1/2+x,1/2+y,1/2+z
1/2-x,-y,1/2+z
1/2+x,1/2-y,1/2-z
1/2-x,y,1/2-z
1/2-x,1/2-y,1/2-z
1/2+x,y,1/2-z
1/2-x,1/2+y,1/2+z
1/2+x,-y,1/2+z
loop_
_atom_site_type_symbol
_atom_site_label
_atom_site_fract_x
_atom_site_fract_y
_atom_site_fract_z
Si Si1 0.405675 0.887278 0.921974
Si Si2 0.253231 0.343308 0.836336
Si Si3 0.235927 0.847019 0.836043
Si Si4 0.909135 0.344711 0.909607
Si Si5 0.908381 0.585031 0.411345
Si Si6 0.901678 0.077560 0.056471
O O1 0.500000 0.857921 0.900505
O O2 0.326265 0.855723 0.876666
O O3 0.407728 0.986530 0.917266
O O4 0.394501 0.873745 0.009079
O O5 0.259684 0.250000 0.866083
O O6 0.250000 0.339358 0.750000
O O7 0.169402 0.383460 0.868913
O O8 0.334587 0.390809 0.859229
O O9 0.210918 0.750000 0.838100
O O10 0.250000 0.870022 0.750000
O O11 0.166241 0.901819 0.880261
O O12 0.912369 0.250000 0.885613
O O13 0.000000 0.382720 0.893087
O O14 0.896651 0.349239 0.996644
O O15 0.000000 0.611023 0.384520
O O16 0.000000 0.927811 0.919050
O O17 0.885121 0.000000 0.000000
#
# Coordination Sequence:
#
# PCOD9538778 Si02
#       6
#    16  16  16  16  16  16
#     4   9  20  39  61  86 116 153 200 251 304 365
#     4  10  21  34  51  79 115 155 195 239 297 362
#     4  11  25  41  62  95 130 167 207 255 322 386
#     4   9  18  34  55  78 108 150 197 245 299 359
#     4   9  19  36  58  83 112 150 196 249 303 353
#     4  10  22  40  63  91 121 159 210 262 309 368
#
# _framework density 20.352522
#
# number of rings (size 3 to 8) (size 9 to 14) (size 15 to 20)
#    0.000    2.333    0.000    2.500    4.667    5.667 
#    0.000    5.000    0.000    0.000    0.000    0.000 
#    0.000    0.000    0.000    0.000    0.000    0.000 
#
# Total GULP energy -267506.190120 kJ/mol
# GULP energy per Si atom -5573.045628 kJ/mol
# Density = 2.030620 g / cm^3
# Si number density = 20.352522 Si / 1000 Ang^3
#
#
#
# Elastic Constant Matrix: (Units=GPa)
#
#
# Indices 1 2 3 4 5 6 
#
# 1 162.3007 35.4796 87.6303 0.0000 0.0000 0.0000
# 2 35.4796 48.2231 26.2396 0.0000 0.0000 0.0000
# 3 87.6303 26.2396 78.9450 0.0000 0.0000 0.0000
# 4 0.0000 0.0000 0.0000 156.5939 0.0000 0.0000
# 5 0.0000 0.0000 0.0000 0.0000 98.2070 0.0000
# 6 0.0000 0.0000 0.0000 0.0000 0.0000 20.6765
#
#
#
# Elastic Compliance Matrix: (Units=1/GPa)
#
#
# Indices 1 2 3 4 5 6 
#
# 1 0.015623 -0.002513 -0.016507 0.000000 0.000000 0.000000
# 2 -0.002513 0.025720 -0.005760 0.000000 0.000000 0.000000
# 3 -0.016507 -0.005760 0.032904 0.000000 0.000000 0.000000
# 4 0.000000 0.000000 0.000000 0.006386 0.000000 0.000000
# 5 0.000000 0.000000 0.000000 0.000000 0.010183 0.000000
# 6 0.000000 0.000000 0.000000 0.000000 0.000000 0.048364
#
#
# Mechanical properties :
#
#
# Convention : Reuss Voigt Hill
#
# Bulk Modulus (GPa) = 40.50397 65.35197 52.92797
# Shear Modulus (GPa) = 25.38495 64.43676 44.91085
#
# Velocity S-wave (km/s) = 3.53549 5.63286 4.70259
# Velocity P-wave (km/s) = 6.05068 8.63048 7.45305
#
# Compressibility (1/GPa) = 0.02468894
#
# Stress axis : x y z
#
# Youngs Moduli (GPa) = 64.00771 38.88089 30.39126
#
# Poissons Ratio (x) = 0.09770 0.50166
# Poissons Ratio (y) = 0.16083 0.17504
# Poissons Ratio (z) = 1.05656 0.22393
#
# Static dielectric constant tensor:
#      x y z
#    x 1.803150 0.000000 0.000000 
#    y 0.000000 1.832540 0.000000 
#    z 0.000000 0.000000 1.684250 
# 
# From -- ./inp_files/32396.got.cif
#   From: 2010.05.17/outbox.cif.g08.bks.cpg/sg74_17_cif.got.tgz:32396.got - 2010.06.03 17:57:02.
