data_PCOD9538136
_publ_section_title
;
Structure prediction by ZEFSAII (Michael W. Deem and Ramdas Pophale) SiO2 
 PCOD9538136
Probable space group: I M M A
;
_chemical_formula_sum "Si O2"
_cell_formula_units_Z 64
_cell_length_a 19.981123
_cell_length_b 8.643001
_cell_length_c 20.904791
_cell_angle_alpha 90.000000
_cell_angle_beta 90.000000
_cell_angle_gamma 90.000000
_cell_volume 3610.191892
_symmetry_space_group_name_H-M "I M M A"
_symmetry_group_IT_number 74
_symmetry_cell_setting 'orthorhombic'
loop_
_space_group_symop_operation_xyz
x,y,z
-x,1/2-y,z
x,-y,-z
-x,1/2+y,-z
-x,-y,-z
x,1/2+y,-z
-x,y,z
x,1/2-y,z
1/2+x,1/2+y,1/2+z
1/2-x,-y,1/2+z
1/2+x,1/2-y,1/2-z
1/2-x,y,1/2-z
1/2-x,1/2-y,1/2-z
1/2+x,y,1/2-z
1/2-x,1/2+y,1/2+z
1/2+x,-y,1/2+z
loop_
_atom_site_type_symbol
_atom_site_label
_atom_site_fract_x
_atom_site_fract_y
_atom_site_fract_z
Si Si1 0.078413 0.935346 0.070211
Si Si2 0.422976 0.563526 0.068796
Si Si3 0.176082 0.936472 0.318048
Si Si4 0.175086 0.565139 0.820957
O O1 0.085399 0.750000 0.070304
O O2 0.000000 0.973045 0.081705
O O3 0.124963 0.007188 0.124572
O O4 0.095930 0.000000 0.000000
O O5 0.500000 0.513493 0.079271
O O6 0.422264 0.750000 0.066280
O O7 0.374925 0.515588 0.126371
O O8 0.401007 0.500000 0.000000
O O9 0.178373 0.750000 0.314667
O O10 0.155034 0.001577 0.248979
O O11 0.250298 0.999257 0.332303
O O12 0.177505 0.750000 0.819483
#
# Coordination Sequence:
#
# PCOD9538136 Si02
#       4
#    16  16  16  16
#     4  10  21  38  59  82 109 141 178 221 269 322
#     4   9  19  35  55  79 106 137 174 217 264 314
#     4  10  20  36  56  78 108 144 183 225 269 317
#     4  11  22  36  55  80 110 142 180 223 269 322
#
# _framework density 17.727588999999998
#
# number of rings (size 3 to 8) (size 9 to 14) (size 15 to 20)
#    0.000    2.000    0.000    5.250    0.000    5.500 
#    0.000    5.000    0.000    0.000    0.000    0.000 
#    0.000    0.000    0.000    0.000    0.000    0.000 
#
# Total GULP energy -178700.052143 kJ/mol
# GULP energy per Si atom -5584.376629 kJ/mol
# Density = 1.768724 g / cm^3
# Si number density = 17.727589 Si / 1000 Ang^3
#
#
#
# Elastic Constant Matrix: (Units=GPa)
#
#
# Indices 1 2 3 4 5 6 
#
# 1 93.5156 48.2269 126.3625 0.0000 0.0000 0.0000
# 2 48.2269 83.6680 66.4362 0.0000 0.0000 0.0000
# 3 126.3625 66.4362 201.9929 0.0000 0.0000 0.0000
# 4 0.0000 0.0000 0.0000 36.1450 0.0000 0.0000
# 5 0.0000 0.0000 0.0000 0.0000 44.0913 0.0000
# 6 0.0000 0.0000 0.0000 0.0000 0.0000 20.4879
#
#
#
# Elastic Compliance Matrix: (Units=1/GPa)
#
#
# Indices 1 2 3 4 5 6 
#
# 1 0.072743 -0.007844 -0.042926 0.000000 0.000000 0.000000
# 2 -0.007844 0.017023 -0.000692 0.000000 0.000000 0.000000
# 3 -0.042926 -0.000692 0.032032 0.000000 0.000000 0.000000
# 4 0.000000 0.000000 0.000000 0.027666 0.000000 0.000000
# 5 0.000000 0.000000 0.000000 0.000000 0.022680 0.000000
# 6 0.000000 0.000000 0.000000 0.000000 0.000000 0.048809
#
#
# Mechanical properties :
#
#
# Convention : Reuss Voigt Hill
#
# Bulk Modulus (GPa) = 52.98552 95.69198 74.33875
# Shear Modulus (GPa) = 15.14381 29.35490 22.24935
#
# Velocity S-wave (km/s) = 2.92593 4.07367 3.54654
# Velocity P-wave (km/s) = 6.43182 8.73056 7.66783
#
# Compressibility (1/GPa) = 0.01887308
#
# Stress axis : x y z
#
# Youngs Moduli (GPa) = 13.74712 58.74531 31.21880
#
# Poissons Ratio (x) = 0.46079 1.34011
# Poissons Ratio (y) = 0.10783 0.02160
# Poissons Ratio (z) = 0.59011 0.04064
#
# Static dielectric constant tensor:
#      x y z
#    x 1.589980 0.000000 0.000000 
#    y 0.000000 1.596020 0.000000 
#    z 0.000000 0.000000 1.576560 
# 
# From -- ./inp_files/35963.got.cif
#   From: 2010.05.17/outbox.cif.g08.bks.cpg/sg74_18_cif.got.tgz:35963.got - 2010.06.03 17:57:02.
