data_PCOD9538822
_publ_section_title
;
Structure prediction by ZEFSAII (Michael W. Deem and Ramdas Pophale) SiO2 
 PCOD9538822
Probable space group: I M M A
;
_chemical_formula_sum "Si O2"
_cell_formula_units_Z 96
_cell_length_a 7.730463
_cell_length_b 29.624038
_cell_length_c 19.286400
_cell_angle_alpha 90.000000
_cell_angle_beta 90.000000
_cell_angle_gamma 90.000000
_cell_volume 4416.730820
_symmetry_space_group_name_H-M "I M M A"
_symmetry_group_IT_number 74
_symmetry_cell_setting 'orthorhombic'
loop_
_space_group_symop_operation_xyz
x,y,z
-x,1/2-y,z
x,-y,-z
-x,1/2+y,-z
-x,-y,-z
x,1/2+y,-z
-x,y,z
x,1/2-y,z
1/2+x,1/2+y,1/2+z
1/2-x,-y,1/2+z
1/2+x,1/2-y,1/2-z
1/2-x,y,1/2-z
1/2-x,1/2-y,1/2-z
1/2+x,y,1/2-z
1/2-x,1/2+y,1/2+z
1/2+x,-y,1/2+z
loop_
_atom_site_type_symbol
_atom_site_label
_atom_site_fract_x
_atom_site_fract_y
_atom_site_fract_z
Si Si1 0.207217 0.699783 0.041629
Si Si2 0.792585 0.459988 0.674043
Si Si3 0.711081 0.198406 0.383859
Si Si4 0.291663 0.396757 0.328838
Si Si5 0.695723 0.528873 0.563213
Si Si6 0.296363 0.357732 0.824996
O O1 0.272860 0.750000 0.057307
O O2 0.249210 0.668327 0.105775
O O3 0.000000 0.701349 0.037177
O O4 0.265304 0.688444 0.963642
O O5 0.750000 0.477130 0.750000
O O6 0.693449 0.490838 0.621268
O O7 0.725991 0.408569 0.671242
O O8 0.000000 0.461782 0.661475
O O9 0.500000 0.199188 0.381557
O O10 0.766885 0.250000 0.366040
O O11 0.768039 0.155265 0.339283
O O12 0.500000 0.397927 0.334715
O O13 0.250000 0.411413 0.250000
O O14 0.228320 0.428366 0.393386
O O15 0.779632 0.500000 0.500000
O O16 0.500000 0.541815 0.540275
O O17 0.500000 0.362281 0.823874
O O18 0.250000 0.337011 0.750000
#
# Coordination Sequence:
#
# PCOD9538822 Si02
#       6
#    16  16  16  16  16  16
#     4   9  18  33  55  80 105 139 182 229 281 333
#     4  10  21  37  56  78 107 144 184 227 275 328
#     4   8  16  33  57  83 110 143 183 226 275 331
#     4  10  21  37  57  84 115 147 184 227 275 329
#     4  10  22  37  56  84 112 145 188 230 277 330
#     4  10  21  35  52  77 106 142 185 228 278 332
#
# _framework density 21.735531000000002
#
# number of rings (size 3 to 8) (size 9 to 14) (size 15 to 20)
#    0.000    2.500    0.000    2.500    2.333    5.333 
#    0.000    0.833    0.000    1.000    0.000    0.000 
#    0.000    0.000    0.000    0.000    0.000    0.000 
#
# Total GULP energy -267468.531971 kJ/mol
# GULP energy per Si atom -5572.261083 kJ/mol
# Density = 2.168606 g / cm^3
# Si number density = 21.735531 Si / 1000 Ang^3
#
#
#
# Elastic Constant Matrix: (Units=GPa)
#
#
# Indices 1 2 3 4 5 6 
#
# 1 40.9819 0.9120 -6.2877 0.0000 0.0000 0.0000
# 2 0.9120 107.8576 72.3886 0.0000 0.0000 0.0000
# 3 -6.2877 72.3886 95.6110 0.0001 0.0000 0.0000
# 4 0.0000 0.0000 0.0001 42.3750 0.0000 0.0000
# 5 0.0000 0.0000 0.0000 0.0000 19.4453 0.0000
# 6 0.0000 0.0000 0.0000 0.0000 0.0000 26.6032
#
#
#
# Elastic Compliance Matrix: (Units=1/GPa)
#
#
# Indices 1 2 3 4 5 6 
#
# 1 0.025024 -0.002676 0.003671 0.000000 0.000000 0.000000
# 2 -0.002676 0.019136 -0.014664 0.000000 0.000000 0.000000
# 3 0.003671 -0.014664 0.021803 0.000000 0.000000 0.000000
# 4 0.000000 0.000000 0.000000 0.023599 0.000000 0.000000
# 5 0.000000 0.000000 0.000000 0.000000 0.051426 0.000000
# 6 0.000000 0.000000 0.000000 0.000000 0.000000 0.037589
#
#
# Mechanical properties :
#
#
# Convention : Reuss Voigt Hill
#
# Bulk Modulus (GPa) = 25.88928 42.05293 33.97111
# Shear Modulus (GPa) = 22.85306 29.51387 26.18346
#
# Velocity S-wave (km/s) = 3.24607 3.68892 3.47456
# Velocity P-wave (km/s) = 5.09767 6.12647 5.63560
#
# Compressibility (1/GPa) = 0.03862603
#
# Stress axis : x y z
#
# Youngs Moduli (GPa) = 39.96191 52.25791 45.86553
#
# Poissons Ratio (x) = 0.13983 -0.16839
# Poissons Ratio (y) = 0.10693 0.67257
# Poissons Ratio (z) = -0.14672 0.76631
#
# Static dielectric constant tensor:
#      x y z
#    x 1.886150 0.000000 0.000000 
#    y 0.000000 1.864380 0.000000 
#    z 0.000000 0.000000 1.813220 
# 
# From -- ./inp_files/49139.got.cif
#   From: 2010.05.17/outbox.cif.g08.bks.cpg/sg74_25_cif.got.tgz:49139.got - 2010.06.03 17:57:02.
