data_PCOD9538165
_publ_section_title
;
Structure prediction by ZEFSAII (Michael W. Deem and Ramdas Pophale) SiO2 
 PCOD9538165
Probable space group: I M M A
;
_chemical_formula_sum "Si O2"
_cell_formula_units_Z 88
_cell_length_a 8.802958
_cell_length_b 23.158828
_cell_length_c 25.135186
_cell_angle_alpha 90.000000
_cell_angle_beta 90.000000
_cell_angle_gamma 90.000000
_cell_volume 5124.214610
_symmetry_space_group_name_H-M "I M M A"
_symmetry_group_IT_number 74
_symmetry_cell_setting 'orthorhombic'
loop_
_space_group_symop_operation_xyz
x,y,z
-x,1/2-y,z
x,-y,-z
-x,1/2+y,-z
-x,-y,-z
x,1/2+y,-z
-x,y,z
x,1/2-y,z
1/2+x,1/2+y,1/2+z
1/2-x,-y,1/2+z
1/2+x,1/2-y,1/2-z
1/2-x,y,1/2-z
1/2-x,1/2-y,1/2-z
1/2+x,y,1/2-z
1/2-x,1/2+y,1/2+z
1/2+x,-y,1/2+z
loop_
_atom_site_type_symbol
_atom_site_label
_atom_site_fract_x
_atom_site_fract_y
_atom_site_fract_z
Si Si1 0.681992 0.750000 0.190622
Si Si2 0.183287 0.317321 0.396252
Si Si3 0.317821 0.900963 0.692088
Si Si4 0.182523 0.466620 0.807453
Si Si5 0.819147 0.318891 0.517297
Si Si6 0.818296 0.642992 0.124940
O O1 0.500000 0.750000 0.192888
O O2 0.750000 0.750000 0.250000
O O3 0.739807 0.693894 0.158660
O O4 0.224994 0.250000 0.388164
O O5 0.256759 0.358167 0.352644
O O6 0.225935 0.333758 0.456871
O O7 0.000000 0.320708 0.392914
O O8 0.500000 0.898193 0.694593
O O9 0.250000 0.886534 0.750000
O O10 0.271867 0.967487 0.679996
O O11 0.250000 0.451258 0.750000
O O12 0.226997 0.418589 0.850203
O O13 0.000000 0.465918 0.803378
O O14 0.794607 0.250000 0.523732
O O15 0.731489 0.350819 0.563950
O O16 0.000000 0.328739 0.522848
O O17 0.000000 0.649508 0.129474
#
# Coordination Sequence:
#
# PCOD9538165 Si02
#       6
#     8  16  16  16  16  16
#     4  12  24  36  50  74 108 140 177 226 273 314
#     4   9  19  36  57  81 109 139 173 216 262 311
#     4  10  20  36  57  80 107 139 174 215 263 318
#     4   9  20  36  53  75 104 138 177 219 265 314
#     4   9  18  34  54  76 105 141 177 218 265 311
#     4  11  21  34  53  78 105 138 180 222 266 317
#
# _framework density 17.173365
#
# number of rings (size 3 to 8) (size 9 to 14) (size 15 to 20)
#    0.000    2.182    0.909    3.545    0.000    5.091 
#    0.000    2.727    0.000    5.455    0.000    0.000 
#    0.000    0.000    0.000    0.000    0.000    0.000 
#
# Total GULP energy -245573.063874 kJ/mol
# GULP energy per Si atom -5581.205997 kJ/mol
# Density = 1.713428 g / cm^3
# Si number density = 17.173365 Si / 1000 Ang^3
#
#
#
# Elastic Constant Matrix: (Units=GPa)
#
#
# Indices 1 2 3 4 5 6 
#
# 1 50.8798 46.7925 61.1874 0.0000 0.0000 0.0000
# 2 46.7925 98.6237 106.0853 0.0000 0.0000 0.0000
# 3 61.1874 106.0853 170.0317 0.0000 0.0000 0.0000
# 4 0.0000 0.0000 0.0000 24.5216 0.0000 0.0000
# 5 0.0000 0.0000 0.0000 0.0000 35.7637 0.0000
# 6 0.0000 0.0000 0.0000 0.0000 0.0000 17.1184
#
#
#
# Elastic Compliance Matrix: (Units=1/GPa)
#
#
# Indices 1 2 3 4 5 6 
#
# 1 0.037634 -0.009998 -0.007305 0.000000 0.000000 0.000000
# 2 -0.009998 0.033486 -0.017295 0.000000 0.000000 0.000000
# 3 -0.007305 -0.017295 0.019301 0.000000 0.000000 0.000000
# 4 0.000000 0.000000 0.000000 0.040780 0.000000 0.000000
# 5 0.000000 0.000000 0.000000 0.000000 0.027961 0.000000
# 6 0.000000 0.000000 0.000000 0.000000 0.000000 0.058417
#
#
# Mechanical properties :
#
#
# Convention : Reuss Voigt Hill
#
# Bulk Modulus (GPa) = 47.11355 83.07397 65.09376
# Shear Modulus (GPa) = 17.01552 22.51208 19.76380
#
# Velocity S-wave (km/s) = 3.15113 3.62452 3.39608
# Velocity P-wave (km/s) = 6.38225 8.12373 7.30507
#
# Compressibility (1/GPa) = 0.02122532
#
# Stress axis : x y z
#
# Youngs Moduli (GPa) = 26.57190 29.86292 51.81187
#
# Poissons Ratio (x) = 0.29856 0.37849
# Poissons Ratio (y) = 0.26566 0.89608
# Poissons Ratio (z) = 0.19411 0.51648
#
# Static dielectric constant tensor:
#      x y z
#    x 1.577210 0.000000 0.000000 
#    y 0.000000 1.572880 0.000000 
#    z 0.000000 0.000000 1.559160 
# 
# From -- ./inp_files/56983.got.cif
#   From: 2010.05.17/outbox.cif.g08.bks.cpg/sg74_29_cif.got.tgz:56983.got - 2010.06.03 17:57:02.
