data_PCOD9538083
_publ_section_title
;
Structure prediction by ZEFSAII (Michael W. Deem and Ramdas Pophale) SiO2 
 PCOD9538083
Probable space group: I M M A
;
_chemical_formula_sum "Si O2"
_cell_formula_units_Z 112
_cell_length_a 15.556334
_cell_length_b 21.110856
_cell_length_c 14.672782
_cell_angle_alpha 90.000000
_cell_angle_beta 90.000000
_cell_angle_gamma 90.000000
_cell_volume 4818.652050
_symmetry_space_group_name_H-M "I M M A"
_symmetry_group_IT_number 74
_symmetry_cell_setting 'orthorhombic'
loop_
_space_group_symop_operation_xyz
x,y,z
-x,1/2-y,z
x,-y,-z
-x,1/2+y,-z
-x,-y,-z
x,1/2+y,-z
-x,y,z
x,1/2-y,z
1/2+x,1/2+y,1/2+z
1/2-x,-y,1/2+z
1/2+x,1/2-y,1/2-z
1/2-x,y,1/2-z
1/2-x,1/2-y,1/2-z
1/2+x,y,1/2-z
1/2-x,1/2+y,1/2+z
1/2+x,-y,1/2+z
loop_
_atom_site_type_symbol
_atom_site_label
_atom_site_fract_x
_atom_site_fract_y
_atom_site_fract_z
Si Si1 0.896792 0.182627 0.258970
Si Si2 0.595252 0.912176 0.399450
Si Si3 0.670034 0.143234 0.430875
Si Si4 0.099627 0.822379 0.273899
Si Si5 0.758637 0.989996 0.858526
Si Si6 0.657877 0.677717 0.032412
Si Si7 0.902085 0.074100 0.398884
O O1 0.867028 0.250000 0.300514
O O2 0.864461 0.179868 0.156202
O O3 0.872063 0.120610 0.315829
O O4 0.000000 0.182297 0.260358
O O5 0.500000 0.942909 0.393810
O O6 0.600843 0.871600 0.491459
O O7 0.606769 0.868529 0.310967
O O8 0.676377 0.958816 0.399122
O O9 0.700672 0.076813 0.387823
O O10 0.749933 0.174118 0.483678
O O11 0.115723 0.750000 0.244485
O O12 0.159880 0.836540 0.359916
O O13 0.000000 0.825821 0.306577
O O14 0.750000 0.998298 0.750000
O O15 0.662531 0.984715 0.898550
O O16 0.623470 0.750000 0.023987
O O17 0.604516 0.622396 0.983336
O O18 0.000000 0.054000 0.385363
#
# Coordination Sequence:
#
# PCOD9538083 Si02
#       7
#    16  16  16  16  16  16  16
#     4  10  20  35  60  94 131 172 219 270 329 400
#     4  11  26  45  70  98 130 177 226 276 336 401
#     4  11  23  40  62  92 133 174 220 273 334 393
#     4   9  20  41  67  97 130 165 213 272 331 398
#     4  11  24  43  66  92 129 174 222 279 330 392
#     4  10  21  36  63  98 134 177 221 273 337 402
#     4  10  21  40  65  96 134 179 226 278 337 397
#
# _framework density 23.243016000000001
#
# number of rings (size 3 to 8) (size 9 to 14) (size 15 to 20)
#    0.000    1.714    1.429    2.143    2.000    4.857 
#    0.000    5.000    0.000    2.571    0.000    0.000 
#    0.000    0.571    0.000    0.000    0.000    0.000 
#
# Total GULP energy -313247.563809 kJ/mol
# GULP energy per Si atom -5593.706497 kJ/mol
# Density = 2.319011 g / cm^3
# Si number density = 23.243016 Si / 1000 Ang^3
#
#
#
# Elastic Constant Matrix: (Units=GPa)
#
#
# Indices 1 2 3 4 5 6 
#
# 1 112.6890 50.8073 34.9728 0.0000 0.0000 0.0000
# 2 50.8073 63.3773 20.7655 0.0000 0.0000 0.0000
# 3 34.9728 20.7655 106.1602 -0.0001 0.0000 0.0000
# 4 0.0000 0.0000 -0.0001 23.9819 0.0000 0.0000
# 5 0.0000 0.0000 0.0000 0.0000 31.7408 0.0000
# 6 0.0000 0.0000 0.0000 0.0000 0.0000 9.9681
#
#
#
# Elastic Compliance Matrix: (Units=1/GPa)
#
#
# Indices 1 2 3 4 5 6 
#
# 1 0.014582 -0.010809 -0.002690 0.000000 0.000000 0.000000
# 2 -0.010809 0.024871 -0.001304 0.000000 0.000000 0.000000
# 3 -0.002690 -0.001304 0.010561 0.000000 0.000000 0.000000
# 4 0.000000 0.000000 0.000000 0.041698 0.000000 0.000000
# 5 0.000000 0.000000 0.000000 0.000000 0.031505 0.000000
# 6 0.000000 0.000000 0.000000 0.000000 0.000000 0.100320
#
#
# Mechanical properties :
#
#
# Convention : Reuss Voigt Hill
#
# Bulk Modulus (GPa) = 48.99818 55.03530 52.01674
# Shear Modulus (GPa) = 19.23494 24.85022 22.04258
#
# Velocity S-wave (km/s) = 2.87985 3.27333 3.08287
# Velocity P-wave (km/s) = 5.67315 6.16570 5.92455
#
# Compressibility (1/GPa) = 0.02040892
#
# Stress axis : x y z
#
# Youngs Moduli (GPa) = 68.57836 40.20805 94.68934
#
# Poissons Ratio (x) = 0.43459 0.25467
# Poissons Ratio (y) = 0.74123 0.12349
# Poissons Ratio (z) = 0.18445 0.05244
#
# Static dielectric constant tensor:
#      x y z
#    x 1.896420 0.000000 0.000000 
#    y 0.000000 1.881690 0.000000 
#    z 0.000000 0.000000 1.851580 
# 
# From -- ./inp_files/32706.got.cif
#   From: 2010.05.17/outbox.cif.g08.bks.cpg/sg74_17_cif.got.tgz:32706.got - 2010.06.03 17:57:02.
