data_PCOD9538311
_publ_section_title
;
Structure prediction by ZEFSAII (Michael W. Deem and Ramdas Pophale) SiO2 
 PCOD9538311
Probable space group: I M M A
;
_chemical_formula_sum "Si O2"
_cell_formula_units_Z 72
_cell_length_a 10.827987
_cell_length_b 28.549777
_cell_length_c 12.485262
_cell_angle_alpha 90.000000
_cell_angle_beta 90.000000
_cell_angle_gamma 90.000000
_cell_volume 3859.651622
_symmetry_space_group_name_H-M "I M M A"
_symmetry_group_IT_number 74
_symmetry_cell_setting 'orthorhombic'
loop_
_space_group_symop_operation_xyz
x,y,z
-x,1/2-y,z
x,-y,-z
-x,1/2+y,-z
-x,-y,-z
x,1/2+y,-z
-x,y,z
x,1/2-y,z
1/2+x,1/2+y,1/2+z
1/2-x,-y,1/2+z
1/2+x,1/2-y,1/2-z
1/2-x,y,1/2-z
1/2-x,1/2-y,1/2-z
1/2+x,y,1/2-z
1/2-x,1/2+y,1/2+z
1/2+x,-y,1/2+z
loop_
_atom_site_type_symbol
_atom_site_label
_atom_site_fract_x
_atom_site_fract_y
_atom_site_fract_z
Si Si1 0.353838 0.750000 0.919335
Si Si2 0.500000 0.927277 0.428292
Si Si3 0.293063 0.353057 0.627246
Si Si4 0.705251 0.250000 0.628486
Si Si5 0.750000 0.073902 0.250000
Si Si6 0.000000 0.970028 0.834414
Si Si7 0.647430 0.352691 0.084480
O O1 0.500000 0.750000 0.907232
O O2 0.310371 0.800483 0.877697
O O3 0.318210 0.750000 0.044713
O O4 0.616155 0.894965 0.400661
O O5 0.500000 0.942413 0.552356
O O6 0.500000 0.975018 0.360714
O O7 0.250000 0.356251 0.750000
O O8 0.353852 0.301151 0.611653
O O9 0.182531 0.355795 0.540814
O O10 0.750000 0.250000 0.750000
O O11 0.873614 0.044420 0.225401
O O12 0.717675 0.107754 0.150580
O O13 0.500000 0.356987 0.099517
#
# Coordination Sequence:
#
# PCOD9538311 Si02
#       7
#     8   8  16   8   8   8  16
#     4   8  16  31  52  81 121 159 199 243 293 352
#     4  11  24  43  63  87 122 156 202 258 316 355
#     4  10  21  37  60  90 125 160 200 246 303 367
#     4   8  16  33  51  84 121 158 196 239 295 361
#     4  12  22  43  66  88 120 159 212 252 316 368
#     4  11  26  44  65  89 122 163 206 265 312 364
#     4  10  20  36  60  89 122 164 204 247 299 366
#
# _framework density 18.654534000000002
#
# number of rings (size 3 to 8) (size 9 to 14) (size 15 to 20)
#    0.000    2.000    3.333    0.000    3.111    0.889 
#    6.000    0.000    0.000    4.000    0.000    0.000 
#    0.000    0.000    0.000    0.000    0.000    0.000 
#
# Total GULP energy -200521.559039 kJ/mol
# GULP energy per Si atom -5570.043307 kJ/mol
# Density = 1.861207 g / cm^3
# Si number density = 18.654534 Si / 1000 Ang^3
#
#
#
# Elastic Constant Matrix: (Units=GPa)
#
#
# Indices 1 2 3 4 5 6 
#
# 1 82.6575 50.2207 20.0251 0.0000 0.0000 0.0000
# 2 50.2207 150.9193 32.4104 0.0000 0.0000 0.0000
# 3 20.0251 32.4104 72.9733 0.0001 -0.0002 -0.0001
# 4 0.0000 0.0000 0.0001 24.7195 0.0000 0.0000
# 5 0.0000 0.0000 -0.0002 0.0000 16.0184 0.0000
# 6 0.0000 0.0000 -0.0001 0.0000 0.0000 21.8786
#
#
#
# Elastic Compliance Matrix: (Units=1/GPa)
#
#
# Indices 1 2 3 4 5 6 
#
# 1 0.015467 -0.004682 -0.002165 0.000000 0.000000 0.000000
# 2 -0.004682 0.008742 -0.002598 0.000000 0.000000 0.000000
# 3 -0.002165 -0.002598 0.015452 0.000000 0.000000 0.000000
# 4 0.000000 0.000000 0.000000 0.040454 0.000000 0.000000
# 5 0.000000 0.000000 0.000000 0.000000 0.062428 0.000000
# 6 0.000000 0.000000 0.000000 0.000000 0.000000 0.045707
#
#
# Mechanical properties :
#
#
# Convention : Reuss Voigt Hill
#
# Bulk Modulus (GPa) = 48.14385 56.87361 52.50873
# Shear Modulus (GPa) = 23.35759 26.11622 24.73691
#
# Velocity S-wave (km/s) = 3.54236 3.74571 3.64545
# Velocity P-wave (km/s) = 6.52650 7.01863 6.77703
#
# Compressibility (1/GPa) = 0.02077108
#
# Stress axis : x y z
#
# Youngs Moduli (GPa) = 64.65240 114.39067 64.71834
#
# Poissons Ratio (x) = 0.53558 0.14012
# Poissons Ratio (y) = 0.30271 0.16813
# Poissons Ratio (z) = 0.13997 0.29717
#
# Static dielectric constant tensor:
#      x y z
#    x 1.651820 0.000000 0.000000 
#    y 0.000000 1.670450 0.000000 
#    z 0.000000 0.000000 1.626890 
# 
# From -- ./inp_files/18860.got.cif
#   From: 2010.05.17/outbox.cif.g08.bks.cpg/sg74_10_cif.got.tgz:18860.got - 2010.06.03 17:57:02.
