data_PCOD9538009
_publ_section_title
;
Structure prediction by ZEFSAII (Michael W. Deem and Ramdas Pophale) SiO2 
 PCOD9538009
Probable space group: I M M A
;
_chemical_formula_sum "Si O2"
_cell_formula_units_Z 64
_cell_length_a 13.740896
_cell_length_b 8.583753
_cell_length_c 26.951466
_cell_angle_alpha 90.000000
_cell_angle_beta 90.000000
_cell_angle_gamma 90.000000
_cell_volume 3178.883836
_symmetry_space_group_name_H-M "I M M A"
_symmetry_group_IT_number 74
_symmetry_cell_setting 'orthorhombic'
loop_
_space_group_symop_operation_xyz
x,y,z
-x,1/2-y,z
x,-y,-z
-x,1/2+y,-z
-x,-y,-z
x,1/2+y,-z
-x,y,z
x,1/2-y,z
1/2+x,1/2+y,1/2+z
1/2-x,-y,1/2+z
1/2+x,1/2-y,1/2-z
1/2-x,y,1/2-z
1/2-x,1/2-y,1/2-z
1/2+x,y,1/2-z
1/2-x,1/2+y,1/2+z
1/2+x,-y,1/2+z
loop_
_atom_site_type_symbol
_atom_site_label
_atom_site_fract_x
_atom_site_fract_y
_atom_site_fract_z
Si Si1 0.110156 0.935119 0.378245
Si Si2 0.500000 0.069561 0.577425
Si Si3 0.355780 0.932353 0.770640
Si Si4 0.215416 0.435928 0.053581
Si Si5 0.000000 0.932899 0.817373
O O1 0.115020 0.750000 0.386064
O O2 0.000000 0.987846 0.393772
O O3 0.119089 0.972014 0.319561
O O4 0.203081 0.009249 0.406541
O O5 0.500000 0.250000 0.562370
O O6 0.603796 0.995526 0.561361
O O7 0.500000 0.044685 0.636373
O O8 0.369900 0.750000 0.784205
O O9 0.250000 0.958896 0.750000
O O10 0.413931 0.961045 0.720517
O O11 0.212502 0.250000 0.054148
O O12 0.246910 0.500000 0.000000
O O13 0.000000 0.750000 0.833915
#
# Coordination Sequence:
#
# PCOD9538009 Si02
#       5
#    16   8  16  16   8
#     4  11  24  42  65  96 134 174 220 273 329 390
#     4  12  25  43  68 100 137 171 215 272 333 396
#     4  10  20  35  58  88 124 168 215 263 316 381
#     4  12  26  46  71  97 129 170 220 274 334 396
#     4  10  20  35  57  90 129 169 213 254 311 382
#
# _framework density 20.132853999999998
#
# number of rings (size 3 to 8) (size 9 to 14) (size 15 to 20)
#    0.000    1.000    1.250    6.000    0.000    5.500 
#    0.000    0.000    0.000    0.000    0.000    0.000 
#    0.000    0.000    0.000    0.000    0.000    0.000 
#
# Total GULP energy -178577.835634 kJ/mol
# GULP energy per Si atom -5580.557364 kJ/mol
# Density = 2.008703 g / cm^3
# Si number density = 20.132854 Si / 1000 Ang^3
#
#
#
# Elastic Constant Matrix: (Units=GPa)
#
#
# Indices 1 2 3 4 5 6 
#
# 1 142.4647 42.2313 12.9082 0.0000 0.0000 0.0000
# 2 42.2313 106.8106 24.8136 0.0000 0.0000 0.0000
# 3 12.9082 24.8136 75.5104 0.0000 0.0000 0.0000
# 4 0.0000 0.0000 0.0000 38.1858 0.0000 0.0000
# 5 0.0000 0.0000 0.0000 0.0000 33.7976 0.0000
# 6 0.0000 0.0000 0.0000 0.0000 0.0000 -9.4214
#
#
#
# Elastic Compliance Matrix: (Units=1/GPa)
#
#
# Indices 1 2 3 4 5 6 
#
# 1 0.007960 -0.003065 -0.000353 0.000000 0.000000 0.000000
# 2 -0.003065 0.011316 -0.003195 0.000000 0.000000 0.000000
# 3 -0.000353 -0.003195 0.014353 0.000000 0.000000 0.000000
# 4 0.000000 0.000000 0.000000 0.026188 0.000000 0.000000
# 5 0.000000 0.000000 0.000000 0.000000 0.029588 0.000000
# 6 0.000000 0.000000 0.000000 0.000000 0.000000 -0.106141
#
#
# Mechanical properties :
#
#
# Convention : Reuss Voigt Hill
#
# Bulk Modulus (GPa) = 49.01204 53.85465 51.43335
# Shear Modulus (GPa) = 1518.86253 28.83457 773.84855
#
# Velocity S-wave (km/s) = 27.49650 3.78857 19.62665
# Velocity P-wave (km/s) = 32.13213 6.77830 23.22089
#
# Compressibility (1/GPa) = 0.02040315
#
# Stress axis : x y z
#
# Youngs Moduli (GPa) = 125.62950 88.36700 69.66954
#
# Poissons Ratio (x) = 0.27085 0.02463
# Poissons Ratio (y) = 0.38507 0.22258
# Poissons Ratio (z) = 0.04441 0.28231
#
# Static dielectric constant tensor:
#      x y z
#    x 1.673530 0.000000 0.000000 
#    y 0.000000 1.712670 0.000000 
#    z 0.000000 0.000000 1.683390 
# 
# From -- ./inp_files/66638.got.cif
#   From: 2010.05.17/outbox.cif.g08.bks.cpg/sg74_34_cif.got.tgz:66638.got - 2010.06.03 17:57:02.
