data_PCOD9538358
_publ_section_title
;
Structure prediction by ZEFSAII (Michael W. Deem and Ramdas Pophale) SiO2 
 PCOD9538358
Probable space group: I M M A
;
_chemical_formula_sum "Si O2"
_cell_formula_units_Z 88
_cell_length_a 15.300854
_cell_length_b 21.342306
_cell_length_c 13.547463
_cell_angle_alpha 90.000000
_cell_angle_beta 90.000000
_cell_angle_gamma 90.000000
_cell_volume 4423.998664
_symmetry_space_group_name_H-M "I M M A"
_symmetry_group_IT_number 74
_symmetry_cell_setting 'orthorhombic'
loop_
_space_group_symop_operation_xyz
x,y,z
-x,1/2-y,z
x,-y,-z
-x,1/2+y,-z
-x,-y,-z
x,1/2+y,-z
-x,y,z
x,1/2-y,z
1/2+x,1/2+y,1/2+z
1/2-x,-y,1/2+z
1/2+x,1/2-y,1/2-z
1/2-x,y,1/2-z
1/2-x,1/2-y,1/2-z
1/2+x,y,1/2-z
1/2-x,1/2+y,1/2+z
1/2+x,-y,1/2+z
loop_
_atom_site_type_symbol
_atom_site_label
_atom_site_fract_x
_atom_site_fract_y
_atom_site_fract_z
Si Si1 0.140340 0.750000 0.869372
Si Si2 0.331756 0.037541 0.186015
Si Si3 0.348236 0.250000 0.133541
Si Si4 0.500000 0.036100 0.322765
Si Si5 0.500000 0.344764 0.453106
Si Si6 0.166002 0.111787 0.690877
Si Si7 0.000000 0.389989 0.830542
Si Si8 0.898063 0.626335 0.522101
O O1 0.243961 0.750000 0.890491
O O2 0.136032 0.750000 0.750682
O O3 0.085756 0.808610 0.912858
O O4 0.250000 0.061638 0.250000
O O5 0.416650 0.046827 0.253364
O O6 0.321473 0.962974 0.171992
O O7 0.347623 0.072835 0.083610
O O8 0.390600 0.188429 0.087246
O O9 0.500000 0.085629 0.409776
O O10 0.500000 0.964084 0.356975
O O11 0.500000 0.349134 0.571034
O O12 0.250000 0.135466 0.750000
O O13 0.145339 0.138965 0.583748
O O14 0.084008 0.120724 0.762562
O O15 0.000000 0.608260 0.508039
#
# Coordination Sequence:
#
# PCOD9538358 Si02
#       8
#     8  16   8   8   8  16   8  16
#     4  10  26  45  64  88 127 160 205 265 308 385
#     4  10  22  37  63  99 132 166 208 257 320 386
#     4  11  27  44  64  94 121 156 215 266 318 369
#     4  10  20  36  62  98 132 163 202 261 317 377
#     4  11  23  40  65  89 124 171 206 242 327 374
#     4  10  23  42  63  95 132 168 211 262 311 378
#     4  10  22  40  63  95 133 161 209 261 308 380
#     4  12  24  41  69  92 127 171 215 265 325 376
#
# _framework density 19.891507000000001
#
# number of rings (size 3 to 8) (size 9 to 14) (size 15 to 20)
#    0.000    1.455    1.818    2.182   10.182    0.727 
#    0.000    7.727    0.000    0.000    0.000    0.000 
#    0.000    0.000    0.000    0.000    0.000    0.000 
#
# Total GULP energy -245957.452885 kJ/mol
# GULP energy per Si atom -5589.942111 kJ/mol
# Density = 1.984623 g / cm^3
# Si number density = 19.891507 Si / 1000 Ang^3
#
#
#
# Elastic Constant Matrix: (Units=GPa)
#
#
# Indices 1 2 3 4 5 6 
#
# 1 133.8013 14.5375 48.3988 0.0000 0.0000 0.0000
# 2 14.5375 20.5623 30.5650 0.0000 0.0000 0.0000
# 3 48.3988 30.5650 133.9586 0.0000 0.0000 0.0001
# 4 0.0000 0.0000 0.0000 33.5130 0.0000 0.0001
# 5 0.0000 0.0000 0.0000 0.0000 1.5640 0.0000
# 6 0.0000 0.0000 0.0001 0.0001 0.0000 -155.3708
#
#
#
# Elastic Compliance Matrix: (Units=1/GPa)
#
#
# Indices 1 2 3 4 5 6 
#
# 1 0.008664 -0.002228 -0.002622 0.000000 0.000000 0.000000
# 2 -0.002228 0.074165 -0.016117 0.000000 0.000000 0.000000
# 3 -0.002622 -0.016117 0.012090 0.000000 0.000000 0.000000
# 4 0.000000 0.000000 0.000000 0.029839 0.000000 0.000000
# 5 0.000000 0.000000 0.000000 0.000000 0.639386 0.000000
# 6 0.000000 0.000000 0.000000 0.000000 0.000000 -0.006436
#
#
# Mechanical properties :
#
#
# Convention : Reuss Voigt Hill
#
# Bulk Modulus (GPa) = 18.87330 52.81386 35.84358
# Shear Modulus (GPa) = 6.11767 -11.07070 -2.47651
#
# Velocity S-wave (km/s) = 1.75562 -2.36170 -1.11701
# Velocity P-wave (km/s) = 3.69030 4.37856 4.04908
#
# Compressibility (1/GPa) = 0.05298490
#
# Stress axis : x y z
#
# Youngs Moduli (GPa) = 115.41636 13.48338 82.71497
#
# Poissons Ratio (x) = 0.03004 0.21688
# Poissons Ratio (y) = 0.25716 1.33313
# Poissons Ratio (z) = 0.30262 0.21731
#
# Static dielectric constant tensor:
#      x y z
#    x 1.700970 0.000000 0.000000 
#    y 0.000000 1.707340 0.000000 
#    z 0.000000 0.000000 1.660550 
# 
# From -- ./inp_files/20728.got.cif
#   From: 2010.05.17/outbox.cif.g08.bks.cpg/sg74_11_cif.got.tgz:20728.got - 2010.06.03 17:57:02.
