data_PCOD9538791
_publ_section_title
;
Structure prediction by ZEFSAII (Michael W. Deem and Ramdas Pophale) SiO2 
 PCOD9538791
Probable space group: I M M A
;
_chemical_formula_sum "Si O2"
_cell_formula_units_Z 100
_cell_length_a 15.335203
_cell_length_b 15.224555
_cell_length_c 22.367984
_cell_angle_alpha 90.000000
_cell_angle_beta 90.000000
_cell_angle_gamma 90.000000
_cell_volume 5222.289942
_symmetry_space_group_name_H-M "I M M A"
_symmetry_group_IT_number 74
_symmetry_cell_setting 'orthorhombic'
loop_
_space_group_symop_operation_xyz
x,y,z
-x,1/2-y,z
x,-y,-z
-x,1/2+y,-z
-x,-y,-z
x,1/2+y,-z
-x,y,z
x,1/2-y,z
1/2+x,1/2+y,1/2+z
1/2-x,-y,1/2+z
1/2+x,1/2-y,1/2-z
1/2-x,y,1/2-z
1/2-x,1/2-y,1/2-z
1/2+x,y,1/2-z
1/2-x,1/2+y,1/2+z
1/2+x,-y,1/2+z
loop_
_atom_site_type_symbol
_atom_site_label
_atom_site_fract_x
_atom_site_fract_y
_atom_site_fract_z
Si Si1 0.596640 0.105334 0.504066
Si Si2 0.172827 0.978732 0.633121
Si Si3 0.839387 0.147376 0.125259
Si Si4 0.403873 0.349590 0.045121
Si Si5 0.500000 0.250000 0.206315
Si Si6 0.274364 0.151077 0.934076
Si Si7 0.147030 0.114890 0.254920
O O1 0.500000 0.128511 0.525701
O O2 0.609094 0.139490 0.436437
O O3 0.674459 0.138969 0.545495
O O4 0.603964 0.000000 0.500000
O O5 0.255812 0.915164 0.620775
O O6 0.103061 0.928245 0.592105
O O7 0.152548 0.971000 0.703404
O O8 0.195281 0.074931 0.610246
O O9 0.816955 0.250000 0.133399
O O10 0.884576 0.114789 0.186311
O O11 0.500000 0.352289 0.017218
O O12 0.395302 0.250000 0.071954
O O13 0.330922 0.359161 0.994757
O O14 0.578076 0.324482 0.211380
O O15 0.288203 0.250000 0.911736
O O16 0.250000 0.144627 0.250000
#
# Coordination Sequence:
#
# PCOD9538791 Si02
#       7
#    16  16  16  16   4  16  16
#     4  11  22  37  60  93 125 161 205 249 302 369
#     4  11  22  37  57  82 120 156 201 251 298 352
#     4  11  21  37  60  85 123 161 186 236 302 366
#     4  10  21  34  56  84 116 153 195 242 302 367
#     4  12  22  40  60  94 126 168 206 228 298 388
#     4  11  22  41  59  82 116 162 205 255 304 352
#     4  10  25  38  57  87 128 162 197 244 297 366
#
# _framework density 19.148686999999999
#
# number of rings (size 3 to 8) (size 9 to 14) (size 15 to 20)
#    0.000    1.280    4.000    1.680    6.720    2.560 
#    0.000    0.000    0.000    4.320    0.000    0.000 
#    0.000    0.000    0.000    0.000    0.000    0.160 
#
# Total GULP energy -278387.713880 kJ/mol
# GULP energy per Si atom -5567.754278 kJ/mol
# Density = 1.910510 g / cm^3
# Si number density = 19.148687 Si / 1000 Ang^3
#
#
#
# Elastic Constant Matrix: (Units=GPa)
#
#
# Indices 1 2 3 4 5 6 
#
# 1 92.9477 25.1659 4.7701 0.0000 0.0000 0.0000
# 2 25.1659 132.9600 64.5231 0.0000 0.0000 0.0000
# 3 4.7701 64.5231 67.3714 0.0000 0.0000 0.0000
# 4 0.0000 0.0000 0.0000 7.3651 0.0000 0.0000
# 5 0.0000 0.0000 0.0000 0.0000 -2.0309 0.0000
# 6 0.0000 0.0000 0.0000 0.0000 0.0000 21.7540
#
#
#
# Elastic Compliance Matrix: (Units=1/GPa)
#
#
# Indices 1 2 3 4 5 6 
#
# 1 0.011541 -0.003340 0.002382 0.000000 0.000000 0.000000
# 2 -0.003340 0.015019 -0.014147 0.000000 0.000000 0.000000
# 3 0.002382 -0.014147 0.028224 0.000000 0.000000 0.000000
# 4 0.000000 0.000000 0.000000 0.135776 0.000000 0.000000
# 5 0.000000 0.000000 0.000000 0.000000 -0.492401 0.000000
# 6 0.000000 0.000000 0.000000 0.000000 0.000000 0.045969
#
#
# Mechanical properties :
#
#
# Convention : Reuss Voigt Hill
#
# Bulk Modulus (GPa) = 40.69677 53.57748 47.13712
# Shear Modulus (GPa) = -22.99156 18.67230 -2.15963
#
# Velocity S-wave (km/s) = -3.46885 3.12608 -1.06314
# Velocity P-wave (km/s) = 2.29244 6.40861 4.81277
#
# Compressibility (1/GPa) = 0.02457198
#
# Stress axis : x y z
#
# Youngs Moduli (GPa) = 86.64840 66.58373 35.43142
#
# Poissons Ratio (x) = 0.22241 -0.08440
# Poissons Ratio (y) = 0.28943 0.50126
# Poissons Ratio (z) = -0.20639 0.94197
#
# Static dielectric constant tensor:
#      x y z
#    x 1.713260 0.000000 0.000000 
#    y 0.000000 1.666910 0.000000 
#    z 0.000000 0.000000 1.715440 
# 
# From -- ./inp_files/60036.got.cif
#   From: 2010.05.17/outbox.cif.g08.bks.cpg/sg74_31_cif.got.tgz:60036.got - 2010.06.03 17:57:02.
