data_PCOD9538708
_publ_section_title
;
Structure prediction by ZEFSAII (Michael W. Deem and Ramdas Pophale) SiO2 
 PCOD9538708
Probable space group: I M M A
;
_chemical_formula_sum "Si O2"
_cell_formula_units_Z 64
_cell_length_a 9.545530
_cell_length_b 27.696946
_cell_length_c 13.018834
_cell_angle_alpha 90.000000
_cell_angle_beta 90.000000
_cell_angle_gamma 90.000000
_cell_volume 3441.945748
_symmetry_space_group_name_H-M "I M M A"
_symmetry_group_IT_number 74
_symmetry_cell_setting 'orthorhombic'
loop_
_space_group_symop_operation_xyz
x,y,z
-x,1/2-y,z
x,-y,-z
-x,1/2+y,-z
-x,-y,-z
x,1/2+y,-z
-x,y,z
x,1/2-y,z
1/2+x,1/2+y,1/2+z
1/2-x,-y,1/2+z
1/2+x,1/2-y,1/2-z
1/2-x,y,1/2-z
1/2-x,1/2-y,1/2-z
1/2+x,y,1/2-z
1/2-x,1/2+y,1/2+z
1/2+x,-y,1/2+z
loop_
_atom_site_type_symbol
_atom_site_label
_atom_site_fract_x
_atom_site_fract_y
_atom_site_fract_z
Si Si1 0.151170 0.489966 0.378893
Si Si2 0.171125 0.750000 0.141911
Si Si3 0.250000 0.577369 0.250000
Si Si4 0.331902 0.100290 0.348851
Si Si5 0.333980 0.646368 0.437333
O O1 0.156541 0.500000 0.500000
O O2 0.157103 0.539455 0.314946
O O3 0.281714 0.455406 0.355523
O O4 0.000000 0.465860 0.356828
O O5 0.250000 0.750000 0.250000
O O6 0.214324 0.700751 0.084882
O O7 0.000000 0.750000 0.154468
O O8 0.308998 0.612239 0.338748
O O9 0.500000 0.104237 0.340444
O O10 0.250000 0.120725 0.250000
O O11 0.281094 0.124049 0.455864
O O12 0.500000 0.649216 0.450260
#
# Coordination Sequence:
#
# PCOD9538708 Si02
#       5
#    16   8   8  16  16
#     4  11  23  36  53  85 123 160 199 240 286 351
#     4  10  20  40  65  92 120 150 191 241 300 359
#     4  12  20  35  58  90 124 159 192 236 300 358
#     4  11  23  40  59  83 117 161 206 246 294 347
#     4  10  22  38  60  89 121 157 193 242 303 361
#
# _framework density 18.594134
#
# number of rings (size 3 to 8) (size 9 to 14) (size 15 to 20)
#    0.000    1.250    5.000    1.500    0.000    1.500 
#    0.000    3.125    0.000    0.000    0.000    0.000 
#    0.000    0.000    0.000    0.000    0.000    0.000 
#
# Total GULP energy -178314.836438 kJ/mol
# GULP energy per Si atom -5572.338639 kJ/mol
# Density = 1.855181 g / cm^3
# Si number density = 18.594134 Si / 1000 Ang^3
#
#
#
# Elastic Constant Matrix: (Units=GPa)
#
#
# Indices 1 2 3 4 5 6 
#
# 1 62.3948 20.4405 27.4891 0.0000 0.0000 0.0000
# 2 20.4405 126.0705 66.9925 0.0000 0.0000 0.0000
# 3 27.4891 66.9925 166.8729 -0.0001 0.0000 0.0003
# 4 0.0000 0.0000 -0.0001 20.9422 0.0000 0.0000
# 5 0.0000 0.0000 0.0000 0.0000 18.3426 0.0000
# 6 0.0000 0.0000 0.0003 0.0000 0.0000 39.2920
#
#
#
# Elastic Compliance Matrix: (Units=1/GPa)
#
#
# Indices 1 2 3 4 5 6 
#
# 1 0.017552 -0.001664 -0.002223 0.000000 0.000000 0.000000
# 2 -0.001664 0.010241 -0.003837 0.000000 0.000000 0.000000
# 3 -0.002223 -0.003837 0.007899 0.000000 0.000000 0.000000
# 4 0.000000 0.000000 0.000000 0.047750 0.000000 0.000000
# 5 0.000000 0.000000 0.000000 0.000000 0.054518 0.000000
# 6 0.000000 0.000000 0.000000 0.000000 0.000000 0.025450
#
#
# Mechanical properties :
#
#
# Convention : Reuss Voigt Hill
#
# Bulk Modulus (GPa) = 49.40087 65.02025 57.21056
# Shear Modulus (GPa) = 26.93859 31.74311 29.34085
#
# Velocity S-wave (km/s) = 3.81040 4.13626 3.97667
# Velocity P-wave (km/s) = 6.78119 7.60629 7.20556
#
# Compressibility (1/GPa) = 0.02024256
#
# Stress axis : x y z
#
# Youngs Moduli (GPa) = 56.97466 97.64724 126.59429
#
# Poissons Ratio (x) = 0.16252 0.28143
# Poissons Ratio (y) = 0.09483 0.48576
# Poissons Ratio (z) = 0.12666 0.37469
#
# Static dielectric constant tensor:
#      x y z
#    x 1.658410 0.000000 0.000000 
#    y 0.000000 1.654480 0.000000 
#    z 0.000000 0.000000 1.688160 
# 
# From -- ./inp_files/28869.got.cif
#   From: 2010.05.17/outbox.cif.g08.bks.cpg/sg74_15_cif.got.tgz:28869.got - 2010.06.03 17:57:02.
