data_PCOD9538607
_publ_section_title
;
Structure prediction by ZEFSAII (Michael W. Deem and Ramdas Pophale) SiO2 
 PCOD9538607
Probable space group: I M M A
;
_chemical_formula_sum "Si O2"
_cell_formula_units_Z 96
_cell_length_a 21.965566
_cell_length_b 21.603543
_cell_length_c 10.188264
_cell_angle_alpha 90.000000
_cell_angle_beta 90.000000
_cell_angle_gamma 90.000000
_cell_volume 4834.678174
_symmetry_space_group_name_H-M "I M M A"
_symmetry_group_IT_number 74
_symmetry_cell_setting 'orthorhombic'
loop_
_space_group_symop_operation_xyz
x,y,z
-x,1/2-y,z
x,-y,-z
-x,1/2+y,-z
-x,-y,-z
x,1/2+y,-z
-x,y,z
x,1/2-y,z
1/2+x,1/2+y,1/2+z
1/2-x,-y,1/2+z
1/2+x,1/2-y,1/2-z
1/2-x,y,1/2-z
1/2-x,1/2-y,1/2-z
1/2+x,y,1/2-z
1/2-x,1/2+y,1/2+z
1/2+x,-y,1/2+z
loop_
_atom_site_type_symbol
_atom_site_label
_atom_site_fract_x
_atom_site_fract_y
_atom_site_fract_z
Si Si1 0.605188 0.348083 0.622024
Si Si2 0.066709 0.603267 0.848082
Si Si3 0.325476 0.750000 0.958137
Si Si4 0.685793 0.115548 0.169881
Si Si5 0.357726 0.000000 0.000000
Si Si6 0.209209 0.250000 0.880095
Si Si7 0.930235 0.531770 0.237325
Si Si8 0.565497 0.750000 0.169817
O O1 0.572897 0.358683 0.482709
O O2 0.666935 0.309880 0.608935
O O3 0.612554 0.416674 0.675503
O O4 0.570150 0.308436 0.732134
O O5 0.127977 0.611430 0.766422
O O6 0.066344 0.528637 0.854298
O O7 0.000000 0.619359 0.787967
O O8 0.326781 0.683765 0.887870
O O9 0.256958 0.750000 0.007118
O O10 0.377555 0.750000 0.071041
O O11 0.750000 0.111563 0.250000
O O12 0.679495 0.059497 0.060855
O O13 0.401825 0.017921 0.879241
O O14 0.250000 0.250000 0.750000
O O15 0.000000 0.554723 0.248820
O O16 0.500000 0.750000 0.101250
#
# Coordination Sequence:
#
# PCOD9538607 Si02
#       8
#    16  16   8  16   8   8  16   8
#     4  11  21  38  63  91 129 168 213 271 318 392
#     4  10  22  41  65  99 135 172 219 269 337 402
#     4  12  24  46  68  88 133 172 229 273 333 409
#     4  11  25  46  66  97 130 180 227 280 338 403
#     4  10  23  42  64  96 133 166 226 272 332 400
#     4  11  24  43  61  90 121 169 219 263 332 387
#     4  10  20  38  65  96 131 171 210 264 334 399
#     4  11  23  36  59  97 128 164 218 272 327 383
#
# _framework density 19.856544
#
# number of rings (size 3 to 8) (size 9 to 14) (size 15 to 20)
#    0.000    1.333    1.667    4.500    0.000    4.000 
#   12.000    1.667    0.000    0.000    0.000    0.000 
#    0.000    0.000    0.000    0.000    0.000    0.000 
#
# Total GULP energy -267315.267132 kJ/mol
# GULP energy per Si atom -5569.068065 kJ/mol
# Density = 1.981135 g / cm^3
# Si number density = 19.856544 Si / 1000 Ang^3
#
#
#
# Elastic Constant Matrix: (Units=GPa)
#
#
# Indices 1 2 3 4 5 6 
#
# 1 160.4772 68.4341 58.4030 0.0000 0.0000 0.0000
# 2 68.4341 137.0338 53.1787 0.0000 0.0000 0.0000
# 3 58.4030 53.1787 74.4013 0.0000 0.0000 0.0000
# 4 0.0000 0.0000 0.0000 41.6295 0.0000 0.0000
# 5 0.0000 0.0000 0.0000 0.0000 4.1074 0.0000
# 6 0.0000 0.0000 0.0000 0.0000 0.0000 230.0945
#
#
#
# Elastic Compliance Matrix: (Units=1/GPa)
#
#
# Indices 1 2 3 4 5 6 
#
# 1 0.009308 -0.002509 -0.005513 0.000000 0.000000 0.000000
# 2 -0.002509 0.010775 -0.005732 0.000000 0.000000 0.000000
# 3 -0.005513 -0.005732 0.021865 0.000000 0.000000 0.000000
# 4 0.000000 0.000000 0.000000 0.024021 0.000000 0.000000
# 5 0.000000 0.000000 0.000000 0.000000 0.243463 0.000000
# 6 0.000000 0.000000 0.000000 0.000000 0.000000 0.004346
#
#
# Mechanical properties :
#
#
# Convention : Reuss Voigt Hill
#
# Bulk Modulus (GPa) = 69.25249 81.32711 75.28980
# Shear Modulus (GPa) = 14.44673 67.95939 41.20306
#
# Velocity S-wave (km/s) = 2.70025 5.85658 4.56020
# Velocity P-wave (km/s) = 6.68385 9.31552 8.10718
#
# Compressibility (1/GPa) = 0.01443992
#
# Stress axis : x y z
#
# Youngs Moduli (GPa) = 107.43854 92.80964 45.73465
#
# Poissons Ratio (x) = 0.23283 0.25214
# Poissons Ratio (y) = 0.26953 0.26215
# Poissons Ratio (z) = 0.59232 0.53199
#
# Static dielectric constant tensor:
#      x y z
#    x 1.718810 0.000000 0.000000 
#    y 0.000000 1.696700 0.000000 
#    z 0.000000 0.000000 1.679870 
# 
# From -- ./inp_files/23996.got.cif
#   From: 2010.05.17/outbox.cif.g08.bks.cpg/sg74_12_cif.got.tgz:23996.got - 2010.06.03 17:57:02.
