data_PCOD9538757
_publ_section_title
;
Structure prediction by ZEFSAII (Michael W. Deem and Ramdas Pophale) SiO2 
 PCOD9538757
Probable space group: I M M A
;
_chemical_formula_sum "Si O2"
_cell_formula_units_Z 56
_cell_length_a 5.385401
_cell_length_b 15.566993
_cell_length_c 34.191628
_cell_angle_alpha 90.000000
_cell_angle_beta 90.000000
_cell_angle_gamma 90.000000
_cell_volume 2866.438026
_symmetry_space_group_name_H-M "I M M A"
_symmetry_group_IT_number 74
_symmetry_cell_setting 'orthorhombic'
loop_
_space_group_symop_operation_xyz
x,y,z
-x,1/2-y,z
x,-y,-z
-x,1/2+y,-z
-x,-y,-z
x,1/2+y,-z
-x,y,z
x,1/2-y,z
1/2+x,1/2+y,1/2+z
1/2-x,-y,1/2+z
1/2+x,1/2-y,1/2-z
1/2-x,y,1/2-z
1/2-x,1/2-y,1/2-z
1/2+x,y,1/2-z
1/2-x,1/2+y,1/2+z
1/2+x,-y,1/2+z
loop_
_atom_site_type_symbol
_atom_site_label
_atom_site_fract_x
_atom_site_fract_y
_atom_site_fract_z
Si Si1 0.500000 0.384166 0.228143
Si Si2 0.500000 0.750000 0.609842
Si Si3 0.500000 0.924278 0.260039
Si Si4 0.500000 0.934971 0.582195
Si Si5 0.000000 0.065368 0.852001
Si Si6 0.000000 0.987981 0.453617
Si Si7 0.500000 0.352487 0.888329
Si Si8 0.500000 0.250000 0.160565
O O1 0.250000 0.356180 0.250000
O O2 0.500000 0.488582 0.232898
O O3 0.500000 0.336643 0.186870
O O4 0.500000 0.833980 0.583766
O O5 0.749308 0.750000 0.635590
O O6 0.750000 0.875783 0.250000
O O7 0.500000 0.946999 0.305638
O O8 0.251139 0.968474 0.561982
O O9 0.500000 0.974180 0.625955
O O10 0.250436 0.113960 0.866351
O O11 0.000000 0.000000 0.500000
O O12 0.000000 0.895131 0.431807
O O13 0.500000 0.250000 0.889866
#
# Coordination Sequence:
#
# PCOD9538757 Si02
#       8
#     8   4   8   8   8   8   8   4
#     4  10  21  35  49  75 109 150 213 268 314 344
#     4  12  26  39  58  88 132 174 218 238 304 366
#     4  10  21  33  55  81 111 151 210 250 308 363
#     4  10  23  40  61  90 127 170 205 239 297 363
#     4  10  21  38  62  85 124 158 199 259 304 358
#     4  10  21  43  70  95 129 156 195 246 304 360
#     4  10  21  40  66  97 116 153 199 244 305 371
#     4  12  24  35  56  76 122 174 206 280 298 342
#
# _framework density 19.536442999999998
#
# number of rings (size 3 to 8) (size 9 to 14) (size 15 to 20)
#    0.000    1.714    0.000    3.857    8.000    0.000 
#    2.571    0.000    0.000    8.571    0.000    0.000 
#    0.000    0.000    0.000    0.000    0.000    0.000 
#
# Total GULP energy -156311.400866 kJ/mol
# GULP energy per Si atom -5582.550031 kJ/mol
# Density = 1.949198 g / cm^3
# Si number density = 19.536443 Si / 1000 Ang^3
#
#
#
# Elastic Constant Matrix: (Units=GPa)
#
#
# Indices 1 2 3 4 5 6 
#
# 1 182.4228 20.1807 31.3712 0.0000 0.0000 0.0000
# 2 20.1807 106.0456 9.9503 0.0000 0.0000 0.0000
# 3 31.3712 9.9503 92.7943 0.0000 0.0000 0.0000
# 4 0.0000 0.0000 0.0000 4.5807 0.0000 0.0000
# 5 0.0000 0.0000 0.0000 0.0000 25.3682 0.0000
# 6 0.0000 0.0000 0.0000 0.0000 0.0000 22.6690
#
#
#
# Elastic Compliance Matrix: (Units=1/GPa)
#
#
# Indices 1 2 3 4 5 6 
#
# 1 0.005913 -0.000947 -0.001897 0.000000 0.000000 0.000000
# 2 -0.000947 0.009677 -0.000717 0.000000 0.000000 0.000000
# 3 -0.001897 -0.000717 0.011495 0.000000 0.000000 0.000000
# 4 0.000000 0.000000 0.000000 0.218309 0.000000 0.000000
# 5 0.000000 0.000000 0.000000 0.000000 0.039419 0.000000
# 6 0.000000 0.000000 0.000000 0.000000 0.000000 0.044113
#
#
# Mechanical properties :
#
#
# Convention : Reuss Voigt Hill
#
# Bulk Modulus (GPa) = 50.09751 56.02967 53.06359
# Shear Modulus (GPa) = 14.58983 31.84094 23.21538
#
# Velocity S-wave (km/s) = 2.73573 4.04149 3.45093
# Velocity P-wave (km/s) = 5.97308 7.10774 6.56497
#
# Compressibility (1/GPa) = 0.01996107
#
# Stress axis : x y z
#
# Youngs Moduli (GPa) = 169.12315 103.33267 86.99493
#
# Poissons Ratio (x) = 0.09788 0.16506
# Poissons Ratio (y) = 0.16019 0.06242
# Poissons Ratio (z) = 0.32089 0.07414
#
# Static dielectric constant tensor:
#      x y z
#    x 1.699250 0.000000 0.000000 
#    y 0.000000 1.670300 0.000000 
#    z 0.000000 0.000000 1.667330 
# 
# From -- ./inp_files/69339.got.cif
#   From: 2010.05.17/outbox.cif.g08.bks.cpg/sg74_35_cif.got.tgz:69339.got - 2010.06.03 17:57:02.
