data_PCOD9538793
_publ_section_title
;
Structure prediction by ZEFSAII (Michael W. Deem and Ramdas Pophale) SiO2 
 PCOD9538793
Probable space group: I M M A
;
_chemical_formula_sum "Si O2"
_cell_formula_units_Z 96
_cell_length_a 15.319145
_cell_length_b 20.859751
_cell_length_c 14.928421
_cell_angle_alpha 90.000000
_cell_angle_beta 90.000000
_cell_angle_gamma 90.000000
_cell_volume 4770.429930
_symmetry_space_group_name_H-M "I M M A"
_symmetry_group_IT_number 74
_symmetry_cell_setting 'orthorhombic'
loop_
_space_group_symop_operation_xyz
x,y,z
-x,1/2-y,z
x,-y,-z
-x,1/2+y,-z
-x,-y,-z
x,1/2+y,-z
-x,y,z
x,1/2-y,z
1/2+x,1/2+y,1/2+z
1/2-x,-y,1/2+z
1/2+x,1/2-y,1/2-z
1/2-x,y,1/2-z
1/2-x,1/2-y,1/2-z
1/2+x,y,1/2-z
1/2-x,1/2+y,1/2+z
1/2+x,-y,1/2+z
loop_
_atom_site_type_symbol
_atom_site_label
_atom_site_fract_x
_atom_site_fract_y
_atom_site_fract_z
Si Si1 0.400687 0.939607 0.601574
Si Si2 0.799734 0.675971 0.838795
Si Si3 0.402780 0.371370 0.579011
Si Si4 0.781241 0.821754 0.470343
Si Si5 0.897879 0.445446 0.570815
Si Si6 0.652736 0.955106 0.268412
O O1 0.500000 0.960195 0.616597
O O2 0.380930 0.868994 0.639615
O O3 0.388568 0.928259 0.495205
O O4 0.342028 0.986089 0.661485
O O5 0.825563 0.750000 0.829388
O O6 0.750000 0.655104 0.750000
O O7 0.734128 0.671303 0.922994
O O8 0.500000 0.344854 0.561022
O O9 0.317763 0.327847 0.567467
O O10 0.399418 0.401511 0.677191
O O11 0.814990 0.750000 0.450785
O O12 0.840371 0.880851 0.438257
O O13 0.868815 0.500000 0.500000
O O14 0.888050 0.470785 0.672501
O O15 0.000000 0.431634 0.553133
O O16 0.750000 0.931440 0.250000
#
# Coordination Sequence:
#
# PCOD9538793 Si02
#       6
#    16  16  16  16  16  16
#     4  10  21  34  57  89 119 153 194 248 310 370
#     4   9  19  35  56  84 117 156 199 243 298 365
#     4  10  21  39  62  92 125 155 196 251 313 372
#     4  10  22  41  65  92 124 163 206 254 309 363
#     4  11  26  44  62  89 125 166 213 256 298 356
#     4  12  23  37  62  88 120 161 202 253 309 364
#
# _framework density 20.123971999999998
#
# number of rings (size 3 to 8) (size 9 to 14) (size 15 to 20)
#    0.000    1.667    1.667    2.500    7.000    2.333 
#    0.000    5.000    0.000    5.000    0.000    0.000 
#    0.000    0.000    0.000    0.000    0.000    0.000 
#
# Total GULP energy -267773.401770 kJ/mol
# GULP energy per Si atom -5578.612537 kJ/mol
# Density = 2.007817 g / cm^3
# Si number density = 20.123972 Si / 1000 Ang^3
#
#
#
# Elastic Constant Matrix: (Units=GPa)
#
#
# Indices 1 2 3 4 5 6 
#
# 1 84.7168 36.3670 19.4441 0.0000 0.0000 0.0000
# 2 36.3670 72.3868 25.2712 -0.0001 0.0000 0.0000
# 3 19.4441 25.2712 125.2549 -0.0001 0.0000 0.0000
# 4 0.0000 -0.0001 -0.0001 17.9149 0.0000 0.0000
# 5 0.0000 0.0000 0.0000 0.0000 24.4103 0.0000
# 6 0.0000 0.0000 0.0000 0.0000 0.0000 14.9950
#
#
#
# Elastic Compliance Matrix: (Units=1/GPa)
#
#
# Indices 1 2 3 4 5 6 
#
# 1 0.015139 -0.007299 -0.000877 0.000000 0.000000 0.000000
# 2 -0.007299 0.018381 -0.002575 0.000000 0.000000 0.000000
# 3 -0.000877 -0.002575 0.008640 0.000000 0.000000 0.000000
# 4 0.000000 0.000000 0.000000 0.055819 0.000000 0.000000
# 5 0.000000 0.000000 0.000000 0.000000 0.040966 0.000000
# 6 0.000000 0.000000 0.000000 0.000000 0.000000 0.066689
#
#
# Mechanical properties :
#
#
# Convention : Reuss Voigt Hill
#
# Bulk Modulus (GPa) = 48.41442 49.39146 48.90294
# Shear Modulus (GPa) = 21.36538 24.88246 23.12392
#
# Velocity S-wave (km/s) = 3.26189 3.52015 3.39348
# Velocity P-wave (km/s) = 6.18845 6.41239 6.30142
#
# Compressibility (1/GPa) = 0.02065500
#
# Stress axis : x y z
#
# Youngs Moduli (GPa) = 66.05506 54.40403 115.74711
#
# Poissons Ratio (x) = 0.39712 0.10155
# Poissons Ratio (y) = 0.48216 0.29809
# Poissons Ratio (z) = 0.05796 0.14011
#
# Static dielectric constant tensor:
#      x y z
#    x 1.700970 0.000000 0.000000 
#    y 0.000000 1.729790 0.000000 
#    z 0.000000 0.000000 1.730840 
# 
# From -- ./inp_files/32326.got.cif
#   From: 2010.05.17/outbox.cif.g08.bks.cpg/sg74_17_cif.got.tgz:32326.got - 2010.06.03 17:57:02.
