data_PCOD9538319
_publ_section_title
;
Structure prediction by ZEFSAII (Michael W. Deem and Ramdas Pophale) SiO2 
 PCOD9538319
Probable space group: I M M A
;
_chemical_formula_sum "Si O2"
_cell_formula_units_Z 64
_cell_length_a 14.294718
_cell_length_b 7.888115
_cell_length_c 27.563984
_cell_angle_alpha 90.000000
_cell_angle_beta 90.000000
_cell_angle_gamma 90.000000
_cell_volume 3108.070168
_symmetry_space_group_name_H-M "I M M A"
_symmetry_group_IT_number 74
_symmetry_cell_setting 'orthorhombic'
loop_
_space_group_symop_operation_xyz
x,y,z
-x,1/2-y,z
x,-y,-z
-x,1/2+y,-z
-x,-y,-z
x,1/2+y,-z
-x,y,z
x,1/2-y,z
1/2+x,1/2+y,1/2+z
1/2-x,-y,1/2+z
1/2+x,1/2-y,1/2-z
1/2-x,y,1/2-z
1/2-x,1/2-y,1/2-z
1/2+x,y,1/2-z
1/2-x,1/2+y,1/2+z
1/2+x,-y,1/2+z
loop_
_atom_site_type_symbol
_atom_site_label
_atom_site_fract_x
_atom_site_fract_y
_atom_site_fract_z
Si Si1 0.154630 0.250000 0.783116
Si Si2 0.110915 0.750000 0.108516
Si Si3 0.857023 0.437241 0.267760
Si Si4 0.894939 0.544959 0.621457
Si Si5 0.782167 0.545578 0.943481
O O1 0.250000 0.250000 0.750000
O O2 0.165613 0.250000 0.840320
O O3 0.103320 0.419853 0.766837
O O4 0.141125 0.579570 0.079968
O O5 0.000000 0.750000 0.117235
O O6 0.898368 0.250000 0.264524
O O7 0.750000 0.419494 0.250000
O O8 0.865143 0.496430 0.323418
O O9 0.898756 0.750000 0.619869
O O10 0.815059 0.497689 0.583471
O O11 0.000000 0.480406 0.611903
O O12 0.798296 0.750000 0.937235
O O13 0.775706 0.500000 0.000000
#
# Coordination Sequence:
#
# PCOD9538319 Si02
#       5
#     8   8  16  16  16
#     4  10  20  36  60  90 127 164 205 257 314 376
#     4  12  28  46  67 100 131 166 225 277 322 388
#     4   9  17  32  55  85 124 173 211 250 303 366
#     4   9  19  36  62  96 134 174 218 263 317 391
#     4  11  23  45  70  94 127 169 215 271 341 393
#
# _framework density 20.591557999999999
#
# number of rings (size 3 to 8) (size 9 to 14) (size 15 to 20)
#    0.000    2.000    1.250    3.000    0.000    5.500 
#    0.000    1.875    0.000    0.000    0.000    0.000 
#    0.000    0.000    0.000    0.000    0.000    0.000 
#
# Total GULP energy -178429.103045 kJ/mol
# GULP energy per Si atom -5575.909470 kJ/mol
# Density = 2.054469 g / cm^3
# Si number density = 20.591558 Si / 1000 Ang^3
#
#
#
# Elastic Constant Matrix: (Units=GPa)
#
#
# Indices 1 2 3 4 5 6 
#
# 1 122.2812 18.0853 22.2251 0.0000 0.0000 0.0000
# 2 18.0853 132.4155 47.8175 0.0000 0.0000 0.0000
# 3 22.2251 47.8175 133.7048 0.0000 0.0000 0.0000
# 4 0.0000 0.0000 0.0000 34.8726 0.0000 0.0000
# 5 0.0000 0.0000 0.0000 0.0000 -22.2167 0.0000
# 6 0.0000 0.0000 0.0000 0.0000 0.0000 7.9228
#
#
#
# Elastic Compliance Matrix: (Units=1/GPa)
#
#
# Indices 1 2 3 4 5 6 
#
# 1 0.008496 -0.000747 -0.001145 0.000000 0.000000 0.000000
# 2 -0.000747 0.008738 -0.003001 0.000000 0.000000 0.000000
# 3 -0.001145 -0.003001 0.008743 0.000000 0.000000 0.000000
# 4 0.000000 0.000000 0.000000 0.028676 0.000000 0.000000
# 5 0.000000 0.000000 0.000000 0.000000 -0.045011 0.000000
# 6 0.000000 0.000000 0.000000 0.000000 0.000000 0.126218
#
#
# Mechanical properties :
#
#
# Convention : Reuss Voigt Hill
#
# Bulk Modulus (GPa) = 61.76223 62.73970 62.25096
# Shear Modulus (GPa) = 33.10340 24.13399 28.61870
#
# Velocity S-wave (km/s) = 4.01386 3.42721 3.73208
# Velocity P-wave (km/s) = 7.17917 6.79675 6.99058
#
# Compressibility (1/GPa) = 0.01619113
#
# Stress axis : x y z
#
# Youngs Moduli (GPa) = 117.69571 114.44781 114.38133
#
# Poissons Ratio (x) = 0.08548 0.13099
# Poissons Ratio (y) = 0.08791 0.34323
# Poissons Ratio (z) = 0.13479 0.34343
#
# Static dielectric constant tensor:
#      x y z
#    x 1.728290 0.000000 0.000000 
#    y 0.000000 1.846590 0.000000 
#    z 0.000000 0.000000 1.690890 
# 
# From -- ./inp_files/59518.got.cif
#   From: 2010.05.17/outbox.cif.g08.bks.cpg/sg74_30_cif.got.tgz:59518.got - 2010.06.03 17:57:02.
