data_PCOD9538471
_publ_section_title
;
Structure prediction by ZEFSAII (Michael W. Deem and Ramdas Pophale) SiO2 
 PCOD9538471
Probable space group: I M M A
;
_chemical_formula_sum "Si O2"
_cell_formula_units_Z 64
_cell_length_a 12.160822
_cell_length_b 13.905504
_cell_length_c 18.104965
_cell_angle_alpha 90.000000
_cell_angle_beta 90.000000
_cell_angle_gamma 90.000000
_cell_volume 3061.592290
_symmetry_space_group_name_H-M "I M M A"
_symmetry_group_IT_number 74
_symmetry_cell_setting 'orthorhombic'
loop_
_space_group_symop_operation_xyz
x,y,z
-x,1/2-y,z
x,-y,-z
-x,1/2+y,-z
-x,-y,-z
x,1/2+y,-z
-x,y,z
x,1/2-y,z
1/2+x,1/2+y,1/2+z
1/2-x,-y,1/2+z
1/2+x,1/2-y,1/2-z
1/2-x,y,1/2-z
1/2-x,1/2-y,1/2-z
1/2+x,y,1/2-z
1/2-x,1/2+y,1/2+z
1/2+x,-y,1/2+z
loop_
_atom_site_type_symbol
_atom_site_label
_atom_site_fract_x
_atom_site_fract_y
_atom_site_fract_z
Si Si1 0.000000 0.133108 0.113526
Si Si2 0.874258 0.888833 0.523885
Si Si3 0.500000 0.635744 0.445313
Si Si4 0.235777 0.142505 0.879417
Si Si5 0.762413 0.931338 0.833535
O O1 0.888665 0.091246 0.147227
O O2 0.000000 0.250000 0.118705
O O3 0.000000 0.098955 0.028417
O O4 0.803698 0.848966 0.455750
O O5 0.810923 0.882177 0.601902
O O6 0.000000 0.854620 0.528415
O O7 0.879312 0.000000 0.500000
O O8 0.500000 0.750000 0.455362
O O9 0.611157 0.616646 0.401893
O O10 0.239991 0.250000 0.844522
O O11 0.271107 0.045515 0.836912
O O12 0.750000 0.896640 0.750000
#
# Coordination Sequence:
#
# PCOD9538471 Si02
#       5
#     8  16   8  16  16
#     4  11  23  41  64  88 116 151 201 253 298 349
#     4   9  19  36  57  82 115 156 202 244 282 335
#     4   9  17  33  61  90 111 139 192 250 294 336
#     4  10  20  37  62  92 121 153 197 245 293 353
#     4  11  24  38  61  89 122 162 194 238 302 359
#
# _framework density 20.904156
#
# number of rings (size 3 to 8) (size 9 to 14) (size 15 to 20)
#    0.000    2.000    2.500    0.750    1.750    2.500 
#    0.000    0.000    0.000    0.000    0.000    0.000 
#    0.000    0.000    0.000    0.000    0.000    0.000 
#
# Total GULP energy -178389.258325 kJ/mol
# GULP energy per Si atom -5574.664323 kJ/mol
# Density = 2.085658 g / cm^3
# Si number density = 20.904156 Si / 1000 Ang^3
#
#
#
# Elastic Constant Matrix: (Units=GPa)
#
#
# Indices 1 2 3 4 5 6 
#
# 1 120.5599 7.5208 18.3876 0.0000 0.0000 0.0000
# 2 7.5208 116.1443 1.2400 0.0000 0.0000 0.0000
# 3 18.3876 1.2400 84.3025 0.0000 0.0000 0.0000
# 4 0.0000 0.0000 0.0000 6.4969 0.0000 0.0000
# 5 0.0000 0.0000 0.0000 0.0000 -92.1740 0.0000
# 6 0.0000 0.0000 0.0000 0.0000 0.0000 43.2645
#
#
#
# Elastic Compliance Matrix: (Units=1/GPa)
#
#
# Indices 1 2 3 4 5 6 
#
# 1 0.008614 -0.000538 -0.001871 0.000000 0.000000 0.000000
# 2 -0.000538 0.008645 -0.000010 0.000000 0.000000 0.000000
# 3 -0.001871 -0.000010 0.012270 0.000000 0.000000 0.000000
# 4 0.000000 0.000000 0.000000 0.153919 0.000000 0.000000
# 5 0.000000 0.000000 0.000000 0.000000 -0.010849 0.000000
# 6 0.000000 0.000000 0.000000 0.000000 0.000000 0.023114
#
#
# Mechanical properties :
#
#
# Convention : Reuss Voigt Hill
#
# Bulk Modulus (GPa) = 40.49939 41.70039 41.09989
# Shear Modulus (GPa) = 23.94863 11.10803 17.52833
#
# Velocity S-wave (km/s) = 3.38840 2.30767 2.89884
# Velocity P-wave (km/s) = 5.89273 5.20501 5.55951
#
# Compressibility (1/GPa) = 0.02469173
#
# Stress axis : x y z
#
# Youngs Moduli (GPa) = 116.09658 115.67499 81.49800
#
# Poissons Ratio (x) = 0.06221 0.15247
# Poissons Ratio (y) = 0.06243 0.00080
# Poissons Ratio (z) = 0.21720 0.00114
#
# Static dielectric constant tensor:
#      x y z
#    x 1.760280 0.000000 0.000000 
#    y 0.000000 1.831210 0.000000 
#    z 0.000000 0.000000 1.719840 
# 
# From -- ./inp_files/40726.got.cif
#   From: 2010.05.17/outbox.cif.g08.bks.cpg/sg74_21_cif.got.tgz:40726.got - 2010.06.03 17:57:02.
