data_PCOD9538309
_publ_section_title
;
Structure prediction by ZEFSAII (Michael W. Deem and Ramdas Pophale) SiO2 
 PCOD9538309
Probable space group: I M M A
;
_chemical_formula_sum "Si O2"
_cell_formula_units_Z 112
_cell_length_a 15.629822
_cell_length_b 15.118294
_cell_length_c 20.645344
_cell_angle_alpha 90.000000
_cell_angle_beta 90.000000
_cell_angle_gamma 90.000000
_cell_volume 4878.417247
_symmetry_space_group_name_H-M "I M M A"
_symmetry_group_IT_number 74
_symmetry_cell_setting 'orthorhombic'
loop_
_space_group_symop_operation_xyz
x,y,z
-x,1/2-y,z
x,-y,-z
-x,1/2+y,-z
-x,-y,-z
x,1/2+y,-z
-x,y,z
x,1/2-y,z
1/2+x,1/2+y,1/2+z
1/2-x,-y,1/2+z
1/2+x,1/2-y,1/2-z
1/2-x,y,1/2-z
1/2-x,1/2-y,1/2-z
1/2+x,y,1/2-z
1/2-x,1/2+y,1/2+z
1/2+x,-y,1/2+z
loop_
_atom_site_type_symbol
_atom_site_label
_atom_site_fract_x
_atom_site_fract_y
_atom_site_fract_z
Si Si1 0.214395 0.894597 0.413490
Si Si2 0.404537 0.554254 0.582293
Si Si3 0.898225 0.848715 0.291832
Si Si4 0.904719 0.850485 0.087488
Si Si5 0.092959 0.153975 0.336648
Si Si6 0.773599 0.105983 0.442241
Si Si7 0.348361 0.976055 0.730394
O O1 0.144691 0.869647 0.360866
O O2 0.305794 0.857484 0.389102
O O3 0.195797 0.864987 0.486896
O O4 0.218232 0.001043 0.424439
O O5 0.500000 0.590230 0.574877
O O6 0.406128 0.451265 0.557587
O O7 0.328784 0.616186 0.556293
O O8 0.378816 0.546787 0.658593
O O9 0.875788 0.750000 0.270760
O O10 0.865188 0.921332 0.242367
O O11 0.000000 0.855450 0.297522
O O12 0.906533 0.750000 0.058553
O O13 0.000000 0.852653 0.122350
O O14 0.096575 0.250000 0.303963
O O15 0.170080 0.149443 0.387063
O O16 0.000000 0.145755 0.369897
O O17 0.099924 0.078853 0.283375
O O18 0.250000 0.957554 0.750000
#
# Coordination Sequence:
#
# PCOD9538309 Si02
#       7
#    16  16  16  16  16  16  16
#     4  10  20  36  61  84 122 166 208 254 314 375
#     4  10  20  36  60  88 121 164 209 258 319 381
#     4  11  24  40  62  97 137 173 210 255 311 379
#     4   9  18  33  54  84 121 159 203 254 306 366
#     4  11  24  42  64  88 116 155 204 257 312 369
#     4  10  21  39  59  89 117 159 211 263 315 370
#     4  12  22  41  66  90 126 168 206 261 318 375
#
# _framework density 22.958265000000001
#
# number of rings (size 3 to 8) (size 9 to 14) (size 15 to 20)
#    0.000    1.571    2.857    2.571    0.000    3.429 
#    0.000    7.143    0.000    0.429    0.000    0.000 
#    0.000    0.000    0.000    0.000    0.000    0.000 
#
# Total GULP energy -312318.129523 kJ/mol
# GULP energy per Si atom -5577.109456 kJ/mol
# Density = 2.290601 g / cm^3
# Si number density = 22.958265 Si / 1000 Ang^3
#
#
#
# Elastic Constant Matrix: (Units=GPa)
#
#
# Indices 1 2 3 4 5 6 
#
# 1 96.4783 13.2845 9.2376 0.0000 0.0000 0.0000
# 2 13.2845 74.2793 9.7159 0.0000 0.0000 0.0000
# 3 9.2376 9.7159 88.8849 0.0000 0.0000 0.0000
# 4 0.0000 0.0000 0.0000 1.8803 0.0000 0.0000
# 5 0.0000 0.0000 0.0000 0.0000 17.0439 0.0000
# 6 0.0000 0.0000 0.0000 0.0000 0.0000 39.2303
#
#
#
# Elastic Compliance Matrix: (Units=1/GPa)
#
#
# Indices 1 2 3 4 5 6 
#
# 1 0.010700 -0.001794 -0.000916 0.000000 0.000000 0.000000
# 2 -0.001794 0.013959 -0.001339 0.000000 0.000000 0.000000
# 3 -0.000916 -0.001339 0.011492 0.000000 0.000000 0.000000
# 4 0.000000 0.000000 0.000000 0.531842 0.000000 0.000000
# 5 0.000000 0.000000 0.000000 0.000000 0.058672 0.000000
# 6 0.000000 0.000000 0.000000 0.000000 0.000000 0.025491
#
#
# Mechanical properties :
#
#
# Convention : Reuss Voigt Hill
#
# Bulk Modulus (GPa) = 35.64766 36.01317 35.83041
# Shear Modulus (GPa) = 7.46710 26.79118 17.12914
#
# Velocity S-wave (km/s) = 1.80542 3.41977 2.73444
# Velocity P-wave (km/s) = 4.46171 5.59585 5.06065
#
# Compressibility (1/GPa) = 0.02805233
#
# Stress axis : x y z
#
# Youngs Moduli (GPa) = 93.46041 71.63992 87.01634
#
# Poissons Ratio (x) = 0.12851 0.07970
# Poissons Ratio (y) = 0.16765 0.11655
# Poissons Ratio (z) = 0.08560 0.09595
#
# Static dielectric constant tensor:
#      x y z
#    x 1.855470 0.000000 0.000000 
#    y 0.000000 1.862380 0.000000 
#    z 0.000000 0.000000 1.898810 
# 
# From -- ./inp_files/67190.got.cif
#   From: 2010.05.17/outbox.cif.g08.bks.cpg/sg74_34_cif.got.tgz:67190.got - 2010.06.03 17:57:02.
