data_PCOD9538861
_publ_section_title
;
Structure prediction by ZEFSAII (Michael W. Deem and Ramdas Pophale) SiO2 
 PCOD9538861
Probable space group: I M M A
;
_chemical_formula_sum "Si O2"
_cell_formula_units_Z 72
_cell_length_a 14.904589
_cell_length_b 25.187009
_cell_length_c 9.201823
_cell_angle_alpha 90.000000
_cell_angle_beta 90.000000
_cell_angle_gamma 90.000000
_cell_volume 3454.382917
_symmetry_space_group_name_H-M "I M M A"
_symmetry_group_IT_number 74
_symmetry_cell_setting 'orthorhombic'
loop_
_space_group_symop_operation_xyz
x,y,z
-x,1/2-y,z
x,-y,-z
-x,1/2+y,-z
-x,-y,-z
x,1/2+y,-z
-x,y,z
x,1/2-y,z
1/2+x,1/2+y,1/2+z
1/2-x,-y,1/2+z
1/2+x,1/2-y,1/2-z
1/2-x,y,1/2-z
1/2-x,1/2-y,1/2-z
1/2+x,y,1/2-z
1/2-x,1/2+y,1/2+z
1/2+x,-y,1/2+z
loop_
_atom_site_type_symbol
_atom_site_label
_atom_site_fract_x
_atom_site_fract_y
_atom_site_fract_z
Si Si1 0.000000 0.619685 0.182338
Si Si2 0.500000 0.004235 0.243362
Si Si3 0.152167 0.190645 0.677504
Si Si4 0.832748 0.655852 0.643444
Si Si5 0.000000 0.376055 0.156698
Si Si6 0.813180 0.037212 0.386116
O O1 0.000000 0.555301 0.193146
O O2 0.085363 0.645792 0.262649
O O3 0.000000 0.636886 0.013247
O O4 0.500000 0.059096 0.336873
O O5 0.591185 0.011739 0.152400
O O6 0.121627 0.250000 0.722535
O O7 0.250000 0.182479 0.750000
O O8 0.155435 0.190368 0.500975
O O9 0.750000 0.669825 0.750000
O O10 0.821236 0.597826 0.569547
O O11 0.915661 0.646837 0.753408
O O12 0.750000 0.038684 0.250000
O O13 0.765822 0.000000 0.500000
#
# Coordination Sequence:
#
# PCOD9538861 Si02
#       6
#     8   8  16  16   8  16
#     4  12  23  40  65  90 124 161 199 248 299 353
#     4  10  22  37  59  88 123 163 198 232 286 356
#     4  11  25  44  65  89 117 154 204 256 306 357
#     4  10  21  39  61  87 120 158 200 248 299 353
#     4  10  22  39  60  92 127 160 198 238 291 361
#     4  10  21  35  55  85 121 158 198 238 285 351
#
# _framework density 20.843084999999999
#
# number of rings (size 3 to 8) (size 9 to 14) (size 15 to 20)
#    0.000    1.556    0.000    4.333    0.000   11.111 
#    0.000    2.222    0.000    0.000    0.000    0.000 
#    0.000    0.000    0.000    0.000    0.000    0.000 
#
# Total GULP energy -200826.911004 kJ/mol
# GULP energy per Si atom -5578.525306 kJ/mol
# Density = 2.079565 g / cm^3
# Si number density = 20.843085 Si / 1000 Ang^3
#
#
#
# Elastic Constant Matrix: (Units=GPa)
#
#
# Indices 1 2 3 4 5 6 
#
# 1 86.8430 48.9572 24.1328 0.0001 0.0000 -0.0001
# 2 48.9572 74.9615 53.4581 0.0002 0.0000 0.0002
# 3 24.1328 53.4581 111.4012 0.0004 0.0002 0.0003
# 4 0.0001 0.0002 0.0004 18.3380 0.0000 0.0002
# 5 0.0000 0.0000 0.0002 0.0000 7.3733 -0.0001
# 6 -0.0001 0.0002 0.0003 0.0002 -0.0001 -13.3236
#
#
#
# Elastic Compliance Matrix: (Units=1/GPa)
#
#
# Indices 1 2 3 4 5 6 
#
# 1 0.018768 -0.014226 0.002761 0.000000 0.000000 0.000000
# 2 -0.014226 0.031064 -0.011825 0.000000 0.000000 0.000000
# 3 0.002761 -0.011825 0.014053 0.000000 0.000000 0.000000
# 4 0.000000 0.000000 0.000000 0.054532 0.000000 0.000001
# 5 0.000000 0.000000 0.000000 0.000000 0.135625 -0.000001
# 6 0.000000 0.000000 0.000000 0.000001 -0.000001 -0.075055
#
#
# Mechanical properties :
#
#
# Convention : Reuss Voigt Hill
#
# Bulk Modulus (GPa) = 57.78807 58.47798 58.13303
# Shear Modulus (GPa) = 21.61367 12.25470 16.93418
#
# Velocity S-wave (km/s) = 3.22370 2.42740 2.85346
# Velocity P-wave (km/s) = 6.45304 5.99780 6.22958
#
# Compressibility (1/GPa) = 0.01730461
#
# Stress axis : x y z
#
# Youngs Moduli (GPa) = 53.28318 32.19155 71.15993
#
# Poissons Ratio (x) = 0.45796 -0.19648
# Poissons Ratio (y) = 0.75801 0.84146
# Poissons Ratio (z) = -0.14712 0.38066
#
# Static dielectric constant tensor:
#      x y z
#    x 1.746280 0.000000 0.000000 
#    y 0.000000 1.616580 0.000000 
#    z 0.000000 0.000000 1.746340 
# 
# From -- ./inp_files/9180.got.cif
#   From: 2010.05.17/outbox.cif.g08.bks.cpg/sg74_5_cif.got.tgz:9180.got - 2010.06.03 17:57:02.
