data_PCOD9538384
_publ_section_title
;
Structure prediction by ZEFSAII (Michael W. Deem and Ramdas Pophale) SiO2 
 PCOD9538384
Probable space group: I M M A
;
_chemical_formula_sum "Si O2"
_cell_formula_units_Z 88
_cell_length_a 27.946715
_cell_length_b 8.339749
_cell_length_c 19.833073
_cell_angle_alpha 90.000000
_cell_angle_beta 90.000000
_cell_angle_gamma 90.000000
_cell_volume 4622.466329
_symmetry_space_group_name_H-M "I M M A"
_symmetry_group_IT_number 74
_symmetry_cell_setting 'orthorhombic'
loop_
_space_group_symop_operation_xyz
x,y,z
-x,1/2-y,z
x,-y,-z
-x,1/2+y,-z
-x,-y,-z
x,1/2+y,-z
-x,y,z
x,1/2-y,z
1/2+x,1/2+y,1/2+z
1/2-x,-y,1/2+z
1/2+x,1/2-y,1/2-z
1/2-x,y,1/2-z
1/2-x,1/2-y,1/2-z
1/2+x,y,1/2-z
1/2-x,1/2+y,1/2+z
1/2+x,-y,1/2+z
loop_
_atom_site_type_symbol
_atom_site_label
_atom_site_fract_x
_atom_site_fract_y
_atom_site_fract_z
Si Si1 0.693176 0.441547 0.423539
Si Si2 0.500000 0.944133 0.577422
Si Si3 0.902943 0.443661 0.152749
Si Si4 0.618398 0.055753 0.803071
Si Si5 0.727444 0.556422 0.178858
Si Si6 0.445050 0.556624 0.071858
O O1 0.694970 0.500000 0.500000
O O2 0.691634 0.250000 0.423270
O O3 0.644518 0.500948 0.386946
O O4 0.739255 0.495878 0.381161
O O5 0.500000 0.750000 0.577618
O O6 0.451824 0.998249 0.616287
O O7 0.500000 0.000000 0.500000
O O8 0.903009 0.250000 0.151136
O O9 0.898380 0.496912 0.230086
O O10 0.618108 0.250000 0.801283
O O11 0.672421 0.003447 0.820169
O O12 0.584228 0.001110 0.863456
O O13 0.728057 0.750000 0.176711
O O14 0.750000 0.504564 0.250000
O O15 0.500000 0.500520 0.076289
O O16 0.445039 0.750000 0.072056
O O17 0.425094 0.500000 0.000000
#
# Coordination Sequence:
#
# PCOD9538384 Si02
#       6
#    16   8  16  16  16  16
#     4  11  23  38  59  85 114 150 192 234 280 337
#     4  10  22  40  58  82 115 150 189 236 285 336
#     4  10  22  38  57  84 116 149 188 233 282 337
#     4  10  21  36  58  86 115 147 186 231 279 336
#     4  10  20  37  58  82 114 149 185 229 281 332
#     4   9  19  36  56  80 110 143 181 224 272 327
#
# _framework density 19.037457
#
# number of rings (size 3 to 8) (size 9 to 14) (size 15 to 20)
#    0.000    2.000    1.818    1.091    1.273    4.000 
#    0.000    1.818    0.000    0.000    0.000    0.000 
#    0.000    0.000    0.000    0.000    0.000    0.000 
#
# Total GULP energy -245701.644663 kJ/mol
# GULP energy per Si atom -5584.128288 kJ/mol
# Density = 1.899413 g / cm^3
# Si number density = 19.037457 Si / 1000 Ang^3
#
#
#
# Elastic Constant Matrix: (Units=GPa)
#
#
# Indices 1 2 3 4 5 6 
#
# 1 155.6063 18.9401 118.6325 0.0000 0.0000 0.0000
# 2 18.9401 5.2772 17.8698 0.0000 0.0000 0.0000
# 3 118.6325 17.8698 222.0382 0.0000 0.0000 0.0000
# 4 0.0000 0.0000 0.0000 32.5616 0.0000 0.0000
# 5 0.0000 0.0000 0.0000 0.0000 38.1494 0.0000
# 6 0.0000 0.0000 0.0000 0.0000 0.0000 -4.2659
#
#
#
# Elastic Compliance Matrix: (Units=1/GPa)
#
#
# Indices 1 2 3 4 5 6 
#
# 1 0.014442 -0.035333 -0.004873 0.000000 0.000000 0.000000
# 2 -0.035333 0.346923 -0.009043 0.000000 0.000000 0.000000
# 3 -0.004873 -0.009043 0.007835 0.000000 0.000000 0.000000
# 4 0.000000 0.000000 0.000000 0.030711 0.000000 0.000000
# 5 0.000000 0.000000 0.000000 0.000000 0.026213 0.000000
# 6 0.000000 0.000000 0.000000 0.000000 0.000000 -0.234418
#
#
# Mechanical properties :
#
#
# Convention : Reuss Voigt Hill
#
# Bulk Modulus (GPa) = 3.69407 77.08961 40.39184
# Shear Modulus (GPa) = 13.14279 28.45433 20.79856
#
# Velocity S-wave (km/s) = 2.63033 3.87026 3.30890
# Velocity P-wave (km/s) = 3.34208 7.78161 5.98845
#
# Compressibility (1/GPa) = 0.27070403
#
# Stress axis : x y z
#
# Youngs Moduli (GPa) = 69.24327 2.88248 127.63520
#
# Poissons Ratio (x) = 0.10185 0.62190
# Poissons Ratio (y) = 2.44655 1.15418
# Poissons Ratio (z) = 0.33739 0.02607
#
# Static dielectric constant tensor:
#      x y z
#    x 1.673550 0.000000 0.000000 
#    y 0.000000 1.661450 0.000000 
#    z 0.000000 0.000000 1.617210 
# 
# From -- ./inp_files/54508.got.cif
#   From: 2010.05.17/outbox.cif.g08.bks.cpg/sg74_28_cif.got.tgz:54508.got - 2010.06.03 17:57:02.
