data_PCOD9538274
_publ_section_title
;
Structure prediction by ZEFSAII (Michael W. Deem and Ramdas Pophale) SiO2 
 PCOD9538274
Probable space group: I M M A
;
_chemical_formula_sum "Si O2"
_cell_formula_units_Z 68
_cell_length_a 7.732718
_cell_length_b 18.626795
_cell_length_c 21.661916
_cell_angle_alpha 90.000000
_cell_angle_beta 90.000000
_cell_angle_gamma 90.000000
_cell_volume 3120.090382
_symmetry_space_group_name_H-M "I M M A"
_symmetry_group_IT_number 74
_symmetry_cell_setting 'orthorhombic'
loop_
_space_group_symop_operation_xyz
x,y,z
-x,1/2-y,z
x,-y,-z
-x,1/2+y,-z
-x,-y,-z
x,1/2+y,-z
-x,y,z
x,1/2-y,z
1/2+x,1/2+y,1/2+z
1/2-x,-y,1/2+z
1/2+x,1/2-y,1/2-z
1/2-x,y,1/2-z
1/2-x,1/2-y,1/2-z
1/2+x,y,1/2-z
1/2-x,1/2+y,1/2+z
1/2+x,-y,1/2+z
loop_
_atom_site_type_symbol
_atom_site_label
_atom_site_fract_x
_atom_site_fract_y
_atom_site_fract_z
Si Si1 0.704622 0.930169 0.182905
Si Si2 0.000000 0.500000 0.500000
Si Si3 0.794430 0.670032 0.068712
Si Si4 0.706063 0.905885 0.817301
Si Si5 0.702750 0.913689 0.553102
O O1 0.500000 0.936030 0.179544
O O2 0.750000 0.898640 0.250000
O O3 0.761849 0.880680 0.126798
O O4 0.777036 0.011508 0.181992
O O5 0.844248 0.477303 0.450405
O O6 0.722509 0.750000 0.077626
O O7 0.000000 0.675475 0.061939
O O8 0.734512 0.634527 0.004714
O O9 0.500000 0.905657 0.821767
O O10 0.750000 0.874983 0.750000
O O11 0.779666 0.874757 0.880967
O O12 0.500000 0.934059 0.544970
#
# Coordination Sequence:
#
# PCOD9538274 Si02
#       5
#    16   4  16  16  16
#     4  10  21  35  55  82 114 153 194 242 294 350
#     4  12  22  36  58  90 124 152 194 244 300 374
#     4  10  23  41  59  81 114 158 205 249 290 343
#     4  10  20  36  59  89 125 155 192 244 304 365
#     4  11  23  38  60  89 121 158 198 248 304 359
#
# _framework density 21.794241
#
# number of rings (size 3 to 8) (size 9 to 14) (size 15 to 20)
#    0.000    1.647    1.176    3.176    4.941    5.647 
#    0.000    0.000    0.000    0.706    0.000    0.000 
#    0.000    0.000    0.000    0.000    0.000    0.000 
#
# Total GULP energy -189309.097174 kJ/mol
# GULP energy per Si atom -5567.914623 kJ/mol
# Density = 2.174464 g / cm^3
# Si number density = 21.794241 Si / 1000 Ang^3
#
#
#
# Elastic Constant Matrix: (Units=GPa)
#
#
# Indices 1 2 3 4 5 6 
#
# 1 92.4614 -0.5332 2.2566 0.0000 0.0000 0.0000
# 2 -0.5332 22.6431 7.9844 0.0000 0.0000 0.0000
# 3 2.2566 7.9844 173.9067 0.0000 0.0000 0.0000
# 4 0.0000 0.0000 0.0000 11.5532 0.0000 0.0000
# 5 0.0000 0.0000 0.0000 0.0000 35.5714 0.0000
# 6 0.0000 0.0000 0.0000 0.0000 0.0000 -11.5779
#
#
#
# Elastic Compliance Matrix: (Units=1/GPa)
#
#
# Indices 1 2 3 4 5 6 
#
# 1 0.010821 0.000309 -0.000155 0.000000 0.000000 0.000000
# 2 0.000309 0.044899 -0.002065 0.000000 0.000000 0.000000
# 3 -0.000155 -0.002065 0.005847 0.000000 0.000000 0.000000
# 4 0.000000 0.000000 0.000000 0.086556 0.000000 0.000000
# 5 0.000000 0.000000 0.000000 0.000000 0.028112 0.000000
# 6 0.000000 0.000000 0.000000 0.000000 0.000000 -0.086372
#
#
# Mechanical properties :
#
#
# Convention : Reuss Voigt Hill
#
# Bulk Modulus (GPa) = 17.31733 34.26964 25.79348
# Shear Modulus (GPa) = 44.27361 25.72957 35.00159
#
# Velocity S-wave (km/s) = 4.51204 3.43967 4.01184
# Velocity P-wave (km/s) = 5.92517 5.61546 5.77239
#
# Compressibility (1/GPa) = 0.05774564
#
# Stress axis : x y z
#
# Youngs Moduli (GPa) = 92.41392 22.27218 171.02659
#
# Poissons Ratio (x) = -0.00689 0.02644
# Poissons Ratio (y) = -0.02859 0.35324
# Poissons Ratio (z) = 0.01429 0.04600
#
# Static dielectric constant tensor:
#      x y z
#    x 1.789960 0.000000 0.000000 
#    y 0.000000 1.870400 0.000000 
#    z 0.000000 0.000000 2.545260 
# 
# From -- ./inp_files/48127.got.cif
#   From: 2010.05.17/outbox.cif.g08.bks.cpg/sg74_25_cif.got.tgz:48127.got - 2010.06.03 17:57:02.
