data_PCOD9538279
_publ_section_title
;
Structure prediction by ZEFSAII (Michael W. Deem and Ramdas Pophale) SiO2 
 PCOD9538279
Probable space group: I M M A
;
_chemical_formula_sum "Si O2"
_cell_formula_units_Z 80
_cell_length_a 18.740881
_cell_length_b 23.938602
_cell_length_c 9.042362
_cell_angle_alpha 90.000000
_cell_angle_beta 90.000000
_cell_angle_gamma 90.000000
_cell_volume 4056.679307
_symmetry_space_group_name_H-M "I M M A"
_symmetry_group_IT_number 74
_symmetry_cell_setting 'orthorhombic'
loop_
_space_group_symop_operation_xyz
x,y,z
-x,1/2-y,z
x,-y,-z
-x,1/2+y,-z
-x,-y,-z
x,1/2+y,-z
-x,y,z
x,1/2-y,z
1/2+x,1/2+y,1/2+z
1/2-x,-y,1/2+z
1/2+x,1/2-y,1/2-z
1/2-x,y,1/2-z
1/2-x,1/2-y,1/2-z
1/2+x,y,1/2-z
1/2-x,1/2+y,1/2+z
1/2+x,-y,1/2+z
loop_
_atom_site_type_symbol
_atom_site_label
_atom_site_fract_x
_atom_site_fract_y
_atom_site_fract_z
Si Si1 0.916505 0.684737 0.252710
Si Si2 0.419197 0.250000 0.223110
Si Si3 0.724299 0.750000 0.919139
Si Si4 0.213757 0.640904 0.408805
Si Si5 0.582806 0.138613 0.420063
Si Si6 0.289801 0.947603 0.599707
O O1 0.894262 0.750000 0.241759
O O2 0.868290 0.653014 0.371397
O O3 0.000000 0.683140 0.289433
O O4 0.907846 0.656271 0.091654
O O5 0.500000 0.250000 0.167369
O O6 0.361225 0.250000 0.095905
O O7 0.408727 0.305133 0.323139
O O8 0.750000 0.750000 0.750000
O O9 0.745308 0.805236 0.006301
O O10 0.250000 0.635388 0.250000
O O11 0.232134 0.588320 0.507714
O O12 0.500000 0.120002 0.401554
O O13 0.641887 0.092879 0.377079
O O14 0.250000 0.964518 0.750000
O O15 0.311595 0.000000 0.500000
#
# Coordination Sequence:
#
# PCOD9538279 Si02
#       6
#    16   8   8  16  16  16
#     4  10  20  36  63  99 134 167 204 250 311 381
#     4  10  20  36  59  91 130 167 199 245 310 371
#     4  12  25  34  55  92 132 170 205 250 306 377
#     4  12  23  39  63  91 126 169 208 261 316 372
#     4  10  20  39  67  95 128 168 209 254 312 387
#     4  12  27  46  67  92 124 163 215 269 320 370
#
# _framework density 19.720562999999999
#
# number of rings (size 3 to 8) (size 9 to 14) (size 15 to 20)
#    0.000    1.000    4.000    3.900    0.000    1.200 
#    0.000    1.000    0.000    1.200    0.000    0.000 
#    0.000    0.000    0.000    0.000    0.000    0.000 
#
# Total GULP energy -223731.505239 kJ/mol
# GULP energy per Si atom -5593.287631 kJ/mol
# Density = 1.967568 g / cm^3
# Si number density = 19.720563 Si / 1000 Ang^3
#
#
#
# Elastic Constant Matrix: (Units=GPa)
#
#
# Indices 1 2 3 4 5 6 
#
# 1 109.2584 27.1240 14.1338 0.0000 0.0000 0.0000
# 2 27.1240 74.7722 11.2177 0.0000 0.0000 0.0000
# 3 14.1338 11.2177 75.9807 0.0000 0.0000 0.0000
# 4 0.0000 0.0000 0.0000 27.2528 0.0000 0.0000
# 5 0.0000 0.0000 0.0000 0.0000 31.1091 0.0000
# 6 0.0000 0.0000 0.0000 0.0000 0.0000 3.2707
#
#
#
# Elastic Compliance Matrix: (Units=1/GPa)
#
#
# Indices 1 2 3 4 5 6 
#
# 1 0.010198 -0.003492 -0.001381 0.000000 0.000000 0.000000
# 2 -0.003492 0.014873 -0.001546 0.000000 0.000000 0.000000
# 3 -0.001381 -0.001546 0.013646 0.000000 0.000000 0.000000
# 4 0.000000 0.000000 0.000000 0.036693 0.000000 0.000000
# 5 0.000000 0.000000 0.000000 0.000000 0.032145 0.000000
# 6 0.000000 0.000000 0.000000 0.000000 0.000000 0.305748
#
#
# Mechanical properties :
#
#
# Convention : Reuss Voigt Hill
#
# Bulk Modulus (GPa) = 38.64323 40.55138 39.59731
# Shear Modulus (GPa) = 11.50034 26.16223 18.83129
#
# Velocity S-wave (km/s) = 2.41750 3.64627 3.09351
# Velocity P-wave (km/s) = 5.23740 6.19150 5.73433
#
# Compressibility (1/GPa) = 0.02587775
#
# Stress axis : x y z
#
# Youngs Moduli (GPa) = 98.05566 67.23708 73.27888
#
# Poissons Ratio (x) = 0.23481 0.10123
# Poissons Ratio (y) = 0.34243 0.11330
# Poissons Ratio (z) = 0.13546 0.10396
#
# Static dielectric constant tensor:
#      x y z
#    x 1.735230 0.000000 0.000000 
#    y 0.000000 1.673580 0.000000 
#    z 0.000000 0.000000 1.691070 
# 
# From -- ./inp_files/12318.got.cif
#   From: 2010.05.17/outbox.cif.g08.bks.cpg/sg74_7_cif.got.tgz:12318.got - 2010.06.03 17:57:02.
