data_PCOD9538901
_publ_section_title
;
Structure prediction by ZEFSAII (Michael W. Deem and Ramdas Pophale) SiO2 
 PCOD9538901
Probable space group: I M M A
;
_chemical_formula_sum "Si O2"
_cell_formula_units_Z 112
_cell_length_a 30.529250
_cell_length_b 13.750585
_cell_length_c 12.789216
_cell_angle_alpha 90.000000
_cell_angle_beta 90.000000
_cell_angle_gamma 90.000000
_cell_volume 5368.849533
_symmetry_space_group_name_H-M "I M M A"
_symmetry_group_IT_number 74
_symmetry_cell_setting 'orthorhombic'
loop_
_space_group_symop_operation_xyz
x,y,z
-x,1/2-y,z
x,-y,-z
-x,1/2+y,-z
-x,-y,-z
x,1/2+y,-z
-x,y,z
x,1/2-y,z
1/2+x,1/2+y,1/2+z
1/2-x,-y,1/2+z
1/2+x,1/2-y,1/2-z
1/2-x,y,1/2-z
1/2-x,1/2-y,1/2-z
1/2+x,y,1/2-z
1/2-x,1/2+y,1/2+z
1/2+x,-y,1/2+z
loop_
_atom_site_type_symbol
_atom_site_label
_atom_site_fract_x
_atom_site_fract_y
_atom_site_fract_z
Si Si1 0.365108 0.532031 0.880710
Si Si2 0.320481 0.866404 0.234285
Si Si3 0.738022 0.866782 0.421425
Si Si4 0.448990 0.557796 0.774653
Si Si5 0.550353 0.366786 0.447579
Si Si6 0.948172 0.141723 0.827457
Si Si7 0.727068 0.133069 0.143704
O O1 0.357896 0.437543 0.806542
O O2 0.411814 0.581522 0.858028
O O3 0.322971 0.598962 0.860216
O O4 0.363436 0.500000 0.000000
O O5 0.329639 0.750000 0.233994
O O6 0.302776 0.896901 0.348826
O O7 0.281102 0.882266 0.150295
O O8 0.733189 0.750000 0.429172
O O9 0.747300 0.901162 0.539303
O O10 0.500000 0.587115 0.793765
O O11 0.432109 0.600387 0.663917
O O12 0.447899 0.441483 0.758231
O O13 0.500000 0.403109 0.442838
O O14 0.549942 0.250000 0.449196
O O15 0.570624 0.393857 0.560014
O O16 0.931451 0.250000 0.801204
O O17 0.000000 0.152781 0.850587
O O18 0.727940 0.250000 0.143310
O O19 0.750000 0.098531 0.250000
#
# Coordination Sequence:
#
# PCOD9538901 Si02
#       7
#    16  16  16  16  16  16  16
#     4  12  25  37  58  83 108 152 200 241 288 339
#     4   9  18  35  60  87 112 140 187 240 282 332
#     4   8  15  33  61  86 110 144 178 222 281 336
#     4  10  21  36  52  77 114 153 197 244 283 323
#     4   8  14  28  53  79 101 133 177 226 284 344
#     4   8  14  28  53  80 104 135 178 230 288 343
#     4  10  22  40  61  88 123 154 180 222 286 358
#
# _framework density 20.861080999999999
#
# number of rings (size 3 to 8) (size 9 to 14) (size 15 to 20)
#    0.000    2.714    1.429    2.143    2.000    3.143 
#    0.000    2.857    0.000    3.429    0.000    6.000 
#    0.000    0.000    0.000    0.000    0.000    0.000 
#
# Total GULP energy -312080.184117 kJ/mol
# GULP energy per Si atom -5572.860431 kJ/mol
# Density = 2.081360 g / cm^3
# Si number density = 20.861081 Si / 1000 Ang^3
#
#
#
# Elastic Constant Matrix: (Units=GPa)
#
#
# Indices 1 2 3 4 5 6 
#
# 1 87.5904 4.2924 58.2841 0.0000 0.0000 0.0000
# 2 4.2924 43.3022 11.6392 0.0000 0.0000 0.0000
# 3 58.2841 11.6392 110.2359 0.0000 0.0000 0.0000
# 4 0.0000 0.0000 0.0000 10.6536 0.0000 0.0000
# 5 0.0000 0.0000 0.0000 0.0000 4.2671 0.0000
# 6 0.0000 0.0000 0.0000 0.0000 0.0000 6.2396
#
#
#
# Elastic Compliance Matrix: (Units=1/GPa)
#
#
# Indices 1 2 3 4 5 6 
#
# 1 0.017639 0.000780 -0.009409 0.000000 0.000000 0.000000
# 2 0.000780 0.023803 -0.002926 0.000000 0.000000 0.000000
# 3 -0.009409 -0.002926 0.014355 0.000000 0.000000 0.000000
# 4 0.000000 0.000000 0.000000 0.093865 0.000000 0.000000
# 5 0.000000 0.000000 0.000000 0.000000 0.234351 0.000000
# 6 0.000000 0.000000 0.000000 0.000000 0.000000 0.160266
#
#
# Mechanical properties :
#
#
# Convention : Reuss Voigt Hill
#
# Bulk Modulus (GPa) = 30.59166 43.28445 36.93806
# Shear Modulus (GPa) = 8.64628 15.35959 12.00293
#
# Velocity S-wave (km/s) = 2.03806 2.71639 2.40130
# Velocity P-wave (km/s) = 4.49828 5.53465 5.04316
#
# Compressibility (1/GPa) = 0.03268865
#
# Stress axis : x y z
#
# Youngs Moduli (GPa) = 56.69200 42.01227 69.66258
#
# Poissons Ratio (x) = -0.03279 0.65543
# Poissons Ratio (y) = -0.04424 0.20382
# Poissons Ratio (z) = 0.53339 0.12292
#
# Static dielectric constant tensor:
#      x y z
#    x 1.771590 0.000000 0.000000 
#    y 0.000000 1.799330 0.000000 
#    z 0.000000 0.000000 1.772800 
# 
# From -- ./inp_files/27234.got.cif
#   From: 2010.05.17/outbox.cif.g08.bks.cpg/sg74_14_cif.got.tgz:27234.got - 2010.06.03 17:57:02.
