data_PCOD9538854
_publ_section_title
;
Structure prediction by ZEFSAII (Michael W. Deem and Ramdas Pophale) SiO2 
 PCOD9538854
Probable space group: I M M A
;
_chemical_formula_sum "Si O2"
_cell_formula_units_Z 128
_cell_length_a 22.686519
_cell_length_b 27.838335
_cell_length_c 11.669745
_cell_angle_alpha 90.000000
_cell_angle_beta 90.000000
_cell_angle_gamma 90.000000
_cell_volume 7370.084822
_symmetry_space_group_name_H-M "I M M A"
_symmetry_group_IT_number 74
_symmetry_cell_setting 'orthorhombic'
loop_
_space_group_symop_operation_xyz
x,y,z
-x,1/2-y,z
x,-y,-z
-x,1/2+y,-z
-x,-y,-z
x,1/2+y,-z
-x,y,z
x,1/2-y,z
1/2+x,1/2+y,1/2+z
1/2-x,-y,1/2+z
1/2+x,1/2-y,1/2-z
1/2-x,y,1/2-z
1/2-x,1/2-y,1/2-z
1/2+x,y,1/2-z
1/2-x,1/2+y,1/2+z
1/2+x,-y,1/2+z
loop_
_atom_site_type_symbol
_atom_site_label
_atom_site_fract_x
_atom_site_fract_y
_atom_site_fract_z
Si Si1 0.065958 0.440901 0.811600
Si Si2 0.429212 0.549908 0.633763
Si Si3 0.845524 0.894993 0.048149
Si Si4 0.837433 0.305209 0.327628
Si Si5 0.286115 0.305630 0.430311
Si Si6 0.108230 0.949997 0.434345
Si Si7 0.242419 0.533042 0.384059
Si Si8 0.569260 0.612997 0.859073
O O1 0.084857 0.493027 0.862630
O O2 0.108018 0.397832 0.848739
O O3 0.068276 0.447834 0.676756
O O4 0.000000 0.431626 0.850566
O O5 0.500000 0.554311 0.607221
O O6 0.383993 0.578191 0.551436
O O7 0.421273 0.573540 0.758862
O O8 0.790594 0.926267 0.092201
O O9 0.821188 0.844144 0.005578
O O10 0.852804 0.250000 0.352758
O O11 0.782667 0.318945 0.410455
O O12 0.813230 0.306973 0.197666
O O13 0.891924 0.340515 0.334836
O O14 0.289508 0.250000 0.469798
O O15 0.175702 0.948158 0.392419
O O16 0.091685 0.909056 0.522852
O O17 0.099832 0.000000 0.500000
O O18 0.248582 0.500000 0.500000
O O19 0.250000 0.514264 0.250000
O O20 0.500000 0.623401 0.862974
#
# Coordination Sequence:
#
# PCOD9538854 Si02
#       8
#    16  16  16  16  16  16  16  16
#     4  11  22  36  55  77 112 158 199 231 269 332
#     4  10  21  35  54  84 117 153 198 236 282 343
#     4  12  21  36  59  81 114 148 192 235 299 340
#     4   9  18  37  59  85 115 144 186 238 301 358
#     4   9  19  36  60  86 111 144 186 240 297 360
#     4  11  22  37  55  78 115 156 198 236 284 341
#     4  11  24  39  57  86 124 159 197 247 294 349
#     4  11  21  34  56  87 119 152 193 239 292 349
#
# _framework density 17.367507
#
# number of rings (size 3 to 8) (size 9 to 14) (size 15 to 20)
#    0.000    1.500    3.750    3.375    0.000    1.750 
#    2.250    0.000    0.000    2.625    0.000    0.000 
#    0.000    0.000    0.000    0.000    0.000    0.000 
#
# Total GULP energy -356855.690959 kJ/mol
# GULP energy per Si atom -5575.870171 kJ/mol
# Density = 1.732798 g / cm^3
# Si number density = 17.367507 Si / 1000 Ang^3
#
#
#
# Elastic Constant Matrix: (Units=GPa)
#
#
# Indices 1 2 3 4 5 6 
#
# 1 79.9804 54.1335 30.3509 0.0000 0.0000 0.0000
# 2 54.1335 72.8657 26.5823 0.0000 0.0000 0.0000
# 3 30.3509 26.5823 94.1775 0.0000 0.0000 0.0000
# 4 0.0000 0.0000 0.0000 26.5207 0.0000 0.0000
# 5 0.0000 0.0000 0.0000 0.0000 33.9300 0.0000
# 6 0.0000 0.0000 0.0000 0.0000 0.0000 25.0761
#
#
#
# Elastic Compliance Matrix: (Units=1/GPa)
#
#
# Indices 1 2 3 4 5 6 
#
# 1 0.026019 -0.018139 -0.003265 0.000000 0.000000 0.000000
# 2 -0.018139 0.027945 -0.002042 0.000000 0.000000 0.000000
# 3 -0.003265 -0.002042 0.012247 0.000000 0.000000 0.000000
# 4 0.000000 0.000000 0.000000 0.037706 0.000000 0.000000
# 5 0.000000 0.000000 0.000000 0.000000 0.029472 0.000000
# 6 0.000000 0.000000 0.000000 0.000000 0.000000 0.039879
#
#
# Mechanical properties :
#
#
# Convention : Reuss Voigt Hill
#
# Bulk Modulus (GPa) = 51.76459 52.12855 51.94657
# Shear Modulus (GPa) = 22.06524 26.16915 24.11720
#
# Velocity S-wave (km/s) = 3.56826 3.88595 3.73049
# Velocity P-wave (km/s) = 6.84447 7.08620 6.96638
#
# Compressibility (1/GPa) = 0.01931823
#
# Stress axis : x y z
#
# Youngs Moduli (GPa) = 38.43286 35.78501 81.65297
#
# Poissons Ratio (x) = 0.64911 0.26664
# Poissons Ratio (y) = 0.69714 0.16672
# Poissons Ratio (z) = 0.12550 0.07307
#
# Static dielectric constant tensor:
#      x y z
#    x 1.599490 0.000000 0.000000 
#    y 0.000000 1.564460 0.000000 
#    z 0.000000 0.000000 1.648800 
# 
# From -- ./inp_files/25700.got.cif
#   From: 2010.05.17/outbox.cif.g08.bks.cpg/sg74_13_cif.got.tgz:25700.got - 2010.06.03 17:57:02.
