data_PCOD9538502
_publ_section_title
;
Structure prediction by ZEFSAII (Michael W. Deem and Ramdas Pophale) SiO2 
 PCOD9538502
Probable space group: I M M A
;
_chemical_formula_sum "Si O2"
_cell_formula_units_Z 64
_cell_length_a 13.718517
_cell_length_b 18.428402
_cell_length_c 13.398644
_cell_angle_alpha 90.000000
_cell_angle_beta 90.000000
_cell_angle_gamma 90.000000
_cell_volume 3387.315827
_symmetry_space_group_name_H-M "I M M A"
_symmetry_group_IT_number 74
_symmetry_cell_setting 'orthorhombic'
loop_
_space_group_symop_operation_xyz
x,y,z
-x,1/2-y,z
x,-y,-z
-x,1/2+y,-z
-x,-y,-z
x,1/2+y,-z
-x,y,z
x,1/2-y,z
1/2+x,1/2+y,1/2+z
1/2-x,-y,1/2+z
1/2+x,1/2-y,1/2-z
1/2-x,y,1/2-z
1/2-x,1/2-y,1/2-z
1/2+x,y,1/2-z
1/2-x,1/2+y,1/2+z
1/2+x,-y,1/2+z
loop_
_atom_site_type_symbol
_atom_site_label
_atom_site_fract_x
_atom_site_fract_y
_atom_site_fract_z
Si Si1 0.272288 0.250000 0.632776
Si Si2 0.820152 0.948916 0.871031
Si Si3 0.386826 0.398579 0.162360
Si Si4 0.111874 0.750000 0.540066
Si Si5 0.113809 0.602776 0.087204
O O1 0.250000 0.250000 0.750000
O O2 0.182105 0.250000 0.555217
O O3 0.331339 0.323387 0.610724
O O4 0.702896 0.945638 0.880407
O O5 0.860932 0.900666 0.780006
O O6 0.850284 0.032030 0.852527
O O7 0.866369 0.919656 0.972574
O O8 0.500000 0.421458 0.148277
O O9 0.374729 0.320656 0.109696
O O10 0.000000 0.750000 0.505164
O O11 0.000000 0.612208 0.104260
#
# Coordination Sequence:
#
# PCOD9538502 Si02
#       5
#     8  16  16   8  16
#     4  12  27  44  63  89 123 171 222 261 309 378
#     4  10  21  38  67  97 130 161 206 262 312 381
#     4  10  20  37  65  98 131 164 200 254 324 380
#     4  10  22  43  64  94 133 161 202 263 327 383
#     4  11  23  43  64  91 128 169 212 261 312 369
#
# _framework density 18.894015
#
# number of rings (size 3 to 8) (size 9 to 14) (size 15 to 20)
#    0.000    1.500    2.500    3.375    3.500    4.000 
#    0.000    6.250    0.000    0.000    0.000    0.000 
#    0.000    0.000    0.000    0.000    0.000    0.000 
#
# Total GULP energy -178519.736393 kJ/mol
# GULP energy per Si atom -5578.741762 kJ/mol
# Density = 1.885101 g / cm^3
# Si number density = 18.894015 Si / 1000 Ang^3
#
#
#
# Elastic Constant Matrix: (Units=GPa)
#
#
# Indices 1 2 3 4 5 6 
#
# 1 181.6313 88.5232 53.9096 0.0000 0.0000 0.0000
# 2 88.5232 138.9698 64.2447 0.0000 0.0000 0.0000
# 3 53.9096 64.2447 84.7339 0.0000 0.0000 0.0000
# 4 0.0000 0.0000 0.0000 11.8143 0.0000 0.0000
# 5 0.0000 0.0000 0.0000 0.0000 22.1138 0.0000
# 6 0.0000 0.0000 0.0000 0.0000 0.0000 58.5733
#
#
#
# Elastic Compliance Matrix: (Units=1/GPa)
#
#
# Indices 1 2 3 4 5 6 
#
# 1 0.008185 -0.004321 -0.001931 0.000000 0.000000 0.000000
# 2 -0.004321 0.013360 -0.007381 0.000000 0.000000 0.000000
# 3 -0.001931 -0.007381 0.018626 0.000000 0.000000 0.000000
# 4 0.000000 0.000000 0.000000 0.084643 0.000000 0.000000
# 5 0.000000 0.000000 0.000000 0.000000 0.045221 0.000000
# 6 0.000000 0.000000 0.000000 0.000000 0.000000 0.017073
#
#
# Mechanical properties :
#
#
# Convention : Reuss Voigt Hill
#
# Bulk Modulus (GPa) = 77.48459 90.96557 84.22508
# Shear Modulus (GPa) = 22.86500 31.74411 27.30455
#
# Velocity S-wave (km/s) = 3.48253 4.10337 3.80563
# Velocity P-wave (km/s) = 7.56768 8.40832 7.99905
#
# Compressibility (1/GPa) = 0.01290579
#
# Stress axis : x y z
#
# Youngs Moduli (GPa) = 122.17811 74.84944 53.68754
#
# Poissons Ratio (x) = 0.32341 0.10369
# Poissons Ratio (y) = 0.52791 0.39624
# Poissons Ratio (z) = 0.23596 0.55243
#
# Static dielectric constant tensor:
#      x y z
#    x 1.667900 0.000000 0.000000 
#    y 0.000000 1.651950 0.000000 
#    z 0.000000 0.000000 1.662160 
# 
# From -- ./inp_files/19957.got.cif
#   From: 2010.05.17/outbox.cif.g08.bks.cpg/sg74_10_cif.got.tgz:19957.got - 2010.06.03 17:57:02.
