data_PCOD9538297
_publ_section_title
;
Structure prediction by ZEFSAII (Michael W. Deem and Ramdas Pophale) SiO2 
 PCOD9538297
Probable space group: I M M A
;
_chemical_formula_sum "Si O2"
_cell_formula_units_Z 72
_cell_length_a 18.262232
_cell_length_b 8.094030
_cell_length_c 24.297822
_cell_angle_alpha 90.000000
_cell_angle_beta 90.000000
_cell_angle_gamma 90.000000
_cell_volume 3591.583863
_symmetry_space_group_name_H-M "I M M A"
_symmetry_group_IT_number 74
_symmetry_cell_setting 'orthorhombic'
loop_
_space_group_symop_operation_xyz
x,y,z
-x,1/2-y,z
x,-y,-z
-x,1/2+y,-z
-x,-y,-z
x,1/2+y,-z
-x,y,z
x,1/2-y,z
1/2+x,1/2+y,1/2+z
1/2-x,-y,1/2+z
1/2+x,1/2-y,1/2-z
1/2-x,y,1/2-z
1/2-x,1/2-y,1/2-z
1/2+x,y,1/2-z
1/2-x,1/2+y,1/2+z
1/2+x,-y,1/2+z
loop_
_atom_site_type_symbol
_atom_site_label
_atom_site_fract_x
_atom_site_fract_y
_atom_site_fract_z
Si Si1 0.500000 0.550751 0.937105
Si Si2 0.833863 0.050936 0.749429
Si Si3 0.916638 0.949295 0.140983
Si Si4 0.212510 0.552634 0.936655
Si Si5 0.142903 0.550408 0.627466
O O1 0.500000 0.750000 0.933881
O O2 0.426524 0.491132 0.907310
O O3 0.500000 0.500000 0.000000
O O4 0.831905 0.250000 0.752926
O O5 0.750000 0.989462 0.750000
O O6 0.879649 0.990413 0.801967
O O7 0.865162 0.002667 0.690417
O O8 0.919244 0.750000 0.143692
O O9 0.000000 0.009537 0.134855
O O10 0.862669 0.995223 0.091441
O O11 0.214251 0.750000 0.934893
O O12 0.281235 0.489861 0.900045
O O13 0.219221 0.500000 0.000000
O O14 0.144436 0.750000 0.625846
#
# Coordination Sequence:
#
# PCOD9538297 Si02
#       5
#     8  16  16  16  16
#     4  10  22  40  58  84 120 156 195 238 287 340
#     4  10  20  36  60  87 115 149 190 235 285 340
#     4  10  22  40  60  86 120 154 191 237 286 340
#     4  11  23  39  61  86 113 150 196 240 290 346
#     4  10  22  38  58  86 118 153 192 237 288 345
#
# _framework density 20.046865
#
# number of rings (size 3 to 8) (size 9 to 14) (size 15 to 20)
#    0.000    1.778    2.222    1.333    1.556    4.000 
#    0.000    0.000    0.000    0.000    0.000    0.000 
#    0.000    0.000    0.000    0.000    0.000    0.000 
#
# Total GULP energy -201144.680639 kJ/mol
# GULP energy per Si atom -5587.352240 kJ/mol
# Density = 2.000124 g / cm^3
# Si number density = 20.046865 Si / 1000 Ang^3
#
#
#
# Elastic Constant Matrix: (Units=GPa)
#
#
# Indices 1 2 3 4 5 6 
#
# 1 106.8371 11.3004 11.7919 0.0000 0.0000 0.0000
# 2 11.3004 10.6848 -4.8358 0.0000 0.0000 0.0000
# 3 11.7919 -4.8358 91.0899 0.0000 0.0000 0.0000
# 4 0.0000 0.0000 0.0000 32.3639 0.0000 0.0000
# 5 0.0000 0.0000 0.0000 0.0000 37.4967 0.0000
# 6 0.0000 0.0000 0.0000 0.0000 0.0000 10.4209
#
#
#
# Elastic Compliance Matrix: (Units=1/GPa)
#
#
# Indices 1 2 3 4 5 6 
#
# 1 0.010909 -0.012476 -0.002075 0.000000 0.000000 0.000000
# 2 -0.012476 0.110164 0.007464 0.000000 0.000000 0.000000
# 3 -0.002075 0.007464 0.011643 0.000000 0.000000 0.000000
# 4 0.000000 0.000000 0.000000 0.030899 0.000000 0.000000
# 5 0.000000 0.000000 0.000000 0.000000 0.026669 0.000000
# 6 0.000000 0.000000 0.000000 0.000000 0.000000 0.095961
#
#
# Mechanical properties :
#
#
# Convention : Reuss Voigt Hill
#
# Bulk Modulus (GPa) = 8.43587 27.23610 17.83599
# Shear Modulus (GPa) = 14.70881 28.74666 21.72774
#
# Velocity S-wave (km/s) = 2.71167 3.79089 3.29575
# Velocity P-wave (km/s) = 3.74452 5.72511 4.83726
#
# Compressibility (1/GPa) = 0.11854139
#
# Stress axis : x y z
#
# Youngs Moduli (GPa) = 91.67040 9.07738 85.88897
#
# Poissons Ratio (x) = 0.11325 0.17818
# Poissons Ratio (y) = 1.14369 -0.64103
# Poissons Ratio (z) = 0.19017 -0.06775
#
# Static dielectric constant tensor:
#      x y z
#    x 1.718160 0.000000 0.000000 
#    y 0.000000 1.714340 0.000000 
#    z 0.000000 0.000000 1.670880 
# 
# From -- ./inp_files/56637.got.cif
#   From: 2010.05.17/outbox.cif.g08.bks.cpg/sg74_29_cif.got.tgz:56637.got - 2010.06.03 17:57:02.
