data_PCOD9538604
_publ_section_title
;
Structure prediction by ZEFSAII (Michael W. Deem and Ramdas Pophale) SiO2 
 PCOD9538604
Probable space group: I M M A
;
_chemical_formula_sum "Si O2"
_cell_formula_units_Z 64
_cell_length_a 15.656595
_cell_length_b 8.749801
_cell_length_c 24.026202
_cell_angle_alpha 90.000000
_cell_angle_beta 90.000000
_cell_angle_gamma 90.000000
_cell_volume 3291.399641
_symmetry_space_group_name_H-M "I M M A"
_symmetry_group_IT_number 74
_symmetry_cell_setting 'orthorhombic'
loop_
_space_group_symop_operation_xyz
x,y,z
-x,1/2-y,z
x,-y,-z
-x,1/2+y,-z
-x,-y,-z
x,1/2+y,-z
-x,y,z
x,1/2-y,z
1/2+x,1/2+y,1/2+z
1/2-x,-y,1/2+z
1/2+x,1/2-y,1/2-z
1/2-x,y,1/2-z
1/2-x,1/2-y,1/2-z
1/2+x,y,1/2-z
1/2-x,1/2+y,1/2+z
1/2+x,-y,1/2+z
loop_
_atom_site_type_symbol
_atom_site_label
_atom_site_fract_x
_atom_site_fract_y
_atom_site_fract_z
Si Si1 0.341844 0.433135 0.630371
Si Si2 0.341544 0.930978 0.870133
Si Si3 0.500000 0.432757 0.438114
Si Si4 0.602568 0.429425 0.755975
Si Si5 0.500000 0.567235 0.061875
O O1 0.343756 0.250000 0.623882
O O2 0.250026 0.499361 0.614550
O O3 0.416988 0.506853 0.594479
O O4 0.359836 0.466591 0.695567
O O5 0.342497 0.750000 0.878594
O O6 0.359767 0.971303 0.805637
O O7 0.416952 0.007961 0.905353
O O8 0.500000 0.250000 0.439658
O O9 0.500000 0.500000 0.500000
O O10 0.500000 0.446894 0.754034
O O11 0.621016 0.250000 0.767775
O O12 0.500000 0.750000 0.060694
O O13 0.500000 0.500000 0.000000
#
# Coordination Sequence:
#
# PCOD9538604 Si02
#       5
#    16  16   8  16   8
#     4  11  23  43  68  96 130 172 216 262 318 382
#     4  12  25  41  64  99 134 169 212 263 318 379
#     4  12  26  45  68  95 128 167 215 269 321 378
#     4  10  20  38  65  95 130 172 212 257 318 383
#     4  12  26  47  70  93 124 167 215 267 321 380
#
# _framework density 19.444616
#
# number of rings (size 3 to 8) (size 9 to 14) (size 15 to 20)
#    0.000    0.750    2.500    6.000    0.000    6.000 
#    0.000    5.000    0.000    0.000    0.000    0.000 
#    0.000    0.000    0.000    0.000    0.000    0.000 
#
# Total GULP energy -179173.070463 kJ/mol
# GULP energy per Si atom -5599.158452 kJ/mol
# Density = 1.940036 g / cm^3
# Si number density = 19.444616 Si / 1000 Ang^3
#
#
#
# Elastic Constant Matrix: (Units=GPa)
#
#
# Indices 1 2 3 4 5 6 
#
# 1 191.2699 96.2471 84.9287 0.0000 0.0000 0.0000
# 2 96.2471 164.9768 94.8533 0.0000 0.0000 0.0000
# 3 84.9287 94.8533 131.9804 0.0000 0.0000 0.0000
# 4 0.0000 0.0000 0.0000 36.3132 0.0000 0.0000
# 5 0.0000 0.0000 0.0000 0.0000 -13.2544 0.0000
# 6 0.0000 0.0000 0.0000 0.0000 0.0000 34.9351
#
#
#
# Elastic Compliance Matrix: (Units=1/GPa)
#
#
# Indices 1 2 3 4 5 6 
#
# 1 0.008077 -0.002938 -0.003086 0.000000 0.000000 0.000000
# 2 -0.002938 0.011398 -0.006302 0.000000 0.000000 0.000000
# 3 -0.003086 -0.006302 0.014092 0.000000 0.000000 0.000000
# 4 0.000000 0.000000 0.000000 0.027538 0.000000 0.000000
# 5 0.000000 0.000000 0.000000 0.000000 -0.075447 0.000000
# 6 0.000000 0.000000 0.000000 0.000000 0.000000 0.028624
#
#
# Mechanical properties :
#
#
# Convention : Reuss Voigt Hill
#
# Bulk Modulus (GPa) = 112.15553 115.58724 113.87138
# Shear Modulus (GPa) = 119.31640 25.74532 72.53086
#
# Velocity S-wave (km/s) = 7.84190 3.64267 6.11410
# Velocity P-wave (km/s) = 11.82364 8.79008 10.41787
#
# Compressibility (1/GPa) = 0.00891619
#
# Stress axis : x y z
#
# Youngs Moduli (GPa) = 123.81264 87.73225 70.96397
#
# Poissons Ratio (x) = 0.25772 0.21900
# Poissons Ratio (y) = 0.36371 0.44718
# Poissons Ratio (z) = 0.38210 0.55285
#
# Static dielectric constant tensor:
#      x y z
#    x 1.661290 0.000000 0.000000 
#    y 0.000000 1.643040 0.000000 
#    z 0.000000 0.000000 1.653760 
# 
# From -- ./inp_files/59509.got.cif
#   From: 2010.05.17/outbox.cif.g08.bks.cpg/sg74_30_cif.got.tgz:59509.got - 2010.06.03 17:57:02.
