data_PCOD9538629
_publ_section_title
;
Structure prediction by ZEFSAII (Michael W. Deem and Ramdas Pophale) SiO2 
 PCOD9538629
Probable space group: I M M A
;
_chemical_formula_sum "Si O2"
_cell_formula_units_Z 104
_cell_length_a 28.859421
_cell_length_b 8.288814
_cell_length_c 23.575981
_cell_angle_alpha 90.000000
_cell_angle_beta 90.000000
_cell_angle_gamma 90.000000
_cell_volume 5639.619205
_symmetry_space_group_name_H-M "I M M A"
_symmetry_group_IT_number 74
_symmetry_cell_setting 'orthorhombic'
loop_
_space_group_symop_operation_xyz
x,y,z
-x,1/2-y,z
x,-y,-z
-x,1/2+y,-z
-x,-y,-z
x,1/2+y,-z
-x,y,z
x,1/2-y,z
1/2+x,1/2+y,1/2+z
1/2-x,-y,1/2+z
1/2+x,1/2-y,1/2-z
1/2-x,y,1/2-z
1/2-x,1/2-y,1/2-z
1/2+x,y,1/2-z
1/2-x,1/2+y,1/2+z
1/2+x,-y,1/2+z
loop_
_atom_site_type_symbol
_atom_site_label
_atom_site_fract_x
_atom_site_fract_y
_atom_site_fract_z
Si Si1 0.000000 0.055410 0.065469
Si Si2 0.198003 0.441797 0.737797
Si Si3 0.235087 0.057197 0.562747
Si Si4 0.099230 0.055319 0.064614
Si Si5 0.552783 0.442912 0.064382
Si Si6 0.355728 0.055297 0.874872
Si Si7 0.816896 0.056619 0.141668
O O1 0.049404 0.000161 0.088965
O O2 0.000000 0.250000 0.066876
O O3 0.000000 0.000000 0.000000
O O4 0.203565 0.250000 0.727892
O O5 0.250000 0.509456 0.750000
O O6 0.167407 0.501996 0.684754
O O7 0.174744 0.476279 0.797808
O O8 0.237811 0.250000 0.564722
O O9 0.182538 0.007956 0.577885
O O10 0.248547 0.000000 0.500000
O O11 0.268825 0.990782 0.611530
O O12 0.099808 0.250000 0.065017
O O13 0.142752 0.999009 0.099920
O O14 0.102873 0.000000 0.000000
O O15 0.500000 0.499738 0.078309
O O16 0.552186 0.250000 0.064168
O O17 0.593550 0.496983 0.106781
O O18 0.563052 0.500000 0.000000
O O19 0.357671 0.250000 0.872853
O O20 0.818349 0.250000 0.147721
#
# Coordination Sequence:
#
# PCOD9538629 Si02
#       7
#     8  16  16  16  16  16  16
#     4   8  14  28  48  68  94 128 162 202 247 298
#     4  10  20  39  59  77 103 141 183 224 269 317
#     4  11  22  36  52  77 111 144 177 218 269 325
#     4   9  18  31  49  74 102 132 169 209 258 310
#     4  10  21  37  59  88 120 150 183 227 281 338
#     4  10  21  37  59  82 107 144 186 227 274 327
#     4  11  22  34  51  78 106 139 180 221 266 321
#
# _framework density 18.440961000000001
#
# number of rings (size 3 to 8) (size 9 to 14) (size 15 to 20)
#    0.000    2.000    1.538    2.308    0.000    6.769 
#    0.000    0.000    1.692    0.000    0.000    0.000 
#    0.000    0.000    0.000    0.000    0.000    0.000 
#
# Total GULP energy -289895.688234 kJ/mol
# GULP energy per Si atom -5574.917081 kJ/mol
# Density = 1.839899 g / cm^3
# Si number density = 18.440961 Si / 1000 Ang^3
#
#
#
# Elastic Constant Matrix: (Units=GPa)
#
#
# Indices 1 2 3 4 5 6 
#
# 1 142.6491 15.6518 52.6810 0.0000 0.0000 0.0000
# 2 15.6518 11.5231 6.7206 0.0000 0.0000 0.0000
# 3 52.6810 6.7206 100.9257 0.0000 0.0000 0.0000
# 4 0.0000 0.0000 0.0000 23.1671 0.0000 0.0000
# 5 0.0000 0.0000 0.0000 0.0000 16.3922 0.0000
# 6 0.0000 0.0000 0.0000 0.0000 0.0000 21.9098
#
#
#
# Elastic Compliance Matrix: (Units=1/GPa)
#
#
# Indices 1 2 3 4 5 6 
#
# 1 0.009820 -0.010767 -0.004409 0.000000 0.000000 0.000000
# 2 -0.010767 0.102094 -0.001178 0.000000 0.000000 0.000000
# 3 -0.004409 -0.001178 0.012288 0.000000 0.000000 0.000000
# 4 0.000000 0.000000 0.000000 0.043165 0.000000 0.000000
# 5 0.000000 0.000000 0.000000 0.000000 0.061005 0.000000
# 6 0.000000 0.000000 0.000000 0.000000 0.000000 0.045642
#
#
# Mechanical properties :
#
#
# Convention : Reuss Voigt Hill
#
# Bulk Modulus (GPa) = 10.92973 45.02277 27.97625
# Shear Modulus (GPa) = 14.82720 24.29678 19.56199
#
# Velocity S-wave (km/s) = 2.83863 3.63374 3.26051
# Velocity P-wave (km/s) = 4.08454 6.48637 5.42017
#
# Compressibility (1/GPa) = 0.09149355
#
# Stress axis : x y z
#
# Youngs Moduli (GPa) = 101.83572 9.79493 81.38018
#
# Poissons Ratio (x) = 0.10546 0.35878
# Poissons Ratio (y) = 1.09645 0.09590
# Poissons Ratio (z) = 0.44897 0.01154
#
# Static dielectric constant tensor:
#      x y z
#    x 1.689940 0.000000 0.000000 
#    y 0.000000 1.645590 0.000000 
#    z 0.000000 0.000000 1.624560 
# 
# From -- ./inp_files/62344.got.cif
#   From: 2010.05.17/outbox.cif.g08.bks.cpg/sg74_32_cif.got.tgz:62344.got - 2010.06.03 17:57:02.
