data_PCOD9538440
_publ_section_title
;
Structure prediction by ZEFSAII (Michael W. Deem and Ramdas Pophale) SiO2 
 PCOD9538440
Probable space group: I M M A
;
_chemical_formula_sum "Si O2"
_cell_formula_units_Z 104
_cell_length_a 16.508270
_cell_length_b 19.332651
_cell_length_c 15.485737
_cell_angle_alpha 90.000000
_cell_angle_beta 90.000000
_cell_angle_gamma 90.000000
_cell_volume 4942.251632
_symmetry_space_group_name_H-M "I M M A"
_symmetry_group_IT_number 74
_symmetry_cell_setting 'orthorhombic'
loop_
_space_group_symop_operation_xyz
x,y,z
-x,1/2-y,z
x,-y,-z
-x,1/2+y,-z
-x,-y,-z
x,1/2+y,-z
-x,y,z
x,1/2-y,z
1/2+x,1/2+y,1/2+z
1/2-x,-y,1/2+z
1/2+x,1/2-y,1/2-z
1/2-x,y,1/2-z
1/2-x,1/2-y,1/2-z
1/2+x,y,1/2-z
1/2-x,1/2+y,1/2+z
1/2+x,-y,1/2+z
loop_
_atom_site_type_symbol
_atom_site_label
_atom_site_fract_x
_atom_site_fract_y
_atom_site_fract_z
Si Si1 0.593653 0.110121 0.076082
Si Si2 0.304814 0.120536 0.594154
Si Si3 0.593535 0.428812 0.751592
Si Si4 0.216661 0.500000 0.500000
Si Si5 0.597131 0.169436 0.428817
Si Si6 0.097574 0.411314 0.238109
Si Si7 0.871018 0.174805 0.599906
O O1 0.500000 0.084950 0.076749
O O2 0.614135 0.131026 0.174114
O O3 0.657244 0.051296 0.050546
O O4 0.601966 0.164896 0.999127
O O5 0.352016 0.111744 0.683107
O O6 0.271348 0.045993 0.562973
O O7 0.361222 0.148393 0.517897
O O8 0.225940 0.167973 0.603027
O O9 0.500000 0.428681 0.722947
O O10 0.621339 0.508785 0.753600
O O11 0.598072 0.389117 0.842617
O O12 0.500000 0.160336 0.436780
O O13 0.612329 0.250000 0.409949
O O14 0.629144 0.122468 0.349730
O O15 0.000000 0.411491 0.228827
O O16 0.897192 0.250000 0.632439
#
# Coordination Sequence:
#
# PCOD9538440 Si02
#       7
#    16  16  16   8  16  16  16
#     4  10  20  37  61  86 116 154 196 244 298 354
#     4  11  22  39  60  84 120 160 197 242 303 362
#     4  11  23  39  62  89 117 155 203 252 300 355
#     4  10  21  36  59  88 118 154 194 244 297 354
#     4  10  21  38  61  89 120 156 201 248 293 354
#     4   9  19  36  60  90 119 148 191 248 301 347
#     4  11  25  41  57  85 123 160 201 250 302 358
#
# _framework density 21.043040000000001
#
# number of rings (size 3 to 8) (size 9 to 14) (size 15 to 20)
#    0.000    1.692    0.000    4.846    0.000    4.923 
#    0.000   10.769    0.000    4.615    0.000    0.000 
#    0.000    0.000    0.000    0.000    0.000    0.000 
#
# Total GULP energy -290520.000761 kJ/mol
# GULP energy per Si atom -5586.923092 kJ/mol
# Density = 2.099515 g / cm^3
# Si number density = 21.043040 Si / 1000 Ang^3
#
#
#
# Elastic Constant Matrix: (Units=GPa)
#
#
# Indices 1 2 3 4 5 6 
#
# 1 48.5848 21.4521 22.8961 0.0000 0.0000 0.0000
# 2 21.4521 78.3229 14.7099 0.0000 0.0000 0.0000
# 3 22.8961 14.7099 103.8568 0.0000 0.0000 0.0000
# 4 0.0000 0.0000 0.0000 15.6939 0.0000 0.0000
# 5 0.0000 0.0000 0.0000 0.0000 11.5262 0.0000
# 6 0.0000 0.0000 0.0000 0.0000 0.0000 -5.9411
#
#
#
# Elastic Compliance Matrix: (Units=1/GPa)
#
#
# Indices 1 2 3 4 5 6 
#
# 1 0.025518 -0.006095 -0.004762 0.000000 0.000000 0.000000
# 2 -0.006095 0.014572 -0.000720 0.000000 0.000000 0.000000
# 3 -0.004762 -0.000720 0.010781 0.000000 0.000000 0.000000
# 4 0.000000 0.000000 0.000000 0.063719 0.000000 0.000000
# 5 0.000000 0.000000 0.000000 0.000000 0.086759 0.000000
# 6 0.000000 0.000000 0.000000 0.000000 0.000000 -0.168319
#
#
# Mechanical properties :
#
#
# Convention : Reuss Voigt Hill
#
# Bulk Modulus (GPa) = 36.08047 38.76453 37.42250
# Shear Modulus (GPa) = 76.42616 15.70290 46.06453
#
# Velocity S-wave (km/s) = 6.03306 2.73468 4.68382
# Velocity P-wave (km/s) = 8.10640 5.33225 6.86100
#
# Compressibility (1/GPa) = 0.02771582
#
# Stress axis : x y z
#
# Youngs Moduli (GPa) = 39.18802 68.62355 92.75938
#
# Poissons Ratio (x) = 0.41825 0.44176
# Poissons Ratio (y) = 0.23884 0.06682
# Poissons Ratio (z) = 0.18663 0.04943
#
# Static dielectric constant tensor:
#      x y z
#    x 1.749650 0.000000 0.000000 
#    y 0.000000 1.757570 0.000000 
#    z 0.000000 0.000000 1.751370 
# 
# From -- ./inp_files/34309.got.cif
#   From: 2010.05.17/outbox.cif.g08.bks.cpg/sg74_18_cif.got.tgz:34309.got - 2010.06.03 17:57:02.
