data_PCOD9538546
_publ_section_title
;
Structure prediction by ZEFSAII (Michael W. Deem and Ramdas Pophale) SiO2 
 PCOD9538546
Probable space group: I M M A
;
_chemical_formula_sum "Si O2"
_cell_formula_units_Z 52
_cell_length_a 12.146207
_cell_length_b 7.539203
_cell_length_c 22.748899
_cell_angle_alpha 90.000000
_cell_angle_beta 90.000000
_cell_angle_gamma 90.000000
_cell_volume 2083.178564
_symmetry_space_group_name_H-M "I M M A"
_symmetry_group_IT_number 74
_symmetry_cell_setting 'orthorhombic'
loop_
_space_group_symop_operation_xyz
x,y,z
-x,1/2-y,z
x,-y,-z
-x,1/2+y,-z
-x,-y,-z
x,1/2+y,-z
-x,y,z
x,1/2-y,z
1/2+x,1/2+y,1/2+z
1/2-x,-y,1/2+z
1/2+x,1/2-y,1/2-z
1/2-x,y,1/2-z
1/2-x,1/2-y,1/2-z
1/2+x,y,1/2-z
1/2-x,1/2+y,1/2+z
1/2+x,-y,1/2+z
loop_
_atom_site_type_symbol
_atom_site_label
_atom_site_fract_x
_atom_site_fract_y
_atom_site_fract_z
Si Si1 0.500000 0.750000 0.450306
Si Si2 0.647093 0.448832 0.399479
Si Si3 0.876947 0.462010 0.764157
Si Si4 0.118444 0.539162 0.430686
O O1 0.595015 0.594663 0.441680
O O2 0.613400 0.250000 0.415653
O O3 0.614408 0.500498 0.333626
O O4 0.778018 0.455852 0.400447
O O5 0.874555 0.250000 0.752673
O O6 0.750000 0.526504 0.750000
O O7 0.000000 0.522809 0.740394
O O8 0.125795 0.500000 0.500000
O O9 0.123172 0.750000 0.421995
O O10 0.000000 0.474149 0.409964
#
# Coordination Sequence:
#
# PCOD9538546 Si02
#       4
#     4  16  16  16
#     4  12  22  44  62  90 126 172 206 266 300 388
#     4  12  23  40  68  91 126 168 209 259 319 372
#     4  10  20  38  61  88 125 165 207 259 315 373
#     4  10  21  40  66  95 129 164 206 261 317 375
#
# _framework density 24.961855
#
# number of rings (size 3 to 8) (size 9 to 14) (size 15 to 20)
#    0.000    1.231    4.615    1.385    0.000    3.692 
#    0.000    3.846    0.000    0.000    0.000    0.000 
#    0.000    0.000    0.000    0.000    0.000    0.000 
#
# Total GULP energy -144756.196659 kJ/mol
# GULP energy per Si atom -5567.546025 kJ/mol
# Density = 2.490504 g / cm^3
# Si number density = 24.961855 Si / 1000 Ang^3
#
#
#
# Elastic Constant Matrix: (Units=GPa)
#
#
# Indices 1 2 3 4 5 6 
#
# 1 313.0107 19.5325 28.7376 0.0000 0.0000 0.0000
# 2 19.5325 112.4584 -5.0594 0.0000 0.0000 0.0000
# 3 28.7376 -5.0594 57.4889 0.0000 0.0000 0.0000
# 4 0.0000 0.0000 0.0000 16.0427 0.0000 0.0000
# 5 0.0000 0.0000 0.0000 0.0000 54.0237 0.0000
# 6 0.0000 0.0000 0.0000 0.0000 0.0000 25.8348
#
#
#
# Elastic Compliance Matrix: (Units=1/GPa)
#
#
# Indices 1 2 3 4 5 6 
#
# 1 0.003398 -0.000669 -0.001757 0.000000 0.000000 0.000000
# 2 -0.000669 0.009059 0.001132 0.000000 0.000000 0.000000
# 3 -0.001757 0.001132 0.018373 0.000000 0.000000 0.000000
# 4 0.000000 0.000000 0.000000 0.062334 0.000000 0.000000
# 5 0.000000 0.000000 0.000000 0.000000 0.018510 0.000000
# 6 0.000000 0.000000 0.000000 0.000000 0.000000 0.038707
#
#
# Mechanical properties :
#
#
# Convention : Reuss Voigt Hill
#
# Bulk Modulus (GPa) = 35.41042 63.26437 49.33740
# Shear Modulus (GPa) = 30.79106 48.49672 39.64389
#
# Velocity S-wave (km/s) = 3.51597 4.41254 3.98952
# Velocity P-wave (km/s) = 5.54070 7.16660 6.40544
#
# Compressibility (1/GPa) = 0.02824027
#
# Stress axis : x y z
#
# Youngs Moduli (GPa) = 294.30020 110.38341 54.42840
#
# Poissons Ratio (x) = 0.07387 0.09565
# Poissons Ratio (y) = 0.19695 -0.06160
# Poissons Ratio (z) = 0.51721 -0.12493
#
# Static dielectric constant tensor:
#      x y z
#    x 2.032570 0.000000 0.000000 
#    y 0.000000 1.929400 0.000000 
#    z 0.000000 0.000000 1.979120 
# 
# From -- ./inp_files/65440.got.cif
#   From: 2010.05.17/outbox.cif.g08.bks.cpg/sg74_33_cif.got.tgz:65440.got - 2010.06.03 17:57:02.
