data_PCOD9538031
_publ_section_title
;
Structure prediction by ZEFSAII (Michael W. Deem and Ramdas Pophale) SiO2 
 PCOD9538031
Probable space group: I M M A
;
_chemical_formula_sum "Si O2"
_cell_formula_units_Z 88
_cell_length_a 20.758866
_cell_length_b 15.729676
_cell_length_c 13.999331
_cell_angle_alpha 90.000000
_cell_angle_beta 90.000000
_cell_angle_gamma 90.000000
_cell_volume 4571.204860
_symmetry_space_group_name_H-M "I M M A"
_symmetry_group_IT_number 74
_symmetry_cell_setting 'orthorhombic'
loop_
_space_group_symop_operation_xyz
x,y,z
-x,1/2-y,z
x,-y,-z
-x,1/2+y,-z
-x,-y,-z
x,1/2+y,-z
-x,y,z
x,1/2-y,z
1/2+x,1/2+y,1/2+z
1/2-x,-y,1/2+z
1/2+x,1/2-y,1/2-z
1/2-x,y,1/2-z
1/2-x,1/2-y,1/2-z
1/2+x,y,1/2-z
1/2-x,1/2+y,1/2+z
1/2+x,-y,1/2+z
loop_
_atom_site_type_symbol
_atom_site_label
_atom_site_fract_x
_atom_site_fract_y
_atom_site_fract_z
Si Si1 0.383930 0.153806 0.146343
Si Si2 0.500000 0.522748 0.885540
Si Si3 0.685356 0.154505 0.945700
Si Si4 0.860832 0.842819 0.231201
Si Si5 0.500000 0.156858 0.778909
Si Si6 0.295382 0.023873 0.595402
Si Si7 0.250000 0.108466 0.250000
O O1 0.410541 0.250000 0.160683
O O2 0.318659 0.148109 0.212536
O O3 0.437750 0.078796 0.150199
O O4 0.359900 0.147491 0.036818
O O5 0.500000 0.428974 0.839532
O O6 0.500000 0.500000 0.000000
O O7 0.713860 0.250000 0.949380
O O8 0.649275 0.146334 0.844606
O O9 0.737431 0.080922 0.945409
O O10 0.833288 0.750000 0.206329
O O11 0.829357 0.916048 0.171439
O O12 0.936450 0.843348 0.215929
O O13 0.500000 0.250000 0.831734
O O14 0.334329 0.000000 0.500000
O O15 0.270507 0.946077 0.657908
#
# Coordination Sequence:
#
# PCOD9538031 Si02
#       7
#    16   8  16  16   8  16   8
#     4  11  25  43  61  93 132 180 222 262 314 394
#     4  12  25  37  68  94 135 171 214 265 340 394
#     4  10  20  35  58  87 123 157 200 256 316 373
#     4  10  20  37  59  85 118 157 196 252 317 379
#     4  10  22  39  61  88 120 153 200 255 321 388
#     4  12  22  34  57  87 120 151 208 258 317 367
#     4  12  23  38  65  86 130 174 219 262 324 386
#
# _framework density 19.250941999999998
#
# number of rings (size 3 to 8) (size 9 to 14) (size 15 to 20)
#    0.000    1.091    3.636    3.273    2.545    3.636 
#    0.000    0.455    0.000    0.000    0.000    2.545 
#    0.000    0.000    0.000    0.000    0.000    0.000 
#
# Total GULP energy -245198.629400 kJ/mol
# GULP energy per Si atom -5572.696123 kJ/mol
# Density = 1.920713 g / cm^3
# Si number density = 19.250942 Si / 1000 Ang^3
#
#
#
# Elastic Constant Matrix: (Units=GPa)
#
#
# Indices 1 2 3 4 5 6 
#
# 1 68.7367 42.7077 11.6747 0.0000 0.0000 0.0000
# 2 42.7077 118.6759 24.2715 0.0000 0.0000 0.0000
# 3 11.6747 24.2715 73.9364 0.0000 0.0000 0.0000
# 4 0.0000 0.0000 0.0000 23.6869 0.0000 0.0000
# 5 0.0000 0.0000 0.0000 0.0000 13.1890 0.0000
# 6 0.0000 0.0000 0.0000 0.0000 0.0000 32.8725
#
#
#
# Elastic Compliance Matrix: (Units=1/GPa)
#
#
# Indices 1 2 3 4 5 6 
#
# 1 0.018782 -0.006595 -0.000801 0.000000 0.000000 0.000000
# 2 -0.006595 0.011349 -0.002684 0.000000 0.000000 0.000000
# 3 -0.000801 -0.002684 0.014533 0.000000 0.000000 0.000000
# 4 0.000000 0.000000 0.000000 0.042217 0.000000 0.000000
# 5 0.000000 0.000000 0.000000 0.000000 0.075821 0.000000
# 6 0.000000 0.000000 0.000000 0.000000 0.000000 0.030421
#
#
# Mechanical properties :
#
#
# Convention : Reuss Voigt Hill
#
# Bulk Modulus (GPa) = 40.81074 46.51743 43.66409
# Shear Modulus (GPa) = 22.57845 26.12934 24.35390
#
# Velocity S-wave (km/s) = 3.42840 3.68816 3.56065
# Velocity P-wave (km/s) = 6.07596 6.50790 6.29564
#
# Compressibility (1/GPa) = 0.02450335
#
# Stress axis : x y z
#
# Youngs Moduli (GPa) = 53.24224 88.11582 68.81044
#
# Poissons Ratio (x) = 0.58115 0.05509
# Poissons Ratio (y) = 0.35115 0.18469
# Poissons Ratio (z) = 0.04263 0.23651
#
# Static dielectric constant tensor:
#      x y z
#    x 1.708940 0.000000 0.000000 
#    y 0.000000 1.696910 0.000000 
#    z 0.000000 0.000000 1.709360 
# 
# From -- ./inp_files/35213.got.cif
#   From: 2010.05.17/outbox.cif.g08.bks.cpg/sg74_18_cif.got.tgz:35213.got - 2010.06.03 17:57:02.
