data_PCOD9538973
_publ_section_title
;
Structure prediction by ZEFSAII (Michael W. Deem and Ramdas Pophale) SiO2 
 PCOD9538973
Probable space group: I M M A
;
_chemical_formula_sum "Si O2"
_cell_formula_units_Z 56
_cell_length_a 13.652066
_cell_length_b 21.187474
_cell_length_c 10.333537
_cell_angle_alpha 90.000000
_cell_angle_beta 90.000000
_cell_angle_gamma 90.000000
_cell_volume 2989.004443
_symmetry_space_group_name_H-M "I M M A"
_symmetry_group_IT_number 74
_symmetry_cell_setting 'orthorhombic'
loop_
_space_group_symop_operation_xyz
x,y,z
-x,1/2-y,z
x,-y,-z
-x,1/2+y,-z
-x,-y,-z
x,1/2+y,-z
-x,y,z
x,1/2-y,z
1/2+x,1/2+y,1/2+z
1/2-x,-y,1/2+z
1/2+x,1/2-y,1/2-z
1/2-x,y,1/2-z
1/2-x,1/2-y,1/2-z
1/2+x,y,1/2-z
1/2-x,1/2+y,1/2+z
1/2+x,-y,1/2+z
loop_
_atom_site_type_symbol
_atom_site_label
_atom_site_fract_x
_atom_site_fract_y
_atom_site_fract_z
Si Si1 0.750000 0.134855 0.750000
Si Si2 0.382958 0.820327 0.477494
Si Si3 0.381878 0.949174 0.607903
Si Si4 0.614675 0.972218 0.142476
O O1 0.680348 0.172702 0.652762
O O2 0.680015 0.088737 0.832505
O O3 0.500000 0.827418 0.450246
O O4 0.368732 0.750000 0.532307
O O5 0.351903 0.878560 0.569385
O O6 0.500000 0.948817 0.601075
O O7 0.348260 0.000000 0.500000
O O8 0.358385 0.975783 0.749085
O O9 0.500000 0.956190 0.163210
O O10 0.624891 0.000000 0.000000
#
# Coordination Sequence:
#
# PCOD9538973 Si02
#       4
#     8  16  16  16
#     4  12  21  32  58  82 115 154 192 236 281 350
#     4  10  21  36  56  84 117 152 193 240 288 342
#     4   9  16  33  57  78 103 141 188 232 278 329
#     4  10  22  36  54  86 119 147 187 241 295 340
#
# _framework density 18.735334999999999
#
# number of rings (size 3 to 8) (size 9 to 14) (size 15 to 20)
#    0.000    2.000    2.857    1.286    4.000    0.000 
#    0.000    0.000    0.000    5.143    0.000   12.000 
#    0.000    0.000    0.000    0.000    0.000    0.000 
#
# Total GULP energy -156286.575206 kJ/mol
# GULP energy per Si atom -5581.663400 kJ/mol
# Density = 1.869269 g / cm^3
# Si number density = 18.735335 Si / 1000 Ang^3
#
#
#
# Elastic Constant Matrix: (Units=GPa)
#
#
# Indices 1 2 3 4 5 6 
#
# 1 87.6046 25.8361 7.1671 0.0000 0.0000 0.0000
# 2 25.8361 145.3013 54.6428 0.0000 0.0000 0.0000
# 3 7.1671 54.6428 113.5965 0.0000 -0.0002 0.0001
# 4 0.0000 0.0000 0.0000 24.5329 -0.0001 0.0001
# 5 0.0000 0.0000 -0.0002 -0.0001 0.0300 0.0000
# 6 0.0000 0.0000 0.0001 0.0001 0.0000 14.0201
#
#
#
# Elastic Compliance Matrix: (Units=1/GPa)
#
#
# Indices 1 2 3 4 5 6 
#
# 1 0.012057 -0.002268 0.000330 0.000000 -0.000014 0.000000
# 2 -0.002268 0.008829 -0.004104 0.000000 -0.000015 0.000000
# 3 0.000330 -0.004104 0.010756 0.000000 0.000059 0.000000
# 4 0.000000 0.000000 0.000000 0.040762 0.000140 0.000000
# 5 -0.000014 -0.000015 0.000059 0.000140 33.304483 0.000025
# 6 0.000000 0.000000 0.000000 0.000000 0.000025 0.071326
#
#
# Mechanical properties :
#
#
# Convention : Reuss Voigt Hill
#
# Bulk Modulus (GPa) = 51.12785 57.97715 54.55250
# Shear Modulus (GPa) = 0.14940 24.97370 12.56155
#
# Velocity S-wave (km/s) = 0.28269 3.65495 2.59216
# Velocity P-wave (km/s) = 5.23978 6.98742 6.17574
#
# Compressibility (1/GPa) = 0.01955881
#
# Stress axis : x y z
#
# Youngs Moduli (GPa) = 82.94085 113.26534 92.96895
#
# Poissons Ratio (x) = 0.25689 -0.03071
# Poissons Ratio (y) = 0.18811 0.38153
# Poissons Ratio (z) = -0.02739 0.46482
#
# Static dielectric constant tensor:
#      x y z
#    x 1.686020 0.000000 0.000000 
#    y 0.000000 1.640930 0.000000 
#    z 0.000000 0.000000 1.631920 
# 
# From -- ./inp_files/8467.got.cif
#   From: 2010.05.17/outbox.cif.g08.bks.cpg/sg74_5_cif.got.tgz:8467.got - 2010.06.03 17:57:02.
