data_PCOD9538025
_publ_section_title
;
Structure prediction by ZEFSAII (Michael W. Deem and Ramdas Pophale) SiO2 
 PCOD9538025
Probable space group: I M M A
;
_chemical_formula_sum "Si O2"
_cell_formula_units_Z 96
_cell_length_a 23.553224
_cell_length_b 25.986594
_cell_length_c 9.063312
_cell_angle_alpha 90.000000
_cell_angle_beta 90.000000
_cell_angle_gamma 90.000000
_cell_volume 5547.363879
_symmetry_space_group_name_H-M "I M M A"
_symmetry_group_IT_number 74
_symmetry_cell_setting 'orthorhombic'
loop_
_space_group_symop_operation_xyz
x,y,z
-x,1/2-y,z
x,-y,-z
-x,1/2+y,-z
-x,-y,-z
x,1/2+y,-z
-x,y,z
x,1/2-y,z
1/2+x,1/2+y,1/2+z
1/2-x,-y,1/2+z
1/2+x,1/2-y,1/2-z
1/2-x,y,1/2-z
1/2-x,1/2-y,1/2-z
1/2+x,y,1/2-z
1/2-x,1/2+y,1/2+z
1/2+x,-y,1/2+z
loop_
_atom_site_type_symbol
_atom_site_label
_atom_site_fract_x
_atom_site_fract_y
_atom_site_fract_z
Si Si1 0.250000 0.338007 0.750000
Si Si2 0.730114 0.750000 0.485440
Si Si3 0.641692 0.250000 0.052703
Si Si4 0.067418 0.442378 0.436880
Si Si5 0.068976 0.451079 0.095652
Si Si6 0.890627 0.250000 0.121317
Si Si7 0.932540 0.346487 0.935169
Si Si8 0.631129 0.644269 0.127933
O O1 0.272176 0.299573 0.621903
O O2 0.303984 0.366925 0.819728
O O3 0.789826 0.750000 0.569874
O O4 0.676127 0.750000 0.587670
O O5 0.605720 0.250000 0.202570
O O6 0.630292 0.302331 0.962891
O O7 0.072327 0.500000 0.500000
O O8 0.086344 0.446385 0.266170
O O9 0.102969 0.401275 0.532130
O O10 0.000000 0.428185 0.442055
O O11 0.000000 0.454079 0.098950
O O12 0.088865 0.500000 0.000000
O O13 0.085640 0.399402 0.012188
O O14 0.916657 0.299562 0.041505
O O15 0.903752 0.344736 0.776372
O O16 0.000000 0.347438 0.915813
#
# Coordination Sequence:
#
# PCOD9538025 Si02
#       8
#     8   8   8  16  16   8  16  16
#     4   9  18  34  58  82 102 142 188 235 276 318
#     4   9  17  35  55  78 105 141 189 228 263 329
#     4  10  23  34  56  81 109 146 188 237 277 329
#     4  10  20  35  58  86 114 147 185 228 277 339
#     4   9  18  34  54  78 108 143 184 223 264 323
#     4  12  20  35  51  81 114 144 181 223 284 334
#     4  11  22  34  53  79 111 148 182 223 279 341
#     4  11  20  37  57  81 112 147 193 234 285 333
#
# _framework density 17.305517999999999
#
# number of rings (size 3 to 8) (size 9 to 14) (size 15 to 20)
#    0.000    1.833    1.667    4.000    0.000    2.667 
#    0.000    3.750    0.000    3.000    0.000    0.000 
#    0.000    0.000    0.000    0.000    0.000    0.000 
#
# Total GULP energy -267754.926928 kJ/mol
# GULP energy per Si atom -5578.227644 kJ/mol
# Density = 1.726613 g / cm^3
# Si number density = 17.305518 Si / 1000 Ang^3
#
#
#
# Elastic Constant Matrix: (Units=GPa)
#
#
# Indices 1 2 3 4 5 6 
#
# 1 72.0490 53.2215 50.5715 0.0000 0.0000 0.0000
# 2 53.2215 115.4462 51.5998 0.0000 0.0000 0.0000
# 3 50.5715 51.5998 126.1467 0.0000 0.0000 0.0000
# 4 0.0000 0.0000 0.0000 32.6675 0.0000 0.0000
# 5 0.0000 0.0000 0.0000 0.0000 28.7241 0.0000
# 6 0.0000 0.0000 0.0000 0.0000 0.0000 18.1317
#
#
#
# Elastic Compliance Matrix: (Units=1/GPa)
#
#
# Indices 1 2 3 4 5 6 
#
# 1 0.024658 -0.008504 -0.006407 0.000000 0.000000 0.000000
# 2 -0.008504 0.013533 -0.002126 0.000000 0.000000 0.000000
# 3 -0.006407 -0.002126 0.011366 0.000000 0.000000 0.000000
# 4 0.000000 0.000000 0.000000 0.030611 0.000000 0.000000
# 5 0.000000 0.000000 0.000000 0.000000 0.034814 0.000000
# 6 0.000000 0.000000 0.000000 0.000000 0.000000 0.055152
#
#
# Mechanical properties :
#
#
# Convention : Reuss Voigt Hill
#
# Bulk Modulus (GPa) = 64.59021 69.38081 66.98551
# Shear Modulus (GPa) = 23.88128 26.45461 25.16794
#
# Velocity S-wave (km/s) = 3.71884 3.91408 3.81771
# Velocity P-wave (km/s) = 7.47290 7.78495 7.63052
#
# Compressibility (1/GPa) = 0.01548222
#
# Stress axis : x y z
#
# Youngs Moduli (GPa) = 40.55451 73.89434 87.98554
#
# Poissons Ratio (x) = 0.62840 0.56371
# Poissons Ratio (y) = 0.34488 0.18709
# Poissons Ratio (z) = 0.25982 0.15712
#
# Static dielectric constant tensor:
#      x y z
#    x 1.589180 0.000000 0.000000 
#    y 0.000000 1.560010 0.000000 
#    z 0.000000 0.000000 1.599840 
# 
# From -- ./inp_files/14012.got.cif
#   From: 2010.05.17/outbox.cif.g08.bks.cpg/sg74_8_cif.got.tgz:14012.got - 2010.06.03 17:57:02.
