data_PCOD9538874
_publ_section_title
;
Structure prediction by ZEFSAII (Michael W. Deem and Ramdas Pophale) SiO2 
 PCOD9538874
Probable space group: I M M A
;
_chemical_formula_sum "Si O2"
_cell_formula_units_Z 72
_cell_length_a 22.838949
_cell_length_b 18.700601
_cell_length_c 7.216779
_cell_angle_alpha 90.000000
_cell_angle_beta 90.000000
_cell_angle_gamma 90.000000
_cell_volume 3082.301268
_symmetry_space_group_name_H-M "I M M A"
_symmetry_group_IT_number 74
_symmetry_cell_setting 'orthorhombic'
loop_
_space_group_symop_operation_xyz
x,y,z
-x,1/2-y,z
x,-y,-z
-x,1/2+y,-z
-x,-y,-z
x,1/2+y,-z
-x,y,z
x,1/2-y,z
1/2+x,1/2+y,1/2+z
1/2-x,-y,1/2+z
1/2+x,1/2-y,1/2-z
1/2-x,y,1/2-z
1/2-x,1/2-y,1/2-z
1/2+x,y,1/2-z
1/2-x,1/2+y,1/2+z
1/2+x,-y,1/2+z
loop_
_atom_site_type_symbol
_atom_site_label
_atom_site_fract_x
_atom_site_fract_y
_atom_site_fract_z
Si Si1 0.370944 0.479890 0.215166
Si Si2 0.624130 0.170885 0.394966
Si Si3 0.000000 0.170266 0.112932
Si Si4 0.749048 0.329144 0.473265
Si Si5 0.500000 0.982392 0.783630
Si Si6 0.750000 0.052137 0.750000
O O1 0.371628 0.394930 0.254689
O O2 0.435357 0.506845 0.288674
O O3 0.308911 0.507814 0.295374
O O4 0.371077 0.500000 0.000000
O O5 0.627315 0.250000 0.304941
O O6 0.561303 0.165750 0.492748
O O7 0.680041 0.168342 0.524907
O O8 0.000000 0.250000 0.200469
O O9 0.000000 0.103362 0.250860
O O10 0.771919 0.250000 0.521394
O O11 0.750000 0.335423 0.250000
O O12 0.771728 0.396597 0.583183
O O13 0.500000 0.000000 0.000000
#
# Coordination Sequence:
#
# PCOD9538874 Si02
#       6
#    16  16   8  16   8   8
#     4  10  21  35  57  87 122 162 203 255 307 367
#     4   9  18  34  56  81 112 151 194 242 296 357
#     4   8  14  28  53  81 105 140 194 242 285 349
#     4  10  22  41  62  85 118 158 199 247 305 367
#     4   8  16  34  53  77 117 162 202 242 305 367
#     4  12  25  36  61  92 124 154 202 256 309 366
#
# _framework density 23.359169999999999
#
# number of rings (size 3 to 8) (size 9 to 14) (size 15 to 20)
#    0.000    2.444    0.000    1.667    4.667    0.000 
#    0.000    2.222    0.000    5.333    0.000    0.000 
#    0.000    0.000    0.000    0.000    0.000    0.000 
#
# Total GULP energy -200463.968852 kJ/mol
# GULP energy per Si atom -5568.443579 kJ/mol
# Density = 2.330600 g / cm^3
# Si number density = 23.359170 Si / 1000 Ang^3
#
#
#
# Elastic Constant Matrix: (Units=GPa)
#
#
# Indices 1 2 3 4 5 6 
#
# 1 193.5616 40.7115 4.1088 0.0000 0.0000 0.0000
# 2 40.7115 145.8034 28.4501 0.0000 0.0000 0.0000
# 3 4.1088 28.4501 68.5868 0.0000 0.0000 0.0000
# 4 0.0000 0.0000 0.0000 25.6294 0.0000 0.0000
# 5 0.0000 0.0000 0.0000 0.0000 11.1768 0.0000
# 6 0.0000 0.0000 0.0000 0.0000 0.0000 -84.2028
#
#
#
# Elastic Compliance Matrix: (Units=1/GPa)
#
#
# Indices 1 2 3 4 5 6 
#
# 1 0.005496 -0.001600 0.000334 0.000000 0.000000 0.000000
# 2 -0.001600 0.007928 -0.003193 0.000000 0.000000 0.000000
# 3 0.000334 -0.003193 0.015884 0.000000 0.000000 0.000000
# 4 0.000000 0.000000 0.000000 0.039018 0.000000 0.000000
# 5 0.000000 0.000000 0.000000 0.000000 0.089471 0.000000
# 6 0.000000 0.000000 0.000000 0.000000 0.000000 -0.011876
#
#
# Mechanical properties :
#
#
# Convention : Reuss Voigt Hill
#
# Bulk Modulus (GPa) = 49.03908 61.61029 55.32469
# Shear Modulus (GPa) = 30.93389 12.83277 21.88333
#
# Velocity S-wave (km/s) = 3.64300 2.34640 3.06407
# Velocity P-wave (km/s) = 6.22369 5.81148 6.02111
#
# Compressibility (1/GPa) = 0.02039190
#
# Stress axis : x y z
#
# Youngs Moduli (GPa) = 181.96071 126.13127 62.95471
#
# Poissons Ratio (x) = 0.20178 -0.02105
# Poissons Ratio (y) = 0.29109 0.20100
# Poissons Ratio (z) = -0.06084 0.40272
#
# Static dielectric constant tensor:
#      x y z
#    x 2.032060 0.000000 0.000000 
#    y 0.000000 1.926380 0.000000 
#    z 0.000000 0.000000 1.864910 
# 
# From -- ./inp_files/13514.got.cif
#   From: 2010.05.17/outbox.cif.g08.bks.cpg/sg74_7_cif.got.tgz:13514.got - 2010.06.03 17:57:02.
