data_PCOD9538090
_publ_section_title
;
Structure prediction by ZEFSAII (Michael W. Deem and Ramdas Pophale) SiO2 
 PCOD9538090
Probable space group: I M M A
;
_chemical_formula_sum "Si O2"
_cell_formula_units_Z 80
_cell_length_a 25.254453
_cell_length_b 13.709510
_cell_length_c 11.952716
_cell_angle_alpha 90.000000
_cell_angle_beta 90.000000
_cell_angle_gamma 90.000000
_cell_volume 4138.343153
_symmetry_space_group_name_H-M "I M M A"
_symmetry_group_IT_number 74
_symmetry_cell_setting 'orthorhombic'
loop_
_space_group_symop_operation_xyz
x,y,z
-x,1/2-y,z
x,-y,-z
-x,1/2+y,-z
-x,-y,-z
x,1/2+y,-z
-x,y,z
x,1/2-y,z
1/2+x,1/2+y,1/2+z
1/2-x,-y,1/2+z
1/2+x,1/2-y,1/2-z
1/2-x,y,1/2-z
1/2-x,1/2-y,1/2-z
1/2+x,y,1/2-z
1/2-x,1/2+y,1/2+z
1/2+x,-y,1/2+z
loop_
_atom_site_type_symbol
_atom_site_label
_atom_site_fract_x
_atom_site_fract_y
_atom_site_fract_z
Si Si1 0.290906 0.136617 0.054273
Si Si2 0.111932 0.138324 0.279609
Si Si3 0.167675 0.864474 0.308871
Si Si4 0.187176 0.528349 0.875193
Si Si5 0.558818 0.038312 0.872696
O O1 0.276329 0.250000 0.064895
O O2 0.346494 0.123876 0.117752
O O3 0.245203 0.074657 0.111629
O O4 0.299895 0.115630 0.923371
O O5 0.094550 0.250000 0.278177
O O6 0.147307 0.108812 0.173825
O O7 0.067006 0.058409 0.297662
O O8 0.173675 0.750000 0.281324
O O9 0.106770 0.890208 0.340465
O O10 0.184495 0.936265 0.208881
O O11 0.170638 0.500000 0.000000
O O12 0.500000 0.080098 0.858359
O O13 0.563513 0.000000 0.000000
#
# Coordination Sequence:
#
# PCOD9538090 Si02
#       5
#    16  16  16  16  16
#     4  10  21  37  58  84 115 158 200 236 290 350
#     4  10  21  38  58  83 118 155 195 242 290 348
#     4  10  23  42  61  87 124 160 197 244 298 357
#     4  11  25  35  59  84 119 160 204 245 286 343
#     4  10  20  35  62  94 122 152 189 242 307 360
#
# _framework density 19.331408
#
# number of rings (size 3 to 8) (size 9 to 14) (size 15 to 20)
#    0.000    1.800    2.000    1.200    8.400    4.000 
#    0.000    4.000    0.000    9.600    0.000   11.200 
#    0.000    0.000    0.000    0.000    0.000    0.000 
#
# Total GULP energy -223578.377290 kJ/mol
# GULP energy per Si atom -5589.459432 kJ/mol
# Density = 1.928741 g / cm^3
# Si number density = 19.331408 Si / 1000 Ang^3
#
#
#
# Elastic Constant Matrix: (Units=GPa)
#
#
# Indices 1 2 3 4 5 6 
#
# 1 92.2072 32.9404 27.5376 0.0000 0.0000 0.0000
# 2 32.9404 66.2869 31.6111 0.0000 0.0000 0.0000
# 3 27.5376 31.6111 108.0716 0.0000 0.0000 0.0000
# 4 0.0000 0.0000 0.0000 28.3156 0.0000 0.0000
# 5 0.0000 0.0000 0.0000 0.0000 10.3381 0.0000
# 6 0.0000 0.0000 0.0000 0.0000 0.0000 14.7621
#
#
#
# Elastic Compliance Matrix: (Units=1/GPa)
#
#
# Indices 1 2 3 4 5 6 
#
# 1 0.013453 -0.005869 -0.001711 0.000000 0.000000 0.000000
# 2 -0.005869 0.020092 -0.004381 0.000000 0.000000 0.000000
# 3 -0.001711 -0.004381 0.010971 0.000000 0.000000 0.000000
# 4 0.000000 0.000000 0.000000 0.035316 0.000000 0.000000
# 5 0.000000 0.000000 0.000000 0.000000 0.096729 0.000000
# 6 0.000000 0.000000 0.000000 0.000000 0.000000 0.067741
#
#
# Mechanical properties :
#
#
# Convention : Reuss Voigt Hill
#
# Bulk Modulus (GPa) = 48.56247 50.08264 49.32256
# Shear Modulus (GPa) = 18.17588 22.31494 20.24541
#
# Velocity S-wave (km/s) = 3.06964 3.40124 3.23968
# Velocity P-wave (km/s) = 6.14322 6.43337 6.28996
#
# Compressibility (1/GPa) = 0.02059203
#
# Stress axis : x y z
#
# Youngs Moduli (GPa) = 74.33325 49.77107 91.15185
#
# Poissons Ratio (x) = 0.29212 0.15598
# Poissons Ratio (y) = 0.43628 0.39937
# Poissons Ratio (z) = 0.12720 0.21807
#
# Static dielectric constant tensor:
#      x y z
#    x 1.679090 0.000000 0.000000 
#    y 0.000000 1.696030 0.000000 
#    z 0.000000 0.000000 1.682450 
# 
# From -- ./inp_files/20799.got.cif
#   From: 2010.05.17/outbox.cif.g08.bks.cpg/sg74_11_cif.got.tgz:20799.got - 2010.06.03 17:57:02.
