data_PCOD9538833
_publ_section_title
;
Structure prediction by ZEFSAII (Michael W. Deem and Ramdas Pophale) SiO2 
 PCOD9538833
Probable space group: I M M A
;
_chemical_formula_sum "Si O2"
_cell_formula_units_Z 100
_cell_length_a 7.628238
_cell_length_b 20.470463
_cell_length_c 29.916596
_cell_angle_alpha 90.000000
_cell_angle_beta 90.000000
_cell_angle_gamma 90.000000
_cell_volume 4671.583080
_symmetry_space_group_name_H-M "I M M A"
_symmetry_group_IT_number 74
_symmetry_cell_setting 'orthorhombic'
loop_
_space_group_symop_operation_xyz
x,y,z
-x,1/2-y,z
x,-y,-z
-x,1/2+y,-z
-x,-y,-z
x,1/2+y,-z
-x,y,z
x,1/2-y,z
1/2+x,1/2+y,1/2+z
1/2-x,-y,1/2+z
1/2+x,1/2-y,1/2-z
1/2-x,y,1/2-z
1/2-x,1/2-y,1/2-z
1/2+x,y,1/2-z
1/2-x,1/2+y,1/2+z
1/2+x,-y,1/2+z
loop_
_atom_site_type_symbol
_atom_site_label
_atom_site_fract_x
_atom_site_fract_y
_atom_site_fract_z
Si Si1 0.700304 0.951444 0.445712
Si Si2 0.790592 0.870600 0.299055
Si Si3 0.710726 0.479684 0.200168
Si Si4 0.500000 0.750000 0.991981
Si Si5 0.201582 0.360361 0.021723
Si Si6 0.199603 0.425451 0.391543
Si Si7 0.786561 0.821479 0.393495
O O1 0.500000 0.975001 0.446805
O O2 0.750854 0.927514 0.495263
O O3 0.712343 0.882667 0.419578
O O4 0.801684 0.004293 0.416555
O O5 0.750000 0.844093 0.250000
O O6 0.733340 0.829849 0.341777
O O7 0.000000 0.874444 0.302251
O O8 0.721897 0.945313 0.302054
O O9 0.500000 0.482612 0.195331
O O10 0.750000 0.454817 0.250000
O O11 0.775967 0.438693 0.157727
O O12 0.345366 0.693052 0.990305
O O13 0.208425 0.376547 0.074344
O O14 0.000000 0.344372 0.009486
O O15 0.000000 0.402126 0.386803
O O16 0.734059 0.750000 0.410125
O O17 0.000000 0.824292 0.396922
#
# Coordination Sequence:
#
# PCOD9538833 Si02
#       7
#    16  16  16   4  16  16  16
#     4  11  24  38  57  87 124 162 207 269 313 362
#     4   9  17  32  48  71 102 144 194 251 305 360
#     4   9  18  32  54  85 122 156 200 254 312 378
#     4  12  26  48  70  94 126 180 204 264 324 378
#     4  11  26  44  66  98 130 165 218 260 311 386
#     4  11  21  39  65  94 127 166 212 256 319 385
#     4  10  21  35  53  74 104 153 208 254 307 372
#
# _framework density 21.406019000000001
#
# number of rings (size 3 to 8) (size 9 to 14) (size 15 to 20)
#    0.000    1.760    2.400    1.680    3.360    4.480 
#    0.000    0.000    0.000    0.000    0.000    0.560 
#    0.000    0.000    0.000    0.000    0.000    0.000 
#
# Total GULP energy -278838.771825 kJ/mol
# GULP energy per Si atom -5576.775436 kJ/mol
# Density = 2.135730 g / cm^3
# Si number density = 21.406019 Si / 1000 Ang^3
#
#
#
# Elastic Constant Matrix: (Units=GPa)
#
#
# Indices 1 2 3 4 5 6 
#
# 1 80.4990 22.6949 7.9552 0.0000 0.0000 0.0000
# 2 22.6949 39.5490 8.8587 0.0000 0.0000 0.0000
# 3 7.9552 8.8587 130.1323 0.0000 0.0000 0.0000
# 4 0.0000 0.0000 0.0000 14.1573 0.0000 0.0000
# 5 0.0000 0.0000 0.0000 0.0000 22.6553 0.0000
# 6 0.0000 0.0000 0.0000 0.0000 0.0000 14.9508
#
#
#
# Elastic Compliance Matrix: (Units=1/GPa)
#
#
# Indices 1 2 3 4 5 6 
#
# 1 0.014834 -0.008438 -0.000332 0.000000 0.000000 0.000000
# 2 -0.008438 0.030476 -0.001559 0.000000 0.000000 0.000000
# 3 -0.000332 -0.001559 0.007811 0.000000 0.000000 0.000000
# 4 0.000000 0.000000 0.000000 0.070635 0.000000 0.000000
# 5 0.000000 0.000000 0.000000 0.000000 0.044140 0.000000
# 6 0.000000 0.000000 0.000000 0.000000 0.000000 0.066886
#
#
# Mechanical properties :
#
#
# Convention : Reuss Voigt Hill
#
# Bulk Modulus (GPa) = 30.80439 36.57755 33.69097
# Shear Modulus (GPa) = 18.77850 24.39745 21.58797
#
# Velocity S-wave (km/s) = 2.96506 3.37968 3.17913
# Velocity P-wave (km/s) = 5.11311 5.68808 5.40824
#
# Compressibility (1/GPa) = 0.03246291
#
# Stress axis : x y z
#
# Youngs Moduli (GPa) = 67.41135 32.81227 128.02579
#
# Poissons Ratio (x) = 0.27687 0.04256
# Poissons Ratio (y) = 0.56882 0.19957
# Poissons Ratio (z) = 0.02241 0.05115
#
# Static dielectric constant tensor:
#      x y z
#    x 1.790740 0.000000 0.000000 
#    y 0.000000 1.756470 0.000000 
#    z 0.000000 0.000000 1.843780 
# 
# From -- ./inp_files/64466.got.cif
#   From: 2010.05.17/outbox.cif.g08.bks.cpg/sg74_33_cif.got.tgz:64466.got - 2010.06.03 17:57:02.
