data_PCOD9538713
_publ_section_title
;
Structure prediction by ZEFSAII (Michael W. Deem and Ramdas Pophale) SiO2 
 PCOD9538713
Probable space group: I M M A
;
_chemical_formula_sum "Si O2"
_cell_formula_units_Z 56
_cell_length_a 15.170228
_cell_length_b 7.433987
_cell_length_c 19.460678
_cell_angle_alpha 90.000000
_cell_angle_beta 90.000000
_cell_angle_gamma 90.000000
_cell_volume 2194.683366
_symmetry_space_group_name_H-M "I M M A"
_symmetry_group_IT_number 74
_symmetry_cell_setting 'orthorhombic'
loop_
_space_group_symop_operation_xyz
x,y,z
-x,1/2-y,z
x,-y,-z
-x,1/2+y,-z
-x,-y,-z
x,1/2+y,-z
-x,y,z
x,1/2-y,z
1/2+x,1/2+y,1/2+z
1/2-x,-y,1/2+z
1/2+x,1/2-y,1/2-z
1/2-x,y,1/2-z
1/2-x,1/2-y,1/2-z
1/2+x,y,1/2-z
1/2-x,1/2+y,1/2+z
1/2+x,-y,1/2+z
loop_
_atom_site_type_symbol
_atom_site_label
_atom_site_fract_x
_atom_site_fract_y
_atom_site_fract_z
Si Si1 0.148369 0.466606 0.747781
Si Si2 0.598863 0.030688 0.599716
Si Si3 0.250457 0.000000 0.500000
Si Si4 0.902241 0.960256 0.594975
O O1 0.144700 0.250000 0.744853
O O2 0.250000 0.522797 0.750000
O O3 0.106262 0.518610 0.820132
O O4 0.106971 0.531124 0.677028
O O5 0.500000 0.988525 0.576667
O O6 0.612286 0.250000 0.594168
O O7 0.675514 0.939410 0.555644
O O8 0.177160 0.060130 0.556625
O O9 0.893288 0.750000 0.575405
O O10 0.000000 0.025351 0.576828
#
# Coordination Sequence:
#
# PCOD9538713 Si02
#       4
#    16  16   8  16
#     4  10  20  40  68  93 118 158 208 256 308 366
#     4  10  21  38  61  89 119 155 204 256 306 367
#     4  12  22  40  60  86 124 170 204 252 304 370
#     4  11  25  42  62  92 127 164 208 258 312 368
#
# _framework density 25.516210000000001
#
# number of rings (size 3 to 8) (size 9 to 14) (size 15 to 20)
#    0.000    1.429    2.857    2.571    0.000    3.429 
#    0.000    0.000    0.000    5.143    0.000    0.000 
#    0.000    0.000    0.000    0.000    0.000    0.000 
#
# Total GULP energy -156221.203501 kJ/mol
# GULP energy per Si atom -5579.328696 kJ/mol
# Density = 2.545813 g / cm^3
# Si number density = 25.516210 Si / 1000 Ang^3
#
#
#
# Elastic Constant Matrix: (Units=GPa)
#
#
# Indices 1 2 3 4 5 6 
#
# 1 265.3817 38.4893 96.6844 0.0000 0.0000 0.0000
# 2 38.4893 104.9833 16.4241 0.0000 0.0000 0.0000
# 3 96.6844 16.4241 234.3735 0.0000 0.0000 0.0000
# 4 0.0000 0.0000 0.0000 4.2761 0.0000 0.0000
# 5 0.0000 0.0000 0.0000 0.0000 298.8628 0.0000
# 6 0.0000 0.0000 0.0000 0.0000 0.0000 -21.3967
#
#
#
# Elastic Compliance Matrix: (Units=1/GPa)
#
#
# Indices 1 2 3 4 5 6 
#
# 1 0.004634 -0.001415 -0.001812 0.000000 0.000000 0.000000
# 2 -0.001415 0.010063 -0.000121 0.000000 0.000000 0.000000
# 3 -0.001812 -0.000121 0.005023 0.000000 0.000000 0.000000
# 4 0.000000 0.000000 0.000000 0.233860 0.000000 0.000000
# 5 0.000000 0.000000 0.000000 0.000000 0.003346 0.000000
# 6 0.000000 0.000000 0.000000 0.000000 0.000000 -0.046736
#
#
# Mechanical properties :
#
#
# Convention : Reuss Voigt Hill
#
# Bulk Modulus (GPa) = 76.79448 100.88156 88.83802
# Shear Modulus (GPa) = 22.60115 86.55783 54.57949
#
# Velocity S-wave (km/s) = 2.97940 5.83064 4.62996
# Velocity P-wave (km/s) = 6.48054 9.21686 7.96706
#
# Compressibility (1/GPa) = 0.01302177
#
# Stress axis : x y z
#
# Youngs Moduli (GPa) = 215.81066 99.37207 199.09125
#
# Poissons Ratio (x) = 0.14064 0.36082
# Poissons Ratio (y) = 0.30543 0.02416
# Poissons Ratio (z) = 0.39112 0.01206
#
# Static dielectric constant tensor:
#      x y z
#    x 1.924430 0.000000 0.000000 
#    y 0.000000 2.180280 0.000000 
#    z 0.000000 0.000000 1.950240 
# 
# From -- ./inp_files/47839.got.cif
#   From: 2010.05.17/outbox.cif.g08.bks.cpg/sg74_24_cif.got.tgz:47839.got - 2010.06.03 17:57:02.
