data_PCOD9538229
_publ_section_title
;
Structure prediction by ZEFSAII (Michael W. Deem and Ramdas Pophale) SiO2 
 PCOD9538229
Probable space group: I M M A
;
_chemical_formula_sum "Si O2"
_cell_formula_units_Z 80
_cell_length_a 15.120655
_cell_length_b 18.302303
_cell_length_c 14.895892
_cell_angle_alpha 90.000000
_cell_angle_beta 90.000000
_cell_angle_gamma 90.000000
_cell_volume 4122.331000
_symmetry_space_group_name_H-M "I M M A"
_symmetry_group_IT_number 74
_symmetry_cell_setting 'orthorhombic'
loop_
_space_group_symop_operation_xyz
x,y,z
-x,1/2-y,z
x,-y,-z
-x,1/2+y,-z
-x,-y,-z
x,1/2+y,-z
-x,y,z
x,1/2-y,z
1/2+x,1/2+y,1/2+z
1/2-x,-y,1/2+z
1/2+x,1/2-y,1/2-z
1/2-x,y,1/2-z
1/2-x,1/2-y,1/2-z
1/2+x,y,1/2-z
1/2-x,1/2+y,1/2+z
1/2+x,-y,1/2+z
loop_
_atom_site_type_symbol
_atom_site_label
_atom_site_fract_x
_atom_site_fract_y
_atom_site_fract_z
Si Si1 0.898625 0.069112 0.936644
Si Si2 0.898373 0.534492 0.774298
Si Si3 0.795565 0.829794 0.846115
Si Si4 0.768793 0.665499 0.463764
Si Si5 0.894921 0.040050 0.595515
O O1 0.828945 0.133416 0.946305
O O2 0.000000 0.089298 0.958724
O O3 0.895435 0.036896 0.836558
O O4 0.874334 0.000000 0.000000
O O5 0.856500 0.600083 0.831328
O O6 0.860552 0.510866 0.677406
O O7 0.000000 0.555497 0.758518
O O8 0.839248 0.750000 0.863997
O O9 0.750000 0.824561 0.750000
O O10 0.726558 0.839946 0.927427
O O11 0.777656 0.750000 0.438519
O O12 0.838674 0.613741 0.414418
O O13 0.000000 0.053872 0.610614
O O14 0.885765 0.000000 0.500000
#
# Coordination Sequence:
#
# PCOD9538229 Si02
#       5
#    16  16  16  16  16
#     4  10  20  36  58  87 118 151 196 243 294 357
#     4  10  21  37  60  86 112 153 200 246 298 349
#     4  10  21  35  54  86 121 150 188 241 302 365
#     4  11  23  38  59  87 120 161 198 240 306 358
#     4  10  22  40  61  87 117 155 207 252 289 348
#
# _framework density 19.406496000000001
#
# number of rings (size 3 to 8) (size 9 to 14) (size 15 to 20)
#    0.000    1.800    2.000    1.800    2.800    1.200 
#    0.000    4.000    0.000   10.800    0.000    0.000 
#    0.000    0.000    0.000    0.000    0.000    0.000 
#
# Total GULP energy -223068.223335 kJ/mol
# GULP energy per Si atom -5576.705583 kJ/mol
# Density = 1.936233 g / cm^3
# Si number density = 19.406496 Si / 1000 Ang^3
#
#
#
# Elastic Constant Matrix: (Units=GPa)
#
#
# Indices 1 2 3 4 5 6 
#
# 1 43.1577 45.8605 -6.3285 0.0000 0.0000 0.0000
# 2 45.8605 114.5254 9.2600 0.0000 0.0000 0.0000
# 3 -6.3285 9.2600 65.2135 0.0000 0.0000 0.0000
# 4 0.0000 0.0000 0.0000 29.3310 0.0000 0.0000
# 5 0.0000 0.0000 0.0000 0.0000 23.8873 0.0000
# 6 0.0000 0.0000 0.0000 0.0000 0.0000 -5.7782
#
#
#
# Elastic Compliance Matrix: (Units=1/GPa)
#
#
# Indices 1 2 3 4 5 6 
#
# 1 0.043046 -0.017779 0.006702 0.000000 0.000000 0.000000
# 2 -0.017779 0.016176 -0.004022 0.000000 0.000000 0.000000
# 3 0.006702 -0.004022 0.016556 0.000000 0.000000 0.000000
# 4 0.000000 0.000000 0.000000 0.034094 0.000000 0.000000
# 5 0.000000 0.000000 0.000000 0.000000 0.041863 0.000000
# 6 0.000000 0.000000 0.000000 0.000000 0.000000 -0.173063
#
#
# Mechanical properties :
#
#
# Convention : Reuss Voigt Hill
#
# Bulk Modulus (GPa) = 21.93990 35.60896 28.77443
# Shear Modulus (GPa) = 207.77063 21.09498 114.43281
#
# Velocity S-wave (km/s) = 10.35832 3.30055 7.68728
# Velocity P-wave (km/s) = 12.42537 5.73705 9.67738
#
# Compressibility (1/GPa) = 0.04557906
#
# Stress axis : x y z
#
# Youngs Moduli (GPa) = 23.23077 61.81820 60.40193
#
# Poissons Ratio (x) = 1.09909 -0.40481
# Poissons Ratio (y) = 0.41303 0.24296
# Poissons Ratio (z) = -0.15569 0.24865
#
# Static dielectric constant tensor:
#      x y z
#    x 1.700670 0.000000 0.000000 
#    y 0.000000 1.706430 0.000000 
#    z 0.000000 0.000000 1.723080 
# 
# From -- ./inp_files/33961.got.cif
#   From: 2010.05.17/outbox.cif.g08.bks.cpg/sg74_17_cif.got.tgz:33961.got - 2010.06.03 17:57:02.
