data_PCOD9538131
_publ_section_title
;
Structure prediction by ZEFSAII (Michael W. Deem and Ramdas Pophale) SiO2 
 PCOD9538131
Probable space group: I M M A
;
_chemical_formula_sum "Si O2"
_cell_formula_units_Z 72
_cell_length_a 26.179187
_cell_length_b 10.860342
_cell_length_c 12.329607
_cell_angle_alpha 90.000000
_cell_angle_beta 90.000000
_cell_angle_gamma 90.000000
_cell_volume 3505.491278
_symmetry_space_group_name_H-M "I M M A"
_symmetry_group_IT_number 74
_symmetry_cell_setting 'orthorhombic'
loop_
_space_group_symop_operation_xyz
x,y,z
-x,1/2-y,z
x,-y,-z
-x,1/2+y,-z
-x,-y,-z
x,1/2+y,-z
-x,y,z
x,1/2-y,z
1/2+x,1/2+y,1/2+z
1/2-x,-y,1/2+z
1/2+x,1/2-y,1/2-z
1/2-x,y,1/2-z
1/2-x,1/2-y,1/2-z
1/2+x,y,1/2-z
1/2-x,1/2+y,1/2+z
1/2+x,-y,1/2+z
loop_
_atom_site_type_symbol
_atom_site_label
_atom_site_fract_x
_atom_site_fract_y
_atom_site_fract_z
Si Si1 0.674206 0.387293 0.171107
Si Si2 0.060542 0.612742 0.078962
Si Si3 0.607198 0.383981 0.811729
Si Si4 0.788519 0.388787 0.080732
Si Si5 0.500000 0.878980 0.067775
O O1 0.652823 0.250000 0.149995
O O2 0.638355 0.501191 0.143699
O O3 0.728086 0.396457 0.109083
O O4 0.685475 0.396659 0.300588
O O5 0.067464 0.750000 0.030265
O O6 0.096087 0.604001 0.183851
O O7 0.000000 0.604447 0.109394
O O8 0.071203 0.500000 0.000000
O O9 0.631991 0.250000 0.832626
O O10 0.551036 0.380965 0.862091
O O11 0.798835 0.250000 0.037180
O O12 0.802044 0.500000 0.000000
O O13 0.500000 0.750000 0.003609
O O14 0.500000 0.000000 0.000000
#
# Coordination Sequence:
#
# PCOD9538131 Si02
#       5
#    16  16  16  16   8
#     4   9  20  37  55  79 110 141 175 218 268 319
#     4   9  17  31  50  72 100 135 172 211 257 308
#     4  10  20  36  56  77 107 144 180 221 266 313
#     4   9  19  37  58  79 108 142 174 216 268 321
#     4  10  22  40  57  76 106 144 185 226 267 310
#
# _framework density 20.539204000000002
#
# number of rings (size 3 to 8) (size 9 to 14) (size 15 to 20)
#    0.000    2.667    1.111    1.333    0.000    5.333 
#    0.000   11.111    0.000    0.000    0.000    0.000 
#    0.000    0.000    0.000    0.000    0.000    0.000 
#
# Total GULP energy -200933.630646 kJ/mol
# GULP energy per Si atom -5581.489740 kJ/mol
# Density = 2.049246 g / cm^3
# Si number density = 20.539204 Si / 1000 Ang^3
#
#
#
# Elastic Constant Matrix: (Units=GPa)
#
#
# Indices 1 2 3 4 5 6 
#
# 1 60.3729 47.3839 -12.6264 0.0000 0.0000 0.0000
# 2 47.3839 190.0720 35.2225 0.0000 0.0000 0.0000
# 3 -12.6264 35.2225 35.8593 0.0000 0.0000 0.0000
# 4 0.0000 0.0000 0.0000 20.0543 0.0000 0.0000
# 5 0.0000 0.0000 0.0000 0.0000 3.1948 0.0000
# 6 0.0000 0.0000 0.0000 0.0000 0.0000 15.2628
#
#
#
# Elastic Compliance Matrix: (Units=1/GPa)
#
#
# Indices 1 2 3 4 5 6 
#
# 1 0.030361 -0.011675 0.022158 0.000000 0.000000 0.000000
# 2 -0.011675 0.010921 -0.014838 0.000000 0.000000 0.000000
# 3 0.022158 -0.014838 0.050264 0.000000 0.000000 0.000000
# 4 0.000000 0.000000 0.000000 0.049865 0.000000 0.000000
# 5 0.000000 0.000000 0.000000 0.000000 0.313007 0.000000
# 6 0.000000 0.000000 0.000000 0.000000 0.000000 0.065519
#
#
# Mechanical properties :
#
#
# Convention : Reuss Voigt Hill
#
# Bulk Modulus (GPa) = 12.07209 47.36270 29.71740
# Shear Modulus (GPa) = 8.98862 22.12399 15.55631
#
# Velocity S-wave (km/s) = 2.09424 3.28557 2.75507
# Velocity P-wave (km/s) = 3.42609 6.12397 4.96191
#
# Compressibility (1/GPa) = 0.08283567
#
# Stress axis : x y z
#
# Youngs Moduli (GPa) = 32.93691 91.56346 19.89509
#
# Poissons Ratio (x) = 1.06900 -0.44084
# Poissons Ratio (y) = 0.38454 0.29521
# Poissons Ratio (z) = -0.72982 1.35865
#
# Static dielectric constant tensor:
#      x y z
#    x 1.762340 0.000000 0.000000 
#    y 0.000000 1.736810 0.000000 
#    z 0.000000 0.000000 1.726440 
# 
# From -- ./inp_files/29143.got.cif
#   From: 2010.05.17/outbox.cif.g08.bks.cpg/sg74_15_cif.got.tgz:29143.got - 2010.06.03 17:57:02.
