data_PCOD9538819
_publ_section_title
;
Structure prediction by ZEFSAII (Michael W. Deem and Ramdas Pophale) SiO2 
 PCOD9538819
Probable space group: I M M A
;
_chemical_formula_sum "Si O2"
_cell_formula_units_Z 116
_cell_length_a 14.513642
_cell_length_b 27.304476
_cell_length_c 15.693806
_cell_angle_alpha 90.000000
_cell_angle_beta 90.000000
_cell_angle_gamma 90.000000
_cell_volume 6219.257414
_symmetry_space_group_name_H-M "I M M A"
_symmetry_group_IT_number 74
_symmetry_cell_setting 'orthorhombic'
loop_
_space_group_symop_operation_xyz
x,y,z
-x,1/2-y,z
x,-y,-z
-x,1/2+y,-z
-x,-y,-z
x,1/2+y,-z
-x,y,z
x,1/2-y,z
1/2+x,1/2+y,1/2+z
1/2-x,-y,1/2+z
1/2+x,1/2-y,1/2-z
1/2-x,y,1/2-z
1/2-x,1/2-y,1/2-z
1/2+x,y,1/2-z
1/2-x,1/2+y,1/2+z
1/2+x,-y,1/2+z
loop_
_atom_site_type_symbol
_atom_site_label
_atom_site_fract_x
_atom_site_fract_y
_atom_site_fract_z
Si Si1 0.351931 0.307962 0.149013
Si Si2 0.604793 0.521492 0.308057
Si Si3 0.500000 0.750000 0.603285
Si Si4 0.749762 0.067211 0.913091
Si Si5 0.136190 0.332979 0.161539
Si Si6 0.103151 0.567538 0.937091
Si Si7 0.607488 0.517700 0.879266
Si Si8 0.895676 0.615058 0.511375
O O1 0.368508 0.250000 0.147121
O O2 0.243169 0.319282 0.152871
O O3 0.390184 0.328130 0.238850
O O4 0.389263 0.336022 0.067028
O O5 0.500000 0.541565 0.303513
O O6 0.684449 0.560604 0.330396
O O7 0.609409 0.482359 0.384236
O O8 0.619358 0.489832 0.222191
O O9 0.578977 0.793052 0.610056
O O10 0.680190 0.021215 0.914304
O O11 0.821387 0.068372 0.990296
O O12 0.678638 0.110982 0.935468
O O13 0.118516 0.386902 0.125939
O O14 0.000000 0.570963 0.973520
O O15 0.500000 0.505590 0.897984
O O16 0.623782 0.570986 0.919981
O O17 0.000000 0.608328 0.479875
#
# Coordination Sequence:
#
# PCOD9538819 Si02
#       8
#    16  16   4  16  16  16  16  16
#     4  11  22  37  52  75 107 142 187 228 257 302
#     4  10  21  35  52  77 103 136 180 224 267 312
#     4  12  20  34  56  76 100 144 188 226 268 294
#     4  12  22  35  52  75 106 143 178 222 271 318
#     4  11  21  34  51  75 103 140 186 222 261 299
#     4  11  21  33  52  76 106 142 180 221 261 317
#     4  10  21  37  54  76 105 140 183 226 265 317
#     4  11  23  35  53  77 106 146 185 220 265 315
#
# _framework density 18.651744000000001
#
# number of rings (size 3 to 8) (size 9 to 14) (size 15 to 20)
#    0.000    1.103    3.448    4.966    0.966    3.586 
#    0.000    0.000    0.000    0.000    0.000    0.000 
#    0.000    2.207    0.000    5.517    1.103    0.000 
#
# Total GULP energy -323402.447525 kJ/mol
# GULP energy per Si atom -5575.904268 kJ/mol
# Density = 1.860929 g / cm^3
# Si number density = 18.651744 Si / 1000 Ang^3
#
#
#
# Elastic Constant Matrix: (Units=GPa)
#
#
# Indices 1 2 3 4 5 6 
#
# 1 113.1444 22.2154 27.6057 0.0000 0.0000 0.0000
# 2 22.2154 64.0960 9.2418 0.0000 0.0000 0.0000
# 3 27.6057 9.2418 31.8703 0.0000 -0.0001 0.0000
# 4 0.0000 0.0000 0.0000 16.2385 0.0000 0.0000
# 5 0.0000 0.0000 -0.0001 0.0000 50.4752 0.0000
# 6 0.0000 0.0000 0.0000 0.0000 0.0000 26.2560
#
#
#
# Elastic Compliance Matrix: (Units=1/GPa)
#
#
# Indices 1 2 3 4 5 6 
#
# 1 0.011635 -0.002692 -0.009298 0.000000 0.000000 0.000000
# 2 -0.002692 0.016905 -0.002570 0.000000 0.000000 0.000000
# 3 -0.009298 -0.002570 0.040176 0.000000 0.000000 0.000000
# 4 0.000000 0.000000 0.000000 0.061582 0.000000 0.000000
# 5 0.000000 0.000000 0.000000 0.000000 0.019812 0.000000
# 6 0.000000 0.000000 0.000000 0.000000 0.000000 0.038087
#
#
# Mechanical properties :
#
#
# Convention : Reuss Voigt Hill
#
# Bulk Modulus (GPa) = 25.25487 36.35964 30.80726
# Shear Modulus (GPa) = 21.69043 28.59713 25.14378
#
# Velocity S-wave (km/s) = 3.41386 3.91988 3.67558
# Velocity P-wave (km/s) = 5.39526 6.32641 5.87930
#
# Compressibility (1/GPa) = 0.03959632
#
# Stress axis : x y z
#
# Youngs Moduli (GPa) = 85.94468 59.15308 24.89038
#
# Poissons Ratio (x) = 0.15925 0.23143
# Poissons Ratio (y) = 0.23138 0.06398
# Poissons Ratio (z) = 0.79909 0.15204
#
# Static dielectric constant tensor:
#      x y z
#    x 1.715010 0.000000 0.000000 
#    y 0.000000 1.630000 0.000000 
#    z 0.000000 0.000000 1.695920 
# 
# From -- ./inp_files/43213.got.cif
#   From: 2010.05.17/outbox.cif.g08.bks.cpg/sg74_22_cif.got.tgz:43213.got - 2010.06.03 17:57:02.
