data_PCOD9538575
_publ_section_title
;
Structure prediction by ZEFSAII (Michael W. Deem and Ramdas Pophale) SiO2 
 PCOD9538575
Probable space group: I M M A
;
_chemical_formula_sum "Si O2"
_cell_formula_units_Z 84
_cell_length_a 16.344704
_cell_length_b 15.042641
_cell_length_c 16.851249
_cell_angle_alpha 90.000000
_cell_angle_beta 90.000000
_cell_angle_gamma 90.000000
_cell_volume 4143.174708
_symmetry_space_group_name_H-M "I M M A"
_symmetry_group_IT_number 74
_symmetry_cell_setting 'orthorhombic'
loop_
_space_group_symop_operation_xyz
x,y,z
-x,1/2-y,z
x,-y,-z
-x,1/2+y,-z
-x,-y,-z
x,1/2+y,-z
-x,y,z
x,1/2-y,z
1/2+x,1/2+y,1/2+z
1/2-x,-y,1/2+z
1/2+x,1/2-y,1/2-z
1/2-x,y,1/2-z
1/2-x,1/2-y,1/2-z
1/2+x,y,1/2-z
1/2-x,1/2+y,1/2+z
1/2+x,-y,1/2+z
loop_
_atom_site_type_symbol
_atom_site_label
_atom_site_fract_x
_atom_site_fract_y
_atom_site_fract_z
Si Si1 0.263989 0.750000 0.933295
Si Si2 0.186231 0.750000 0.395313
Si Si3 0.905739 0.565424 0.821996
Si Si4 0.500000 0.750000 0.101540
Si Si5 0.152414 0.908008 0.641747
Si Si6 0.588498 0.750000 0.579749
Si Si7 0.000000 0.899566 0.529782
Si Si8 0.238667 0.065351 0.844849
O O1 0.280170 0.834222 0.877539
O O2 0.172538 0.750000 0.967788
O O3 0.322272 0.750000 0.009408
O O4 0.092531 0.750000 0.359563
O O5 0.239527 0.836472 0.373292
O O6 0.873788 0.587220 0.733299
O O7 0.907172 0.659184 0.868795
O O8 0.846572 0.488392 0.857799
O O9 0.000000 0.534028 0.817697
O O10 0.500000 0.663631 0.045790
O O11 0.076947 0.885004 0.586535
O O12 0.191028 0.002318 0.619377
O O13 0.500000 0.750000 0.538414
O O14 0.000000 0.000000 0.500000
O O15 0.250000 0.066153 0.750000
#
# Coordination Sequence:
#
# PCOD9538575 Si02
#       8
#     8   8  16   4  16   8   8  16
#     4  12  23  37  62  90 130 163 193 244 316 389
#     4  12  25  43  61  86 122 171 212 251 306 367
#     4  10  20  38  63  92 121 156 202 261 310 363
#     4  12  24  40  58  94 134 168 200 240 298 390
#     4  11  21  36  60  91 126 161 196 243 306 376
#     4  10  21  38  62  91 124 154 202 252 308 366
#     4  12  22  36  56  90 132 160 194 234 297 384
#     4  10  23  41  63  85 118 160 212 258 299 355
#
# _framework density 20.274308999999999
#
# number of rings (size 3 to 8) (size 9 to 14) (size 15 to 20)
#    0.000    1.143    4.762    2.000    0.000    0.762 
#    1.714    1.429    0.000    2.286    0.000    0.000 
#    0.000    0.000    0.000    0.000    0.000    0.000 
#
# Total GULP energy -234260.902101 kJ/mol
# GULP energy per Si atom -5577.640526 kJ/mol
# Density = 2.022816 g / cm^3
# Si number density = 20.274309 Si / 1000 Ang^3
#
#
#
# Elastic Constant Matrix: (Units=GPa)
#
#
# Indices 1 2 3 4 5 6 
#
# 1 149.0715 40.6522 14.8861 0.0000 0.0000 0.0000
# 2 40.6522 154.4636 7.3680 0.0000 0.0000 0.0000
# 3 14.8861 7.3680 15.4901 0.0000 0.0000 0.0000
# 4 0.0000 0.0000 0.0000 28.0988 0.0000 0.0000
# 5 0.0000 0.0000 0.0000 0.0000 21.4615 0.0000
# 6 0.0000 0.0000 0.0000 0.0000 0.0000 -24.2189
#
#
#
# Elastic Compliance Matrix: (Units=1/GPa)
#
#
# Indices 1 2 3 4 5 6 
#
# 1 0.007855 -0.001747 -0.006718 0.000000 0.000000 0.000000
# 2 -0.001747 0.007013 -0.001657 0.000000 0.000000 0.000000
# 3 -0.006718 -0.001657 0.071801 0.000000 0.000000 0.000000
# 4 0.000000 0.000000 0.000000 0.035589 0.000000 0.000000
# 5 0.000000 0.000000 0.000000 0.000000 0.046595 0.000000
# 6 0.000000 0.000000 0.000000 0.000000 0.000000 -0.041290
#
#
# Mechanical properties :
#
#
# Convention : Reuss Voigt Hill
#
# Bulk Modulus (GPa) = 15.05440 49.42643 32.24041
# Shear Modulus (GPa) = 29.42053 22.14287 25.78170
#
# Velocity S-wave (km/s) = 3.81349 3.30838 3.56988
# Velocity P-wave (km/s) = 5.17994 6.24705 5.73835
#
# Compressibility (1/GPa) = 0.06642577
#
# Stress axis : x y z
#
# Youngs Moduli (GPa) = 127.30001 142.59592 13.92729
#
# Poissons Ratio (x) = 0.24911 0.09357
# Poissons Ratio (y) = 0.22239 0.02308
# Poissons Ratio (z) = 0.85522 0.23626
#
# Static dielectric constant tensor:
#      x y z
#    x 1.791870 0.000000 0.000000 
#    y 0.000000 1.510420 0.000000 
#    z 0.000000 0.000000 1.675690 
# 
# From -- ./inp_files/51805.got.cif
#   From: 2010.05.17/outbox.cif.g08.bks.cpg/sg74_26_cif.got.tgz:51805.got - 2010.06.03 17:57:02.
