data_PCOD9538754
_publ_section_title
;
Structure prediction by ZEFSAII (Michael W. Deem and Ramdas Pophale) SiO2 
 PCOD9538754
Probable space group: I M M A
;
_chemical_formula_sum "Si O2"
_cell_formula_units_Z 80
_cell_length_a 16.528133
_cell_length_b 7.568213
_cell_length_c 29.646073
_cell_angle_alpha 90.000000
_cell_angle_beta 90.000000
_cell_angle_gamma 90.000000
_cell_volume 3708.380758
_symmetry_space_group_name_H-M "I M M A"
_symmetry_group_IT_number 74
_symmetry_cell_setting 'orthorhombic'
loop_
_space_group_symop_operation_xyz
x,y,z
-x,1/2-y,z
x,-y,-z
-x,1/2+y,-z
-x,-y,-z
x,1/2+y,-z
-x,y,z
x,1/2-y,z
1/2+x,1/2+y,1/2+z
1/2-x,-y,1/2+z
1/2+x,1/2-y,1/2-z
1/2-x,y,1/2-z
1/2-x,1/2-y,1/2-z
1/2+x,y,1/2-z
1/2-x,1/2+y,1/2+z
1/2+x,-y,1/2+z
loop_
_atom_site_type_symbol
_atom_site_label
_atom_site_fract_x
_atom_site_fract_y
_atom_site_fract_z
Si Si1 0.500000 0.041703 0.278495
Si Si2 0.500000 0.464709 0.616363
Si Si3 0.836078 0.458187 0.265790
Si Si4 0.824462 0.461788 0.550363
Si Si5 0.859780 0.961672 0.050656
Si Si6 0.091539 0.535990 0.359158
O O1 0.500000 0.250000 0.266815
O O2 0.416885 0.965955 0.257811
O O3 0.500000 0.022662 0.332154
O O4 0.500000 0.250000 0.615984
O O5 0.421224 0.526272 0.588614
O O6 0.834309 0.250000 0.254196
O O7 0.750000 0.533656 0.250000
O O8 0.849920 0.477724 0.319074
O O9 0.854976 0.500000 0.500000
O O10 0.820816 0.250000 0.554214
O O11 0.732125 0.530533 0.554074
O O12 0.877979 0.525576 0.591977
O O13 0.855946 0.750000 0.055154
O O14 0.889561 0.000000 0.000000
O O15 0.090802 0.750000 0.359212
O O16 0.000000 0.475165 0.349961
#
# Coordination Sequence:
#
# PCOD9538754 Si02
#       6
#     8   8  16  16  16  16
#     4  10  22  39  55  80 114 141 176 228 274 322
#     4  10  21  33  51  78 108 141 179 220 265 318
#     4  10  22  40  60  82 110 145 185 229 277 329
#     4   9  19  35  53  77 109 140 177 222 267 318
#     4   9  18  33  51  74 105 141 179 220 263 314
#     4  10  21  37  58  83 111 144 182 224 272 328
#
# _framework density 21.572756999999999
#
# number of rings (size 3 to 8) (size 9 to 14) (size 15 to 20)
#    0.000    2.400    1.000    0.300    2.800    3.200 
#    0.000    0.000    0.000    0.000    0.000    0.000 
#    0.000    0.000    0.000    0.000    0.000    0.000 
#
# Total GULP energy -223380.798149 kJ/mol
# GULP energy per Si atom -5584.519954 kJ/mol
# Density = 2.152366 g / cm^3
# Si number density = 21.572757 Si / 1000 Ang^3
#
#
#
# Elastic Constant Matrix: (Units=GPa)
#
#
# Indices 1 2 3 4 5 6 
#
# 1 140.6996 10.0054 84.6044 0.0000 0.0000 0.0000
# 2 10.0054 47.7409 -16.4171 0.0000 0.0000 0.0000
# 3 84.6044 -16.4171 146.3429 0.0000 0.0000 0.0000
# 4 0.0000 0.0000 0.0000 24.9778 0.0000 0.0000
# 5 0.0000 0.0000 0.0000 0.0000 38.0096 0.0000
# 6 0.0000 0.0000 0.0000 0.0000 0.0000 13.3060
#
#
#
# Elastic Compliance Matrix: (Units=1/GPa)
#
#
# Indices 1 2 3 4 5 6 
#
# 1 0.011975 -0.005087 -0.007494 0.000000 0.000000 0.000000
# 2 -0.005087 0.023948 0.005627 0.000000 0.000000 0.000000
# 3 -0.007494 0.005627 0.011797 0.000000 0.000000 0.000000
# 4 0.000000 0.000000 0.000000 0.040036 0.000000 0.000000
# 5 0.000000 0.000000 0.000000 0.000000 0.026309 0.000000
# 6 0.000000 0.000000 0.000000 0.000000 0.000000 0.075154
#
#
# Mechanical properties :
#
#
# Convention : Reuss Voigt Hill
#
# Bulk Modulus (GPa) = 29.57432 54.57431 42.07431
# Shear Modulus (GPa) = 23.32138 32.36474 27.84306
#
# Velocity S-wave (km/s) = 3.29151 3.87752 3.59647
# Velocity P-wave (km/s) = 5.30888 6.73792 6.06563
#
# Compressibility (1/GPa) = 0.03381312
#
# Stress axis : x y z
#
# Youngs Moduli (GPa) = 83.50622 41.75798 84.76828
#
# Poissons Ratio (x) = 0.21241 0.63523
# Poissons Ratio (y) = 0.42477 -0.47701
# Poissons Ratio (z) = 0.62578 -0.23498
#
# Static dielectric constant tensor:
#      x y z
#    x 1.797740 0.000000 0.000000 
#    y 0.000000 1.821410 0.000000 
#    z 0.000000 0.000000 1.733310 
# 
# From -- ./inp_files/64019.got.cif
#   From: 2010.05.17/outbox.cif.g08.bks.cpg/sg74_33_cif.got.tgz:64019.got - 2010.06.03 17:57:02.
