data_PCOD9538717
_publ_section_title
;
Structure prediction by ZEFSAII (Michael W. Deem and Ramdas Pophale) SiO2 
 PCOD9538717
Probable space group: I M M A
;
_chemical_formula_sum "Si O2"
_cell_formula_units_Z 68
_cell_length_a 23.556836
_cell_length_b 8.446643
_cell_length_c 15.977613
_cell_angle_alpha 90.000000
_cell_angle_beta 90.000000
_cell_angle_gamma 90.000000
_cell_volume 3179.164463
_symmetry_space_group_name_H-M "I M M A"
_symmetry_group_IT_number 74
_symmetry_cell_setting 'orthorhombic'
loop_
_space_group_symop_operation_xyz
x,y,z
-x,1/2-y,z
x,-y,-z
-x,1/2+y,-z
-x,-y,-z
x,1/2+y,-z
-x,y,z
x,1/2-y,z
1/2+x,1/2+y,1/2+z
1/2-x,-y,1/2+z
1/2+x,1/2-y,1/2-z
1/2-x,y,1/2-z
1/2-x,1/2-y,1/2-z
1/2+x,y,1/2-z
1/2-x,1/2+y,1/2+z
1/2+x,-y,1/2+z
loop_
_atom_site_type_symbol
_atom_site_label
_atom_site_fract_x
_atom_site_fract_y
_atom_site_fract_z
Si Si1 0.124112 0.937489 0.409754
Si Si2 0.000000 0.003105 0.174017
Si Si3 0.222062 0.250000 0.845497
Si Si4 0.000000 0.750000 0.973973
Si Si5 0.000000 0.440084 0.650155
Si Si6 0.228340 0.923829 0.655178
Si Si7 0.087193 0.250000 0.874709
O O1 0.134265 0.750000 0.400066
O O2 0.057624 0.966263 0.399340
O O3 0.142768 0.000000 0.500000
O O4 0.161728 0.035334 0.344823
O O5 0.000000 0.054707 0.269542
O O6 0.942749 0.900034 0.167598
O O7 0.000000 0.106685 0.091112
O O8 0.250000 0.250000 0.750000
O O9 0.243492 0.417464 0.883160
O O10 0.153924 0.250000 0.857209
O O11 0.943643 0.750000 0.032971
O O12 0.000000 0.250000 0.674040
O O13 0.238681 0.750000 0.616343
O O14 0.250000 0.915210 0.750000
#
# Coordination Sequence:
#
# PCOD9538717 Si02
#       7
#    16   8   8   4   8  16   8
#     4  11  23  42  67  94 134 175 222 282 346 409
#     4  10  21  40  68  99 132 169 228 272 346 412
#     4  10  22  38  68  99 133 181 234 274 343 395
#     4  10  22  46  64 104 142 174 216 294 358 404
#     4  10  22  38  68 101 127 172 225 270 345 414
#     4  10  22  41  67  95 133 175 226 281 333 400
#     4  10  20  40  72  90 134 178 215 277 341 415
#
# _framework density 21.389268999999999
#
# number of rings (size 3 to 8) (size 9 to 14) (size 15 to 20)
#    0.000    1.882    2.353    2.471    6.588    0.000 
#    6.353    2.353    0.000    0.000    0.000    0.000 
#    0.000    0.000    0.000    0.000    0.000    0.000 
#
# Total GULP energy -189449.835662 kJ/mol
# GULP energy per Si atom -5572.053990 kJ/mol
# Density = 2.134059 g / cm^3
# Si number density = 21.389269 Si / 1000 Ang^3
#
#
#
# Elastic Constant Matrix: (Units=GPa)
#
#
# Indices 1 2 3 4 5 6 
#
# 1 167.9789 57.4349 22.7676 0.0000 0.0000 0.0000
# 2 57.4349 143.6145 11.9903 0.0000 0.0000 0.0000
# 3 22.7676 11.9903 72.7467 0.0000 0.0000 0.0000
# 4 0.0000 0.0000 0.0000 13.8853 0.0000 0.0000
# 5 0.0000 0.0000 0.0000 0.0000 3.7153 0.0000
# 6 0.0000 0.0000 0.0000 0.0000 0.0000 14.6704
#
#
#
# Elastic Compliance Matrix: (Units=1/GPa)
#
#
# Indices 1 2 3 4 5 6 
#
# 1 0.007117 -0.002697 -0.001783 0.000000 0.000000 0.000000
# 2 -0.002697 0.008083 -0.000488 0.000000 0.000000 0.000000
# 3 -0.001783 -0.000488 0.014385 0.000000 0.000000 0.000000
# 4 0.000000 0.000000 0.000000 0.072019 0.000000 0.000000
# 5 0.000000 0.000000 0.000000 0.000000 0.269155 0.000000
# 6 0.000000 0.000000 0.000000 0.000000 0.000000 0.068164
#
#
# Mechanical properties :
#
#
# Convention : Reuss Voigt Hill
#
# Bulk Modulus (GPa) = 50.89602 63.19174 57.04388
# Shear Modulus (GPa) = 10.97916 25.93069 18.45492
#
# Velocity S-wave (km/s) = 2.26808 3.48562 2.94055
# Velocity P-wave (km/s) = 5.54127 6.76810 6.18518
#
# Compressibility (1/GPa) = 0.01964790
#
# Stress axis : x y z
#
# Youngs Moduli (GPa) = 140.50715 123.72262 69.51813
#
# Poissons Ratio (x) = 0.33373 0.12394
# Poissons Ratio (y) = 0.37901 0.03392
# Poissons Ratio (z) = 0.25050 0.06037
#
# Static dielectric constant tensor:
#      x y z
#    x 1.746500 0.000000 0.000000 
#    y 0.000000 1.895460 0.000000 
#    z 0.000000 0.000000 1.816930 
# 
# From -- ./inp_files/44908.got.cif
#   From: 2010.05.17/outbox.cif.g08.bks.cpg/sg74_23_cif.got.tgz:44908.got - 2010.06.03 17:57:02.
