data_PCOD9538325
_publ_section_title
;
Structure prediction by ZEFSAII (Michael W. Deem and Ramdas Pophale) SiO2 
 PCOD9538325
Probable space group: I M M A
;
_chemical_formula_sum "Si O2"
_cell_formula_units_Z 68
_cell_length_a 20.895668
_cell_length_b 14.343137
_cell_length_c 11.725268
_cell_angle_alpha 90.000000
_cell_angle_beta 90.000000
_cell_angle_gamma 90.000000
_cell_volume 3514.173375
_symmetry_space_group_name_H-M "I M M A"
_symmetry_group_IT_number 74
_symmetry_cell_setting 'orthorhombic'
loop_
_space_group_symop_operation_xyz
x,y,z
-x,1/2-y,z
x,-y,-z
-x,1/2+y,-z
-x,-y,-z
x,1/2+y,-z
-x,y,z
x,1/2-y,z
1/2+x,1/2+y,1/2+z
1/2-x,-y,1/2+z
1/2+x,1/2-y,1/2-z
1/2-x,y,1/2-z
1/2-x,1/2-y,1/2-z
1/2+x,y,1/2-z
1/2-x,1/2+y,1/2+z
1/2+x,-y,1/2+z
loop_
_atom_site_type_symbol
_atom_site_label
_atom_site_fract_x
_atom_site_fract_y
_atom_site_fract_z
Si Si1 0.319266 0.500000 0.000000
Si Si2 0.500000 0.750000 0.577718
Si Si3 0.676166 0.250000 0.715828
Si Si4 0.000000 0.532814 0.865520
Si Si5 0.627373 0.048144 0.755260
Si Si6 0.216040 0.094020 0.138211
Si Si7 0.361611 0.250000 0.467580
O O1 0.360645 0.518841 0.113097
O O2 0.269315 0.420143 0.041314
O O3 0.500000 0.852468 0.639959
O O4 0.435809 0.750000 0.505257
O O5 0.750000 0.250000 0.750000
O O6 0.637812 0.158191 0.752098
O O7 0.678247 0.250000 0.580499
O O8 0.937756 0.490053 0.801357
O O9 0.000000 0.500000 0.000000
O O10 0.684800 0.002912 0.679702
O O11 0.250000 0.134371 0.250000
O O12 0.158444 0.159115 0.101121
#
# Coordination Sequence:
#
# PCOD9538325 Si02
#       7
#     8   4   8   8  16  16   8
#     4  10  22  41  64  91 132 172 220 276 346 394
#     4  12  24  42  64  98 134 178 222 272 328 398
#     4  12  24  39  64  97 130 169 220 275 338 398
#     4  12  26  45  69  93 138 178 227 279 330 404
#     4  11  24  42  65  95 132 177 221 272 337 396
#     4  10  20  36  60  93 127 167 217 278 335 393
#     4  12  21  36  63  91 132 171 221 271 331 394
#
# _framework density 19.350213
#
# number of rings (size 3 to 8) (size 9 to 14) (size 15 to 20)
#    0.000    0.941    2.353    6.706    1.647    0.941 
#    0.000    2.353    0.000    0.000    0.000    0.000 
#    0.000    0.000    0.000    0.000    0.000    0.000 
#
# Total GULP energy -189678.498584 kJ/mol
# GULP energy per Si atom -5578.779370 kJ/mol
# Density = 1.930617 g / cm^3
# Si number density = 19.350213 Si / 1000 Ang^3
#
#
#
# Elastic Constant Matrix: (Units=GPa)
#
#
# Indices 1 2 3 4 5 6 
#
# 1 139.2566 46.7635 64.6974 0.0000 0.0000 0.0000
# 2 46.7635 143.6475 38.3392 0.0000 0.0000 0.0000
# 3 64.6974 38.3392 117.5668 0.0000 0.0000 0.0000
# 4 0.0000 0.0000 0.0000 2.0590 0.0000 0.0000
# 5 0.0000 0.0000 0.0000 0.0000 42.6486 0.0000
# 6 0.0000 0.0000 0.0000 0.0000 0.0000 31.4766
#
#
#
# Elastic Compliance Matrix: (Units=1/GPa)
#
#
# Indices 1 2 3 4 5 6 
#
# 1 0.010139 -0.001984 -0.004932 0.000000 0.000000 0.000000
# 2 -0.001984 0.008013 -0.001521 0.000000 0.000000 0.000000
# 3 -0.004932 -0.001521 0.011716 0.000000 0.000000 0.000000
# 4 0.000000 0.000000 0.000000 0.485668 0.000000 0.000000
# 5 0.000000 0.000000 0.000000 0.000000 0.023447 0.000000
# 6 0.000000 0.000000 0.000000 0.000000 0.000000 0.031770
#
#
# Mechanical properties :
#
#
# Convention : Reuss Voigt Hill
#
# Bulk Modulus (GPa) = 76.96615 77.78567 77.37591
# Shear Modulus (GPa) = 8.44652 31.94824 20.19738
#
# Velocity S-wave (km/s) = 2.09154 4.06772 3.23426
# Velocity P-wave (km/s) = 6.75977 7.89607 7.34991
#
# Compressibility (1/GPa) = 0.01299272
#
# Stress axis : x y z
#
# Youngs Moduli (GPa) = 98.63067 124.78992 85.35180
#
# Poissons Ratio (x) = 0.24761 0.42099
# Poissons Ratio (y) = 0.19570 0.12985
# Poissons Ratio (z) = 0.48648 0.18985
#
# Static dielectric constant tensor:
#      x y z
#    x 1.664480 0.000000 0.000000 
#    y 0.000000 1.880960 0.000000 
#    z 0.000000 0.000000 1.671160 
# 
# From -- ./inp_files/23449.got.cif
#   From: 2010.05.17/outbox.cif.g08.bks.cpg/sg74_12_cif.got.tgz:23449.got - 2010.06.03 17:57:02.
