data_PCOD9538519
_publ_section_title
;
Structure prediction by ZEFSAII (Michael W. Deem and Ramdas Pophale) SiO2 
 PCOD9538519
Probable space group: I M M A
;
_chemical_formula_sum "Si O2"
_cell_formula_units_Z 80
_cell_length_a 11.051851
_cell_length_b 20.133253
_cell_length_c 19.594160
_cell_angle_alpha 90.000000
_cell_angle_beta 90.000000
_cell_angle_gamma 90.000000
_cell_volume 4359.890904
_symmetry_space_group_name_H-M "I M M A"
_symmetry_group_IT_number 74
_symmetry_cell_setting 'orthorhombic'
loop_
_space_group_symop_operation_xyz
x,y,z
-x,1/2-y,z
x,-y,-z
-x,1/2+y,-z
-x,-y,-z
x,1/2+y,-z
-x,y,z
x,1/2-y,z
1/2+x,1/2+y,1/2+z
1/2-x,-y,1/2+z
1/2+x,1/2-y,1/2-z
1/2-x,y,1/2-z
1/2-x,1/2-y,1/2-z
1/2+x,y,1/2-z
1/2-x,1/2+y,1/2+z
1/2+x,-y,1/2+z
loop_
_atom_site_type_symbol
_atom_site_label
_atom_site_fract_x
_atom_site_fract_y
_atom_site_fract_z
Si Si1 0.359839 0.829118 0.303063
Si Si2 0.500000 0.326371 0.092111
Si Si3 0.500000 0.426576 0.965738
Si Si4 0.264386 0.422274 0.579027
Si Si5 0.251975 0.827486 0.670143
Si Si6 0.140709 0.432550 0.072697
O O1 0.500000 0.842686 0.280523
O O2 0.353618 0.750000 0.317490
O O3 0.250000 0.843616 0.250000
O O4 0.330290 0.872513 0.369864
O O5 0.500000 0.250000 0.067695
O O6 0.618871 0.335970 0.137848
O O7 0.500000 0.375523 0.028623
O O8 0.379982 0.415905 0.921640
O O9 0.500000 0.500000 0.000000
O O10 0.297039 0.498696 0.594843
O O11 0.305369 0.411768 0.500566
O O12 0.286729 0.750000 0.663006
O O13 0.250000 0.843533 0.750000
O O14 0.337320 0.875673 0.627649
O O15 0.000000 0.446024 0.063578
#
# Coordination Sequence:
#
# PCOD9538519 Si02
#       6
#    16   8   8  16  16  16
#     4  10  23  43  65  91 123 160 202 250 305 365
#     4  10  20  38  58  84 120 150 194 248 290 342
#     4  12  20  38  64  90 116 157 198 247 302 355
#     4  11  22  39  62  89 121 153 197 250 302 356
#     4  10  22  38  58  85 118 157 196 240 290 345
#     4  11  22  38  60  86 118 155 196 243 298 355
#
# _framework density 18.349081999999999
#
# number of rings (size 3 to 8) (size 9 to 14) (size 15 to 20)
#    0.000    1.400    4.000    2.400    2.800    2.800 
#    0.000    0.000    0.000    0.000    0.000    0.000 
#    0.000    0.000    0.000    0.000    0.000    0.000 
#
# Total GULP energy -223352.376046 kJ/mol
# GULP energy per Si atom -5583.809401 kJ/mol
# Density = 1.830732 g / cm^3
# Si number density = 18.349082 Si / 1000 Ang^3
#
#
#
# Elastic Constant Matrix: (Units=GPa)
#
#
# Indices 1 2 3 4 5 6 
#
# 1 144.5669 44.3285 41.2291 0.0000 0.0000 0.0000
# 2 44.3285 66.5319 59.4802 0.0000 0.0000 0.0000
# 3 41.2291 59.4802 70.3572 0.0000 0.0000 0.0000
# 4 0.0000 0.0000 0.0000 32.7990 0.0000 0.0000
# 5 0.0000 0.0000 0.0000 0.0000 20.1917 0.0000
# 6 0.0000 0.0000 0.0000 0.0000 0.0000 14.2561
#
#
#
# Elastic Compliance Matrix: (Units=1/GPa)
#
#
# Indices 1 2 3 4 5 6 
#
# 1 0.008704 -0.005075 -0.000810 0.000000 0.000000 0.000000
# 2 -0.005075 0.064508 -0.051561 0.000000 0.000000 0.000000
# 3 -0.000810 -0.051561 0.058278 0.000000 0.000000 0.000000
# 4 0.000000 0.000000 0.000000 0.030489 0.000000 0.000000
# 5 0.000000 0.000000 0.000000 0.000000 0.049525 0.000000
# 6 0.000000 0.000000 0.000000 0.000000 0.000000 0.070145
#
#
# Mechanical properties :
#
#
# Convention : Reuss Voigt Hill
#
# Bulk Modulus (GPa) = 60.25110 63.50351 61.87731
# Shear Modulus (GPa) = 12.43544 22.54391 17.48967
#
# Velocity S-wave (km/s) = 2.60612 3.50896 3.09068
# Velocity P-wave (km/s) = 6.47790 7.14848 6.82143
#
# Compressibility (1/GPa) = 0.01659721
#
# Stress axis : x y z
#
# Youngs Moduli (GPa) = 114.88324 15.50186 17.15911
#
# Poissons Ratio (x) = 0.07868 0.01390
# Poissons Ratio (y) = 0.58307 0.88475
# Poissons Ratio (z) = 0.09307 0.79930
#
# Static dielectric constant tensor:
#      x y z
#    x 1.659090 0.000000 0.000000 
#    y 0.000000 1.612910 0.000000 
#    z 0.000000 0.000000 1.596850 
# 
# From -- ./inp_files/50451.got.cif
#   From: 2010.05.17/outbox.cif.g08.bks.cpg/sg74_26_cif.got.tgz:50451.got - 2010.06.03 17:57:02.
