data_PCOD9538209
_publ_section_title
;
Structure prediction by ZEFSAII (Michael W. Deem and Ramdas Pophale) SiO2 
 PCOD9538209
Probable space group: I M M A
;
_chemical_formula_sum "Si O2"
_cell_formula_units_Z 112
_cell_length_a 25.392771
_cell_length_b 15.500392
_cell_length_c 14.247786
_cell_angle_alpha 90.000000
_cell_angle_beta 90.000000
_cell_angle_gamma 90.000000
_cell_volume 5607.898713
_symmetry_space_group_name_H-M "I M M A"
_symmetry_group_IT_number 74
_symmetry_cell_setting 'orthorhombic'
loop_
_space_group_symop_operation_xyz
x,y,z
-x,1/2-y,z
x,-y,-z
-x,1/2+y,-z
-x,-y,-z
x,1/2+y,-z
-x,y,z
x,1/2-y,z
1/2+x,1/2+y,1/2+z
1/2-x,-y,1/2+z
1/2+x,1/2-y,1/2-z
1/2-x,y,1/2-z
1/2-x,1/2-y,1/2-z
1/2+x,y,1/2-z
1/2-x,1/2+y,1/2+z
1/2+x,-y,1/2+z
loop_
_atom_site_type_symbol
_atom_site_label
_atom_site_fract_x
_atom_site_fract_y
_atom_site_fract_z
Si Si1 0.646434 0.090548 0.554848
Si Si2 0.757574 0.656442 0.942220
Si Si3 0.786841 0.992927 0.674916
Si Si4 0.389130 0.487145 0.270342
Si Si5 0.164626 0.342294 0.575127
Si Si6 0.560195 0.067642 0.914190
Si Si7 0.561560 0.349006 0.412126
O O1 0.700778 0.138325 0.526553
O O2 0.598032 0.138464 0.503761
O O3 0.650856 0.000000 0.500000
O O4 0.631777 0.064477 0.661102
O O5 0.772042 0.750000 0.900054
O O6 0.752033 0.573865 0.875986
O O7 0.698337 0.662654 0.980854
O O8 0.750000 0.038466 0.750000
O O9 0.836616 0.947235 0.723581
O O10 0.812821 0.068957 0.616392
O O11 0.424430 0.523360 0.185356
O O12 0.418468 0.417487 0.334937
O O13 0.174201 0.250000 0.624815
O O14 0.102816 0.358244 0.567011
O O15 0.500000 0.096914 0.911145
O O16 0.565737 0.000000 0.000000
O O17 0.500000 0.364964 0.433038
O O18 0.567037 0.250000 0.379510
#
# Coordination Sequence:
#
# PCOD9538209 Si02
#       7
#    16  16  16  16  16  16  16
#     4  10  20  36  58  84 118 158 197 240 295 363
#     4  11  22  37  60  87 117 154 196 247 309 371
#     4  11  21  35  56  84 118 153 194 245 301 362
#     4  10  21  36  60  87 116 160 205 248 307 373
#     4  10  21  37  57  79 108 151 197 242 292 348
#     4  10  21  39  62  87 118 158 206 258 311 369
#     4  10  21  37  58  87 122 157 201 259 315 371
#
# _framework density 19.971831000000002
#
# number of rings (size 3 to 8) (size 9 to 14) (size 15 to 20)
#    0.000    1.714    0.000    6.429    0.000    4.571 
#    0.000    7.857    0.000    0.857    0.000    0.000 
#    0.000    0.000    0.000    0.000    0.000    0.000 
#
# Total GULP energy -312001.824165 kJ/mol
# GULP energy per Si atom -5571.461146 kJ/mol
# Density = 1.992637 g / cm^3
# Si number density = 19.971831 Si / 1000 Ang^3
#
#
#
# Elastic Constant Matrix: (Units=GPa)
#
#
# Indices 1 2 3 4 5 6 
#
# 1 104.1887 24.0596 24.3726 0.0000 0.0000 0.0000
# 2 24.0596 88.5281 12.1550 0.0000 0.0000 0.0000
# 3 24.3726 12.1550 67.2345 0.0000 0.0000 0.0000
# 4 0.0000 0.0000 0.0000 -75.3123 0.0000 0.0000
# 5 0.0000 0.0000 0.0000 0.0000 30.6899 0.0000
# 6 0.0000 0.0000 0.0000 0.0000 0.0000 -11.4668
#
#
#
# Elastic Compliance Matrix: (Units=1/GPa)
#
#
# Indices 1 2 3 4 5 6 
#
# 1 0.011004 -0.002505 -0.003536 0.000000 0.000000 0.000000
# 2 -0.002505 0.012154 -0.001289 0.000000 0.000000 0.000000
# 3 -0.003536 -0.001289 0.016388 0.000000 0.000000 0.000000
# 4 0.000000 0.000000 0.000000 -0.013278 0.000000 0.000000
# 5 0.000000 0.000000 0.000000 0.000000 0.032584 0.000000
# 6 0.000000 0.000000 0.000000 0.000000 0.000000 -0.087209
#
#
# Mechanical properties :
#
#
# Convention : Reuss Voigt Hill
#
# Bulk Modulus (GPa) = 40.18450 42.34731 41.26590
# Shear Modulus (GPa) = -925.58572 2.07309 -461.75631
#
# Velocity S-wave (km/s) = -21.55114 1.01993 -15.22188
# Velocity P-wave (km/s) = 24.47661 4.75779 16.97746
#
# Compressibility (1/GPa) = 0.02488522
#
# Stress axis : x y z
#
# Youngs Moduli (GPa) = 90.87944 82.27983 61.01966
#
# Poissons Ratio (x) = 0.20611 0.21576
# Poissons Ratio (y) = 0.22765 0.07866
# Poissons Ratio (z) = 0.32135 0.10607
#
# Static dielectric constant tensor:
#      x y z
#    x 1.733820 0.000000 0.000000 
#    y 0.000000 1.767100 0.000000 
#    z 0.000000 0.000000 1.744490 
# 
# From -- ./inp_files/37367.got.cif
#   From: 2010.05.17/outbox.cif.g08.bks.cpg/sg74_19_cif.got.tgz:37367.got - 2010.06.03 17:57:02.
