data_PCOD9538042
_publ_section_title
;
Structure prediction by ZEFSAII (Michael W. Deem and Ramdas Pophale) SiO2 
 PCOD9538042
Probable space group: I M M A
;
_chemical_formula_sum "Si O2"
_cell_formula_units_Z 112
_cell_length_a 14.989724
_cell_length_b 22.166850
_cell_length_c 15.122504
_cell_angle_alpha 90.000000
_cell_angle_beta 90.000000
_cell_angle_gamma 90.000000
_cell_volume 5024.829464
_symmetry_space_group_name_H-M "I M M A"
_symmetry_group_IT_number 74
_symmetry_cell_setting 'orthorhombic'
loop_
_space_group_symop_operation_xyz
x,y,z
-x,1/2-y,z
x,-y,-z
-x,1/2+y,-z
-x,-y,-z
x,1/2+y,-z
-x,y,z
x,1/2-y,z
1/2+x,1/2+y,1/2+z
1/2-x,-y,1/2+z
1/2+x,1/2-y,1/2-z
1/2-x,y,1/2-z
1/2-x,1/2-y,1/2-z
1/2+x,y,1/2-z
1/2-x,1/2+y,1/2+z
1/2+x,-y,1/2+z
loop_
_atom_site_type_symbol
_atom_site_label
_atom_site_fract_x
_atom_site_fract_y
_atom_site_fract_z
Si Si1 0.897152 0.186219 0.215758
Si Si2 0.604112 0.910513 0.350619
Si Si3 0.655793 0.141893 0.463971
Si Si4 0.107114 0.817973 0.299564
Si Si5 0.764971 0.982555 0.900289
Si Si6 0.645970 0.680661 0.996148
Si Si7 0.897466 0.086117 0.344775
O O1 0.854980 0.250000 0.240823
O O2 0.895332 0.178198 0.110962
O O3 0.860340 0.129565 0.267894
O O4 0.000000 0.187525 0.244838
O O5 0.500000 0.928263 0.337145
O O6 0.609799 0.873989 0.443574
O O7 0.636145 0.866983 0.271897
O O8 0.670657 0.966829 0.360814
O O9 0.680201 0.078803 0.416111
O O10 0.748218 0.175644 0.482692
O O11 0.141388 0.750000 0.282107
O O12 0.127505 0.833314 0.401240
O O13 0.000000 0.815738 0.291289
O O14 0.672603 0.967925 0.852087
O O15 0.738530 0.000000 0.000000
O O16 0.615937 0.750000 0.978326
O O17 0.606078 0.629767 0.931407
O O18 0.000000 0.067180 0.329672
#
# Coordination Sequence:
#
# PCOD9538042 Si02
#       7
#    16  16  16  16  16  16  16
#     4  10  21  37  60  92 125 159 205 255 306 373
#     4  10  21  40  65  89 121 165 207 255 316 372
#     4  10  21  37  57  87 123 160 207 256 307 364
#     4   9  19  36  60  93 126 156 200 251 300 370
#     4   9  21  40  61  89 120 157 211 263 306 365
#     4  10  20  35  58  89 126 166 203 248 310 374
#     4  10  21  39  62  89 124 165 207 257 315 370
#
# _framework density 22.289313
#
# number of rings (size 3 to 8) (size 9 to 14) (size 15 to 20)
#    0.000    2.286    0.000    1.714    0.000    8.857 
#    0.000   17.857    0.000    5.143    0.000    1.000 
#    0.000    2.857    0.000    0.000    0.000    0.000 
#
# Total GULP energy -312914.150246 kJ/mol
# GULP energy per Si atom -5587.752683 kJ/mol
# Density = 2.223858 g / cm^3
# Si number density = 22.289313 Si / 1000 Ang^3
#
#
#
# Elastic Constant Matrix: (Units=GPa)
#
#
# Indices 1 2 3 4 5 6 
#
# 1 92.2490 33.5858 23.1982 0.0000 0.0000 0.0004
# 2 33.5858 83.5899 58.3817 0.0000 0.0000 0.0002
# 3 23.1982 58.3817 107.8911 0.0001 0.0000 -0.0007
# 4 0.0000 0.0000 0.0001 9.1680 0.0000 -0.0002
# 5 0.0000 0.0000 0.0000 0.0000 18.3118 -0.0001
# 6 0.0004 0.0002 -0.0007 -0.0002 -0.0001 -156.6262
#
#
#
# Elastic Compliance Matrix: (Units=1/GPa)
#
#
# Indices 1 2 3 4 5 6 
#
# 1 0.012698 -0.005136 0.000049 0.000000 0.000000 0.000000
# 2 -0.005136 0.021309 -0.010426 0.000000 0.000000 0.000000
# 3 0.000049 -0.010426 0.014900 0.000000 0.000000 0.000000
# 4 0.000000 0.000000 0.000000 0.109076 0.000000 0.000000
# 5 0.000000 0.000000 0.000000 0.000000 0.054610 0.000000
# 6 0.000000 0.000000 0.000000 0.000000 0.000000 -0.006385
#
#
# Mechanical properties :
#
#
# Convention : Reuss Voigt Hill
#
# Bulk Modulus (GPa) = 55.92880 57.11791 56.52336
# Shear Modulus (GPa) = 20.55973 -14.59167 2.98403
#
# Velocity S-wave (km/s) = 3.04040 -2.56139 1.15831
# Velocity P-wave (km/s) = 6.12144 4.11506 5.21564
#
# Compressibility (1/GPa) = 0.01787988
#
# Stress axis : x y z
#
# Youngs Moduli (GPa) = 78.75344 46.92895 67.11470
#
# Poissons Ratio (x) = 0.24103 -0.00329
# Poissons Ratio (y) = 0.40449 0.69975
# Poissons Ratio (z) = -0.00386 0.48929
#
# Static dielectric constant tensor:
#      x y z
#    x 1.812730 0.000000 0.000000 
#    y 0.000000 0.903840 0.000000 
#    z 0.000000 0.000000 1.837280 
# 
# From -- ./inp_files/32705.got.cif
#   From: 2010.05.17/outbox.cif.g08.bks.cpg/sg74_17_cif.got.tgz:32705.got - 2010.06.03 17:57:02.
