data_PCOD9538239
_publ_section_title
;
Structure prediction by ZEFSAII (Michael W. Deem and Ramdas Pophale) SiO2 
 PCOD9538239
Probable space group: I M M A
;
_chemical_formula_sum "Si O2"
_cell_formula_units_Z 72
_cell_length_a 8.079755
_cell_length_b 13.534536
_cell_length_c 32.293059
_cell_angle_alpha 90.000000
_cell_angle_beta 90.000000
_cell_angle_gamma 90.000000
_cell_volume 3531.431200
_symmetry_space_group_name_H-M "I M M A"
_symmetry_group_IT_number 74
_symmetry_cell_setting 'orthorhombic'
loop_
_space_group_symop_operation_xyz
x,y,z
-x,1/2-y,z
x,-y,-z
-x,1/2+y,-z
-x,-y,-z
x,1/2+y,-z
-x,y,z
x,1/2-y,z
1/2+x,1/2+y,1/2+z
1/2-x,-y,1/2+z
1/2+x,1/2-y,1/2-z
1/2-x,y,1/2-z
1/2-x,1/2-y,1/2-z
1/2+x,y,1/2-z
1/2-x,1/2+y,1/2+z
1/2+x,-y,1/2+z
loop_
_atom_site_type_symbol
_atom_site_label
_atom_site_fract_x
_atom_site_fract_y
_atom_site_fract_z
Si Si1 0.299750 0.463935 0.797965
Si Si2 0.199414 0.250000 0.701691
Si Si3 0.308191 0.427047 0.445562
Si Si4 0.799865 0.859605 0.644447
Si Si5 0.693322 0.139234 0.966478
O O1 0.500000 0.464105 0.799507
O O2 0.250000 0.473541 0.750000
O O3 0.242039 0.356277 0.814532
O O4 0.237784 0.554544 0.825288
O O5 0.250000 0.250000 0.750000
O O6 0.000000 0.250000 0.698800
O O7 0.500000 0.406057 0.453325
O O8 0.253220 0.382477 0.402237
O O9 0.280900 0.545450 0.445741
O O10 0.209837 0.381526 0.484315
O O11 0.743573 0.750000 0.656614
O O12 0.000000 0.860828 0.645715
O O13 0.500000 0.135163 0.955042
O O14 0.755582 0.250000 0.957352
#
# Coordination Sequence:
#
# PCOD9538239 Si02
#       5
#    16   8  16  16  16
#     4   9  18  33  54  78 104 136 176 221 272 324
#     4   8  14  28  50  74  98 126 164 210 258 318
#     4  11  22  35  54  80 111 143 178 225 274 321
#     4  10  21  37  54  74 106 146 186 226 269 325
#     4  10  20  36  59  82 106 141 182 222 267 325
#
# _framework density 20.388334
#
# number of rings (size 3 to 8) (size 9 to 14) (size 15 to 20)
#    0.000    2.222    0.000    4.667    0.000    6.222 
#    2.000    0.000    0.000    0.000    0.000    0.000 
#    0.000    0.000    0.000    0.000    0.000    0.000 
#
# Total GULP energy -200930.370852 kJ/mol
# GULP energy per Si atom -5581.399190 kJ/mol
# Density = 2.034193 g / cm^3
# Si number density = 20.388334 Si / 1000 Ang^3
#
#
#
# Elastic Constant Matrix: (Units=GPa)
#
#
# Indices 1 2 3 4 5 6 
#
# 1 19.5792 9.0316 -2.5157 0.0000 0.0000 0.0000
# 2 9.0316 172.8728 38.0808 0.0000 0.0000 0.0000
# 3 -2.5157 38.0808 34.2724 0.0000 0.0000 0.0000
# 4 0.0000 0.0000 0.0000 12.5049 0.0000 0.0000
# 5 0.0000 0.0000 0.0000 0.0000 2.2991 0.0000
# 6 0.0000 0.0000 0.0000 0.0000 0.0000 5.7217
#
#
#
# Elastic Compliance Matrix: (Units=1/GPa)
#
#
# Indices 1 2 3 4 5 6 
#
# 1 0.054576 -0.004944 0.009499 0.000000 0.000000 0.000000
# 2 -0.004944 0.008107 -0.009371 0.000000 0.000000 0.000000
# 3 0.009499 -0.009371 0.040287 0.000000 0.000000 0.000000
# 4 0.000000 0.000000 0.000000 0.079969 0.000000 0.000000
# 5 0.000000 0.000000 0.000000 0.000000 0.434959 0.000000
# 6 0.000000 0.000000 0.000000 0.000000 0.000000 0.174775
#
#
# Mechanical properties :
#
#
# Convention : Reuss Voigt Hill
#
# Bulk Modulus (GPa) = 10.71362 35.10198 22.90780
# Shear Modulus (GPa) = 5.99941 16.24698 11.12319
#
# Velocity S-wave (km/s) = 1.71725 2.82596 2.33827
# Velocity P-wave (km/s) = 3.03284 5.28225 4.30699
#
# Compressibility (1/GPa) = 0.09333918
#
# Stress axis : x y z
#
# Youngs Moduli (GPa) = 18.32323 123.34829 24.82164
#
# Poissons Ratio (x) = 0.60980 -0.23579
# Poissons Ratio (y) = 0.09059 0.23260
# Poissons Ratio (z) = -0.17406 1.15588
#
# Static dielectric constant tensor:
#      x y z
#    x 1.698810 0.000000 0.000000 
#    y 0.000000 1.777920 0.000000 
#    z 0.000000 0.000000 1.670040 
# 
# From -- ./inp_files/69987.got.cif
#   From: 2010.05.17/outbox.cif.g08.bks.cpg/sg74_35_cif.got.tgz:69987.got - 2010.06.03 17:57:02.
