data_PCOD9538991
_publ_section_title
;
Structure prediction by ZEFSAII (Michael W. Deem and Ramdas Pophale) SiO2 
 PCOD9538991
Probable space group: I M M A
;
_chemical_formula_sum "Si O2"
_cell_formula_units_Z 56
_cell_length_a 24.078068
_cell_length_b 7.659047
_cell_length_c 13.989952
_cell_angle_alpha 90.000000
_cell_angle_beta 90.000000
_cell_angle_gamma 90.000000
_cell_volume 2579.957760
_symmetry_space_group_name_H-M "I M M A"
_symmetry_group_IT_number 74
_symmetry_cell_setting 'orthorhombic'
loop_
_space_group_symop_operation_xyz
x,y,z
-x,1/2-y,z
x,-y,-z
-x,1/2+y,-z
-x,-y,-z
x,1/2+y,-z
-x,y,z
x,1/2-y,z
1/2+x,1/2+y,1/2+z
1/2-x,-y,1/2+z
1/2+x,1/2-y,1/2-z
1/2-x,y,1/2-z
1/2-x,1/2-y,1/2-z
1/2+x,y,1/2-z
1/2-x,1/2+y,1/2+z
1/2+x,-y,1/2+z
loop_
_atom_site_type_symbol
_atom_site_label
_atom_site_fract_x
_atom_site_fract_y
_atom_site_fract_z
Si Si1 0.437010 0.039606 0.255911
Si Si2 0.842485 0.959282 0.611381
Si Si3 0.160396 0.452323 0.889518
Si Si4 0.250000 0.501529 0.750000
O O1 0.500000 0.974594 0.253764
O O2 0.438671 0.250000 0.260957
O O3 0.400729 0.995196 0.162126
O O4 0.400745 0.975972 0.345567
O O5 0.832440 0.750000 0.624388
O O6 0.842057 0.000000 0.500000
O O7 0.794350 0.058694 0.669401
O O8 0.177054 0.250000 0.876071
O O9 0.202706 0.564364 0.825127
O O10 0.162661 0.500000 0.000000
#
# Coordination Sequence:
#
# PCOD9538991 Si02
#       4
#    16  16  16   8
#     4   9  20  40  61  81 110 148 188 229 274 327
#     4  10  21  36  57  84 113 147 186 229 278 330
#     4  11  23  38  58  85 114 146 185 229 278 330
#     4  10  22  38  58  80 112 150 190 230 270 324
#
# _framework density 21.705781000000002
#
# number of rings (size 3 to 8) (size 9 to 14) (size 15 to 20)
#    0.000    2.000    0.000    2.571    0.000   13.143 
#    0.000    0.000    0.000    0.000    0.000    0.000 
#    0.000    0.000    0.000    0.000    0.000    0.000 
#
# Total GULP energy -155907.093748 kJ/mol
# GULP energy per Si atom -5568.110491 kJ/mol
# Density = 2.165638 g / cm^3
# Si number density = 21.705781 Si / 1000 Ang^3
#
#
#
# Elastic Constant Matrix: (Units=GPa)
#
#
# Indices 1 2 3 4 5 6 
#
# 1 209.3148 32.8470 90.8135 0.0000 0.0000 0.0000
# 2 32.8470 102.9614 28.1086 0.0000 0.0000 0.0000
# 3 90.8135 28.1086 230.3442 0.0000 0.0000 0.0000
# 4 0.0000 0.0000 0.0000 -64.1708 0.0000 0.0000
# 5 0.0000 0.0000 0.0000 0.0000 9.0168 0.0000
# 6 0.0000 0.0000 0.0000 0.0000 0.0000 -24.4983
#
#
#
# Elastic Compliance Matrix: (Units=1/GPa)
#
#
# Indices 1 2 3 4 5 6 
#
# 1 0.005926 -0.001296 -0.002178 0.000000 0.000000 0.000000
# 2 -0.001296 0.010330 -0.000750 0.000000 0.000000 0.000000
# 3 -0.002178 -0.000750 0.005292 0.000000 0.000000 0.000000
# 4 0.000000 0.000000 0.000000 -0.015583 0.000000 0.000000
# 5 0.000000 0.000000 0.000000 0.000000 0.110904 0.000000
# 6 0.000000 0.000000 0.000000 0.000000 0.000000 -0.040819
#
#
# Mechanical properties :
#
#
# Convention : Reuss Voigt Hill
#
# Bulk Modulus (GPa) = 76.33333 94.01763 85.17548
# Shear Modulus (GPa) = 56.26605 10.12630 33.19617
#
# Velocity S-wave (km/s) = 5.09690 2.16226 3.91496
# Velocity P-wave (km/s) = 8.35952 7.04574 7.73059
#
# Compressibility (1/GPa) = 0.01310044
#
# Stress axis : x y z
#
# Youngs Moduli (GPa) = 168.75199 96.80112 188.98047
#
# Poissons Ratio (x) = 0.12544 0.41163
# Poissons Ratio (y) = 0.21868 0.14168
# Poissons Ratio (z) = 0.36757 0.07257
#
# Static dielectric constant tensor:
#      x y z
#    x 1.762530 0.000000 0.000000 
#    y 0.000000 1.954800 0.000000 
#    z 0.000000 0.000000 1.720340 
# 
# From -- ./inp_files/18336.got.cif
#   From: 2010.05.17/outbox.cif.g08.bks.cpg/sg74_10_cif.got.tgz:18336.got - 2010.06.03 17:57:02.
