data_PCOD9538928
_publ_section_title
;
Structure prediction by ZEFSAII (Michael W. Deem and Ramdas Pophale) SiO2 
 PCOD9538928
Probable space group: I M M A
;
_chemical_formula_sum "Si O2"
_cell_formula_units_Z 68
_cell_length_a 16.834880
_cell_length_b 7.873164
_cell_length_c 25.833936
_cell_angle_alpha 90.000000
_cell_angle_beta 90.000000
_cell_angle_gamma 90.000000
_cell_volume 3424.127301
_symmetry_space_group_name_H-M "I M M A"
_symmetry_group_IT_number 74
_symmetry_cell_setting 'orthorhombic'
loop_
_space_group_symop_operation_xyz
x,y,z
-x,1/2-y,z
x,-y,-z
-x,1/2+y,-z
-x,-y,-z
x,1/2+y,-z
-x,y,z
x,1/2-y,z
1/2+x,1/2+y,1/2+z
1/2-x,-y,1/2+z
1/2+x,1/2-y,1/2-z
1/2-x,y,1/2-z
1/2-x,1/2-y,1/2-z
1/2+x,y,1/2-z
1/2-x,1/2+y,1/2+z
1/2+x,-y,1/2+z
loop_
_atom_site_type_symbol
_atom_site_label
_atom_site_fract_x
_atom_site_fract_y
_atom_site_fract_z
Si Si1 0.886690 0.555152 0.851974
Si Si2 0.590406 0.453258 0.059378
Si Si3 0.412568 0.547440 0.770071
Si Si4 0.287439 0.558016 0.146403
Si Si5 0.000000 0.750000 0.115303
O O1 0.912428 0.750000 0.863126
O O2 0.903709 0.519238 0.791086
O O3 0.791823 0.550647 0.858358
O O4 0.931299 0.403757 0.881744
O O5 0.500000 0.511152 0.070589
O O6 0.592186 0.250000 0.065024
O O7 0.653303 0.529513 0.098660
O O8 0.607648 0.500000 0.000000
O O9 0.500000 0.482308 0.786364
O O10 0.412138 0.750000 0.778635
O O11 0.339993 0.476325 0.802710
O O12 0.259370 0.750000 0.148072
#
# Coordination Sequence:
#
# PCOD9538928 Si02
#       5
#    16  16  16  16   4
#     4  11  23  40  59  82 119 156 199 250 296 346
#     4  10  21  39  61  85 119 156 193 237 292 352
#     4  10  21  36  54  78 116 162 200 239 293 345
#     4  12  24  35  55  87 118 153 201 244 290 348
#     4  12  22  40  62  86 112 156 206 244 294 370
#
# _framework density 19.859074
#
# number of rings (size 3 to 8) (size 9 to 14) (size 15 to 20)
#    0.000    1.176    2.353    4.588    1.647    7.529 
#    0.000    0.000    0.000    0.000    0.000    0.824 
#    0.000    0.000    0.000    0.000    0.000    0.000 
#
# Total GULP energy -189446.600212 kJ/mol
# GULP energy per Si atom -5571.958830 kJ/mol
# Density = 1.981387 g / cm^3
# Si number density = 19.859074 Si / 1000 Ang^3
#
#
#
# Elastic Constant Matrix: (Units=GPa)
#
#
# Indices 1 2 3 4 5 6 
#
# 1 113.2975 13.7705 8.8387 0.0000 0.0000 0.0000
# 2 13.7705 84.0320 -0.2138 0.0000 0.0000 0.0000
# 3 8.8387 -0.2138 17.6189 0.0000 0.0000 0.0000
# 4 0.0000 0.0000 0.0000 21.0448 0.0000 0.0000
# 5 0.0000 0.0000 0.0000 0.0000 185.6897 0.0000
# 6 0.0000 0.0000 0.0000 0.0000 0.0000 34.7154
#
#
#
# Elastic Compliance Matrix: (Units=1/GPa)
#
#
# Indices 1 2 3 4 5 6 
#
# 1 0.009383 -0.001550 -0.004726 0.000000 0.000000 0.000000
# 2 -0.001550 0.012157 0.000925 0.000000 0.000000 0.000000
# 3 -0.004726 0.000925 0.059139 0.000000 0.000000 0.000000
# 4 0.000000 0.000000 0.000000 0.047518 0.000000 0.000000
# 5 0.000000 0.000000 0.000000 0.000000 0.005385 0.000000
# 6 0.000000 0.000000 0.000000 0.000000 0.000000 0.028806
#
#
# Mechanical properties :
#
#
# Convention : Reuss Voigt Hill
#
# Bulk Modulus (GPa) = 14.29033 28.85994 21.57513
# Shear Modulus (GPa) = 25.45628 61.12686 43.29157
#
# Velocity S-wave (km/s) = 3.58417 5.55402 4.67405
# Velocity P-wave (km/s) = 4.93355 7.46280 6.32587
#
# Compressibility (1/GPa) = 0.06997741
#
# Stress axis : x y z
#
# Youngs Moduli (GPa) = 106.57153 82.26032 16.90926
#
# Poissons Ratio (x) = 0.12748 0.07991
# Poissons Ratio (y) = 0.16515 -0.01564
# Poissons Ratio (z) = 0.50366 -0.07608
#
# Static dielectric constant tensor:
#      x y z
#    x 1.721240 0.000000 0.000000 
#    y 0.000000 1.729820 0.000000 
#    z 0.000000 0.000000 1.671950 
# 
# From -- ./inp_files/66641.got.cif
#   From: 2010.05.17/outbox.cif.g08.bks.cpg/sg74_34_cif.got.tgz:66641.got - 2010.06.03 17:57:02.
