data_PCOD9538517
_publ_section_title
;
Structure prediction by ZEFSAII (Michael W. Deem and Ramdas Pophale) SiO2 
 PCOD9538517
Probable space group: I M M A
;
_chemical_formula_sum "Si O2"
_cell_formula_units_Z 96
_cell_length_a 26.487151
_cell_length_b 26.208348
_cell_length_c 7.952272
_cell_angle_alpha 90.000000
_cell_angle_beta 90.000000
_cell_angle_gamma 90.000000
_cell_volume 5520.343731
_symmetry_space_group_name_H-M "I M M A"
_symmetry_group_IT_number 74
_symmetry_cell_setting 'orthorhombic'
loop_
_space_group_symop_operation_xyz
x,y,z
-x,1/2-y,z
x,-y,-z
-x,1/2+y,-z
-x,-y,-z
x,1/2+y,-z
-x,y,z
x,1/2-y,z
1/2+x,1/2+y,1/2+z
1/2-x,-y,1/2+z
1/2+x,1/2-y,1/2-z
1/2-x,y,1/2-z
1/2-x,1/2-y,1/2-z
1/2+x,y,1/2-z
1/2-x,1/2+y,1/2+z
1/2+x,-y,1/2+z
loop_
_atom_site_type_symbol
_atom_site_label
_atom_site_fract_x
_atom_site_fract_y
_atom_site_fract_z
Si Si1 0.940471 0.058491 0.062844
Si Si2 0.619692 0.893245 0.260909
Si Si3 0.708662 0.037234 0.638129
Si Si4 0.781498 0.605696 0.583975
Si Si5 0.610753 0.557151 0.927478
Si Si6 0.194315 0.190619 0.665972
O O1 0.917815 0.063063 0.250419
O O2 0.000000 0.069362 0.067200
O O3 0.913522 0.094420 0.923905
O O4 0.934132 0.000000 0.000000
O O5 0.664392 0.935701 0.264191
O O6 0.650144 0.840021 0.264175
O O7 0.594141 0.904781 0.080061
O O8 0.750000 0.008038 0.750000
O O9 0.743127 0.079476 0.547401
O O10 0.686650 0.000000 0.500000
O O11 0.750000 0.614592 0.750000
O O12 0.830559 0.570369 0.609779
O O13 0.800759 0.658613 0.505545
O O14 0.604639 0.500000 0.000000
O O15 0.182372 0.250000 0.645927
O O16 0.250000 0.187043 0.750000
#
# Coordination Sequence:
#
# PCOD9538517 Si02
#       6
#    16  16  16  16  16  16
#     4  11  24  39  58  83 113 150 191 238 292 349
#     4  11  21  38  57  81 114 151 192 233 284 342
#     4  12  21  31  48  79 116 155 188 220 271 341
#     4  11  21  32  51  80 115 155 192 229 278 340
#     4  11  22  35  52  80 114 156 190 230 276 344
#     4  10  20  38  58  81 114 151 193 236 278 333
#
# _framework density 17.390221
#
# number of rings (size 3 to 8) (size 9 to 14) (size 15 to 20)
#    0.000    1.000    6.667    2.500    2.333    1.333 
#    0.000    0.000    0.000    0.500    0.000    0.000 
#    0.000    0.000    0.000    0.000    0.000    0.000 
#
# Total GULP energy -267947.393653 kJ/mol
# GULP energy per Si atom -5582.237368 kJ/mol
# Density = 1.735064 g / cm^3
# Si number density = 17.390221 Si / 1000 Ang^3
#
#
#
# Elastic Constant Matrix: (Units=GPa)
#
#
# Indices 1 2 3 4 5 6 
#
# 1 98.0526 33.5692 66.0501 0.0000 0.0000 0.0000
# 2 33.5692 98.8602 38.5913 0.0000 0.0000 0.0000
# 3 66.0501 38.5913 133.4652 0.0000 0.0000 0.0000
# 4 0.0000 0.0000 0.0000 15.7766 0.0000 0.0000
# 5 0.0000 0.0000 0.0000 0.0000 23.1489 0.0000
# 6 0.0000 0.0000 0.0000 0.0000 0.0000 15.2020
#
#
#
# Elastic Compliance Matrix: (Units=1/GPa)
#
#
# Indices 1 2 3 4 5 6 
#
# 1 0.015879 -0.002620 -0.007101 0.000000 0.000000 0.000000
# 2 -0.002620 0.011835 -0.002125 0.000000 0.000000 0.000000
# 3 -0.007101 -0.002125 0.011621 0.000000 0.000000 0.000000
# 4 0.000000 0.000000 0.000000 0.063385 0.000000 0.000000
# 5 0.000000 0.000000 0.000000 0.000000 0.043199 0.000000
# 6 0.000000 0.000000 0.000000 0.000000 0.000000 0.065781
#
#
# Mechanical properties :
#
#
# Convention : Reuss Voigt Hill
#
# Bulk Modulus (GPa) = 63.92831 67.42216 65.67523
# Shear Modulus (GPa) = 20.78095 23.63666 22.20881
#
# Velocity S-wave (km/s) = 3.46060 3.69072 3.57751
# Velocity P-wave (km/s) = 7.26695 7.55091 7.41029
#
# Compressibility (1/GPa) = 0.01564252
#
# Stress axis : x y z
#
# Youngs Moduli (GPa) = 62.97761 84.49792 86.05034
#
# Poissons Ratio (x) = 0.22138 0.61101
# Poissons Ratio (y) = 0.16500 0.18289
# Poissons Ratio (z) = 0.44718 0.17959
#
# Static dielectric constant tensor:
#      x y z
#    x 1.591050 0.000000 0.000000 
#    y 0.000000 1.582670 0.000000 
#    z 0.000000 0.000000 1.678910 
# 
# From -- ./inp_files/13914.got.cif
#   From: 2010.05.17/outbox.cif.g08.bks.cpg/sg74_7_cif.got.tgz:13914.got - 2010.06.03 17:57:02.
