data_PCOD9538137
_publ_section_title
;
Structure prediction by ZEFSAII (Michael W. Deem and Ramdas Pophale) SiO2 
 PCOD9538137
Probable space group: I M M A
;
_chemical_formula_sum "Si O2"
_cell_formula_units_Z 104
_cell_length_a 21.414057
_cell_length_b 8.226184
_cell_length_c 30.587546
_cell_angle_alpha 90.000000
_cell_angle_beta 90.000000
_cell_angle_gamma 90.000000
_cell_volume 5388.178929
_symmetry_space_group_name_H-M "I M M A"
_symmetry_group_IT_number 74
_symmetry_cell_setting 'orthorhombic'
loop_
_space_group_symop_operation_xyz
x,y,z
-x,1/2-y,z
x,-y,-z
-x,1/2+y,-z
-x,-y,-z
x,1/2+y,-z
-x,y,z
x,1/2-y,z
1/2+x,1/2+y,1/2+z
1/2-x,-y,1/2+z
1/2+x,1/2-y,1/2-z
1/2-x,y,1/2-z
1/2-x,1/2-y,1/2-z
1/2+x,y,1/2-z
1/2-x,1/2+y,1/2+z
1/2+x,-y,1/2+z
loop_
_atom_site_type_symbol
_atom_site_label
_atom_site_fract_x
_atom_site_fract_y
_atom_site_fract_z
Si Si1 0.133873 0.562608 0.365642
Si Si2 0.930142 0.056649 0.280173
Si Si3 0.637592 0.553132 0.550383
Si Si4 0.812997 0.051164 0.224371
Si Si5 0.000000 0.445609 0.050352
Si Si6 0.575048 0.939046 0.952422
Si Si7 0.275831 0.553702 0.628790
O O1 0.133618 0.750000 0.352924
O O2 0.093440 0.469120 0.329551
O O3 0.104275 0.538710 0.413156
O O4 0.204430 0.499822 0.367725
O O5 0.933502 0.250000 0.272441
O O6 0.875228 0.992581 0.248797
O O7 0.000000 0.989083 0.274054
O O8 0.646949 0.500000 0.500000
O O9 0.638197 0.750000 0.550194
O O10 0.568162 0.499446 0.566579
O O11 0.689282 0.495621 0.584971
O O12 0.813174 0.250000 0.225651
O O13 0.750000 0.000374 0.250000
O O14 0.809095 0.001787 0.173817
O O15 0.000000 0.250000 0.053259
O O16 0.000000 0.500000 0.000000
O O17 0.500000 0.953283 0.950624
O O18 0.591725 0.750000 0.946956
O O19 0.595505 0.000000 0.000000
O O20 0.276932 0.750000 0.627863
#
# Coordination Sequence:
#
# PCOD9538137 Si02
#       7
#    16  16  16  16   8  16  16
#     4  12  24  36  54  80 110 146 188 229 271 324
#     4  10  20  36  59  85 110 140 181 228 279 337
#     4   9  18  32  53  78 108 143 178 222 270 323
#     4   9  16  32  58  81 106 140 179 224 276 333
#     4   8  14  28  48  74 102 134 174 212 260 316
#     4  10  21  38  59  82 110 144 181 224 274 327
#     4  10  20  36  56  78 108 145 183 226 279 331
#
# _framework density 19.301511000000001
#
# number of rings (size 3 to 8) (size 9 to 14) (size 15 to 20)
#    0.000    2.154    1.538    2.308    0.000    4.308 
#    1.385    3.077    0.000    0.000    0.000    0.000 
#    0.000    0.000    0.000    0.000    0.000    0.000 
#
# Total GULP energy -290078.784259 kJ/mol
# GULP energy per Si atom -5578.438159 kJ/mol
# Density = 1.925758 g / cm^3
# Si number density = 19.301511 Si / 1000 Ang^3
#
#
#
# Elastic Constant Matrix: (Units=GPa)
#
#
# Indices 1 2 3 4 5 6 
#
# 1 118.5819 18.2990 41.2852 0.0000 0.0000 0.0000
# 2 18.2990 9.6968 8.5800 0.0000 0.0000 0.0000
# 3 41.2852 8.5800 86.7569 0.0000 0.0000 0.0000
# 4 0.0000 0.0000 0.0000 16.8471 0.0000 0.0000
# 5 0.0000 0.0000 0.0000 0.0000 21.0500 0.0000
# 6 0.0000 0.0000 0.0000 0.0000 0.0000 5.9397
#
#
#
# Elastic Compliance Matrix: (Units=1/GPa)
#
#
# Indices 1 2 3 4 5 6 
#
# 1 0.013141 -0.021113 -0.004166 0.000000 0.000000 0.000000
# 2 -0.021113 0.146938 -0.004484 0.000000 0.000000 0.000000
# 3 -0.004166 -0.004484 0.013952 0.000000 0.000000 0.000000
# 4 0.000000 0.000000 0.000000 0.059357 0.000000 0.000000
# 5 0.000000 0.000000 0.000000 0.000000 0.047506 0.000000
# 6 0.000000 0.000000 0.000000 0.000000 0.000000 0.168358
#
#
# Mechanical properties :
#
#
# Convention : Reuss Voigt Hill
#
# Bulk Modulus (GPa) = 8.73326 39.04042 23.88684
# Shear Modulus (GPa) = 9.14163 18.55878 13.85021
#
# Velocity S-wave (km/s) = 2.17865 3.10420 2.68166
# Velocity P-wave (km/s) = 3.29593 5.75488 4.68944
#
# Compressibility (1/GPa) = 0.11450472
#
# Stress axis : x y z
#
# Youngs Moduli (GPa) = 76.09540 6.80559 71.67313
#
# Poissons Ratio (x) = 0.14369 0.29856
# Poissons Ratio (y) = 1.60664 0.32141
# Poissons Ratio (z) = 0.31698 0.03052
#
# Static dielectric constant tensor:
#      x y z
#    x 1.687290 0.000000 0.000000 
#    y 0.000000 1.683990 0.000000 
#    z 0.000000 0.000000 1.652420 
# 
# From -- ./inp_files/73401.got.cif
#   From: 2010.05.17/outbox.cif.g08.bks.cpg/sg74_37_cif.got.tgz:73401.got - 2010.06.03 17:57:02.
