data_PCOD9538383
_publ_section_title
;
Structure prediction by ZEFSAII (Michael W. Deem and Ramdas Pophale) SiO2 
 PCOD9538383
Probable space group: I M M A
;
_chemical_formula_sum "Si O2"
_cell_formula_units_Z 68
_cell_length_a 7.622144
_cell_length_b 22.619816
_cell_length_c 17.101650
_cell_angle_alpha 90.000000
_cell_angle_beta 90.000000
_cell_angle_gamma 90.000000
_cell_volume 2948.521040
_symmetry_space_group_name_H-M "I M M A"
_symmetry_group_IT_number 74
_symmetry_cell_setting 'orthorhombic'
loop_
_space_group_symop_operation_xyz
x,y,z
-x,1/2-y,z
x,-y,-z
-x,1/2+y,-z
-x,-y,-z
x,1/2+y,-z
-x,y,z
x,1/2-y,z
1/2+x,1/2+y,1/2+z
1/2-x,-y,1/2+z
1/2+x,1/2-y,1/2-z
1/2-x,y,1/2-z
1/2-x,1/2-y,1/2-z
1/2+x,y,1/2-z
1/2-x,1/2+y,1/2+z
1/2+x,-y,1/2+z
loop_
_atom_site_type_symbol
_atom_site_label
_atom_site_fract_x
_atom_site_fract_y
_atom_site_fract_z
Si Si1 0.803080 0.078769 0.665293
Si Si2 0.302846 0.969976 0.577489
Si Si3 0.709434 0.341154 0.375889
Si Si4 0.707436 0.314192 0.558992
Si Si5 0.000000 0.250000 0.320330
O O1 0.750000 0.101776 0.750000
O O2 0.790056 0.130835 0.602682
O O3 0.000000 0.056189 0.668515
O O4 0.691115 0.022918 0.638760
O O5 0.500000 0.951906 0.551390
O O6 0.235696 0.910219 0.617337
O O7 0.217682 0.000000 0.500000
O O8 0.500000 0.335016 0.354144
O O9 0.726433 0.319430 0.465944
O O10 0.844259 0.301616 0.327908
O O11 0.500000 0.316569 0.576043
O O12 0.775975 0.250000 0.583959
#
# Coordination Sequence:
#
# PCOD9538383 Si02
#       5
#    16  16  16  16   4
#     4  12  26  40  59  84 121 160 208 255 302 366
#     4  10  20  38  63  87 119 157 200 254 311 360
#     4  10  21  35  57  90 124 161 198 254 309 361
#     4  10  20  37  58  81 119 162 204 245 300 357
#     4  12  22  32  58  86 136 152 204 248 302 382
#
# _framework density 23.062408999999999
#
# number of rings (size 3 to 8) (size 9 to 14) (size 15 to 20)
#    0.000    1.412    3.529    2.471    3.294    1.412 
#    0.000    0.000    0.000    0.000    0.000    0.824 
#    0.000    0.000    0.000    0.000    0.000    0.000 
#
# Total GULP energy -189470.607749 kJ/mol
# GULP energy per Si atom -5572.664934 kJ/mol
# Density = 2.300992 g / cm^3
# Si number density = 23.062409 Si / 1000 Ang^3
#
#
#
# Elastic Constant Matrix: (Units=GPa)
#
#
# Indices 1 2 3 4 5 6 
#
# 1 116.9732 37.4384 30.5008 0.0000 0.0000 0.0000
# 2 37.4384 185.5578 16.8223 0.0000 0.0000 0.0000
# 3 30.5008 16.8223 63.3822 0.0001 -0.0001 0.0000
# 4 0.0000 0.0000 0.0001 -18.7517 0.0000 0.0000
# 5 0.0000 0.0000 -0.0001 0.0000 12.2500 0.0000
# 6 0.0000 0.0000 0.0000 0.0000 0.0000 20.7533
#
#
#
# Elastic Compliance Matrix: (Units=1/GPa)
#
#
# Indices 1 2 3 4 5 6 
#
# 1 0.010252 -0.001661 -0.004493 0.000000 0.000000 0.000000
# 2 -0.001661 0.005791 -0.000738 0.000000 0.000000 0.000000
# 3 -0.004493 -0.000738 0.018135 0.000000 0.000000 0.000000
# 4 0.000000 0.000000 0.000000 -0.053329 0.000000 0.000000
# 5 0.000000 0.000000 0.000000 0.000000 0.081633 0.000000
# 6 0.000000 0.000000 0.000000 0.000000 0.000000 0.048185
#
#
# Mechanical properties :
#
#
# Convention : Reuss Voigt Hill
#
# Bulk Modulus (GPa) = 49.03066 59.49293 54.26179
# Shear Modulus (GPa) = 38.09554 21.59377 29.84466
#
# Velocity S-wave (km/s) = 4.06870 3.06325 3.60124
# Velocity P-wave (km/s) = 6.58624 6.19386 6.39306
#
# Compressibility (1/GPa) = 0.02039540
#
# Stress axis : x y z
#
# Youngs Moduli (GPa) = 97.54103 172.67595 55.14191
#
# Poissons Ratio (x) = 0.28685 0.24773
# Poissons Ratio (y) = 0.16203 0.04068
# Poissons Ratio (z) = 0.43822 0.12737
#
# Static dielectric constant tensor:
#      x y z
#    x 1.879920 0.000000 0.000000 
#    y 0.000000 1.872760 0.000000 
#    z 0.000000 0.000000 1.882180 
# 
# From -- ./inp_files/39190.got.cif
#   From: 2010.05.17/outbox.cif.g08.bks.cpg/sg74_20_cif.got.tgz:39190.got - 2010.06.03 17:57:02.
