data_PCOD9538840
_publ_section_title
;
Structure prediction by ZEFSAII (Michael W. Deem and Ramdas Pophale) SiO2 
 PCOD9538840
Probable space group: I M M A
;
_chemical_formula_sum "Si O2"
_cell_formula_units_Z 80
_cell_length_a 27.367537
_cell_length_b 27.911740
_cell_length_c 5.055569
_cell_angle_alpha 90.000000
_cell_angle_beta 90.000000
_cell_angle_gamma 90.000000
_cell_volume 3861.825688
_symmetry_space_group_name_H-M "I M M A"
_symmetry_group_IT_number 74
_symmetry_cell_setting 'orthorhombic'
loop_
_space_group_symop_operation_xyz
x,y,z
-x,1/2-y,z
x,-y,-z
-x,1/2+y,-z
-x,-y,-z
x,1/2+y,-z
-x,y,z
x,1/2-y,z
1/2+x,1/2+y,1/2+z
1/2-x,-y,1/2+z
1/2+x,1/2-y,1/2-z
1/2-x,y,1/2-z
1/2-x,1/2-y,1/2-z
1/2+x,y,1/2-z
1/2-x,1/2+y,1/2+z
1/2+x,-y,1/2+z
loop_
_atom_site_type_symbol
_atom_site_label
_atom_site_fract_x
_atom_site_fract_y
_atom_site_fract_z
Si Si1 0.153930 0.350083 0.084110
Si Si2 0.714165 0.554417 0.500191
Si Si3 0.943552 0.551567 0.497439
Si Si4 0.555761 0.887664 0.489665
Si Si5 0.700615 0.194064 0.895200
O O1 0.174646 0.403202 0.015261
O O2 0.095743 0.352551 0.112873
O O3 0.183490 0.332563 0.341170
O O4 0.162609 0.315094 0.838008
O O5 0.693278 0.500000 0.500000
O O6 0.750000 0.558546 0.750000
O O7 0.750000 0.559483 0.250000
O O8 0.918343 0.500000 0.500000
O O9 0.945063 0.570040 0.794818
O O10 0.000000 0.544974 0.404130
O O11 0.925336 0.591068 0.289789
O O12 0.500000 0.869481 0.462335
O O13 0.707171 0.250000 0.958499
O O14 0.750000 0.176289 0.750000
#
# Coordination Sequence:
#
# PCOD9538840 Si02
#       5
#    16  16  16  16  16
#     4  12  22  38  63  88 119 158 195 236 296 356
#     4  10  21  36  54  81 118 156 193 232 279 346
#     4   9  17  31  50  73 108 155 205 253 291 322
#     4  10  21  35  53  81 116 157 202 246 291 342
#     4  11  24  42  66  93 116 141 185 248 310 364
#
# _framework density 20.715589000000001
#
# number of rings (size 3 to 8) (size 9 to 14) (size 15 to 20)
#    0.000    1.600    0.000    6.000    0.000    5.600 
#    0.000    2.000    0.000    3.600    0.000    0.000 
#    0.000    0.000    0.000    0.000    0.000    0.000 
#
# Total GULP energy -223239.777043 kJ/mol
# GULP energy per Si atom -5580.994426 kJ/mol
# Density = 2.066844 g / cm^3
# Si number density = 20.715589 Si / 1000 Ang^3
#
#
#
# Elastic Constant Matrix: (Units=GPa)
#
#
# Indices 1 2 3 4 5 6 
#
# 1 77.0747 25.9542 8.5207 0.0000 0.0000 0.0000
# 2 25.9542 52.9008 10.8108 0.0000 0.0000 0.0000
# 3 8.5207 10.8108 114.4466 0.0000 0.0000 0.0000
# 4 0.0000 0.0000 0.0000 163.6226 0.0000 0.0000
# 5 0.0000 0.0000 0.0000 0.0000 17.8160 0.0000
# 6 0.0000 0.0000 0.0000 0.0000 0.0000 42.0044
#
#
#
# Elastic Compliance Matrix: (Units=1/GPa)
#
#
# Indices 1 2 3 4 5 6 
#
# 1 0.015564 -0.007545 -0.000446 0.000000 0.000000 0.000000
# 2 -0.007545 0.022933 -0.001605 0.000000 0.000000 0.000000
# 3 -0.000446 -0.001605 0.008922 0.000000 0.000000 0.000000
# 4 0.000000 0.000000 0.000000 0.006112 0.000000 0.000000
# 5 0.000000 0.000000 0.000000 0.000000 0.056129 0.000000
# 6 0.000000 0.000000 0.000000 0.000000 0.000000 0.023807
#
#
# Mechanical properties :
#
#
# Convention : Reuss Voigt Hill
#
# Bulk Modulus (GPa) = 35.42517 37.22151 36.32334
# Shear Modulus (GPa) = 30.85107 57.96436 44.40772
#
# Velocity S-wave (km/s) = 3.86329 5.29545 4.63502
# Velocity P-wave (km/s) = 6.08587 7.44284 6.79830
#
# Compressibility (1/GPa) = 0.02822851
#
# Stress axis : x y z
#
# Youngs Moduli (GPa) = 64.24884 43.60536 112.07652
#
# Poissons Ratio (x) = 0.32901 0.04999
# Poissons Ratio (y) = 0.48476 0.17983
# Poissons Ratio (z) = 0.02866 0.06997
#
# Static dielectric constant tensor:
#      x y z
#    x 1.818620 0.000000 0.000000 
#    y 0.000000 1.848810 0.000000 
#    z 0.000000 0.000000 1.731120 
# 
# From -- ./inp_files/4527.got.cif
#   From: 2010.05.17/outbox.cif.g08.bks.cpg/sg74_3_cif.got.tgz:4527.got - 2010.06.03 17:57:02.
