data_PCOD9538497
_publ_section_title
;
Structure prediction by ZEFSAII (Michael W. Deem and Ramdas Pophale) SiO2 
 PCOD9538497
Probable space group: I M M A
;
_chemical_formula_sum "Si O2"
_cell_formula_units_Z 112
_cell_length_a 23.853981
_cell_length_b 18.901064
_cell_length_c 10.708676
_cell_angle_alpha 90.000000
_cell_angle_beta 90.000000
_cell_angle_gamma 90.000000
_cell_volume 4828.173861
_symmetry_space_group_name_H-M "I M M A"
_symmetry_group_IT_number 74
_symmetry_cell_setting 'orthorhombic'
loop_
_space_group_symop_operation_xyz
x,y,z
-x,1/2-y,z
x,-y,-z
-x,1/2+y,-z
-x,-y,-z
x,1/2+y,-z
-x,y,z
x,1/2-y,z
1/2+x,1/2+y,1/2+z
1/2-x,-y,1/2+z
1/2+x,1/2-y,1/2-z
1/2-x,y,1/2-z
1/2-x,1/2-y,1/2-z
1/2+x,y,1/2-z
1/2-x,1/2+y,1/2+z
1/2+x,-y,1/2+z
loop_
_atom_site_type_symbol
_atom_site_label
_atom_site_fract_x
_atom_site_fract_y
_atom_site_fract_z
Si Si1 0.654414 0.570539 0.300019
Si Si2 0.433142 0.169984 0.018486
Si Si3 0.720014 0.827929 0.618886
Si Si4 0.102177 0.663564 0.793673
Si Si5 0.769538 0.932530 0.430323
Si Si6 0.935553 0.535236 0.364970
Si Si7 0.437687 0.665090 0.439342
O O1 0.707350 0.545093 0.381649
O O2 0.690268 0.594626 0.178760
O O3 0.609057 0.516499 0.241269
O O4 0.614622 0.625389 0.374284
O O5 0.500000 0.173519 0.037361
O O6 0.412190 0.250000 0.995778
O O7 0.410643 0.141660 0.151891
O O8 0.425578 0.117882 0.901918
O O9 0.708937 0.750000 0.564681
O O10 0.750000 0.820907 0.750000
O O11 0.661465 0.862803 0.654697
O O12 0.758359 0.871303 0.527534
O O13 0.104881 0.750000 0.783475
O O14 0.062495 0.649120 0.911603
O O15 0.795065 0.000000 0.500000
O O16 0.928597 0.500000 0.500000
O O17 0.000000 0.523222 0.327057
O O18 0.500000 0.645909 0.389263
O O19 0.431072 0.750000 0.425151
#
# Coordination Sequence:
#
# PCOD9538497 Si02
#       7
#    16  16  16  16  16  16  16
#     4  11  24  42  62  90 121 166 214 259 324 387
#     4   9  18  33  56  87 118 153 202 251 296 360
#     4  10  22  39  62  91 122 161 211 271 329 383
#     4   9  17  33  57  89 125 162 205 258 317 368
#     4  11  26  44  65  91 123 166 219 274 333 398
#     4  10  22  40  61  86 122 162 201 252 317 383
#     4  10  20  37  64  97 135 175 213 264 326 392
#
# _framework density 23.197175999999999
#
# number of rings (size 3 to 8) (size 9 to 14) (size 15 to 20)
#    0.000    2.000    1.429    1.286    4.000    4.000 
#    0.000    2.857    0.000    0.857    0.000    0.000 
#    0.000    0.000    0.000    0.000    0.000    0.000 
#
# Total GULP energy -312520.879402 kJ/mol
# GULP energy per Si atom -5580.729989 kJ/mol
# Density = 2.314438 g / cm^3
# Si number density = 23.197176 Si / 1000 Ang^3
#
#
#
# Elastic Constant Matrix: (Units=GPa)
#
#
# Indices 1 2 3 4 5 6 
#
# 1 132.4391 6.5061 26.0667 0.0000 0.0000 0.0000
# 2 6.5061 31.3459 0.4048 0.0000 0.0000 0.0000
# 3 26.0667 0.4048 68.7113 0.0000 0.0000 0.0000
# 4 0.0000 0.0000 0.0000 31.0211 0.0000 0.0000
# 5 0.0000 0.0000 0.0000 0.0000 39.9000 0.0000
# 6 0.0000 0.0000 0.0000 0.0000 0.0000 10.6562
#
#
#
# Elastic Compliance Matrix: (Units=1/GPa)
#
#
# Indices 1 2 3 4 5 6 
#
# 1 0.008247 -0.001671 -0.003119 0.000000 0.000000 0.000000
# 2 -0.001671 0.032243 0.000444 0.000000 0.000000 0.000000
# 3 -0.003119 0.000444 0.015734 0.000000 0.000000 0.000000
# 4 0.000000 0.000000 0.000000 0.032236 0.000000 0.000000
# 5 0.000000 0.000000 0.000000 0.000000 0.025063 0.000000
# 6 0.000000 0.000000 0.000000 0.000000 0.000000 0.093842
#
#
# Mechanical properties :
#
#
# Convention : Reuss Voigt Hill
#
# Bulk Modulus (GPa) = 21.03839 33.16129 27.09984
# Shear Modulus (GPa) = 21.56096 29.61670 25.58883
#
# Velocity S-wave (km/s) = 3.05202 3.57702 3.32490
# Velocity P-wave (km/s) = 4.63776 5.60237 5.14273
#
# Compressibility (1/GPa) = 0.04753216
#
# Stress axis : x y z
#
# Youngs Moduli (GPa) = 121.26275 31.01424 63.55610
#
# Poissons Ratio (x) = 0.05184 0.19821
# Poissons Ratio (y) = 0.20268 -0.02823
# Poissons Ratio (z) = 0.37817 -0.01377
#
# Static dielectric constant tensor:
#      x y z
#    x 1.641470 0.000000 0.000000 
#    y 0.000000 1.924590 0.000000 
#    z 0.000000 0.000000 1.904170 
# 
# From -- ./inp_files/25401.got.cif
#   From: 2010.05.17/outbox.cif.g08.bks.cpg/sg74_13_cif.got.tgz:25401.got - 2010.06.03 17:57:02.
