data_PCOD9538835
_publ_section_title
;
Structure prediction by ZEFSAII (Michael W. Deem and Ramdas Pophale) SiO2 
 PCOD9538835
Probable space group: I M M A
;
_chemical_formula_sum "Si O2"
_cell_formula_units_Z 112
_cell_length_a 12.980934
_cell_length_b 14.910936
_cell_length_c 31.437256
_cell_angle_alpha 90.000000
_cell_angle_beta 90.000000
_cell_angle_gamma 90.000000
_cell_volume 6084.928502
_symmetry_space_group_name_H-M "I M M A"
_symmetry_group_IT_number 74
_symmetry_cell_setting 'orthorhombic'
loop_
_space_group_symop_operation_xyz
x,y,z
-x,1/2-y,z
x,-y,-z
-x,1/2+y,-z
-x,-y,-z
x,1/2+y,-z
-x,y,z
x,1/2-y,z
1/2+x,1/2+y,1/2+z
1/2-x,-y,1/2+z
1/2+x,1/2-y,1/2-z
1/2-x,y,1/2-z
1/2-x,1/2-y,1/2-z
1/2+x,y,1/2-z
1/2-x,1/2+y,1/2+z
1/2+x,-y,1/2+z
loop_
_atom_site_type_symbol
_atom_site_label
_atom_site_fract_x
_atom_site_fract_y
_atom_site_fract_z
Si Si1 0.274374 0.146674 0.431794
Si Si2 0.379610 0.000690 0.621339
Si Si3 0.117258 0.359142 0.503822
Si Si4 0.709936 0.354837 0.905465
Si Si5 0.116853 0.146456 0.685742
Si Si6 0.616041 0.650307 0.854091
Si Si7 0.258944 0.979274 0.797794
O O1 0.309515 0.250000 0.439060
O O2 0.359263 0.080572 0.412028
O O3 0.209414 0.112400 0.472350
O O4 0.189372 0.148633 0.394539
O O5 0.500000 0.022591 0.623122
O O6 0.306729 0.081717 0.604986
O O7 0.336404 0.976030 0.668829
O O8 0.114870 0.250000 0.500536
O O9 0.150781 0.382042 0.551739
O O10 0.000000 0.389672 0.494198
O O11 0.740688 0.250000 0.909695
O O12 0.634103 0.360867 0.865086
O O13 0.133038 0.250000 0.697435
O O14 0.200109 0.080548 0.705265
O O15 0.000000 0.121360 0.696841
O O16 0.500000 0.635278 0.868226
O O17 0.623466 0.750000 0.834864
O O18 0.652683 0.576404 0.821492
O O19 0.250000 0.944079 0.750000
#
# Coordination Sequence:
#
# PCOD9538835 Si02
#       7
#    16  16  16  16  16  16  16
#     4   9  18  33  52  76 105 134 167 207 249 296
#     4  10  22  38  53  70  97 138 180 211 246 294
#     4   9  16  29  53  82 109 135 164 206 260 308
#     4   9  18  33  52  76 105 134 167 207 249 296
#     4   9  17  31  52  76 102 130 156 190 247 313
#     4   9  17  31  52  76 102 130 156 190 247 313
#     4  10  21  35  53  75  99 125 162 212 256 298
#
# _framework density 18.406131999999999
#
# number of rings (size 3 to 8) (size 9 to 14) (size 15 to 20)
#    0.000    2.714    0.000    1.286    0.000    6.286 
#    0.000    4.286    0.000    2.571    0.000    0.000 
#    0.000    0.000    0.000    0.000    0.000    0.000 
#
# Total GULP energy -312043.813721 kJ/mol
# GULP energy per Si atom -5572.210959 kJ/mol
# Density = 1.836424 g / cm^3
# Si number density = 18.406132 Si / 1000 Ang^3
#
#
#
# Elastic Constant Matrix: (Units=GPa)
#
#
# Indices 1 2 3 4 5 6 
#
# 1 65.0986 7.4649 -6.5362 0.0000 0.0000 0.0000
# 2 7.4649 33.2999 3.3480 0.0000 0.0000 0.0000
# 3 -6.5362 3.3480 54.8976 0.0000 0.0000 0.0000
# 4 0.0000 0.0000 0.0000 163.1756 0.0000 0.0000
# 5 0.0000 0.0000 0.0000 0.0000 3.4660 0.0000
# 6 0.0000 0.0000 0.0000 0.0000 0.0000 -2.7014
#
#
#
# Elastic Compliance Matrix: (Units=1/GPa)
#
#
# Indices 1 2 3 4 5 6 
#
# 1 0.016012 -0.003804 0.002138 0.000000 0.000000 0.000000
# 2 -0.003804 0.031119 -0.002351 0.000000 0.000000 0.000000
# 3 0.002138 -0.002351 0.018614 0.000000 0.000000 0.000000
# 4 0.000000 0.000000 0.000000 0.006128 0.000000 0.000000
# 5 0.000000 0.000000 0.000000 0.000000 0.288515 0.000000
# 6 0.000000 0.000000 0.000000 0.000000 0.000000 -0.370183
#
#
# Mechanical properties :
#
#
# Convention : Reuss Voigt Hill
#
# Bulk Modulus (GPa) = 17.32752 17.98326 17.65539
# Shear Modulus (GPa) = 286.09455 42.72269 164.40862
#
# Velocity S-wave (km/s) = 12.48086 4.82302 9.46132
# Velocity P-wave (km/s) = 14.73534 6.38802 11.35643
#
# Compressibility (1/GPa) = 0.05771166
#
# Stress axis : x y z
#
# Youngs Moduli (GPa) = 62.45202 32.13440 53.72382
#
# Poissons Ratio (x) = 0.12226 -0.11489
# Poissons Ratio (y) = 0.23760 0.12629
# Poissons Ratio (z) = -0.13355 0.07554
#
# Static dielectric constant tensor:
#      x y z
#    x 1.594710 0.000000 0.000000 
#    y 0.000000 1.698620 0.000000 
#    z 0.000000 0.000000 1.637380 
# 
# From -- ./inp_files/71864.got.cif
#   From: 2010.05.17/outbox.cif.g08.bks.cpg/sg74_36_cif.got.tgz:71864.got - 2010.06.03 17:57:02.
