data_PCOD9538829
_publ_section_title
;
Structure prediction by ZEFSAII (Michael W. Deem and Ramdas Pophale) SiO2 
 PCOD9538829
Probable space group: I M M A
;
_chemical_formula_sum "Si O2"
_cell_formula_units_Z 56
_cell_length_a 14.513335
_cell_length_b 9.602818
_cell_length_c 19.667552
_cell_angle_alpha 90.000000
_cell_angle_beta 90.000000
_cell_angle_gamma 90.000000
_cell_volume 2741.045375
_symmetry_space_group_name_H-M "I M M A"
_symmetry_group_IT_number 74
_symmetry_cell_setting 'orthorhombic'
loop_
_space_group_symop_operation_xyz
x,y,z
-x,1/2-y,z
x,-y,-z
-x,1/2+y,-z
-x,-y,-z
x,1/2+y,-z
-x,y,z
x,1/2-y,z
1/2+x,1/2+y,1/2+z
1/2-x,-y,1/2+z
1/2+x,1/2-y,1/2-z
1/2-x,y,1/2-z
1/2-x,1/2-y,1/2-z
1/2+x,y,1/2-z
1/2-x,1/2+y,1/2+z
1/2+x,-y,1/2+z
loop_
_atom_site_type_symbol
_atom_site_label
_atom_site_fract_x
_atom_site_fract_y
_atom_site_fract_z
Si Si1 0.137025 0.410036 0.165241
Si Si2 0.641393 0.907849 0.823014
Si Si3 0.500000 0.920200 0.427116
Si Si4 0.106318 0.598654 0.444590
O O1 0.111984 0.250000 0.146399
O O2 0.248000 0.416636 0.167123
O O3 0.113237 0.430169 0.244960
O O4 0.087092 0.519843 0.116511
O O5 0.614008 0.750000 0.842227
O O6 0.603832 0.022488 0.873116
O O7 0.500000 0.750000 0.432574
O O8 0.500000 0.000000 0.500000
O O9 0.153271 0.500000 0.500000
O O10 0.150304 0.750000 0.441026
O O11 0.000000 0.616232 0.466071
#
# Coordination Sequence:
#
# PCOD9538829 Si02
#       4
#    16  16   8  16
#     4   9  20  40  62  87 116 149 192 238 287 347
#     4   9  19  37  62  87 114 151 192 235 288 346
#     4  12  26  42  62  88 119 158 201 246 298 352
#     4  10  21  35  52  79 115 151 190 232 279 335
#
# _framework density 20.430161999999999
#
# number of rings (size 3 to 8) (size 9 to 14) (size 15 to 20)
#    0.000    2.286    0.000    3.857    2.000    5.143 
#    0.000    2.857    0.000    0.000    0.000    0.000 
#    0.000    0.000    0.000    0.000    0.000    0.000 
#
# Total GULP energy -156140.833341 kJ/mol
# GULP energy per Si atom -5576.458334 kJ/mol
# Density = 2.038366 g / cm^3
# Si number density = 20.430162 Si / 1000 Ang^3
#
#
#
# Elastic Constant Matrix: (Units=GPa)
#
#
# Indices 1 2 3 4 5 6 
#
# 1 68.6098 27.5501 16.6650 0.0000 0.0000 0.0000
# 2 27.5501 205.2112 103.4159 0.0000 0.0000 0.0000
# 3 16.6650 103.4159 98.7704 0.0000 0.0000 0.0000
# 4 0.0000 0.0000 0.0000 25.1193 0.0000 0.0000
# 5 0.0000 0.0000 0.0000 0.0000 31.4613 0.0000
# 6 0.0000 0.0000 0.0000 0.0000 0.0000 30.4577
#
#
#
# Elastic Compliance Matrix: (Units=1/GPa)
#
#
# Indices 1 2 3 4 5 6 
#
# 1 0.015445 -0.001610 -0.000921 0.000000 0.000000 0.000000
# 2 -0.001610 0.010484 -0.010706 0.000000 0.000000 0.000000
# 3 -0.000921 -0.010706 0.021489 0.000000 0.000000 0.000000
# 4 0.000000 0.000000 0.000000 0.039810 0.000000 0.000000
# 5 0.000000 0.000000 0.000000 0.000000 0.031785 0.000000
# 6 0.000000 0.000000 0.000000 0.000000 0.000000 0.032832
#
#
# Mechanical properties :
#
#
# Convention : Reuss Voigt Hill
#
# Bulk Modulus (GPa) = 47.74090 74.20594 60.97342
# Shear Modulus (GPa) = 26.98319 32.40502 29.69410
#
# Velocity S-wave (km/s) = 3.63816 3.98695 3.81654
# Velocity P-wave (km/s) = 6.40834 7.58914 7.02360
#
# Compressibility (1/GPa) = 0.02094640
#
# Stress axis : x y z
#
# Youngs Moduli (GPa) = 64.74537 95.38069 46.53499
#
# Poissons Ratio (x) = 0.15352 0.04285
# Poissons Ratio (y) = 0.10421 0.49820
# Poissons Ratio (z) = 0.05961 1.02113
#
# Static dielectric constant tensor:
#      x y z
#    x 1.811020 0.000000 0.000000 
#    y 0.000000 1.768410 0.000000 
#    z 0.000000 0.000000 1.708730 
# 
# From -- ./inp_files/43504.got.cif
#   From: 2010.05.17/outbox.cif.g08.bks.cpg/sg74_22_cif.got.tgz:43504.got - 2010.06.03 17:57:02.
