data_PCOD9538721
_publ_section_title
;
Structure prediction by ZEFSAII (Michael W. Deem and Ramdas Pophale) SiO2 
 PCOD9538721
Probable space group: I M M A
;
_chemical_formula_sum "Si O2"
_cell_formula_units_Z 96
_cell_length_a 21.058973
_cell_length_b 26.583826
_cell_length_c 9.030980
_cell_angle_alpha 90.000000
_cell_angle_beta 90.000000
_cell_angle_gamma 90.000000
_cell_volume 5055.796139
_symmetry_space_group_name_H-M "I M M A"
_symmetry_group_IT_number 74
_symmetry_cell_setting 'orthorhombic'
loop_
_space_group_symop_operation_xyz
x,y,z
-x,1/2-y,z
x,-y,-z
-x,1/2+y,-z
-x,-y,-z
x,1/2+y,-z
-x,y,z
x,1/2-y,z
1/2+x,1/2+y,1/2+z
1/2-x,-y,1/2+z
1/2+x,1/2-y,1/2-z
1/2-x,y,1/2-z
1/2-x,1/2-y,1/2-z
1/2+x,y,1/2-z
1/2-x,1/2+y,1/2+z
1/2+x,-y,1/2+z
loop_
_atom_site_type_symbol
_atom_site_label
_atom_site_fract_x
_atom_site_fract_y
_atom_site_fract_z
Si Si1 0.140622 0.750000 0.709031
Si Si2 0.395106 0.577493 0.600657
Si Si3 0.925847 0.470491 0.790535
Si Si4 0.429018 0.149360 0.139945
Si Si5 0.293805 0.862546 0.429590
Si Si6 0.738076 0.250000 0.482280
Si Si7 0.155813 0.106493 0.622683
O O1 0.097163 0.798770 0.704767
O O2 0.189337 0.750000 0.571578
O O3 0.187898 0.750000 0.847593
O O4 0.389259 0.522027 0.670935
O O5 0.425831 0.563463 0.441104
O O6 0.429876 0.609516 0.726134
O O7 0.334589 0.611973 0.559618
O O8 0.885471 0.442223 0.665532
O O9 0.000000 0.480041 0.752586
O O10 0.500000 0.154936 0.079637
O O11 0.381674 0.133049 0.009220
O O12 0.274046 0.804296 0.444278
O O13 0.229980 0.896418 0.421005
O O14 0.335671 0.865420 0.280354
#
# Coordination Sequence:
#
# PCOD9538721 Si02
#       7
#     8  16  16  16  16   8  16
#     4  11  23  37  63  95 117 157 198 258 310 359
#     4  10  21  38  64  89 117 165 209 253 301 357
#     4  10  20  41  64  88 121 165 212 243 297 377
#     4  12  23  39  60  91 127 157 197 252 312 369
#     4  10  21  41  64  88 120 156 215 254 303 365
#     4  11  20  40  70  88 115 162 211 252 300 377
#     4  10  23  38  59  93 122 160 200 255 311 359
#
# _framework density 18.988106999999999
#
# number of rings (size 3 to 8) (size 9 to 14) (size 15 to 20)
#    0.000    1.500    3.333    2.750    0.000    3.333 
#    0.000   15.000    0.000    0.000    0.000    0.000 
#    0.000    0.000    0.000    0.000    0.000    0.000 
#
# Total GULP energy -267315.970479 kJ/mol
# GULP energy per Si atom -5569.082718 kJ/mol
# Density = 1.894489 g / cm^3
# Si number density = 18.988107 Si / 1000 Ang^3
#
#
#
# Elastic Constant Matrix: (Units=GPa)
#
#
# Indices 1 2 3 4 5 6 
#
# 1 77.5427 30.1096 32.7766 0.0000 0.0000 0.0000
# 2 30.1096 98.7090 29.0397 0.0000 0.0000 0.0000
# 3 32.7766 29.0397 50.7267 0.0000 0.0000 0.0000
# 4 0.0000 0.0000 0.0000 23.2258 0.0000 0.0000
# 5 0.0000 0.0000 0.0000 0.0000 20.5566 0.0000
# 6 0.0000 0.0000 0.0000 0.0000 0.0000 12.0181
#
#
#
# Elastic Compliance Matrix: (Units=1/GPa)
#
#
# Indices 1 2 3 4 5 6 
#
# 1 0.018249 -0.002522 -0.010348 0.000000 0.000000 0.000000
# 2 -0.002522 0.012531 -0.005544 0.000000 0.000000 0.000000
# 3 -0.010348 -0.005544 0.029573 0.000000 0.000000 0.000000
# 4 0.000000 0.000000 0.000000 0.043056 0.000000 0.000000
# 5 0.000000 0.000000 0.000000 0.000000 0.048646 0.000000
# 6 0.000000 0.000000 0.000000 0.000000 0.000000 0.083208
#
#
# Mechanical properties :
#
#
# Convention : Reuss Voigt Hill
#
# Bulk Modulus (GPa) = 42.50643 45.64778 44.07710
# Shear Modulus (GPa) = 17.86139 20.16361 19.01250
#
# Velocity S-wave (km/s) = 3.07035 3.26223 3.16774
# Velocity P-wave (km/s) = 5.91640 6.18724 6.05333
#
# Compressibility (1/GPa) = 0.02352585
#
# Stress axis : x y z
#
# Youngs Moduli (GPa) = 54.79621 79.80073 33.81430
#
# Poissons Ratio (x) = 0.20129 0.34990
# Poissons Ratio (y) = 0.13822 0.18746
# Poissons Ratio (z) = 0.56701 0.44241
#
# Static dielectric constant tensor:
#      x y z
#    x 1.640850 0.000000 0.000000 
#    y 0.000000 1.652090 0.000000 
#    z 0.000000 0.000000 1.681290 
# 
# From -- ./inp_files/13950.got.cif
#   From: 2010.05.17/outbox.cif.g08.bks.cpg/sg74_7_cif.got.tgz:13950.got - 2010.06.03 17:57:02.
