data_PCOD9538912
_publ_section_title
;
Structure prediction by ZEFSAII (Michael W. Deem and Ramdas Pophale) SiO2 
 PCOD9538912
Probable space group: I M M A
;
_chemical_formula_sum "Si O2"
_cell_formula_units_Z 112
_cell_length_a 25.174304
_cell_length_b 14.580912
_cell_length_c 15.008843
_cell_angle_alpha 90.000000
_cell_angle_beta 90.000000
_cell_angle_gamma 90.000000
_cell_volume 5509.210619
_symmetry_space_group_name_H-M "I M M A"
_symmetry_group_IT_number 74
_symmetry_cell_setting 'orthorhombic'
loop_
_space_group_symop_operation_xyz
x,y,z
-x,1/2-y,z
x,-y,-z
-x,1/2+y,-z
-x,-y,-z
x,1/2+y,-z
-x,y,z
x,1/2-y,z
1/2+x,1/2+y,1/2+z
1/2-x,-y,1/2+z
1/2+x,1/2-y,1/2-z
1/2-x,y,1/2-z
1/2-x,1/2-y,1/2-z
1/2+x,y,1/2-z
1/2-x,1/2+y,1/2+z
1/2+x,-y,1/2+z
loop_
_atom_site_type_symbol
_atom_site_label
_atom_site_fract_x
_atom_site_fract_y
_atom_site_fract_z
Si Si1 0.558655 0.641030 0.264463
Si Si2 0.238290 0.851869 0.355133
Si Si3 0.632048 0.358513 0.060633
Si Si4 0.757338 0.144347 0.348427
Si Si5 0.131777 0.550059 0.373884
Si Si6 0.174438 0.109689 0.003721
Si Si7 0.057658 0.893170 0.025690
O O1 0.500000 0.614791 0.229094
O O2 0.563969 0.750000 0.256429
O O3 0.605588 0.593525 0.212161
O O4 0.559800 0.616302 0.367973
O O5 0.214967 0.750000 0.376406
O O6 0.250000 0.852858 0.250000
O O7 0.195258 0.931424 0.371273
O O8 0.290031 0.861276 0.418070
O O9 0.619652 0.250000 0.075277
O O10 0.694653 0.374857 0.082363
O O11 0.611727 0.444887 0.119524
O O12 0.616701 0.390781 0.961509
O O13 0.769271 0.250000 0.329094
O O14 0.750000 0.099261 0.250000
O O15 0.704641 0.135370 0.406170
O O16 0.114160 0.145148 0.005756
O O17 0.172520 0.000000 0.000000
O O18 0.000000 0.855134 0.996178
O O19 0.057127 0.000000 0.000000
#
# Coordination Sequence:
#
# PCOD9538912 Si02
#       7
#    16  16  16  16  16  16  16
#     4  10  21  38  62  92 124 161 209 261 318 383
#     4  11  22  34  53  85 123 157 195 251 316 375
#     4  10  21  37  56  82 119 162 206 255 313 377
#     4  10  21  36  53  76 114 159 202 244 294 362
#     4  11  21  36  60  86 119 162 204 253 319 382
#     4  11  21  33  53  82 115 153 201 252 303 367
#     4   9  20  38  58  82 118 162 205 253 307 364
#
# _framework density 20.329592000000002
#
# number of rings (size 3 to 8) (size 9 to 14) (size 15 to 20)
#    0.000    1.714    1.429    3.429    0.000    6.857 
#    0.000    1.429    0.000    2.143    0.000    3.000 
#    0.000    3.429    0.000    0.000    0.000    0.000 
#
# Total GULP energy -311901.739174 kJ/mol
# GULP energy per Si atom -5569.673914 kJ/mol
# Density = 2.028332 g / cm^3
# Si number density = 20.329592 Si / 1000 Ang^3
#
#
#
# Elastic Constant Matrix: (Units=GPa)
#
#
# Indices 1 2 3 4 5 6 
#
# 1 69.0265 -5.8516 23.2052 0.0000 0.0000 0.0000
# 2 -5.8516 117.1709 -7.2867 0.0000 0.0000 0.0000
# 3 23.2052 -7.2867 57.9927 0.0000 0.0000 0.0000
# 4 0.0000 0.0000 0.0000 27.4926 0.0000 0.0000
# 5 0.0000 0.0000 0.0000 0.0000 23.8330 0.0000
# 6 0.0000 0.0000 0.0000 0.0000 0.0000 12.0129
#
#
#
# Elastic Compliance Matrix: (Units=1/GPa)
#
#
# Indices 1 2 3 4 5 6 
#
# 1 0.016760 0.000423 -0.006653 0.000000 0.000000 0.000000
# 2 0.000423 0.008612 0.000913 0.000000 0.000000 0.000000
# 3 -0.006653 0.000913 0.020020 0.000000 0.000000 0.000000
# 4 0.000000 0.000000 0.000000 0.036373 0.000000 0.000000
# 5 0.000000 0.000000 0.000000 0.000000 0.041959 0.000000
# 6 0.000000 0.000000 0.000000 0.000000 0.000000 0.083244
#
#
# Mechanical properties :
#
#
# Convention : Reuss Voigt Hill
#
# Bulk Modulus (GPa) = 28.76995 29.36932 29.06964
# Shear Modulus (GPa) = 21.81609 28.27592 25.04600
#
# Velocity S-wave (km/s) = 3.27940 3.73349 3.51379
# Velocity P-wave (km/s) = 5.34058 5.75006 5.54910
#
# Compressibility (1/GPa) = 0.03475849
#
# Stress axis : x y z
#
# Youngs Moduli (GPa) = 59.66702 116.11103 49.94915
#
# Poissons Ratio (x) = -0.04914 0.33231
# Poissons Ratio (y) = -0.02525 -0.04559
# Poissons Ratio (z) = 0.39697 -0.10598
#
# Static dielectric constant tensor:
#      x y z
#    x 1.767670 0.000000 0.000000 
#    y 0.000000 1.813670 0.000000 
#    z 0.000000 0.000000 1.712700 
# 
# From -- ./inp_files/36563.got.cif
#   From: 2010.05.17/outbox.cif.g08.bks.cpg/sg74_19_cif.got.tgz:36563.got - 2010.06.03 17:57:02.
