data_PCOD9538081
_publ_section_title
;
Structure prediction by ZEFSAII (Michael W. Deem and Ramdas Pophale) SiO2 
 PCOD9538081
Probable space group: I M M A
;
_chemical_formula_sum "Si O2"
_cell_formula_units_Z 112
_cell_length_a 24.005345
_cell_length_b 15.673948
_cell_length_c 12.712464
_cell_angle_alpha 90.000000
_cell_angle_beta 90.000000
_cell_angle_gamma 90.000000
_cell_volume 4783.173008
_symmetry_space_group_name_H-M "I M M A"
_symmetry_group_IT_number 74
_symmetry_cell_setting 'orthorhombic'
loop_
_space_group_symop_operation_xyz
x,y,z
-x,1/2-y,z
x,-y,-z
-x,1/2+y,-z
-x,-y,-z
x,1/2+y,-z
-x,y,z
x,1/2-y,z
1/2+x,1/2+y,1/2+z
1/2-x,-y,1/2+z
1/2+x,1/2-y,1/2-z
1/2-x,y,1/2-z
1/2-x,1/2-y,1/2-z
1/2+x,y,1/2-z
1/2-x,1/2+y,1/2+z
1/2+x,-y,1/2+z
loop_
_atom_site_type_symbol
_atom_site_label
_atom_site_fract_x
_atom_site_fract_y
_atom_site_fract_z
Si Si1 0.903073 0.607360 0.082818
Si Si2 0.776091 0.846310 0.066230
Si Si3 0.059464 0.653861 0.299001
Si Si4 0.085872 0.581786 0.851670
Si Si5 0.299461 0.845747 0.677053
Si Si6 0.061057 0.647184 0.623550
Si Si7 0.847758 0.854853 0.451131
O O1 0.835317 0.609499 0.091211
O O2 0.928138 0.661366 0.176292
O O3 0.925720 0.514097 0.113773
O O4 0.919898 0.631880 0.963432
O O5 0.778622 0.750000 0.113167
O O6 0.714544 0.885748 0.079503
O O7 0.777877 0.838131 0.940490
O O8 0.056176 0.750000 0.343156
O O9 0.111415 0.614604 0.358331
O O10 0.000000 0.610775 0.315538
O O11 0.150676 0.589723 0.824632
O O12 0.059971 0.613574 0.743542
O O13 0.318384 0.750000 0.711157
O O14 0.250000 0.873324 0.750000
O O15 0.063383 0.750000 0.627437
O O16 0.116228 0.621181 0.555979
O O17 0.000000 0.624468 0.575178
O O18 0.841716 0.750000 0.454447
#
# Coordination Sequence:
#
# PCOD9538081 Si02
#       7
#    16  16  16  16  16  16  16
#     4  10  22  38  54  79 115 156 200 237 286 344
#     4   9  17  31  55  83 111 146 187 237 288 344
#     4  10  21  38  60  83 110 148 194 242 288 342
#     4  10  21  37  54  78 114 155 188 233 289 339
#     4   9  16  29  52  80 109 142 181 225 278 342
#     4  10  20  35  60  92 120 148 191 244 293 348
#     4   9  18  35  60  88 116 146 184 235 301 356
#
# _framework density 23.415419
#
# number of rings (size 3 to 8) (size 9 to 14) (size 15 to 20)
#    0.000    2.429    0.000    2.143    0.000    7.429 
#    2.571    5.714    3.143    1.714    0.000    0.000 
#    0.000    0.000    0.000    0.000    0.000    0.000 
#
# Total GULP energy -312024.352661 kJ/mol
# GULP energy per Si atom -5571.863440 kJ/mol
# Density = 2.336212 g / cm^3
# Si number density = 23.415419 Si / 1000 Ang^3
#
#
#
# Elastic Constant Matrix: (Units=GPa)
#
#
# Indices 1 2 3 4 5 6 
#
# 1 99.4370 -0.6227 15.5960 0.0000 0.0000 0.0000
# 2 -0.6227 12.3288 10.8309 0.0000 0.0000 0.0000
# 3 15.5960 10.8309 88.1682 0.0000 0.0000 0.0000
# 4 0.0000 0.0000 0.0000 5.3744 0.0000 0.0000
# 5 0.0000 0.0000 0.0000 0.0000 12.9375 0.0000
# 6 0.0000 0.0000 0.0000 0.0000 0.0000 36.3298
#
#
#
# Elastic Compliance Matrix: (Units=1/GPa)
#
#
# Indices 1 2 3 4 5 6 
#
# 1 0.010407 0.002402 -0.002136 0.000000 0.000000 0.000000
# 2 0.002402 0.091478 -0.011662 0.000000 0.000000 0.000000
# 3 -0.002136 -0.011662 0.013152 0.000000 0.000000 0.000000
# 4 0.000000 0.000000 0.000000 0.186067 0.000000 0.000000
# 5 0.000000 0.000000 0.000000 0.000000 0.077295 0.000000
# 6 0.000000 0.000000 0.000000 0.000000 0.000000 0.027526
#
#
# Mechanical properties :
#
#
# Convention : Reuss Voigt Hill
#
# Bulk Modulus (GPa) = 10.84080 27.94917 19.39499
# Shear Modulus (GPa) = 10.88222 22.53698 16.70960
#
# Velocity S-wave (km/s) = 2.15814 3.10576 2.67426
# Velocity P-wave (km/s) = 3.29392 4.98228 4.22333
#
# Compressibility (1/GPa) = 0.09224411
#
# Stress axis : x y z
#
# Youngs Moduli (GPa) = 96.09232 10.93164 76.03163
#
# Poissons Ratio (x) = -0.02626 0.16240
# Poissons Ratio (y) = -0.23081 0.88671
# Poissons Ratio (z) = 0.20524 0.12749
#
# Static dielectric constant tensor:
#      x y z
#    x 2.028870 0.000000 0.000000 
#    y 0.000000 1.998690 0.000000 
#    z 0.000000 0.000000 1.901250 
# 
# From -- ./inp_files/25409.got.cif
#   From: 2010.05.17/outbox.cif.g08.bks.cpg/sg74_13_cif.got.tgz:25409.got - 2010.06.03 17:57:02.
