data_PCOD9538787
_publ_section_title
;
Structure prediction by ZEFSAII (Michael W. Deem and Ramdas Pophale) SiO2 
 PCOD9538787
Probable space group: I M M A
;
_chemical_formula_sum "Si O2"
_cell_formula_units_Z 112
_cell_length_a 27.446196
_cell_length_b 14.802361
_cell_length_c 16.117793
_cell_angle_alpha 90.000000
_cell_angle_beta 90.000000
_cell_angle_gamma 90.000000
_cell_volume 6548.151606
_symmetry_space_group_name_H-M "I M M A"
_symmetry_group_IT_number 74
_symmetry_cell_setting 'orthorhombic'
loop_
_space_group_symop_operation_xyz
x,y,z
-x,1/2-y,z
x,-y,-z
-x,1/2+y,-z
-x,-y,-z
x,1/2+y,-z
-x,y,z
x,1/2-y,z
1/2+x,1/2+y,1/2+z
1/2-x,-y,1/2+z
1/2+x,1/2-y,1/2-z
1/2-x,y,1/2-z
1/2-x,1/2-y,1/2-z
1/2+x,y,1/2-z
1/2-x,1/2+y,1/2+z
1/2+x,-y,1/2+z
loop_
_atom_site_type_symbol
_atom_site_label
_atom_site_fract_x
_atom_site_fract_y
_atom_site_fract_z
Si Si1 0.250197 0.146498 0.849372
Si Si2 0.279766 0.349886 0.113422
Si Si3 0.659148 0.601646 0.036746
Si Si4 0.651331 0.640368 0.734236
Si Si5 0.447239 0.645527 0.820349
Si Si6 0.190678 0.519951 0.910101
Si Si7 0.553227 0.892202 0.013036
O O1 0.241815 0.250000 0.877762
O O2 0.250000 0.145725 0.750000
O O3 0.301507 0.114914 0.890457
O O4 0.208872 0.076062 0.876004
O O5 0.257864 0.250000 0.124077
O O6 0.304913 0.376500 0.200048
O O7 0.239997 0.420125 0.081647
O O8 0.321070 0.345331 0.043303
O O9 0.658110 0.500000 0.000000
O O10 0.603789 0.628506 0.059184
O O11 0.650286 0.750000 0.720744
O O12 0.601206 0.609350 0.777862
O O13 0.659802 0.580187 0.653330
O O14 0.500000 0.602493 0.800774
O O15 0.449498 0.750000 0.794665
O O16 0.442133 0.644352 0.919538
O O17 0.168635 0.500000 0.000000
O O18 0.500000 0.864035 0.046864
O O19 0.551524 0.000000 0.000000
#
# Coordination Sequence:
#
# PCOD9538787 Si02
#       7
#    16  16  16  16  16  16  16
#     4  11  23  36  50  68  95 138 184 218 250 299
#     4  11  19  32  52  76 103 136 168 211 262 311
#     4  11  19  32  51  73 104 143 176 216 261 305
#     4  10  21  34  54  81 106 134 170 213 266 321
#     4   9  17  31  51  77 107 136 167 210 268 328
#     4  12  23  35  50  72 102 137 169 216 258 310
#     4   9  18  29  47  75 107 141 176 208 251 309
#
# _framework density 17.104064000000001
#
# number of rings (size 3 to 8) (size 9 to 14) (size 15 to 20)
#    0.000    1.571    4.286    2.143    0.000    2.286 
#    0.000    0.000    0.000    0.429    0.000    0.000 
#    0.000    0.571    0.000    0.000    0.000    0.143 
#
# Total GULP energy -312181.666035 kJ/mol
# GULP energy per Si atom -5574.672608 kJ/mol
# Density = 1.706513 g / cm^3
# Si number density = 17.104064 Si / 1000 Ang^3
#
#
#
# Elastic Constant Matrix: (Units=GPa)
#
#
# Indices 1 2 3 4 5 6 
#
# 1 77.4803 10.4695 22.1575 0.0000 0.0000 0.0000
# 2 10.4695 65.5956 14.8030 0.0000 0.0000 0.0000
# 3 22.1575 14.8030 75.0553 0.0000 0.0000 0.0000
# 4 0.0000 0.0000 0.0000 60.7287 0.0000 0.0000
# 5 0.0000 0.0000 0.0000 0.0000 30.3524 0.0000
# 6 0.0000 0.0000 0.0000 0.0000 0.0000 9.5161
#
#
#
# Elastic Compliance Matrix: (Units=1/GPa)
#
#
# Indices 1 2 3 4 5 6 
#
# 1 0.014216 -0.001383 -0.003924 0.000000 0.000000 0.000000
# 2 -0.001383 0.016090 -0.002765 0.000000 0.000000 0.000000
# 3 -0.003924 -0.002765 0.015027 0.000000 0.000000 0.000000
# 4 0.000000 0.000000 0.000000 0.016467 0.000000 0.000000
# 5 0.000000 0.000000 0.000000 0.000000 0.032946 0.000000
# 6 0.000000 0.000000 0.000000 0.000000 0.000000 0.105085
#
#
# Mechanical properties :
#
#
# Convention : Reuss Voigt Hill
#
# Bulk Modulus (GPa) = 34.26047 34.77679 34.51863
# Shear Modulus (GPa) = 22.15293 31.49953 26.82623
#
# Velocity S-wave (km/s) = 3.60277 4.29609 3.96462
# Velocity P-wave (km/s) = 6.11398 6.70709 6.41739
#
# Compressibility (1/GPa) = 0.02918816
#
# Stress axis : x y z
#
# Youngs Moduli (GPa) = 70.34554 62.15157 66.54605
#
# Poissons Ratio (x) = 0.08598 0.26111
# Poissons Ratio (y) = 0.09732 0.18399
# Poissons Ratio (z) = 0.27602 0.17184
#
# Static dielectric constant tensor:
#      x y z
#    x 1.632680 0.000000 0.000000 
#    y 0.000000 1.653740 0.000000 
#    z 0.000000 0.000000 1.570090 
# 
# From -- ./inp_files/33139.got.cif
#   From: 2010.05.17/outbox.cif.g08.bks.cpg/sg74_17_cif.got.tgz:33139.got - 2010.06.03 17:57:02.
