data_PCOD9538956
_publ_section_title
;
Structure prediction by ZEFSAII (Michael W. Deem and Ramdas Pophale) SiO2 
 PCOD9538956
Probable space group: I M M A
;
_chemical_formula_sum "Si O2"
_cell_formula_units_Z 112
_cell_length_a 13.844326
_cell_length_b 30.245102
_cell_length_c 11.551582
_cell_angle_alpha 90.000000
_cell_angle_beta 90.000000
_cell_angle_gamma 90.000000
_cell_volume 4836.913670
_symmetry_space_group_name_H-M "I M M A"
_symmetry_group_IT_number 74
_symmetry_cell_setting 'orthorhombic'
loop_
_space_group_symop_operation_xyz
x,y,z
-x,1/2-y,z
x,-y,-z
-x,1/2+y,-z
-x,-y,-z
x,1/2+y,-z
-x,y,z
x,1/2-y,z
1/2+x,1/2+y,1/2+z
1/2-x,-y,1/2+z
1/2+x,1/2-y,1/2-z
1/2-x,y,1/2-z
1/2-x,1/2-y,1/2-z
1/2+x,y,1/2-z
1/2-x,1/2+y,1/2+z
1/2+x,-y,1/2+z
loop_
_atom_site_type_symbol
_atom_site_label
_atom_site_fract_x
_atom_site_fract_y
_atom_site_fract_z
Si Si1 0.146631 0.149119 0.292162
Si Si2 0.176893 0.038793 0.085239
Si Si3 0.610562 0.198374 0.446252
Si Si4 0.185049 0.883492 0.075806
Si Si5 0.113759 0.701185 0.479604
Si Si6 0.891000 0.381959 0.669059
Si Si7 0.105034 0.550244 0.661464
O O1 0.250000 0.132629 0.250000
O O2 0.109708 0.177225 0.183058
O O3 0.155995 0.180267 0.403393
O O4 0.098703 0.103792 0.332851
O O5 0.124014 0.034634 0.207181
O O6 0.293720 0.037889 0.101311
O O7 0.148759 0.085058 0.025895
O O8 0.148460 0.000000 0.000000
O O9 0.500000 0.196591 0.489212
O O10 0.639394 0.250000 0.440751
O O11 0.672258 0.166557 0.530238
O O12 0.127466 0.888281 0.195393
O O13 0.295238 0.899221 0.103450
O O14 0.150606 0.750000 0.455904
O O15 0.117874 0.669296 0.369156
O O16 0.000000 0.703623 0.507971
O O17 0.000000 0.396824 0.636861
O O18 0.000000 0.533866 0.619479
#
# Coordination Sequence:
#
# PCOD9538956 Si02
#       7
#    16  16  16  16  16  16  16
#     4  12  21  36  60  94 132 177 226 278 341 401
#     4  11  25  46  69 101 137 173 225 286 344 413
#     4  11  23  38  62  97 134 175 225 281 340 409
#     4  11  23  43  67  92 130 179 222 280 350 403
#     4  10  21  36  55  85 127 174 225 279 332 395
#     4  10  23  40  62  90 123 173 229 278 333 402
#     4  11  23  43  70 100 137 179 219 276 349 413
#
# _framework density 23.155259999999998
#
# number of rings (size 3 to 8) (size 9 to 14) (size 15 to 20)
#    0.000    1.143    2.857    3.857    0.000    9.714 
#    0.000    4.286    0.000    0.000    0.000    0.000 
#    0.000    0.000    0.000    0.000    0.000    0.000 
#
# Total GULP energy -312867.031689 kJ/mol
# GULP energy per Si atom -5586.911280 kJ/mol
# Density = 2.310256 g / cm^3
# Si number density = 23.155260 Si / 1000 Ang^3
#
#
#
# Elastic Constant Matrix: (Units=GPa)
#
#
# Indices 1 2 3 4 5 6 
#
# 1 100.8748 -15.0165 -2.1872 0.0000 0.0000 0.0000
# 2 -15.0165 49.7894 13.2751 -0.0001 0.0000 0.0000
# 3 -2.1872 13.2751 85.9489 0.0000 -0.0001 0.0000
# 4 0.0000 -0.0001 0.0000 25.4044 0.0001 0.0000
# 5 0.0000 0.0000 -0.0001 0.0001 4.2879 0.0000
# 6 0.0000 0.0000 0.0000 0.0000 0.0000 -9.0346
#
#
#
# Elastic Compliance Matrix: (Units=1/GPa)
#
#
# Indices 1 2 3 4 5 6 
#
# 1 0.010384 0.003193 -0.000229 0.000000 0.000000 0.000000
# 2 0.003193 0.021929 -0.003306 0.000000 0.000000 0.000000
# 3 -0.000229 -0.003306 0.012140 0.000000 0.000000 0.000000
# 4 0.000000 0.000000 0.000000 0.039363 -0.000001 0.000000
# 5 0.000000 0.000000 0.000000 -0.000001 0.233213 0.000000
# 6 0.000000 0.000000 0.000000 0.000000 0.000000 -0.110686
#
#
# Mechanical properties :
#
#
# Convention : Reuss Voigt Hill
#
# Bulk Modulus (GPa) = 22.84762 25.41733 24.13247
# Shear Modulus (GPa) = 22.56158 20.16767 21.36462
#
# Velocity S-wave (km/s) = 3.12486 2.95443 3.04084
# Velocity P-wave (km/s) = 4.78626 4.75804 4.77217
#
# Compressibility (1/GPa) = 0.04376824
#
# Stress axis : x y z
#
# Youngs Moduli (GPa) = 96.30580 45.60192 82.37513
#
# Poissons Ratio (x) = -0.14559 0.01885
# Poissons Ratio (y) = -0.30748 0.27231
# Poissons Ratio (z) = 0.02204 0.15075
#
# Static dielectric constant tensor:
#      x y z
#    x 1.970440 0.000000 0.000000 
#    y 0.000000 1.860890 0.000000 
#    z 0.000000 0.000000 1.808280 
# 
# From -- ./inp_files/21115.got.cif
#   From: 2010.05.17/outbox.cif.g08.bks.cpg/sg74_11_cif.got.tgz:21115.got - 2010.06.03 17:57:02.
