data_PCOD9538693
_publ_section_title
;
Structure prediction by ZEFSAII (Michael W. Deem and Ramdas Pophale) SiO2 
 PCOD9538693
Probable space group: I M M A
;
_chemical_formula_sum "Si O2"
_cell_formula_units_Z 64
_cell_length_a 17.847256
_cell_length_b 22.741277
_cell_length_c 7.386164
_cell_angle_alpha 90.000000
_cell_angle_beta 90.000000
_cell_angle_gamma 90.000000
_cell_volume 2997.817895
_symmetry_space_group_name_H-M "I M M A"
_symmetry_group_IT_number 74
_symmetry_cell_setting 'orthorhombic'
loop_
_space_group_symop_operation_xyz
x,y,z
-x,1/2-y,z
x,-y,-z
-x,1/2+y,-z
-x,-y,-z
x,1/2+y,-z
-x,y,z
x,1/2-y,z
1/2+x,1/2+y,1/2+z
1/2-x,-y,1/2+z
1/2+x,1/2-y,1/2-z
1/2-x,y,1/2-z
1/2-x,1/2-y,1/2-z
1/2+x,y,1/2-z
1/2-x,1/2+y,1/2+z
1/2+x,-y,1/2+z
loop_
_atom_site_type_symbol
_atom_site_label
_atom_site_fract_x
_atom_site_fract_y
_atom_site_fract_z
Si Si1 0.346264 0.371247 0.633400
Si Si2 0.306413 0.183126 0.980097
Si Si3 0.586653 0.379464 0.250157
Si Si4 0.084742 0.511670 0.215962
O O1 0.352085 0.323705 0.792284
O O2 0.264887 0.359536 0.545957
O O3 0.402608 0.369373 0.465044
O O4 0.359511 0.433870 0.731994
O O5 0.280655 0.250000 0.002771
O O6 0.358193 0.162463 0.142446
O O7 0.500000 0.370572 0.202479
O O8 0.605783 0.447971 0.205958
O O9 0.000000 0.527192 0.276643
O O10 0.080864 0.500000 0.000000
#
# Coordination Sequence:
#
# PCOD9538693 Si02
#       4
#    16  16  16  16
#     4  10  20  40  63  89 119 168 202 257 319 371
#     4  11  25  42  59  89 128 168 215 259 302 371
#     4  10  22  41  64  93 126 163 204 259 319 372
#     4   8  16  35  61  90 123 153 193 252 316 375
#
# _framework density 21.348863000000001
#
# number of rings (size 3 to 8) (size 9 to 14) (size 15 to 20)
#    0.000    2.250    0.000    4.500    0.000    6.500 
#   27.000    2.500    0.000    6.750    0.000    0.000 
#    0.000    0.000    0.000    0.000    0.000    0.000 
#
# Total GULP energy -178575.535277 kJ/mol
# GULP energy per Si atom -5580.485477 kJ/mol
# Density = 2.130027 g / cm^3
# Si number density = 21.348863 Si / 1000 Ang^3
#
#
#
# Elastic Constant Matrix: (Units=GPa)
#
#
# Indices 1 2 3 4 5 6 
#
# 1 56.7039 53.4772 6.7743 0.0000 0.0000 0.0000
# 2 53.4772 84.0374 -4.0790 0.0000 0.0000 0.0000
# 3 6.7743 -4.0790 51.1797 0.0000 0.0000 0.0000
# 4 0.0000 0.0000 0.0000 33.1150 0.0000 0.0000
# 5 0.0000 0.0000 0.0000 0.0000 -12.6073 0.0000
# 6 0.0000 0.0000 0.0000 0.0000 0.0000 32.7619
#
#
#
# Elastic Compliance Matrix: (Units=1/GPa)
#
#
# Indices 1 2 3 4 5 6 
#
# 1 0.047729 -0.030798 -0.008772 0.000000 0.000000 0.000000
# 2 -0.030798 0.031819 0.006612 0.000000 0.000000 0.000000
# 3 -0.008772 0.006612 0.021227 0.000000 0.000000 0.000000
# 4 0.000000 0.000000 0.000000 0.030198 0.000000 0.000000
# 5 0.000000 0.000000 0.000000 0.000000 -0.079319 0.000000
# 6 0.000000 0.000000 0.000000 0.000000 0.000000 0.030523
#
#
# Mechanical properties :
#
#
# Convention : Reuss Voigt Hill
#
# Bulk Modulus (GPa) = 28.68672 33.80732 31.24702
# Shear Modulus (GPa) = 31.30633 19.70383 25.50508
#
# Velocity S-wave (km/s) = 3.83354 3.04130 3.46017
# Velocity P-wave (km/s) = 5.74987 5.31062 5.53460
#
# Compressibility (1/GPa) = 0.03485934
#
# Stress axis : x y z
#
# Youngs Moduli (GPa) = 20.95161 31.42792 47.10956
#
# Poissons Ratio (x) = 0.96792 0.41325
# Poissons Ratio (y) = 0.64527 -0.31151
# Poissons Ratio (z) = 0.18379 -0.20782
#
# Static dielectric constant tensor:
#      x y z
#    x 1.754940 0.000000 0.000000 
#    y 0.000000 1.797340 0.000000 
#    z 0.000000 0.000000 1.827860 
# 
# From -- ./inp_files/10215.got.cif
#   From: 2010.05.17/outbox.cif.g08.bks.cpg/sg74_6_cif.got.tgz:10215.got - 2010.06.03 17:57:02.
