data_PCOD9538968
_publ_section_title
;
Structure prediction by ZEFSAII (Michael W. Deem and Ramdas Pophale) SiO2 
 PCOD9538968
Probable space group: I M M A
;
_chemical_formula_sum "Si O2"
_cell_formula_units_Z 80
_cell_length_a 10.619607
_cell_length_b 14.222175
_cell_length_c 24.867037
_cell_angle_alpha 90.000000
_cell_angle_beta 90.000000
_cell_angle_gamma 90.000000
_cell_volume 3755.765808
_symmetry_space_group_name_H-M "I M M A"
_symmetry_group_IT_number 74
_symmetry_cell_setting 'orthorhombic'
loop_
_space_group_symop_operation_xyz
x,y,z
-x,1/2-y,z
x,-y,-z
-x,1/2+y,-z
-x,-y,-z
x,1/2+y,-z
-x,y,z
x,1/2-y,z
1/2+x,1/2+y,1/2+z
1/2-x,-y,1/2+z
1/2+x,1/2-y,1/2-z
1/2-x,y,1/2-z
1/2-x,1/2-y,1/2-z
1/2+x,y,1/2-z
1/2-x,1/2+y,1/2+z
1/2+x,-y,1/2+z
loop_
_atom_site_type_symbol
_atom_site_label
_atom_site_fract_x
_atom_site_fract_y
_atom_site_fract_z
Si Si1 0.859290 0.636941 0.789834
Si Si2 0.738110 0.353806 0.094741
Si Si3 0.640392 0.440448 0.910308
Si Si4 0.858673 0.637924 0.291489
Si Si5 0.637603 0.109716 0.514417
O O1 0.865807 0.750000 0.781850
O O2 0.750000 0.602103 0.750000
O O3 0.817766 0.624026 0.851548
O O4 0.000000 0.599375 0.779599
O O5 0.677592 0.250000 0.102923
O O6 0.654694 0.446427 0.084269
O O7 0.825616 0.346479 0.042451
O O8 0.500000 0.412749 0.928266
O O9 0.653993 0.415141 0.847798
O O10 0.748412 0.386550 0.943408
O O11 0.848700 0.750000 0.302204
O O12 0.750000 0.612827 0.250000
O O13 0.000000 0.620791 0.270143
O O14 0.500000 0.140545 0.534158
O O15 0.628898 0.000000 0.500000
#
# Coordination Sequence:
#
# PCOD9538968 Si02
#       5
#    16  16  16  16  16
#     4   9  18  33  52  74 104 144 189 235 278 322
#     4  10  21  36  56  83 117 157 197 235 278 336
#     4  10  22  39  58  85 120 152 187 237 293 347
#     4   9  19  38  63  88 114 146 187 238 295 350
#     4   9  19  36  57  80 108 147 195 243 289 338
#
# _framework density 21.300583
#
# number of rings (size 3 to 8) (size 9 to 14) (size 15 to 20)
#    0.000    2.600    0.000    0.600    0.000    9.200 
#    0.000    4.000    0.000    0.000    0.000    0.000 
#    0.000    0.000    0.000    0.000    0.000    0.000 
#
# Total GULP energy -223163.522313 kJ/mol
# GULP energy per Si atom -5579.088058 kJ/mol
# Density = 2.125210 g / cm^3
# Si number density = 21.300583 Si / 1000 Ang^3
#
#
#
# Elastic Constant Matrix: (Units=GPa)
#
#
# Indices 1 2 3 4 5 6 
#
# 1 201.5476 18.0930 98.2734 0.0000 0.0000 0.0000
# 2 18.0930 81.8130 23.4275 0.0000 0.0000 0.0000
# 3 98.2734 23.4275 101.9541 0.0000 0.0000 0.0000
# 4 0.0000 0.0000 0.0000 28.6275 0.0000 0.0000
# 5 0.0000 0.0000 0.0000 0.0000 24.9845 0.0000
# 6 0.0000 0.0000 0.0000 0.0000 0.0000 308.6191
#
#
#
# Elastic Compliance Matrix: (Units=1/GPa)
#
#
# Indices 1 2 3 4 5 6 
#
# 1 0.009385 0.000551 -0.009172 0.000000 0.000000 0.000000
# 2 0.000551 0.013116 -0.003545 0.000000 0.000000 0.000000
# 3 -0.009172 -0.003545 0.019464 0.000000 0.000000 0.000000
# 4 0.000000 0.000000 0.000000 0.034931 0.000000 0.000000
# 5 0.000000 0.000000 0.000000 0.000000 0.040025 0.000000
# 6 0.000000 0.000000 0.000000 0.000000 0.000000 0.003240
#
#
# Mechanical properties :
#
#
# Convention : Reuss Voigt Hill
#
# Bulk Modulus (GPa) = 56.71440 73.87806 65.29623
# Shear Modulus (GPa) = 33.25093 88.81427 61.03260
#
# Velocity S-wave (km/s) = 3.95528 6.46423 5.35866
# Velocity P-wave (km/s) = 6.89511 9.51177 8.30712
#
# Compressibility (1/GPa) = 0.01763221
#
# Stress axis : x y z
#
# Youngs Moduli (GPa) = 106.55830 76.24106 51.37628
#
# Poissons Ratio (x) = -0.04202 0.47124
# Poissons Ratio (y) = -0.05873 0.18214
# Poissons Ratio (z) = 0.97739 0.27029
#
# Static dielectric constant tensor:
#      x y z
#    x 1.786030 0.000000 0.000000 
#    y 0.000000 1.840080 0.000000 
#    z 0.000000 0.000000 1.720510 
# 
# From -- ./inp_files/58492.got.cif
#   From: 2010.05.17/outbox.cif.g08.bks.cpg/sg74_30_cif.got.tgz:58492.got - 2010.06.03 17:57:02.
