data_PCOD9538775
_publ_section_title
;
Structure prediction by ZEFSAII (Michael W. Deem and Ramdas Pophale) SiO2 
 PCOD9538775
Probable space group: I M M A
;
_chemical_formula_sum "Si O2"
_cell_formula_units_Z 116
_cell_length_a 25.206225
_cell_length_b 7.519228
_cell_length_c 26.948621
_cell_angle_alpha 90.000000
_cell_angle_beta 90.000000
_cell_angle_gamma 90.000000
_cell_volume 5107.608594
_symmetry_space_group_name_H-M "I M M A"
_symmetry_group_IT_number 74
_symmetry_cell_setting 'orthorhombic'
loop_
_space_group_symop_operation_xyz
x,y,z
-x,1/2-y,z
x,-y,-z
-x,1/2+y,-z
-x,-y,-z
x,1/2+y,-z
-x,y,z
x,1/2-y,z
1/2+x,1/2+y,1/2+z
1/2-x,-y,1/2+z
1/2+x,1/2-y,1/2-z
1/2-x,y,1/2-z
1/2-x,1/2-y,1/2-z
1/2+x,y,1/2-z
1/2-x,1/2+y,1/2+z
1/2+x,-y,1/2+z
loop_
_atom_site_type_symbol
_atom_site_label
_atom_site_fract_x
_atom_site_fract_y
_atom_site_fract_z
Si Si1 0.348047 0.051122 0.626805
Si Si2 0.560239 0.463905 0.058262
Si Si3 0.058772 0.461382 0.058238
Si Si4 0.000000 0.750000 0.764033
Si Si5 0.903239 0.968934 0.227673
Si Si6 0.799309 0.542803 0.282728
Si Si7 0.336402 0.953916 0.888068
Si Si8 0.760696 0.037875 0.944773
O O1 0.330320 0.250000 0.641093
O O2 0.374949 0.978460 0.675780
O O3 0.299967 0.963028 0.597336
O O4 0.395061 0.056826 0.586983
O O5 0.500000 0.528337 0.068728
O O6 0.559723 0.250000 0.063538
O O7 0.606885 0.532142 0.094634
O O8 0.571500 0.500000 0.000000
O O9 0.063964 0.250000 0.066074
O O10 0.000000 0.515384 0.075829
O O11 0.061648 0.500000 0.000000
O O12 0.953923 0.591630 0.765041
O O13 0.913150 0.750000 0.227842
O O14 0.857708 0.018383 0.266938
O O15 0.799398 0.750000 0.269782
O O16 0.750000 0.466280 0.250000
O O17 0.801863 0.529809 0.342323
O O18 0.345561 0.750000 0.874629
O O19 0.297760 0.964992 0.935429
O O20 0.758880 0.250000 0.939746
O O21 0.780574 0.000000 0.000000
#
# Coordination Sequence:
#
# PCOD9538775 Si02
#       8
#    16  16  16   4  16  16  16  16
#     4  10  22  39  60  83 116 158 206 263 326 384
#     4   9  19  37  59  87 125 165 204 249 299 361
#     4  10  21  34  51  76 107 144 192 245 305 373
#     4  12  26  44  70  98 134 180 230 286 344 402
#     4  10  24  45  68  99 134 176 227 283 345 411
#     4  10  22  45  71  95 129 170 216 275 346 410
#     4  11  23  38  62  96 127 164 210 257 316 390
#     4  11  23  40  60  89 128 169 210 264 328 389
#
# _framework density 22.711216
#
# number of rings (size 3 to 8) (size 9 to 14) (size 15 to 20)
#    0.000    1.793    0.000    3.103    2.897    7.724 
#    3.724    0.000    0.000    0.000    0.000    0.000 
#    0.000    0.000    0.000    0.000    0.000    0.000 
#
# Total GULP energy -323118.725417 kJ/mol
# GULP energy per Si atom -5571.012507 kJ/mol
# Density = 2.265952 g / cm^3
# Si number density = 22.711216 Si / 1000 Ang^3
#
#
#
# Elastic Constant Matrix: (Units=GPa)
#
#
# Indices 1 2 3 4 5 6 
#
# 1 143.3408 27.6054 47.3905 0.0000 0.0000 0.0000
# 2 27.6054 93.4821 5.3915 0.0000 0.0000 0.0000
# 3 47.3905 5.3915 60.8296 0.0000 0.0000 0.0000
# 4 0.0000 0.0000 0.0000 13.7614 0.0000 0.0000
# 5 0.0000 0.0000 0.0000 0.0000 5.7304 0.0000
# 6 0.0000 0.0000 0.0000 0.0000 0.0000 -7.5689
#
#
#
# Elastic Compliance Matrix: (Units=1/GPa)
#
#
# Indices 1 2 3 4 5 6 
#
# 1 0.009947 -0.002503 -0.007528 0.000000 0.000000 0.000000
# 2 -0.002503 0.011382 0.000941 0.000000 0.000000 0.000000
# 3 -0.007528 0.000941 0.022221 0.000000 0.000000 0.000000
# 4 0.000000 0.000000 0.000000 0.072667 0.000000 0.000000
# 5 0.000000 0.000000 0.000000 0.000000 0.174506 0.000000
# 6 0.000000 0.000000 0.000000 0.000000 0.000000 -0.132120
#
#
# Mechanical properties :
#
#
# Convention : Reuss Voigt Hill
#
# Bulk Modulus (GPa) = 39.41545 50.93633 45.17589
# Shear Modulus (GPa) = 26.99201 16.86892 21.93047
#
# Velocity S-wave (km/s) = 3.45119 2.72831 3.11082
# Velocity P-wave (km/s) = 5.76833 5.69223 5.73041
#
# Compressibility (1/GPa) = 0.02537076
#
# Stress axis : x y z
#
# Youngs Moduli (GPa) = 100.53027 87.85673 45.00338
#
# Poissons Ratio (x) = 0.21993 0.33877
# Poissons Ratio (y) = 0.25166 -0.04237
# Poissons Ratio (z) = 0.75676 -0.08271
#
# Static dielectric constant tensor:
#      x y z
#    x 1.889890 0.000000 0.000000 
#    y 0.000000 1.865190 0.000000 
#    z 0.000000 0.000000 1.692520 
# 
# From -- ./inp_files/68724.got.cif
#   From: 2010.05.17/outbox.cif.g08.bks.cpg/sg74_35_cif.got.tgz:68724.got - 2010.06.03 17:57:02.
