data_PCOD9538045
_publ_section_title
;
Structure prediction by ZEFSAII (Michael W. Deem and Ramdas Pophale) SiO2 
 PCOD9538045
Probable space group: I M M A
;
_chemical_formula_sum "Si O2"
_cell_formula_units_Z 104
_cell_length_a 22.843489
_cell_length_b 8.376858
_cell_length_c 28.142795
_cell_angle_alpha 90.000000
_cell_angle_beta 90.000000
_cell_angle_gamma 90.000000
_cell_volume 5385.311355
_symmetry_space_group_name_H-M "I M M A"
_symmetry_group_IT_number 74
_symmetry_cell_setting 'orthorhombic'
loop_
_space_group_symop_operation_xyz
x,y,z
-x,1/2-y,z
x,-y,-z
-x,1/2+y,-z
-x,-y,-z
x,1/2+y,-z
-x,y,z
x,1/2-y,z
1/2+x,1/2+y,1/2+z
1/2-x,-y,1/2+z
1/2+x,1/2-y,1/2-z
1/2-x,y,1/2-z
1/2-x,1/2-y,1/2-z
1/2+x,y,1/2-z
1/2-x,1/2+y,1/2+z
1/2+x,-y,1/2+z
loop_
_atom_site_type_symbol
_atom_site_label
_atom_site_fract_x
_atom_site_fract_y
_atom_site_fract_z
Si Si1 0.839122 0.943221 0.377228
Si Si2 0.932477 0.443008 0.701810
Si Si3 0.500000 0.442342 0.553334
Si Si4 0.739942 0.061513 0.445838
Si Si5 0.432921 0.941526 0.690697
Si Si6 0.121299 0.441211 0.901110
Si Si7 0.437502 0.941820 0.053222
O O1 0.835956 0.750000 0.375061
O O2 0.876184 0.993645 0.330173
O O3 0.778339 0.998804 0.400724
O O4 0.883824 0.001619 0.417508
O O5 0.933501 0.250000 0.699473
O O6 0.923305 0.499780 0.755641
O O7 0.000000 0.493911 0.688230
O O8 0.500000 0.250000 0.555772
O O9 0.500000 0.500000 0.500000
O O10 0.440375 0.498609 0.577416
O O11 0.747134 0.250000 0.447943
O O12 0.753631 0.000000 0.500000
O O13 0.674059 0.015218 0.430958
O O14 0.500000 0.993507 0.678114
O O15 0.431123 0.750000 0.689142
O O16 0.385578 0.010512 0.654031
O O17 0.125866 0.250000 0.904651
O O18 0.500000 0.992416 0.073676
O O19 0.435868 0.250000 0.945884
O O20 0.434405 0.000000 0.000000
#
# Coordination Sequence:
#
# PCOD9538045 Si02
#       7
#    16  16   8  16  16  16  16
#     4  10  20  36  57  81 111 152 198 243 293 346
#     4   9  18  34  59  89 121 157 198 246 298 353
#     4  10  22  36  58  90 120 148 182 230 285 344
#     4  12  26  43  61  84 116 157 200 243 292 349
#     4  10  20  35  58  90 125 159 193 236 292 351
#     4  11  22  40  63  89 118 153 195 239 291 350
#     4   9  17  29  47  73 104 137 179 232 288 345
#
# _framework density 19.311789000000001
#
# number of rings (size 3 to 8) (size 9 to 14) (size 15 to 20)
#    0.000    1.846    0.769    3.692    0.000    7.385 
#    0.000    0.769    0.000    9.231    0.000    0.000 
#    0.000    0.000    0.000    0.000    0.000    0.000 
#
# Total GULP energy -289717.774828 kJ/mol
# GULP energy per Si atom -5571.495670 kJ/mol
# Density = 1.926783 g / cm^3
# Si number density = 19.311789 Si / 1000 Ang^3
#
#
#
# Elastic Constant Matrix: (Units=GPa)
#
#
# Indices 1 2 3 4 5 6 
#
# 1 86.1455 12.1779 34.5834 0.0000 0.0000 0.0000
# 2 12.1779 34.2291 13.8719 0.0000 0.0000 0.0000
# 3 34.5834 13.8719 105.5141 0.0000 0.0000 0.0000
# 4 0.0000 0.0000 0.0000 27.3106 0.0000 0.0000
# 5 0.0000 0.0000 0.0000 0.0000 40.8329 0.0000
# 6 0.0000 0.0000 0.0000 0.0000 0.0000 24.7136
#
#
#
# Elastic Compliance Matrix: (Units=1/GPa)
#
#
# Indices 1 2 3 4 5 6 
#
# 1 0.013696 -0.003225 -0.004065 0.000000 0.000000 0.000000
# 2 -0.003225 0.031619 -0.003100 0.000000 0.000000 0.000000
# 3 -0.004065 -0.003100 0.011217 0.000000 0.000000 0.000000
# 4 0.000000 0.000000 0.000000 0.036616 0.000000 0.000000
# 5 0.000000 0.000000 0.000000 0.000000 0.024490 0.000000
# 6 0.000000 0.000000 0.000000 0.000000 0.000000 0.040464
#
#
# Mechanical properties :
#
#
# Convention : Reuss Voigt Hill
#
# Bulk Modulus (GPa) = 27.97062 38.57280 33.27171
# Shear Modulus (GPa) = 26.20559 29.58846 27.89703
#
# Velocity S-wave (km/s) = 3.68771 3.91851 3.80486
# Velocity P-wave (km/s) = 5.71379 6.36318 6.04721
#
# Compressibility (1/GPa) = 0.03575180
#
# Stress axis : x y z
#
# Youngs Moduli (GPa) = 73.01336 31.62695 89.14816
#
# Poissons Ratio (x) = 0.10201 0.36239
# Poissons Ratio (y) = 0.23549 0.27634
# Poissons Ratio (z) = 0.29680 0.09804
#
# Static dielectric constant tensor:
#      x y z
#    x 1.723910 0.000000 0.000000 
#    y 0.000000 1.660170 0.000000 
#    z 0.000000 0.000000 1.685500 
# 
# From -- ./inp_files/68284.got.cif
#   From: 2010.05.17/outbox.cif.g08.bks.cpg/sg74_35_cif.got.tgz:68284.got - 2010.06.03 17:57:02.
