data_PCOD9538099
_publ_section_title
;
Structure prediction by ZEFSAII (Michael W. Deem and Ramdas Pophale) SiO2 
 PCOD9538099
Probable space group: I M M A
;
_chemical_formula_sum "Si O2"
_cell_formula_units_Z 60
_cell_length_a 17.142037
_cell_length_b 9.890213
_cell_length_c 18.853557
_cell_angle_alpha 90.000000
_cell_angle_beta 90.000000
_cell_angle_gamma 90.000000
_cell_volume 3196.401835
_symmetry_space_group_name_H-M "I M M A"
_symmetry_group_IT_number 74
_symmetry_cell_setting 'orthorhombic'
loop_
_space_group_symop_operation_xyz
x,y,z
-x,1/2-y,z
x,-y,-z
-x,1/2+y,-z
-x,-y,-z
x,1/2+y,-z
-x,y,z
x,1/2-y,z
1/2+x,1/2+y,1/2+z
1/2-x,-y,1/2+z
1/2+x,1/2-y,1/2-z
1/2-x,y,1/2-z
1/2-x,1/2-y,1/2-z
1/2+x,y,1/2-z
1/2-x,1/2+y,1/2+z
1/2+x,-y,1/2+z
loop_
_atom_site_type_symbol
_atom_site_label
_atom_site_fract_x
_atom_site_fract_y
_atom_site_fract_z
Si Si1 0.847657 0.250000 0.598961
Si Si2 0.500000 0.095176 0.666788
Si Si3 0.593963 0.250000 0.062018
Si Si4 0.500000 0.750000 0.194526
Si Si5 0.138929 0.404554 0.188631
Si Si6 0.810135 0.463242 0.349571
O O1 0.873341 0.250000 0.517605
O O2 0.803945 0.385303 0.621718
O O3 0.925371 0.250000 0.646021
O O4 0.500000 0.250000 0.637006
O O5 0.500000 0.124004 0.751741
O O6 0.576854 0.006094 0.653570
O O7 0.500000 0.250000 0.062720
O O8 0.629918 0.379038 0.102510
O O9 0.109368 0.250000 0.191909
O O10 0.158437 0.453329 0.268895
O O11 0.222863 0.404607 0.150589
#
# Coordination Sequence:
#
# PCOD9538099 Si02
#       6
#     8   8   8   4  16  16
#     4  12  24  38  58  83 124 166 199 241 280 349
#     4  10  21  35  61  92 119 149 194 251 304 360
#     4  12  26  39  59  85 124 169 204 232 284 359
#     4  10  20  36  48  92 122 148 202 228 288 344
#     4  11  21  38  60  85 120 156 198 248 309 349
#     4  11  23  39  57  85 118 161 203 247 294 351
#
# _framework density 18.771107000000001
#
# number of rings (size 3 to 8) (size 9 to 14) (size 15 to 20)
#    0.400    0.533    6.000    2.000    5.600    2.133 
#    0.000    0.000    0.000    0.000    0.000    5.600 
#    0.000    0.000    0.000    0.000    0.000    0.000 
#
# Total GULP energy -167409.177135 kJ/mol
# GULP energy per Si atom -5580.305905 kJ/mol
# Density = 1.872838 g / cm^3
# Si number density = 18.771107 Si / 1000 Ang^3
#
#
#
# Elastic Constant Matrix: (Units=GPa)
#
#
# Indices 1 2 3 4 5 6 
#
# 1 95.1675 50.4587 6.8764 0.0000 0.0000 0.0000
# 2 50.4587 163.1179 22.3226 0.0000 0.0000 0.0000
# 3 6.8764 22.3226 43.0716 0.0000 0.0000 0.0000
# 4 0.0000 0.0000 0.0000 -70.5632 0.0000 0.0000
# 5 0.0000 0.0000 0.0000 0.0000 -697.1553 0.0000
# 6 0.0000 0.0000 0.0000 0.0000 0.0000 78.2771
#
#
#
# Elastic Compliance Matrix: (Units=1/GPa)
#
#
# Indices 1 2 3 4 5 6 
#
# 1 0.012569 -0.003889 0.000009 0.000000 0.000000 0.000000
# 2 -0.003889 0.007802 -0.003423 0.000000 0.000000 0.000000
# 3 0.000009 -0.003423 0.024990 0.000000 0.000000 0.000000
# 4 0.000000 0.000000 0.000000 -0.014172 0.000000 0.000000
# 5 0.000000 0.000000 0.000000 0.000000 -0.001434 0.000000
# 6 0.000000 0.000000 0.000000 0.000000 0.000000 0.012775
#
#
# Mechanical properties :
#
#
# Convention : Reuss Voigt Hill
#
# Bulk Modulus (GPa) = 32.51504 51.18584 41.85044
# Shear Modulus (GPa) = 74.19758 -123.10835 -24.45538
#
# Velocity S-wave (km/s) = 6.29391 -8.10718 -3.61338
# Velocity P-wave (km/s) = 8.37719 7.76579 2.22146
#
# Compressibility (1/GPa) = 0.03075500
#
# Stress axis : x y z
#
# Youngs Moduli (GPa) = 79.55865 128.17106 40.01672
#
# Poissons Ratio (x) = 0.49851 -0.00036
# Poissons Ratio (y) = 0.30944 0.13696
# Poissons Ratio (z) = -0.00072 0.43868
#
# Static dielectric constant tensor:
#      x y z
#    x 3.228860 0.000000 0.000000 
#    y 0.000000 1.722240 0.000000 
#    z 0.000000 0.000000 1.614400 
# 
# From -- ./inp_files/43572.got.cif
#   From: 2010.05.17/outbox.cif.g08.bks.cpg/sg74_22_cif.got.tgz:43572.got - 2010.06.03 17:57:02.
