data_PCOD9538341
_publ_section_title
;
Structure prediction by ZEFSAII (Michael W. Deem and Ramdas Pophale) SiO2 
 PCOD9538341
Probable space group: I M M A
;
_chemical_formula_sum "Si O2"
_cell_formula_units_Z 96
_cell_length_a 15.690944
_cell_length_b 14.991185
_cell_length_c 19.865051
_cell_angle_alpha 90.000000
_cell_angle_beta 90.000000
_cell_angle_gamma 90.000000
_cell_volume 4672.773394
_symmetry_space_group_name_H-M "I M M A"
_symmetry_group_IT_number 74
_symmetry_cell_setting 'orthorhombic'
loop_
_space_group_symop_operation_xyz
x,y,z
-x,1/2-y,z
x,-y,-z
-x,1/2+y,-z
-x,-y,-z
x,1/2+y,-z
-x,y,z
x,1/2-y,z
1/2+x,1/2+y,1/2+z
1/2-x,-y,1/2+z
1/2+x,1/2-y,1/2-z
1/2-x,y,1/2-z
1/2-x,1/2-y,1/2-z
1/2+x,y,1/2-z
1/2-x,1/2+y,1/2+z
1/2+x,-y,1/2+z
loop_
_atom_site_type_symbol
_atom_site_label
_atom_site_fract_x
_atom_site_fract_y
_atom_site_fract_z
Si Si1 0.398588 0.975905 0.166311
Si Si2 0.097897 0.851543 0.460488
Si Si3 0.594800 0.645190 0.433294
Si Si4 0.761746 0.903229 0.965631
Si Si5 0.895500 0.852925 0.212192
Si Si6 0.786430 0.354921 0.325425
O O1 0.500000 0.978184 0.171702
O O2 0.380125 0.922363 0.097588
O O3 0.365205 0.916380 0.228264
O O4 0.363233 0.075131 0.168574
O O5 0.099848 0.750000 0.433113
O O6 0.170435 0.859440 0.516465
O O7 0.000000 0.868204 0.483469
O O8 0.500000 0.608243 0.447176
O O9 0.585490 0.750000 0.419545
O O10 0.659433 0.637280 0.493941
O O11 0.629689 0.610673 0.361607
O O12 0.774141 0.889452 0.886229
O O13 0.757005 0.000000 0.000000
O O14 0.868249 0.750000 0.222592
O O15 0.000000 0.852334 0.212063
O O16 0.805622 0.250000 0.336331
O O17 0.750000 0.362869 0.250000
#
# Coordination Sequence:
#
# PCOD9538341 Si02
#       6
#    16  16  16  16  16  16
#     4  10  20  36  61  92 125 162 209 255 305 371
#     4  10  21  38  63  96 131 164 200 253 322 388
#     4   9  19  37  62  93 126 159 198 252 323 390
#     4  12  24  41  65  93 122 160 211 268 322 373
#     4   8  15  30  56  92 131 162 188 235 309 387
#     4  11  26  46  62  81 120 171 217 261 308 364
#
# _framework density 20.544543999999998
#
# number of rings (size 3 to 8) (size 9 to 14) (size 15 to 20)
#    0.000    2.000    1.667    3.000    2.333    3.667 
#    0.000    0.833    0.000    5.000    0.000    0.000 
#    0.000    0.000    0.000    0.000    0.000    0.000 
#
# Total GULP energy -267743.106673 kJ/mol
# GULP energy per Si atom -5577.981389 kJ/mol
# Density = 2.049778 g / cm^3
# Si number density = 20.544544 Si / 1000 Ang^3
#
#
#
# Elastic Constant Matrix: (Units=GPa)
#
#
# Indices 1 2 3 4 5 6 
#
# 1 44.4461 10.9703 41.9369 0.0000 0.0000 0.0000
# 2 10.9703 107.9985 34.4258 0.0000 0.0000 0.0000
# 3 41.9369 34.4258 128.7138 0.0000 0.0000 0.0000
# 4 0.0000 0.0000 0.0000 48.1768 0.0000 0.0000
# 5 0.0000 0.0000 0.0000 0.0000 73.5988 0.0000
# 6 0.0000 0.0000 0.0000 0.0000 0.0000 34.5197
#
#
#
# Elastic Compliance Matrix: (Units=1/GPa)
#
#
# Indices 1 2 3 4 5 6 
#
# 1 0.032487 0.000081 -0.010606 0.000000 0.000000 0.000000
# 2 0.000081 0.010123 -0.002734 0.000000 0.000000 0.000000
# 3 -0.010606 -0.002734 0.011956 0.000000 0.000000 0.000000
# 4 0.000000 0.000000 0.000000 0.020757 0.000000 0.000000
# 5 0.000000 0.000000 0.000000 0.000000 0.013587 0.000000
# 6 0.000000 0.000000 0.000000 0.000000 0.000000 0.028969
#
#
# Mechanical properties :
#
#
# Convention : Reuss Voigt Hill
#
# Bulk Modulus (GPa) = 35.65435 50.64716 43.15075
# Shear Modulus (GPa) = 32.52126 44.18075 38.35101
#
# Velocity S-wave (km/s) = 3.98296 4.64236 4.32525
# Velocity P-wave (km/s) = 6.20841 7.31035 6.78180
#
# Compressibility (1/GPa) = 0.02804707
#
# Stress axis : x y z
#
# Youngs Moduli (GPa) = 30.78185 98.78904 83.63979
#
# Poissons Ratio (x) = -0.00800 0.88711
# Poissons Ratio (y) = -0.00249 0.22865
# Poissons Ratio (z) = 0.32648 0.27006
#
# Static dielectric constant tensor:
#      x y z
#    x 1.746970 0.000000 0.000000 
#    y 0.000000 1.753230 0.000000 
#    z 0.000000 0.000000 1.779960 
# 
# From -- ./inp_files/51924.got.cif
#   From: 2010.05.17/outbox.cif.g08.bks.cpg/sg74_26_cif.got.tgz:51924.got - 2010.06.03 17:57:02.
