data_PCOD9538151
_publ_section_title
;
Structure prediction by ZEFSAII (Michael W. Deem and Ramdas Pophale) SiO2 
 PCOD9538151
Probable space group: I M M A
;
_chemical_formula_sum "Si O2"
_cell_formula_units_Z 64
_cell_length_a 14.730950
_cell_length_b 26.091506
_cell_length_c 7.306924
_cell_angle_alpha 90.000000
_cell_angle_beta 90.000000
_cell_angle_gamma 90.000000
_cell_volume 2808.435751
_symmetry_space_group_name_H-M "I M M A"
_symmetry_group_IT_number 74
_symmetry_cell_setting 'orthorhombic'
loop_
_space_group_symop_operation_xyz
x,y,z
-x,1/2-y,z
x,-y,-z
-x,1/2+y,-z
-x,-y,-z
x,1/2+y,-z
-x,y,z
x,1/2-y,z
1/2+x,1/2+y,1/2+z
1/2-x,-y,1/2+z
1/2+x,1/2-y,1/2-z
1/2-x,y,1/2-z
1/2-x,1/2-y,1/2-z
1/2+x,y,1/2-z
1/2-x,1/2+y,1/2+z
1/2+x,-y,1/2+z
loop_
_atom_site_type_symbol
_atom_site_label
_atom_site_fract_x
_atom_site_fract_y
_atom_site_fract_z
Si Si1 0.642557 0.862053 0.219731
Si Si2 0.604951 0.556310 0.517658
Si Si3 0.390720 0.859972 0.788332
Si Si4 0.107438 0.750000 0.718602
Si Si5 0.358292 0.750000 0.217430
O O1 0.750000 0.862218 0.250000
O O2 0.605485 0.909805 0.333801
O O3 0.607553 0.805623 0.283981
O O4 0.624657 0.866326 0.003883
O O5 0.647316 0.500000 0.500000
O O6 0.500000 0.547872 0.573558
O O7 0.646987 0.593570 0.669702
O O8 0.500000 0.858367 0.762680
O O9 0.354585 0.804667 0.719515
O O10 0.120273 0.750000 0.498939
O O11 0.000000 0.750000 0.757435
O O12 0.250000 0.750000 0.250000
#
# Coordination Sequence:
#
# PCOD9538151 Si02
#       5
#    16  16  16   8   8
#     4  10  20  36  56  83 110 145 179 227 278 330
#     4  10  22  39  56  78 107 144 191 230 267 325
#     4   9  18  34  56  80 111 145 179 225 276 323
#     4   8  14  27  50  81 108 135 176 223 270 322
#     4   8  16  31  52  76 111 141 175 213 275 339
#
# _framework density 22.788487
#
# number of rings (size 3 to 8) (size 9 to 14) (size 15 to 20)
#    0.000    2.750    0.000    0.750    0.000    4.000 
#    4.500    5.000    0.000    9.000    0.000    0.000 
#    0.000    0.000    0.000    0.000    0.000    0.000 
#
# Total GULP energy -178599.366162 kJ/mol
# GULP energy per Si atom -5581.230193 kJ/mol
# Density = 2.273662 g / cm^3
# Si number density = 22.788487 Si / 1000 Ang^3
#
#
#
# Elastic Constant Matrix: (Units=GPa)
#
#
# Indices 1 2 3 4 5 6 
#
# 1 67.9992 5.6609 -15.6950 -0.0026 0.0024 -0.0359
# 2 5.6609 269.7618 85.2385 0.0038 0.0073 0.0204
# 3 -15.6950 85.2385 107.6189 0.0025 0.0334 0.0350
# 4 -0.0026 0.0038 0.0025 26.8360 0.0080 -0.0203
# 5 0.0024 0.0073 0.0334 0.0080 144.0560 0.4588
# 6 -0.0359 0.0204 0.0350 -0.0203 0.4588 681.9032
#
#
#
# Elastic Compliance Matrix: (Units=1/GPa)
#
#
# Indices 1 2 3 4 5 6 
#
# 1 0.015603 -0.001396 0.003381 0.000001 -0.000001 0.000001
# 2 -0.001396 0.005069 -0.004219 0.000000 0.000001 0.000000
# 3 0.003381 -0.004219 0.013126 0.000000 -0.000003 0.000000
# 4 0.000001 0.000000 0.000000 0.037263 -0.000002 0.000001
# 5 -0.000001 0.000001 -0.000003 -0.000002 0.006942 -0.000005
# 6 0.000001 0.000000 0.000000 0.000001 -0.000005 0.001466
#
#
# Mechanical properties :
#
#
# Convention : Reuss Voigt Hill
#
# Bulk Modulus (GPa) = 34.09301 66.19874 50.14587
# Shear Modulus (GPa) = 53.35393 195.23742 124.29568
#
# Velocity S-wave (km/s) = 4.84391 9.26605 7.39335
# Velocity P-wave (km/s) = 6.80278 11.98298 9.74345
#
# Compressibility (1/GPa) = 0.02933153
#
# Stress axis : x y z
#
# Youngs Moduli (GPa) = 64.09182 197.26824 76.18225
#
# Poissons Ratio (x) = 0.27533 -0.25757
# Poissons Ratio (y) = 0.08945 0.32138
# Poissons Ratio (z) = -0.21669 0.83219
#
# Static dielectric constant tensor:
#      x y z
#    x 1.870950 0.000000 0.000000 
#    y 0.000000 1.940110 0.000000 
#    z 0.000000 0.000000 1.816990 
# 
# From -- ./inp_files/3060.got.cif
#   From: 2010.05.17/outbox.cif.g08.bks.cpg/sg74_2_cif.got.tgz:3060.got - 2010.06.03 17:57:02.
