data_PCOD9538253
_publ_section_title
;
Structure prediction by ZEFSAII (Michael W. Deem and Ramdas Pophale) SiO2 
 PCOD9538253
Probable space group: I M M A
;
_chemical_formula_sum "Si O2"
_cell_formula_units_Z 104
_cell_length_a 20.779252
_cell_length_b 9.041496
_cell_length_c 30.352152
_cell_angle_alpha 90.000000
_cell_angle_beta 90.000000
_cell_angle_gamma 90.000000
_cell_volume 5702.426457
_symmetry_space_group_name_H-M "I M M A"
_symmetry_group_IT_number 74
_symmetry_cell_setting 'orthorhombic'
loop_
_space_group_symop_operation_xyz
x,y,z
-x,1/2-y,z
x,-y,-z
-x,1/2+y,-z
-x,-y,-z
x,1/2+y,-z
-x,y,z
x,1/2-y,z
1/2+x,1/2+y,1/2+z
1/2-x,-y,1/2+z
1/2+x,1/2-y,1/2-z
1/2-x,y,1/2-z
1/2-x,1/2-y,1/2-z
1/2+x,y,1/2-z
1/2-x,1/2+y,1/2+z
1/2+x,-y,1/2+z
loop_
_atom_site_type_symbol
_atom_site_label
_atom_site_fract_x
_atom_site_fract_y
_atom_site_fract_z
Si Si1 0.776635 0.925547 0.124704
Si Si2 0.077490 0.418634 0.456135
Si Si3 0.642638 0.427597 0.451365
Si Si4 0.000000 0.573059 0.952115
Si Si5 0.314973 0.928200 0.276994
Si Si6 0.074134 0.573055 0.720553
Si Si7 0.876318 0.925085 0.368352
O O1 0.787076 0.750000 0.117754
O O2 0.807518 0.967412 0.171699
O O3 0.700412 0.948488 0.130422
O O4 0.806245 0.012127 0.083615
O O5 0.101633 0.500000 0.500000
O O6 0.101316 0.250000 0.453617
O O7 0.095978 0.509992 0.413300
O O8 0.000000 0.413219 0.458640
O O9 0.649886 0.500000 0.500000
O O10 0.647294 0.250000 0.455580
O O11 0.570300 0.466240 0.433302
O O12 0.000000 0.750000 0.956489
O O13 0.000000 0.500000 0.000000
O O14 0.321007 0.750000 0.273562
O O15 0.250000 0.968440 0.250000
O O16 0.375923 0.004516 0.254937
O O17 0.080397 0.750000 0.719462
O O18 0.092629 0.507255 0.673024
O O19 0.000000 0.536132 0.730804
O O20 0.888508 0.750000 0.364787
#
# Coordination Sequence:
#
# PCOD9538253 Si02
#       7
#    16  16  16   8  16  16  16
#     4  10  22  39  59  85 116 149 190 237 284 340
#     4  10  21  37  56  81 114 150 191 239 288 341
#     4  10  20  36  59  85 116 152 191 236 287 343
#     4   8  16  32  54  80 108 144 186 230 278 334
#     4  10  20  41  66  87 116 155 198 244 292 347
#     4  11  24  40  60  90 123 153 192 243 294 350
#     4  11  22  38  60  84 113 152 195 240 289 344
#
# _framework density 18.237850000000002
#
# number of rings (size 3 to 8) (size 9 to 14) (size 15 to 20)
#    0.000    1.846    1.538    2.308    0.000    7.385 
#    1.385    0.000    0.000    0.000    0.000    0.000 
#    0.000    0.000    0.000    0.000    0.000    0.000 
#
# Total GULP energy -290281.521718 kJ/mol
# GULP energy per Si atom -5582.336956 kJ/mol
# Density = 1.819634 g / cm^3
# Si number density = 18.237850 Si / 1000 Ang^3
#
#
#
# Elastic Constant Matrix: (Units=GPa)
#
#
# Indices 1 2 3 4 5 6 
#
# 1 86.1869 58.9309 50.5868 0.0000 0.0000 0.0000
# 2 58.9309 56.3449 49.1623 0.0000 0.0000 0.0000
# 3 50.5868 49.1623 111.7379 0.0000 0.0000 0.0000
# 4 0.0000 0.0000 0.0000 33.3199 0.0000 0.0000
# 5 0.0000 0.0000 0.0000 0.0000 25.1574 0.0000
# 6 0.0000 0.0000 0.0000 0.0000 0.0000 29.2984
#
#
#
# Elastic Compliance Matrix: (Units=1/GPa)
#
#
# Indices 1 2 3 4 5 6 
#
# 1 0.040748 -0.043047 0.000492 0.000000 0.000000 0.000000
# 2 -0.043047 0.074283 -0.013194 0.000000 0.000000 0.000000
# 3 0.000492 -0.013194 0.014532 0.000000 0.000000 0.000000
# 4 0.000000 0.000000 0.000000 0.030012 0.000000 0.000000
# 5 0.000000 0.000000 0.000000 0.000000 0.039750 0.000000
# 6 0.000000 0.000000 0.000000 0.000000 0.000000 0.034132
#
#
# Mechanical properties :
#
#
# Convention : Reuss Voigt Hill
#
# Bulk Modulus (GPa) = 55.35857 63.51442 59.43649
# Shear Modulus (GPa) = 14.24598 23.92780 19.08689
#
# Velocity S-wave (km/s) = 2.79789 3.62606 3.23856
# Velocity P-wave (km/s) = 6.39196 7.24102 6.82969
#
# Compressibility (1/GPa) = 0.01806405
#
# Stress axis : x y z
#
# Youngs Moduli (GPa) = 24.54128 13.46198 68.81452
#
# Poissons Ratio (x) = 0.57950 -0.03388
# Poissons Ratio (y) = 1.05644 0.90796
# Poissons Ratio (z) = -0.01208 0.17762
#
# Static dielectric constant tensor:
#      x y z
#    x 1.639900 0.000000 0.000000 
#    y 0.000000 1.614640 0.000000 
#    z 0.000000 0.000000 1.596230 
# 
# From -- ./inp_files/68236.got.cif
#   From: 2010.05.17/outbox.cif.g08.bks.cpg/sg74_35_cif.got.tgz:68236.got - 2010.06.03 17:57:02.
