data_PCOD9538412
_publ_section_title
;
Structure prediction by ZEFSAII (Michael W. Deem and Ramdas Pophale) SiO2 
 PCOD9538412
Probable space group: I M M A
;
_chemical_formula_sum "Si O2"
_cell_formula_units_Z 72
_cell_length_a 27.210904
_cell_length_b 15.901928
_cell_length_c 8.183748
_cell_angle_alpha 90.000000
_cell_angle_beta 90.000000
_cell_angle_gamma 90.000000
_cell_volume 3541.155522
_symmetry_space_group_name_H-M "I M M A"
_symmetry_group_IT_number 74
_symmetry_cell_setting 'orthorhombic'
loop_
_space_group_symop_operation_xyz
x,y,z
-x,1/2-y,z
x,-y,-z
-x,1/2+y,-z
-x,-y,-z
x,1/2+y,-z
-x,y,z
x,1/2-y,z
1/2+x,1/2+y,1/2+z
1/2-x,-y,1/2+z
1/2+x,1/2-y,1/2-z
1/2-x,y,1/2-z
1/2-x,1/2-y,1/2-z
1/2+x,y,1/2-z
1/2-x,1/2+y,1/2+z
1/2+x,-y,1/2+z
loop_
_atom_site_type_symbol
_atom_site_label
_atom_site_fract_x
_atom_site_fract_y
_atom_site_fract_z
Si Si1 0.304031 0.250000 0.674315
Si Si2 0.696196 0.407372 0.185675
Si Si3 0.552806 0.750000 0.476266
Si Si4 0.342274 0.577815 0.184605
Si Si5 0.556000 0.060166 0.660883
Si Si6 0.153157 0.250000 0.161358
O O1 0.250000 0.250000 0.750000
O O2 0.331862 0.334081 0.729240
O O3 0.305716 0.250000 0.480179
O O4 0.750000 0.384114 0.250000
O O5 0.684918 0.498090 0.263763
O O6 0.660242 0.334575 0.241109
O O7 0.683284 0.413966 0.993289
O O8 0.500000 0.750000 0.563564
O O9 0.555037 0.839801 0.382984
O O10 0.599701 0.750000 0.587759
O O11 0.399871 0.554042 0.206903
O O12 0.500000 0.038183 0.713782
O O13 0.566170 0.000000 0.500000
#
# Coordination Sequence:
#
# PCOD9538412 Si02
#       6
#     8  16   8  16  16   8
#     4  12  23  36  62  93 121 163 219 267 315 383
#     4  11  25  42  60  87 131 171 209 264 327 384
#     4  10  20  37  59  92 123 158 206 261 322 377
#     4  11  23  42  62  91 126 172 215 263 322 391
#     4  10  20  38  65  95 127 165 213 273 329 384
#     4  12  22  39  64  91 122 169 210 269 317 383
#
# _framework density 20.332345
#
# number of rings (size 3 to 8) (size 9 to 14) (size 15 to 20)
#    0.000    1.111    2.222    4.333    0.000    1.778 
#    0.000    3.333    0.000    0.000    0.000    0.000 
#    0.000    0.000    0.000    0.000    0.000    0.000 
#
# Total GULP energy -200606.853827 kJ/mol
# GULP energy per Si atom -5572.412606 kJ/mol
# Density = 2.028607 g / cm^3
# Si number density = 20.332345 Si / 1000 Ang^3
#
#
#
# Elastic Constant Matrix: (Units=GPa)
#
#
# Indices 1 2 3 4 5 6 
#
# 1 139.8882 -14.6471 20.5597 0.0000 0.0000 0.0000
# 2 -14.6471 107.3871 16.2543 0.0000 0.0000 0.0000
# 3 20.5597 16.2543 53.6475 0.0000 0.0000 0.0000
# 4 0.0000 0.0000 0.0000 28.4157 0.0000 0.0000
# 5 0.0000 0.0000 0.0000 0.0000 26.8359 0.0000
# 6 0.0000 0.0000 0.0000 0.0000 0.0000 50.6317
#
#
#
# Elastic Compliance Matrix: (Units=1/GPa)
#
#
# Indices 1 2 3 4 5 6 
#
# 1 0.007827 0.001595 -0.003483 0.000000 0.000000 0.000000
# 2 0.001595 0.010085 -0.003667 0.000000 0.000000 0.000000
# 3 -0.003483 -0.003667 0.021086 0.000000 0.000000 0.000000
# 4 0.000000 0.000000 0.000000 0.035192 0.000000 0.000000
# 5 0.000000 0.000000 0.000000 0.000000 0.037264 0.000000
# 6 0.000000 0.000000 0.000000 0.000000 0.000000 0.019750
#
#
# Mechanical properties :
#
#
# Convention : Reuss Voigt Hill
#
# Bulk Modulus (GPa) = 35.85725 38.36186 37.10956
# Shear Modulus (GPa) = 32.97943 39.76038 36.36991
#
# Velocity S-wave (km/s) = 4.03180 4.42693 4.23397
# Velocity P-wave (km/s) = 6.27278 6.71108 6.49563
#
# Compressibility (1/GPa) = 0.02788836
#
# Stress axis : x y z
#
# Youngs Moduli (GPa) = 127.75554 99.16085 47.42501
#
# Poissons Ratio (x) = -0.15814 0.16518
# Poissons Ratio (y) = -0.20375 0.17389
# Poissons Ratio (z) = 0.44497 0.36359
#
# Static dielectric constant tensor:
#      x y z
#    x 1.754850 0.000000 0.000000 
#    y 0.000000 1.754710 0.000000 
#    z 0.000000 0.000000 1.796500 
# 
# From -- ./inp_files/14757.got.cif
#   From: 2010.05.17/outbox.cif.g08.bks.cpg/sg74_8_cif.got.tgz:14757.got - 2010.06.03 17:57:02.
