data_PCOD9538468
_publ_section_title
;
Structure prediction by ZEFSAII (Michael W. Deem and Ramdas Pophale) SiO2 
 PCOD9538468
Probable space group: I M M A
;
_chemical_formula_sum "Si O2"
_cell_formula_units_Z 88
_cell_length_a 8.582048
_cell_length_b 20.219930
_cell_length_c 24.924126
_cell_angle_alpha 90.000000
_cell_angle_beta 90.000000
_cell_angle_gamma 90.000000
_cell_volume 4325.043951
_symmetry_space_group_name_H-M "I M M A"
_symmetry_group_IT_number 74
_symmetry_cell_setting 'orthorhombic'
loop_
_space_group_symop_operation_xyz
x,y,z
-x,1/2-y,z
x,-y,-z
-x,1/2+y,-z
-x,-y,-z
x,1/2+y,-z
-x,y,z
x,1/2-y,z
1/2+x,1/2+y,1/2+z
1/2-x,-y,1/2+z
1/2+x,1/2-y,1/2-z
1/2-x,y,1/2-z
1/2-x,1/2-y,1/2-z
1/2+x,y,1/2-z
1/2-x,1/2+y,1/2+z
1/2+x,-y,1/2+z
loop_
_atom_site_type_symbol
_atom_site_label
_atom_site_fract_x
_atom_site_fract_y
_atom_site_fract_z
Si Si1 0.813614 0.989897 0.306122
Si Si2 0.312208 0.076415 0.996770
Si Si3 0.188819 0.127423 0.617910
Si Si4 0.187187 0.356976 0.307129
Si Si5 0.813810 0.250000 0.811669
Si Si6 0.314214 0.321791 0.420089
O O1 0.750000 0.963316 0.250000
O O2 0.767814 0.941542 0.353506
O O3 0.000000 0.990683 0.303708
O O4 0.763030 0.065678 0.311856
O O5 0.500000 0.073682 0.994545
O O6 0.261821 0.118074 0.048122
O O7 0.260570 0.117001 0.943697
O O8 0.257272 0.000000 0.000000
O O9 0.257682 0.186628 0.653482
O O10 0.000000 0.134519 0.618831
O O11 0.250000 0.332682 0.250000
O O12 0.258459 0.323162 0.358856
O O13 0.000000 0.352607 0.308069
O O14 0.750000 0.250000 0.750000
O O15 0.000000 0.250000 0.808274
O O16 0.500000 0.327815 0.422240
O O17 0.269265 0.250000 0.443688
#
# Coordination Sequence:
#
# PCOD9538468 Si02
#       6
#    16  16  16  16   8  16
#     4   9  18  33  56  86 118 150 191 245 299 358
#     4  10  22  42  68  95 123 159 207 260 314 376
#     4  10  21  38  61  88 120 157 201 251 308 371
#     4  10  20  37  62  91 122 157 200 248 305 366
#     4  12  26  42  60  86 124 166 213 262 313 374
#     4  11  25  42  60  87 125 163 204 253 303 362
#
# _framework density 20.346615
#
# number of rings (size 3 to 8) (size 9 to 14) (size 15 to 20)
#    0.000    1.818    0.000    3.545    1.273    8.727 
#    0.000    1.818    0.000    0.000    0.000    0.000 
#    0.000    0.000    0.000    0.000    0.000    0.000 
#
# Total GULP energy -245747.714958 kJ/mol
# GULP energy per Si atom -5585.175340 kJ/mol
# Density = 2.030031 g / cm^3
# Si number density = 20.346615 Si / 1000 Ang^3
#
#
#
# Elastic Constant Matrix: (Units=GPa)
#
#
# Indices 1 2 3 4 5 6 
#
# 1 21.4195 24.4030 15.9003 0.0000 0.0000 0.0000
# 2 24.4030 117.5003 59.0908 0.0000 0.0000 0.0000
# 3 15.9003 59.0908 131.8256 0.0000 0.0000 0.0000
# 4 0.0000 0.0000 0.0000 30.6015 0.0000 0.0000
# 5 0.0000 0.0000 0.0000 0.0000 31.4276 0.0000
# 6 0.0000 0.0000 0.0000 0.0000 0.0000 4.2441
#
#
#
# Elastic Compliance Matrix: (Units=1/GPa)
#
#
# Indices 1 2 3 4 5 6 
#
# 1 0.061643 -0.011701 -0.002190 0.000000 0.000000 0.000000
# 2 -0.011701 0.013208 -0.004509 0.000000 0.000000 0.000000
# 3 -0.002190 -0.004509 0.009871 0.000000 0.000000 0.000000
# 4 0.000000 0.000000 0.000000 0.032678 0.000000 0.000000
# 5 0.000000 0.000000 0.000000 0.000000 0.031819 0.000000
# 6 0.000000 0.000000 0.000000 0.000000 0.000000 0.235619
#
#
# Mechanical properties :
#
#
# Convention : Reuss Voigt Hill
#
# Bulk Modulus (GPa) = 20.86729 52.17039 36.51884
# Shear Modulus (GPa) = 11.42560 24.67808 18.05184
#
# Velocity S-wave (km/s) = 2.37227 3.48643 2.98185
# Velocity P-wave (km/s) = 4.21684 6.47328 5.46283
#
# Compressibility (1/GPa) = 0.04792188
#
# Stress axis : x y z
#
# Youngs Moduli (GPa) = 16.22243 75.70910 101.30397
#
# Poissons Ratio (x) = 0.88586 0.22188
# Poissons Ratio (y) = 0.18982 0.45682
# Poissons Ratio (z) = 0.03553 0.34140
#
# Static dielectric constant tensor:
#      x y z
#    x 1.686140 0.000000 0.000000 
#    y 0.000000 1.740710 0.000000 
#    z 0.000000 0.000000 1.709610 
# 
# From -- ./inp_files/56948.got.cif
#   From: 2010.05.17/outbox.cif.g08.bks.cpg/sg74_29_cif.got.tgz:56948.got - 2010.06.03 17:57:02.
