data_PCOD9538280
_publ_section_title
;
Structure prediction by ZEFSAII (Michael W. Deem and Ramdas Pophale) SiO2 
 PCOD9538280
Probable space group: I M M A
;
_chemical_formula_sum "Si O2"
_cell_formula_units_Z 88
_cell_length_a 22.141595
_cell_length_b 12.608223
_cell_length_c 15.805037
_cell_angle_alpha 90.000000
_cell_angle_beta 90.000000
_cell_angle_gamma 90.000000
_cell_volume 4412.231604
_symmetry_space_group_name_H-M "I M M A"
_symmetry_group_IT_number 74
_symmetry_cell_setting 'orthorhombic'
loop_
_space_group_symop_operation_xyz
x,y,z
-x,1/2-y,z
x,-y,-z
-x,1/2+y,-z
-x,-y,-z
x,1/2+y,-z
-x,y,z
x,1/2-y,z
1/2+x,1/2+y,1/2+z
1/2-x,-y,1/2+z
1/2+x,1/2-y,1/2-z
1/2-x,y,1/2-z
1/2-x,1/2-y,1/2-z
1/2+x,y,1/2-z
1/2-x,1/2+y,1/2+z
1/2+x,-y,1/2+z
loop_
_atom_site_type_symbol
_atom_site_label
_atom_site_fract_x
_atom_site_fract_y
_atom_site_fract_z
Si Si1 0.677598 0.518922 0.601655
Si Si2 0.933000 0.434923 0.647284
Si Si3 0.692609 0.523116 0.901013
Si Si4 0.931478 0.628685 0.161075
Si Si5 0.433428 0.250000 0.989286
Si Si6 0.836646 0.750000 0.633962
Si Si7 0.187281 0.250000 0.189043
O O1 0.678322 0.500000 0.500000
O O2 0.743994 0.474555 0.630678
O O3 0.620441 0.452312 0.633673
O O4 0.675320 0.641216 0.636090
O O5 0.870925 0.499923 0.643759
O O6 0.933563 0.376394 0.737004
O O7 0.926770 0.351407 0.571170
O O8 0.000000 0.487051 0.637892
O O9 0.701450 0.647242 0.888924
O O10 0.685286 0.500000 0.000000
O O11 0.918429 0.750000 0.134625
O O12 0.000000 0.601337 0.131708
O O13 0.500000 0.250000 0.024442
O O14 0.389248 0.250000 0.066333
O O15 0.858084 0.750000 0.730382
O O16 0.250000 0.250000 0.250000
#
# Coordination Sequence:
#
# PCOD9538280 Si02
#       7
#    16  16  16  16   8   8   8
#     4  11  26  45  71 100 129 178 239 284 351 422
#     4  10  20  37  61  92 132 176 217 265 331 397
#     4  11  22  37  60  92 128 170 226 269 317 402
#     4  10  22  43  70  99 132 172 224 295 364 416
#     4  10  20  36  59  91 132 177 218 257 316 404
#     4  12  22  38  62  88 130 185 216 260 341 391
#     4  12  24  46  71  94 147 190 215 283 363 402
#
# _framework density 19.944555000000001
#
# number of rings (size 3 to 8) (size 9 to 14) (size 15 to 20)
#    0.000    1.273    4.545    1.091    1.273    1.455 
#    3.273    2.273    0.000    0.000    0.000    0.000 
#    0.000    0.000    0.000    0.000    0.000    0.000 
#
# Total GULP energy -244991.907137 kJ/mol
# GULP energy per Si atom -5567.997889 kJ/mol
# Density = 1.989916 g / cm^3
# Si number density = 19.944555 Si / 1000 Ang^3
#
#
#
# Elastic Constant Matrix: (Units=GPa)
#
#
# Indices 1 2 3 4 5 6 
#
# 1 186.7335 76.1413 35.2765 0.0000 0.0000 0.0000
# 2 76.1413 108.7961 33.0963 0.0000 0.0000 0.0000
# 3 35.2765 33.0963 96.6974 0.0000 0.0000 0.0000
# 4 0.0000 0.0000 0.0000 38.9698 0.0000 0.0000
# 5 0.0000 0.0000 0.0000 0.0000 31.7505 0.0000
# 6 0.0000 0.0000 0.0000 0.0000 0.0000 23.1072
#
#
#
# Elastic Compliance Matrix: (Units=1/GPa)
#
#
# Indices 1 2 3 4 5 6 
#
# 1 0.007590 -0.004989 -0.001061 0.000000 0.000000 0.000000
# 2 -0.004989 0.013539 -0.002814 0.000000 0.000000 0.000000
# 3 -0.001061 -0.002814 0.011692 0.000000 0.000000 0.000000
# 4 0.000000 0.000000 0.000000 0.025661 0.000000 0.000000
# 5 0.000000 0.000000 0.000000 0.000000 0.031496 0.000000
# 6 0.000000 0.000000 0.000000 0.000000 0.000000 0.043277
#
#
# Mechanical properties :
#
#
# Convention : Reuss Voigt Hill
#
# Bulk Modulus (GPa) = 66.25873 75.69502 70.97688
# Shear Modulus (GPa) = 32.04854 35.27971 33.66412
#
# Velocity S-wave (km/s) = 4.01294 4.21038 4.11285
# Velocity P-wave (km/s) = 7.40035 7.85312 7.63009
#
# Compressibility (1/GPa) = 0.01509235
#
# Stress axis : x y z
#
# Youngs Moduli (GPa) = 131.75186 73.86018 85.52969
#
# Poissons Ratio (x) = 0.36849 0.09078
# Poissons Ratio (y) = 0.65731 0.24067
# Poissons Ratio (z) = 0.13984 0.20784
#
# Static dielectric constant tensor:
#      x y z
#    x 1.810200 0.000000 0.000000 
#    y 0.000000 1.732310 0.000000 
#    z 0.000000 0.000000 1.731780 
# 
# From -- ./inp_files/36292.got.cif
#   From: 2010.05.17/outbox.cif.g08.bks.cpg/sg74_19_cif.got.tgz:36292.got - 2010.06.03 17:57:02.
