data_PCOD9538796
_publ_section_title
;
Structure prediction by ZEFSAII (Michael W. Deem and Ramdas Pophale) SiO2 
 PCOD9538796
Probable space group: I M M A
;
_chemical_formula_sum "Si O2"
_cell_formula_units_Z 80
_cell_length_a 14.782467
_cell_length_b 27.524069
_cell_length_c 9.497101
_cell_angle_alpha 90.000000
_cell_angle_beta 90.000000
_cell_angle_gamma 90.000000
_cell_volume 3864.120069
_symmetry_space_group_name_H-M "I M M A"
_symmetry_group_IT_number 74
_symmetry_cell_setting 'orthorhombic'
loop_
_space_group_symop_operation_xyz
x,y,z
-x,1/2-y,z
x,-y,-z
-x,1/2+y,-z
-x,-y,-z
x,1/2+y,-z
-x,y,z
x,1/2-y,z
1/2+x,1/2+y,1/2+z
1/2-x,-y,1/2+z
1/2+x,1/2-y,1/2-z
1/2-x,y,1/2-z
1/2-x,1/2-y,1/2-z
1/2+x,y,1/2-z
1/2-x,1/2+y,1/2+z
1/2+x,-y,1/2+z
loop_
_atom_site_type_symbol
_atom_site_label
_atom_site_fract_x
_atom_site_fract_y
_atom_site_fract_z
Si Si1 0.394132 0.898159 0.659833
Si Si2 0.388763 0.107931 0.657913
Si Si3 0.652607 0.303168 0.177376
Si Si4 0.890566 0.304099 0.644097
Si Si5 0.895511 0.001777 0.828272
O O1 0.500000 0.908635 0.637319
O O2 0.357524 0.886380 0.503965
O O3 0.389215 0.851802 0.758920
O O4 0.356143 0.949581 0.716764
O O5 0.500000 0.107924 0.658110
O O6 0.361356 0.152788 0.754058
O O7 0.357831 0.054674 0.710398
O O8 0.609113 0.250000 0.207549
O O9 0.750000 0.301652 0.250000
O O10 0.653604 0.307743 0.009339
O O11 0.872165 0.250000 0.702263
O O12 0.000000 0.307545 0.623876
O O13 0.000000 0.003566 0.780216
O O14 0.894731 0.000000 0.000000
#
# Coordination Sequence:
#
# PCOD9538796 Si02
#       5
#    16  16  16  16  16
#     4   9  16  28  50  74  91 115 155 195 226 267
#     4   8  14  26  47  74  99 120 146 185 232 279
#     4  10  21  35  47  61  88 126 160 191 234 282
#     4   9  17  30  48  70  97 126 154 190 236 278
#     4   7  11  22  42  69  97 120 142 175 224 274
#
# _framework density 20.703291
#
# number of rings (size 3 to 8) (size 9 to 14) (size 15 to 20)
#    0.000    3.400    0.000    3.000    0.000    2.000 
#    0.000    4.000    0.000   15.600    0.000    0.000 
#    0.000    0.000    0.000    0.000    0.000    0.000 
#
# Total GULP energy -222669.050886 kJ/mol
# GULP energy per Si atom -5566.726272 kJ/mol
# Density = 2.065617 g / cm^3
# Si number density = 20.703291 Si / 1000 Ang^3
#
#
#
# Elastic Constant Matrix: (Units=GPa)
#
#
# Indices 1 2 3 4 5 6 
#
# 1 39.3729 6.3030 -0.6498 0.0032 -0.0001 0.0015
# 2 6.3030 246.8876 85.8612 -0.0013 -0.0001 0.0012
# 3 -0.6498 85.8612 53.5984 -0.0084 -0.0007 -0.0058
# 4 0.0032 -0.0013 -0.0084 211.2991 -0.0028 0.0414
# 5 -0.0001 -0.0001 -0.0007 -0.0028 -10.3828 0.0146
# 6 0.0015 0.0012 -0.0058 0.0414 0.0146 950.7563
#
#
#
# Elastic Compliance Matrix: (Units=1/GPa)
#
#
# Indices 1 2 3 4 5 6 
#
# 1 0.025726 -0.001728 0.003080 0.000000 -0.000001 0.000000
# 2 -0.001728 0.009262 -0.014857 -0.000001 0.000001 0.000000
# 3 0.003080 -0.014857 0.042495 0.000002 -0.000003 0.000000
# 4 0.000000 -0.000001 0.000002 0.004733 -0.000001 0.000000
# 5 -0.000001 0.000001 -0.000003 -0.000001 -0.096313 0.000001
# 6 0.000000 0.000000 0.000000 0.000000 0.000001 0.001052
#
#
# Mechanical properties :
#
#
# Convention : Reuss Voigt Hill
#
# Bulk Modulus (GPa) = 19.81316 58.09862 38.95589
# Shear Modulus (GPa) = 162.40009 246.89084 204.64546
#
# Velocity S-wave (km/s) = 8.86634 10.93210 9.95296
# Velocity P-wave (km/s) = 10.69611 13.69201 12.28572
#
# Compressibility (1/GPa) = 0.05047150
#
# Stress axis : x y z
#
# Youngs Moduli (GPa) = 38.87175 107.97345 23.53213
#
# Poissons Ratio (x) = 0.18656 -0.07247
# Poissons Ratio (y) = 0.06716 0.34962
# Poissons Ratio (z) = -0.11972 1.60420
#
# Static dielectric constant tensor:
#      x y z
#    x 1.794810 0.000000 0.000000 
#    y 0.000000 1.815890 0.000000 
#    z 0.000000 0.000000 1.691680 
# 
# From -- ./inp_files/10937.got.cif
#   From: 2010.05.17/outbox.cif.g08.bks.cpg/sg74_6_cif.got.tgz:10937.got - 2010.06.03 17:57:02.
