data_PCOD9538147
_publ_section_title
;
Structure prediction by ZEFSAII (Michael W. Deem and Ramdas Pophale) SiO2 
 PCOD9538147
Probable space group: I M M A
;
_chemical_formula_sum "Si O2"
_cell_formula_units_Z 72
_cell_length_a 9.441361
_cell_length_b 33.719614
_cell_length_c 13.789056
_cell_angle_alpha 90.000000
_cell_angle_beta 90.000000
_cell_angle_gamma 90.000000
_cell_volume 4389.870749
_symmetry_space_group_name_H-M "I M M A"
_symmetry_group_IT_number 74
_symmetry_cell_setting 'orthorhombic'
loop_
_space_group_symop_operation_xyz
x,y,z
-x,1/2-y,z
x,-y,-z
-x,1/2+y,-z
-x,-y,-z
x,1/2+y,-z
-x,y,z
x,1/2-y,z
1/2+x,1/2+y,1/2+z
1/2-x,-y,1/2+z
1/2+x,1/2-y,1/2-z
1/2-x,y,1/2-z
1/2-x,1/2-y,1/2-z
1/2+x,y,1/2-z
1/2-x,1/2+y,1/2+z
1/2+x,-y,1/2+z
loop_
_atom_site_type_symbol
_atom_site_label
_atom_site_fract_x
_atom_site_fract_y
_atom_site_fract_z
Si Si1 0.000000 0.018333 0.221121
Si Si2 0.500000 0.456689 0.055037
Si Si3 0.823675 0.750000 0.357105
Si Si4 0.323587 0.170314 0.643075
Si Si5 0.229693 0.412854 0.564002
Si Si6 0.750000 0.460017 0.750000
Si Si7 0.000000 0.453605 0.020188
O O1 0.000000 0.034557 0.330778
O O2 0.000000 0.050636 0.136484
O O3 0.133824 0.989706 0.208369
O O4 0.500000 0.500000 0.000000
O O5 0.373216 0.429059 0.018441
O O6 0.750000 0.750000 0.250000
O O7 0.751955 0.710051 0.399005
O O8 0.000000 0.750000 0.354284
O O9 0.500000 0.172199 0.648477
O O10 0.250000 0.165441 0.750000
O O11 0.267477 0.132816 0.582053
O O12 0.184701 0.432310 0.666759
O O13 0.371102 0.433698 0.531902
O O14 0.000000 0.500000 0.000000
#
# Coordination Sequence:
#
# PCOD9538147 Si02
#       7
#     8   8   8  16  16   8   8
#     4  12  24  36  56  70 106 144 198 238 290 316
#     4  12  24  38  52  79 105 149 191 247 279 329
#     4  10  20  36  56  82 114 151 180 219 275 335
#     4  11  22  35  57  83 115 150 184 227 273 335
#     4  12  23  35  55  81 112 145 196 231 278 324
#     4  12  20  34  54  77 102 150 188 239 268 328
#     4  12  22  38  54  75 105 149 191 239 279 333
#
# _framework density 16.401394
#
# number of rings (size 3 to 8) (size 9 to 14) (size 15 to 20)
#    0.000    0.444    6.667    5.000    3.111    0.000 
#    0.000    0.000    0.000    0.000    0.000    0.000 
#    0.000    5.333    0.000    0.000    0.000    0.000 
#
# Total GULP energy -200415.192942 kJ/mol
# GULP energy per Si atom -5567.088693 kJ/mol
# Density = 1.636406 g / cm^3
# Si number density = 16.401394 Si / 1000 Ang^3
#
#
#
# Elastic Constant Matrix: (Units=GPa)
#
#
# Indices 1 2 3 4 5 6 
#
# 1 109.4883 41.4322 -6.7755 0.0001 0.0001 0.0000
# 2 41.4322 150.9732 32.8955 -0.0001 0.0000 0.0000
# 3 -6.7755 32.8955 77.3278 -0.0003 -0.0001 0.0000
# 4 0.0001 -0.0001 -0.0003 25.9428 -0.0002 0.0000
# 5 0.0001 0.0000 -0.0001 -0.0002 19.7049 0.0000
# 6 0.0000 0.0000 0.0000 0.0000 0.0000 31.0030
#
#
#
# Elastic Compliance Matrix: (Units=1/GPa)
#
#
# Indices 1 2 3 4 5 6 
#
# 1 0.010575 -0.003421 0.002382 0.000000 0.000000 0.000000
# 2 -0.003421 0.008407 -0.003876 0.000000 0.000000 0.000000
# 3 0.002382 -0.003876 0.014790 0.000000 0.000000 0.000000
# 4 0.000000 0.000000 0.000000 0.038546 0.000000 0.000000
# 5 0.000000 0.000000 0.000000 0.000000 0.050749 0.000000
# 6 0.000000 0.000000 0.000000 0.000000 0.000000 0.032255
#
#
# Mechanical properties :
#
#
# Convention : Reuss Voigt Hill
#
# Bulk Modulus (GPa) = 41.76866 52.54374 47.15620
# Shear Modulus (GPa) = 28.87937 33.34593 31.11265
#
# Velocity S-wave (km/s) = 4.20073 4.51390 4.36013
# Velocity P-wave (km/s) = 7.00357 7.69888 7.35944
#
# Compressibility (1/GPa) = 0.02394140
#
# Stress axis : x y z
#
# Youngs Moduli (GPa) = 94.55833 118.94562 67.61487
#
# Poissons Ratio (x) = 0.40695 -0.16106
# Poissons Ratio (y) = 0.32351 0.26209
# Poissons Ratio (z) = -0.22524 0.46106
#
# Static dielectric constant tensor:
#      x y z
#    x 1.595530 0.000000 0.000000 
#    y 0.000000 1.585140 0.000000 
#    z 0.000000 0.000000 1.559900 
# 
# From -- ./inp_files/29461.got.cif
#   From: 2010.05.17/outbox.cif.g08.bks.cpg/sg74_15_cif.got.tgz:29461.got - 2010.06.03 17:57:02.
