data_PCOD9538202
_publ_section_title
;
Structure prediction by ZEFSAII (Michael W. Deem and Ramdas Pophale) SiO2 
 PCOD9538202
Probable space group: I M M A
;
_chemical_formula_sum "Si O2"
_cell_formula_units_Z 68
_cell_length_a 7.722055
_cell_length_b 21.760530
_cell_length_c 20.940573
_cell_angle_alpha 90.000000
_cell_angle_beta 90.000000
_cell_angle_gamma 90.000000
_cell_volume 3518.770323
_symmetry_space_group_name_H-M "I M M A"
_symmetry_group_IT_number 74
_symmetry_cell_setting 'orthorhombic'
loop_
_space_group_symop_operation_xyz
x,y,z
-x,1/2-y,z
x,-y,-z
-x,1/2+y,-z
-x,-y,-z
x,1/2+y,-z
-x,y,z
x,1/2-y,z
1/2+x,1/2+y,1/2+z
1/2-x,-y,1/2+z
1/2+x,1/2-y,1/2-z
1/2-x,y,1/2-z
1/2-x,1/2-y,1/2-z
1/2+x,y,1/2-z
1/2-x,1/2+y,1/2+z
1/2+x,-y,1/2+z
loop_
_atom_site_type_symbol
_atom_site_label
_atom_site_fract_x
_atom_site_fract_y
_atom_site_fract_z
Si Si1 0.293937 0.489412 0.322640
Si Si2 0.790518 0.850995 0.853041
Si Si3 0.792546 0.181715 0.498721
Si Si4 0.295272 0.447009 0.952043
Si Si5 0.750000 0.250000 0.250000
O O1 0.500000 0.488456 0.328614
O O2 0.250000 0.506609 0.250000
O O3 0.231848 0.419957 0.337083
O O4 0.225984 0.532210 0.379211
O O5 0.714619 0.803315 0.803380
O O6 0.000000 0.846605 0.846189
O O7 0.742801 0.832189 0.924477
O O8 0.723954 0.250000 0.514802
O O9 0.723477 0.121211 0.534970
O O10 0.000000 0.184141 0.508414
O O11 0.500000 0.443511 0.966420
O O12 0.223469 0.500000 0.000000
#
# Coordination Sequence:
#
# PCOD9538202 Si02
#       5
#    16  16  16  16   4
#     4  11  23  38  56  81 112 148 189 234 283 329
#     4  11  23  35  51  77 110 150 191 227 263 319
#     4  10  21  36  56  81 111 146 183 226 277 328
#     4  10  20  36  58  84 112 146 188 233 279 331
#     4  12  22  36  48  74 118 160 188 214 266 320
#
# _framework density 19.324933000000001
#
# number of rings (size 3 to 8) (size 9 to 14) (size 15 to 20)
#    0.000    1.412    4.706    1.059    0.000    4.235 
#    0.000    0.000    0.000    0.706    0.000    0.000 
#    0.000    0.000    0.000    0.000    0.000    0.000 
#
# Total GULP energy -189386.285687 kJ/mol
# GULP energy per Si atom -5570.184873 kJ/mol
# Density = 1.928095 g / cm^3
# Si number density = 19.324933 Si / 1000 Ang^3
#
#
#
# Elastic Constant Matrix: (Units=GPa)
#
#
# Indices 1 2 3 4 5 6 
#
# 1 30.2660 7.9233 -17.9534 0.0000 0.0000 0.0000
# 2 7.9233 193.0956 107.5781 0.0000 0.0000 0.0000
# 3 -17.9534 107.5781 98.9839 0.0000 0.0000 0.0000
# 4 0.0000 0.0000 0.0000 42.7977 0.0000 0.0000
# 5 0.0000 0.0000 0.0000 0.0000 76.6797 0.0000
# 6 0.0000 0.0000 0.0000 0.0000 0.0000 5.8858
#
#
#
# Elastic Compliance Matrix: (Units=1/GPa)
#
#
# Indices 1 2 3 4 5 6 
#
# 1 0.058382 -0.021026 0.033441 0.000000 0.000000 0.000000
# 2 -0.021026 0.020700 -0.026311 0.000000 0.000000 0.000000
# 3 0.033441 -0.026311 0.044764 0.000000 0.000000 0.000000
# 4 0.000000 0.000000 0.000000 0.023366 0.000000 0.000000
# 5 0.000000 0.000000 0.000000 0.000000 0.013041 0.000000
# 6 0.000000 0.000000 0.000000 0.000000 0.000000 0.169901
#
#
# Mechanical properties :
#
#
# Convention : Reuss Voigt Hill
#
# Bulk Modulus (GPa) = 10.41095 57.49350 33.95222
# Shear Modulus (GPa) = 12.82171 40.05914 26.44043
#
# Velocity S-wave (km/s) = 2.57861 4.55788 3.70294
# Velocity P-wave (km/s) = 3.77685 7.58383 5.99079
#
# Compressibility (1/GPa) = 0.09605274
#
# Stress axis : x y z
#
# Youngs Moduli (GPa) = 17.12866 48.30898 22.33954
#
# Poissons Ratio (x) = 1.01577 -0.74706
# Poissons Ratio (y) = 0.36015 0.58778
# Poissons Ratio (z) = -0.57280 1.27106
#
# Static dielectric constant tensor:
#      x y z
#    x 1.744410 0.000000 0.000000 
#    y 0.000000 1.707930 0.000000 
#    z 0.000000 0.000000 1.646040 
# 
# From -- ./inp_files/39212.got.cif
#   From: 2010.05.17/outbox.cif.g08.bks.cpg/sg74_20_cif.got.tgz:39212.got - 2010.06.03 17:57:02.
