data_PCOD9538687
_publ_section_title
;
Structure prediction by ZEFSAII (Michael W. Deem and Ramdas Pophale) SiO2 
 PCOD9538687
Probable space group: I M M A
;
_chemical_formula_sum "Si O2"
_cell_formula_units_Z 108
_cell_length_a 15.512238
_cell_length_b 29.315318
_cell_length_c 11.602288
_cell_angle_alpha 90.000000
_cell_angle_beta 90.000000
_cell_angle_gamma 90.000000
_cell_volume 5276.096262
_symmetry_space_group_name_H-M "I M M A"
_symmetry_group_IT_number 74
_symmetry_cell_setting 'orthorhombic'
loop_
_space_group_symop_operation_xyz
x,y,z
-x,1/2-y,z
x,-y,-z
-x,1/2+y,-z
-x,-y,-z
x,1/2+y,-z
-x,y,z
x,1/2-y,z
1/2+x,1/2+y,1/2+z
1/2-x,-y,1/2+z
1/2+x,1/2-y,1/2-z
1/2-x,y,1/2-z
1/2-x,1/2-y,1/2-z
1/2+x,y,1/2-z
1/2-x,1/2+y,1/2+z
1/2+x,-y,1/2+z
loop_
_atom_site_type_symbol
_atom_site_label
_atom_site_fract_x
_atom_site_fract_y
_atom_site_fract_z
Si Si1 0.000000 0.500000 0.000000
Si Si2 0.903355 0.139014 0.520666
Si Si3 0.265050 0.302135 0.115284
Si Si4 0.848082 0.567427 0.072819
Si Si5 0.398694 0.048518 0.830156
Si Si6 0.797036 0.500000 0.500000
Si Si7 0.900870 0.829461 0.020948
Si Si8 0.651606 0.697599 0.232735
O O1 0.073953 0.462074 0.973990
O O2 0.830372 0.160541 0.438479
O O3 0.892714 0.088129 0.572762
O O4 0.895790 0.169315 0.635800
O O5 0.000000 0.142457 0.470839
O O6 0.297834 0.250000 0.097387
O O7 0.250000 0.309804 0.250000
O O8 0.171331 0.305772 0.056400
O O9 0.850925 0.562378 0.212268
O O10 0.764704 0.543706 0.016705
O O11 0.865862 0.619247 0.039600
O O12 0.500000 0.042194 0.802925
O O13 0.357575 0.003544 0.887510
O O14 0.896098 0.806747 0.146554
O O15 0.000000 0.828942 0.979580
O O16 0.658263 0.750000 0.196359
O O17 0.750000 0.680325 0.250000
#
# Coordination Sequence:
#
# PCOD9538687 Si02
#       8
#     4  16  16  16  16   8  16  16
#     4  10  20  40  62  94 120 172 210 256 312 412
#     4  11  23  41  71 101 129 175 220 274 338 404
#     4  11  26  46  65  90 134 186 231 274 320 389
#     4  11  22  42  67  94 129 168 214 262 336 394
#     4  11  22  43  67  95 132 170 211 268 343 395
#     4  11  25  35  63  94 124 168 215 269 313 399
#     4  12  23  41  70  99 131 171 218 274 337 400
#     4  11  22  36  62 105 144 171 206 268 337 404
#
# _framework density 20.46968
#
# number of rings (size 3 to 8) (size 9 to 14) (size 15 to 20)
#    0.000    0.889    4.444    2.889    0.000    3.556 
#    0.000   10.370    3.259    0.000    0.000    0.000 
#    0.000    0.000    0.000    0.000    0.000    0.000 
#
# Total GULP energy -301117.827631 kJ/mol
# GULP energy per Si atom -5576.256067 kJ/mol
# Density = 2.042309 g / cm^3
# Si number density = 20.469680 Si / 1000 Ang^3
#
#
#
# Elastic Constant Matrix: (Units=GPa)
#
#
# Indices 1 2 3 4 5 6 
#
# 1 127.0847 36.6453 17.2094 -0.0002 0.0001 0.0002
# 2 36.6453 53.6835 23.4558 -0.0001 -0.0001 0.0000
# 3 17.2094 23.4558 70.4702 -0.0018 -0.0004 0.0000
# 4 -0.0002 -0.0001 -0.0018 17.8069 -0.0001 0.0001
# 5 0.0001 -0.0001 -0.0004 -0.0001 8.1721 -0.0002
# 6 0.0002 0.0000 0.0000 0.0001 -0.0002 85.7156
#
#
#
# Elastic Compliance Matrix: (Units=1/GPa)
#
#
# Indices 1 2 3 4 5 6 
#
# 1 0.009799 -0.006604 -0.000195 0.000000 0.000000 0.000000
# 2 -0.006604 0.026248 -0.007124 -0.000001 0.000000 0.000000
# 3 -0.000195 -0.007124 0.016609 0.000002 0.000001 0.000000
# 4 0.000000 -0.000001 0.000002 0.056158 0.000001 0.000000
# 5 0.000000 0.000000 0.000001 0.000001 0.122368 0.000000
# 6 0.000000 0.000000 0.000000 0.000000 0.000000 0.011666
#
#
# Mechanical properties :
#
#
# Convention : Reuss Voigt Hill
#
# Bulk Modulus (GPa) = 40.30455 45.09547 42.70001
# Shear Modulus (GPa) = 17.92334 33.93410 25.92872
#
# Velocity S-wave (km/s) = 2.96227 4.07599 3.56292
# Velocity P-wave (km/s) = 5.60649 6.65055 6.15071
#
# Compressibility (1/GPa) = 0.02481110
#
# Stress axis : x y z
#
# Youngs Moduli (GPa) = 102.04613 38.09750 60.20766
#
# Poissons Ratio (x) = 0.25160 0.01174
# Poissons Ratio (y) = 0.67393 0.42892
# Poissons Ratio (z) = 0.01989 0.27140
#
# Static dielectric constant tensor:
#      x y z
#    x 1.776360 0.000000 0.000000 
#    y 0.000000 1.822100 0.000000 
#    z 0.000000 0.000000 1.707060 
# 
# From -- ./inp_files/21198.got.cif
#   From: 2010.05.17/outbox.cif.g08.bks.cpg/sg74_11_cif.got.tgz:21198.got - 2010.06.03 17:57:02.
