data_PCOD9538606
_publ_section_title
;
Structure prediction by ZEFSAII (Michael W. Deem and Ramdas Pophale) SiO2 
 PCOD9538606
Probable space group: I M M A
;
_chemical_formula_sum "Si O2"
_cell_formula_units_Z 56
_cell_length_a 32.654833
_cell_length_b 16.560423
_cell_length_c 5.065297
_cell_angle_alpha 90.000000
_cell_angle_beta 90.000000
_cell_angle_gamma 90.000000
_cell_volume 2739.200408
_symmetry_space_group_name_H-M "I M M A"
_symmetry_group_IT_number 74
_symmetry_cell_setting 'orthorhombic'
loop_
_space_group_symop_operation_xyz
x,y,z
-x,1/2-y,z
x,-y,-z
-x,1/2+y,-z
-x,-y,-z
x,1/2+y,-z
-x,y,z
x,1/2-y,z
1/2+x,1/2+y,1/2+z
1/2-x,-y,1/2+z
1/2+x,1/2-y,1/2-z
1/2-x,y,1/2-z
1/2-x,1/2-y,1/2-z
1/2+x,y,1/2-z
1/2-x,1/2+y,1/2+z
1/2+x,-y,1/2+z
loop_
_atom_site_type_symbol
_atom_site_label
_atom_site_fract_x
_atom_site_fract_y
_atom_site_fract_z
Si Si1 0.088542 0.090389 0.885896
Si Si2 0.000000 0.560335 0.243576
Si Si3 0.631652 0.341936 0.099694
Si Si4 0.778633 0.904094 0.503286
O O1 0.112268 0.098166 0.613063
O O2 0.041721 0.110406 0.800638
O O3 0.112321 0.140686 0.111983
O O4 0.088594 0.000000 0.000000
O O5 0.000000 0.500000 0.500000
O O6 0.000000 0.500000 0.000000
O O7 0.621344 0.250000 0.027756
O O8 0.680017 0.355408 0.059757
O O9 0.750000 0.889887 0.750000
O O10 0.789253 0.000000 0.500000
O O11 0.750000 0.885940 0.250000
#
# Coordination Sequence:
#
# PCOD9538606 Si02
#       4
#    16   8  16  16
#     4  11  22  41  66  90 121 164 213 261 309 374
#     4  10  20  38  65  96 119 154 215 268 305 358
#     4  12  25  40  60  93 131 164 202 255 324 386
#     4  10  21  38  61  87 116 157 210 260 308 371
#
# _framework density 20.443925
#
# number of rings (size 3 to 8) (size 9 to 14) (size 15 to 20)
#    0.000    1.143    0.000    8.571    0.000    3.429 
#    0.000    4.286    0.000    0.000    0.000    0.000 
#    0.000    0.000    0.000    0.000    0.000    0.000 
#
# Total GULP energy -156165.012716 kJ/mol
# GULP energy per Si atom -5577.321883 kJ/mol
# Density = 2.039739 g / cm^3
# Si number density = 20.443925 Si / 1000 Ang^3
#
#
#
# Elastic Constant Matrix: (Units=GPa)
#
#
# Indices 1 2 3 4 5 6 
#
# 1 127.5512 23.1889 37.4841 -0.0005 -0.0003 -0.0001
# 2 23.1889 40.3018 3.8182 -0.0001 -0.0009 -0.0001
# 3 37.4841 3.8182 147.8002 0.0028 0.0039 0.0009
# 4 -0.0005 -0.0001 0.0028 16.7554 0.0006 0.0000
# 5 -0.0003 -0.0009 0.0039 0.0006 33.2467 0.0016
# 6 -0.0001 -0.0001 0.0009 0.0000 0.0016 -19.5744
#
#
#
# Elastic Compliance Matrix: (Units=1/GPa)
#
#
# Indices 1 2 3 4 5 6 
#
# 1 0.009455 -0.005226 -0.002263 0.000001 0.000000 0.000000
# 2 -0.005226 0.027762 0.000608 0.000000 0.000001 0.000000
# 3 -0.002263 0.000608 0.007324 -0.000001 -0.000001 0.000000
# 4 0.000001 0.000000 -0.000001 0.059682 -0.000001 0.000000
# 5 0.000000 0.000001 -0.000001 -0.000001 0.030078 0.000003
# 6 0.000000 0.000000 0.000000 0.000000 0.000003 -0.051087
#
#
# Mechanical properties :
#
#
# Convention : Reuss Voigt Hill
#
# Bulk Modulus (GPa) = 32.48875 49.40399 40.94637
# Shear Modulus (GPa) = 46.62614 22.82966 34.72790
#
# Velocity S-wave (km/s) = 4.78083 3.34533 4.12599
# Velocity P-wave (km/s) = 6.81185 6.25617 6.53991
#
# Compressibility (1/GPa) = 0.03077988
#
# Stress axis : x y z
#
# Youngs Moduli (GPa) = 105.76327 36.02040 136.53576
#
# Poissons Ratio (x) = 0.18824 0.30897
# Poissons Ratio (y) = 0.55271 -0.08304
# Poissons Ratio (z) = 0.23933 -0.02191
#
# Static dielectric constant tensor:
#      x y z
#    x 1.724200 0.000000 0.000000 
#    y 0.000000 1.665390 0.000000 
#    z 0.000000 0.000000 1.706590 
# 
# From -- ./inp_files/1497.got.cif
#   From: 2010.05.17/outbox.cif.g08.bks.cpg/sg74_1_cif.got.tgz:1497.got - 2010.06.03 17:57:02.
