data_PCOD9538813
_publ_section_title
;
Structure prediction by ZEFSAII (Michael W. Deem and Ramdas Pophale) SiO2 
 PCOD9538813
Probable space group: I M M A
;
_chemical_formula_sum "Si O2"
_cell_formula_units_Z 96
_cell_length_a 11.193784
_cell_length_b 23.770560
_cell_length_c 16.415256
_cell_angle_alpha 90.000000
_cell_angle_beta 90.000000
_cell_angle_gamma 90.000000
_cell_volume 4367.812588
_symmetry_space_group_name_H-M "I M M A"
_symmetry_group_IT_number 74
_symmetry_cell_setting 'orthorhombic'
loop_
_space_group_symop_operation_xyz
x,y,z
-x,1/2-y,z
x,-y,-z
-x,1/2+y,-z
-x,-y,-z
x,1/2+y,-z
-x,y,z
x,1/2-y,z
1/2+x,1/2+y,1/2+z
1/2-x,-y,1/2+z
1/2+x,1/2-y,1/2-z
1/2-x,y,1/2-z
1/2-x,1/2-y,1/2-z
1/2+x,y,1/2-z
1/2-x,1/2+y,1/2+z
1/2+x,-y,1/2+z
loop_
_atom_site_type_symbol
_atom_site_label
_atom_site_fract_x
_atom_site_fract_y
_atom_site_fract_z
Si Si1 0.133241 0.614361 0.128953
Si Si2 0.364268 0.487289 0.307363
Si Si3 0.633910 0.313882 0.851434
Si Si4 0.633070 0.810619 0.952214
Si Si5 0.322338 0.607652 0.563860
Si Si6 0.373758 0.182790 0.291296
O O1 0.141147 0.552521 0.167438
O O2 0.245469 0.650442 0.161243
O O3 0.000000 0.637996 0.145484
O O4 0.142648 0.608089 0.030485
O O5 0.500000 0.476985 0.274602
O O6 0.250000 0.474951 0.250000
O O7 0.350631 0.448860 0.388107
O O8 0.500000 0.336209 0.828949
O O9 0.643508 0.250000 0.819446
O O10 0.632049 0.309269 0.949911
O O11 0.500000 0.808292 0.921693
O O12 0.689669 0.750000 0.925735
O O13 0.686672 0.870969 0.931624
O O14 0.376294 0.658223 0.617669
O O15 0.500000 0.163377 0.253774
O O16 0.373362 0.250000 0.288675
O O17 0.250000 0.163370 0.250000
#
# Coordination Sequence:
#
# PCOD9538813 Si02
#       6
#    16  16  16  16  16  16
#     4  10  21  37  59  88 118 148 186 238 294 342
#     4  11  25  43  61  81 111 152 195 240 293 351
#     4   8  15  30  53  83 118 150 177 213 270 337
#     4   8  15  28  47  77 118 155 184 222 276 333
#     4  11  20  34  58  85 112 147 195 245 289 334
#     4  10  21  35  51  76 113 155 193 228 270 324
#
# _framework density 21.978964999999999
#
# number of rings (size 3 to 8) (size 9 to 14) (size 15 to 20)
#    0.000    2.333    0.000    4.000    0.000    4.333 
#    0.000    1.667    0.000    5.500    0.000    0.000 
#    0.000    0.000    0.000    0.000    0.000    0.000 
#
# Total GULP energy -267409.626751 kJ/mol
# GULP energy per Si atom -5571.033891 kJ/mol
# Density = 2.192894 g / cm^3
# Si number density = 21.978965 Si / 1000 Ang^3
#
#
#
# Elastic Constant Matrix: (Units=GPa)
#
#
# Indices 1 2 3 4 5 6 
#
# 1 215.3947 64.0636 34.1240 0.0000 0.0000 0.0000
# 2 64.0636 85.8082 3.2012 0.0000 0.0000 0.0000
# 3 34.1240 3.2012 106.0011 0.0000 0.0000 0.0001
# 4 0.0000 0.0000 0.0000 16.2242 0.0000 0.0000
# 5 0.0000 0.0000 0.0000 0.0000 -120.8434 0.0001
# 6 0.0000 0.0000 0.0001 0.0000 0.0001 96.2183
#
#
#
# Elastic Compliance Matrix: (Units=1/GPa)
#
#
# Indices 1 2 3 4 5 6 
#
# 1 0.006327 -0.004653 -0.001896 0.000000 0.000000 0.000000
# 2 -0.004653 0.015089 0.001042 0.000000 0.000000 0.000000
# 3 -0.001896 0.001042 0.010013 0.000000 0.000000 0.000000
# 4 0.000000 0.000000 0.000000 0.061636 0.000000 0.000000
# 5 0.000000 0.000000 0.000000 0.000000 -0.008275 0.000000
# 6 0.000000 0.000000 0.000000 0.000000 0.000000 0.010393
#
#
# Mechanical properties :
#
#
# Convention : Reuss Voigt Hill
#
# Bulk Modulus (GPa) = 48.98439 67.77573 58.38006
# Shear Modulus (GPa) = 44.24712 18.70749 31.47730
#
# Velocity S-wave (km/s) = 4.49169 2.92062 3.78849
# Velocity P-wave (km/s) = 7.01682 6.50207 6.76434
#
# Compressibility (1/GPa) = 0.02041467
#
# Stress axis : x y z
#
# Youngs Moduli (GPa) = 158.05437 66.27426 99.87179
#
# Poissons Ratio (x) = 0.30837 0.18938
# Poissons Ratio (y) = 0.73541 -0.10408
# Poissons Ratio (z) = 0.29971 -0.06907
#
# Static dielectric constant tensor:
#      x y z
#    x 1.641290 0.000000 0.000000 
#    y 0.000000 1.767490 0.000000 
#    z 0.000000 0.000000 1.826970 
# 
# From -- ./inp_files/41496.got.cif
#   From: 2010.05.17/outbox.cif.g08.bks.cpg/sg74_21_cif.got.tgz:41496.got - 2010.06.03 17:57:02.
