data_PCOD9538254
_publ_section_title
;
Structure prediction by ZEFSAII (Michael W. Deem and Ramdas Pophale) SiO2 
 PCOD9538254
Probable space group: I M M A
;
_chemical_formula_sum "Si O2"
_cell_formula_units_Z 96
_cell_length_a 20.459012
_cell_length_b 15.934936
_cell_length_c 14.681437
_cell_angle_alpha 90.000000
_cell_angle_beta 90.000000
_cell_angle_gamma 90.000000
_cell_volume 4786.340008
_symmetry_space_group_name_H-M "I M M A"
_symmetry_group_IT_number 74
_symmetry_cell_setting 'orthorhombic'
loop_
_space_group_symop_operation_xyz
x,y,z
-x,1/2-y,z
x,-y,-z
-x,1/2+y,-z
-x,-y,-z
x,1/2+y,-z
-x,y,z
x,1/2-y,z
1/2+x,1/2+y,1/2+z
1/2-x,-y,1/2+z
1/2+x,1/2-y,1/2-z
1/2-x,y,1/2-z
1/2-x,1/2-y,1/2-z
1/2+x,y,1/2-z
1/2-x,1/2+y,1/2+z
1/2+x,-y,1/2+z
loop_
_atom_site_type_symbol
_atom_site_label
_atom_site_fract_x
_atom_site_fract_y
_atom_site_fract_z
Si Si1 0.374804 0.157250 0.650596
Si Si2 0.929259 0.656006 0.543737
Si Si3 0.672701 0.045036 0.145742
Si Si4 0.925206 0.847031 0.951027
Si Si5 0.426676 0.393835 0.841421
Si Si6 0.321340 0.469654 0.357191
O O1 0.341321 0.250000 0.646941
O O2 0.419557 0.153076 0.560763
O O3 0.412315 0.152111 0.746572
O O4 0.334251 0.070173 0.645446
O O5 0.929029 0.750000 0.579352
O O6 0.869546 0.607972 0.586734
O O7 0.926078 0.657974 0.434462
O O8 0.000000 0.616165 0.566486
O O9 0.674316 0.064222 0.253574
O O10 0.746829 0.041388 0.111421
O O11 0.631452 0.959520 0.143013
O O12 0.910246 0.750000 0.922208
O O13 0.874232 0.915900 0.913532
O O14 0.000000 0.866449 0.924041
O O15 0.500000 0.431177 0.833696
#
# Coordination Sequence:
#
# PCOD9538254 Si02
#       6
#    16  16  16  16  16  16
#     4  10  21  38  61  88 119 153 190 237 292 351
#     4  10  21  36  57  87 118 149 190 240 292 345
#     4  10  22  40  58  81 114 153 196 240 288 343
#     4  10  22  39  60  88 119 152 193 240 289 342
#     4  10  20  36  59  85 116 153 190 232 285 348
#     4  10  23  41  60  84 116 155 198 242 290 344
#
# _framework density 20.057079999999999
#
# number of rings (size 3 to 8) (size 9 to 14) (size 15 to 20)
#    0.000    2.000    0.000    2.500    0.000   11.667 
#    0.000   12.500    0.000    0.000    0.000    0.000 
#    0.000    0.000    0.000    0.000    0.000    0.000 
#
# Total GULP energy -267527.878631 kJ/mol
# GULP energy per Si atom -5573.497471 kJ/mol
# Density = 2.001143 g / cm^3
# Si number density = 20.057080 Si / 1000 Ang^3
#
#
#
# Elastic Constant Matrix: (Units=GPa)
#
#
# Indices 1 2 3 4 5 6 
#
# 1 173.0691 86.0594 51.0788 0.0000 0.0000 0.0000
# 2 86.0594 120.2750 52.4964 0.0000 0.0000 0.0000
# 3 51.0788 52.4964 75.0150 0.0000 0.0000 0.0000
# 4 0.0000 0.0000 0.0000 -0.7316 0.0000 0.0000
# 5 0.0000 0.0000 0.0000 0.0000 5.7088 0.0000
# 6 0.0000 0.0000 0.0000 0.0000 0.0000 19.8047
#
#
#
# Elastic Compliance Matrix: (Units=1/GPa)
#
#
# Indices 1 2 3 4 5 6 
#
# 1 0.009261 -0.005578 -0.002402 0.000000 0.000000 0.000000
# 2 -0.005578 0.015330 -0.006930 0.000000 0.000000 0.000000
# 3 -0.002402 -0.006930 0.019816 0.000000 0.000000 0.000000
# 4 0.000000 0.000000 0.000000 -1.366909 0.000000 0.000000
# 5 0.000000 0.000000 0.000000 0.000000 0.175169 0.000000
# 6 0.000000 0.000000 0.000000 0.000000 0.000000 0.050493
#
#
# Mechanical properties :
#
#
# Convention : Reuss Voigt Hill
#
# Bulk Modulus (GPa) = 68.55667 83.06979 75.81323
# Shear Modulus (GPa) = -4.70740 16.87134 6.08197
#
# Velocity S-wave (km/s) = -1.53366 2.90343 1.74325
# Velocity P-wave (km/s) = 5.57843 7.26268 6.47554
#
# Compressibility (1/GPa) = 0.01458647
#
# Stress axis : x y z
#
# Youngs Moduli (GPa) = 107.98521 65.23171 50.46328
#
# Poissons Ratio (x) = 0.36383 0.12123
# Poissons Ratio (y) = 0.60229 0.34972
# Poissons Ratio (z) = 0.25942 0.45207
#
# Static dielectric constant tensor:
#      x y z
#    x 1.692350 0.000000 0.000000 
#    y 0.000000 1.717110 0.000000 
#    z 0.000000 0.000000 1.721670 
# 
# From -- ./inp_files/32409.got.cif
#   From: 2010.05.17/outbox.cif.g08.bks.cpg/sg74_17_cif.got.tgz:32409.got - 2010.06.03 17:57:02.
