data_PCOD9538453
_publ_section_title
;
Structure prediction by ZEFSAII (Michael W. Deem and Ramdas Pophale) SiO2 
 PCOD9538453
Probable space group: I M M A
;
_chemical_formula_sum "Si O2"
_cell_formula_units_Z 108
_cell_length_a 14.678667
_cell_length_b 15.408256
_cell_length_c 19.937874
_cell_angle_alpha 90.000000
_cell_angle_beta 90.000000
_cell_angle_gamma 90.000000
_cell_volume 4509.401975
_symmetry_space_group_name_H-M "I M M A"
_symmetry_group_IT_number 74
_symmetry_cell_setting 'orthorhombic'
loop_
_space_group_symop_operation_xyz
x,y,z
-x,1/2-y,z
x,-y,-z
-x,1/2+y,-z
-x,-y,-z
x,1/2+y,-z
-x,y,z
x,1/2-y,z
1/2+x,1/2+y,1/2+z
1/2-x,-y,1/2+z
1/2+x,1/2-y,1/2-z
1/2-x,y,1/2-z
1/2-x,1/2-y,1/2-z
1/2+x,y,1/2-z
1/2-x,1/2+y,1/2+z
1/2+x,-y,1/2+z
loop_
_atom_site_type_symbol
_atom_site_label
_atom_site_fract_x
_atom_site_fract_y
_atom_site_fract_z
Si Si1 0.603974 0.559119 0.125022
Si Si2 0.600477 0.895216 0.507783
Si Si3 0.858340 0.650767 0.246040
Si Si4 0.500000 0.006493 0.702733
Si Si5 0.167946 0.375989 0.352145
Si Si6 0.500000 0.250000 0.181765
Si Si7 0.199681 0.846813 0.489377
Si Si8 0.626214 0.347925 0.335048
O O1 0.500000 0.531743 0.116988
O O2 0.608883 0.637363 0.177284
O O3 0.655567 0.478120 0.156668
O O4 0.647519 0.584894 0.055398
O O5 0.500000 0.869518 0.481963
O O6 0.692214 0.857408 0.476681
O O7 0.606343 0.865994 0.585615
O O8 0.605448 0.000000 0.500000
O O9 0.871480 0.750000 0.223430
O O10 0.750000 0.633639 0.250000
O O11 0.919258 0.581845 0.205710
O O12 0.422535 0.928419 0.699126
O O13 0.081358 0.324483 0.325603
O O14 0.177017 0.359729 0.432536
O O15 0.265906 0.349206 0.324788
O O16 0.171198 0.750000 0.470756
O O17 0.594536 0.250000 0.317809
#
# Coordination Sequence:
#
# PCOD9538453 Si02
#       8
#    16  16  16   8  16   4  16  16
#     4  12  25  41  70  99 133 183 234 293 362 432
#     4  10  20  37  61  95 141 194 236 286 342 417
#     4  11  26  51  77 102 135 176 236 310 382 441
#     4  12  24  43  79 106 134 180 248 302 364 435
#     4  11  22  40  65 103 147 192 237 283 343 427
#     4  12  20  38  62  94 148 196 232 272 336 408
#     4  11  23  37  60  98 143 184 237 287 341 426
#     4  11  22  41  70 105 147 194 243 292 363 440
#
# _framework density 23.949960000000001
#
# number of rings (size 3 to 8) (size 9 to 14) (size 15 to 20)
#    0.000    0.889    3.704    5.333    1.037    2.370 
#    0.000    0.000    6.519    5.333    0.000    0.000 
#    0.000    0.000    0.000    0.000    0.000    0.000 
#
# Total GULP energy -300778.352216 kJ/mol
# GULP energy per Si atom -5569.969485 kJ/mol
# Density = 2.389545 g / cm^3
# Si number density = 23.949960 Si / 1000 Ang^3
#
#
#
# Elastic Constant Matrix: (Units=GPa)
#
#
# Indices 1 2 3 4 5 6 
#
# 1 189.6314 72.6367 -1.0057 0.0000 0.0000 0.0000
# 2 72.6367 207.0875 19.4428 0.0000 0.0000 0.0000
# 3 -1.0057 19.4428 24.2575 0.0000 0.0000 0.0000
# 4 0.0000 0.0000 0.0000 84.6719 0.0000 0.0000
# 5 0.0000 0.0000 0.0000 0.0000 56.3373 0.0000
# 6 0.0000 0.0000 0.0000 0.0000 0.0000 61.7452
#
#
#
# Elastic Compliance Matrix: (Units=1/GPa)
#
#
# Indices 1 2 3 4 5 6 
#
# 1 0.006195 -0.002376 0.002161 0.000000 0.000000 0.000000
# 2 -0.002376 0.006133 -0.005014 0.000000 0.000000 0.000000
# 3 0.002161 -0.005014 0.045333 0.000000 0.000000 0.000000
# 4 0.000000 0.000000 0.000000 0.011810 0.000000 0.000000
# 5 0.000000 0.000000 0.000000 0.000000 0.017750 0.000000
# 6 0.000000 0.000000 0.000000 0.000000 0.000000 0.016196
#
#
# Mechanical properties :
#
#
# Convention : Reuss Voigt Hill
#
# Bulk Modulus (GPa) = 21.18507 67.01378 44.09943
# Shear Modulus (GPa) = 38.57755 62.54437 50.56096
#
# Velocity S-wave (km/s) = 4.01778 5.11579 4.59966
# Velocity P-wave (km/s) = 5.51254 7.93326 6.83098
#
# Compressibility (1/GPa) = 0.04720304
#
# Stress axis : x y z
#
# Youngs Moduli (GPa) = 161.42396 163.05357 22.05899
#
# Poissons Ratio (x) = 0.38738 -0.04767
# Poissons Ratio (y) = 0.38351 0.11061
# Poissons Ratio (z) = -0.34885 0.81758
#
# Static dielectric constant tensor:
#      x y z
#    x 1.892950 0.000000 0.000000 
#    y 0.000000 1.948110 0.000000 
#    z 0.000000 0.000000 1.983980 
# 
# From -- ./inp_files/60212.got.cif
#   From: 2010.05.17/outbox.cif.g08.bks.cpg/sg74_31_cif.got.tgz:60212.got - 2010.06.03 17:57:02.
