data_PCOD9538290
_publ_section_title
;
Structure prediction by ZEFSAII (Michael W. Deem and Ramdas Pophale) SiO2 
 PCOD9538290
Probable space group: I M M A
;
_chemical_formula_sum "Si O2"
_cell_formula_units_Z 92
_cell_length_a 22.941284
_cell_length_b 28.760067
_cell_length_c 7.313047
_cell_angle_alpha 90.000000
_cell_angle_beta 90.000000
_cell_angle_gamma 90.000000
_cell_volume 4825.096231
_symmetry_space_group_name_H-M "I M M A"
_symmetry_group_IT_number 74
_symmetry_cell_setting 'orthorhombic'
loop_
_space_group_symop_operation_xyz
x,y,z
-x,1/2-y,z
x,-y,-z
-x,1/2+y,-z
-x,-y,-z
x,1/2+y,-z
-x,y,z
x,1/2-y,z
1/2+x,1/2+y,1/2+z
1/2-x,-y,1/2+z
1/2+x,1/2-y,1/2-z
1/2-x,y,1/2-z
1/2-x,1/2-y,1/2-z
1/2+x,y,1/2-z
1/2-x,1/2+y,1/2+z
1/2+x,-y,1/2+z
loop_
_atom_site_type_symbol
_atom_site_label
_atom_site_fract_x
_atom_site_fract_y
_atom_site_fract_z
Si Si1 0.250000 0.122813 0.750000
Si Si2 0.432946 0.493398 0.221078
Si Si3 0.000000 0.750000 0.007067
Si Si4 0.621770 0.910689 0.270261
Si Si5 0.732268 0.197780 0.459985
Si Si6 0.929607 0.106481 0.368745
Si Si7 0.402134 0.329363 0.455517
O O1 0.308459 0.093899 0.718227
O O2 0.239211 0.157725 0.581052
O O3 0.500000 0.497060 0.280337
O O4 0.397979 0.536355 0.303095
O O5 0.412245 0.440476 0.241928
O O6 0.432220 0.500000 0.000000
O O7 0.050718 0.709273 0.001132
O O8 0.594190 0.873496 0.408851
O O9 0.599849 0.896475 0.066983
O O10 0.748440 0.250000 0.519645
O O11 0.750000 0.192698 0.250000
O O12 0.662857 0.190776 0.474676
O O13 0.912230 0.150756 0.248756
O O14 0.000000 0.105038 0.390820
#
# Coordination Sequence:
#
# PCOD9538290 Si02
#       7
#     8  16   4  16  16  16  16
#     4  10  21  36  56  82 110 144 192 231 272 336
#     4   8  16  32  57  85 110 140 184 228 272 331
#     4  12  24  40  52  84 128 144 182 242 300 332
#     4  10  21  37  60  82 115 148 188 232 286 335
#     4  10  20  37  59  78 104 145 193 235 275 319
#     4  10  20  36  60  86 112 150 190 228 278 345
#     4  11  23  38  57  82 118 150 183 236 288 340
#
# _framework density 19.066977000000001
#
# number of rings (size 3 to 8) (size 9 to 14) (size 15 to 20)
#    0.000    2.087    1.739    2.870    2.435    0.696 
#    0.000    3.478   24.870    0.000    0.000    0.000 
#    0.000    0.000    0.000    0.000    0.000    0.000 
#
# Total GULP energy -256253.291355 kJ/mol
# GULP energy per Si atom -5570.723725 kJ/mol
# Density = 1.902358 g / cm^3
# Si number density = 19.066977 Si / 1000 Ang^3
#
#
#
# Elastic Constant Matrix: (Units=GPa)
#
#
# Indices 1 2 3 4 5 6 
#
# 1 37.8273 15.3709 -7.2413 0.0000 0.0000 0.0000
# 2 15.3709 75.6626 10.6709 0.0000 0.0000 0.0000
# 3 -7.2413 10.6709 58.9782 0.0000 0.0000 0.0000
# 4 0.0000 0.0000 0.0000 -94.0832 0.0000 0.0000
# 5 0.0000 0.0000 0.0000 0.0000 9.7808 0.0000
# 6 0.0000 0.0000 0.0000 0.0000 0.0000 -51.8011
#
#
#
# Elastic Compliance Matrix: (Units=1/GPa)
#
#
# Indices 1 2 3 4 5 6 
#
# 1 0.030153 -0.006822 0.004936 0.000000 0.000000 0.000000
# 2 -0.006822 0.015106 -0.003571 0.000000 0.000000 0.000000
# 3 0.004936 -0.003571 0.018208 0.000000 0.000000 0.000000
# 4 0.000000 0.000000 0.000000 -0.010629 0.000000 0.000000
# 5 0.000000 0.000000 0.000000 0.000000 0.102241 0.000000
# 6 0.000000 0.000000 0.000000 0.000000 0.000000 -0.019305
#
#
# Mechanical properties :
#
#
# Convention : Reuss Voigt Hill
#
# Bulk Modulus (GPa) = 19.02793 23.34102 21.18447
# Shear Modulus (GPa) = 30.44997 -16.97618 6.73689
#
# Velocity S-wave (km/s) = 4.00058 -2.98710 1.88174
# Velocity P-wave (km/s) = 5.59828 0.60921 3.98195
#
# Compressibility (1/GPa) = 0.05255432
#
# Stress axis : x y z
#
# Youngs Moduli (GPa) = 33.16433 66.19887 54.92229
#
# Poissons Ratio (x) = 0.45159 -0.27112
# Poissons Ratio (y) = 0.22624 0.19611
# Poissons Ratio (z) = -0.16371 0.23638
#
# Static dielectric constant tensor:
#      x y z
#    x 1.632560 0.000000 0.000000 
#    y 0.000000 1.666810 0.000000 
#    z 0.000000 0.000000 1.687340 
# 
# From -- ./inp_files/12723.got.cif
#   From: 2010.05.17/outbox.cif.g08.bks.cpg/sg74_7_cif.got.tgz:12723.got - 2010.06.03 17:57:02.
