data_PCOD9538942
_publ_section_title
;
Structure prediction by ZEFSAII (Michael W. Deem and Ramdas Pophale) SiO2 
 PCOD9538942
Probable space group: I M M A
;
_chemical_formula_sum "Si O2"
_cell_formula_units_Z 96
_cell_length_a 29.727593
_cell_length_b 9.040129
_cell_length_c 19.202111
_cell_angle_alpha 90.000000
_cell_angle_beta 90.000000
_cell_angle_gamma 90.000000
_cell_volume 5160.399804
_symmetry_space_group_name_H-M "I M M A"
_symmetry_group_IT_number 74
_symmetry_cell_setting 'orthorhombic'
loop_
_space_group_symop_operation_xyz
x,y,z
-x,1/2-y,z
x,-y,-z
-x,1/2+y,-z
-x,-y,-z
x,1/2+y,-z
-x,y,z
x,1/2-y,z
1/2+x,1/2+y,1/2+z
1/2-x,-y,1/2+z
1/2+x,1/2-y,1/2-z
1/2-x,y,1/2-z
1/2-x,1/2-y,1/2-z
1/2+x,y,1/2-z
1/2-x,1/2+y,1/2+z
1/2+x,-y,1/2+z
loop_
_atom_site_type_symbol
_atom_site_label
_atom_site_fract_x
_atom_site_fract_y
_atom_site_fract_z
Si Si1 0.112098 0.083636 0.666230
Si Si2 0.227067 0.572090 0.825105
Si Si3 0.948668 0.076547 0.432251
Si Si4 0.870621 0.576622 0.169896
Si Si5 0.447997 0.072262 0.423486
Si Si6 0.201647 0.424584 0.574396
O O1 0.095890 0.250000 0.649428
O O2 0.117754 0.071390 0.748275
O O3 0.158789 0.062505 0.625427
O O4 0.077777 0.966427 0.636070
O O5 0.225080 0.750000 0.828559
O O6 0.250000 0.532730 0.750000
O O7 0.177566 0.503776 0.834790
O O8 0.258094 0.506145 0.885761
O O9 0.948481 0.250000 0.443591
O O10 0.000000 0.023568 0.426108
O O11 0.927618 0.000000 0.500000
O O12 0.866878 0.750000 0.149611
O O13 0.910031 0.498216 0.125979
O O14 0.500000 0.043084 0.400355
O O15 0.442427 0.250000 0.427391
O O16 0.443334 0.000000 0.500000
O O17 0.193184 0.500000 0.500000
O O18 0.211061 0.250000 0.565235
#
# Coordination Sequence:
#
# PCOD9538942 Si02
#       6
#    16  16  16  16  16  16
#     4  10  22  38  58  85 117 156 196 241 296 355
#     4  11  23  40  63  90 121 160 204 252 309 367
#     4  10  21  36  55  79 110 150 195 244 295 346
#     4  11  23  40  64  93 125 162 203 248 304 367
#     4  10  22  42  67  95 128 165 207 258 315 374
#     4  11  23  40  61  88 121 157 202 249 301 359
#
# _framework density 18.603210000000001
#
# number of rings (size 3 to 8) (size 9 to 14) (size 15 to 20)
#    0.000    1.500    1.667    3.000    0.000    8.000 
#    0.000    6.667    0.000    0.000    0.000    0.000 
#    0.000    0.000    0.000    0.000    0.000    0.000 
#
# Total GULP energy -268092.355008 kJ/mol
# GULP energy per Si atom -5585.257396 kJ/mol
# Density = 1.856087 g / cm^3
# Si number density = 18.603210 Si / 1000 Ang^3
#
#
#
# Elastic Constant Matrix: (Units=GPa)
#
#
# Indices 1 2 3 4 5 6 
#
# 1 113.7337 72.2474 56.3798 0.0000 0.0000 0.0000
# 2 72.2474 106.5664 55.5226 0.0000 0.0000 0.0000
# 3 56.3798 55.5226 96.4046 0.0000 0.0000 0.0000
# 4 0.0000 0.0000 0.0000 34.9176 0.0000 0.0000
# 5 0.0000 0.0000 0.0000 0.0000 39.0509 0.0000
# 6 0.0000 0.0000 0.0000 0.0000 0.0000 31.3295
#
#
#
# Elastic Compliance Matrix: (Units=1/GPa)
#
#
# Indices 1 2 3 4 5 6 
#
# 1 0.016793 -0.008955 -0.004663 0.000000 0.000000 0.000000
# 2 -0.008955 0.018182 -0.005235 0.000000 0.000000 0.000000
# 3 -0.004663 -0.005235 0.016115 0.000000 0.000000 0.000000
# 4 0.000000 0.000000 0.000000 0.028639 0.000000 0.000000
# 5 0.000000 0.000000 0.000000 0.000000 0.025608 0.000000
# 6 0.000000 0.000000 0.000000 0.000000 0.000000 0.031919
#
#
# Mechanical properties :
#
#
# Convention : Reuss Voigt Hill
#
# Bulk Modulus (GPa) = 74.71621 76.11161 75.41391
# Shear Modulus (GPa) = 27.86719 29.89659 28.88189
#
# Velocity S-wave (km/s) = 3.87457 4.01317 3.94448
# Velocity P-wave (km/s) = 7.76316 7.90418 7.83399
#
# Compressibility (1/GPa) = 0.01338398
#
# Stress axis : x y z
#
# Youngs Moduli (GPa) = 59.54966 54.99854 62.05432
#
# Poissons Ratio (x) = 0.49252 0.28937
# Poissons Ratio (y) = 0.53327 0.32483
# Poissons Ratio (z) = 0.27769 0.28790
#
# Static dielectric constant tensor:
#      x y z
#    x 1.635350 0.000000 0.000000 
#    y 0.000000 1.638510 0.000000 
#    z 0.000000 0.000000 1.627500 
# 
# From -- ./inp_files/55037.got.cif
#   From: 2010.05.17/outbox.cif.g08.bks.cpg/sg74_28_cif.got.tgz:55037.got - 2010.06.03 17:57:02.
