data_PCOD9538484
_publ_section_title
;
Structure prediction by ZEFSAII (Michael W. Deem and Ramdas Pophale) SiO2 
 PCOD9538484
Probable space group: I M M A
;
_chemical_formula_sum "Si O2"
_cell_formula_units_Z 72
_cell_length_a 8.921436
_cell_length_b 17.907123
_cell_length_c 24.075176
_cell_angle_alpha 90.000000
_cell_angle_beta 90.000000
_cell_angle_gamma 90.000000
_cell_volume 3846.183954
_symmetry_space_group_name_H-M "I M M A"
_symmetry_group_IT_number 74
_symmetry_cell_setting 'orthorhombic'
loop_
_space_group_symop_operation_xyz
x,y,z
-x,1/2-y,z
x,-y,-z
-x,1/2+y,-z
-x,-y,-z
x,1/2+y,-z
-x,y,z
x,1/2-y,z
1/2+x,1/2+y,1/2+z
1/2-x,-y,1/2+z
1/2+x,1/2-y,1/2-z
1/2-x,y,1/2-z
1/2-x,1/2-y,1/2-z
1/2+x,y,1/2-z
1/2-x,1/2+y,1/2+z
1/2+x,-y,1/2+z
loop_
_atom_site_type_symbol
_atom_site_label
_atom_site_fract_x
_atom_site_fract_y
_atom_site_fract_z
Si Si1 0.178365 0.750000 0.189299
Si Si2 0.179196 0.540993 0.689052
Si Si3 0.676882 0.588915 0.492268
Si Si4 0.821735 0.887399 0.375165
Si Si5 0.319493 0.837189 0.609741
O O1 0.250000 0.750000 0.250000
O O2 0.235770 0.677305 0.157043
O O3 0.000000 0.750000 0.193140
O O4 0.250000 0.534897 0.750000
O O5 0.215448 0.467196 0.652841
O O6 0.242760 0.612224 0.656290
O O7 0.000000 0.546049 0.693743
O O8 0.694202 0.500000 0.500000
O O9 0.500000 0.603970 0.482115
O O10 0.771039 0.612608 0.438990
O O11 0.720876 0.630709 0.548897
O O12 0.000000 0.876029 0.370591
O O13 0.500000 0.844308 0.614958
O O14 0.280524 0.750000 0.614152
#
# Coordination Sequence:
#
# PCOD9538484 Si02
#       5
#     8  16  16  16  16
#     4  12  26  44  66  92 128 168 209 258 313 376
#     4  11  24  41  64  90 120 160 208 257 312 373
#     4  10  20  37  63  92 124 165 208 254 308 367
#     4  11  24  41  63  94 127 164 209 258 313 374
#     4  10  22  40  62  91 127 164 207 255 308 369
#
# _framework density 18.719854999999999
#
# number of rings (size 3 to 8) (size 9 to 14) (size 15 to 20)
#    0.000    1.333    2.222    3.000    1.556    6.667 
#    0.000    0.000    0.000    0.000    0.000    0.000 
#    0.000    0.000    0.000    0.000    0.000    0.000 
#
# Total GULP energy -201327.484343 kJ/mol
# GULP energy per Si atom -5592.430121 kJ/mol
# Density = 1.867725 g / cm^3
# Si number density = 18.719855 Si / 1000 Ang^3
#
#
#
# Elastic Constant Matrix: (Units=GPa)
#
#
# Indices 1 2 3 4 5 6 
#
# 1 59.3336 42.6238 38.5433 0.0000 0.0000 0.0000
# 2 42.6238 98.3331 24.2967 0.0000 0.0000 0.0000
# 3 38.5433 24.2967 99.3355 0.0000 0.0000 0.0000
# 4 0.0000 0.0000 0.0000 12.7774 0.0000 0.0000
# 5 0.0000 0.0000 0.0000 0.0000 41.4681 0.0000
# 6 0.0000 0.0000 0.0000 0.0000 0.0000 20.7873
#
#
#
# Elastic Compliance Matrix: (Units=1/GPa)
#
#
# Indices 1 2 3 4 5 6 
#
# 1 0.030816 -0.011072 -0.009249 0.000000 0.000000 0.000000
# 2 -0.011072 0.014802 0.000676 0.000000 0.000000 0.000000
# 3 -0.009249 0.000676 0.013490 0.000000 0.000000 0.000000
# 4 0.000000 0.000000 0.000000 0.078263 0.000000 0.000000
# 5 0.000000 0.000000 0.000000 0.000000 0.024115 0.000000
# 6 0.000000 0.000000 0.000000 0.000000 0.000000 0.048106
#
#
# Mechanical properties :
#
#
# Convention : Reuss Voigt Hill
#
# Bulk Modulus (GPa) = 50.46042 51.99219 51.22631
# Shear Modulus (GPa) = 19.57032 25.10913 22.33972
#
# Velocity S-wave (km/s) = 3.23682 3.66636 3.45827
# Velocity P-wave (km/s) = 6.40183 6.76440 6.58561
#
# Compressibility (1/GPa) = 0.01981751
#
# Stress axis : x y z
#
# Youngs Moduli (GPa) = 32.45068 67.55832 74.12779
#
# Poissons Ratio (x) = 0.74803 0.68559
# Poissons Ratio (y) = 0.35931 -0.05009
# Poissons Ratio (z) = 0.30013 -0.04565
#
# Static dielectric constant tensor:
#      x y z
#    x 1.627670 0.000000 0.000000 
#    y 0.000000 1.622610 0.000000 
#    z 0.000000 0.000000 1.618020 
# 
# From -- ./inp_files/56674.got.cif
#   From: 2010.05.17/outbox.cif.g08.bks.cpg/sg74_29_cif.got.tgz:56674.got - 2010.06.03 17:57:02.
