data_PCOD9538355
_publ_section_title
;
Structure prediction by ZEFSAII (Michael W. Deem and Ramdas Pophale) SiO2 
 PCOD9538355
Probable space group: I M M A
;
_chemical_formula_sum "Si O2"
_cell_formula_units_Z 64
_cell_length_a 12.352206
_cell_length_b 14.980571
_cell_length_c 16.680742
_cell_angle_alpha 90.000000
_cell_angle_beta 90.000000
_cell_angle_gamma 90.000000
_cell_volume 3086.656193
_symmetry_space_group_name_H-M "I M M A"
_symmetry_group_IT_number 74
_symmetry_cell_setting 'orthorhombic'
loop_
_space_group_symop_operation_xyz
x,y,z
-x,1/2-y,z
x,-y,-z
-x,1/2+y,-z
-x,-y,-z
x,1/2+y,-z
-x,y,z
x,1/2-y,z
1/2+x,1/2+y,1/2+z
1/2-x,-y,1/2+z
1/2+x,1/2-y,1/2-z
1/2-x,y,1/2-z
1/2-x,1/2-y,1/2-z
1/2+x,y,1/2-z
1/2-x,1/2+y,1/2+z
1/2+x,-y,1/2+z
loop_
_atom_site_type_symbol
_atom_site_label
_atom_site_fract_x
_atom_site_fract_y
_atom_site_fract_z
Si Si1 0.880807 0.511824 0.094081
Si Si2 0.765985 0.852403 0.655189
Si Si3 0.500000 0.915312 0.064048
Si Si4 0.213253 0.356868 0.658021
Si Si5 0.000000 0.348664 0.397080
O O1 0.818985 0.424339 0.124657
O O2 0.811180 0.600009 0.109059
O O3 0.000000 0.518893 0.131288
O O4 0.890098 0.500000 0.000000
O O5 0.754214 0.750000 0.623357
O O6 0.750000 0.847921 0.750000
O O7 0.885997 0.887321 0.632130
O O8 0.604654 0.901686 0.120872
O O9 0.500000 0.842909 0.992968
O O10 0.500000 0.000000 0.000000
O O11 0.202533 0.250000 0.650631
O O12 0.250000 0.376973 0.750000
O O13 0.000000 0.250000 0.359866
#
# Coordination Sequence:
#
# PCOD9538355 Si02
#       5
#    16  16   8  16   8
#     4  11  25  42  62  93 132 177 226 272 336 411
#     4  10  22  40  65  95 132 174 223 285 353 417
#     4  12  24  42  72 102 134 175 228 293 354 410
#     4  11  25  44  70 100 136 180 231 287 346 415
#     4  10  20  36  62  94 126 165 221 281 341 410
#
# _framework density 20.734411000000001
#
# number of rings (size 3 to 8) (size 9 to 14) (size 15 to 20)
#    0.000    1.250    0.000    5.625    3.500    4.000 
#    0.000    2.500    0.000    0.000    0.000    0.000 
#    0.000    0.000    0.000    0.000    0.000    0.000 
#
# Total GULP energy -178470.027402 kJ/mol
# GULP energy per Si atom -5577.188356 kJ/mol
# Density = 2.068722 g / cm^3
# Si number density = 20.734411 Si / 1000 Ang^3
#
#
#
# Elastic Constant Matrix: (Units=GPa)
#
#
# Indices 1 2 3 4 5 6 
#
# 1 200.8496 45.1480 55.1619 0.0000 0.0000 0.0000
# 2 45.1480 99.9654 29.0216 0.0000 0.0000 0.0000
# 3 55.1619 29.0216 103.6017 0.0000 0.0000 0.0000
# 4 0.0000 0.0000 0.0000 26.5992 0.0000 0.0000
# 5 0.0000 0.0000 0.0000 0.0000 57.4351 0.0000
# 6 0.0000 0.0000 0.0000 0.0000 0.0000 26.4214
#
#
#
# Elastic Compliance Matrix: (Units=1/GPa)
#
#
# Indices 1 2 3 4 5 6 
#
# 1 0.006178 -0.001998 -0.002730 0.000000 0.000000 0.000000
# 2 -0.001998 0.011535 -0.002168 0.000000 0.000000 0.000000
# 3 -0.002730 -0.002168 0.011713 0.000000 0.000000 0.000000
# 4 0.000000 0.000000 0.000000 0.037595 0.000000 0.000000
# 5 0.000000 0.000000 0.000000 0.000000 0.017411 0.000000
# 6 0.000000 0.000000 0.000000 0.000000 0.000000 0.037848
#
#
# Mechanical properties :
#
#
# Convention : Reuss Voigt Hill
#
# Bulk Modulus (GPa) = 63.95598 73.67551 68.81575
# Shear Modulus (GPa) = 35.39043 40.43015 37.91029
#
# Velocity S-wave (km/s) = 4.13588 4.42056 4.28059
# Velocity P-wave (km/s) = 7.32937 7.85273 7.59556
#
# Compressibility (1/GPa) = 0.01563576
#
# Stress axis : x y z
#
# Youngs Moduli (GPa) = 161.87675 86.69320 85.37573
#
# Poissons Ratio (x) = 0.17317 0.23304
# Poissons Ratio (y) = 0.32336 0.18507
# Poissons Ratio (z) = 0.44186 0.18792
#
# Static dielectric constant tensor:
#      x y z
#    x 1.787280 0.000000 0.000000 
#    y 0.000000 1.865110 0.000000 
#    z 0.000000 0.000000 1.835950 
# 
# From -- ./inp_files/40732.got.cif
#   From: 2010.05.17/outbox.cif.g08.bks.cpg/sg74_21_cif.got.tgz:40732.got - 2010.06.03 17:57:02.
