data_PCOD9538084
_publ_section_title
;
Structure prediction by ZEFSAII (Michael W. Deem and Ramdas Pophale) SiO2 
 PCOD9538084
Probable space group: I M M A
;
_chemical_formula_sum "Si O2"
_cell_formula_units_Z 112
_cell_length_a 15.668758
_cell_length_b 20.796413
_cell_length_c 14.764637
_cell_angle_alpha 90.000000
_cell_angle_beta 90.000000
_cell_angle_gamma 90.000000
_cell_volume 4811.115472
_symmetry_space_group_name_H-M "I M M A"
_symmetry_group_IT_number 74
_symmetry_cell_setting 'orthorhombic'
loop_
_space_group_symop_operation_xyz
x,y,z
-x,1/2-y,z
x,-y,-z
-x,1/2+y,-z
-x,-y,-z
x,1/2+y,-z
-x,y,z
x,1/2-y,z
1/2+x,1/2+y,1/2+z
1/2-x,-y,1/2+z
1/2+x,1/2-y,1/2-z
1/2-x,y,1/2-z
1/2-x,1/2-y,1/2-z
1/2+x,y,1/2-z
1/2-x,1/2+y,1/2+z
1/2+x,-y,1/2+z
loop_
_atom_site_type_symbol
_atom_site_label
_atom_site_fract_x
_atom_site_fract_y
_atom_site_fract_z
Si Si1 0.897252 0.181151 0.246013
Si Si2 0.593063 0.910715 0.394241
Si Si3 0.678052 0.144536 0.440876
Si Si4 0.148996 0.824581 0.265635
Si Si5 0.758473 0.990075 0.858383
Si Si6 0.639920 0.677222 0.021832
Si Si7 0.904362 0.070249 0.384157
O O1 0.872505 0.250000 0.289590
O O2 0.857915 0.180025 0.146614
O O3 0.872444 0.118147 0.303113
O O4 0.000000 0.179033 0.241328
O O5 0.500000 0.943150 0.399471
O O6 0.607861 0.866330 0.481787
O O7 0.599157 0.869834 0.302622
O O8 0.675313 0.956879 0.391737
O O9 0.705099 0.076052 0.398455
O O10 0.761233 0.174048 0.489065
O O11 0.130660 0.750000 0.244822
O O12 0.250000 0.835186 0.250000
O O13 0.132696 0.834960 0.371434
O O14 0.750000 0.993948 0.750000
O O15 0.661084 0.988271 0.893080
O O16 0.607992 0.750000 0.004306
O O17 0.596127 0.619927 0.967187
O O18 0.000000 0.048303 0.364938
#
# Coordination Sequence:
#
# PCOD9538084 Si02
#       7
#    16  16  16  16  16  16  16
#     4  10  20  35  60  96 138 178 219 272 334 403
#     4  12  27  44  69 101 134 177 229 283 342 406
#     4  11  22  40  64  94 134 176 227 276 337 400
#     4  10  21  43  70  98 135 177 223 276 336 404
#     4  11  24  44  68  93 130 179 227 281 336 394
#     4  10  21  37  67 100 133 179 224 276 340 405
#     4  10  22  42  66  98 138 181 227 279 337 402
#
# _framework density 23.279423999999999
#
# number of rings (size 3 to 8) (size 9 to 14) (size 15 to 20)
#    0.000    1.429    2.857    2.143    0.000    4.571 
#    0.000    3.571    0.000    2.571    0.000    0.000 
#    0.000    0.000    0.000    0.000    0.000    0.000 
#
# Total GULP energy -313291.340081 kJ/mol
# GULP energy per Si atom -5594.488216 kJ/mol
# Density = 2.322644 g / cm^3
# Si number density = 23.279424 Si / 1000 Ang^3
#
#
#
# Elastic Constant Matrix: (Units=GPa)
#
#
# Indices 1 2 3 4 5 6 
#
# 1 118.4533 46.1741 30.1311 0.0000 0.0000 0.0000
# 2 46.1741 65.3019 20.1628 0.0000 0.0000 0.0000
# 3 30.1311 20.1628 128.6552 0.0000 0.0000 0.0000
# 4 0.0000 0.0000 0.0000 25.2263 0.0000 0.0000
# 5 0.0000 0.0000 0.0000 0.0000 14.3003 0.0000
# 6 0.0000 0.0000 0.0000 0.0000 0.0000 9.4428
#
#
#
# Elastic Compliance Matrix: (Units=1/GPa)
#
#
# Indices 1 2 3 4 5 6 
#
# 1 0.011941 -0.007965 -0.001548 0.000000 0.000000 0.000000
# 2 -0.007965 0.021405 -0.001489 0.000000 0.000000 0.000000
# 3 -0.001548 -0.001489 0.008369 0.000000 0.000000 0.000000
# 4 0.000000 0.000000 0.000000 0.039641 0.000000 0.000000
# 5 0.000000 0.000000 0.000000 0.000000 0.069929 0.000000
# 6 0.000000 0.000000 0.000000 0.000000 0.000000 0.105900
#
#
# Mechanical properties :
#
#
# Convention : Reuss Voigt Hill
#
# Bulk Modulus (GPa) = 50.73651 56.14960 53.44306
# Shear Modulus (GPa) = 17.49719 24.19005 20.84362
#
# Velocity S-wave (km/s) = 2.74454 3.22703 2.99551
# Velocity P-wave (km/s) = 5.64670 6.16905 5.91364
#
# Compressibility (1/GPa) = 0.01970967
#
# Stress axis : x y z
#
# Youngs Moduli (GPa) = 83.74601 46.71729 119.49283
#
# Poissons Ratio (x) = 0.37211 0.18501
# Poissons Ratio (y) = 0.66705 0.17795
# Poissons Ratio (z) = 0.12966 0.06957
#
# Static dielectric constant tensor:
#      x y z
#    x 1.879900 0.000000 0.000000 
#    y 0.000000 1.882230 0.000000 
#    z 0.000000 0.000000 1.852020 
# 
# From -- ./inp_files/32704.got.cif
#   From: 2010.05.17/outbox.cif.g08.bks.cpg/sg74_17_cif.got.tgz:32704.got - 2010.06.03 17:57:02.
