data_PCOD9538894
_publ_section_title
;
Structure prediction by ZEFSAII (Michael W. Deem and Ramdas Pophale) SiO2 
 PCOD9538894
Probable space group: I M M A
;
_chemical_formula_sum "Si O2"
_cell_formula_units_Z 88
_cell_length_a 24.095019
_cell_length_b 9.971148
_cell_length_c 19.301290
_cell_angle_alpha 90.000000
_cell_angle_beta 90.000000
_cell_angle_gamma 90.000000
_cell_volume 4637.231439
_symmetry_space_group_name_H-M "I M M A"
_symmetry_group_IT_number 74
_symmetry_cell_setting 'orthorhombic'
loop_
_space_group_symop_operation_xyz
x,y,z
-x,1/2-y,z
x,-y,-z
-x,1/2+y,-z
-x,-y,-z
x,1/2+y,-z
-x,y,z
x,1/2-y,z
1/2+x,1/2+y,1/2+z
1/2-x,-y,1/2+z
1/2+x,1/2-y,1/2-z
1/2-x,y,1/2-z
1/2-x,1/2-y,1/2-z
1/2+x,y,1/2-z
1/2-x,1/2+y,1/2+z
1/2+x,-y,1/2+z
loop_
_atom_site_type_symbol
_atom_site_label
_atom_site_fract_x
_atom_site_fract_y
_atom_site_fract_z
Si Si1 0.638388 0.500000 0.000000
Si Si2 0.832901 0.407583 0.710374
Si Si3 0.727477 0.402875 0.100468
Si Si4 0.321103 0.594708 0.372649
Si Si5 0.560312 0.594039 0.433527
Si Si6 0.062486 0.090461 0.628624
O O1 0.682123 0.596819 0.961123
O O2 0.598072 0.447770 0.939410
O O3 0.823407 0.250000 0.690258
O O4 0.800223 0.510618 0.662139
O O5 0.815610 0.420126 0.789834
O O6 0.897753 0.438267 0.694294
O O7 0.740301 0.250000 0.119296
O O8 0.782822 0.489353 0.087066
O O9 0.307401 0.750000 0.390828
O O10 0.385687 0.571077 0.388057
O O11 0.563093 0.500000 0.500000
O O12 0.500000 0.572475 0.398991
O O13 0.562215 0.750000 0.455173
O O14 0.056952 0.250000 0.626817
O O15 0.000000 0.032313 0.629867
#
# Coordination Sequence:
#
# PCOD9538894 Si02
#       6
#     8  16  16  16  16  16
#     4  10  21  36  50  74 113 148 178 220 276 322
#     4   9  19  36  55  78 110 144 178 222 273 322
#     4  11  23  36  54  79 109 145 185 227 268 318
#     4  10  21  36  56  80 108 143 180 221 271 326
#     4   9  19  36  56  79 107 138 174 220 272 325
#     4   9  17  31  54  80 104 136 180 223 264 318
#
# _framework density 18.976839999999999
#
# number of rings (size 3 to 8) (size 9 to 14) (size 15 to 20)
#    0.000    2.364    0.000    1.909    1.273    6.545 
#    0.000    3.636    0.000    4.909    0.000    5.091 
#    0.000    0.000    0.000    0.000    0.000    0.000 
#
# Total GULP energy -245127.061135 kJ/mol
# GULP energy per Si atom -5571.069571 kJ/mol
# Density = 1.893365 g / cm^3
# Si number density = 18.976840 Si / 1000 Ang^3
#
#
#
# Elastic Constant Matrix: (Units=GPa)
#
#
# Indices 1 2 3 4 5 6 
#
# 1 140.9803 54.6294 22.4533 0.0000 0.0000 0.0000
# 2 54.6294 82.8390 22.3049 0.0000 0.0000 0.0000
# 3 22.4533 22.3049 30.6538 0.0000 0.0000 0.0000
# 4 0.0000 0.0000 0.0000 11.8664 0.0000 0.0000
# 5 0.0000 0.0000 0.0000 0.0000 46.1996 0.0000
# 6 0.0000 0.0000 0.0000 0.0000 0.0000 15.5181
#
#
#
# Elastic Compliance Matrix: (Units=1/GPa)
#
#
# Indices 1 2 3 4 5 6 
#
# 1 0.009754 -0.005607 -0.003065 0.000000 0.000000 0.000000
# 2 -0.005607 0.018236 -0.009162 0.000000 0.000000 0.000000
# 3 -0.003065 -0.009162 0.041534 0.000000 0.000000 0.000000
# 4 0.000000 0.000000 0.000000 0.084272 0.000000 0.000000
# 5 0.000000 0.000000 0.000000 0.000000 0.021645 0.000000
# 6 0.000000 0.000000 0.000000 0.000000 0.000000 0.064441
#
#
# Mechanical properties :
#
#
# Convention : Reuss Voigt Hill
#
# Bulk Modulus (GPa) = 29.53675 50.36093 39.94884
# Shear Modulus (GPa) = 17.43154 25.05585 21.24369
#
# Velocity S-wave (km/s) = 3.03408 3.63759 3.34945
# Velocity P-wave (km/s) = 5.27945 6.65120 6.00462
#
# Compressibility (1/GPa) = 0.03385613
#
# Stress axis : x y z
#
# Youngs Moduli (GPa) = 102.52119 54.83527 24.07665
#
# Poissons Ratio (x) = 0.30748 0.07378
# Poissons Ratio (y) = 0.57487 0.22060
# Poissons Ratio (z) = 0.31418 0.50242
#
# Static dielectric constant tensor:
#      x y z
#    x 1.736740 0.000000 0.000000 
#    y 0.000000 1.652480 0.000000 
#    z 0.000000 0.000000 1.652510 
# 
# From -- ./inp_files/54540.got.cif
#   From: 2010.05.17/outbox.cif.g08.bks.cpg/sg74_28_cif.got.tgz:54540.got - 2010.06.03 17:57:02.
