data_PCOD9538389
_publ_section_title
;
Structure prediction by ZEFSAII (Michael W. Deem and Ramdas Pophale) SiO2 
 PCOD9538389
Probable space group: I M M A
;
_chemical_formula_sum "Si O2"
_cell_formula_units_Z 68
_cell_length_a 23.606555
_cell_length_b 7.752111
_cell_length_c 16.311267
_cell_angle_alpha 90.000000
_cell_angle_beta 90.000000
_cell_angle_gamma 90.000000
_cell_volume 2984.972214
_symmetry_space_group_name_H-M "I M M A"
_symmetry_group_IT_number 74
_symmetry_cell_setting 'orthorhombic'
loop_
_space_group_symop_operation_xyz
x,y,z
-x,1/2-y,z
x,-y,-z
-x,1/2+y,-z
-x,-y,-z
x,1/2+y,-z
-x,y,z
x,1/2-y,z
1/2+x,1/2+y,1/2+z
1/2-x,-y,1/2+z
1/2+x,1/2-y,1/2-z
1/2-x,y,1/2-z
1/2-x,1/2-y,1/2-z
1/2+x,y,1/2-z
1/2-x,1/2+y,1/2+z
1/2+x,-y,1/2+z
loop_
_atom_site_type_symbol
_atom_site_label
_atom_site_fract_x
_atom_site_fract_y
_atom_site_fract_z
Si Si1 0.674968 0.955681 0.903849
Si Si2 0.701719 0.950115 0.404322
Si Si3 0.939295 0.043400 0.322920
Si Si4 0.920756 0.554798 0.869226
Si Si5 0.000000 0.750000 0.070504
O O1 0.675608 0.750000 0.895506
O O2 0.618466 0.027030 0.861227
O O3 0.735514 0.017286 0.869651
O O4 0.671901 0.000000 0.000000
O O5 0.689042 0.750000 0.396449
O O6 0.705405 0.000000 0.500000
O O7 0.647290 0.047821 0.370825
O O8 0.939289 0.250000 0.338657
O O9 0.937645 0.023659 0.225131
O O10 0.000000 0.974070 0.353365
O O11 0.938099 0.750000 0.894083
O O12 0.950658 0.403791 0.919918
#
# Coordination Sequence:
#
# PCOD9538389 Si02
#       5
#    16  16  16  16   4
#     4  10  20  37  58  87 118 158 204 249 306 363
#     4  11  22  40  62  88 119 156 203 252 303 359
#     4   9  19  37  61  83 119 164 200 243 306 363
#     4  11  22  41  65  89 124 162 200 249 302 357
#     4  12  22  40  62  96 124 160 204 240 304 364
#
# _framework density 22.780783
#
# number of rings (size 3 to 8) (size 9 to 14) (size 15 to 20)
#    0.000    1.647    2.353    4.588    0.000    1.412 
#    4.235    5.294    0.000    0.000    0.000    0.000 
#    0.000    0.000    0.000    0.000    0.000    0.000 
#
# Total GULP energy -189517.915178 kJ/mol
# GULP energy per Si atom -5574.056329 kJ/mol
# Density = 2.272893 g / cm^3
# Si number density = 22.780783 Si / 1000 Ang^3
#
#
#
# Elastic Constant Matrix: (Units=GPa)
#
#
# Indices 1 2 3 4 5 6 
#
# 1 257.0030 35.1133 40.3264 0.0000 0.0000 0.0000
# 2 35.1133 137.1737 12.7349 0.0000 0.0000 0.0000
# 3 40.3264 12.7349 25.0076 0.0000 0.0000 0.0000
# 4 0.0000 0.0000 0.0000 13.2448 0.0000 0.0000
# 5 0.0000 0.0000 0.0000 0.0000 116.8526 0.0000
# 6 0.0000 0.0000 0.0000 0.0000 0.0000 17.0756
#
#
#
# Elastic Compliance Matrix: (Units=1/GPa)
#
#
# Indices 1 2 3 4 5 6 
#
# 1 0.005254 -0.000586 -0.008173 0.000000 0.000000 0.000000
# 2 -0.000586 0.007717 -0.002985 0.000000 0.000000 0.000000
# 3 -0.008173 -0.002985 0.054688 0.000000 0.000000 0.000000
# 4 0.000000 0.000000 0.000000 0.075501 0.000000 0.000000
# 5 0.000000 0.000000 0.000000 0.000000 0.008558 0.000000
# 6 0.000000 0.000000 0.000000 0.000000 0.000000 0.058563
#
#
# Mechanical properties :
#
#
# Convention : Reuss Voigt Hill
#
# Bulk Modulus (GPa) = 22.63974 66.17039 44.40507
# Shear Modulus (GPa) = 20.12135 51.50193 35.81164
#
# Velocity S-wave (km/s) = 2.97519 4.75991 3.96916
# Velocity P-wave (km/s) = 4.66498 7.70186 6.36713
#
# Compressibility (1/GPa) = 0.04417012
#
# Stress axis : x y z
#
# Youngs Moduli (GPa) = 190.34795 129.58166 18.28560
#
# Poissons Ratio (x) = 0.07593 0.14945
# Poissons Ratio (y) = 0.11154 0.05458
# Poissons Ratio (z) = 1.55576 0.38679
#
# Static dielectric constant tensor:
#      x y z
#    x 1.912980 0.000000 0.000000 
#    y 0.000000 1.885570 0.000000 
#    z 0.000000 0.000000 1.840330 
# 
# From -- ./inp_files/44858.got.cif
#   From: 2010.05.17/outbox.cif.g08.bks.cpg/sg74_23_cif.got.tgz:44858.got - 2010.06.03 17:57:02.
