data_PCOD9538650
_publ_section_title
;
Structure prediction by ZEFSAII (Michael W. Deem and Ramdas Pophale) SiO2 
 PCOD9538650
Probable space group: I M M A
;
_chemical_formula_sum "Si O2"
_cell_formula_units_Z 88
_cell_length_a 8.644767
_cell_length_b 18.309630
_cell_length_c 29.887773
_cell_angle_alpha 90.000000
_cell_angle_beta 90.000000
_cell_angle_gamma 90.000000
_cell_volume 4730.710988
_symmetry_space_group_name_H-M "I M M A"
_symmetry_group_IT_number 74
_symmetry_cell_setting 'orthorhombic'
loop_
_space_group_symop_operation_xyz
x,y,z
-x,1/2-y,z
x,-y,-z
-x,1/2+y,-z
-x,-y,-z
x,1/2+y,-z
-x,y,z
x,1/2-y,z
1/2+x,1/2+y,1/2+z
1/2-x,-y,1/2+z
1/2+x,1/2-y,1/2-z
1/2-x,y,1/2-z
1/2-x,1/2-y,1/2-z
1/2+x,y,1/2-z
1/2-x,1/2+y,1/2+z
1/2+x,-y,1/2+z
loop_
_atom_site_type_symbol
_atom_site_label
_atom_site_fract_x
_atom_site_fract_y
_atom_site_fract_z
Si Si1 0.686864 0.096611 0.454541
Si Si2 0.183817 0.750000 0.299646
Si Si3 0.812669 0.575552 0.052429
Si Si4 0.185156 0.333581 0.365611
Si Si5 0.185594 0.542498 0.800273
Si Si6 0.187463 0.891068 0.150902
O O1 0.500000 0.104124 0.451693
O O2 0.738069 0.111540 0.505695
O O3 0.761644 0.143183 0.415324
O O4 0.724001 0.010799 0.447301
O O5 0.250000 0.750000 0.250000
O O6 0.244438 0.822044 0.324149
O O7 0.000000 0.750000 0.298432
O O8 0.759836 0.608245 0.099236
O O9 0.000000 0.579108 0.051727
O O10 0.233058 0.250000 0.356635
O O11 0.256003 0.390295 0.330287
O O12 0.000000 0.337803 0.362999
O O13 0.250000 0.545061 0.750000
O O14 0.231772 0.466758 0.824746
O O15 0.000000 0.544379 0.798801
O O16 0.000000 0.887356 0.151541
#
# Coordination Sequence:
#
# PCOD9538650 Si02
#       6
#    16   8  16  16  16  16
#     4   9  16  33  60  88 115 149 194 239 284 341
#     4  12  26  42  60  86 118 158 198 242 295 352
#     4   8  15  31  60  91 117 146 189 239 286 342
#     4  11  24  40  57  82 121 162 199 244 294 346
#     4  11  23  40  65  91 115 148 193 244 297 354
#     4  10  20  39  64  90 119 152 192 241 293 349
#
# _framework density 18.601855
#
# number of rings (size 3 to 8) (size 9 to 14) (size 15 to 20)
#    0.000    2.000    1.818    3.545    0.000    4.727 
#    1.636    2.727    0.000    0.000    0.000    0.000 
#    0.000    0.000    0.000    0.000    0.000    0.000 
#
# Total GULP energy -245642.860963 kJ/mol
# GULP energy per Si atom -5582.792295 kJ/mol
# Density = 1.855952 g / cm^3
# Si number density = 18.601855 Si / 1000 Ang^3
#
#
#
# Elastic Constant Matrix: (Units=GPa)
#
#
# Indices 1 2 3 4 5 6 
#
# 1 33.6424 41.8303 43.1112 0.0000 0.0000 0.0000
# 2 41.8303 136.0864 97.5228 0.0000 0.0000 0.0000
# 3 43.1112 97.5228 201.8011 0.0000 0.0000 0.0000
# 4 0.0000 0.0000 0.0000 20.0632 0.0000 0.0000
# 5 0.0000 0.0000 0.0000 0.0000 29.3699 0.0000
# 6 0.0000 0.0000 0.0000 0.0000 0.0000 40.6332
#
#
#
# Elastic Compliance Matrix: (Units=1/GPa)
#
#
# Indices 1 2 3 4 5 6 
#
# 1 0.051343 -0.012118 -0.005112 0.000000 0.000000 0.000000
# 2 -0.012118 0.014102 -0.004226 0.000000 0.000000 0.000000
# 3 -0.005112 -0.004226 0.008090 0.000000 0.000000 0.000000
# 4 0.000000 0.000000 0.000000 0.049842 0.000000 0.000000
# 5 0.000000 0.000000 0.000000 0.000000 0.034048 0.000000
# 6 0.000000 0.000000 0.000000 0.000000 0.000000 0.024610
#
#
# Mechanical properties :
#
#
# Convention : Reuss Voigt Hill
#
# Bulk Modulus (GPa) = 32.65675 81.82871 57.24273
# Shear Modulus (GPa) = 21.26250 30.61764 25.94007
#
# Velocity S-wave (km/s) = 3.38454 4.06143 3.73834
# Velocity P-wave (km/s) = 5.73300 8.12888 7.03370
#
# Compressibility (1/GPa) = 0.03062154
#
# Stress axis : x y z
#
# Youngs Moduli (GPa) = 19.47682 70.91402 123.61362
#
# Poissons Ratio (x) = 0.85936 0.63194
# Poissons Ratio (y) = 0.23603 0.52238
# Poissons Ratio (z) = 0.09957 0.29968
#
# Static dielectric constant tensor:
#      x y z
#    x 1.631420 0.000000 0.000000 
#    y 0.000000 1.616290 0.000000 
#    z 0.000000 0.000000 1.645170 
# 
# From -- ./inp_files/70273.got.cif
#   From: 2010.05.17/outbox.cif.g08.bks.cpg/sg74_36_cif.got.tgz:70273.got - 2010.06.03 17:57:02.
