data_PCOD9538615
_publ_section_title
;
Structure prediction by ZEFSAII (Michael W. Deem and Ramdas Pophale) SiO2 
 PCOD9538615
Probable space group: I M M A
;
_chemical_formula_sum "Si O2"
_cell_formula_units_Z 72
_cell_length_a 7.560562
_cell_length_b 14.855070
_cell_length_c 34.638817
_cell_angle_alpha 90.000000
_cell_angle_beta 90.000000
_cell_angle_gamma 90.000000
_cell_volume 3890.378291
_symmetry_space_group_name_H-M "I M M A"
_symmetry_group_IT_number 74
_symmetry_cell_setting 'orthorhombic'
loop_
_space_group_symop_operation_xyz
x,y,z
-x,1/2-y,z
x,-y,-z
-x,1/2+y,-z
-x,-y,-z
x,1/2+y,-z
-x,y,z
x,1/2-y,z
1/2+x,1/2+y,1/2+z
1/2-x,-y,1/2+z
1/2+x,1/2-y,1/2-z
1/2-x,y,1/2-z
1/2-x,1/2-y,1/2-z
1/2+x,y,1/2-z
1/2-x,1/2+y,1/2+z
1/2+x,-y,1/2+z
loop_
_atom_site_type_symbol
_atom_site_label
_atom_site_fract_x
_atom_site_fract_y
_atom_site_fract_z
Si Si1 0.794419 0.901738 0.551666
Si Si2 0.209231 0.854678 0.295646
Si Si3 0.500000 0.841717 0.407186
Si Si4 0.000000 0.144990 0.114556
Si Si5 0.000000 0.471313 0.838663
Si Si6 0.703693 0.884028 0.034439
O O1 0.668272 0.874643 0.586577
O O2 0.741232 0.863546 0.509592
O O3 0.000000 0.878176 0.558984
O O4 0.787468 0.008924 0.543405
O O5 0.249257 0.750000 0.306572
O O6 0.250000 0.861343 0.250000
O O7 0.330204 0.927785 0.317275
O O8 0.000000 0.869184 0.302240
O O9 0.500000 0.750000 0.383180
O O10 0.500000 0.927902 0.380912
O O11 0.668450 0.843004 0.434515
O O12 0.000000 0.250000 0.125479
O O13 0.000000 0.077284 0.151346
O O14 0.500000 0.857435 0.038491
#
# Coordination Sequence:
#
# PCOD9538615 Si02
#       6
#    16  16   8   8   8  16
#     4   9  18  36  59  79 105 153 212 262 309 345
#     4  10  20  38  68 101 127 151 184 221 270 355
#     4  12  23  33  51  82 122 160 188 228 300 373
#     4  12  25  39  59  84 116 160 216 264 298 345
#     4  12  24  40  59  88 130 160 190 238 303 348
#     4   9  18  34  56  79 110 154 204 257 305 360
#
# _framework density 18.507197000000001
#
# number of rings (size 3 to 8) (size 9 to 14) (size 15 to 20)
#    0.000    1.778    3.333    3.000    0.000    6.222 
#    0.000    2.222    0.000    0.667    0.000    0.000 
#    0.000    0.000    0.000    0.000    0.000    0.000 
#
# Total GULP energy -200900.047328 kJ/mol
# GULP energy per Si atom -5580.556870 kJ/mol
# Density = 1.846507 g / cm^3
# Si number density = 18.507197 Si / 1000 Ang^3
#
#
#
# Elastic Constant Matrix: (Units=GPa)
#
#
# Indices 1 2 3 4 5 6 
#
# 1 103.1408 42.9624 54.3863 0.0000 0.0000 0.0000
# 2 42.9624 125.6025 45.2223 0.0000 0.0000 0.0000
# 3 54.3863 45.2223 80.3840 0.0000 0.0000 0.0000
# 4 0.0000 0.0000 0.0000 163.8514 0.0000 0.0000
# 5 0.0000 0.0000 0.0000 0.0000 44.6016 0.0000
# 6 0.0000 0.0000 0.0000 0.0000 0.0000 24.8294
#
#
#
# Elastic Compliance Matrix: (Units=1/GPa)
#
#
# Indices 1 2 3 4 5 6 
#
# 1 0.015428 -0.001905 -0.009367 0.000000 0.000000 0.000000
# 2 -0.001905 0.010219 -0.004460 0.000000 0.000000 0.000000
# 3 -0.009367 -0.004460 0.021287 0.000000 0.000000 0.000000
# 4 0.000000 0.000000 0.000000 0.006103 0.000000 0.000000
# 5 0.000000 0.000000 0.000000 0.000000 0.022421 0.000000
# 6 0.000000 0.000000 0.000000 0.000000 0.000000 0.040275
#
#
# Mechanical properties :
#
#
# Convention : Reuss Voigt Hill
#
# Bulk Modulus (GPa) = 64.63955 66.02994 65.33475
# Shear Modulus (GPa) = 32.81855 57.76022 45.28939
#
# Velocity S-wave (km/s) = 4.21561 5.59262 4.95221
# Velocity P-wave (km/s) = 7.66144 8.80106 8.25095
#
# Compressibility (1/GPa) = 0.01547040
#
# Stress axis : x y z
#
# Youngs Moduli (GPa) = 64.81742 97.85651 46.97726
#
# Poissons Ratio (x) = 0.18639 0.44002
# Poissons Ratio (y) = 0.12346 0.20953
# Poissons Ratio (z) = 0.60713 0.43647
#
# Static dielectric constant tensor:
#      x y z
#    x 1.620930 0.000000 0.000000 
#    y 0.000000 1.697220 0.000000 
#    z 0.000000 0.000000 1.615250 
# 
# From -- ./inp_files/63649.got.cif
#   From: 2010.05.17/outbox.cif.g08.bks.cpg/sg74_32_cif.got.tgz:63649.got - 2010.06.03 17:57:02.
