data_PCOD9538841
_publ_section_title
;
Structure prediction by ZEFSAII (Michael W. Deem and Ramdas Pophale) SiO2 
 PCOD9538841
Probable space group: I M M A
;
_chemical_formula_sum "Si O2"
_cell_formula_units_Z 88
_cell_length_a 17.986581
_cell_length_b 8.141436
_cell_length_c 28.262739
_cell_angle_alpha 90.000000
_cell_angle_beta 90.000000
_cell_angle_gamma 90.000000
_cell_volume 4138.699351
_symmetry_space_group_name_H-M "I M M A"
_symmetry_group_IT_number 74
_symmetry_cell_setting 'orthorhombic'
loop_
_space_group_symop_operation_xyz
x,y,z
-x,1/2-y,z
x,-y,-z
-x,1/2+y,-z
-x,-y,-z
x,1/2+y,-z
-x,y,z
x,1/2-y,z
1/2+x,1/2+y,1/2+z
1/2-x,-y,1/2+z
1/2+x,1/2-y,1/2-z
1/2-x,y,1/2-z
1/2-x,1/2-y,1/2-z
1/2+x,y,1/2-z
1/2-x,1/2+y,1/2+z
1/2+x,-y,1/2+z
loop_
_atom_site_type_symbol
_atom_site_label
_atom_site_fract_x
_atom_site_fract_y
_atom_site_fract_z
Si Si1 0.204390 0.563948 0.704874
Si Si2 0.913723 0.948663 0.867324
Si Si3 0.500000 0.444744 0.944415
Si Si4 0.197915 0.552770 0.948196
Si Si5 0.911670 0.937271 0.235158
Si Si6 0.656004 0.051113 0.101778
O O1 0.233958 0.750000 0.698639
O O2 0.250000 0.489199 0.750000
O O3 0.122654 0.560293 0.727490
O O4 0.189800 0.492576 0.652640
O O5 0.911530 0.750000 0.864145
O O6 0.860648 0.005358 0.909155
O O7 0.000000 0.996110 0.874559
O O8 0.885894 0.020064 0.817700
O O9 0.500000 0.250000 0.945336
O O10 0.425453 0.499379 0.916078
O O11 0.500000 0.500000 0.000000
O O12 0.197983 0.750000 0.945752
O O13 0.281421 0.497988 0.935865
O O14 0.175460 0.500000 0.000000
O O15 0.892116 0.750000 0.247709
O O16 0.000000 0.951158 0.234374
O O17 0.654572 0.250000 0.105052
#
# Coordination Sequence:
#
# PCOD9538841 Si02
#       6
#    16  16   8  16  16  16
#     4  10  21  38  61  87 116 153 196 239 284 345
#     4   9  18  35  58  83 114 155 199 237 279 338
#     4  12  26  44  66  90 120 156 204 262 319 374
#     4  10  21  37  58  84 114 148 191 242 292 349
#     4  10  21  35  53  81 117 150 184 229 280 334
#     4  10  22  40  62  88 119 154 199 248 299 359
#
# _framework density 21.262718
#
# number of rings (size 3 to 8) (size 9 to 14) (size 15 to 20)
#    0.000    2.000    0.000    3.000    1.273    8.364 
#    0.000    1.818    0.000    0.000    0.000    0.000 
#    0.000    0.000    0.000    0.000    0.000    0.000 
#
# Total GULP energy -245459.532576 kJ/mol
# GULP energy per Si atom -5578.625740 kJ/mol
# Density = 2.121432 g / cm^3
# Si number density = 21.262718 Si / 1000 Ang^3
#
#
#
# Elastic Constant Matrix: (Units=GPa)
#
#
# Indices 1 2 3 4 5 6 
#
# 1 59.7907 10.5771 18.6907 0.0000 0.0000 0.0000
# 2 10.5771 25.3672 6.2737 0.0000 0.0000 0.0000
# 3 18.6907 6.2737 93.3404 0.0000 0.0000 0.0000
# 4 0.0000 0.0000 0.0000 22.6700 0.0000 0.0000
# 5 0.0000 0.0000 0.0000 0.0000 34.4684 0.0000
# 6 0.0000 0.0000 0.0000 0.0000 0.0000 6.9974
#
#
#
# Elastic Compliance Matrix: (Units=1/GPa)
#
#
# Indices 1 2 3 4 5 6 
#
# 1 0.019024 -0.007108 -0.003332 0.000000 0.000000 0.000000
# 2 -0.007108 0.042743 -0.001450 0.000000 0.000000 0.000000
# 3 -0.003332 -0.001450 0.011478 0.000000 0.000000 0.000000
# 4 0.000000 0.000000 0.000000 0.044111 0.000000 0.000000
# 5 0.000000 0.000000 0.000000 0.000000 0.029012 0.000000
# 6 0.000000 0.000000 0.000000 0.000000 0.000000 0.142911
#
#
# Mechanical properties :
#
#
# Convention : Reuss Voigt Hill
#
# Bulk Modulus (GPa) = 20.21569 27.73125 23.97347
# Shear Modulus (GPa) = 15.17232 22.35761 18.76497
#
# Velocity S-wave (km/s) = 2.67416 3.24619 2.97396
# Velocity P-wave (km/s) = 4.36613 5.20777 4.80541
#
# Compressibility (1/GPa) = 0.04946652
#
# Stress axis : x y z
#
# Youngs Moduli (GPa) = 52.56532 23.39541 87.12292
#
# Poissons Ratio (x) = 0.16630 0.29026
# Poissons Ratio (y) = 0.37365 0.12629
# Poissons Ratio (z) = 0.17513 0.03391
#
# Static dielectric constant tensor:
#      x y z
#    x 1.797900 0.000000 0.000000 
#    y 0.000000 1.796240 0.000000 
#    z 0.000000 0.000000 1.759530 
# 
# From -- ./inp_files/72968.got.cif
#   From: 2010.05.17/outbox.cif.g08.bks.cpg/sg74_37_cif.got.tgz:72968.got - 2010.06.03 17:57:02.
