data_PCOD9538668
_publ_section_title
;
Structure prediction by ZEFSAII (Michael W. Deem and Ramdas Pophale) SiO2 
 PCOD9538668
Probable space group: I M M A
;
_chemical_formula_sum "Si O2"
_cell_formula_units_Z 64
_cell_length_a 10.257242
_cell_length_b 18.116797
_cell_length_c 18.071218
_cell_angle_alpha 90.000000
_cell_angle_beta 90.000000
_cell_angle_gamma 90.000000
_cell_volume 3358.145005
_symmetry_space_group_name_H-M "I M M A"
_symmetry_group_IT_number 74
_symmetry_cell_setting 'orthorhombic'
loop_
_space_group_symop_operation_xyz
x,y,z
-x,1/2-y,z
x,-y,-z
-x,1/2+y,-z
-x,-y,-z
x,1/2+y,-z
-x,y,z
x,1/2-y,z
1/2+x,1/2+y,1/2+z
1/2-x,-y,1/2+z
1/2+x,1/2-y,1/2-z
1/2-x,y,1/2-z
1/2-x,1/2-y,1/2-z
1/2+x,y,1/2-z
1/2-x,1/2+y,1/2+z
1/2+x,-y,1/2+z
loop_
_atom_site_type_symbol
_atom_site_label
_atom_site_fract_x
_atom_site_fract_y
_atom_site_fract_z
Si Si1 0.000000 0.661398 0.349652
Si Si2 0.250000 0.440644 0.250000
Si Si3 0.652210 0.163722 0.128708
Si Si4 0.500000 0.070057 0.554889
Si Si5 0.500000 0.539516 0.271391
Si Si6 0.764632 0.337666 0.539219
O O1 0.871625 0.642450 0.398411
O O2 0.000000 0.750000 0.338232
O O3 0.000000 0.615992 0.273870
O O4 0.258451 0.388154 0.178461
O O5 0.374482 0.492600 0.249663
O O6 0.500000 0.151034 0.147042
O O7 0.680976 0.250000 0.142931
O O8 0.673237 0.150458 0.041742
O O9 0.500000 0.048331 0.640754
O O10 0.368913 0.117489 0.543082
O O11 0.500000 0.000000 0.500000
O O12 0.738866 0.250000 0.546848
#
# Coordination Sequence:
#
# PCOD9538668 Si02
#       6
#     8   8  16   8   8  16
#     4  10  22  43  69  94 118 161 221 269 314 377
#     4  12  23  42  59  94 128 168 200 254 307 372
#     4  10  20  39  66  94 123 163 208 252 304 371
#     4  12  25  42  58  91 132 167 203 254 315 375
#     4  12  26  41  62  89 131 164 209 253 318 372
#     4  10  21  41  68  93 121 161 212 262 313 371
#
# _framework density 19.058140999999999
#
# number of rings (size 3 to 8) (size 9 to 14) (size 15 to 20)
#    0.000    1.250    2.500    3.750    0.000    1.000 
#    0.000    6.250    0.000    0.000    0.000    0.000 
#    0.000    0.000    0.000    0.000    0.000    0.000 
#
# Total GULP energy -178855.717883 kJ/mol
# GULP energy per Si atom -5589.241184 kJ/mol
# Density = 1.901476 g / cm^3
# Si number density = 19.058141 Si / 1000 Ang^3
#
#
#
# Elastic Constant Matrix: (Units=GPa)
#
#
# Indices 1 2 3 4 5 6 
#
# 1 123.8099 56.3332 20.8955 0.0000 0.0000 0.0000
# 2 56.3332 74.0931 59.4790 0.0000 0.0000 0.0000
# 3 20.8955 59.4790 109.7282 0.0000 0.0000 0.0000
# 4 0.0000 0.0000 0.0000 27.2177 0.0000 0.0000
# 5 0.0000 0.0000 0.0000 0.0000 32.2300 0.0000
# 6 0.0000 0.0000 0.0000 0.0000 0.0000 30.7038
#
#
#
# Elastic Compliance Matrix: (Units=1/GPa)
#
#
# Indices 1 2 3 4 5 6 
#
# 1 0.013999 -0.015055 0.005495 0.000000 0.000000 0.000000
# 2 -0.015055 0.040083 -0.018860 0.000000 0.000000 0.000000
# 3 0.005495 -0.018860 0.018291 0.000000 0.000000 0.000000
# 4 0.000000 0.000000 0.000000 0.036741 0.000000 0.000000
# 5 0.000000 0.000000 0.000000 0.000000 0.031027 0.000000
# 6 0.000000 0.000000 0.000000 0.000000 0.000000 0.032569
#
#
# Mechanical properties :
#
#
# Convention : Reuss Voigt Hill
#
# Bulk Modulus (GPa) = 64.38333 64.56072 64.47202
# Shear Modulus (GPa) = 21.30124 29.42521 25.36323
#
# Velocity S-wave (km/s) = 3.34683 3.93360 3.65202
# Velocity P-wave (km/s) = 6.98505 7.38784 7.18927
#
# Compressibility (1/GPa) = 0.01553197
#
# Stress axis : x y z
#
# Youngs Moduli (GPa) = 71.43181 24.94824 54.67303
#
# Poissons Ratio (x) = 0.37558 -0.30040
# Poissons Ratio (y) = 1.07537 1.03116
# Poissons Ratio (z) = -0.39249 0.47054
#
# Static dielectric constant tensor:
#      x y z
#    x 1.651050 0.000000 0.000000 
#    y 0.000000 1.649670 0.000000 
#    z 0.000000 0.000000 1.646050 
# 
# From -- ./inp_files/33637.got.cif
#   From: 2010.05.17/outbox.cif.g08.bks.cpg/sg74_17_cif.got.tgz:33637.got - 2010.06.03 17:57:02.
