data_PCOD9538146
_publ_section_title
;
Structure prediction by ZEFSAII (Michael W. Deem and Ramdas Pophale) SiO2 
 PCOD9538146
Probable space group: I M M A
;
_chemical_formula_sum "Si O2"
_cell_formula_units_Z 104
_cell_length_a 20.456724
_cell_length_b 13.612438
_cell_length_c 19.680140
_cell_angle_alpha 90.000000
_cell_angle_beta 90.000000
_cell_angle_gamma 90.000000
_cell_volume 5480.247644
_symmetry_space_group_name_H-M "I M M A"
_symmetry_group_IT_number 74
_symmetry_cell_setting 'orthorhombic'
loop_
_space_group_symop_operation_xyz
x,y,z
-x,1/2-y,z
x,-y,-z
-x,1/2+y,-z
-x,-y,-z
x,1/2+y,-z
-x,y,z
x,1/2-y,z
1/2+x,1/2+y,1/2+z
1/2-x,-y,1/2+z
1/2+x,1/2-y,1/2-z
1/2-x,y,1/2-z
1/2-x,1/2-y,1/2-z
1/2+x,y,1/2-z
1/2-x,1/2+y,1/2+z
1/2+x,-y,1/2+z
loop_
_atom_site_type_symbol
_atom_site_label
_atom_site_fract_x
_atom_site_fract_y
_atom_site_fract_z
Si Si1 0.225606 0.359023 0.923001
Si Si2 0.373583 0.135257 0.952393
Si Si3 0.422000 0.638726 0.617466
Si Si4 0.921229 0.968045 0.743317
Si Si5 0.179103 0.362377 0.770342
Si Si6 0.075127 0.433615 0.408513
Si Si7 0.130793 0.500000 0.000000
O O1 0.228923 0.250000 0.951518
O O2 0.301389 0.390502 0.923500
O O3 0.189438 0.356511 0.850814
O O4 0.179322 0.422953 0.967577
O O5 0.387725 0.250000 0.937674
O O6 0.419817 0.051494 0.920868
O O7 0.380334 0.116788 0.033753
O O8 0.500000 0.646142 0.620774
O O9 0.396448 0.750000 0.604931
O O10 0.401324 0.596586 0.691147
O O11 0.407021 0.559776 0.558467
O O12 0.880029 0.068663 0.748645
O O13 0.000000 0.985206 0.746018
O O14 0.907618 0.917851 0.670375
O O15 0.173021 0.250000 0.743220
O O16 0.250000 0.403663 0.750000
O O17 0.000000 0.402264 0.419823
#
# Coordination Sequence:
#
# PCOD9538146 Si02
#       7
#    16  16  16  16  16  16   8
#     4  10  21  34  53  83 111 145 191 236 285 346
#     4  10  20  36  56  81 116 152 189 236 291 342
#     4  10  22  39  59  84 113 149 192 235 287 351
#     4  10  21  39  59  83 118 158 197 243 301 354
#     4  10  20  36  57  83 115 153 197 241 296 357
#     4  10  21  35  55  84 113 148 197 242 288 350
#     4  12  19  36  62  80 109 148 184 236 290 336
#
# _framework density 18.977243999999999
#
# number of rings (size 3 to 8) (size 9 to 14) (size 15 to 20)
#    0.000    1.846    1.538    3.462    0.000    4.000 
#    0.000    3.077    0.000    0.462    0.000    0.000 
#    0.000    0.000    0.000    0.000    0.000    0.000 
#
# Total GULP energy -289752.891800 kJ/mol
# GULP energy per Si atom -5572.170996 kJ/mol
# Density = 1.893405 g / cm^3
# Si number density = 18.977244 Si / 1000 Ang^3
#
#
#
# Elastic Constant Matrix: (Units=GPa)
#
#
# Indices 1 2 3 4 5 6 
#
# 1 33.2479 11.3117 -7.1214 0.0000 0.0000 0.0000
# 2 11.3117 19.3269 8.6633 0.0000 0.0000 0.0000
# 3 -7.1214 8.6633 80.6653 0.0000 0.0000 0.0000
# 4 0.0000 0.0000 0.0000 18.4311 0.0000 0.0000
# 5 0.0000 0.0000 0.0000 0.0000 33.4259 0.0000
# 6 0.0000 0.0000 0.0000 0.0000 0.0000 25.2691
#
#
#
# Elastic Compliance Matrix: (Units=1/GPa)
#
#
# Indices 1 2 3 4 5 6 
#
# 1 0.040500 -0.026586 0.006431 0.000000 0.000000 0.000000
# 2 -0.026586 0.071811 -0.010059 0.000000 0.000000 0.000000
# 3 0.006431 -0.010059 0.014045 0.000000 0.000000 0.000000
# 4 0.000000 0.000000 0.000000 0.054256 0.000000 0.000000
# 5 0.000000 0.000000 0.000000 0.000000 0.029917 0.000000
# 6 0.000000 0.000000 0.000000 0.000000 0.000000 0.039574
#
#
# Mechanical properties :
#
#
# Convention : Reuss Voigt Hill
#
# Bulk Modulus (GPa) = 15.16860 17.66081 16.41470
# Shear Modulus (GPa) = 15.03725 23.45100 19.24413
#
# Velocity S-wave (km/s) = 2.81798 3.51913 3.18789
# Velocity P-wave (km/s) = 4.31259 5.08319 4.71367
#
# Compressibility (1/GPa) = 0.06592566
#
# Stress axis : x y z
#
# Youngs Moduli (GPa) = 24.69154 13.92547 71.19978
#
# Poissons Ratio (x) = 0.37023 -0.45787
# Poissons Ratio (y) = 0.65646 0.71623
# Poissons Ratio (z) = -0.15878 0.14008
#
# Static dielectric constant tensor:
#      x y z
#    x 1.645260 0.000000 0.000000 
#    y 0.000000 1.606230 0.000000 
#    z 0.000000 0.000000 1.734570 
# 
# From -- ./inp_files/45288.got.cif
#   From: 2010.05.17/outbox.cif.g08.bks.cpg/sg74_23_cif.got.tgz:45288.got - 2010.06.03 17:57:02.
