data_PCOD9538278
_publ_section_title
;
Structure prediction by ZEFSAII (Michael W. Deem and Ramdas Pophale) SiO2 
 PCOD9538278
Probable space group: I M M A
;
_chemical_formula_sum "Si O2"
_cell_formula_units_Z 64
_cell_length_a 20.264524
_cell_length_b 9.973428
_cell_length_c 13.076400
_cell_angle_alpha 90.000000
_cell_angle_beta 90.000000
_cell_angle_gamma 90.000000
_cell_volume 2642.828981
_symmetry_space_group_name_H-M "I M M A"
_symmetry_group_IT_number 74
_symmetry_cell_setting 'orthorhombic'
loop_
_space_group_symop_operation_xyz
x,y,z
-x,1/2-y,z
x,-y,-z
-x,1/2+y,-z
-x,-y,-z
x,1/2+y,-z
-x,y,z
x,1/2-y,z
1/2+x,1/2+y,1/2+z
1/2-x,-y,1/2+z
1/2+x,1/2-y,1/2-z
1/2-x,y,1/2-z
1/2-x,1/2-y,1/2-z
1/2+x,y,1/2-z
1/2-x,1/2+y,1/2+z
1/2+x,-y,1/2+z
loop_
_atom_site_type_symbol
_atom_site_label
_atom_site_fract_x
_atom_site_fract_y
_atom_site_fract_z
Si Si1 0.599940 0.250000 0.293678
Si Si2 0.419971 0.419299 0.914113
Si Si3 0.888438 0.750000 0.570352
Si Si4 0.732798 0.250000 0.395504
Si Si5 0.574835 0.453495 0.675736
Si Si6 0.666361 0.000000 0.500000
O O1 0.574828 0.250000 0.179332
O O2 0.680472 0.250000 0.301040
O O3 0.574901 0.385977 0.341458
O O4 0.500000 0.412263 0.910861
O O5 0.400104 0.250000 0.937083
O O6 0.404525 0.583591 0.950278
O O7 0.399821 0.427790 0.791962
O O8 0.810794 0.750000 0.593791
O O9 0.711630 0.111159 0.447919
O O10 0.500000 0.403425 0.667083
O O11 0.623397 0.417382 0.583671
#
# Coordination Sequence:
#
# PCOD9538278 Si02
#       6
#     8  16   8   8  16   8
#     4  10  20  36  59  91 116 156 208 261 294 361
#     4  10  21  35  56  89 121 149 191 246 307 373
#     4  12  22  37  60  85 122 168 196 251 314 368
#     4  10  25  41  63  86 124 162 219 252 294 357
#     4  10  20  37  62  90 122 158 200 252 313 366
#     4  10  23  44  62  90 123 164 210 260 294 356
#
# _framework density 24.216473000000001
#
# number of rings (size 3 to 8) (size 9 to 14) (size 15 to 20)
#    0.000    1.750    2.500    1.500    1.750    2.000 
#    0.000    5.625    0.000    0.000    0.000    0.000 
#    0.000    0.000    0.000    0.000    0.000    0.000 
#
# Total GULP energy -178254.564929 kJ/mol
# GULP energy per Si atom -5570.455154 kJ/mol
# Density = 2.416136 g / cm^3
# Si number density = 24.216473 Si / 1000 Ang^3
#
#
#
# Elastic Constant Matrix: (Units=GPa)
#
#
# Indices 1 2 3 4 5 6 
#
# 1 160.1777 37.4008 54.4877 0.0000 0.0000 0.0000
# 2 37.4008 156.3173 39.9533 0.0000 0.0000 0.0000
# 3 54.4877 39.9533 149.3025 0.0000 0.0000 0.0000
# 4 0.0000 0.0000 0.0000 24.8581 0.0000 0.0000
# 5 0.0000 0.0000 0.0000 0.0000 -12.2808 0.0000
# 6 0.0000 0.0000 0.0000 0.0000 0.0000 47.7112
#
#
#
# Elastic Compliance Matrix: (Units=1/GPa)
#
#
# Indices 1 2 3 4 5 6 
#
# 1 0.007314 -0.001146 -0.002363 0.000000 0.000000 0.000000
# 2 -0.001146 0.007047 -0.001467 0.000000 0.000000 0.000000
# 3 -0.002363 -0.001467 0.007953 0.000000 0.000000 0.000000
# 4 0.000000 0.000000 0.000000 0.040228 0.000000 0.000000
# 5 0.000000 0.000000 0.000000 0.000000 -0.081428 0.000000
# 6 0.000000 0.000000 0.000000 0.000000 0.000000 0.020959
#
#
# Mechanical properties :
#
#
# Convention : Reuss Voigt Hill
#
# Bulk Modulus (GPa) = 80.89789 81.05345 80.97567
# Shear Modulus (GPa) = 309.66518 34.32141 171.99329
#
# Velocity S-wave (km/s) = 11.32040 3.76876 8.43667
# Velocity P-wave (km/s) = 14.29500 7.24438 11.33200
#
# Compressibility (1/GPa) = 0.01236126
#
# Stress axis : x y z
#
# Youngs Moduli (GPa) = 136.71655 141.91398 125.74313
#
# Poissons Ratio (x) = 0.16266 0.29709
# Poissons Ratio (y) = 0.15670 0.18451
# Poissons Ratio (z) = 0.32301 0.20824
#
# Static dielectric constant tensor:
#      x y z
#    x 1.878260 0.000000 0.000000 
#    y 0.000000 2.098300 0.000000 
#    z 0.000000 0.000000 2.030750 
# 
# From -- ./inp_files/44813.got.cif
#   From: 2010.05.17/outbox.cif.g08.bks.cpg/sg74_23_cif.got.tgz:44813.got - 2010.06.03 17:57:02.
