data_PCOD9538649
_publ_section_title
;
Structure prediction by ZEFSAII (Michael W. Deem and Ramdas Pophale) SiO2 
 PCOD9538649
Probable space group: I M M A
;
_chemical_formula_sum "Si O2"
_cell_formula_units_Z 72
_cell_length_a 15.791324
_cell_length_b 28.113021
_cell_length_c 7.852592
_cell_angle_alpha 90.000000
_cell_angle_beta 90.000000
_cell_angle_gamma 90.000000
_cell_volume 3486.094010
_symmetry_space_group_name_H-M "I M M A"
_symmetry_group_IT_number 74
_symmetry_cell_setting 'orthorhombic'
loop_
_space_group_symop_operation_xyz
x,y,z
-x,1/2-y,z
x,-y,-z
-x,1/2+y,-z
-x,-y,-z
x,1/2+y,-z
-x,y,z
x,1/2-y,z
1/2+x,1/2+y,1/2+z
1/2-x,-y,1/2+z
1/2+x,1/2-y,1/2-z
1/2-x,y,1/2-z
1/2-x,1/2-y,1/2-z
1/2+x,y,1/2-z
1/2-x,1/2+y,1/2+z
1/2+x,-y,1/2+z
loop_
_atom_site_type_symbol
_atom_site_label
_atom_site_fract_x
_atom_site_fract_y
_atom_site_fract_z
Si Si1 0.901822 0.495179 0.296469
Si Si2 0.902065 0.892326 0.754443
Si Si3 0.598819 0.403096 0.656685
Si Si4 0.250000 0.336450 0.750000
Si Si5 0.684528 0.698995 0.903496
O O1 0.901585 0.500000 0.500000
O O2 0.859498 0.444038 0.269164
O O3 0.872419 0.542570 0.198571
O O4 0.000000 0.490940 0.236716
O O5 0.865586 0.848738 0.647261
O O6 0.000000 0.896024 0.700806
O O7 0.899464 0.887700 0.958788
O O8 0.500000 0.399378 0.714155
O O9 0.666132 0.368842 0.743137
O O10 0.236224 0.307180 0.578074
O O11 0.636777 0.750000 0.911096
O O12 0.750000 0.702169 0.750000
#
# Coordination Sequence:
#
# PCOD9538649 Si02
#       5
#    16  16  16   8  16
#     4   9  17  32  56  87 125 167 207 256 318 378
#     4  10  20  39  64  89 125 168 213 266 320 382
#     4  10  21  38  61  94 130 168 215 263 317 388
#     4  12  23  42  68  96 124 172 213 266 324 390
#     4  11  24  43  64  89 123 163 209 266 325 377
#
# _framework density 20.653487999999999
#
# number of rings (size 3 to 8) (size 9 to 14) (size 15 to 20)
#    0.000    1.778    2.222    2.333    0.000    5.778 
#    2.000    0.000    0.000    2.000    0.000    0.000 
#    0.000    0.000    0.000    0.000    0.000    0.000 
#
# Total GULP energy -200576.475457 kJ/mol
# GULP energy per Si atom -5571.568763 kJ/mol
# Density = 2.060648 g / cm^3
# Si number density = 20.653488 Si / 1000 Ang^3
#
#
#
# Elastic Constant Matrix: (Units=GPa)
#
#
# Indices 1 2 3 4 5 6 
#
# 1 48.4407 36.9855 25.6415 -0.0006 -0.0001 0.0002
# 2 36.9855 146.5499 57.6752 -0.0044 0.0000 0.0003
# 3 25.6415 57.6752 104.4503 -0.0141 -0.0009 0.0002
# 4 -0.0006 -0.0044 -0.0141 63.6717 -0.0005 -0.0011
# 5 -0.0001 0.0000 -0.0009 -0.0005 24.4575 -0.0001
# 6 0.0002 0.0003 0.0002 -0.0011 -0.0001 26.0364
#
#
#
# Elastic Compliance Matrix: (Units=1/GPa)
#
#
# Indices 1 2 3 4 5 6 
#
# 1 0.026593 -0.005292 -0.003606 -0.000001 0.000000 0.000000
# 2 -0.005292 0.009771 -0.004096 0.000000 0.000000 0.000000
# 3 -0.003606 -0.004096 0.012721 0.000003 0.000000 0.000000
# 4 -0.000001 0.000000 0.000003 0.015706 0.000000 0.000001
# 5 0.000000 0.000000 0.000000 0.000000 0.040887 0.000000
# 6 0.000000 0.000000 0.000000 0.000001 0.000000 0.038408
#
#
# Mechanical properties :
#
#
# Convention : Reuss Voigt Hill
#
# Bulk Modulus (GPa) = 43.29682 60.00503 51.65092
# Shear Modulus (GPa) = 28.12546 34.77569 31.45057
#
# Velocity S-wave (km/s) = 3.69423 4.10783 3.90651
# Velocity P-wave (km/s) = 6.26142 7.18438 6.73872
#
# Compressibility (1/GPa) = 0.02309639
#
# Stress axis : x y z
#
# Youngs Moduli (GPa) = 37.60328 102.33955 78.60947
#
# Poissons Ratio (x) = 0.54161 0.28348
# Poissons Ratio (y) = 0.19901 0.32201
# Poissons Ratio (z) = 0.13560 0.41922
#
# Static dielectric constant tensor:
#      x y z
#    x 1.751960 0.000000 0.000000 
#    y 0.000000 1.847810 0.000000 
#    z 0.000000 0.000000 1.751980 
# 
# From -- ./inp_files/10686.got.cif
#   From: 2010.05.17/outbox.cif.g08.bks.cpg/sg74_6_cif.got.tgz:10686.got - 2010.06.03 17:57:02.
