data_PCOD9538971
_publ_section_title
;
Structure prediction by ZEFSAII (Michael W. Deem and Ramdas Pophale) SiO2 
 PCOD9538971
Probable space group: I M M A
;
_chemical_formula_sum "Si O2"
_cell_formula_units_Z 104
_cell_length_a 7.781947
_cell_length_b 22.488457
_cell_length_c 27.376638
_cell_angle_alpha 90.000000
_cell_angle_beta 90.000000
_cell_angle_gamma 90.000000
_cell_volume 4791.020622
_symmetry_space_group_name_H-M "I M M A"
_symmetry_group_IT_number 74
_symmetry_cell_setting 'orthorhombic'
loop_
_space_group_symop_operation_xyz
x,y,z
-x,1/2-y,z
x,-y,-z
-x,1/2+y,-z
-x,-y,-z
x,1/2+y,-z
-x,y,z
x,1/2-y,z
1/2+x,1/2+y,1/2+z
1/2-x,-y,1/2+z
1/2+x,1/2-y,1/2-z
1/2-x,y,1/2-z
1/2-x,1/2-y,1/2-z
1/2+x,y,1/2-z
1/2-x,1/2+y,1/2+z
1/2+x,-y,1/2+z
loop_
_atom_site_type_symbol
_atom_site_label
_atom_site_fract_x
_atom_site_fract_y
_atom_site_fract_z
Si Si1 0.199202 0.182530 0.982519
Si Si2 0.699594 0.355560 0.875705
Si Si3 0.793553 0.543952 0.305398
Si Si4 0.206717 0.183670 0.305271
Si Si5 0.795010 0.556649 0.530821
Si Si6 0.705626 0.750000 0.306687
Si Si7 0.210727 0.570556 0.640340
O O1 0.272644 0.250000 0.991327
O O2 0.214418 0.168418 0.924718
O O3 0.000000 0.185477 0.995961
O O4 0.269234 0.122909 0.008712
O O5 0.500000 0.366071 0.888820
O O6 0.772423 0.413655 0.848834
O O7 0.715223 0.306288 0.833934
O O8 0.750000 0.561056 0.250000
O O9 0.736903 0.477805 0.319419
O O10 0.000000 0.546978 0.308427
O O11 0.274908 0.250000 0.313291
O O12 0.250000 0.165761 0.250000
O O13 0.270206 0.135196 0.343127
O O14 0.000000 0.185869 0.308999
O O15 0.726878 0.500000 0.500000
O O16 0.729092 0.554815 0.586240
O O17 0.000000 0.548258 0.533464
O O18 0.500000 0.750000 0.313104
O O19 0.750000 0.750000 0.250000
O O20 0.000000 0.570720 0.639663
#
# Coordination Sequence:
#
# PCOD9538971 Si02
#       7
#    16  16  16  16  16   8  16
#     4  11  24  41  61  88 122 158 198 251 310 370
#     4  11  22  38  60  84 112 152 200 244 294 353
#     4  10  21  36  56  84 116 151 192 239 289 347
#     4   9  17  30  50  76 106 141 179 219 269 332
#     4  10  21  39  63  88 115 152 200 252 302 358
#     4  12  24  38  56  82 116 152 192 240 291 346
#     4   9  18  34  55  80 111 145 186 235 284 340
#
# _framework density 21.707273000000001
#
# number of rings (size 3 to 8) (size 9 to 14) (size 15 to 20)
#    0.000    1.846    0.769    3.462    0.000    6.769 
#    0.000    3.077    0.000    1.846    0.000    0.000 
#    0.000    0.000    0.000    0.000    0.000    0.000 
#
# Total GULP energy -290287.712389 kJ/mol
# GULP energy per Si atom -5582.456007 kJ/mol
# Density = 2.165787 g / cm^3
# Si number density = 21.707273 Si / 1000 Ang^3
#
#
#
# Elastic Constant Matrix: (Units=GPa)
#
#
# Indices 1 2 3 4 5 6 
#
# 1 33.6086 -0.5277 -6.0774 0.0000 0.0000 0.0000
# 2 -0.5277 117.7821 41.2342 0.0000 0.0000 0.0000
# 3 -6.0774 41.2342 37.2749 0.0000 0.0000 0.0000
# 4 0.0000 0.0000 0.0000 73.0721 0.0000 0.0000
# 5 0.0000 0.0000 0.0000 0.0000 23.0076 0.0000
# 6 0.0000 0.0000 0.0000 0.0000 0.0000 24.1635
#
#
#
# Elastic Compliance Matrix: (Units=1/GPa)
#
#
# Indices 1 2 3 4 5 6 
#
# 1 0.031166 -0.002675 0.008041 0.000000 0.000000 0.000000
# 2 -0.002675 0.014086 -0.016019 0.000000 0.000000 0.000000
# 3 0.008041 -0.016019 0.045859 0.000000 0.000000 0.000000
# 4 0.000000 0.000000 0.000000 0.013685 0.000000 0.000000
# 5 0.000000 0.000000 0.000000 0.000000 0.043464 0.000000
# 6 0.000000 0.000000 0.000000 0.000000 0.000000 0.041385
#
#
# Mechanical properties :
#
#
# Convention : Reuss Voigt Hill
#
# Bulk Modulus (GPa) = 14.32555 28.65821 21.49188
# Shear Modulus (GPa) = 21.34746 34.31772 27.83259
#
# Velocity S-wave (km/s) = 3.13936 3.98041 3.58464
# Velocity P-wave (km/s) = 4.44461 5.86137 5.20145
#
# Compressibility (1/GPa) = 0.06980535
#
# Stress axis : x y z
#
# Youngs Moduli (GPa) = 32.08593 70.99129 21.80600
#
# Poissons Ratio (x) = 0.18993 -0.17534
# Poissons Ratio (y) = 0.08584 0.34930
# Poissons Ratio (z) = -0.25801 1.13719
#
# Static dielectric constant tensor:
#      x y z
#    x 1.817350 0.000000 0.000000 
#    y 0.000000 1.854260 0.000000 
#    z 0.000000 0.000000 1.788920 
# 
# From -- ./inp_files/64456.got.cif
#   From: 2010.05.17/outbox.cif.g08.bks.cpg/sg74_33_cif.got.tgz:64456.got - 2010.06.03 17:57:02.
