data_PCOD9538008
_publ_section_title
;
Structure prediction by ZEFSAII (Michael W. Deem and Ramdas Pophale) SiO2 
 PCOD9538008
Probable space group: I M M A
;
_chemical_formula_sum "Si O2"
_cell_formula_units_Z 72
_cell_length_a 16.643539
_cell_length_b 14.424441
_cell_length_c 17.614817
_cell_angle_alpha 90.000000
_cell_angle_beta 90.000000
_cell_angle_gamma 90.000000
_cell_volume 4228.855108
_symmetry_space_group_name_H-M "I M M A"
_symmetry_group_IT_number 74
_symmetry_cell_setting 'orthorhombic'
loop_
_space_group_symop_operation_xyz
x,y,z
-x,1/2-y,z
x,-y,-z
-x,1/2+y,-z
-x,-y,-z
x,1/2+y,-z
-x,y,z
x,1/2-y,z
1/2+x,1/2+y,1/2+z
1/2-x,-y,1/2+z
1/2+x,1/2-y,1/2-z
1/2-x,y,1/2-z
1/2-x,1/2-y,1/2-z
1/2+x,y,1/2-z
1/2-x,1/2+y,1/2+z
1/2+x,-y,1/2+z
loop_
_atom_site_type_symbol
_atom_site_label
_atom_site_fract_x
_atom_site_fract_y
_atom_site_fract_z
Si Si1 0.596231 0.250000 0.786348
Si Si2 0.905471 0.567238 0.195656
Si Si3 0.325136 0.575294 0.803635
Si Si4 0.819142 0.250000 0.553408
Si Si5 0.732438 0.555398 0.422174
Si Si6 0.597054 0.250000 0.110801
O O1 0.500000 0.250000 0.786033
O O2 0.623051 0.341658 0.741750
O O3 0.625406 0.250000 0.872158
O O4 0.885932 0.479707 0.248956
O O5 0.852451 0.561275 0.120505
O O6 0.000000 0.574294 0.180764
O O7 0.250000 0.604853 0.750000
O O8 0.290384 0.501951 0.865013
O O9 0.367412 0.660014 0.846188
O O10 0.766477 0.342957 0.559917
O O11 0.869363 0.250000 0.475373
O O12 0.726278 0.500000 0.500000
O O13 0.500000 0.250000 0.111407
#
# Coordination Sequence:
#
# PCOD9538008 Si02
#       6
#     8  16  16   8  16   8
#     4  10  20  35  57  88 118 143 183 234 287 339
#     4  10  21  37  60  87 114 147 190 242 287 328
#     4  10  21  39  61  83 110 151 195 233 279 340
#     4  12  22  37  57  87 117 154 187 228 278 348
#     4  11  22  38  59  84 115 154 193 230 282 342
#     4  12  24  38  57  85 119 153 185 232 287 333
#
# _framework density 17.025884999999999
#
# number of rings (size 3 to 8) (size 9 to 14) (size 15 to 20)
#    0.000    1.333    4.444    2.000    0.000    1.333 
#    0.000    1.111    0.000    0.000    0.000    0.000 
#    0.000    0.000    0.000    0.000    0.000    0.000 
#
# Total GULP energy -201033.194116 kJ/mol
# GULP energy per Si atom -5584.255392 kJ/mol
# Density = 1.698713 g / cm^3
# Si number density = 17.025885 Si / 1000 Ang^3
#
#
#
# Elastic Constant Matrix: (Units=GPa)
#
#
# Indices 1 2 3 4 5 6 
#
# 1 101.6858 64.6149 61.9936 0.0000 0.0000 0.0000
# 2 64.6149 121.4841 57.6984 0.0000 0.0000 0.0000
# 3 61.9936 57.6984 125.8053 0.0000 0.0000 0.0000
# 4 0.0000 0.0000 0.0000 31.5128 0.0000 0.0000
# 5 0.0000 0.0000 0.0000 0.0000 28.1632 0.0000
# 6 0.0000 0.0000 0.0000 0.0000 0.0000 19.9487
#
#
#
# Elastic Compliance Matrix: (Units=1/GPa)
#
#
# Indices 1 2 3 4 5 6 
#
# 1 0.017434 -0.006639 -0.005546 0.000000 0.000000 0.000000
# 2 -0.006639 0.013052 -0.002715 0.000000 0.000000 0.000000
# 3 -0.005546 -0.002715 0.011927 0.000000 0.000000 0.000000
# 4 0.000000 0.000000 0.000000 0.031733 0.000000 0.000000
# 5 0.000000 0.000000 0.000000 0.000000 0.035507 0.000000
# 6 0.000000 0.000000 0.000000 0.000000 0.000000 0.050129
#
#
# Mechanical properties :
#
#
# Convention : Reuss Voigt Hill
#
# Bulk Modulus (GPa) = 79.27996 79.73210 79.50603
# Shear Modulus (GPa) = 25.80174 26.90281 26.35228
#
# Velocity S-wave (km/s) = 3.89709 3.97938 3.93845
# Velocity P-wave (km/s) = 8.18017 8.24897 8.21464
#
# Compressibility (1/GPa) = 0.01261353
#
# Stress axis : x y z
#
# Youngs Moduli (GPa) = 57.35923 76.61806 83.84387
#
# Poissons Ratio (x) = 0.50863 0.46503
# Poissons Ratio (y) = 0.38078 0.22761
# Poissons Ratio (z) = 0.31814 0.20799
#
# Static dielectric constant tensor:
#      x y z
#    x 1.559350 0.000000 0.000000 
#    y 0.000000 1.571620 0.000000 
#    z 0.000000 0.000000 1.543800 
# 
# From -- ./inp_files/31964.got.cif
#   From: 2010.05.17/outbox.cif.g08.bks.cpg/sg74_16_cif.got.tgz:31964.got - 2010.06.03 17:57:02.
