data_PCOD9538195
_publ_section_title
;
Structure prediction by ZEFSAII (Michael W. Deem and Ramdas Pophale) SiO2 
 PCOD9538195
Probable space group: I M M A
;
_chemical_formula_sum "Si O2"
_cell_formula_units_Z 96
_cell_length_a 8.556432
_cell_length_b 24.274265
_cell_length_c 25.829643
_cell_angle_alpha 90.000000
_cell_angle_beta 90.000000
_cell_angle_gamma 90.000000
_cell_volume 5364.845207
_symmetry_space_group_name_H-M "I M M A"
_symmetry_group_IT_number 74
_symmetry_cell_setting 'orthorhombic'
loop_
_space_group_symop_operation_xyz
x,y,z
-x,1/2-y,z
x,-y,-z
-x,1/2+y,-z
-x,-y,-z
x,1/2+y,-z
-x,y,z
x,1/2-y,z
1/2+x,1/2+y,1/2+z
1/2-x,-y,1/2+z
1/2+x,1/2-y,1/2-z
1/2-x,y,1/2-z
1/2-x,1/2-y,1/2-z
1/2+x,y,1/2-z
1/2-x,1/2+y,1/2+z
1/2+x,-y,1/2+z
loop_
_atom_site_type_symbol
_atom_site_label
_atom_site_fract_x
_atom_site_fract_y
_atom_site_fract_z
Si Si1 0.188953 0.366157 0.098745
Si Si2 0.187902 0.635189 0.099514
Si Si3 0.687869 0.943841 0.692328
Si Si4 0.190351 0.437057 0.999285
Si Si5 0.313618 0.935474 0.192220
Si Si6 0.186882 0.250000 0.436588
Si Si7 0.312171 0.250000 0.942530
O O1 0.236231 0.397577 0.151103
O O2 0.252759 0.305046 0.090989
O O3 0.000000 0.363793 0.098059
O O4 0.240329 0.403043 0.049705
O O5 0.237174 0.594932 0.052462
O O6 0.254363 0.610021 0.152191
O O7 0.249078 0.695541 0.085366
O O8 0.000000 0.635827 0.101802
O O9 0.500000 0.946434 0.693518
O O10 0.750000 0.932771 0.750000
O O11 0.749837 0.004139 0.676253
O O12 0.000000 0.438127 0.000020
O O13 0.245011 0.500000 0.000000
O O14 0.250000 0.925234 0.250000
O O15 0.000000 0.937153 0.306523
O O16 0.239741 0.250000 0.497000
O O17 0.000000 0.250000 0.436555
O O18 0.500000 0.250000 0.941651
#
# Coordination Sequence:
#
# PCOD9538195 Si02
#       7
#    16  16  16  16  16   8   8
#     4  10  20  36  58  82 111 150 196 237 280 341
#     4  11  21  36  60  85 113 150 195 237 282 337
#     4  10  20  36  60  87 116 151 192 238 287 343
#     4   9  17  30  52  82 112 141 180 230 279 334
#     4  11  22  38  60  86 119 154 190 234 285 341
#     4  11  23  37  56  81 116 153 190 239 290 340
#     4  11  23  39  56  81 118 155 191 233 289 344
#
# _framework density 17.894272999999998
#
# number of rings (size 3 to 8) (size 9 to 14) (size 15 to 20)
#    0.000    1.667    1.667    5.000    0.000    4.667 
#    0.000    0.833    0.000    2.500    0.000    0.000 
#    0.000    0.000    0.000    0.000    0.000    0.000 
#
# Total GULP energy -268175.944789 kJ/mol
# GULP energy per Si atom -5586.998850 kJ/mol
# Density = 1.785354 g / cm^3
# Si number density = 17.894273 Si / 1000 Ang^3
#
#
#
# Elastic Constant Matrix: (Units=GPa)
#
#
# Indices 1 2 3 4 5 6 
#
# 1 65.7771 43.8695 40.3190 0.0000 0.0000 0.0000
# 2 43.8695 184.5091 94.2877 0.0000 0.0000 0.0000
# 3 40.3190 94.2877 109.8978 0.0000 0.0000 0.0000
# 4 0.0000 0.0000 0.0000 10.0525 0.0000 0.0000
# 5 0.0000 0.0000 0.0000 0.0000 22.5591 0.0000
# 6 0.0000 0.0000 0.0000 0.0000 0.0000 21.5236
#
#
#
# Elastic Compliance Matrix: (Units=1/GPa)
#
#
# Indices 1 2 3 4 5 6 
#
# 1 0.019938 -0.001785 -0.005783 0.000000 0.000000 0.000000
# 2 -0.001785 0.009811 -0.007762 0.000000 0.000000 0.000000
# 3 -0.005783 -0.007762 0.017881 0.000000 0.000000 0.000000
# 4 0.000000 0.000000 0.000000 0.099478 0.000000 0.000000
# 5 0.000000 0.000000 0.000000 0.000000 0.044328 0.000000
# 6 0.000000 0.000000 0.000000 0.000000 0.000000 0.046461
#
#
# Mechanical properties :
#
#
# Convention : Reuss Voigt Hill
#
# Bulk Modulus (GPa) = 58.93293 79.68181 69.30737
# Shear Modulus (GPa) = 18.23386 22.94090 20.58738
#
# Velocity S-wave (km/s) = 3.19561 3.58442 3.39558
# Velocity P-wave (km/s) = 6.82798 7.85854 7.36132
#
# Compressibility (1/GPa) = 0.01696844
#
# Stress axis : x y z
#
# Youngs Moduli (GPa) = 50.15431 101.92607 55.92529
#
# Poissons Ratio (x) = 0.18197 0.32343
# Poissons Ratio (y) = 0.08954 0.43412
# Poissons Ratio (z) = 0.29006 0.79120
#
# Static dielectric constant tensor:
#      x y z
#    x 1.604190 0.000000 0.000000 
#    y 0.000000 1.580950 0.000000 
#    z 0.000000 0.000000 1.598460 
# 
# From -- ./inp_files/57242.got.cif
#   From: 2010.05.17/outbox.cif.g08.bks.cpg/sg74_29_cif.got.tgz:57242.got - 2010.06.03 17:57:02.
