data_PCOD9538979
_publ_section_title
;
Structure prediction by ZEFSAII (Michael W. Deem and Ramdas Pophale) SiO2 
 PCOD9538979
Probable space group: I M M A
;
_chemical_formula_sum "Si O2"
_cell_formula_units_Z 80
_cell_length_a 28.463022
_cell_length_b 15.653273
_cell_length_c 7.961613
_cell_angle_alpha 90.000000
_cell_angle_beta 90.000000
_cell_angle_gamma 90.000000
_cell_volume 3547.212707
_symmetry_space_group_name_H-M "I M M A"
_symmetry_group_IT_number 74
_symmetry_cell_setting 'orthorhombic'
loop_
_space_group_symop_operation_xyz
x,y,z
-x,1/2-y,z
x,-y,-z
-x,1/2+y,-z
-x,-y,-z
x,1/2+y,-z
-x,y,z
x,1/2-y,z
1/2+x,1/2+y,1/2+z
1/2-x,-y,1/2+z
1/2+x,1/2-y,1/2-z
1/2-x,y,1/2-z
1/2-x,1/2-y,1/2-z
1/2+x,y,1/2-z
1/2-x,1/2+y,1/2+z
1/2+x,-y,1/2+z
loop_
_atom_site_type_symbol
_atom_site_label
_atom_site_fract_x
_atom_site_fract_y
_atom_site_fract_z
Si Si1 0.719481 0.156855 0.586300
Si Si2 0.054316 0.995764 0.206701
Si Si3 0.709170 0.560104 0.854600
Si Si4 0.884259 0.652849 0.766414
Si Si5 0.880208 0.653303 0.161626
O O1 0.701820 0.250000 0.526949
O O2 0.750000 0.167981 0.750000
O O3 0.754593 0.123547 0.447004
O O4 0.671720 0.111225 0.645902
O O5 0.078035 0.080617 0.284331
O O6 0.000000 0.988200 0.253066
O O7 0.084876 0.912033 0.250286
O O8 0.056471 0.000000 0.000000
O O9 0.750000 0.510185 0.750000
O O10 0.667089 0.610128 0.765116
O O11 0.688953 0.500000 0.000000
O O12 0.886444 0.750000 0.696622
O O13 0.893462 0.660612 0.965838
O O14 0.878818 0.750000 0.234590
#
# Coordination Sequence:
#
# PCOD9538979 Si02
#       5
#    16  16  16  16  16
#     4  10  21  36  56  85 122 161 199 244 300 366
#     4   9  19  34  56  87 121 153 197 258 313 359
#     4  12  25  36  57  86 122 165 208 255 312 370
#     4  10  21  37  58  83 116 160 209 252 300 364
#     4   9  18  33  57  86 122 162 200 246 300 363
#
# _framework density 22.552918999999999
#
# number of rings (size 3 to 8) (size 9 to 14) (size 15 to 20)
#    0.000    2.000    2.000    1.200    5.600    1.600 
#    0.000    4.000    0.000    0.600    0.000    0.000 
#    0.000    0.000    0.000    0.000    0.000    0.000 
#
# Total GULP energy -223001.021946 kJ/mol
# GULP energy per Si atom -5575.025549 kJ/mol
# Density = 2.250159 g / cm^3
# Si number density = 22.552919 Si / 1000 Ang^3
#
#
#
# Elastic Constant Matrix: (Units=GPa)
#
#
# Indices 1 2 3 4 5 6 
#
# 1 170.6230 82.6245 3.2115 0.0000 0.0000 0.0000
# 2 82.6245 152.7674 15.0853 0.0000 0.0000 0.0000
# 3 3.2115 15.0853 30.1087 0.0000 0.0000 0.0000
# 4 0.0000 0.0000 0.0000 10.0045 0.0000 0.0000
# 5 0.0000 0.0000 0.0000 0.0000 12.2726 0.0000
# 6 0.0000 0.0000 0.0000 0.0000 0.0000 26.0174
#
#
#
# Elastic Compliance Matrix: (Units=1/GPa)
#
#
# Indices 1 2 3 4 5 6 
#
# 1 0.007995 -0.004461 0.001382 0.000000 0.000000 0.000000
# 2 -0.004461 0.009375 -0.004221 0.000000 0.000000 0.000000
# 3 0.001382 -0.004221 0.035181 0.000000 0.000000 0.000000
# 4 0.000000 0.000000 0.000000 0.099955 0.000000 0.000000
# 5 0.000000 0.000000 0.000000 0.000000 0.081482 0.000000
# 6 0.000000 0.000000 0.000000 0.000000 0.000000 0.038436
#
#
# Mechanical properties :
#
#
# Convention : Reuss Voigt Hill
#
# Bulk Modulus (GPa) = 26.34979 61.70462 44.02720
# Shear Modulus (GPa) = 16.68480 26.49742 21.59111
#
# Velocity S-wave (km/s) = 2.72289 3.43140 3.09747
# Velocity P-wave (km/s) = 4.64698 6.56648 5.68828
#
# Compressibility (1/GPa) = 0.03795097
#
# Stress axis : x y z
#
# Youngs Moduli (GPa) = 125.08015 106.66401 28.42468
#
# Poissons Ratio (x) = 0.47578 -0.03928
# Poissons Ratio (y) = 0.55792 0.11999
# Poissons Ratio (z) = -0.17287 0.45028
#
# Static dielectric constant tensor:
#      x y z
#    x 1.785140 0.000000 0.000000 
#    y 0.000000 1.955480 0.000000 
#    z 0.000000 0.000000 1.994150 
# 
# From -- ./inp_files/14896.got.cif
#   From: 2010.05.17/outbox.cif.g08.bks.cpg/sg74_8_cif.got.tgz:14896.got - 2010.06.03 17:57:02.
