data_PCOD9538291
_publ_section_title
;
Structure prediction by ZEFSAII (Michael W. Deem and Ramdas Pophale) SiO2 
 PCOD9538291
Probable space group: I M M A
;
_chemical_formula_sum "Si O2"
_cell_formula_units_Z 80
_cell_length_a 17.803329
_cell_length_b 23.541369
_cell_length_c 10.084134
_cell_angle_alpha 90.000000
_cell_angle_beta 90.000000
_cell_angle_gamma 90.000000
_cell_volume 4226.409173
_symmetry_space_group_name_H-M "I M M A"
_symmetry_group_IT_number 74
_symmetry_cell_setting 'orthorhombic'
loop_
_space_group_symop_operation_xyz
x,y,z
-x,1/2-y,z
x,-y,-z
-x,1/2+y,-z
-x,-y,-z
x,1/2+y,-z
-x,y,z
x,1/2-y,z
1/2+x,1/2+y,1/2+z
1/2-x,-y,1/2+z
1/2+x,1/2-y,1/2-z
1/2-x,y,1/2-z
1/2-x,1/2-y,1/2-z
1/2+x,y,1/2-z
1/2-x,1/2+y,1/2+z
1/2+x,-y,1/2+z
loop_
_atom_site_type_symbol
_atom_site_label
_atom_site_fract_x
_atom_site_fract_y
_atom_site_fract_z
Si Si1 0.415054 0.016056 0.844379
Si Si2 0.915376 0.816795 0.888344
Si Si3 0.180481 0.876716 0.399573
Si Si4 0.836862 0.816037 0.153556
Si Si5 0.666323 0.595926 0.791849
O O1 0.500000 0.033231 0.803968
O O2 0.351629 0.064808 0.836582
O O3 0.387396 0.958496 0.775394
O O4 0.418576 0.000000 0.000000
O O5 0.904986 0.750000 0.861629
O O6 0.858992 0.853760 0.803385
O O7 0.000000 0.832789 0.853316
O O8 0.900244 0.825329 0.044282
O O9 0.141484 0.829778 0.304870
O O10 0.267727 0.858058 0.384611
O O11 0.163858 0.882357 0.555585
O O12 0.813015 0.750000 0.142241
O O13 0.750000 0.578625 0.750000
#
# Coordination Sequence:
#
# PCOD9538291 Si02
#       5
#    16  16  16  16  16
#     4   9  20  37  57  82 118 153 186 238 296 344
#     4  10  22  40  60  86 123 158 190 238 299 353
#     4  10  20  36  60  86 113 153 198 244 285 350
#     4  10  21  38  59  85 118 155 192 242 297 346
#     4  11  21  36  60  91 116 154 199 243 291 348
#
# _framework density 18.928598000000001
#
# number of rings (size 3 to 8) (size 9 to 14) (size 15 to 20)
#    0.000    2.000    2.000    1.800    2.800    3.600 
#    0.000    1.000    0.000    6.600    0.000    0.000 
#    0.000    0.000    0.000    0.000    0.000    0.000 
#
# Total GULP energy -222705.107095 kJ/mol
# GULP energy per Si atom -5567.627677 kJ/mol
# Density = 1.888552 g / cm^3
# Si number density = 18.928598 Si / 1000 Ang^3
#
#
#
# Elastic Constant Matrix: (Units=GPa)
#
#
# Indices 1 2 3 4 5 6 
#
# 1 59.6533 38.8541 -1.0672 0.0000 0.0000 0.0000
# 2 38.8541 59.4636 14.4202 0.0000 0.0000 0.0000
# 3 -1.0672 14.4202 69.6532 0.0000 0.0000 0.0000
# 4 0.0000 0.0000 0.0000 5.5302 0.0000 0.0000
# 5 0.0000 0.0000 0.0000 0.0000 7.4442 0.0000
# 6 0.0000 0.0000 0.0000 0.0000 0.0000 18.5500
#
#
#
# Elastic Compliance Matrix: (Units=1/GPa)
#
#
# Indices 1 2 3 4 5 6 
#
# 1 0.030673 -0.021221 0.004863 0.000000 0.000000 0.000000
# 2 -0.021221 0.032388 -0.007030 0.000000 0.000000 0.000000
# 3 0.004863 -0.007030 0.015887 0.000000 0.000000 0.000000
# 4 0.000000 0.000000 0.000000 0.180826 0.000000 0.000000
# 5 0.000000 0.000000 0.000000 0.000000 0.134333 0.000000
# 6 0.000000 0.000000 0.000000 0.000000 0.000000 0.053908
#
#
# Mechanical properties :
#
#
# Convention : Reuss Voigt Hill
#
# Bulk Modulus (GPa) = 31.08385 32.57604 31.82995
# Shear Modulus (GPa) = 9.89090 15.40907 12.64999
#
# Velocity S-wave (km/s) = 2.28839 2.85627 2.58795
# Velocity P-wave (km/s) = 4.84144 5.30331 5.07763
#
# Compressibility (1/GPa) = 0.03217105
#
# Stress axis : x y z
#
# Youngs Moduli (GPa) = 32.60242 30.87561 62.94510
#
# Poissons Ratio (x) = 0.65522 -0.30612
# Poissons Ratio (y) = 0.69186 0.44253
# Poissons Ratio (z) = -0.15856 0.21707
#
# Static dielectric constant tensor:
#      x y z
#    x 1.661680 0.000000 0.000000 
#    y 0.000000 1.651060 0.000000 
#    z 0.000000 0.000000 1.672370 
# 
# From -- ./inp_files/20474.got.cif
#   From: 2010.05.17/outbox.cif.g08.bks.cpg/sg74_11_cif.got.tgz:20474.got - 2010.06.03 17:57:02.
