data_PCOD9538184
_publ_section_title
;
Structure prediction by ZEFSAII (Michael W. Deem and Ramdas Pophale) SiO2 
 PCOD9538184
Probable space group: I M M A
;
_chemical_formula_sum "Si O2"
_cell_formula_units_Z 116
_cell_length_a 27.602820
_cell_length_b 7.391992
_cell_length_c 25.473245
_cell_angle_alpha 90.000000
_cell_angle_beta 90.000000
_cell_angle_gamma 90.000000
_cell_volume 5197.556442
_symmetry_space_group_name_H-M "I M M A"
_symmetry_group_IT_number 74
_symmetry_cell_setting 'orthorhombic'
loop_
_space_group_symop_operation_xyz
x,y,z
-x,1/2-y,z
x,-y,-z
-x,1/2+y,-z
-x,-y,-z
x,1/2+y,-z
-x,y,z
x,1/2-y,z
1/2+x,1/2+y,1/2+z
1/2-x,-y,1/2+z
1/2+x,1/2-y,1/2-z
1/2-x,y,1/2-z
1/2-x,1/2-y,1/2-z
1/2+x,y,1/2-z
1/2-x,1/2+y,1/2+z
1/2+x,-y,1/2+z
loop_
_atom_site_type_symbol
_atom_site_label
_atom_site_fract_x
_atom_site_fract_y
_atom_site_fract_z
Si Si1 0.944738 0.964670 0.940649
Si Si2 0.768823 0.952941 0.099924
Si Si3 0.392314 0.546716 0.241123
Si Si4 0.173118 0.464917 0.558132
Si Si5 0.000000 0.750000 0.595841
Si Si6 0.917978 0.028018 0.627964
Si Si7 0.867670 0.958101 0.145842
Si Si8 0.212625 0.536859 0.702593
O O1 0.945627 0.750000 0.932875
O O2 0.000000 0.033237 0.936968
O O3 0.909887 0.042054 0.896729
O O4 0.927492 0.000000 0.000000
O O5 0.780674 0.750000 0.080217
O O6 0.728016 0.040734 0.062777
O O7 0.819698 0.038939 0.118165
O O8 0.737564 0.947018 0.153131
O O9 0.411482 0.750000 0.249261
O O10 0.420307 0.474327 0.189997
O O11 0.386859 0.461019 0.299054
O O12 0.337517 0.548924 0.219832
O O13 0.153590 0.500000 0.500000
O O14 0.178413 0.250000 0.564387
O O15 0.134187 0.520080 0.602067
O O16 0.042110 0.589607 0.598733
O O17 0.923306 0.250000 0.624603
O O18 0.853800 0.750000 0.159101
O O19 0.204892 0.750000 0.691984
O O20 0.250000 0.521973 0.750000
#
# Coordination Sequence:
#
# PCOD9538184 Si02
#       8
#    16  16  16  16   4  16  16  16
#     4  10  22  42  65  86 114 158 207 260 309 359
#     4  10  20  36  57  86 122 164 204 242 302 372
#     4  10  20  37  61  86 122 168 205 253 309 377
#     4  10  22  39  64  90 123 163 207 263 318 395
#     4  12  26  44  74  94 120 176 204 274 346 392
#     4  10  23  44  67  96 128 163 217 267 330 404
#     4  10  21  36  60  93 127 164 209 255 308 368
#     4  11  21  30  50  86 123 161 205 250 296 362
#
# _framework density 22.318180000000002
#
# number of rings (size 3 to 8) (size 9 to 14) (size 15 to 20)
#    0.000    1.793    2.759    1.034    1.931    3.586 
#    1.241    1.724    0.000    0.000    0.000    0.000 
#    0.000    0.000    0.000    0.000    0.000    0.000 
#
# Total GULP energy -322984.341168 kJ/mol
# GULP energy per Si atom -5568.695537 kJ/mol
# Density = 2.226738 g / cm^3
# Si number density = 22.318180 Si / 1000 Ang^3
#
#
#
# Elastic Constant Matrix: (Units=GPa)
#
#
# Indices 1 2 3 4 5 6 
#
# 1 45.0291 2.0128 38.8718 0.0000 0.0000 0.0000
# 2 2.0128 93.3680 -5.0359 0.0000 0.0000 0.0000
# 3 38.8718 -5.0359 113.1909 0.0000 0.0000 0.0000
# 4 0.0000 0.0000 0.0000 12.2882 0.0000 0.0000
# 5 0.0000 0.0000 0.0000 0.0000 14.3696 0.0000
# 6 0.0000 0.0000 0.0000 0.0000 0.0000 57.0059
#
#
#
# Elastic Compliance Matrix: (Units=1/GPa)
#
#
# Indices 1 2 3 4 5 6 
#
# 1 0.031716 -0.001274 -0.010949 0.000000 0.000000 0.000000
# 2 -0.001274 0.010787 0.000918 0.000000 0.000000 0.000000
# 3 -0.010949 0.000918 0.012635 0.000000 0.000000 0.000000
# 4 0.000000 0.000000 0.000000 0.081379 0.000000 0.000000
# 5 0.000000 0.000000 0.000000 0.000000 0.069591 0.000000
# 6 0.000000 0.000000 0.000000 0.000000 0.000000 0.017542
#
#
# Mechanical properties :
#
#
# Convention : Reuss Voigt Hill
#
# Bulk Modulus (GPa) = 30.74251 35.92061 33.33156
# Shear Modulus (GPa) = 19.44732 31.11537 25.28135
#
# Velocity S-wave (km/s) = 2.95509 3.73791 3.36931
# Velocity P-wave (km/s) = 5.04460 5.89568 5.48667
#
# Compressibility (1/GPa) = 0.03252825
#
# Stress axis : x y z
#
# Youngs Moduli (GPa) = 31.52947 92.70193 79.14255
#
# Poissons Ratio (x) = 0.11813 0.86651
# Poissons Ratio (y) = 0.04018 -0.07262
# Poissons Ratio (z) = 0.34521 -0.08506
#
# Static dielectric constant tensor:
#      x y z
#    x 1.810230 0.000000 0.000000 
#    y 0.000000 1.798860 0.000000 
#    z 0.000000 0.000000 1.864190 
# 
# From -- ./inp_files/62414.got.cif
#   From: 2010.05.17/outbox.cif.g08.bks.cpg/sg74_32_cif.got.tgz:62414.got - 2010.06.03 17:57:02.
