data_PCOD9538102
_publ_section_title
;
Structure prediction by ZEFSAII (Michael W. Deem and Ramdas Pophale) SiO2 
 PCOD9538102
Probable space group: I M M A
;
_chemical_formula_sum "Si O2"
_cell_formula_units_Z 80
_cell_length_a 10.768541
_cell_length_b 24.729358
_cell_length_c 14.997691
_cell_angle_alpha 90.000000
_cell_angle_beta 90.000000
_cell_angle_gamma 90.000000
_cell_volume 3993.871698
_symmetry_space_group_name_H-M "I M M A"
_symmetry_group_IT_number 74
_symmetry_cell_setting 'orthorhombic'
loop_
_space_group_symop_operation_xyz
x,y,z
-x,1/2-y,z
x,-y,-z
-x,1/2+y,-z
-x,-y,-z
x,1/2+y,-z
-x,y,z
x,1/2-y,z
1/2+x,1/2+y,1/2+z
1/2-x,-y,1/2+z
1/2+x,1/2-y,1/2-z
1/2-x,y,1/2-z
1/2-x,1/2-y,1/2-z
1/2+x,y,1/2-z
1/2-x,1/2+y,1/2+z
1/2+x,-y,1/2+z
loop_
_atom_site_type_symbol
_atom_site_label
_atom_site_fract_x
_atom_site_fract_y
_atom_site_fract_z
Si Si1 0.357714 0.313374 0.491090
Si Si2 0.250000 0.939051 0.750000
Si Si3 0.648079 0.982874 0.402549
Si Si4 0.624616 0.750000 0.801283
Si Si5 0.134461 0.635884 0.606197
Si Si6 0.354966 0.135276 0.676500
O O1 0.500000 0.326526 0.463571
O O2 0.333673 0.250000 0.468896
O O3 0.259631 0.356599 0.451422
O O4 0.351498 0.320977 0.597511
O O5 0.312018 0.976424 0.675163
O O6 0.158935 0.901306 0.692147
O O7 0.500000 0.984780 0.409785
O O8 0.700073 0.000000 0.500000
O O9 0.677551 0.922377 0.369667
O O10 0.500000 0.750000 0.741984
O O11 0.750000 0.750000 0.750000
O O12 0.621883 0.803356 0.858885
O O13 0.000000 0.620714 0.564219
O O14 0.500000 0.132287 0.708722
O O15 0.250000 0.145976 0.750000
#
# Coordination Sequence:
#
# PCOD9538102 Si02
#       6
#    16   8  16   8  16  16
#     4  10  22  40  64  92 122 161 210 258 309 377
#     4  12  22  37  62  90 125 164 210 258 310 370
#     4  10  21  39  62  87 119 165 213 257 309 370
#     4  10  20  36  52  76 115 158 191 234 291 354
#     4  11  23  37  57  88 124 161 201 247 306 371
#     4  10  21  40  63  88 121 160 206 261 319 374
#
# _framework density 20.030688999999999
#
# number of rings (size 3 to 8) (size 9 to 14) (size 15 to 20)
#    0.000    1.600    3.000    1.800    0.000    5.200 
#    0.000    0.000    0.000    3.000    0.000    0.000 
#    0.000    0.000    0.000    0.000    0.000    0.000 
#
# Total GULP energy -222901.871461 kJ/mol
# GULP energy per Si atom -5572.546787 kJ/mol
# Density = 1.998510 g / cm^3
# Si number density = 20.030689 Si / 1000 Ang^3
#
#
#
# Elastic Constant Matrix: (Units=GPa)
#
#
# Indices 1 2 3 4 5 6 
#
# 1 127.6594 4.0251 45.4145 0.0000 0.0000 0.0000
# 2 4.0251 59.1109 11.5192 0.0000 0.0000 0.0000
# 3 45.4145 11.5192 86.8415 0.0002 0.0000 -0.0001
# 4 0.0000 0.0000 0.0002 43.0160 0.0000 0.0000
# 5 0.0000 0.0000 0.0000 0.0000 35.9550 0.0000
# 6 0.0000 0.0000 -0.0001 0.0000 0.0000 22.7164
#
#
#
# Elastic Compliance Matrix: (Units=1/GPa)
#
#
# Indices 1 2 3 4 5 6 
#
# 1 0.009630 0.000334 -0.005081 0.000000 0.000000 0.000000
# 2 0.000334 0.017378 -0.002480 0.000000 0.000000 0.000000
# 3 -0.005081 -0.002480 0.014501 0.000000 0.000000 0.000000
# 4 0.000000 0.000000 0.000000 0.023247 0.000000 0.000000
# 5 0.000000 0.000000 0.000000 0.000000 0.027813 0.000000
# 6 0.000000 0.000000 0.000000 0.000000 0.000000 0.044021
#
#
# Mechanical properties :
#
#
# Convention : Reuss Voigt Hill
#
# Bulk Modulus (GPa) = 36.95925 43.94770 40.45347
# Shear Modulus (GPa) = 31.23805 34.51435 32.87620
#
# Velocity S-wave (km/s) = 3.95335 4.15550 4.05568
# Velocity P-wave (km/s) = 6.27136 6.70910 6.49392
#
# Compressibility (1/GPa) = 0.02705683
#
# Stress axis : x y z
#
# Youngs Moduli (GPa) = 103.84005 57.54448 68.96024
#
# Poissons Ratio (x) = -0.01924 0.35036
# Poissons Ratio (y) = -0.03472 0.17102
# Poissons Ratio (z) = 0.52756 0.14271
#
# Static dielectric constant tensor:
#      x y z
#    x 1.804750 0.000000 0.000000 
#    y 0.000000 1.708170 0.000000 
#    z 0.000000 0.000000 1.738050 
# 
# From -- ./inp_files/30716.got.cif
#   From: 2010.05.17/outbox.cif.g08.bks.cpg/sg74_16_cif.got.tgz:30716.got - 2010.06.03 17:57:02.
