data_PCOD9538154
_publ_section_title
;
Structure prediction by ZEFSAII (Michael W. Deem and Ramdas Pophale) SiO2 
 PCOD9538154
Probable space group: I M M A
;
_chemical_formula_sum "Si O2"
_cell_formula_units_Z 64
_cell_length_a 9.555585
_cell_length_b 15.861213
_cell_length_c 21.373019
_cell_angle_alpha 90.000000
_cell_angle_beta 90.000000
_cell_angle_gamma 90.000000
_cell_volume 3239.362491
_symmetry_space_group_name_H-M "I M M A"
_symmetry_group_IT_number 74
_symmetry_cell_setting 'orthorhombic'
loop_
_space_group_symop_operation_xyz
x,y,z
-x,1/2-y,z
x,-y,-z
-x,1/2+y,-z
-x,-y,-z
x,1/2+y,-z
-x,y,z
x,1/2-y,z
1/2+x,1/2+y,1/2+z
1/2-x,-y,1/2+z
1/2+x,1/2-y,1/2-z
1/2-x,y,1/2-z
1/2-x,1/2-y,1/2-z
1/2+x,y,1/2-z
1/2-x,1/2+y,1/2+z
1/2+x,-y,1/2+z
loop_
_atom_site_type_symbol
_atom_site_label
_atom_site_fract_x
_atom_site_fract_y
_atom_site_fract_z
Si Si1 0.672048 0.750000 0.816595
Si Si2 0.238504 0.500000 0.000000
Si Si3 0.831592 0.899863 0.311089
Si Si4 0.663793 0.927829 0.869866
Si Si5 0.846545 0.842250 0.077199
O O1 0.500000 0.750000 0.809899
O O2 0.750000 0.750000 0.750000
O O3 0.716864 0.834934 0.853380
O O4 0.317896 0.541258 0.941096
O O5 0.160060 0.420508 0.969794
O O6 0.750000 0.869751 0.250000
O O7 0.775581 0.851589 0.372098
O O8 0.000000 0.895072 0.305285
O O9 0.783236 0.996508 0.325776
O O10 0.500000 0.924294 0.857454
O O11 0.834479 0.750000 0.046495
O O12 0.000000 0.845878 0.108678
#
# Coordination Sequence:
#
# PCOD9538154 Si02
#       5
#     8   8  16  16  16
#     4  10  20  36  56  84 118 154 195 244 297 352
#     4  10  20  36  60  84 115 150 197 238 289 344
#     4  10  20  36  58  84 113 150 191 234 284 340
#     4   9  19  34  55  83 117 152 191 239 292 348
#     4  10  22  39  58  83 115 150 188 235 285 341
#
# _framework density 19.756974
#
# number of rings (size 3 to 8) (size 9 to 14) (size 15 to 20)
#    0.000    2.250    0.000    2.250    1.750    2.000 
#    0.000    6.250    0.000    0.000    0.000    0.000 
#    0.000    0.000    0.000    0.000    0.000    0.000 
#
# Total GULP energy -178166.045352 kJ/mol
# GULP energy per Si atom -5567.688917 kJ/mol
# Density = 1.971201 g / cm^3
# Si number density = 19.756974 Si / 1000 Ang^3
#
#
#
# Elastic Constant Matrix: (Units=GPa)
#
#
# Indices 1 2 3 4 5 6 
#
# 1 46.0950 18.7051 5.0593 0.0000 0.0000 0.0000
# 2 18.7051 154.6498 28.7199 0.0000 0.0000 0.0000
# 3 5.0593 28.7199 72.1252 0.0000 0.0000 0.0000
# 4 0.0000 0.0000 0.0000 14.4855 0.0000 0.0000
# 5 0.0000 0.0000 0.0000 0.0000 26.9292 0.0000
# 6 0.0000 0.0000 0.0000 0.0000 0.0000 9.5623
#
#
#
# Elastic Compliance Matrix: (Units=1/GPa)
#
#
# Indices 1 2 3 4 5 6 
#
# 1 0.022834 -0.002661 -0.000542 0.000000 0.000000 0.000000
# 2 -0.002661 0.007293 -0.002717 0.000000 0.000000 0.000000
# 3 -0.000542 -0.002717 0.014985 0.000000 0.000000 0.000000
# 4 0.000000 0.000000 0.000000 0.069034 0.000000 0.000000
# 5 0.000000 0.000000 0.000000 0.000000 0.037134 0.000000
# 6 0.000000 0.000000 0.000000 0.000000 0.000000 0.104577
#
#
# Mechanical properties :
#
#
# Convention : Reuss Voigt Hill
#
# Bulk Modulus (GPa) = 30.05675 41.98206 36.01941
# Shear Modulus (GPa) = 17.93476 24.88779 21.41127
#
# Velocity S-wave (km/s) = 3.01619 3.55307 3.29558
# Velocity P-wave (km/s) = 5.23222 6.17477 5.72293
#
# Compressibility (1/GPa) = 0.03327039
#
# Stress axis : x y z
#
# Youngs Moduli (GPa) = 43.79492 137.12335 66.73431
#
# Poissons Ratio (x) = 0.36490 0.03617
# Poissons Ratio (y) = 0.11654 0.18133
# Poissons Ratio (z) = 0.02374 0.37260
#
# Static dielectric constant tensor:
#      x y z
#    x 1.681480 0.000000 0.000000 
#    y 0.000000 1.775130 0.000000 
#    z 0.000000 0.000000 1.667190 
# 
# From -- ./inp_files/56448.got.cif
#   From: 2010.05.17/outbox.cif.g08.bks.cpg/sg74_29_cif.got.tgz:56448.got - 2010.06.03 17:57:02.
