data_PCOD9538549
_publ_section_title
;
Structure prediction by ZEFSAII (Michael W. Deem and Ramdas Pophale) SiO2 
 PCOD9538549
Probable space group: I M M A
;
_chemical_formula_sum "Si O2"
_cell_formula_units_Z 96
_cell_length_a 19.724612
_cell_length_b 17.809656
_cell_length_c 15.230536
_cell_angle_alpha 90.000000
_cell_angle_beta 90.000000
_cell_angle_gamma 90.000000
_cell_volume 5350.312975
_symmetry_space_group_name_H-M "I M M A"
_symmetry_group_IT_number 74
_symmetry_cell_setting 'orthorhombic'
loop_
_space_group_symop_operation_xyz
x,y,z
-x,1/2-y,z
x,-y,-z
-x,1/2+y,-z
-x,-y,-z
x,1/2+y,-z
-x,y,z
x,1/2-y,z
1/2+x,1/2+y,1/2+z
1/2-x,-y,1/2+z
1/2+x,1/2-y,1/2-z
1/2-x,y,1/2-z
1/2-x,1/2-y,1/2-z
1/2+x,y,1/2-z
1/2-x,1/2+y,1/2+z
1/2+x,-y,1/2+z
loop_
_atom_site_type_symbol
_atom_site_label
_atom_site_fract_x
_atom_site_fract_y
_atom_site_fract_z
Si Si1 0.919547 0.660902 0.324586
Si Si2 0.321021 0.339970 0.299819
Si Si3 0.658246 0.911087 0.017026
Si Si4 0.422349 0.159618 0.621261
Si Si5 0.422083 0.340490 0.145289
Si Si6 0.313756 0.089511 0.490566
O O1 0.905212 0.750000 0.336340
O O2 0.876411 0.612827 0.392276
O O3 0.906662 0.640906 0.222919
O O4 0.000000 0.650827 0.340975
O O5 0.323838 0.250000 0.316593
O O6 0.250000 0.355048 0.250000
O O7 0.381370 0.360760 0.233398
O O8 0.325015 0.383654 0.390915
O O9 0.617697 0.871737 0.938241
O O10 0.736951 0.887629 0.015450
O O11 0.655220 0.000000 0.000000
O O12 0.500000 0.135662 0.602641
O O13 0.420863 0.250000 0.615188
O O14 0.368743 0.125775 0.554663
O O15 0.500000 0.366146 0.146410
O O16 0.421729 0.250000 0.139841
O O17 0.318314 0.000000 0.500000
#
# Coordination Sequence:
#
# PCOD9538549 Si02
#       6
#    16  16  16  16  16  16
#     4   9  19  37  59  82 111 147 187 236 289 333
#     4  10  20  38  62  82 109 153 196 237 289 340
#     4  11  23  36  53  82 120 157 189 229 284 346
#     4   9  20  40  63  86 112 146 193 244 288 337
#     4  10  21  37  59  87 113 144 194 247 289 341
#     4  11  24  39  56  86 120 154 189 232 288 346
#
# _framework density 17.942875000000001
#
# number of rings (size 3 to 8) (size 9 to 14) (size 15 to 20)
#    0.000    2.000    1.667    2.500    0.000    7.667 
#    0.000    5.000    0.000    0.000    0.000    0.000 
#    0.000    0.000    0.000    0.000    0.000    0.000 
#
# Total GULP energy -268052.953857 kJ/mol
# GULP energy per Si atom -5584.436539 kJ/mol
# Density = 1.790204 g / cm^3
# Si number density = 17.942875 Si / 1000 Ang^3
#
#
#
# Elastic Constant Matrix: (Units=GPa)
#
#
# Indices 1 2 3 4 5 6 
#
# 1 161.7109 54.6923 120.4776 0.0000 0.0000 0.0000
# 2 54.6923 33.1560 61.2396 0.0000 0.0000 0.0000
# 3 120.4776 61.2396 164.7161 0.0000 0.0000 0.0000
# 4 0.0000 0.0000 0.0000 -87.0187 0.0000 0.0000
# 5 0.0000 0.0000 0.0000 0.0000 31.0502 0.0000
# 6 0.0000 0.0000 0.0000 0.0000 0.0000 25.8539
#
#
#
# Elastic Compliance Matrix: (Units=1/GPa)
#
#
# Indices 1 2 3 4 5 6 
#
# 1 0.015587 -0.014855 -0.005878 0.000000 0.000000 0.000000
# 2 -0.014855 0.110424 -0.030189 0.000000 0.000000 0.000000
# 3 -0.005878 -0.030189 0.021594 0.000000 0.000000 0.000000
# 4 0.000000 0.000000 0.000000 -0.011492 0.000000 0.000000
# 5 0.000000 0.000000 0.000000 0.000000 0.032206 0.000000
# 6 0.000000 0.000000 0.000000 0.000000 0.000000 0.038679
#
#
# Mechanical properties :
#
#
# Convention : Reuss Voigt Hill
#
# Bulk Modulus (GPa) = 21.85243 92.48913 57.17078
# Shear Modulus (GPa) = 15.42747 2.18864 8.80805
#
# Velocity S-wave (km/s) = 2.93543 1.10564 2.21802
# Velocity P-wave (km/s) = 4.86768 7.29988 6.20414
#
# Compressibility (1/GPa) = 0.04576150
#
# Stress axis : x y z
#
# Youngs Moduli (GPa) = 64.15523 9.05596 46.30867
#
# Poissons Ratio (x) = 0.13453 0.27220
# Poissons Ratio (y) = 0.95304 1.39802
# Poissons Ratio (z) = 0.37709 0.27339
#
# Static dielectric constant tensor:
#      x y z
#    x 1.604830 0.000000 0.000000 
#    y 0.000000 1.600480 0.000000 
#    z 0.000000 0.000000 1.583040 
# 
# From -- ./inp_files/35237.got.cif
#   From: 2010.05.17/outbox.cif.g08.bks.cpg/sg74_18_cif.got.tgz:35237.got - 2010.06.03 17:57:02.
