data_PCOD9538080
_publ_section_title
;
Structure prediction by ZEFSAII (Michael W. Deem and Ramdas Pophale) SiO2 
 PCOD9538080
Probable space group: I M M A
;
_chemical_formula_sum "Si O2"
_cell_formula_units_Z 72
_cell_length_a 14.647267
_cell_length_b 14.334419
_cell_length_c 18.557889
_cell_angle_alpha 90.000000
_cell_angle_beta 90.000000
_cell_angle_gamma 90.000000
_cell_volume 3896.415532
_symmetry_space_group_name_H-M "I M M A"
_symmetry_group_IT_number 74
_symmetry_cell_setting 'orthorhombic'
loop_
_space_group_symop_operation_xyz
x,y,z
-x,1/2-y,z
x,-y,-z
-x,1/2+y,-z
-x,-y,-z
x,1/2+y,-z
-x,y,z
x,1/2-y,z
1/2+x,1/2+y,1/2+z
1/2-x,-y,1/2+z
1/2+x,1/2-y,1/2-z
1/2-x,y,1/2-z
1/2-x,1/2-y,1/2-z
1/2+x,y,1/2-z
1/2-x,1/2+y,1/2+z
1/2+x,-y,1/2+z
loop_
_atom_site_type_symbol
_atom_site_label
_atom_site_fract_x
_atom_site_fract_y
_atom_site_fract_z
Si Si1 0.781309 0.545627 0.573821
Si Si2 0.107449 0.250000 0.924485
Si Si3 0.606877 0.453834 0.633918
Si Si4 0.889991 0.750000 0.782386
Si Si5 0.224007 0.250000 0.069994
Si Si6 0.607699 0.550443 0.785653
O O1 0.814767 0.500000 0.500000
O O2 0.676473 0.513981 0.586416
O O3 0.783065 0.656748 0.569053
O O4 0.836427 0.518426 0.645166
O O5 0.126001 0.154894 0.880871
O O6 0.000000 0.250000 0.941489
O O7 0.162804 0.250000 0.998368
O O8 0.500000 0.472689 0.616947
O O9 0.621759 0.484884 0.716317
O O10 0.838558 0.750000 0.858506
O O11 0.866207 0.655597 0.739323
O O12 0.000000 0.750000 0.793855
O O13 0.500000 0.551807 0.802124
#
# Coordination Sequence:
#
# PCOD9538080 Si02
#       6
#    16   8  16   8   8  16
#     4  12  24  38  59  86 122 156 195 238 292 344
#     4  10  21  37  57  86 124 156 184 234 292 353
#     4  10  21  38  60  87 117 152 193 236 289 348
#     4  10  20  35  60  90 117 153 191 237 298 351
#     4  12  22  34  55  93 124 152 184 237 292 363
#     4  10  22  40  61  86 115 154 202 244 285 338
#
# _framework density 18.478522000000002
#
# number of rings (size 3 to 8) (size 9 to 14) (size 15 to 20)
#    0.000    1.333    4.444    1.667    0.000    2.667 
#    0.000    3.333    0.000    0.000    0.000    0.000 
#    0.000    0.000    0.000    0.000    0.000    0.000 
#
# Total GULP energy -201189.213089 kJ/mol
# GULP energy per Si atom -5588.589252 kJ/mol
# Density = 1.843646 g / cm^3
# Si number density = 18.478522 Si / 1000 Ang^3
#
#
#
# Elastic Constant Matrix: (Units=GPa)
#
#
# Indices 1 2 3 4 5 6 
#
# 1 42.2072 14.2465 40.4339 0.0000 0.0000 0.0000
# 2 14.2465 53.9493 21.3847 0.0000 0.0000 0.0000
# 3 40.4339 21.3847 122.7436 0.0000 0.0000 0.0000
# 4 0.0000 0.0000 0.0000 53.0277 0.0000 0.0000
# 5 0.0000 0.0000 0.0000 0.0000 23.0272 0.0000
# 6 0.0000 0.0000 0.0000 0.0000 0.0000 9.7504
#
#
#
# Elastic Compliance Matrix: (Units=1/GPa)
#
#
# Indices 1 2 3 4 5 6 
#
# 1 0.035900 -0.005148 -0.010929 0.000000 0.000000 0.000000
# 2 -0.005148 0.020649 -0.001902 0.000000 0.000000 0.000000
# 3 -0.010929 -0.001902 0.012079 0.000000 0.000000 0.000000
# 4 0.000000 0.000000 0.000000 0.018858 0.000000 0.000000
# 5 0.000000 0.000000 0.000000 0.000000 0.043427 0.000000
# 6 0.000000 0.000000 0.000000 0.000000 0.000000 0.102560
#
#
# Mechanical properties :
#
#
# Convention : Reuss Voigt Hill
#
# Bulk Modulus (GPa) = 30.60901 41.22561 35.91731
# Shear Modulus (GPa) = 17.83664 26.68337 22.26001
#
# Velocity S-wave (km/s) = 3.11024 3.80415 3.47456
# Velocity P-wave (km/s) = 5.43127 6.45398 5.96459
#
# Compressibility (1/GPa) = 0.03267012
#
# Stress axis : x y z
#
# Youngs Moduli (GPa) = 27.85483 48.42810 82.79037
#
# Poissons Ratio (x) = 0.24931 0.90484
# Poissons Ratio (y) = 0.14340 0.15744
# Poissons Ratio (z) = 0.30443 0.09210
#
# Static dielectric constant tensor:
#      x y z
#    x 1.643110 0.000000 0.000000 
#    y 0.000000 1.639080 0.000000 
#    z 0.000000 0.000000 1.615650 
# 
# From -- ./inp_files/42527.got.cif
#   From: 2010.05.17/outbox.cif.g08.bks.cpg/sg74_22_cif.got.tgz:42527.got - 2010.06.03 17:57:02.
