data_PCOD9538641
_publ_section_title
;
Structure prediction by ZEFSAII (Michael W. Deem and Ramdas Pophale) SiO2 
 PCOD9538641
Probable space group: I M M A
;
_chemical_formula_sum "Si O2"
_cell_formula_units_Z 116
_cell_length_a 22.814840
_cell_length_b 14.429699
_cell_length_c 18.517215
_cell_angle_alpha 90.000000
_cell_angle_beta 90.000000
_cell_angle_gamma 90.000000
_cell_volume 6096.075940
_symmetry_space_group_name_H-M "I M M A"
_symmetry_group_IT_number 74
_symmetry_cell_setting 'orthorhombic'
loop_
_space_group_symop_operation_xyz
x,y,z
-x,1/2-y,z
x,-y,-z
-x,1/2+y,-z
-x,-y,-z
x,1/2+y,-z
-x,y,z
x,1/2-y,z
1/2+x,1/2+y,1/2+z
1/2-x,-y,1/2+z
1/2+x,1/2-y,1/2-z
1/2-x,y,1/2-z
1/2-x,1/2-y,1/2-z
1/2+x,y,1/2-z
1/2-x,1/2+y,1/2+z
1/2+x,-y,1/2+z
loop_
_atom_site_type_symbol
_atom_site_label
_atom_site_fract_x
_atom_site_fract_y
_atom_site_fract_z
Si Si1 0.334904 0.360145 0.454620
Si Si2 0.932550 0.641667 0.078243
Si Si3 0.246701 0.352414 0.836115
Si Si4 0.500000 0.750000 0.058044
Si Si5 0.639203 0.512633 0.335741
Si Si6 0.411240 0.579139 0.050372
Si Si7 0.699406 0.639674 0.954130
Si Si8 0.656144 0.994710 0.833279
O O1 0.336514 0.250000 0.438030
O O2 0.384401 0.376744 0.515648
O O3 0.350644 0.424630 0.386790
O O4 0.267023 0.382563 0.475207
O O5 0.924960 0.750000 0.100916
O O6 0.919168 0.568287 0.141662
O O7 0.000000 0.631804 0.053174
O O8 0.248774 0.250000 0.870419
O O9 0.250000 0.340167 0.750000
O O10 0.188491 0.409443 0.852109
O O11 0.299991 0.420487 0.849147
O O12 0.449347 0.669379 0.056776
O O13 0.646972 0.484659 0.252069
O O14 0.401844 0.529588 0.127067
O O15 0.437241 0.500000 0.000000
O O16 0.349225 0.604326 0.010670
O O17 0.694747 0.750000 0.947922
O O18 0.683015 0.591502 0.877528
#
# Coordination Sequence:
#
# PCOD9538641 Si02
#       8
#    16  16  16   4  16  16  16  16
#     4  10  22  37  62  92 123 159 208 257 307 361
#     4  10  23  43  63  89 121 164 212 259 306 368
#     4   9  18  31  50  78 118 157 188 228 293 360
#     4  12  22  44  64  90 110 170 202 250 314 366
#     4  11  21  37  59  89 122 165 197 245 310 371
#     4  10  23  40  63  89 120 157 207 257 300 368
#     4  10  20  39  62  92 123 160 203 258 310 361
#     4  10  22  37  57  91 126 155 198 252 306 363
#
# _framework density 19.028634
#
# number of rings (size 3 to 8) (size 9 to 14) (size 15 to 20)
#    0.000    1.931    2.069    1.034    2.897    3.310 
#    1.241    1.379    0.000    0.000    0.000    0.000 
#    0.000    0.000    0.000    0.000    0.000    0.000 
#
# Total GULP energy -322970.125505 kJ/mol
# GULP energy per Si atom -5568.450440 kJ/mol
# Density = 1.898532 g / cm^3
# Si number density = 19.028634 Si / 1000 Ang^3
#
#
#
# Elastic Constant Matrix: (Units=GPa)
#
#
# Indices 1 2 3 4 5 6 
#
# 1 105.3961 27.2175 42.9196 0.0000 0.0000 0.0000
# 2 27.2175 91.8858 32.8321 0.0000 0.0000 0.0000
# 3 42.9196 32.8321 100.3295 0.0000 0.0000 0.0000
# 4 0.0000 0.0000 0.0000 26.1465 0.0000 0.0000
# 5 0.0000 0.0000 0.0000 0.0000 8.8983 0.0000
# 6 0.0000 0.0000 0.0000 0.0000 0.0000 54.7799
#
#
#
# Elastic Compliance Matrix: (Units=1/GPa)
#
#
# Indices 1 2 3 4 5 6 
#
# 1 0.011779 -0.001912 -0.004413 0.000000 0.000000 0.000000
# 2 -0.001912 0.012635 -0.003317 0.000000 0.000000 0.000000
# 3 -0.004413 -0.003317 0.012940 0.000000 0.000000 0.000000
# 4 0.000000 0.000000 0.000000 0.038246 0.000000 0.000000
# 5 0.000000 0.000000 0.000000 0.000000 0.112380 0.000000
# 6 0.000000 0.000000 0.000000 0.000000 0.000000 0.018255
#
#
# Mechanical properties :
#
#
# Convention : Reuss Voigt Hill
#
# Bulk Modulus (GPa) = 55.33999 55.94998 55.64498
# Shear Modulus (GPa) = 21.59432 30.94107 26.26770
#
# Velocity S-wave (km/s) = 3.37238 4.03678 3.71944
# Velocity P-wave (km/s) = 6.65654 7.15502 6.91028
#
# Compressibility (1/GPa) = 0.01807012
#
# Stress axis : x y z
#
# Youngs Moduli (GPa) = 84.89733 79.14814 77.27757
#
# Poissons Ratio (x) = 0.15134 0.34104
# Poissons Ratio (y) = 0.16234 0.25630
# Poissons Ratio (z) = 0.37466 0.26250
#
# Static dielectric constant tensor:
#      x y z
#    x 1.735390 0.000000 0.000000 
#    y 0.000000 1.655930 0.000000 
#    z 0.000000 0.000000 1.675770 
# 
# From -- ./inp_files/46158.got.cif
#   From: 2010.05.17/outbox.cif.g08.bks.cpg/sg74_24_cif.got.tgz:46158.got - 2010.06.03 17:57:02.
