data_PCOD9538532
_publ_section_title
;
Structure prediction by ZEFSAII (Michael W. Deem and Ramdas Pophale) SiO2 
 PCOD9538532
Probable space group: I M M A
;
_chemical_formula_sum "Si O2"
_cell_formula_units_Z 72
_cell_length_a 27.909797
_cell_length_b 8.086390
_cell_length_c 14.033690
_cell_angle_alpha 90.000000
_cell_angle_beta 90.000000
_cell_angle_gamma 90.000000
_cell_volume 3167.256526
_symmetry_space_group_name_H-M "I M M A"
_symmetry_group_IT_number 74
_symmetry_cell_setting 'orthorhombic'
loop_
_space_group_symop_operation_xyz
x,y,z
-x,1/2-y,z
x,-y,-z
-x,1/2+y,-z
-x,-y,-z
x,1/2+y,-z
-x,y,z
x,1/2-y,z
1/2+x,1/2+y,1/2+z
1/2-x,-y,1/2+z
1/2+x,1/2-y,1/2-z
1/2-x,y,1/2-z
1/2-x,1/2-y,1/2-z
1/2+x,y,1/2-z
1/2-x,1/2+y,1/2+z
1/2+x,-y,1/2+z
loop_
_atom_site_type_symbol
_atom_site_label
_atom_site_fract_x
_atom_site_fract_y
_atom_site_fract_z
Si Si1 0.695888 0.500000 0.000000
Si Si2 0.267492 0.052281 0.358020
Si Si3 0.891472 0.577481 0.627348
Si Si4 0.054138 0.750000 0.369561
Si Si5 0.620867 0.060642 0.355998
Si Si6 0.444315 0.750000 0.363359
O O1 0.734315 0.562406 0.076888
O O2 0.658349 0.416233 0.071445
O O3 0.259784 0.250000 0.379336
O O4 0.250000 0.029624 0.250000
O O5 0.323542 0.020077 0.375258
O O6 0.918326 0.750000 0.611283
O O7 0.918747 0.413385 0.598399
O O8 0.882349 0.564564 0.740441
O O9 0.054355 0.750000 0.253231
O O10 0.000000 0.750000 0.401979
O O11 0.610229 0.250000 0.388281
O O12 0.585060 0.916411 0.390178
O O13 0.500000 0.750000 0.395445
#
# Coordination Sequence:
#
# PCOD9538532 Si02
#       6
#     8  16  16   8  16   8
#     4  12  22  34  61  92 121 162 212 256 306 370
#     4  10  20  38  60  86 125 169 209 255 310 375
#     4  10  21  36  58  84 117 163 207 249 305 371
#     4   9  20  38  59  83 116 157 210 267 308 356
#     4   9  18  37  59  83 122 165 200 249 310 370
#     4   9  18  34  58  92 122 150 203 263 313 370
#
# _framework density 22.732609
#
# number of rings (size 3 to 8) (size 9 to 14) (size 15 to 20)
#    0.000    2.222    2.222    0.667    3.111    0.889 
#    4.000    5.556    0.000    0.000    0.000    0.778 
#    0.000    0.000    0.000    0.000    0.000    0.000 
#
# Total GULP energy -200756.677140 kJ/mol
# GULP energy per Si atom -5576.574365 kJ/mol
# Density = 2.268087 g / cm^3
# Si number density = 22.732609 Si / 1000 Ang^3
#
#
#
# Elastic Constant Matrix: (Units=GPa)
#
#
# Indices 1 2 3 4 5 6 
#
# 1 191.1727 119.7498 16.3550 0.0000 0.0000 0.0000
# 2 119.7498 182.7659 30.8741 0.0000 0.0000 0.0000
# 3 16.3550 30.8741 70.2615 0.0000 0.0000 0.0000
# 4 0.0000 0.0000 0.0000 6.3999 0.0000 0.0000
# 5 0.0000 0.0000 0.0000 0.0000 25.3075 0.0000
# 6 0.0000 0.0000 0.0000 0.0000 0.0000 9.9298
#
#
#
# Elastic Compliance Matrix: (Units=1/GPa)
#
#
# Indices 1 2 3 4 5 6 
#
# 1 0.008890 -0.005915 0.000529 0.000000 0.000000 0.000000
# 2 -0.005915 0.009845 -0.002949 0.000000 0.000000 0.000000
# 3 0.000529 -0.002949 0.015405 0.000000 0.000000 0.000000
# 4 0.000000 0.000000 0.000000 0.156252 0.000000 0.000000
# 5 0.000000 0.000000 0.000000 0.000000 0.039514 0.000000
# 6 0.000000 0.000000 0.000000 0.000000 0.000000 0.100707
#
#
# Mechanical properties :
#
#
# Convention : Reuss Voigt Hill
#
# Bulk Modulus (GPa) = 57.23453 86.46198 71.84825
# Shear Modulus (GPa) = 14.16005 26.80887 20.48446
#
# Velocity S-wave (km/s) = 2.49850 3.43784 3.00510
# Velocity P-wave (km/s) = 5.79269 7.33997 6.61175
#
# Compressibility (1/GPa) = 0.01747197
#
# Stress axis : x y z
#
# Youngs Moduli (GPa) = 112.48086 101.57505 64.91287
#
# Poissons Ratio (x) = 0.60077 -0.03437
# Poissons Ratio (y) = 0.66527 0.19145
# Poissons Ratio (z) = -0.05956 0.29958
#
# Static dielectric constant tensor:
#      x y z
#    x 1.778350 0.000000 0.000000 
#    y 0.000000 1.820340 0.000000 
#    z 0.000000 0.000000 1.889960 
# 
# From -- ./inp_files/45835.got.cif
#   From: 2010.05.17/outbox.cif.g08.bks.cpg/sg74_23_cif.got.tgz:45835.got - 2010.06.03 17:57:02.
