data_PCOD9538255
_publ_section_title
;
Structure prediction by ZEFSAII (Michael W. Deem and Ramdas Pophale) SiO2 
 PCOD9538255
Probable space group: I M M A
;
_chemical_formula_sum "Si O2"
_cell_formula_units_Z 80
_cell_length_a 8.727747
_cell_length_b 18.605453
_cell_length_c 26.184723
_cell_angle_alpha 90.000000
_cell_angle_beta 90.000000
_cell_angle_gamma 90.000000
_cell_volume 4251.971853
_symmetry_space_group_name_H-M "I M M A"
_symmetry_group_IT_number 74
_symmetry_cell_setting 'orthorhombic'
loop_
_space_group_symop_operation_xyz
x,y,z
-x,1/2-y,z
x,-y,-z
-x,1/2+y,-z
-x,-y,-z
x,1/2+y,-z
-x,y,z
x,1/2-y,z
1/2+x,1/2+y,1/2+z
1/2-x,-y,1/2+z
1/2+x,1/2-y,1/2-z
1/2-x,y,1/2-z
1/2-x,1/2-y,1/2-z
1/2+x,y,1/2-z
1/2-x,1/2+y,1/2+z
1/2+x,-y,1/2+z
loop_
_atom_site_type_symbol
_atom_site_label
_atom_site_fract_x
_atom_site_fract_y
_atom_site_fract_z
Si Si1 0.317080 0.917046 0.804858
Si Si2 0.316153 0.076380 0.695491
Si Si3 0.684547 0.833813 0.404874
Si Si4 0.817054 0.665767 0.900416
Si Si5 0.183377 0.416031 0.497906
O O1 0.500000 0.919514 0.802360
O O2 0.250000 0.894192 0.750000
O O3 0.261437 0.865916 0.850011
O O4 0.253000 0.997401 0.814651
O O5 0.500000 0.070321 0.699104
O O6 0.250000 0.100867 0.750000
O O7 0.277317 0.129185 0.649089
O O8 0.500000 0.838325 0.411206
O O9 0.727438 0.750000 0.405567
O O10 0.762623 0.876354 0.450893
O O11 0.781359 0.750000 0.906720
O O12 0.759219 0.622176 0.949412
O O13 0.000000 0.657924 0.895734
O O14 0.226789 0.500000 0.500000
O O15 0.000000 0.411535 0.493171
#
# Coordination Sequence:
#
# PCOD9538255 Si02
#       5
#    16  16  16  16  16
#     4  11  22  38  61  87 117 152 193 238 283 336
#     4  10  20  36  59  85 116 153 194 239 285 336
#     4  10  22  39  58  83 116 153 192 235 286 343
#     4  11  24  41  61  86 117 152 190 234 286 342
#     4  11  24  40  60  87 116 148 190 238 286 339
#
# _framework density 18.814800000000002
#
# number of rings (size 3 to 8) (size 9 to 14) (size 15 to 20)
#    0.000    1.400    0.000    6.600    0.000   11.600 
#    0.000    0.000    0.000    0.000    0.000    0.000 
#    0.000    0.000    0.000    0.000    0.000    0.000 
#
# Total GULP energy -223717.161546 kJ/mol
# GULP energy per Si atom -5592.929039 kJ/mol
# Density = 1.877198 g / cm^3
# Si number density = 18.814800 Si / 1000 Ang^3
#
#
#
# Elastic Constant Matrix: (Units=GPa)
#
#
# Indices 1 2 3 4 5 6 
#
# 1 90.5824 76.0593 77.8239 0.0000 0.0000 0.0000
# 2 76.0593 138.2731 111.4587 0.0000 0.0000 0.0000
# 3 77.8239 111.4587 162.1945 0.0000 0.0000 0.0000
# 4 0.0000 0.0000 0.0000 334.3859 0.0000 0.0000
# 5 0.0000 0.0000 0.0000 0.0000 64.9759 0.0000
# 6 0.0000 0.0000 0.0000 0.0000 0.0000 -72.6940
#
#
#
# Elastic Compliance Matrix: (Units=1/GPa)
#
#
# Indices 1 2 3 4 5 6 
#
# 1 0.022234 -0.008139 -0.005075 0.000000 0.000000 0.000000
# 2 -0.008139 0.019192 -0.009283 0.000000 0.000000 0.000000
# 3 -0.005075 -0.009283 0.014980 0.000000 0.000000 0.000000
# 4 0.000000 0.000000 0.000000 0.002991 0.000000 0.000000
# 5 0.000000 0.000000 0.000000 0.000000 0.015390 0.000000
# 6 0.000000 0.000000 0.000000 0.000000 0.000000 -0.013756
#
#
# Mechanical properties :
#
#
# Convention : Reuss Voigt Hill
#
# Bulk Modulus (GPa) = 87.63529 102.41485 95.02507
# Shear Modulus (GPa) = 45.52441 73.71411 59.61926
#
# Velocity S-wave (km/s) = 4.92429 6.26609 5.63527
# Velocity P-wave (km/s) = 8.88878 10.33940 9.64141
#
# Compressibility (1/GPa) = 0.01141093
#
# Stress axis : x y z
#
# Youngs Moduli (GPa) = 44.97532 52.10375 66.75546
#
# Poissons Ratio (x) = 0.42410 0.33879
# Poissons Ratio (y) = 0.36608 0.61972
# Poissons Ratio (z) = 0.22825 0.48370
#
# Static dielectric constant tensor:
#      x y z
#    x 1.633630 0.000000 0.000000 
#    y 0.000000 1.625650 0.000000 
#    z 0.000000 0.000000 1.620210 
# 
# From -- ./inp_files/63979.got.cif
#   From: 2010.05.17/outbox.cif.g08.bks.cpg/sg74_32_cif.got.tgz:63979.got - 2010.06.03 17:57:02.
