data_PCOD9538441
_publ_section_title
;
Structure prediction by ZEFSAII (Michael W. Deem and Ramdas Pophale) SiO2 
 PCOD9538441
Probable space group: I M M A
;
_chemical_formula_sum "Si O2"
_cell_formula_units_Z 88
_cell_length_a 15.851369
_cell_length_b 21.562997
_cell_length_c 12.232798
_cell_angle_alpha 90.000000
_cell_angle_beta 90.000000
_cell_angle_gamma 90.000000
_cell_volume 4181.207326
_symmetry_space_group_name_H-M "I M M A"
_symmetry_group_IT_number 74
_symmetry_cell_setting 'orthorhombic'
loop_
_space_group_symop_operation_xyz
x,y,z
-x,1/2-y,z
x,-y,-z
-x,1/2+y,-z
-x,-y,-z
x,1/2+y,-z
-x,y,z
x,1/2-y,z
1/2+x,1/2+y,1/2+z
1/2-x,-y,1/2+z
1/2+x,1/2-y,1/2-z
1/2-x,y,1/2-z
1/2-x,1/2-y,1/2-z
1/2+x,y,1/2-z
1/2-x,1/2+y,1/2+z
1/2+x,-y,1/2+z
loop_
_atom_site_type_symbol
_atom_site_label
_atom_site_fract_x
_atom_site_fract_y
_atom_site_fract_z
Si Si1 0.101176 0.595632 0.725783
Si Si2 0.103602 0.750000 0.098680
Si Si3 0.396916 0.750000 0.148344
Si Si4 0.187002 0.027609 0.668119
Si Si5 0.601630 0.371236 0.465304
Si Si6 0.818643 0.000000 0.000000
Si Si7 0.398026 0.128443 0.983574
O O1 0.126803 0.523100 0.723083
O O2 0.130228 0.627681 0.838172
O O3 0.129253 0.624974 0.610244
O O4 0.000000 0.598825 0.726692
O O5 0.130598 0.750000 0.225362
O O6 0.000000 0.750000 0.098516
O O7 0.131218 0.812087 0.034672
O O8 0.500000 0.750000 0.150469
O O9 0.370661 0.810264 0.080485
O O10 0.250000 0.063554 0.750000
O O11 0.136880 0.071111 0.586183
O O12 0.255068 0.989026 0.599245
O O13 0.500000 0.369293 0.465429
O O14 0.629139 0.437295 0.515565
O O15 0.500000 0.125725 0.982596
#
# Coordination Sequence:
#
# PCOD9538441 Si02
#       7
#    16   8   8  16  16   8  16
#     4  10  20  37  61  87 116 150 197 245 287 345
#     4   9  20  39  60  85 121 155 194 242 293 351
#     4   9  20  37  59  85 113 150 199 245 285 347
#     4  12  23  37  57  86 122 154 192 241 299 349
#     4  10  22  39  61  90 118 156 200 243 293 350
#     4  12  23  38  61  86 124 156 196 246 295 352
#     4  10  21  39  61  85 115 155 198 241 293 348
#
# _framework density 21.046551999999998
#
# number of rings (size 3 to 8) (size 9 to 14) (size 15 to 20)
#    0.000    1.636    3.636    0.818    2.545    2.182 
#    0.000    5.000    0.000    1.091    0.000    0.000 
#    0.000    0.000    0.000    0.000    0.000    0.000 
#
# Total GULP energy -245486.526198 kJ/mol
# GULP energy per Si atom -5579.239232 kJ/mol
# Density = 2.099865 g / cm^3
# Si number density = 21.046552 Si / 1000 Ang^3
#
#
#
# Elastic Constant Matrix: (Units=GPa)
#
#
# Indices 1 2 3 4 5 6 
#
# 1 18.6714 22.2777 32.3218 0.0000 0.0000 0.0000
# 2 22.2777 149.1356 72.2945 0.0000 0.0000 0.0000
# 3 32.3218 72.2945 129.8400 0.0000 0.0000 0.0000
# 4 0.0000 0.0000 0.0000 34.4897 0.0000 0.0000
# 5 0.0000 0.0000 0.0000 0.0000 4.2046 0.0000
# 6 0.0000 0.0000 0.0000 0.0000 0.0000 -1.1278
#
#
#
# Elastic Compliance Matrix: (Units=1/GPa)
#
#
# Indices 1 2 3 4 5 6 
#
# 1 0.095629 -0.003760 -0.021712 0.000000 0.000000 0.000000
# 2 -0.003760 0.009332 -0.004260 0.000000 0.000000 0.000000
# 3 -0.021712 -0.004260 0.015479 0.000000 0.000000 0.000000
# 4 0.000000 0.000000 0.000000 0.028994 0.000000 0.000000
# 5 0.000000 0.000000 0.000000 0.000000 0.237836 0.000000
# 6 0.000000 0.000000 0.000000 0.000000 0.000000 -0.886690
#
#
# Mechanical properties :
#
#
# Convention : Reuss Voigt Hill
#
# Bulk Modulus (GPa) = 16.39994 61.27056 38.83525
# Shear Modulus (GPa) = -11.91525 18.89682 3.49079
#
# Velocity S-wave (km/s) = -2.38195 2.99968 1.28927
# Velocity P-wave (km/s) = 0.49421 6.41658 4.55065
#
# Compressibility (1/GPa) = 0.06097584
#
# Stress axis : x y z
#
# Youngs Moduli (GPa) = 10.45706 107.15742 64.60505
#
# Poissons Ratio (x) = 0.40291 1.40270
# Poissons Ratio (y) = 0.03932 0.27522
# Poissons Ratio (z) = 0.22704 0.45650
#
# Static dielectric constant tensor:
#      x y z
#    x 1.745150 0.000000 0.000000 
#    y 0.000000 1.726210 0.000000 
#    z 0.000000 0.000000 1.835020 
# 
# From -- ./inp_files/22260.got.cif
#   From: 2010.05.17/outbox.cif.g08.bks.cpg/sg74_12_cif.got.tgz:22260.got - 2010.06.03 17:57:02.
