data_PCOD9538868
_publ_section_title
;
Structure prediction by ZEFSAII (Michael W. Deem and Ramdas Pophale) SiO2 
 PCOD9538868
Probable space group: I M M A
;
_chemical_formula_sum "Si O2"
_cell_formula_units_Z 104
_cell_length_a 26.815940
_cell_length_b 7.861298
_cell_length_c 22.308313
_cell_angle_alpha 90.000000
_cell_angle_beta 90.000000
_cell_angle_gamma 90.000000
_cell_volume 4702.772977
_symmetry_space_group_name_H-M "I M M A"
_symmetry_group_IT_number 74
_symmetry_cell_setting 'orthorhombic'
loop_
_space_group_symop_operation_xyz
x,y,z
-x,1/2-y,z
x,-y,-z
-x,1/2+y,-z
-x,-y,-z
x,1/2+y,-z
-x,y,z
x,1/2-y,z
1/2+x,1/2+y,1/2+z
1/2-x,-y,1/2+z
1/2+x,1/2-y,1/2-z
1/2-x,y,1/2-z
1/2-x,1/2-y,1/2-z
1/2+x,y,1/2-z
1/2-x,1/2+y,1/2+z
1/2+x,-y,1/2+z
loop_
_atom_site_type_symbol
_atom_site_label
_atom_site_fract_x
_atom_site_fract_y
_atom_site_fract_z
Si Si1 0.107086 0.953715 0.380936
Si Si2 0.139876 0.946992 0.931809
Si Si3 0.637864 0.458386 0.749323
Si Si4 0.000000 0.949891 0.569656
Si Si5 0.556803 0.455863 0.650286
Si Si6 0.781253 0.943972 0.162365
Si Si7 0.206171 0.045014 0.565547
O O1 0.111106 0.750000 0.378810
O O2 0.123915 0.016462 0.315530
O O3 0.149040 0.014323 0.427707
O O4 0.050783 0.990976 0.398923
O O5 0.153522 0.750000 0.924017
O O6 0.083655 0.976227 0.909117
O O7 0.174596 0.055269 0.887418
O O8 0.145967 0.000000 0.000000
O O9 0.640151 0.250000 0.749175
O O10 0.592857 0.508199 0.704964
O O11 0.690568 0.517389 0.720665
O O12 0.000000 0.750000 0.572544
O O13 0.000000 0.000000 0.500000
O O14 0.500000 0.512623 0.657426
O O15 0.557016 0.250000 0.648361
O O16 0.766572 0.750000 0.177391
O O17 0.736401 0.021695 0.123551
O O18 0.208518 0.250000 0.568948
O O19 0.226537 0.000000 0.500000
#
# Coordination Sequence:
#
# PCOD9538868 Si02
#       7
#    16  16  16   8  16  16  16
#     4  10  21  38  62  91 119 152 191 235 290 349
#     4  11  21  33  50  73 103 141 186 232 283 338
#     4   8  16  32  57  85 113 145 185 230 279 336
#     4  12  26  44  64  88 118 156 197 244 293 342
#     4   9  18  33  53  76 103 138 181 231 285 339
#     4   9  18  35  56  81 113 148 188 232 279 334
#     4  10  21  35  56  86 117 151 192 238 286 339
#
# _framework density 22.114612999999999
#
# number of rings (size 3 to 8) (size 9 to 14) (size 15 to 20)
#    0.000    2.308    0.000    3.923    1.077    4.923 
#    0.000    6.154    0.000    0.000    0.000    6.462 
#    0.000    0.000    0.000    0.000    0.000    0.000 
#
# Total GULP energy -290315.938313 kJ/mol
# GULP energy per Si atom -5582.998814 kJ/mol
# Density = 2.206428 g / cm^3
# Si number density = 22.114613 Si / 1000 Ang^3
#
#
#
# Elastic Constant Matrix: (Units=GPa)
#
#
# Indices 1 2 3 4 5 6 
#
# 1 148.4902 1.7802 52.1820 0.0000 0.0000 0.0000
# 2 1.7802 41.7181 2.4517 0.0000 0.0000 0.0000
# 3 52.1820 2.4517 136.2757 0.0000 0.0000 0.0000
# 4 0.0000 0.0000 0.0000 14.4623 0.0000 0.0000
# 5 0.0000 0.0000 0.0000 0.0000 27.0623 0.0000
# 6 0.0000 0.0000 0.0000 0.0000 0.0000 -0.0460
#
#
#
# Elastic Compliance Matrix: (Units=1/GPa)
#
#
# Indices 1 2 3 4 5 6 
#
# 1 0.007783 -0.000157 -0.002977 0.000000 0.000000 0.000000
# 2 -0.000157 0.023999 -0.000372 0.000000 0.000000 0.000000
# 3 -0.002977 -0.000372 0.008485 0.000000 0.000000 0.000000
# 4 0.000000 0.000000 0.000000 0.069145 0.000000 0.000000
# 5 0.000000 0.000000 0.000000 0.000000 0.036952 0.000000
# 6 0.000000 0.000000 0.000000 0.000000 0.000000-21.760809
#
#
# Mechanical properties :
#
#
# Convention : Reuss Voigt Hill
#
# Bulk Modulus (GPa) = 30.07121 48.81243 39.44182
# Shear Modulus (GPa) = -0.23152 26.30040 13.03444
#
# Velocity S-wave (km/s) = -0.32391 3.45233 2.43040
# Velocity P-wave (km/s) = 3.67254 6.16537 5.07441
#
# Compressibility (1/GPa) = 0.03325440
#
# Stress axis : x y z
#
# Youngs Moduli (GPa) = 128.49189 41.66845 117.85807
#
# Poissons Ratio (x) = 0.00655 0.35089
# Poissons Ratio (y) = 0.02019 0.04380
# Poissons Ratio (z) = 0.38255 0.01548
#
# Static dielectric constant tensor:
#      x y z
#    x 2.882670 0.000000 0.000000 
#    y 0.000000 1.824240 0.000000 
#    z 0.000000 0.000000 1.800500 
# 
# From -- ./inp_files/49279.got.cif
#   From: 2010.05.17/outbox.cif.g08.bks.cpg/sg74_25_cif.got.tgz:49279.got - 2010.06.03 17:57:02.
