data_PCOD9538995
_publ_section_title
;
Structure prediction by ZEFSAII (Michael W. Deem and Ramdas Pophale) SiO2 
 PCOD9538995
Probable space group: I M M A
;
_chemical_formula_sum "Si O2"
_cell_formula_units_Z 112
_cell_length_a 27.127040
_cell_length_b 20.072709
_cell_length_c 11.490115
_cell_angle_alpha 90.000000
_cell_angle_beta 90.000000
_cell_angle_gamma 90.000000
_cell_volume 6256.519057
_symmetry_space_group_name_H-M "I M M A"
_symmetry_group_IT_number 74
_symmetry_cell_setting 'orthorhombic'
loop_
_space_group_symop_operation_xyz
x,y,z
-x,1/2-y,z
x,-y,-z
-x,1/2+y,-z
-x,-y,-z
x,1/2+y,-z
-x,y,z
x,1/2-y,z
1/2+x,1/2+y,1/2+z
1/2-x,-y,1/2+z
1/2+x,1/2-y,1/2-z
1/2-x,y,1/2-z
1/2-x,1/2-y,1/2-z
1/2+x,y,1/2-z
1/2-x,1/2+y,1/2+z
1/2+x,-y,1/2+z
loop_
_atom_site_type_symbol
_atom_site_label
_atom_site_fract_x
_atom_site_fract_y
_atom_site_fract_z
Si Si1 0.557684 0.954355 0.106241
Si Si2 0.942844 0.828614 0.544364
Si Si3 0.210230 0.564852 0.339464
Si Si4 0.269701 0.588356 0.910624
Si Si5 0.852094 0.172248 0.284782
Si Si6 0.379007 0.543958 0.324369
Si Si7 0.848096 0.596831 0.936433
O O1 0.500000 0.969467 0.106427
O O2 0.574656 0.963792 0.239334
O O3 0.564602 0.878416 0.063376
O O4 0.580174 0.000000 0.000000
O O5 0.938413 0.750000 0.516107
O O6 0.900226 0.845086 0.638003
O O7 0.000000 0.839341 0.585158
O O8 0.250000 0.593128 0.250000
O O9 0.225164 0.488186 0.368786
O O10 0.205981 0.598707 0.463501
O O11 0.160440 0.566035 0.270341
O O12 0.302864 0.631855 0.823227
O O13 0.211738 0.599631 0.936906
O O14 0.842083 0.250000 0.299582
O O15 0.863773 0.154686 0.151169
O O16 0.373327 0.592046 0.436638
O O17 0.362849 0.472219 0.373575
#
# Coordination Sequence:
#
# PCOD9538995 Si02
#       7
#    16  16  16  16  16  16  16
#     4  10  21  36  57  87 115 141 179 233 294 341
#     4   9  19  38  61  83 107 138 181 233 285 338
#     4  11  17  30  51  79 103 134 178 228 274 319
#     4  11  20  31  52  78 108 139 186 230 273 324
#     4  11  22  36  55  79 107 145 189 230 279 335
#     4  11  20  33  53  78 110 141 178 229 276 330
#     4  11  21  34  49  74 109 148 181 219 272 328
#
# _framework density 17.901327999999999
#
# number of rings (size 3 to 8) (size 9 to 14) (size 15 to 20)
#    0.000    1.429    4.286    3.000    2.000    1.143 
#    0.000    2.857    0.000    1.286    0.000    0.000 
#    0.000    0.000    0.000    0.000    0.000    0.000 
#
# Total GULP energy -311892.921357 kJ/mol
# GULP energy per Si atom -5569.516453 kJ/mol
# Density = 1.786058 g / cm^3
# Si number density = 17.901328 Si / 1000 Ang^3
#
#
#
# Elastic Constant Matrix: (Units=GPa)
#
#
# Indices 1 2 3 4 5 6 
#
# 1 65.0231 16.0814 35.4719 0.0000 0.0000 0.0000
# 2 16.0814 28.9691 16.9999 0.0000 0.0000 0.0000
# 3 35.4719 16.9999 141.3469 0.0000 0.0000 0.0000
# 4 0.0000 0.0000 0.0000 -80.4932 0.0000 0.0000
# 5 0.0000 0.0000 0.0000 0.0000 33.1618 0.0000
# 6 0.0000 0.0000 0.0000 0.0000 0.0000 14.9097
#
#
#
# Elastic Compliance Matrix: (Units=1/GPa)
#
#
# Indices 1 2 3 4 5 6 
#
# 1 0.019632 -0.008615 -0.003891 0.000000 0.000000 0.000000
# 2 -0.008615 0.040921 -0.002760 0.000000 0.000000 0.000000
# 3 -0.003891 -0.002760 0.008383 0.000000 0.000000 0.000000
# 4 0.000000 0.000000 0.000000 -0.012423 0.000000 0.000000
# 5 0.000000 0.000000 0.000000 0.000000 0.030155 0.000000
# 6 0.000000 0.000000 0.000000 0.000000 0.000000 0.067070
#
#
# Mechanical properties :
#
#
# Convention : Reuss Voigt Hill
#
# Bulk Modulus (GPa) = 26.03767 41.38283 33.71025
# Shear Modulus (GPa) = 25.37144 4.63473 15.00308
#
# Velocity S-wave (km/s) = 3.76878 1.61080 2.89813
# Velocity P-wave (km/s) = 5.78921 5.16013 5.48370
#
# Compressibility (1/GPa) = 0.03840589
#
# Stress axis : x y z
#
# Youngs Moduli (GPa) = 50.93637 24.43706 119.28775
#
# Poissons Ratio (x) = 0.21053 0.46411
# Poissons Ratio (y) = 0.43883 0.32919
# Poissons Ratio (z) = 0.19818 0.06744
#
# Static dielectric constant tensor:
#      x y z
#    x 1.829430 0.000000 0.000000 
#    y 0.000000 1.627720 0.000000 
#    z 0.000000 0.000000 1.456780 
# 
# From -- ./inp_files/26477.got.cif
#   From: 2010.05.17/outbox.cif.g08.bks.cpg/sg74_14_cif.got.tgz:26477.got - 2010.06.03 17:57:02.
