data_PCOD9538812
_publ_section_title
;
Structure prediction by ZEFSAII (Michael W. Deem and Ramdas Pophale) SiO2 
 PCOD9538812
Probable space group: I M M A
;
_chemical_formula_sum "Si O2"
_cell_formula_units_Z 96
_cell_length_a 15.928504
_cell_length_b 26.951546
_cell_length_c 13.295454
_cell_angle_alpha 90.000000
_cell_angle_beta 90.000000
_cell_angle_gamma 90.000000
_cell_volume 5707.709262
_symmetry_space_group_name_H-M "I M M A"
_symmetry_group_IT_number 74
_symmetry_cell_setting 'orthorhombic'
loop_
_space_group_symop_operation_xyz
x,y,z
-x,1/2-y,z
x,-y,-z
-x,1/2+y,-z
-x,-y,-z
x,1/2+y,-z
-x,y,z
x,1/2-y,z
1/2+x,1/2+y,1/2+z
1/2-x,-y,1/2+z
1/2+x,1/2-y,1/2-z
1/2-x,y,1/2-z
1/2-x,1/2-y,1/2-z
1/2+x,y,1/2-z
1/2-x,1/2+y,1/2+z
1/2+x,-y,1/2+z
loop_
_atom_site_type_symbol
_atom_site_label
_atom_site_fract_x
_atom_site_fract_y
_atom_site_fract_z
Si Si1 0.333017 0.622001 0.317603
Si Si2 0.247910 0.692978 0.023727
Si Si3 0.598211 0.440683 0.501311
Si Si4 0.095790 0.942706 0.530443
Si Si5 0.244500 0.605664 0.868872
Si Si6 0.591379 0.148956 0.883402
O O1 0.250000 0.609119 0.250000
O O2 0.310903 0.666699 0.393379
O O3 0.366026 0.579293 0.391707
O O4 0.398077 0.639882 0.234477
O O5 0.227996 0.750000 0.006135
O O6 0.339054 0.685391 0.073517
O O7 0.247314 0.658825 0.924826
O O8 0.601449 0.500000 0.500000
O O9 0.500000 0.425480 0.489430
O O10 0.660869 0.420028 0.415080
O O11 0.173142 0.925737 0.598783
O O12 0.102216 0.904953 0.436179
O O13 0.000000 0.936807 0.571374
O O14 0.105328 0.000000 0.500000
O O15 0.250000 0.610529 0.750000
O O16 0.500000 0.167721 0.909325
#
# Coordination Sequence:
#
# PCOD9538812 Si02
#       6
#    16  16  16  16  16  16
#     4   9  18  32  51  73 100 132 165 205 250 304
#     4   9  19  35  51  69  95 126 163 209 258 303
#     4  10  21  35  51  75 108 142 172 205 249 300
#     4   9  18  33  52  76 106 136 168 206 247 294
#     4  10  21  35  53  75 100 134 174 214 252 294
#     4   9  17  29  48  74 100 126 158 200 251 303
#
# _framework density 16.819357
#
# number of rings (size 3 to 8) (size 9 to 14) (size 15 to 20)
#    0.000    2.667    0.000    2.000    0.000    6.333 
#    0.000    3.333    0.000   12.000    0.000    7.000 
#    0.000    0.000    0.000    0.000    0.000    0.000 
#
# Total GULP energy -267324.665413 kJ/mol
# GULP energy per Si atom -5569.263863 kJ/mol
# Density = 1.678108 g / cm^3
# Si number density = 16.819357 Si / 1000 Ang^3
#
#
#
# Elastic Constant Matrix: (Units=GPa)
#
#
# Indices 1 2 3 4 5 6 
#
# 1 93.5419 49.5085 52.3554 0.0000 0.0000 0.0000
# 2 49.5085 95.1347 36.8923 0.0000 0.0000 0.0000
# 3 52.3554 36.8923 126.8888 -0.0001 0.0000 0.0000
# 4 0.0000 0.0000 -0.0001 4.3527 0.0000 0.0000
# 5 0.0000 0.0000 0.0000 0.0000 10.8089 0.0000
# 6 0.0000 0.0000 0.0000 0.0000 0.0000 4.3180
#
#
#
# Elastic Compliance Matrix: (Units=1/GPa)
#
#
# Indices 1 2 3 4 5 6 
#
# 1 0.017238 -0.007002 -0.005077 0.000000 0.000000 0.000000
# 2 -0.007002 0.014691 -0.001382 0.000000 0.000000 0.000000
# 3 -0.005077 -0.001382 0.010378 0.000000 0.000000 0.000000
# 4 0.000000 0.000000 0.000000 0.229740 0.000000 -0.000001
# 5 0.000000 0.000000 0.000000 0.000000 0.092516 0.000000
# 6 0.000000 0.000000 0.000000 -0.000001 0.000000 0.231588
#
#
# Mechanical properties :
#
#
# Convention : Reuss Voigt Hill
#
# Bulk Modulus (GPa) = 64.99991 65.89755 65.44873
# Shear Modulus (GPa) = 7.95924 15.68321 11.82122
#
# Velocity S-wave (km/s) = 2.17772 3.05692 2.65398
# Velocity P-wave (km/s) = 6.71216 7.19196 6.95620
#
# Compressibility (1/GPa) = 0.01538464
#
# Stress axis : x y z
#
# Youngs Moduli (GPa) = 58.01263 68.06759 96.36226
#
# Poissons Ratio (x) = 0.47660 0.48920
# Poissons Ratio (y) = 0.40620 0.13321
# Poissons Ratio (z) = 0.29451 0.09410
#
# Static dielectric constant tensor:
#      x y z
#    x 1.605750 0.000000 0.000000 
#    y 0.000000 1.545940 0.000000 
#    z 0.000000 0.000000 1.549810 
# 
# From -- ./inp_files/22445.got.cif
#   From: 2010.05.17/outbox.cif.g08.bks.cpg/sg74_12_cif.got.tgz:22445.got - 2010.06.03 17:57:02.
