data_PCOD9538664
_publ_section_title
;
Structure prediction by ZEFSAII (Michael W. Deem and Ramdas Pophale) SiO2 
 PCOD9538664
Probable space group: I M M A
;
_chemical_formula_sum "Si O2"
_cell_formula_units_Z 72
_cell_length_a 10.123860
_cell_length_b 14.820355
_cell_length_c 24.029707
_cell_angle_alpha 90.000000
_cell_angle_beta 90.000000
_cell_angle_gamma 90.000000
_cell_volume 3605.397995
_symmetry_space_group_name_H-M "I M M A"
_symmetry_group_IT_number 74
_symmetry_cell_setting 'orthorhombic'
loop_
_space_group_symop_operation_xyz
x,y,z
-x,1/2-y,z
x,-y,-z
-x,1/2+y,-z
-x,-y,-z
x,1/2+y,-z
-x,y,z
x,1/2-y,z
1/2+x,1/2+y,1/2+z
1/2-x,-y,1/2+z
1/2+x,1/2-y,1/2-z
1/2-x,y,1/2-z
1/2-x,1/2-y,1/2-z
1/2+x,y,1/2-z
1/2-x,1/2+y,1/2+z
1/2+x,-y,1/2+z
loop_
_atom_site_type_symbol
_atom_site_label
_atom_site_fract_x
_atom_site_fract_y
_atom_site_fract_z
Si Si1 0.500000 0.539920 0.692935
Si Si2 0.000000 0.345683 0.815879
Si Si3 0.850567 0.605828 0.984667
Si Si4 0.000000 0.356838 0.305152
Si Si5 0.727937 0.550804 0.874783
Si Si6 0.744323 0.152477 0.896319
O O1 0.500000 0.438085 0.718283
O O2 0.500000 0.612168 0.741330
O O3 0.629405 0.546978 0.654952
O O4 0.872704 0.347293 0.856080
O O5 0.000000 0.250000 0.784666
O O6 0.754287 0.605406 0.931822
O O7 0.000000 0.637710 0.972146
O O8 0.861362 0.500000 0.000000
O O9 0.794094 0.650735 0.039990
O O10 0.873606 0.399129 0.335471
O O11 0.000000 0.250000 0.309705
O O12 0.682497 0.446800 0.886113
O O13 0.675799 0.250000 0.886651
#
# Coordination Sequence:
#
# PCOD9538664 Si02
#       6
#     8   8  16   8  16  16
#     4  10  20  39  66  86 106 146 199 247 286 329
#     4   8  14  27  53  91 125 143 169 224 290 338
#     4   9  15  28  54  89 122 151 186 226 268 322
#     4  12  28  46  58  75 109 151 194 247 304 341
#     4  10  21  39  61  85 117 153 190 235 288 341
#     4   9  16  29  54  91 126 151 178 223 280 339
#
# _framework density 19.970056
#
# number of rings (size 3 to 8) (size 9 to 14) (size 15 to 20)
#    0.000    2.444    2.222    0.667    0.000    2.667 
#    0.000    6.667    0.000    5.333    0.000    0.000 
#    0.000    0.000    0.000    0.000    0.000    0.000 
#
# Total GULP energy -200638.901731 kJ/mol
# GULP energy per Si atom -5573.302826 kJ/mol
# Density = 1.992460 g / cm^3
# Si number density = 19.970056 Si / 1000 Ang^3
#
#
#
# Elastic Constant Matrix: (Units=GPa)
#
#
# Indices 1 2 3 4 5 6 
#
# 1 48.6336 25.6769 7.9212 0.0000 0.0000 0.0000
# 2 25.6769 150.9869 27.1573 0.0000 0.0000 0.0000
# 3 7.9212 27.1573 39.7227 0.0000 0.0000 0.0000
# 4 0.0000 0.0000 0.0000 25.2609 0.0000 0.0000
# 5 0.0000 0.0000 0.0000 0.0000 -221.4106 0.0000
# 6 0.0000 0.0000 0.0000 0.0000 0.0000 -8.2244
#
#
#
# Elastic Compliance Matrix: (Units=1/GPa)
#
#
# Indices 1 2 3 4 5 6 
#
# 1 0.022751 -0.003481 -0.002157 0.000000 0.000000 0.000000
# 2 -0.003481 0.008084 -0.004833 0.000000 0.000000 0.000000
# 3 -0.002157 -0.004833 0.028909 0.000000 0.000000 0.000000
# 4 0.000000 0.000000 0.000000 0.039587 0.000000 0.000000
# 5 0.000000 0.000000 0.000000 0.000000 -0.004516 0.000000
# 6 0.000000 0.000000 0.000000 0.000000 0.000000 -0.121589
#
#
# Mechanical properties :
#
#
# Convention : Reuss Voigt Hill
#
# Bulk Modulus (GPa) = 25.77159 40.09490 32.93324
# Shear Modulus (GPa) = 704.04531 -28.96898 337.53817
#
# Velocity S-wave (km/s) = 18.79670 -3.81283 13.01496
# Velocity P-wave (km/s) = 22.00048 0.85877 15.56853
#
# Compressibility (1/GPa) = 0.03880242
#
# Stress axis : x y z
#
# Youngs Moduli (GPa) = 43.95381 123.69569 34.59161
#
# Poissons Ratio (x) = 0.43060 0.07461
# Poissons Ratio (y) = 0.15301 0.16718
# Poissons Ratio (z) = 0.09481 0.59781
#
# Static dielectric constant tensor:
#      x y z
#    x 1.681630 0.000000 0.000000 
#    y 0.000000 1.777520 0.000000 
#    z 0.000000 0.000000 1.679160 
# 
# From -- ./inp_files/63702.got.cif
#   From: 2010.05.17/outbox.cif.g08.bks.cpg/sg74_32_cif.got.tgz:63702.got - 2010.06.03 17:57:02.
