data_PCOD9538509
_publ_section_title
;
Structure prediction by ZEFSAII (Michael W. Deem and Ramdas Pophale) SiO2 
 PCOD9538509
Probable space group: I M M A
;
_chemical_formula_sum "Si O2"
_cell_formula_units_Z 88
_cell_length_a 33.429865
_cell_length_b 27.091305
_cell_length_c 5.096790
_cell_angle_alpha 90.000000
_cell_angle_beta 90.000000
_cell_angle_gamma 90.000000
_cell_volume 4615.952047
_symmetry_space_group_name_H-M "I M M A"
_symmetry_group_IT_number 74
_symmetry_cell_setting 'orthorhombic'
loop_
_space_group_symop_operation_xyz
x,y,z
-x,1/2-y,z
x,-y,-z
-x,1/2+y,-z
-x,-y,-z
x,1/2+y,-z
-x,y,z
x,1/2-y,z
1/2+x,1/2+y,1/2+z
1/2-x,-y,1/2+z
1/2+x,1/2-y,1/2-z
1/2-x,y,1/2-z
1/2-x,1/2-y,1/2-z
1/2+x,y,1/2-z
1/2-x,1/2+y,1/2+z
1/2+x,-y,1/2+z
loop_
_atom_site_type_symbol
_atom_site_label
_atom_site_fract_x
_atom_site_fract_y
_atom_site_fract_z
Si Si1 0.000000 0.463264 0.742168
Si Si2 0.633895 0.096924 0.412468
Si Si3 0.087477 0.556611 0.402987
Si Si4 0.094039 0.808282 0.068851
Si Si5 0.222986 0.440840 0.004207
Si Si6 0.455917 0.309147 0.061629
O O1 0.000000 0.500000 0.500000
O O2 0.958490 0.433651 0.694368
O O3 0.000000 0.500000 0.000000
O O4 0.612777 0.065757 0.642422
O O5 0.628176 0.154663 0.479188
O O6 0.680191 0.083347 0.439499
O O7 0.609711 0.084875 0.143639
O O8 0.088170 0.500000 0.500000
O O9 0.104230 0.750000 0.069203
O O10 0.076826 0.824459 0.349533
O O11 0.058768 0.816196 0.856785
O O12 0.250000 0.428447 0.250000
O O13 0.216323 0.500000 0.000000
O O14 0.250000 0.428036 0.750000
O O15 0.500000 0.330094 0.020291
O O16 0.458480 0.250000 0.022128
#
# Coordination Sequence:
#
# PCOD9538509 Si02
#       6
#     8  16  16  16  16  16
#     4  10  20  38  56  76 115 162 199 236 286 334
#     4  12  23  38  59  90 115 151 198 237 295 359
#     4  11  22  38  59  83 116 155 196 244 288 347
#     4  10  21  37  55  80 115 153 194 241 293 340
#     4  10  21  38  61  87 115 144 178 235 304 363
#     4   9  17  33  54  75 105 149 196 247 295 330
#
# _framework density 19.064323000000002
#
# number of rings (size 3 to 8) (size 9 to 14) (size 15 to 20)
#    0.000    1.636    0.000    6.545    0.000    3.636 
#    9.818    0.000    0.000    1.091    0.000    0.000 
#    0.000    0.000    0.000    0.000    0.000    0.000 
#
# Total GULP energy -245369.123337 kJ/mol
# GULP energy per Si atom -5576.570985 kJ/mol
# Density = 1.902093 g / cm^3
# Si number density = 19.064323 Si / 1000 Ang^3
#
#
#
# Elastic Constant Matrix: (Units=GPa)
#
#
# Indices 1 2 3 4 5 6 
#
# 1 178.8774 61.6567 59.9225 0.0000 0.0000 0.0000
# 2 61.6567 72.3431 29.7903 0.0000 0.0000 0.0000
# 3 59.9225 29.7903 143.2359 0.0000 0.0000 0.0000
# 4 0.0000 0.0000 0.0000 23.6146 0.0000 0.0000
# 5 0.0000 0.0000 0.0000 0.0000 -41.6530 0.0000
# 6 0.0000 0.0000 0.0000 0.0000 0.0000 23.7912
#
#
#
# Elastic Compliance Matrix: (Units=1/GPa)
#
#
# Indices 1 2 3 4 5 6 
#
# 1 0.008531 -0.006344 -0.002249 0.000000 0.000000 0.000000
# 2 -0.006344 0.019836 -0.001471 0.000000 0.000000 0.000000
# 3 -0.002249 -0.001471 0.008229 0.000000 0.000000 0.000000
# 4 0.000000 0.000000 0.000000 0.042347 0.000000 0.000000
# 5 0.000000 0.000000 0.000000 0.000000 -0.024008 0.000000
# 6 0.000000 0.000000 0.000000 0.000000 0.000000 0.042032
#
#
# Mechanical properties :
#
#
# Convention : Reuss Voigt Hill
#
# Bulk Modulus (GPa) = 60.73395 77.46616 69.10006
# Shear Modulus (GPa) = 40.78804 17.35636 29.07220
#
# Velocity S-wave (km/s) = 4.63049 3.02057 3.90930
# Velocity P-wave (km/s) = 7.77914 7.27238 7.53003
#
# Compressibility (1/GPa) = 0.01646526
#
# Stress axis : x y z
#
# Youngs Moduli (GPa) = 117.22314 50.41317 121.52876
#
# Poissons Ratio (x) = 0.31984 0.27336
# Poissons Ratio (y) = 0.74370 0.17881
# Poissons Ratio (z) = 0.26367 0.07418
#
# Static dielectric constant tensor:
#      x y z
#    x 1.488340 0.000000 0.000000 
#    y 0.000000 1.492360 0.000000 
#    z 0.000000 0.000000 1.656340 
# 
# From -- ./inp_files/5236.got.cif
#   From: 2010.05.17/outbox.cif.g08.bks.cpg/sg74_3_cif.got.tgz:5236.got - 2010.06.03 17:57:02.
