data_PCOD9538568
_publ_section_title
;
Structure prediction by ZEFSAII (Michael W. Deem and Ramdas Pophale) SiO2 
 PCOD9538568
Probable space group: I M M A
;
_chemical_formula_sum "Si O2"
_cell_formula_units_Z 116
_cell_length_a 17.860234
_cell_length_b 16.902594
_cell_length_c 19.470877
_cell_angle_alpha 90.000000
_cell_angle_beta 90.000000
_cell_angle_gamma 90.000000
_cell_volume 5877.951763
_symmetry_space_group_name_H-M "I M M A"
_symmetry_group_IT_number 74
_symmetry_cell_setting 'orthorhombic'
loop_
_space_group_symop_operation_xyz
x,y,z
-x,1/2-y,z
x,-y,-z
-x,1/2+y,-z
-x,-y,-z
x,1/2+y,-z
-x,y,z
x,1/2-y,z
1/2+x,1/2+y,1/2+z
1/2-x,-y,1/2+z
1/2+x,1/2-y,1/2-z
1/2-x,y,1/2-z
1/2-x,1/2-y,1/2-z
1/2+x,y,1/2-z
1/2-x,1/2+y,1/2+z
1/2+x,-y,1/2+z
loop_
_atom_site_type_symbol
_atom_site_label
_atom_site_fract_x
_atom_site_fract_y
_atom_site_fract_z
Si Si1 0.500000 0.250000 0.682409
Si Si2 0.793296 0.882361 0.352415
Si Si3 0.128413 0.620455 0.212068
Si Si4 0.417711 0.656644 0.808105
Si Si5 0.237950 0.337720 0.993857
Si Si6 0.283247 0.066860 0.123259
Si Si7 0.583229 0.407516 0.482617
Si Si8 0.619673 0.936093 0.674232
O O1 0.566054 0.180555 0.686512
O O2 0.855211 0.866651 0.293902
O O3 0.710831 0.867407 0.320547
O O4 0.787853 0.839844 0.425604
O O5 0.800318 0.974731 0.370685
O O6 0.107984 0.529088 0.192358
O O7 0.500000 0.642010 0.838527
O O8 0.406710 0.750000 0.802069
O O9 0.352136 0.617577 0.851055
O O10 0.414040 0.616380 0.733849
O O11 0.241865 0.250000 0.025012
O O12 0.263320 0.404292 0.047242
O O13 0.150161 0.358938 0.982317
O O14 0.208995 0.077942 0.169318
O O15 0.592252 0.500000 0.500000
O O16 0.500000 0.381014 0.503532
O O17 0.590065 0.408479 0.399946
#
# Coordination Sequence:
#
# PCOD9538568 Si02
#       8
#     4  16  16  16  16  16  16  16
#     4  12  28  38  60 100 138 158 204 272 330 384
#     4  10  21  42  67  85 119 167 215 254 309 379
#     4  10  23  40  63  92 123 162 207 264 321 372
#     4  11  23  36  58  94 128 158 199 263 327 379
#     4  11  23  37  60  89 121 162 207 262 308 368
#     4  10  20  40  64  87 117 163 214 257 301 380
#     4  10  21  38  58  84 121 164 205 251 304 383
#     4  10  20  38  63  89 118 166 210 251 314 382
#
# _framework density 19.734764999999999
#
# number of rings (size 3 to 8) (size 9 to 14) (size 15 to 20)
#    0.000    1.655    1.379    4.138    3.862    4.138 
#    1.241    0.000    1.517    0.828    0.000    0.000 
#    0.000    0.000    0.000    0.000    0.000    0.000 
#
# Total GULP energy -323350.765487 kJ/mol
# GULP energy per Si atom -5575.013198 kJ/mol
# Density = 1.968985 g / cm^3
# Si number density = 19.734765 Si / 1000 Ang^3
#
#
#
# Elastic Constant Matrix: (Units=GPa)
#
#
# Indices 1 2 3 4 5 6 
#
# 1 63.3961 53.3031 4.2767 0.0000 0.0000 0.0000
# 2 53.3031 74.9167 2.0718 0.0000 0.0000 0.0000
# 3 4.2767 2.0718 53.2832 0.0000 0.0000 0.0000
# 4 0.0000 0.0000 0.0000 -7.5675 0.0000 0.0000
# 5 0.0000 0.0000 0.0000 0.0000 -12.8455 0.0000
# 6 0.0000 0.0000 0.0000 0.0000 0.0000 40.0766
#
#
#
# Elastic Compliance Matrix: (Units=1/GPa)
#
#
# Indices 1 2 3 4 5 6 
#
# 1 0.039489 -0.028039 -0.002079 0.000000 0.000000 0.000000
# 2 -0.028039 0.033271 0.000957 0.000000 0.000000 0.000000
# 3 -0.002079 0.000957 0.018897 0.000000 0.000000 0.000000
# 4 0.000000 0.000000 0.000000 -0.132144 0.000000 0.000000
# 5 0.000000 0.000000 0.000000 0.000000 -0.077848 0.000000
# 6 0.000000 0.000000 0.000000 0.000000 0.000000 0.024952
#
#
# Mechanical properties :
#
#
# Convention : Reuss Voigt Hill
#
# Bulk Modulus (GPa) = 29.99853 34.54435 32.27144
# Shear Modulus (GPa) = -208.78292 12.72902 -98.02695
#
# Velocity S-wave (km/s) = -10.29680 2.54245 -7.05550
# Velocity P-wave (km/s) = 11.23084 5.11479 7.07003
#
# Compressibility (1/GPa) = 0.03333496
#
# Stress axis : x y z
#
# Youngs Moduli (GPa) = 25.32356 30.05600 52.91752
#
# Poissons Ratio (x) = 0.84273 0.11003
# Poissons Ratio (y) = 0.71004 -0.05063
# Poissons Ratio (z) = 0.05266 -0.02876
#
# Static dielectric constant tensor:
#      x y z
#    x 1.652270 0.000000 0.000000 
#    y 0.000000 1.687760 0.000000 
#    z 0.000000 0.000000 1.731920 
# 
# From -- ./inp_files/44244.got.cif
#   From: 2010.05.17/outbox.cif.g08.bks.cpg/sg74_23_cif.got.tgz:44244.got - 2010.06.03 17:57:02.
