data_PCOD9538511
_publ_section_title
;
Structure prediction by ZEFSAII (Michael W. Deem and Ramdas Pophale) SiO2 
 PCOD9538511
Probable space group: I M M A
;
_chemical_formula_sum "Si O2"
_cell_formula_units_Z 80
_cell_length_a 19.838946
_cell_length_b 15.733824
_cell_length_c 12.096601
_cell_angle_alpha 90.000000
_cell_angle_beta 90.000000
_cell_angle_gamma 90.000000
_cell_volume 3775.863093
_symmetry_space_group_name_H-M "I M M A"
_symmetry_group_IT_number 74
_symmetry_cell_setting 'orthorhombic'
loop_
_space_group_symop_operation_xyz
x,y,z
-x,1/2-y,z
x,-y,-z
-x,1/2+y,-z
-x,-y,-z
x,1/2+y,-z
-x,y,z
x,1/2-y,z
1/2+x,1/2+y,1/2+z
1/2-x,-y,1/2+z
1/2+x,1/2-y,1/2-z
1/2-x,y,1/2-z
1/2-x,1/2-y,1/2-z
1/2+x,y,1/2-z
1/2-x,1/2+y,1/2+z
1/2+x,-y,1/2+z
loop_
_atom_site_type_symbol
_atom_site_label
_atom_site_fract_x
_atom_site_fract_y
_atom_site_fract_z
Si Si1 0.580456 0.750000 0.376397
Si Si2 0.617070 0.250000 0.239621
Si Si3 0.750112 0.421642 0.073969
Si Si4 0.582718 0.750000 0.013411
Si Si5 0.195873 0.750000 0.955733
Si Si6 0.636329 0.429764 0.254365
Si Si7 0.919436 0.612265 0.306381
O O1 0.500000 0.750000 0.394898
O O2 0.623384 0.750000 0.486818
O O3 0.598625 0.668760 0.300716
O O4 0.615658 0.250000 0.106669
O O5 0.682216 0.250000 0.322805
O O6 0.589983 0.345553 0.266381
O O7 0.764816 0.334330 0.011796
O O8 0.693284 0.405813 0.164830
O O9 0.820880 0.444887 0.134305
O O10 0.728992 0.500000 0.000000
O O11 0.500000 0.750000 0.001325
O O12 0.601940 0.666586 0.085699
O O13 0.604341 0.516464 0.210913
O O14 0.000000 0.611602 0.311934
#
# Coordination Sequence:
#
# PCOD9538511 Si02
#       7
#     8   8  16   8   8  16  16
#     4   9  18  36  63  88 111 143 188 238 292 341
#     4  10  22  34  52  75 110 150 183 220 263 334
#     4  10  21  36  56  81 112 148 187 232 276 336
#     4   9  20  36  54  81 112 142 181 226 278 333
#     4  10  20  38  57  81 117 150 182 230 288 332
#     4  10  21  37  55  81 110 148 192 229 279 331
#     4   9  19  37  60  84 110 143 185 239 290 330
#
# _framework density 21.187208999999999
#
# number of rings (size 3 to 8) (size 9 to 14) (size 15 to 20)
#    0.000    2.400    0.000    3.000    2.800    3.600 
#    0.000    5.000    0.000   15.600    0.000    0.000 
#    0.000    0.000    0.000    0.000    0.000    0.000 
#
# Total GULP energy -223022.352913 kJ/mol
# GULP energy per Si atom -5575.558823 kJ/mol
# Density = 2.113899 g / cm^3
# Si number density = 21.187209 Si / 1000 Ang^3
#
#
#
# Elastic Constant Matrix: (Units=GPa)
#
#
# Indices 1 2 3 4 5 6 
#
# 1 35.8494 27.2673 29.3394 0.0000 0.0000 0.0000
# 2 27.2673 163.8381 20.7316 0.0000 0.0000 0.0000
# 3 29.3394 20.7316 66.8024 0.0000 0.0000 0.0000
# 4 0.0000 0.0000 0.0000 15.2296 0.0000 0.0000
# 5 0.0000 0.0000 0.0000 0.0000 25.3007 0.0000
# 6 0.0000 0.0000 0.0000 0.0000 0.0000 -3.6145
#
#
#
# Elastic Compliance Matrix: (Units=1/GPa)
#
#
# Indices 1 2 3 4 5 6 
#
# 1 0.047920 -0.005529 -0.019330 0.000000 0.000000 0.000000
# 2 -0.005529 0.006991 0.000259 0.000000 0.000000 0.000000
# 3 -0.019330 0.000259 0.023379 0.000000 0.000000 0.000000
# 4 0.000000 0.000000 0.000000 0.065662 0.000000 0.000000
# 5 0.000000 0.000000 0.000000 0.000000 0.039525 0.000000
# 6 0.000000 0.000000 0.000000 0.000000 0.000000 -0.276663
#
#
# Mechanical properties :
#
#
# Convention : Reuss Voigt Hill
#
# Bulk Modulus (GPa) = 34.37773 46.79625 40.58699
# Shear Modulus (GPa) = -145.82033 19.99327 -62.91353
#
# Velocity S-wave (km/s) = -8.30507 3.07522 -5.45514
# Velocity P-wave (km/s) = 8.70084 5.89443 4.52550
#
# Compressibility (1/GPa) = 0.02908860
#
# Stress axis : x y z
#
# Youngs Moduli (GPa) = 20.86801 143.03978 42.77330
#
# Poissons Ratio (x) = 0.79090 0.82683
# Poissons Ratio (y) = 0.11538 -0.01107
# Poissons Ratio (z) = 0.40339 -0.03702
#
# Static dielectric constant tensor:
#      x y z
#    x 1.754160 0.000000 0.000000 
#    y 0.000000 1.801620 0.000000 
#    z 0.000000 0.000000 1.765840 
# 
# From -- ./inp_files/20592.got.cif
#   From: 2010.05.17/outbox.cif.g08.bks.cpg/sg74_11_cif.got.tgz:20592.got - 2010.06.03 17:57:02.
