data_PCOD9538627
_publ_section_title
;
Structure prediction by ZEFSAII (Michael W. Deem and Ramdas Pophale) SiO2 
 PCOD9538627
Probable space group: I M M A
;
_chemical_formula_sum "Si O2"
_cell_formula_units_Z 116
_cell_length_a 29.010778
_cell_length_b 17.090262
_cell_length_c 11.946005
_cell_angle_alpha 90.000000
_cell_angle_beta 90.000000
_cell_angle_gamma 90.000000
_cell_volume 5922.850744
_symmetry_space_group_name_H-M "I M M A"
_symmetry_group_IT_number 74
_symmetry_cell_setting 'orthorhombic'
loop_
_space_group_symop_operation_xyz
x,y,z
-x,1/2-y,z
x,-y,-z
-x,1/2+y,-z
-x,-y,-z
x,1/2+y,-z
-x,y,z
x,1/2-y,z
1/2+x,1/2+y,1/2+z
1/2-x,-y,1/2+z
1/2+x,1/2-y,1/2-z
1/2-x,y,1/2-z
1/2-x,1/2-y,1/2-z
1/2+x,y,1/2-z
1/2-x,1/2+y,1/2+z
1/2+x,-y,1/2+z
loop_
_atom_site_type_symbol
_atom_site_label
_atom_site_fract_x
_atom_site_fract_y
_atom_site_fract_z
Si Si1 0.447051 0.539857 0.618635
Si Si2 0.296843 0.066051 0.188893
Si Si3 0.000000 0.250000 0.765318
Si Si4 0.673969 0.658038 0.394472
Si Si5 0.864514 0.842406 0.854676
Si Si6 0.726927 0.340112 0.966953
Si Si7 0.548647 0.403571 0.803280
Si Si8 0.147838 0.590268 0.331618
O O1 0.434418 0.500000 0.500000
O O2 0.500000 0.568888 0.607431
O O3 0.411368 0.607477 0.650943
O O4 0.447013 0.472525 0.712690
O O5 0.250000 0.039462 0.250000
O O6 0.326639 0.121411 0.270903
O O7 0.329165 0.994074 0.154512
O O8 0.281181 0.111431 0.078557
O O9 0.960488 0.320181 0.756984
O O10 0.671796 0.750000 0.365115
O O11 0.653796 0.648695 0.518363
O O12 0.727482 0.633142 0.401094
O O13 0.648060 0.609212 0.300549
O O14 0.871098 0.750000 0.832829
O O15 0.735261 0.250000 0.996962
O O16 0.682143 0.349771 0.890827
O O17 0.500000 0.415880 0.867397
O O18 0.595547 0.403389 0.872459
#
# Coordination Sequence:
#
# PCOD9538627 Si02
#       8
#    16  16   4  16  16  16  16  16
#     4  10  20  39  58  88 127 164 204 259 312 368
#     4  12  24  41  64  85 123 171 215 250 299 376
#     4   8  20  36  62  92 114 164 200 246 310 398
#     4  10  22  38  58  88 125 163 202 254 314 366
#     4  11  23  39  63  90 123 172 217 252 305 369
#     4  11  24  40  59  87 123 163 207 257 306 367
#     4   9  20  37  60  87 120 156 197 248 316 372
#     4  12  23  38  62  94 123 154 200 266 319 367
#
# _framework density 19.585163000000001
#
# number of rings (size 3 to 8) (size 9 to 14) (size 15 to 20)
#    0.414    0.966    2.759    3.310    1.931    1.931 
#    1.241    0.000    0.000    2.483    0.000    0.000 
#    0.000    0.000    0.000    0.000    0.000    0.000 
#
# Total GULP energy -323370.221254 kJ/mol
# GULP energy per Si atom -5575.348642 kJ/mol
# Density = 1.954059 g / cm^3
# Si number density = 19.585163 Si / 1000 Ang^3
#
#
#
# Elastic Constant Matrix: (Units=GPa)
#
#
# Indices 1 2 3 4 5 6 
#
# 1 148.3506 40.9871 1.2869 0.0000 0.0000 0.0000
# 2 40.9871 86.4267 1.5712 0.0000 0.0000 0.0000
# 3 1.2869 1.5712 19.1431 0.0000 0.0000 0.0000
# 4 0.0000 0.0000 0.0000 4.4868 0.0000 0.0000
# 5 0.0000 0.0000 0.0000 0.0000 16.7068 0.0000
# 6 0.0000 0.0000 0.0000 0.0000 0.0000 38.5959
#
#
#
# Elastic Compliance Matrix: (Units=1/GPa)
#
#
# Indices 1 2 3 4 5 6 
#
# 1 0.007758 -0.003675 -0.000220 0.000000 0.000000 0.000000
# 2 -0.003675 0.013329 -0.000847 0.000000 0.000000 0.000000
# 3 -0.000220 -0.000847 0.052322 0.000000 0.000000 0.000000
# 4 0.000000 0.000000 0.000000 0.222877 0.000000 0.000000
# 5 0.000000 0.000000 0.000000 0.000000 0.059856 0.000000
# 6 0.000000 0.000000 0.000000 0.000000 0.000000 0.025909
#
#
# Mechanical properties :
#
#
# Convention : Reuss Voigt Hill
#
# Bulk Modulus (GPa) = 15.64324 37.95674 26.79999
# Shear Modulus (GPa) = 12.11112 25.96292 19.03702
#
# Velocity S-wave (km/s) = 2.48943 3.64489 3.12109
# Velocity P-wave (km/s) = 4.03332 6.09393 5.16738
#
# Compressibility (1/GPa) = 0.06392536
#
# Stress axis : x y z
#
# Youngs Moduli (GPa) = 128.89745 75.02529 19.11226
#
# Poissons Ratio (x) = 0.27573 0.00420
# Poissons Ratio (y) = 0.47373 0.01619
# Poissons Ratio (z) = 0.02834 0.06354
#
# Static dielectric constant tensor:
#      x y z
#    x 1.731000 0.000000 0.000000 
#    y 0.000000 1.670520 0.000000 
#    z 0.000000 0.000000 1.678640 
# 
# From -- ./inp_files/27348.got.cif
#   From: 2010.05.17/outbox.cif.g08.bks.cpg/sg74_14_cif.got.tgz:27348.got - 2010.06.03 17:57:02.
