data_PCOD9538595
_publ_section_title
;
Structure prediction by ZEFSAII (Michael W. Deem and Ramdas Pophale) SiO2 
 PCOD9538595
Probable space group: I M M A
;
_chemical_formula_sum "Si O2"
_cell_formula_units_Z 76
_cell_length_a 17.752221
_cell_length_b 14.485516
_cell_length_c 13.400599
_cell_angle_alpha 90.000000
_cell_angle_beta 90.000000
_cell_angle_gamma 90.000000
_cell_volume 3445.965123
_symmetry_space_group_name_H-M "I M M A"
_symmetry_group_IT_number 74
_symmetry_cell_setting 'orthorhombic'
loop_
_space_group_symop_operation_xyz
x,y,z
-x,1/2-y,z
x,-y,-z
-x,1/2+y,-z
-x,-y,-z
x,1/2+y,-z
-x,y,z
x,1/2-y,z
1/2+x,1/2+y,1/2+z
1/2-x,-y,1/2+z
1/2+x,1/2-y,1/2-z
1/2-x,y,1/2-z
1/2-x,1/2-y,1/2-z
1/2+x,y,1/2-z
1/2-x,1/2+y,1/2+z
1/2+x,-y,1/2+z
loop_
_atom_site_type_symbol
_atom_site_label
_atom_site_fract_x
_atom_site_fract_y
_atom_site_fract_z
Si Si1 0.330829 0.889981 0.997615
Si Si2 0.108471 0.250000 0.158701
Si Si3 0.697235 0.750000 0.155992
Si Si4 0.909065 0.897082 0.010507
Si Si5 0.500000 0.250000 0.196565
Si Si6 0.910119 0.250000 0.826513
Si Si7 0.302267 0.250000 0.176294
Si Si8 0.000000 0.390974 0.477502
O O1 0.289506 0.838152 0.086543
O O2 0.418477 0.862510 0.016580
O O3 0.308120 0.841499 0.893736
O O4 0.322900 0.000000 0.000000
O O5 0.204128 0.250000 0.196472
O O6 0.000000 0.250000 0.179090
O O7 0.109250 0.339311 0.088382
O O8 0.750000 0.750000 0.250000
O O9 0.617992 0.750000 0.214006
O O10 0.885645 0.838964 0.107901
O O11 0.000000 0.902826 0.016553
O O12 0.877925 0.000000 0.000000
O O13 0.400125 0.250000 0.217281
O O14 0.500000 0.153585 0.133267
O O15 0.000000 0.250000 0.826880
O O16 0.000000 0.500000 0.500000
#
# Coordination Sequence:
#
# PCOD9538595 Si02
#       8
#    16   8   8  16   4   8   8   8
#     4  10  23  42  64  92 127 158 203 264 315 366
#     4  11  19  33  58  81 113 152 193 240 297 353
#     4  11  25  42  62  87 125 164 208 249 312 381
#     4   9  18  33  52  83 119 147 188 243 289 347
#     4  12  16  34  62  88 120 152 188 250 324 360
#     4   9  20  38  57  84 115 158 205 245 307 362
#     4  11  24  40  59  89 116 159 210 248 295 374
#     4  10  20  38  64  97 125 154 203 262 323 367
#
# _framework density 22.054779
#
# number of rings (size 3 to 8) (size 9 to 14) (size 15 to 20)
#    0.000    1.895    3.158    1.263    1.474    5.895 
#    0.000    2.105    0.000    0.000    0.000    0.000 
#    0.000    0.000    0.000    0.000    0.000    0.000 
#
# Total GULP energy -211765.632889 kJ/mol
# GULP energy per Si atom -5572.779813 kJ/mol
# Density = 2.200458 g / cm^3
# Si number density = 22.054779 Si / 1000 Ang^3
#
#
#
# Elastic Constant Matrix: (Units=GPa)
#
#
# Indices 1 2 3 4 5 6 
#
# 1 122.5387 25.5282 34.4173 0.0000 0.0000 0.0000
# 2 25.5282 213.0331 100.4431 0.0000 0.0000 0.0000
# 3 34.4173 100.4431 158.1197 0.0000 0.0000 0.0000
# 4 0.0000 0.0000 0.0000 4.9727 0.0000 0.0000
# 5 0.0000 0.0000 0.0000 0.0000 47.6969 0.0000
# 6 0.0000 0.0000 0.0000 0.0000 0.0000 -3.4510
#
#
#
# Elastic Compliance Matrix: (Units=1/GPa)
#
#
# Indices 1 2 3 4 5 6 
#
# 1 0.008699 -0.000214 -0.001758 0.000000 0.000000 0.000000
# 2 -0.000214 0.006706 -0.004214 0.000000 0.000000 0.000000
# 3 -0.001758 -0.004214 0.009384 0.000000 0.000000 0.000000
# 4 0.000000 0.000000 0.000000 0.201097 0.000000 0.000000
# 5 0.000000 0.000000 0.000000 0.000000 0.020966 0.000000
# 6 0.000000 0.000000 0.000000 0.000000 0.000000 -0.289775
#
#
# Mechanical properties :
#
#
# Convention : Reuss Voigt Hill
#
# Bulk Modulus (GPa) = 80.52295 90.49651 85.50973
# Shear Modulus (GPa) = -189.29315 32.06393 -78.61461
#
# Velocity S-wave (km/s) = -9.27442 3.81705 -5.97683
# Velocity P-wave (km/s) = 8.83725 7.78127 2.96216
#
# Compressibility (1/GPa) = 0.01241882
#
# Stress axis : x y z
#
# Youngs Moduli (GPa) = 114.95724 149.11138 106.56927
#
# Poissons Ratio (x) = 0.03186 0.18732
# Poissons Ratio (y) = 0.02456 0.44904
# Poissons Ratio (z) = 0.20206 0.62830
#
# Static dielectric constant tensor:
#      x y z
#    x 3.610100 0.000000 0.000000 
#    y 0.000000 1.699850 0.000000 
#    z 0.000000 0.000000 1.757230 
# 
# From -- ./inp_files/26137.got.cif
#   From: 2010.05.17/outbox.cif.g08.bks.cpg/sg74_14_cif.got.tgz:26137.got - 2010.06.03 17:57:02.
