data_PCOD9538790
_publ_section_title
;
Structure prediction by ZEFSAII (Michael W. Deem and Ramdas Pophale) SiO2 
 PCOD9538790
Probable space group: I M M A
;
_chemical_formula_sum "Si O2"
_cell_formula_units_Z 112
_cell_length_a 22.604257
_cell_length_b 20.149519
_cell_length_c 14.896838
_cell_angle_alpha 90.000000
_cell_angle_beta 90.000000
_cell_angle_gamma 90.000000
_cell_volume 6784.986918
_symmetry_space_group_name_H-M "I M M A"
_symmetry_group_IT_number 74
_symmetry_cell_setting 'orthorhombic'
loop_
_space_group_symop_operation_xyz
x,y,z
-x,1/2-y,z
x,-y,-z
-x,1/2+y,-z
-x,-y,-z
x,1/2+y,-z
-x,y,z
x,1/2-y,z
1/2+x,1/2+y,1/2+z
1/2-x,-y,1/2+z
1/2+x,1/2-y,1/2-z
1/2-x,y,1/2-z
1/2-x,1/2-y,1/2-z
1/2+x,y,1/2-z
1/2-x,1/2+y,1/2+z
1/2+x,-y,1/2+z
loop_
_atom_site_type_symbol
_atom_site_label
_atom_site_fract_x
_atom_site_fract_y
_atom_site_fract_z
Si Si1 0.436027 0.845030 0.692888
Si Si2 0.141374 0.957207 0.588142
Si Si3 0.112854 0.986705 0.787275
Si Si4 0.731977 0.586283 0.651373
Si Si5 0.847626 0.175884 0.039602
Si Si6 0.068857 0.324225 0.404058
Si Si7 0.569958 0.568339 0.442802
O O1 0.500000 0.825773 0.658131
O O2 0.429522 0.924482 0.691104
O O3 0.385267 0.818415 0.630876
O O4 0.430117 0.823780 0.795423
O O5 0.115270 0.989594 0.679562
O O6 0.210476 0.948644 0.611492
O O7 0.111231 0.885249 0.572496
O O8 0.132293 0.000000 0.500000
O O9 0.177209 0.963138 0.825474
O O10 0.089055 0.048983 0.841927
O O11 0.750000 0.615247 0.750000
O O12 0.710243 0.638580 0.576940
O O13 0.837970 0.250000 0.002718
O O14 0.887489 0.126450 0.979300
O O15 0.085623 0.250000 0.435385
O O16 0.000000 0.336554 0.429589
O O17 0.579618 0.500000 0.500000
O O18 0.500000 0.584635 0.449203
#
# Coordination Sequence:
#
# PCOD9538790 Si02
#       7
#    16  16  16  16  16  16  16
#     4   9  15  26  46  71 101 134 168 202 249 311
#     4  10  21  34  56  81 101 132 177 226 267 314
#     4   9  18  33  50  75 104 137 175 219 262 313
#     4   9  19  33  50  74 106 141 177 217 272 323
#     4  11  22  31  46  75 110 144 179 223 262 311
#     4   9  18  32  49  71 103 136 161 200 261 323
#     4  11  20  32  54  76 102 144 184 218 262 320
#
# _framework density 16.507033
#
# number of rings (size 3 to 8) (size 9 to 14) (size 15 to 20)
#    0.000    2.286    2.857    2.143    2.000    3.429 
#    0.000    0.000    0.000    0.857    0.000    1.000 
#    0.000    0.000    0.000    0.000    0.000    0.000 
#
# Total GULP energy -311874.003444 kJ/mol
# GULP energy per Si atom -5569.178633 kJ/mol
# Density = 1.646946 g / cm^3
# Si number density = 16.507033 Si / 1000 Ang^3
#
#
#
# Elastic Constant Matrix: (Units=GPa)
#
#
# Indices 1 2 3 4 5 6 
#
# 1 49.5634 19.9934 20.3813 0.0000 0.0000 0.0000
# 2 19.9934 82.1999 48.1079 0.0000 0.0000 0.0000
# 3 20.3813 48.1079 70.2923 0.0000 0.0000 0.0000
# 4 0.0000 0.0000 0.0000 11.7831 0.0000 0.0000
# 5 0.0000 0.0000 0.0000 0.0000 16.7088 0.0000
# 6 0.0000 0.0000 0.0000 0.0000 0.0000 46.2609
#
#
#
# Elastic Compliance Matrix: (Units=1/GPa)
#
#
# Indices 1 2 3 4 5 6 
#
# 1 0.023303 -0.002859 -0.004800 0.000000 0.000000 0.000000
# 2 -0.002859 0.020645 -0.013301 0.000000 0.000000 0.000000
# 3 -0.004800 -0.013301 0.024721 0.000000 0.000000 0.000000
# 4 0.000000 0.000000 0.000000 0.084868 0.000000 0.000000
# 5 0.000000 0.000000 0.000000 0.000000 0.059849 0.000000
# 6 0.000000 0.000000 0.000000 0.000000 0.000000 0.021617
#
#
# Mechanical properties :
#
#
# Convention : Reuss Voigt Hill
#
# Bulk Modulus (GPa) = 37.38275 42.11341 39.74808
# Shear Modulus (GPa) = 17.49244 22.52208 20.00726
#
# Velocity S-wave (km/s) = 3.25883 3.69778 3.48522
# Velocity P-wave (km/s) = 6.07089 6.61810 6.35039
#
# Compressibility (1/GPa) = 0.02675031
#
# Stress axis : x y z
#
# Youngs Moduli (GPa) = 42.91236 48.43798 40.45141
#
# Poissons Ratio (x) = 0.13847 0.19418
# Poissons Ratio (y) = 0.12267 0.53802
# Poissons Ratio (z) = 0.20600 0.64425
#
# Static dielectric constant tensor:
#      x y z
#    x 1.571950 0.000000 0.000000 
#    y 0.000000 1.594090 0.000000 
#    z 0.000000 0.000000 1.558200 
# 
# From -- ./inp_files/25548.got.cif
#   From: 2010.05.17/outbox.cif.g08.bks.cpg/sg74_13_cif.got.tgz:25548.got - 2010.06.03 17:57:02.
