data_PCOD9538168
_publ_section_title
;
Structure prediction by ZEFSAII (Michael W. Deem and Ramdas Pophale) SiO2 
 PCOD9538168
Probable space group: I M M A
;
_chemical_formula_sum "Si O2"
_cell_formula_units_Z 104
_cell_length_a 26.351985
_cell_length_b 8.218213
_cell_length_c 20.611009
_cell_angle_alpha 90.000000
_cell_angle_beta 90.000000
_cell_angle_gamma 90.000000
_cell_volume 4463.648427
_symmetry_space_group_name_H-M "I M M A"
_symmetry_group_IT_number 74
_symmetry_cell_setting 'orthorhombic'
loop_
_space_group_symop_operation_xyz
x,y,z
-x,1/2-y,z
x,-y,-z
-x,1/2+y,-z
-x,-y,-z
x,1/2+y,-z
-x,y,z
x,1/2-y,z
1/2+x,1/2+y,1/2+z
1/2-x,-y,1/2+z
1/2+x,1/2-y,1/2-z
1/2-x,y,1/2-z
1/2-x,1/2-y,1/2-z
1/2+x,y,1/2-z
1/2-x,1/2+y,1/2+z
1/2+x,-y,1/2+z
loop_
_atom_site_type_symbol
_atom_site_label
_atom_site_fract_x
_atom_site_fract_y
_atom_site_fract_z
Si Si1 0.314243 0.066443 0.902955
Si Si2 0.212140 0.438997 0.128140
Si Si3 0.000000 0.554204 0.075402
Si Si4 0.080562 0.063746 0.430386
Si Si5 0.107798 0.945825 0.074227
Si Si6 0.666075 0.056274 0.238447
Si Si7 0.556773 0.942509 0.212715
O O1 0.326640 0.250000 0.921855
O O2 0.255382 0.027222 0.913371
O O3 0.357915 0.951667 0.930886
O O4 0.319245 0.040940 0.825668
O O5 0.226582 0.250000 0.130143
O O6 0.156774 0.463539 0.099272
O O7 0.201392 0.494951 0.201817
O O8 0.946284 0.504919 0.105465
O O9 0.000000 0.750000 0.074980
O O10 0.000000 0.500000 0.000000
O O11 0.065812 0.250000 0.421947
O O12 0.062243 0.000000 0.500000
O O13 0.063298 0.969938 0.365430
O O14 0.114251 0.750000 0.080122
O O15 0.103603 0.000000 0.000000
O O16 0.672955 0.250000 0.228487
O O17 0.605700 0.024272 0.246155
O O18 0.500000 0.999723 0.230588
O O19 0.559716 0.750000 0.225818
#
# Coordination Sequence:
#
# PCOD9538168 Si02
#       7
#    16  16   8  16  16  16  16
#     4  11  22  37  59  84 112 147 187 232 283 337
#     4  11  23  38  56  83 114 147 189 232 278 335
#     4   8  16  32  54  76 100 134 172 212 259 316
#     4  11  22  38  60  86 118 154 193 237 284 341
#     4  10  20  36  57  81 110 143 181 225 277 330
#     4  10  21  38  59  82 112 149 189 233 281 336
#     4  10  21  38  60  86 117 153 193 239 289 340
#
# _framework density 23.299325
#
# number of rings (size 3 to 8) (size 9 to 14) (size 15 to 20)
#    0.000    1.692    0.000    6.923    0.000    7.077 
#    1.385    3.077    0.000    0.000    0.000    0.000 
#    0.000    0.000    0.000    0.000    0.000    0.000 
#
# Total GULP energy -290585.386443 kJ/mol
# GULP energy per Si atom -5588.180509 kJ/mol
# Density = 2.324630 g / cm^3
# Si number density = 23.299325 Si / 1000 Ang^3
#
#
#
# Elastic Constant Matrix: (Units=GPa)
#
#
# Indices 1 2 3 4 5 6 
#
# 1 143.5193 1.8421 -0.0695 0.0000 0.0000 0.0000
# 2 1.8421 50.1142 -7.1327 0.0000 0.0000 0.0000
# 3 -0.0695 -7.1327 34.0783 0.0000 0.0000 0.0000
# 4 0.0000 0.0000 0.0000 17.4244 0.0000 0.0000
# 5 0.0000 0.0000 0.0000 0.0000 15.7373 0.0000
# 6 0.0000 0.0000 0.0000 0.0000 0.0000 -146.6091
#
#
#
# Elastic Compliance Matrix: (Units=1/GPa)
#
#
# Indices 1 2 3 4 5 6 
#
# 1 0.006971 -0.000262 -0.000041 0.000000 0.000000 0.000000
# 2 -0.000262 0.020577 0.004306 0.000000 0.000000 0.000000
# 3 -0.000041 0.004306 0.030245 0.000000 0.000000 0.000000
# 4 0.000000 0.000000 0.000000 0.057391 0.000000 0.000000
# 5 0.000000 0.000000 0.000000 0.000000 0.063543 0.000000
# 6 0.000000 0.000000 0.000000 0.000000 0.000000 -0.006821
#
#
# Mechanical properties :
#
#
# Convention : Reuss Voigt Hill
#
# Bulk Modulus (GPa) = 15.19741 24.11018 19.65380
# Shear Modulus (GPa) = 26.90590 -7.15135 9.87727
#
# Velocity S-wave (km/s) = 3.40191 -1.75385 2.06119
# Velocity P-wave (km/s) = 4.68695 2.50383 3.75744
#
# Compressibility (1/GPa) = 0.06580069
#
# Stress axis : x y z
#
# Youngs Moduli (GPa) = 143.45044 48.59806 33.06287
#
# Poissons Ratio (x) = 0.01273 0.00134
# Poissons Ratio (y) = 0.03759 -0.14238
# Poissons Ratio (z) = 0.00583 -0.20928
#
# Static dielectric constant tensor:
#      x y z
#    x 1.964300 0.000000 0.000000 
#    y 0.000000 1.812970 0.000000 
#    z 0.000000 0.000000 2.075430 
# 
# From -- ./inp_files/62361.got.cif
#   From: 2010.05.17/outbox.cif.g08.bks.cpg/sg74_32_cif.got.tgz:62361.got - 2010.06.03 17:57:02.
