data_PCOD9538211
_publ_section_title
;
Structure prediction by ZEFSAII (Michael W. Deem and Ramdas Pophale) SiO2 
 PCOD9538211
Probable space group: I M M A
;
_chemical_formula_sum "Si O2"
_cell_formula_units_Z 96
_cell_length_a 15.085115
_cell_length_b 14.482653
_cell_length_c 21.960884
_cell_angle_alpha 90.000000
_cell_angle_beta 90.000000
_cell_angle_gamma 90.000000
_cell_volume 4797.848922
_symmetry_space_group_name_H-M "I M M A"
_symmetry_group_IT_number 74
_symmetry_cell_setting 'orthorhombic'
loop_
_space_group_symop_operation_xyz
x,y,z
-x,1/2-y,z
x,-y,-z
-x,1/2+y,-z
-x,-y,-z
x,1/2+y,-z
-x,y,z
x,1/2-y,z
1/2+x,1/2+y,1/2+z
1/2-x,-y,1/2+z
1/2+x,1/2-y,1/2-z
1/2-x,y,1/2-z
1/2-x,1/2-y,1/2-z
1/2+x,y,1/2-z
1/2-x,1/2+y,1/2+z
1/2+x,-y,1/2+z
loop_
_atom_site_type_symbol
_atom_site_label
_atom_site_fract_x
_atom_site_fract_y
_atom_site_fract_z
Si Si1 0.142675 0.953410 0.752467
Si Si2 0.102498 0.524254 0.886727
Si Si3 0.843889 0.148915 0.714135
Si Si4 0.240713 0.139782 0.043235
Si Si5 0.902799 0.860975 0.627435
Si Si6 0.233673 0.142576 0.902175
O O1 0.250000 0.953147 0.750000
O O2 0.112978 0.928771 0.820243
O O3 0.110680 0.890840 0.697141
O O4 0.110078 0.057934 0.739152
O O5 0.152897 0.587065 0.935743
O O6 0.156625 0.428203 0.883981
O O7 0.000000 0.510426 0.900934
O O8 0.886318 0.250000 0.720254
O O9 0.750000 0.153996 0.750000
O O10 0.815188 0.131606 0.644328
O O11 0.230204 0.250000 0.052084
O O12 0.321429 0.105945 0.085808
O O13 0.258580 0.124407 0.972060
O O14 0.901733 0.750000 0.624065
O O15 0.000000 0.893349 0.606696
O O16 0.205255 0.250000 0.896797
#
# Coordination Sequence:
#
# PCOD9538211 Si02
#       6
#    16  16  16  16  16  16
#     4  11  19  35  59  86 113 152 187 237 285 341
#     4  12  24  37  56  84 117 155 195 235 281 335
#     4   9  16  31  59  85 106 142 186 228 284 339
#     4  10  22  39  59  84 115 152 192 235 283 339
#     4  10  21  38  61  87 115 149 190 238 291 344
#     4  10  20  36  58  85 113 147 191 235 279 337
#
# _framework density 20.008966999999998
#
# number of rings (size 3 to 8) (size 9 to 14) (size 15 to 20)
#    0.000    1.667    5.000    1.000    0.000    3.000 
#    0.000    1.667    0.000   10.500    0.000    7.000 
#    0.000    0.000    0.000    0.000    0.000    0.000 
#
# Total GULP energy -267998.679164 kJ/mol
# GULP energy per Si atom -5583.305816 kJ/mol
# Density = 1.996343 g / cm^3
# Si number density = 20.008967 Si / 1000 Ang^3
#
#
#
# Elastic Constant Matrix: (Units=GPa)
#
#
# Indices 1 2 3 4 5 6 
#
# 1 52.4708 3.2418 -12.5219 0.0000 0.0000 0.0000
# 2 3.2418 18.7647 3.1151 0.0000 0.0000 0.0000
# 3 -12.5219 3.1151 96.6209 0.0000 0.0000 0.0000
# 4 0.0000 0.0000 0.0000 33.0975 0.0000 0.0000
# 5 0.0000 0.0000 0.0000 0.0000 2.7464 0.0000
# 6 0.0000 0.0000 0.0000 0.0000 0.0000 2.3187
#
#
#
# Elastic Compliance Matrix: (Units=1/GPa)
#
#
# Indices 1 2 3 4 5 6 
#
# 1 0.019946 -0.003896 0.002711 0.000000 0.000000 0.000000
# 2 -0.003896 0.054339 -0.002257 0.000000 0.000000 0.000000
# 3 0.002711 -0.002257 0.010774 0.000000 0.000000 0.000000
# 4 0.000000 0.000000 0.000000 0.030214 0.000000 0.000000
# 5 0.000000 0.000000 0.000000 0.000000 0.364115 0.000000
# 6 0.000000 0.000000 0.000000 0.000000 0.000000 0.431268
#
#
# Mechanical properties :
#
#
# Convention : Reuss Voigt Hill
#
# Bulk Modulus (GPa) = 12.79189 17.28071 15.03630
# Shear Modulus (GPa) = 5.29886 19.23395 12.26641
#
# Velocity S-wave (km/s) = 1.62911 3.10379 2.47866
# Velocity P-wave (km/s) = 3.15367 4.63680 3.96520
#
# Compressibility (1/GPa) = 0.07817456
#
# Stress axis : x y z
#
# Youngs Moduli (GPa) = 50.13594 18.40290 92.81794
#
# Poissons Ratio (x) = 0.07169 -0.25159
# Poissons Ratio (y) = 0.19532 0.20948
# Poissons Ratio (z) = -0.13590 0.04153
#
# Static dielectric constant tensor:
#      x y z
#    x 1.706390 0.000000 0.000000 
#    y 0.000000 1.731610 0.000000 
#    z 0.000000 0.000000 1.706060 
# 
# From -- ./inp_files/51847.got.cif
#   From: 2010.05.17/outbox.cif.g08.bks.cpg/sg74_26_cif.got.tgz:51847.got - 2010.06.03 17:57:02.
