data_PCOD9538839
_publ_section_title
;
Structure prediction by ZEFSAII (Michael W. Deem and Ramdas Pophale) SiO2 
 PCOD9538839
Probable space group: I M M A
;
_chemical_formula_sum "Si O2"
_cell_formula_units_Z 96
_cell_length_a 15.500466
_cell_length_b 13.699865
_cell_length_c 21.824090
_cell_angle_alpha 90.000000
_cell_angle_beta 90.000000
_cell_angle_gamma 90.000000
_cell_volume 4634.439173
_symmetry_space_group_name_H-M "I M M A"
_symmetry_group_IT_number 74
_symmetry_cell_setting 'orthorhombic'
loop_
_space_group_symop_operation_xyz
x,y,z
-x,1/2-y,z
x,-y,-z
-x,1/2+y,-z
-x,-y,-z
x,1/2+y,-z
-x,y,z
x,1/2-y,z
1/2+x,1/2+y,1/2+z
1/2-x,-y,1/2+z
1/2+x,1/2-y,1/2-z
1/2-x,y,1/2-z
1/2-x,1/2-y,1/2-z
1/2+x,y,1/2-z
1/2-x,1/2+y,1/2+z
1/2+x,-y,1/2+z
loop_
_atom_site_type_symbol
_atom_site_label
_atom_site_fract_x
_atom_site_fract_y
_atom_site_fract_z
Si Si1 0.402725 0.865973 0.957961
Si Si2 0.730732 0.134492 0.650855
Si Si3 0.401212 0.868022 0.595981
Si Si4 0.405815 0.016754 0.847441
Si Si5 0.659488 0.039681 0.277297
Si Si6 0.722581 0.366913 0.513817
O O1 0.500000 0.882374 0.982673
O O2 0.396300 0.750000 0.943369
O O3 0.392300 0.932638 0.898042
O O4 0.323206 0.890756 0.002203
O O5 0.727209 0.250000 0.661397
O O6 0.828467 0.094020 0.651136
O O7 0.695995 0.109860 0.582864
O O8 0.678804 0.070396 0.699367
O O9 0.500000 0.899413 0.584787
O O10 0.399584 0.750000 0.595947
O O11 0.371214 0.903434 0.662858
O O12 0.337136 0.902323 0.541758
O O13 0.500000 0.061110 0.857804
O O14 0.402309 0.966596 0.780681
O O15 0.750000 0.078933 0.250000
O O16 0.718408 0.250000 0.510953
#
# Coordination Sequence:
#
# PCOD9538839 Si02
#       6
#    16  16  16  16  16  16
#     4   9  18  33  55  85 119 149 175 211 266 332
#     4  10  22  39  57  76 103 143 187 233 281 319
#     4  10  21  37  58  85 116 146 176 218 274 333
#     4  10  21  35  53  81 112 141 180 226 269 324
#     4  10  21  36  56  80 108 142 185 229 268 322
#     4   9  18  35  57  80 109 144 183 225 271 325
#
# _framework density 20.714479999999998
#
# number of rings (size 3 to 8) (size 9 to 14) (size 15 to 20)
#    0.000    2.333    0.000    2.500    0.000    7.667 
#    0.000    7.500    0.000    3.500    0.000    0.000 
#    0.000    0.000    0.000    0.000    0.000    0.000 
#
# Total GULP energy -267998.371700 kJ/mol
# GULP energy per Si atom -5583.299410 kJ/mol
# Density = 2.066733 g / cm^3
# Si number density = 20.714480 Si / 1000 Ang^3
#
#
#
# Elastic Constant Matrix: (Units=GPa)
#
#
# Indices 1 2 3 4 5 6 
#
# 1 69.6046 2.0501 19.7950 0.0000 0.0000 0.0000
# 2 2.0501 61.0279 -6.6660 0.0000 0.0000 0.0000
# 3 19.7950 -6.6660 105.5851 0.0000 0.0000 0.0000
# 4 0.0000 0.0000 0.0000 31.0934 0.0000 0.0000
# 5 0.0000 0.0000 0.0000 0.0000 -34.9924 0.0000
# 6 0.0000 0.0000 0.0000 0.0000 0.0000 -5.9113
#
#
#
# Elastic Compliance Matrix: (Units=1/GPa)
#
#
# Indices 1 2 3 4 5 6 
#
# 1 0.015218 -0.000829 -0.002905 0.000000 0.000000 0.000000
# 2 -0.000829 0.016545 0.001200 0.000000 0.000000 0.000000
# 3 -0.002905 0.001200 0.010091 0.000000 0.000000 0.000000
# 4 0.000000 0.000000 0.000000 0.032161 0.000000 0.000000
# 5 0.000000 0.000000 0.000000 0.000000 -0.028578 0.000000
# 6 0.000000 0.000000 0.000000 0.000000 0.000000 -0.169168
#
#
# Mechanical properties :
#
#
# Convention : Reuss Voigt Hill
#
# Bulk Modulus (GPa) = 27.18431 29.61955 28.40193
# Shear Modulus (GPa) = -46.99200 12.77385 -17.10908
#
# Velocity S-wave (km/s) = -4.76811 2.48596 -2.87705
# Velocity P-wave (km/s) = 4.14262 4.75079 1.64450
#
# Compressibility (1/GPa) = 0.03678593
#
# Stress axis : x y z
#
# Youngs Moduli (GPa) = 65.71379 60.44177 99.09367
#
# Poissons Ratio (x) = 0.05008 0.28789
# Poissons Ratio (y) = 0.05445 -0.11890
# Poissons Ratio (z) = 0.19092 -0.07252
#
# Static dielectric constant tensor:
#      x y z
#    x 1.762510 0.000000 0.000000 
#    y 0.000000 1.732670 0.000000 
#    z 0.000000 0.000000 1.727030 
# 
# From -- ./inp_files/51838.got.cif
#   From: 2010.05.17/outbox.cif.g08.bks.cpg/sg74_26_cif.got.tgz:51838.got - 2010.06.03 17:57:02.
