data_PCOD9538212
_publ_section_title
;
Structure prediction by ZEFSAII (Michael W. Deem and Ramdas Pophale) SiO2 
 PCOD9538212
Probable space group: I M M A
;
_chemical_formula_sum "Si O2"
_cell_formula_units_Z 112
_cell_length_a 17.506110
_cell_length_b 28.172661
_cell_length_c 12.395451
_cell_angle_alpha 90.000000
_cell_angle_beta 90.000000
_cell_angle_gamma 90.000000
_cell_volume 6113.358372
_symmetry_space_group_name_H-M "I M M A"
_symmetry_group_IT_number 74
_symmetry_cell_setting 'orthorhombic'
loop_
_space_group_symop_operation_xyz
x,y,z
-x,1/2-y,z
x,-y,-z
-x,1/2+y,-z
-x,-y,-z
x,1/2+y,-z
-x,y,z
x,1/2-y,z
1/2+x,1/2+y,1/2+z
1/2-x,-y,1/2+z
1/2+x,1/2-y,1/2-z
1/2-x,y,1/2-z
1/2-x,1/2-y,1/2-z
1/2+x,y,1/2-z
1/2-x,1/2+y,1/2+z
1/2+x,-y,1/2+z
loop_
_atom_site_type_symbol
_atom_site_label
_atom_site_fract_x
_atom_site_fract_y
_atom_site_fract_z
Si Si1 0.912815 0.805667 0.501033
Si Si2 0.256031 0.194274 0.877681
Si Si3 0.910209 0.459258 0.774529
Si Si4 0.591871 0.061414 0.358562
Si Si5 0.089340 0.397675 0.373889
Si Si6 0.683503 0.952065 0.057163
Si Si7 0.833304 0.606414 0.068424
O O1 0.908259 0.750000 0.529926
O O2 0.842265 0.815753 0.420325
O O3 0.903592 0.841733 0.600746
O O4 0.000000 0.813880 0.458097
O O5 0.241699 0.250000 0.896959
O O6 0.250000 0.185274 0.750000
O O7 0.192724 0.160890 0.932546
O O8 0.889717 0.505420 0.847041
O O9 0.866780 0.462601 0.661829
O O10 0.889668 0.411239 0.837768
O O11 0.000000 0.462005 0.754153
O O12 0.500000 0.065344 0.373283
O O13 0.613350 0.085876 0.244804
O O14 0.633492 0.087262 0.456287
O O15 0.135351 0.424071 0.467260
O O16 0.000000 0.410616 0.383856
O O17 0.754883 0.921110 0.092244
O O18 0.710092 0.000000 0.000000
#
# Coordination Sequence:
#
# PCOD9538212 Si02
#       7
#    16  16  16  16  16  16  16
#     4   9  18  36  62  89 114 146 193 242 289 344
#     4  10  21  40  61  84 118 153 188 239 301 353
#     4  11  23  39  60  82 113 158 202 240 283 344
#     4  10  22  41  60  80 115 163 201 233 282 349
#     4  10  20  36  58  85 116 152 192 238 289 338
#     4  12  22  35  56  87 120 148 186 242 295 344
#     4  12  24  38  57  86 118 151 195 238 290 351
#
# _framework density 18.320536000000001
#
# number of rings (size 3 to 8) (size 9 to 14) (size 15 to 20)
#    0.000    1.429    2.857    3.429    0.000    2.286 
#    0.000    1.429    0.000    5.143    0.000    0.000 
#    0.000    0.000    0.000    0.000    0.000    0.000 
#
# Total GULP energy -312658.425110 kJ/mol
# GULP energy per Si atom -5583.186163 kJ/mol
# Density = 1.827884 g / cm^3
# Si number density = 18.320536 Si / 1000 Ang^3
#
#
#
# Elastic Constant Matrix: (Units=GPa)
#
#
# Indices 1 2 3 4 5 6 
#
# 1 55.5703 30.3376 30.9876 0.0000 0.0000 0.0000
# 2 30.3376 75.0674 24.0603 0.0000 0.0000 0.0000
# 3 30.9876 24.0603 59.5578 -0.0005 0.0002 0.0000
# 4 0.0000 0.0000 -0.0005 22.9794 0.0001 0.0000
# 5 0.0000 0.0000 0.0002 0.0001 33.4796 0.0000
# 6 0.0000 0.0000 0.0000 0.0000 0.0000 32.6623
#
#
#
# Elastic Compliance Matrix: (Units=1/GPa)
#
#
# Indices 1 2 3 4 5 6 
#
# 1 0.028911 -0.007884 -0.011857 0.000000 0.000000 0.000000
# 2 -0.007884 0.017453 -0.002949 0.000000 0.000000 0.000000
# 3 -0.011857 -0.002949 0.024151 0.000000 0.000000 0.000000
# 4 0.000000 0.000000 0.000000 0.043517 0.000000 0.000000
# 5 0.000000 0.000000 0.000000 0.000000 0.029869 0.000000
# 6 0.000000 0.000000 0.000000 0.000000 0.000000 0.030616
#
#
# Mechanical properties :
#
#
# Convention : Reuss Voigt Hill
#
# Bulk Modulus (GPa) = 39.78494 40.10736 39.94615
# Shear Modulus (GPa) = 21.90339 24.81160 23.35749
#
# Velocity S-wave (km/s) = 3.46145 3.68408 3.57450
# Velocity P-wave (km/s) = 6.14318 6.32741 6.23598
#
# Compressibility (1/GPa) = 0.02513514
#
# Stress axis : x y z
#
# Youngs Moduli (GPa) = 34.58869 57.29827 41.40616
#
# Poissons Ratio (x) = 0.45172 0.49097
# Poissons Ratio (y) = 0.27268 0.12210
# Poissons Ratio (z) = 0.41013 0.16896
#
# Static dielectric constant tensor:
#      x y z
#    x 1.638490 0.000000 0.000000 
#    y 0.000000 1.659130 0.000000 
#    z 0.000000 0.000000 1.603960 
# 
# From -- ./inp_files/21190.got.cif
#   From: 2010.05.17/outbox.cif.g08.bks.cpg/sg74_11_cif.got.tgz:21190.got - 2010.06.03 17:57:02.
