data_PCOD9538324
_publ_section_title
;
Structure prediction by ZEFSAII (Michael W. Deem and Ramdas Pophale) SiO2 
 PCOD9538324
Probable space group: I M M A
;
_chemical_formula_sum "Si O2"
_cell_formula_units_Z 96
_cell_length_a 16.092010
_cell_length_b 14.757879
_cell_length_c 19.059953
_cell_angle_alpha 90.000000
_cell_angle_beta 90.000000
_cell_angle_gamma 90.000000
_cell_volume 4526.432667
_symmetry_space_group_name_H-M "I M M A"
_symmetry_group_IT_number 74
_symmetry_cell_setting 'orthorhombic'
loop_
_space_group_symop_operation_xyz
x,y,z
-x,1/2-y,z
x,-y,-z
-x,1/2+y,-z
-x,-y,-z
x,1/2+y,-z
-x,y,z
x,1/2-y,z
1/2+x,1/2+y,1/2+z
1/2-x,-y,1/2+z
1/2+x,1/2-y,1/2-z
1/2-x,y,1/2-z
1/2-x,1/2-y,1/2-z
1/2+x,y,1/2-z
1/2-x,1/2+y,1/2+z
1/2+x,-y,1/2+z
loop_
_atom_site_type_symbol
_atom_site_label
_atom_site_fract_x
_atom_site_fract_y
_atom_site_fract_z
Si Si1 0.092770 0.088401 0.648430
Si Si2 0.776197 0.652377 0.113912
Si Si3 0.908216 0.038253 0.804901
Si Si4 0.675447 0.643771 0.692499
Si Si5 0.587677 0.420752 0.058701
Si Si6 0.765660 0.103055 0.033695
O O1 0.177211 0.132042 0.619196
O O2 0.000000 0.120177 0.624129
O O3 0.094186 0.092115 0.731828
O O4 0.097696 0.982247 0.627571
O O5 0.791965 0.750000 0.147153
O O6 0.831336 0.576534 0.150922
O O7 0.802120 0.654592 0.032524
O O8 0.892782 0.932180 0.790535
O O9 0.000000 0.051034 0.837006
O O10 0.652074 0.750000 0.696177
O O11 0.750000 0.630925 0.750000
O O12 0.697579 0.620150 0.610684
O O13 0.500000 0.371626 0.059481
O O14 0.670078 0.367170 0.043905
O O15 0.583926 0.500000 0.000000
O O16 0.765472 0.000000 0.000000
#
# Coordination Sequence:
#
# PCOD9538324 Si02
#       6
#    16  16  16  16  16  16
#     4  10  20  36  60  92 126 163 207 252 306 382
#     4  12  24  39  61  90 126 167 214 264 317 375
#     4  11  24  42  64  89 123 169 220 268 317 370
#     4  11  23  41  68  98 128 162 207 261 324 390
#     4   9  15  27  54  85 115 156 197 239 300 374
#     4  11  19  37  63  90 124 165 211 259 316 380
#
# _framework density 21.208753999999999
#
# number of rings (size 3 to 8) (size 9 to 14) (size 15 to 20)
#    0.000    1.333    5.000    3.000    0.000    2.333 
#    0.000    3.333    0.000    4.500    0.000    0.000 
#    0.000    0.000    0.000    0.000    0.000    0.000 
#
# Total GULP energy -267316.220769 kJ/mol
# GULP energy per Si atom -5569.087933 kJ/mol
# Density = 2.116048 g / cm^3
# Si number density = 21.208754 Si / 1000 Ang^3
#
#
#
# Elastic Constant Matrix: (Units=GPa)
#
#
# Indices 1 2 3 4 5 6 
#
# 1 69.4085 25.1835 11.6955 0.0000 0.0000 0.0000
# 2 25.1835 96.4010 4.0456 0.0000 0.0000 0.0000
# 3 11.6955 4.0456 97.2389 0.0000 0.0000 0.0000
# 4 0.0000 0.0000 0.0000 12.7479 0.0000 0.0000
# 5 0.0000 0.0000 0.0000 0.0000 6.4849 0.0000
# 6 0.0000 0.0000 0.0000 0.0000 0.0000 -9.5572
#
#
#
# Elastic Compliance Matrix: (Units=1/GPa)
#
#
# Indices 1 2 3 4 5 6 
#
# 1 0.016217 -0.004162 -0.001777 0.000000 0.000000 0.000000
# 2 -0.004162 0.011460 0.000024 0.000000 0.000000 0.000000
# 3 -0.001777 0.000024 0.010497 0.000000 0.000000 0.000000
# 4 0.000000 0.000000 0.000000 0.078444 0.000000 0.000000
# 5 0.000000 0.000000 0.000000 0.000000 0.154204 0.000000
# 6 0.000000 0.000000 0.000000 0.000000 0.000000 -0.104633
#
#
# Mechanical properties :
#
#
# Convention : Reuss Voigt Hill
#
# Bulk Modulus (GPa) = 37.96159 38.32196 38.14178
# Shear Modulus (GPa) = 26.76655 16.74338 21.75497
#
# Velocity S-wave (km/s) = 3.55639 2.81277 3.20621
# Velocity P-wave (km/s) = 5.89930 5.35323 5.63289
#
# Compressibility (1/GPa) = 0.02634241
#
# Stress axis : x y z
#
# Youngs Moduli (GPa) = 61.66366 87.26327 95.26774
#
# Poissons Ratio (x) = 0.36318 0.16933
# Poissons Ratio (y) = 0.25664 -0.00227
# Poissons Ratio (z) = 0.10960 -0.00208
#
# Static dielectric constant tensor:
#      x y z
#    x 1.777540 0.000000 0.000000 
#    y 0.000000 1.838150 0.000000 
#    z 0.000000 0.000000 1.838300 
# 
# From -- ./inp_files/51883.got.cif
#   From: 2010.05.17/outbox.cif.g08.bks.cpg/sg74_26_cif.got.tgz:51883.got - 2010.06.03 17:57:02.
