data_PCOD9538483
_publ_section_title
;
Structure prediction by ZEFSAII (Michael W. Deem and Ramdas Pophale) SiO2 
 PCOD9538483
Probable space group: I M M A
;
_chemical_formula_sum "Si O2"
_cell_formula_units_Z 92
_cell_length_a 23.760026
_cell_length_b 28.279512
_cell_length_c 7.648628
_cell_angle_alpha 90.000000
_cell_angle_beta 90.000000
_cell_angle_gamma 90.000000
_cell_volume 5139.280967
_symmetry_space_group_name_H-M "I M M A"
_symmetry_group_IT_number 74
_symmetry_cell_setting 'orthorhombic'
loop_
_space_group_symop_operation_xyz
x,y,z
-x,1/2-y,z
x,-y,-z
-x,1/2+y,-z
-x,-y,-z
x,1/2+y,-z
-x,y,z
x,1/2-y,z
1/2+x,1/2+y,1/2+z
1/2-x,-y,1/2+z
1/2+x,1/2-y,1/2-z
1/2-x,y,1/2-z
1/2-x,1/2-y,1/2-z
1/2+x,y,1/2-z
1/2-x,1/2+y,1/2+z
1/2+x,-y,1/2+z
loop_
_atom_site_type_symbol
_atom_site_label
_atom_site_fract_x
_atom_site_fract_y
_atom_site_fract_z
Si Si1 0.250000 0.127032 0.750000
Si Si2 0.434404 0.501455 0.290342
Si Si3 0.000000 0.750000 0.023097
Si Si4 0.625275 0.902255 0.206973
Si Si5 0.721491 0.195371 0.436408
Si Si6 0.934310 0.102451 0.355713
Si Si7 0.407446 0.333285 0.477198
O O1 0.307741 0.098402 0.767661
O O2 0.254292 0.160584 0.581629
O O3 0.428842 0.500000 0.500000
O O4 0.500000 0.510720 0.249160
O O5 0.398267 0.544864 0.222147
O O6 0.420046 0.450591 0.209475
O O7 0.049182 0.708343 0.018053
O O8 0.599220 0.869111 0.358894
O O9 0.604939 0.883913 0.018118
O O10 0.733015 0.250000 0.481353
O O11 0.750000 0.185621 0.250000
O O12 0.654491 0.187045 0.434816
O O13 0.927164 0.137086 0.191562
O O14 0.000000 0.102902 0.410216
#
# Coordination Sequence:
#
# PCOD9538483 Si02
#       7
#     8  16   4  16  16  16  16
#     4  10  23  40  58  86 120 154 206 251 294 354
#     4  10  20  37  63  92 120 156 199 241 297 364
#     4  12  24  40  60  88 132 160 194 258 316 360
#     4  11  23  40  63  88 123 159 203 249 305 360
#     4  10  20  38  63  84 110 156 208 251 296 346
#     4  11  22  37  63  93 122 159 199 248 296 367
#     4  11  23  40  60  88 126 161 200 248 309 361
#
# _framework density 17.901337000000002
#
# number of rings (size 3 to 8) (size 9 to 14) (size 15 to 20)
#    0.000    1.391    3.478    2.348    2.435    1.391 
#    0.000    3.478    1.913    0.000    0.000    0.000 
#    0.000    0.000    0.000    0.000    0.000    0.000 
#
# Total GULP energy -256416.369301 kJ/mol
# GULP energy per Si atom -5574.268898 kJ/mol
# Density = 1.786059 g / cm^3
# Si number density = 17.901337 Si / 1000 Ang^3
#
#
#
# Elastic Constant Matrix: (Units=GPa)
#
#
# Indices 1 2 3 4 5 6 
#
# 1 56.7542 17.1938 20.0061 0.0000 0.0000 0.0000
# 2 17.1938 67.9830 10.8816 0.0000 0.0000 0.0000
# 3 20.0061 10.8816 73.1538 0.0000 0.0000 0.0000
# 4 0.0000 0.0000 0.0000 16.9363 0.0000 0.0000
# 5 0.0000 0.0000 0.0000 0.0000 25.8142 0.0000
# 6 0.0000 0.0000 0.0000 0.0000 0.0000 14.7120
#
#
#
# Elastic Compliance Matrix: (Units=1/GPa)
#
#
# Indices 1 2 3 4 5 6 
#
# 1 0.020731 -0.004441 -0.005009 0.000000 0.000000 0.000000
# 2 -0.004441 0.016020 -0.001168 0.000000 0.000000 0.000000
# 3 -0.005009 -0.001168 0.015213 0.000000 0.000000 0.000000
# 4 0.000000 0.000000 0.000000 0.059045 0.000000 0.000000
# 5 0.000000 0.000000 0.000000 0.000000 0.038738 0.000000
# 6 0.000000 0.000000 0.000000 0.000000 0.000000 0.067972
#
#
# Mechanical properties :
#
#
# Convention : Reuss Voigt Hill
#
# Bulk Modulus (GPa) = 32.54452 32.67267 32.60860
# Shear Modulus (GPa) = 20.06431 21.47980 20.77206
#
# Velocity S-wave (km/s) = 3.35151 3.46771 3.41011
# Velocity P-wave (km/s) = 5.76162 5.85871 5.81037
#
# Compressibility (1/GPa) = 0.03072714
#
# Stress axis : x y z
#
# Youngs Moduli (GPa) = 48.23690 62.42251 65.73138
#
# Poissons Ratio (x) = 0.27724 0.32924
# Poissons Ratio (y) = 0.21424 0.07679
# Poissons Ratio (z) = 0.24161 0.07293
#
# Static dielectric constant tensor:
#      x y z
#    x 1.603060 0.000000 0.000000 
#    y 0.000000 1.583140 0.000000 
#    z 0.000000 0.000000 1.616230 
# 
# From -- ./inp_files/12722.got.cif
#   From: 2010.05.17/outbox.cif.g08.bks.cpg/sg74_7_cif.got.tgz:12722.got - 2010.06.03 17:57:02.
