data_PCOD9538214
_publ_section_title
;
Structure prediction by ZEFSAII (Michael W. Deem and Ramdas Pophale) SiO2 
 PCOD9538214
Probable space group: I M M A
;
_chemical_formula_sum "Si O2"
_cell_formula_units_Z 80
_cell_length_a 19.000401
_cell_length_b 25.634857
_cell_length_c 8.652230
_cell_angle_alpha 90.000000
_cell_angle_beta 90.000000
_cell_angle_gamma 90.000000
_cell_volume 4214.263838
_symmetry_space_group_name_H-M "I M M A"
_symmetry_group_IT_number 74
_symmetry_cell_setting 'orthorhombic'
loop_
_space_group_symop_operation_xyz
x,y,z
-x,1/2-y,z
x,-y,-z
-x,1/2+y,-z
-x,-y,-z
x,1/2+y,-z
-x,y,z
x,1/2-y,z
1/2+x,1/2+y,1/2+z
1/2-x,-y,1/2+z
1/2+x,1/2-y,1/2-z
1/2-x,y,1/2-z
1/2-x,1/2-y,1/2-z
1/2+x,y,1/2-z
1/2-x,1/2+y,1/2+z
1/2+x,-y,1/2+z
loop_
_atom_site_type_symbol
_atom_site_label
_atom_site_fract_x
_atom_site_fract_y
_atom_site_fract_z
Si Si1 0.917948 0.401174 0.756278
Si Si2 0.701670 0.049697 0.898548
Si Si3 0.677271 0.621431 0.821043
Si Si4 0.584215 0.943168 0.581139
Si Si5 0.915874 0.809887 0.476942
O O1 0.876720 0.447356 0.669901
O O2 0.900274 0.347119 0.670537
O O3 0.000000 0.410708 0.737267
O O4 0.903284 0.403455 0.938056
O O5 0.750000 0.055219 0.750000
O O6 0.704545 0.095579 0.020847
O O7 0.718866 0.000000 0.000000
O O8 0.750000 0.641360 0.750000
O O9 0.635710 0.577603 0.717298
O O10 0.622461 0.665162 0.875060
O O11 0.500000 0.942573 0.623323
O O12 0.598052 0.000000 0.500000
O O13 0.895381 0.750000 0.451786
O O14 0.000000 0.812049 0.499719
#
# Coordination Sequence:
#
# PCOD9538214 Si02
#       5
#    16  16  16  16  16
#     4   9  19  35  56  81 108 140 181 229 278 330
#     4  11  22  35  53  77 111 151 189 223 267 327
#     4  11  22  34  54  82 115 150 186 232 282 335
#     4  10  20  36  58  85 118 151 185 227 276 332
#     4   9  19  38  60  79 104 143 191 239 284 331
#
# _framework density 18.983149000000001
#
# number of rings (size 3 to 8) (size 9 to 14) (size 15 to 20)
#    0.000    2.000    0.000    3.600    0.000    3.200 
#    0.000    1.000    0.000   24.000    0.000    0.000 
#    0.000    0.000    0.000    0.000    0.000    0.000 
#
# Total GULP energy -222920.552714 kJ/mol
# GULP energy per Si atom -5573.013818 kJ/mol
# Density = 1.893994 g / cm^3
# Si number density = 18.983149 Si / 1000 Ang^3
#
#
#
# Elastic Constant Matrix: (Units=GPa)
#
#
# Indices 1 2 3 4 5 6 
#
# 1 57.3551 52.4632 56.1155 0.0000 0.0000 0.0000
# 2 52.4632 80.4481 47.9698 0.0000 0.0000 0.0000
# 3 56.1155 47.9698 120.5532 0.0000 0.0000 0.0000
# 4 0.0000 0.0000 0.0000 13.2754 0.0000 0.0000
# 5 0.0000 0.0000 0.0000 0.0000 24.5419 0.0000
# 6 0.0000 0.0000 0.0000 0.0000 0.0000 9.0903
#
#
#
# Elastic Compliance Matrix: (Units=1/GPa)
#
#
# Indices 1 2 3 4 5 6 
#
# 1 0.060844 -0.029881 -0.016432 0.000000 0.000000 0.000000
# 2 -0.029881 0.030972 0.001585 0.000000 0.000000 0.000000
# 3 -0.016432 0.001585 0.015313 0.000000 0.000000 0.000000
# 4 0.000000 0.000000 0.000000 0.075327 0.000000 0.000000
# 5 0.000000 0.000000 0.000000 0.000000 0.040747 0.000000
# 6 0.000000 0.000000 0.000000 0.000000 0.000000 0.110008
#
#
# Mechanical properties :
#
#
# Convention : Reuss Voigt Hill
#
# Bulk Modulus (GPa) = 56.58175 63.49482 60.03829
# Shear Modulus (GPa) = 11.66707 16.16872 13.91789
#
# Velocity S-wave (km/s) = 2.48180 2.92163 2.71065
# Velocity P-wave (km/s) = 6.17118 6.70088 6.44148
#
# Compressibility (1/GPa) = 0.01767354
#
# Stress axis : x y z
#
# Youngs Moduli (GPa) = 16.43545 32.28774 65.30275
#
# Poissons Ratio (x) = 0.96477 1.07306
# Poissons Ratio (y) = 0.49110 -0.10350
# Poissons Ratio (z) = 0.27007 -0.05117
#
# Static dielectric constant tensor:
#      x y z
#    x 1.710740 0.000000 0.000000 
#    y 0.000000 1.684960 0.000000 
#    z 0.000000 0.000000 1.694940 
# 
# From -- ./inp_files/10927.got.cif
#   From: 2010.05.17/outbox.cif.g08.bks.cpg/sg74_6_cif.got.tgz:10927.got - 2010.06.03 17:57:02.
