data_PCOD9538978
_publ_section_title
;
Structure prediction by ZEFSAII (Michael W. Deem and Ramdas Pophale) SiO2 
 PCOD9538978
Probable space group: I M M A
;
_chemical_formula_sum "Si O2"
_cell_formula_units_Z 72
_cell_length_a 14.157209
_cell_length_b 11.500571
_cell_length_c 23.200357
_cell_angle_alpha 90.000000
_cell_angle_beta 90.000000
_cell_angle_gamma 90.000000
_cell_volume 3777.389030
_symmetry_space_group_name_H-M "I M M A"
_symmetry_group_IT_number 74
_symmetry_cell_setting 'orthorhombic'
loop_
_space_group_symop_operation_xyz
x,y,z
-x,1/2-y,z
x,-y,-z
-x,1/2+y,-z
-x,-y,-z
x,1/2+y,-z
-x,y,z
x,1/2-y,z
1/2+x,1/2+y,1/2+z
1/2-x,-y,1/2+z
1/2+x,1/2-y,1/2-z
1/2-x,y,1/2-z
1/2-x,1/2-y,1/2-z
1/2+x,y,1/2-z
1/2-x,1/2+y,1/2+z
1/2+x,-y,1/2+z
loop_
_atom_site_type_symbol
_atom_site_label
_atom_site_fract_x
_atom_site_fract_y
_atom_site_fract_z
Si Si1 0.184930 0.117960 0.460455
Si Si2 0.107473 0.388027 0.332489
Si Si3 0.896450 0.933749 0.939680
Si Si4 0.250000 0.025867 0.750000
Si Si5 0.893377 0.621918 0.160669
O O1 0.156997 0.250000 0.482285
O O2 0.131348 0.095903 0.400114
O O3 0.296170 0.128255 0.444780
O O4 0.173292 0.000000 0.500000
O O5 0.112193 0.250000 0.321513
O O6 0.183213 0.450034 0.291754
O O7 0.000000 0.427377 0.320882
O O8 0.000000 0.876595 0.930841
O O9 0.884833 0.025576 0.888233
O O10 0.903600 0.000000 0.000000
O O11 0.182239 0.100992 0.790255
O O12 0.881588 0.750000 0.134377
O O13 0.000000 0.614547 0.184282
#
# Coordination Sequence:
#
# PCOD9538978 Si02
#       5
#    16  16  16   8  16
#     4  10  21  39  61  90 121 155 198 246 303 363
#     4  10  22  40  61  85 117 155 197 250 304 355
#     4   9  18  34  55  82 114 152 193 237 292 356
#     4  12  20  38  60  84 114 154 208 248 290 352
#     4  10  21  36  56  85 121 159 197 243 299 354
#
# _framework density 19.060784000000002
#
# number of rings (size 3 to 8) (size 9 to 14) (size 15 to 20)
#    0.000    2.000    2.222    1.333    0.000    4.444 
#    0.000    4.444    0.000    2.667    0.000    0.000 
#    0.000    0.000    0.000    0.000    0.000    0.000 
#
# Total GULP energy -200475.243455 kJ/mol
# GULP energy per Si atom -5568.756763 kJ/mol
# Density = 1.901740 g / cm^3
# Si number density = 19.060784 Si / 1000 Ang^3
#
#
#
# Elastic Constant Matrix: (Units=GPa)
#
#
# Indices 1 2 3 4 5 6 
#
# 1 84.6011 27.4585 29.4682 0.0000 0.0000 0.0000
# 2 27.4585 108.9359 40.1123 0.0000 0.0000 0.0000
# 3 29.4682 40.1123 66.5305 0.0000 0.0000 0.0000
# 4 0.0000 0.0000 0.0000 5.8240 0.0000 0.0000
# 5 0.0000 0.0000 0.0000 0.0000 43.2908 0.0000
# 6 0.0000 0.0000 0.0000 0.0000 0.0000 18.5097
#
#
#
# Elastic Compliance Matrix: (Units=1/GPa)
#
#
# Indices 1 2 3 4 5 6 
#
# 1 0.014196 -0.001623 -0.005309 0.000000 0.000000 0.000000
# 2 -0.001623 0.011985 -0.006507 0.000000 0.000000 0.000000
# 3 -0.005309 -0.006507 0.021305 0.000000 0.000000 0.000000
# 4 0.000000 0.000000 0.000000 0.171703 0.000000 0.000000
# 5 0.000000 0.000000 0.000000 0.000000 0.023100 0.000000
# 6 0.000000 0.000000 0.000000 0.000000 0.000000 0.054026
#
#
# Mechanical properties :
#
#
# Convention : Reuss Voigt Hill
#
# Bulk Modulus (GPa) = 48.52540 50.46060 49.49300
# Shear Modulus (GPa) = 15.14863 24.39347 19.77105
#
# Velocity S-wave (km/s) = 2.82220 3.58127 3.22415
# Velocity P-wave (km/s) = 6.01109 6.60543 6.31526
#
# Compressibility (1/GPa) = 0.02060777
#
# Stress axis : x y z
#
# Youngs Moduli (GPa) = 70.44049 83.43882 46.93657
#
# Poissons Ratio (x) = 0.13546 0.24920
# Poissons Ratio (y) = 0.11435 0.30541
# Poissons Ratio (z) = 0.37398 0.54292
#
# Static dielectric constant tensor:
#      x y z
#    x 1.695870 0.000000 0.000000 
#    y 0.000000 1.678440 0.000000 
#    z 0.000000 0.000000 1.606700 
# 
# From -- ./inp_files/59654.got.cif
#   From: 2010.05.17/outbox.cif.g08.bks.cpg/sg74_30_cif.got.tgz:59654.got - 2010.06.03 17:57:02.
