data_PCOD9538011
_publ_section_title
;
Structure prediction by ZEFSAII (Michael W. Deem and Ramdas Pophale) SiO2 
 PCOD9538011
Probable space group: I M M A
;
_chemical_formula_sum "Si O2"
_cell_formula_units_Z 104
_cell_length_a 20.116810
_cell_length_b 13.917299
_cell_length_c 15.966147
_cell_angle_alpha 90.000000
_cell_angle_beta 90.000000
_cell_angle_gamma 90.000000
_cell_volume 4470.068675
_symmetry_space_group_name_H-M "I M M A"
_symmetry_group_IT_number 74
_symmetry_cell_setting 'orthorhombic'
loop_
_space_group_symop_operation_xyz
x,y,z
-x,1/2-y,z
x,-y,-z
-x,1/2+y,-z
-x,-y,-z
x,1/2+y,-z
-x,y,z
x,1/2-y,z
1/2+x,1/2+y,1/2+z
1/2-x,-y,1/2+z
1/2+x,1/2-y,1/2-z
1/2-x,y,1/2-z
1/2-x,1/2-y,1/2-z
1/2+x,y,1/2-z
1/2-x,1/2+y,1/2+z
1/2+x,-y,1/2+z
loop_
_atom_site_type_symbol
_atom_site_label
_atom_site_fract_x
_atom_site_fract_y
_atom_site_fract_z
Si Si1 0.355259 0.136994 0.104938
Si Si2 0.136308 0.366887 0.205247
Si Si3 0.704849 0.632773 0.365380
Si Si4 0.000000 0.038994 0.219461
Si Si5 0.000000 0.573454 0.577037
Si Si6 0.851782 0.634010 0.309542
Si Si7 0.000000 0.135011 0.696241
Si Si8 0.718553 0.867142 0.544854
O O1 0.344628 0.250000 0.113626
O O2 0.348222 0.098860 0.200068
O O3 0.428750 0.124445 0.069312
O O4 0.295530 0.102703 0.047379
O O5 0.133576 0.250000 0.206925
O O6 0.186834 0.396045 0.132947
O O7 0.064498 0.409371 0.185175
O O8 0.704222 0.750000 0.362852
O O9 0.782274 0.604279 0.351659
O O10 0.658923 0.603579 0.287476
O O11 0.685345 0.601088 0.458278
O O12 0.000000 0.052691 0.321850
O O13 0.000000 0.923781 0.216578
O O14 0.000000 0.500000 0.500000
O O15 0.850465 0.750000 0.313023
O O16 0.926341 0.609702 0.342125
O O17 0.000000 0.250000 0.705867
O O18 0.715299 0.750000 0.543291
#
# Coordination Sequence:
#
# PCOD9538011 Si02
#       8
#    16  16  16   8   8  16   8  16
#     4   9  17  31  53  79 107 144 187 231 281 341
#     4   9  17  32  55  81 109 145 185 226 280 346
#     4   8  14  27  48  75 106 139 178 226 282 334
#     4  10  21  36  55  76 111 147 184 232 287 341
#     4  10  21  35  50  71 111 152 186 229 286 344
#     4   8  15  29  50  74 103 140 184 231 277 330
#     4  10  20  35  58  83 105 141 193 238 279 331
#     4   9  16  27  51  83 109 136 179 231 280 336
#
# _framework density 23.265861999999998
#
# number of rings (size 3 to 8) (size 9 to 14) (size 15 to 20)
#    0.000    3.077    0.000    1.846    0.000    4.923 
#    0.000    3.077   16.923    4.615    0.000    0.000 
#    0.000    0.000    0.000    0.000    0.000    0.000 
#
# Total GULP energy -290033.049311 kJ/mol
# GULP energy per Si atom -5577.558641 kJ/mol
# Density = 2.321291 g / cm^3
# Si number density = 23.265862 Si / 1000 Ang^3
#
#
#
# Elastic Constant Matrix: (Units=GPa)
#
#
# Indices 1 2 3 4 5 6 
#
# 1 108.5544 1.6593 23.6670 0.0000 0.0000 0.0000
# 2 1.6593 55.7275 1.6610 0.0000 0.0000 0.0000
# 3 23.6670 1.6610 91.2928 0.0000 0.0000 0.0000
# 4 0.0000 0.0000 0.0000 28.4975 0.0000 0.0000
# 5 0.0000 0.0000 0.0000 0.0000 2.6970 0.0000
# 6 0.0000 0.0000 0.0000 0.0000 0.0000 14.1871
#
#
#
# Elastic Compliance Matrix: (Units=1/GPa)
#
#
# Indices 1 2 3 4 5 6 
#
# 1 0.009766 -0.000215 -0.002528 0.000000 0.000000 0.000000
# 2 -0.000215 0.017959 -0.000271 0.000000 0.000000 0.000000
# 3 -0.002528 -0.000271 0.011614 0.000000 0.000000 0.000000
# 4 0.000000 0.000000 0.000000 0.035091 0.000000 0.000000
# 5 0.000000 0.000000 0.000000 0.000000 0.370782 0.000000
# 6 0.000000 0.000000 0.000000 0.000000 0.000000 0.070487
#
#
# Mechanical properties :
#
#
# Convention : Reuss Voigt Hill
#
# Bulk Modulus (GPa) = 30.02030 34.39439 32.20734
# Shear Modulus (GPa) = 9.38383 24.31547 16.84965
#
# Velocity S-wave (km/s) = 2.01049 3.23633 2.69406
# Velocity P-wave (km/s) = 4.28025 5.36474 4.85288
#
# Compressibility (1/GPa) = 0.03331079
#
# Stress axis : x y z
#
# Youngs Moduli (GPa) = 102.39182 55.68254 86.10265
#
# Poissons Ratio (x) = 0.01200 0.21766
# Poissons Ratio (y) = 0.02206 0.02333
# Poissons Ratio (z) = 0.25884 0.01508
#
# Static dielectric constant tensor:
#      x y z
#    x 1.842490 0.000000 0.000000 
#    y 0.000000 2.000880 0.000000 
#    z 0.000000 0.000000 1.855350 
# 
# From -- ./inp_files/35534.got.cif
#   From: 2010.05.17/outbox.cif.g08.bks.cpg/sg74_18_cif.got.tgz:35534.got - 2010.06.03 17:57:02.
