data_PCOD9538506
_publ_section_title
;
Structure prediction by ZEFSAII (Michael W. Deem and Ramdas Pophale) SiO2 
 PCOD9538506
Probable space group: I M M A
;
_chemical_formula_sum "Si O2"
_cell_formula_units_Z 104
_cell_length_a 7.475562
_cell_length_b 26.883786
_cell_length_c 30.756745
_cell_angle_alpha 90.000000
_cell_angle_beta 90.000000
_cell_angle_gamma 90.000000
_cell_volume 6181.226380
_symmetry_space_group_name_H-M "I M M A"
_symmetry_group_IT_number 74
_symmetry_cell_setting 'orthorhombic'
loop_
_space_group_symop_operation_xyz
x,y,z
-x,1/2-y,z
x,-y,-z
-x,1/2+y,-z
-x,-y,-z
x,1/2+y,-z
-x,y,z
x,1/2-y,z
1/2+x,1/2+y,1/2+z
1/2-x,-y,1/2+z
1/2+x,1/2-y,1/2-z
1/2-x,y,1/2-z
1/2-x,1/2-y,1/2-z
1/2+x,y,1/2-z
1/2-x,1/2+y,1/2+z
1/2+x,-y,1/2+z
loop_
_atom_site_type_symbol
_atom_site_label
_atom_site_fract_x
_atom_site_fract_y
_atom_site_fract_z
Si Si1 0.000000 0.839705 0.933276
Si Si2 0.712284 0.921969 0.946706
Si Si3 0.500000 0.195369 0.342261
Si Si4 0.717729 0.979595 0.107370
Si Si5 0.286347 0.513223 0.799558
Si Si6 0.000000 0.808180 0.031666
Si Si7 0.713176 0.108449 0.954755
Si Si8 0.788901 0.127850 0.299810
O O1 0.171030 0.876107 0.930137
O O2 0.000000 0.802857 0.893770
O O3 0.000000 0.812725 0.979394
O O4 0.500000 0.915226 0.939170
O O5 0.767799 0.972313 0.921811
O O6 0.741210 0.920194 0.998973
O O7 0.500000 0.250000 0.322425
O O8 0.672641 0.164298 0.328296
O O9 0.500000 0.979375 0.107337
O O10 0.771337 0.929319 0.083036
O O11 0.779077 0.984707 0.157412
O O12 0.500000 0.514246 0.802726
O O13 0.250000 0.495997 0.750000
O O14 0.226017 0.570554 0.804128
O O15 0.828019 0.841102 0.045906
O O16 0.000000 0.750000 0.044526
O O17 0.500000 0.118212 0.951605
O O18 0.750000 0.141471 0.250000
O O19 0.000000 0.130128 0.308872
#
# Coordination Sequence:
#
# PCOD9538506 Si02
#       8
#     8  16   8  16  16   8  16  16
#     4  10  21  35  50  71  97 128 166 208 248 297
#     4   9  17  31  51  74 100 133 165 196 241 297
#     4  12  25  36  51  71  90 119 163 217 272 302
#     4   9  16  29  48  73 104 135 158 196 240 293
#     4   9  18  31  49  70  98 131 162 191 233 290
#     4  10  21  37  53  70  99 133 170 209 243 283
#     4   9  18  32  51  75 103 131 163 203 247 289
#     4  10  20  38  55  70  90 120 161 207 250 302
#
# _framework density 16.825140999999999
#
# number of rings (size 3 to 8) (size 9 to 14) (size 15 to 20)
#    0.000    2.462    0.769    1.615    1.077    5.231 
#    2.769    2.308    0.000    2.769    0.000    0.000 
#    0.000    0.615    0.308    0.000    0.000    0.000 
#
# Total GULP energy -289942.258509 kJ/mol
# GULP energy per Si atom -5575.812664 kJ/mol
# Density = 1.678685 g / cm^3
# Si number density = 16.825141 Si / 1000 Ang^3
#
#
#
# Elastic Constant Matrix: (Units=GPa)
#
#
# Indices 1 2 3 4 5 6 
#
# 1 69.1261 33.3824 32.5612 0.0000 0.0000 0.0000
# 2 33.3824 99.7969 71.0703 0.0000 0.0000 0.0000
# 3 32.5612 71.0703 110.3074 0.0000 0.0000 0.0000
# 4 0.0000 0.0000 0.0000 11.6973 0.0000 0.0000
# 5 0.0000 0.0000 0.0000 0.0000 11.9690 0.0000
# 6 0.0000 0.0000 0.0000 0.0000 0.0000 3.6617
#
#
#
# Elastic Compliance Matrix: (Units=1/GPa)
#
#
# Indices 1 2 3 4 5 6 
#
# 1 0.017647 -0.004053 -0.002598 0.000000 0.000000 0.000000
# 2 -0.004053 0.019447 -0.011333 0.000000 0.000000 0.000000
# 3 -0.002598 -0.011333 0.017134 0.000000 0.000000 0.000000
# 4 0.000000 0.000000 0.000000 0.085490 0.000000 0.000000
# 5 0.000000 0.000000 0.000000 0.000000 0.083549 0.000000
# 6 0.000000 0.000000 0.000000 0.000000 0.000000 0.273099
#
#
# Mechanical properties :
#
#
# Convention : Reuss Voigt Hill
#
# Bulk Modulus (GPa) = 54.76311 61.47314 58.11813
# Shear Modulus (GPa) = 9.28641 14.94671 12.11656
#
# Velocity S-wave (km/s) = 2.35188 2.98376 2.68647
# Velocity P-wave (km/s) = 6.32409 6.96321 6.65133
#
# Compressibility (1/GPa) = 0.01826047
#
# Stress axis : x y z
#
# Youngs Moduli (GPa) = 56.66584 51.42178 58.36230
#
# Poissons Ratio (x) = 0.20841 0.15162
# Poissons Ratio (y) = 0.22967 0.66143
# Poissons Ratio (z) = 0.14721 0.58277
#
# Static dielectric constant tensor:
#      x y z
#    x 1.604130 0.000000 0.000000 
#    y 0.000000 1.539290 0.000000 
#    z 0.000000 0.000000 1.603040 
# 
# From -- ./inp_files/64818.got.cif
#   From: 2010.05.17/outbox.cif.g08.bks.cpg/sg74_33_cif.got.tgz:64818.got - 2010.06.03 17:57:02.
