data_PCOD9538087
_publ_section_title
;
Structure prediction by ZEFSAII (Michael W. Deem and Ramdas Pophale) SiO2 
 PCOD9538087
Probable space group: I M M A
;
_chemical_formula_sum "Si O2"
_cell_formula_units_Z 96
_cell_length_a 15.286279
_cell_length_b 22.019124
_cell_length_c 14.367487
_cell_angle_alpha 90.000000
_cell_angle_beta 90.000000
_cell_angle_gamma 90.000000
_cell_volume 4835.959242
_symmetry_space_group_name_H-M "I M M A"
_symmetry_group_IT_number 74
_symmetry_cell_setting 'orthorhombic'
loop_
_space_group_symop_operation_xyz
x,y,z
-x,1/2-y,z
x,-y,-z
-x,1/2+y,-z
-x,-y,-z
x,1/2+y,-z
-x,y,z
x,1/2-y,z
1/2+x,1/2+y,1/2+z
1/2-x,-y,1/2+z
1/2+x,1/2-y,1/2-z
1/2-x,y,1/2-z
1/2-x,1/2-y,1/2-z
1/2+x,y,1/2-z
1/2-x,1/2+y,1/2+z
1/2+x,-y,1/2+z
loop_
_atom_site_type_symbol
_atom_site_label
_atom_site_fract_x
_atom_site_fract_y
_atom_site_fract_z
Si Si1 0.500000 0.819151 0.424817
Si Si2 0.144453 0.012768 0.742802
Si Si3 0.644739 0.876461 0.765217
Si Si4 0.102043 0.061077 0.549298
Si Si5 0.157500 0.317509 0.449550
Si Si6 0.500000 0.035976 0.602918
Si Si7 0.864074 0.184207 0.086861
O O1 0.500000 0.750000 0.377879
O O2 0.500000 0.889412 0.390529
O O3 0.583529 0.818741 0.492363
O O4 0.250000 0.018500 0.750000
O O5 0.114102 0.056241 0.660066
O O6 0.087569 0.019243 0.837105
O O7 0.125436 0.944772 0.706409
O O8 0.750000 0.870875 0.750000
O O9 0.618531 0.831595 0.847301
O O10 0.607321 0.863755 0.663562
O O11 0.137526 0.124948 0.513056
O O12 0.000000 0.061294 0.526451
O O13 0.141131 0.000000 0.500000
O O14 0.132030 0.250000 0.481972
O O15 0.262042 0.318945 0.435459
O O16 0.500000 0.000000 0.500000
O O17 0.880403 0.250000 0.131403
#
# Coordination Sequence:
#
# PCOD9538087 Si02
#       7
#     8  16  16  16  16   8  16
#     4  10  22  40  58  84 123 168 210 258 321 373
#     4  11  24  41  65  96 128 166 215 267 332 393
#     4   9  17  33  56  88 125 161 197 254 323 392
#     4  11  23  42  63  86 125 172 205 248 314 380
#     4  10  20  35  61  91 121 162 213 258 310 382
#     4  12  26  44  69 102 129 167 225 284 321 385
#     4   9  18  34  57  87 125 164 200 254 326 386
#
# _framework density 19.851282999999999
#
# number of rings (size 3 to 8) (size 9 to 14) (size 15 to 20)
#    0.000    1.833    2.500    1.500    2.333    3.000 
#    1.500    0.833    0.000    1.000    0.000    0.000 
#    0.000    0.000    0.000    0.000    0.000    0.000 
#
# Total GULP energy -267267.711737 kJ/mol
# GULP energy per Si atom -5568.077328 kJ/mol
# Density = 1.980610 g / cm^3
# Si number density = 19.851283 Si / 1000 Ang^3
#
#
#
# Elastic Constant Matrix: (Units=GPa)
#
#
# Indices 1 2 3 4 5 6 
#
# 1 62.5609 26.2360 16.6952 0.0000 0.0000 0.0000
# 2 26.2360 155.7528 47.1225 -0.0001 0.0000 0.0000
# 3 16.6952 47.1225 77.8791 -0.0002 0.0000 0.0000
# 4 0.0000 -0.0001 -0.0002 38.6092 0.0000 0.0000
# 5 0.0000 0.0000 0.0000 0.0000 7.1739 0.0000
# 6 0.0000 0.0000 0.0000 0.0000 0.0000 17.3407
#
#
#
# Elastic Compliance Matrix: (Units=1/GPa)
#
#
# Indices 1 2 3 4 5 6 
#
# 1 0.017564 -0.002227 -0.002418 0.000000 0.000000 0.000000
# 2 -0.002227 0.008142 -0.004449 0.000000 0.000000 0.000000
# 3 -0.002418 -0.004449 0.016051 0.000000 0.000000 0.000000
# 4 0.000000 0.000000 0.000000 0.025901 0.000000 0.000000
# 5 0.000000 0.000000 0.000000 0.000000 0.139394 0.000000
# 6 0.000000 0.000000 0.000000 0.000000 0.000000 0.057668
#
#
# Mechanical properties :
#
#
# Convention : Reuss Voigt Hill
#
# Bulk Modulus (GPa) = 42.42923 52.92223 47.67573
# Shear Modulus (GPa) = 17.19624 26.36737 21.78181
#
# Velocity S-wave (km/s) = 2.94641 3.64846 3.31607
# Velocity P-wave (km/s) = 5.74413 6.66825 6.22337
#
# Compressibility (1/GPa) = 0.02356866
#
# Stress axis : x y z
#
# Youngs Moduli (GPa) = 56.93610 122.82688 62.30322
#
# Poissons Ratio (x) = 0.27354 0.15063
# Poissons Ratio (y) = 0.12680 0.27717
# Poissons Ratio (z) = 0.13765 0.54643
#
# Static dielectric constant tensor:
#      x y z
#    x 1.671710 0.000000 0.000000 
#    y 0.000000 1.772560 0.000000 
#    z 0.000000 0.000000 1.684710 
# 
# From -- ./inp_files/32430.got.cif
#   From: 2010.05.17/outbox.cif.g08.bks.cpg/sg74_17_cif.got.tgz:32430.got - 2010.06.03 17:57:02.
