data_PCOD9538940
_publ_section_title
;
Structure prediction by ZEFSAII (Michael W. Deem and Ramdas Pophale) SiO2 
 PCOD9538940
Probable space group: I M M A
;
_chemical_formula_sum "Si O2"
_cell_formula_units_Z 112
_cell_length_a 13.621486
_cell_length_b 14.034011
_cell_length_c 27.556503
_cell_angle_alpha 90.000000
_cell_angle_beta 90.000000
_cell_angle_gamma 90.000000
_cell_volume 5267.813664
_symmetry_space_group_name_H-M "I M M A"
_symmetry_group_IT_number 74
_symmetry_cell_setting 'orthorhombic'
loop_
_space_group_symop_operation_xyz
x,y,z
-x,1/2-y,z
x,-y,-z
-x,1/2+y,-z
-x,-y,-z
x,1/2+y,-z
-x,y,z
x,1/2-y,z
1/2+x,1/2+y,1/2+z
1/2-x,-y,1/2+z
1/2+x,1/2-y,1/2-z
1/2-x,y,1/2-z
1/2-x,1/2-y,1/2-z
1/2+x,y,1/2-z
1/2-x,1/2+y,1/2+z
1/2+x,-y,1/2+z
loop_
_atom_site_type_symbol
_atom_site_label
_atom_site_fract_x
_atom_site_fract_y
_atom_site_fract_z
Si Si1 0.609347 0.640112 0.433667
Si Si2 0.882454 0.544095 0.677449
Si Si3 0.119441 0.640993 0.776758
Si Si4 0.315591 0.363376 0.976034
Si Si5 0.302602 0.636005 0.919206
Si Si6 0.117559 0.141942 0.629862
Si Si7 0.113659 0.047861 0.121660
O O1 0.500000 0.626438 0.454702
O O2 0.616702 0.750000 0.417325
O O3 0.698363 0.624074 0.470416
O O4 0.620295 0.564007 0.390597
O O5 0.846929 0.596918 0.725722
O O6 0.858348 0.600979 0.628466
O O7 0.845409 0.436497 0.667855
O O8 0.000000 0.538341 0.681824
O O9 0.153093 0.750000 0.783883
O O10 0.141735 0.577128 0.823723
O O11 0.000000 0.644401 0.774544
O O12 0.337753 0.250000 0.976414
O O13 0.358969 0.395074 0.924530
O O14 0.344478 0.400091 0.029048
O O15 0.303455 0.750000 0.920203
O O16 0.191104 0.600127 0.912710
O O17 0.156335 0.250000 0.635438
O O18 0.000000 0.146968 0.633945
O O19 0.000000 0.076621 0.113719
#
# Coordination Sequence:
#
# PCOD9538940 Si02
#       7
#    16  16  16  16  16  16  16
#     4   9  18  34  55  78 106 140 175 213 260 312
#     4  10  21  36  55  79 106 138 177 218 262 313
#     4   9  18  35  56  76 104 140 173 213 266 312
#     4   9  19  35  53  75 107 142 174 215 264 309
#     4  11  23  36  53  79 107 139 180 220 260 310
#     4   9  18  34  55  78 106 140 175 213 260 312
#     4  10  21  36  55  79 106 138 177 218 262 313
#
# _framework density 21.261194
#
# number of rings (size 3 to 8) (size 9 to 14) (size 15 to 20)
#    0.000    2.429    0.000    1.714    0.000    5.714 
#    0.000    7.857    0.000    4.286    0.000    5.000 
#    0.000    0.000    0.000    0.000    0.000    0.000 
#
# Total GULP energy -312597.124843 kJ/mol
# GULP energy per Si atom -5582.091515 kJ/mol
# Density = 2.121280 g / cm^3
# Si number density = 21.261194 Si / 1000 Ang^3
#
#
#
# Elastic Constant Matrix: (Units=GPa)
#
#
# Indices 1 2 3 4 5 6 
#
# 1 19.5433 -8.9445 -12.4269 0.0000 0.0000 0.0000
# 2 -8.9445 108.5950 48.3638 0.0000 0.0000 0.0000
# 3 -12.4269 48.3638 110.0022 0.0000 0.0000 0.0000
# 4 0.0000 0.0000 0.0000 31.1909 0.0000 0.0000
# 5 0.0000 0.0000 0.0000 0.0000 8.3614 0.0000
# 6 0.0000 0.0000 0.0000 0.0000 0.0000 21.7441
#
#
#
# Elastic Compliance Matrix: (Units=1/GPa)
#
#
# Indices 1 2 3 4 5 6 
#
# 1 0.055554 0.002214 0.005302 0.000000 0.000000 0.000000
# 2 0.002214 0.011539 -0.004823 0.000000 0.000000 0.000000
# 3 0.005302 -0.004823 0.011810 0.000000 0.000000 0.000000
# 4 0.000000 0.000000 0.000000 0.032061 0.000000 0.000000
# 5 0.000000 0.000000 0.000000 0.000000 0.119597 0.000000
# 6 0.000000 0.000000 0.000000 0.000000 0.000000 0.045990
#
#
# Mechanical properties :
#
#
# Convention : Reuss Voigt Hill
#
# Bulk Modulus (GPa) = 11.86386 32.45838 22.16112
# Shear Modulus (GPa) = 16.70794 26.33582 21.52188
#
# Velocity S-wave (km/s) = 2.80633 3.52331 3.18506
# Velocity P-wave (km/s) = 4.01158 5.64369 4.89612
#
# Compressibility (1/GPa) = 0.08428962
#
# Stress axis : x y z
#
# Youngs Moduli (GPa) = 18.00067 86.66334 84.67223
#
# Poissons Ratio (x) = -0.19189 -0.44896
# Poissons Ratio (y) = -0.03986 0.40838
# Poissons Ratio (z) = -0.09545 0.41798
#
# Static dielectric constant tensor:
#      x y z
#    x 1.816290 0.000000 0.000000 
#    y 0.000000 1.802020 0.000000 
#    z 0.000000 0.000000 1.741490 
# 
# From -- ./inp_files/60150.got.cif
#   From: 2010.05.17/outbox.cif.g08.bks.cpg/sg74_31_cif.got.tgz:60150.got - 2010.06.03 17:57:02.
