data_PCOD9538304
_publ_section_title
;
Structure prediction by ZEFSAII (Michael W. Deem and Ramdas Pophale) SiO2 
 PCOD9538304
Probable space group: I M M A
;
_chemical_formula_sum "Si O2"
_cell_formula_units_Z 56
_cell_length_a 14.917158
_cell_length_b 15.070916
_cell_length_c 10.062353
_cell_angle_alpha 90.000000
_cell_angle_beta 90.000000
_cell_angle_gamma 90.000000
_cell_volume 2262.170256
_symmetry_space_group_name_H-M "I M M A"
_symmetry_group_IT_number 74
_symmetry_cell_setting 'orthorhombic'
loop_
_space_group_symop_operation_xyz
x,y,z
-x,1/2-y,z
x,-y,-z
-x,1/2+y,-z
-x,-y,-z
x,1/2+y,-z
-x,y,z
x,1/2-y,z
1/2+x,1/2+y,1/2+z
1/2-x,-y,1/2+z
1/2+x,1/2-y,1/2-z
1/2-x,y,1/2-z
1/2-x,1/2-y,1/2-z
1/2+x,y,1/2-z
1/2-x,1/2+y,1/2+z
1/2+x,-y,1/2+z
loop_
_atom_site_type_symbol
_atom_site_label
_atom_site_fract_x
_atom_site_fract_y
_atom_site_fract_z
Si Si1 0.149983 0.250000 0.304187
Si Si2 0.248797 0.500000 0.000000
Si Si3 0.601252 0.442425 0.802191
Si Si4 0.893704 0.750000 0.386688
Si Si5 0.097138 0.097814 0.109171
O O1 0.250000 0.250000 0.250000
O O2 0.145481 0.250000 0.463563
O O3 0.106058 0.164146 0.233696
O O4 0.317515 0.487357 0.879926
O O5 0.188762 0.588437 0.973374
O O6 0.500000 0.449841 0.861764
O O7 0.624844 0.338827 0.803772
O O8 0.594559 0.498054 0.667806
O O9 0.000000 0.750000 0.411457
O O10 0.000000 0.118320 0.045483
#
# Coordination Sequence:
#
# PCOD9538304 Si02
#       5
#     8   8  16   8  16
#     4  12  22  36  61  92 119 152 201 255 300 353
#     4  12  22  38  60  86 120 162 200 242 298 362
#     4  10  21  38  61  88 118 152 196 252 306 357
#     4  10  20  36  60  88 116 150 194 245 302 355
#     4  11  24  41  60  87 125 163 200 246 301 360
#
# _framework density 24.754989999999999
#
# number of rings (size 3 to 8) (size 9 to 14) (size 15 to 20)
#    0.000    1.143    0.000    8.143    0.000    4.571 
#    0.000    4.286    0.000    3.429    0.000    0.000 
#    0.000    0.000    0.000    0.000    0.000    0.000 
#
# Total GULP energy -156337.240263 kJ/mol
# GULP energy per Si atom -5583.472867 kJ/mol
# Density = 2.469865 g / cm^3
# Si number density = 24.754990 Si / 1000 Ang^3
#
#
#
# Elastic Constant Matrix: (Units=GPa)
#
#
# Indices 1 2 3 4 5 6 
#
# 1 137.4742 13.7334 4.3230 0.0000 0.0000 0.0000
# 2 13.7334 100.0267 16.2433 0.0000 0.0000 0.0000
# 3 4.3230 16.2433 17.9540 0.0000 0.0000 0.0000
# 4 0.0000 0.0000 0.0000 32.5266 0.0000 0.0000
# 5 0.0000 0.0000 0.0000 0.0000 32.1180 0.0000
# 6 0.0000 0.0000 0.0000 0.0000 0.0000 34.1140
#
#
#
# Elastic Compliance Matrix: (Units=1/GPa)
#
#
# Indices 1 2 3 4 5 6 
#
# 1 0.007391 -0.000851 -0.001010 0.000000 0.000000 0.000000
# 2 -0.000851 0.011817 -0.010486 0.000000 0.000000 0.000000
# 3 -0.001010 -0.010486 0.065428 0.000000 0.000000 0.000000
# 4 0.000000 0.000000 0.000000 0.030744 0.000000 0.000000
# 5 0.000000 0.000000 0.000000 0.000000 0.031135 0.000000
# 6 0.000000 0.000000 0.000000 0.000000 0.000000 0.029314
#
#
# Mechanical properties :
#
#
# Convention : Reuss Voigt Hill
#
# Bulk Modulus (GPa) = 16.68269 36.00605 26.34437
# Shear Modulus (GPa) = 22.67537 34.49538 28.58538
#
# Velocity S-wave (km/s) = 3.02982 3.73697 3.40182
# Velocity P-wave (km/s) = 4.35815 5.76164 5.10833
#
# Compressibility (1/GPa) = 0.05994237
#
# Stress axis : x y z
#
# Youngs Moduli (GPa) = 135.30270 84.62384 15.28390
#
# Poissons Ratio (x) = 0.07199 0.01544
# Poissons Ratio (y) = 0.11511 0.16027
# Poissons Ratio (z) = 0.13664 0.88739
#
# Static dielectric constant tensor:
#      x y z
#    x 2.056950 0.000000 0.000000 
#    y 0.000000 1.982900 0.000000 
#    z 0.000000 0.000000 2.010430 
# 
# From -- ./inp_files/19605.got.cif
#   From: 2010.05.17/outbox.cif.g08.bks.cpg/sg74_10_cif.got.tgz:19605.got - 2010.06.03 17:57:02.
