data_PCOD9538216
_publ_section_title
;
Structure prediction by ZEFSAII (Michael W. Deem and Ramdas Pophale) SiO2 
 PCOD9538216
Probable space group: I M M A
;
_chemical_formula_sum "Si O2"
_cell_formula_units_Z 80
_cell_length_a 17.438598
_cell_length_b 11.276407
_cell_length_c 21.562823
_cell_angle_alpha 90.000000
_cell_angle_beta 90.000000
_cell_angle_gamma 90.000000
_cell_volume 4240.215476
_symmetry_space_group_name_H-M "I M M A"
_symmetry_group_IT_number 74
_symmetry_cell_setting 'orthorhombic'
loop_
_space_group_symop_operation_xyz
x,y,z
-x,1/2-y,z
x,-y,-z
-x,1/2+y,-z
-x,-y,-z
x,1/2+y,-z
-x,y,z
x,1/2-y,z
1/2+x,1/2+y,1/2+z
1/2-x,-y,1/2+z
1/2+x,1/2-y,1/2-z
1/2-x,y,1/2-z
1/2-x,1/2-y,1/2-z
1/2+x,y,1/2-z
1/2-x,1/2+y,1/2+z
1/2+x,-y,1/2+z
loop_
_atom_site_type_symbol
_atom_site_label
_atom_site_fract_x
_atom_site_fract_y
_atom_site_fract_z
Si Si1 0.585974 0.037903 0.170163
Si Si2 0.371580 0.119583 0.039927
Si Si3 0.732391 0.390171 0.822417
Si Si4 0.342178 0.750000 0.751858
Si Si5 0.799105 0.449155 0.068488
Si Si6 0.091274 0.750000 0.885478
O O1 0.500000 0.008818 0.190947
O O2 0.583253 0.099218 0.103104
O O3 0.626805 0.133993 0.213653
O O4 0.644203 0.927895 0.166048
O O5 0.388745 0.250000 0.012104
O O6 0.282140 0.117996 0.060050
O O7 0.383620 0.000000 0.000000
O O8 0.743572 0.250000 0.830370
O O9 0.750000 0.420025 0.750000
O O10 0.782198 0.460488 0.874241
O O11 0.250000 0.750000 0.750000
O O12 0.379069 0.750000 0.684652
O O13 0.868939 0.364406 0.084653
O O14 0.813252 0.500000 0.000000
O O15 0.000000 0.750000 0.889687
#
# Coordination Sequence:
#
# PCOD9538216 Si02
#       6
#    16  16  16   8  16   8
#     4  11  22  36  58  87 121 156 194 254 319 364
#     4  10  20  36  58  85 119 163 216 252 299 366
#     4  10  22  40  63  90 120 161 210 254 302 374
#     4  12  22  38  64  88 118 155 210 261 308 373
#     4  10  22  38  64  88 120 163 210 255 304 370
#     4  12  24  38  62  96 123 157 200 261 330 373
#
# _framework density 18.866965
#
# number of rings (size 3 to 8) (size 9 to 14) (size 15 to 20)
#    0.000    1.400    2.000    5.100    1.400    6.000 
#    0.000    0.000    0.000    1.200    0.000    0.000 
#    0.000    0.000    0.000    0.000    0.000    0.000 
#
# Total GULP energy -223207.422896 kJ/mol
# GULP energy per Si atom -5580.185572 kJ/mol
# Density = 1.882402 g / cm^3
# Si number density = 18.866965 Si / 1000 Ang^3
#
#
#
# Elastic Constant Matrix: (Units=GPa)
#
#
# Indices 1 2 3 4 5 6 
#
# 1 157.9485 49.0160 59.0797 0.0000 0.0000 0.0000
# 2 49.0160 131.9865 74.0664 0.0000 0.0000 0.0000
# 3 59.0797 74.0664 135.2750 0.0000 0.0000 0.0000
# 4 0.0000 0.0000 0.0000 -12.9932 0.0000 0.0000
# 5 0.0000 0.0000 0.0000 0.0000 -24.4525 0.0000
# 6 0.0000 0.0000 0.0000 0.0000 0.0000 8.3784
#
#
#
# Elastic Compliance Matrix: (Units=1/GPa)
#
#
# Indices 1 2 3 4 5 6 
#
# 1 0.007745 -0.001412 -0.002610 0.000000 0.000000 0.000000
# 2 -0.001412 0.011194 -0.005513 0.000000 0.000000 0.000000
# 3 -0.002610 -0.005513 0.011550 0.000000 0.000000 0.000000
# 4 0.000000 0.000000 0.000000 -0.076963 0.000000 0.000000
# 5 0.000000 0.000000 0.000000 0.000000 -0.040896 0.000000
# 6 0.000000 0.000000 0.000000 0.000000 0.000000 0.119355
#
#
# Mechanical properties :
#
#
# Convention : Reuss Voigt Hill
#
# Bulk Modulus (GPa) = 87.55156 87.72602 87.63879
# Shear Modulus (GPa) = 91.13862 10.38973 50.76417
#
# Velocity S-wave (km/s) = 6.95779 2.34921 5.19276
# Velocity P-wave (km/s) = 10.53818 7.34551 9.08322
#
# Compressibility (1/GPa) = 0.01142184
#
# Stress axis : x y z
#
# Youngs Moduli (GPa) = 129.10753 89.33082 86.57777
#
# Poissons Ratio (x) = 0.12614 0.22594
# Poissons Ratio (y) = 0.18230 0.47726
# Poissons Ratio (z) = 0.33692 0.49244
#
# Static dielectric constant tensor:
#      x y z
#    x 1.689170 0.000000 0.000000 
#    y 0.000000 1.659860 0.000000 
#    z 0.000000 0.000000 1.629740 
# 
# From -- ./inp_files/52793.got.cif
#   From: 2010.05.17/outbox.cif.g08.bks.cpg/sg74_27_cif.got.tgz:52793.got - 2010.06.03 17:57:02.
