data_PCOD9538739
_publ_section_title
;
Structure prediction by ZEFSAII (Michael W. Deem and Ramdas Pophale) SiO2 
 PCOD9538739
Probable space group: I M M A
;
_chemical_formula_sum "Si O2"
_cell_formula_units_Z 88
_cell_length_a 28.732070
_cell_length_b 17.970437
_cell_length_c 8.045351
_cell_angle_alpha 90.000000
_cell_angle_beta 90.000000
_cell_angle_gamma 90.000000
_cell_volume 4154.038815
_symmetry_space_group_name_H-M "I M M A"
_symmetry_group_IT_number 74
_symmetry_cell_setting 'orthorhombic'
loop_
_space_group_symop_operation_xyz
x,y,z
-x,1/2-y,z
x,-y,-z
-x,1/2+y,-z
-x,-y,-z
x,1/2+y,-z
-x,y,z
x,1/2-y,z
1/2+x,1/2+y,1/2+z
1/2-x,-y,1/2+z
1/2+x,1/2-y,1/2-z
1/2-x,y,1/2-z
1/2-x,1/2-y,1/2-z
1/2+x,y,1/2-z
1/2-x,1/2+y,1/2+z
1/2+x,-y,1/2+z
loop_
_atom_site_type_symbol
_atom_site_label
_atom_site_fract_x
_atom_site_fract_y
_atom_site_fract_z
Si Si1 0.757171 0.250000 0.452294
Si Si2 0.551575 0.250000 0.937265
Si Si3 0.771225 0.417988 0.064812
Si Si4 0.947954 0.977620 0.691764
Si Si5 0.354899 0.250000 0.137281
Si Si6 0.127519 0.619394 0.875825
Si Si7 0.551559 0.863821 0.359141
O O1 0.750000 0.250000 0.250000
O O2 0.739701 0.333419 0.508449
O O3 0.812422 0.250000 0.489219
O O4 0.500000 0.250000 0.014446
O O5 0.555287 0.180415 0.812906
O O6 0.594051 0.250000 0.060728
O O7 0.750000 0.414550 0.250000
O O8 0.827335 0.422152 0.057104
O O9 0.753985 0.500000 0.000000
O O10 0.907381 0.927281 0.761387
O O11 0.000000 0.943713 0.701694
O O12 0.940683 0.000000 0.500000
O O13 0.947752 0.050083 0.808564
O O14 0.350619 0.319667 0.256617
O O15 0.094120 0.651900 0.019071
O O16 0.500000 0.846107 0.429715
#
# Coordination Sequence:
#
# PCOD9538739 Si02
#       7
#     8   8  16  16   8  16  16
#     4  10  20  48  66  89 130 176 210 270 341 392
#     4  10  23  41  60  94 132 162 209 267 316 384
#     4  11  23  44  69  95 131 171 219 281 337 393
#     4  10  21  37  57  88 128 167 209 261 318 385
#     4  12  23  41  69  89 121 175 211 260 331 405
#     4  12  22  38  65  93 121 167 220 260 323 404
#     4  10  21  39  59  87 132 168 203 263 320 379
#
# _framework density 21.184203
#
# number of rings (size 3 to 8) (size 9 to 14) (size 15 to 20)
#    0.000    1.273    3.636    3.818    0.000    5.091 
#    6.545    0.455    0.000    0.000    0.000    0.000 
#    0.000    0.000    0.000    0.000    0.000    0.000 
#
# Total GULP energy -245352.718668 kJ/mol
# GULP energy per Si atom -5576.198152 kJ/mol
# Density = 2.113599 g / cm^3
# Si number density = 21.184203 Si / 1000 Ang^3
#
#
#
# Elastic Constant Matrix: (Units=GPa)
#
#
# Indices 1 2 3 4 5 6 
#
# 1 122.7228 30.3717 16.1875 0.0000 0.0000 0.0000
# 2 30.3717 144.9322 7.5559 0.0000 0.0000 0.0000
# 3 16.1875 7.5559 25.3468 0.0000 0.0000 0.0000
# 4 0.0000 0.0000 0.0000 28.0029 0.0000 0.0000
# 5 0.0000 0.0000 0.0000 0.0000 17.0631 0.0000
# 6 0.0000 0.0000 0.0000 0.0000 0.0000 31.4241
#
#
#
# Elastic Compliance Matrix: (Units=1/GPa)
#
#
# Indices 1 2 3 4 5 6 
#
# 1 0.009275 -0.001661 -0.005429 0.000000 0.000000 0.000000
# 2 -0.001661 0.007306 -0.001117 0.000000 0.000000 0.000000
# 3 -0.005429 -0.001117 0.043253 0.000000 0.000000 0.000000
# 4 0.000000 0.000000 0.000000 0.035711 0.000000 0.000000
# 5 0.000000 0.000000 0.000000 0.000000 0.058606 0.000000
# 6 0.000000 0.000000 0.000000 0.000000 0.000000 0.031823
#
#
# Mechanical properties :
#
#
# Convention : Reuss Voigt Hill
#
# Bulk Modulus (GPa) = 23.03037 44.58133 33.80585
# Shear Modulus (GPa) = 23.05627 31.22381 27.14004
#
# Velocity S-wave (km/s) = 3.30263 3.84333 3.58319
# Velocity P-wave (km/s) = 5.04363 6.38633 5.75428
#
# Compressibility (1/GPa) = 0.04342092
#
# Stress axis : x y z
#
# Youngs Moduli (GPa) = 107.81093 136.87292 23.11991
#
# Poissons Ratio (x) = 0.22731 0.12551
# Poissons Ratio (y) = 0.17905 0.02583
# Poissons Ratio (z) = 0.58527 0.15293
#
# Static dielectric constant tensor:
#      x y z
#    x 1.776930 0.000000 0.000000 
#    y 0.000000 2.433310 0.000000 
#    z 0.000000 0.000000 1.749580 
# 
# From -- ./inp_files/16122.got.cif
#   From: 2010.05.17/outbox.cif.g08.bks.cpg/sg74_9_cif.got.tgz:16122.got - 2010.06.03 17:57:02.
