data_PCOD9538393
_publ_section_title
;
Structure prediction by ZEFSAII (Michael W. Deem and Ramdas Pophale) SiO2 
 PCOD9538393
Probable space group: I M M A
;
_chemical_formula_sum "Si O2"
_cell_formula_units_Z 104
_cell_length_a 32.139355
_cell_length_b 9.122516
_cell_length_c 20.754515
_cell_angle_alpha 90.000000
_cell_angle_beta 90.000000
_cell_angle_gamma 90.000000
_cell_volume 6085.053200
_symmetry_space_group_name_H-M "I M M A"
_symmetry_group_IT_number 74
_symmetry_cell_setting 'orthorhombic'
loop_
_space_group_symop_operation_xyz
x,y,z
-x,1/2-y,z
x,-y,-z
-x,1/2+y,-z
-x,-y,-z
x,1/2+y,-z
-x,y,z
x,1/2-y,z
1/2+x,1/2+y,1/2+z
1/2-x,-y,1/2+z
1/2+x,1/2-y,1/2-z
1/2-x,y,1/2-z
1/2-x,1/2-y,1/2-z
1/2+x,y,1/2-z
1/2-x,1/2+y,1/2+z
1/2+x,-y,1/2+z
loop_
_atom_site_type_symbol
_atom_site_label
_atom_site_fract_x
_atom_site_fract_y
_atom_site_fract_z
Si Si1 0.283486 0.075807 0.067421
Si Si2 0.133902 0.074300 0.817169
Si Si3 0.500000 0.919596 0.067059
Si Si4 0.341904 0.577292 0.816137
Si Si5 0.063610 0.085953 0.350556
Si Si6 0.684421 0.424885 0.432213
Si Si7 0.546965 0.578655 0.698586
O O1 0.291048 0.250000 0.061170
O O2 0.308095 0.026727 0.131470
O O3 0.234106 0.053199 0.076381
O O4 0.295865 0.000000 0.000000
O O5 0.135410 0.250000 0.818202
O O6 0.152897 0.012919 0.749795
O O7 0.159915 0.002621 0.874855
O O8 0.086090 0.017900 0.823122
O O9 0.500000 0.750000 0.056347
O O10 0.460058 0.968949 0.107608
O O11 0.500000 0.000000 0.000000
O O12 0.334344 0.750000 0.800030
O O13 0.386919 0.569908 0.850084
O O14 0.052840 0.250000 0.373384
O O15 0.049270 0.074684 0.276410
O O16 0.672989 0.500000 0.500000
O O17 0.676548 0.250000 0.433367
O O18 0.500000 0.534837 0.678828
O O19 0.553344 0.750000 0.680263
#
# Coordination Sequence:
#
# PCOD9538393 Si02
#       7
#    16  16   8  16  16  16  16
#     4   9  19  35  56  79 104 140 184 226 273 326
#     4  11  22  34  52  83 115 143 180 223 266 314
#     4  12  24  34  46  64  92 130 175 220 263 312
#     4   9  19  36  55  77 107 142 178 221 272 324
#     4   9  17  33  52  70  96 129 167 212 263 313
#     4  10  20  37  59  81 108 142 179 220 268 326
#     4   9  17  33  57  79 103 137 171 209 261 318
#
# _framework density 17.091059000000001
#
# number of rings (size 3 to 8) (size 9 to 14) (size 15 to 20)
#    0.000    2.308    0.769    3.462    0.000    5.231 
#    0.000    4.615    0.000    0.462    0.000    0.000 
#    0.000    0.000    0.000    0.000    0.000    0.000 
#
# Total GULP energy -289990.329544 kJ/mol
# GULP energy per Si atom -5576.737107 kJ/mol
# Density = 1.705216 g / cm^3
# Si number density = 17.091059 Si / 1000 Ang^3
#
#
#
# Elastic Constant Matrix: (Units=GPa)
#
#
# Indices 1 2 3 4 5 6 
#
# 1 83.7528 61.1266 69.1458 0.0000 0.0000 0.0000
# 2 61.1266 120.9794 73.0573 0.0000 0.0000 0.0000
# 3 69.1458 73.0573 106.2291 0.0000 0.0000 0.0000
# 4 0.0000 0.0000 0.0000 31.6612 0.0000 0.0000
# 5 0.0000 0.0000 0.0000 0.0000 20.1014 0.0000
# 6 0.0000 0.0000 0.0000 0.0000 0.0000 21.6087
#
#
#
# Elastic Compliance Matrix: (Units=1/GPa)
#
#
# Indices 1 2 3 4 5 6 
#
# 1 0.027670 -0.005309 -0.014359 0.000000 0.000000 0.000000
# 2 -0.005309 0.015156 -0.006967 0.000000 0.000000 0.000000
# 3 -0.014359 -0.006967 0.023552 0.000000 0.000000 0.000000
# 4 0.000000 0.000000 0.000000 0.031584 0.000000 0.000000
# 5 0.000000 0.000000 0.000000 0.000000 0.049748 0.000000
# 6 0.000000 0.000000 0.000000 0.000000 0.000000 0.046278
#
#
# Mechanical properties :
#
#
# Convention : Reuss Voigt Hill
#
# Bulk Modulus (GPa) = 76.30174 79.73564 78.01869
# Shear Modulus (GPa) = 19.87065 21.84971 20.86018
#
# Velocity S-wave (km/s) = 3.41344 3.57939 3.49740
# Velocity P-wave (km/s) = 7.76380 7.98983 7.87763
#
# Compressibility (1/GPa) = 0.01310586
#
# Stress axis : x y z
#
# Youngs Moduli (GPa) = 36.14069 65.98075 42.45952
#
# Poissons Ratio (x) = 0.35031 0.60968
# Poissons Ratio (y) = 0.19188 0.29583
# Poissons Ratio (z) = 0.51895 0.45971
#
# Static dielectric constant tensor:
#      x y z
#    x 1.583850 0.000000 0.000000 
#    y 0.000000 1.574730 0.000000 
#    z 0.000000 0.000000 1.555930 
# 
# From -- ./inp_files/55629.got.cif
#   From: 2010.05.17/outbox.cif.g08.bks.cpg/sg74_28_cif.got.tgz:55629.got - 2010.06.03 17:57:02.
