data_PCOD9538570
_publ_section_title
;
Structure prediction by ZEFSAII (Michael W. Deem and Ramdas Pophale) SiO2 
 PCOD9538570
Probable space group: I M M A
;
_chemical_formula_sum "Si O2"
_cell_formula_units_Z 112
_cell_length_a 14.839028
_cell_length_b 13.900507
_cell_length_c 26.386137
_cell_angle_alpha 90.000000
_cell_angle_beta 90.000000
_cell_angle_gamma 90.000000
_cell_volume 5442.668811
_symmetry_space_group_name_H-M "I M M A"
_symmetry_group_IT_number 74
_symmetry_cell_setting 'orthorhombic'
loop_
_space_group_symop_operation_xyz
x,y,z
-x,1/2-y,z
x,-y,-z
-x,1/2+y,-z
-x,-y,-z
x,1/2+y,-z
-x,y,z
x,1/2-y,z
1/2+x,1/2+y,1/2+z
1/2-x,-y,1/2+z
1/2+x,1/2-y,1/2-z
1/2-x,y,1/2-z
1/2-x,1/2-y,1/2-z
1/2+x,y,1/2-z
1/2-x,1/2+y,1/2+z
1/2+x,-y,1/2+z
loop_
_atom_site_type_symbol
_atom_site_label
_atom_site_fract_x
_atom_site_fract_y
_atom_site_fract_z
Si Si1 0.358093 0.138496 0.754717
Si Si2 0.745197 0.141484 0.464051
Si Si3 0.242675 0.135108 0.190083
Si Si4 0.726278 0.935221 0.425821
Si Si5 0.601158 0.520139 0.342179
Si Si6 0.899056 0.135789 0.387865
Si Si7 0.603344 0.136704 0.870880
O O1 0.382278 0.250000 0.746566
O O2 0.250000 0.129869 0.750000
O O3 0.399691 0.073459 0.711587
O O4 0.387335 0.113271 0.811482
O O5 0.717074 0.250000 0.448536
O O6 0.731106 0.128869 0.523865
O O7 0.846835 0.128946 0.441784
O O8 0.701426 0.044917 0.441332
O O9 0.230103 0.250000 0.184673
O O10 0.250000 0.113885 0.250000
O O11 0.331329 0.106627 0.157643
O O12 0.160267 0.075163 0.167329
O O13 0.654900 0.912606 0.382010
O O14 0.825631 0.925210 0.402050
O O15 0.500000 0.500098 0.359323
O O16 0.908323 0.250000 0.379828
O O17 0.000000 0.093988 0.386730
O O18 0.500000 0.126727 0.887012
O O19 0.628290 0.250000 0.876255
#
# Coordination Sequence:
#
# PCOD9538570 Si02
#       7
#    16  16  16  16  16  16  16
#     4  10  20  38  63  89 125 168 205 251 312 369
#     4  10  22  41  64  88 123 161 202 256 316 376
#     4  10  22  41  64  93 132 173 211 254 309 372
#     4  11  23  40  63  91 123 162 207 258 318 374
#     4  12  25  40  62  92 126 165 216 268 312 368
#     4   9  18  36  64  93 122 159 203 253 310 373
#     4  10  21  38  62  93 127 162 202 248 305 378
#
# _framework density 20.578140000000001
#
# number of rings (size 3 to 8) (size 9 to 14) (size 15 to 20)
#    0.000    1.714    2.857    1.286    0.000    3.429 
#    0.000    5.714    0.000    0.857    0.000    0.000 
#    0.000    0.000    0.000    0.000    0.000    0.000 
#
# Total GULP energy -312507.860662 kJ/mol
# GULP energy per Si atom -5580.497512 kJ/mol
# Density = 2.053130 g / cm^3
# Si number density = 20.578140 Si / 1000 Ang^3
#
#
#
# Elastic Constant Matrix: (Units=GPa)
#
#
# Indices 1 2 3 4 5 6 
#
# 1 93.4396 1.0612 19.0569 0.0000 0.0000 0.0000
# 2 1.0612 91.3663 22.3036 0.0000 0.0000 0.0000
# 3 19.0569 22.3036 92.2944 0.0000 0.0000 0.0000
# 4 0.0000 0.0000 0.0000 24.2117 0.0000 0.0000
# 5 0.0000 0.0000 0.0000 0.0000 9.1304 0.0000
# 6 0.0000 0.0000 0.0000 0.0000 0.0000 12.8147
#
#
#
# Elastic Compliance Matrix: (Units=1/GPa)
#
#
# Indices 1 2 3 4 5 6 
#
# 1 0.011191 0.000461 -0.002422 0.000000 0.000000 0.000000
# 2 0.000461 0.011650 -0.002911 0.000000 0.000000 0.000000
# 3 -0.002422 -0.002911 0.012038 0.000000 0.000000 0.000000
# 4 0.000000 0.000000 0.000000 0.041302 0.000000 0.000000
# 5 0.000000 0.000000 0.000000 0.000000 0.109525 0.000000
# 6 0.000000 0.000000 0.000000 0.000000 0.000000 0.078035
#
#
# Mechanical properties :
#
#
# Convention : Reuss Voigt Hill
#
# Bulk Modulus (GPa) = 39.78284 40.21596 39.99940
# Shear Modulus (GPa) = 17.73908 24.87658 21.30783
#
# Velocity S-wave (km/s) = 2.93923 3.48067 3.22135
# Velocity P-wave (km/s) = 5.55817 5.97820 5.77201
#
# Compressibility (1/GPa) = 0.02513647
#
# Stress axis : x y z
#
# Youngs Moduli (GPa) = 89.35861 85.83612 83.06762
#
# Poissons Ratio (x) = -0.03960 0.20120
# Poissons Ratio (y) = -0.04122 0.24177
# Poissons Ratio (z) = 0.21644 0.24983
#
# Static dielectric constant tensor:
#      x y z
#    x 1.738260 0.000000 0.000000 
#    y 0.000000 1.791380 0.000000 
#    z 0.000000 0.000000 1.738980 
# 
# From -- ./inp_files/60115.got.cif
#   From: 2010.05.17/outbox.cif.g08.bks.cpg/sg74_31_cif.got.tgz:60115.got - 2010.06.03 17:57:02.
