data_PCOD9538205
_publ_section_title
;
Structure prediction by ZEFSAII (Michael W. Deem and Ramdas Pophale) SiO2 
 PCOD9538205
Probable space group: I M M A
;
_chemical_formula_sum "Si O2"
_cell_formula_units_Z 96
_cell_length_a 19.075754
_cell_length_b 29.574890
_cell_length_c 8.076029
_cell_angle_alpha 90.000000
_cell_angle_beta 90.000000
_cell_angle_gamma 90.000000
_cell_volume 4556.199383
_symmetry_space_group_name_H-M "I M M A"
_symmetry_group_IT_number 74
_symmetry_cell_setting 'orthorhombic'
loop_
_space_group_symop_operation_xyz
x,y,z
-x,1/2-y,z
x,-y,-z
-x,1/2+y,-z
-x,-y,-z
x,1/2+y,-z
-x,y,z
x,1/2-y,z
1/2+x,1/2+y,1/2+z
1/2-x,-y,1/2+z
1/2+x,1/2-y,1/2-z
1/2-x,y,1/2-z
1/2-x,1/2-y,1/2-z
1/2+x,y,1/2-z
1/2-x,1/2+y,1/2+z
1/2+x,-y,1/2+z
loop_
_atom_site_type_symbol
_atom_site_label
_atom_site_fract_x
_atom_site_fract_y
_atom_site_fract_z
Si Si1 0.081530 0.889679 0.031897
Si Si2 0.415264 0.299537 0.363755
Si Si3 0.079248 0.524340 0.824383
Si Si4 0.202786 0.958957 0.597745
Si Si5 0.325621 0.616629 0.173731
Si Si6 0.083409 0.697504 0.471224
O O1 0.128515 0.906675 0.181888
O O2 0.000000 0.886635 0.083615
O O3 0.109519 0.841031 0.973620
O O4 0.083107 0.922837 0.875486
O O5 0.500000 0.299395 0.379556
O O6 0.389118 0.250000 0.414494
O O7 0.402020 0.305886 0.168549
O O8 0.134986 0.518016 0.681596
O O9 0.000000 0.512672 0.773332
O O10 0.091754 0.500000 0.000000
O O11 0.250000 0.942805 0.750000
O O12 0.184652 0.918015 0.477066
O O13 0.239898 0.000000 0.500000
O O14 0.250000 0.627709 0.250000
O O15 0.369081 0.660837 0.119475
O O16 0.095847 0.750000 0.422676
O O17 0.000000 0.688647 0.445709
#
# Coordination Sequence:
#
# PCOD9538205 Si02
#       6
#    16  16  16  16  16  16
#     4  10  20  36  58  84 117 154 190 235 297 363
#     4   8  15  31  57  85 110 143 190 235 277 339
#     4  10  21  38  61  89 119 148 188 247 307 359
#     4  12  25  43  65  85 116 163 210 250 298 363
#     4  12  25  38  57  87 123 158 203 258 304 350
#     4   9  19  38  63  89 119 159 204 246 297 365
#
# _framework density 21.070194000000001
#
# number of rings (size 3 to 8) (size 9 to 14) (size 15 to 20)
#    0.000    1.833    0.000    5.500    0.000    4.000 
#    0.000    1.667    0.000    2.500    0.000    0.000 
#    0.000    0.000    0.000    0.000    0.000    0.000 
#
# Total GULP energy -268231.164876 kJ/mol
# GULP energy per Si atom -5588.149268 kJ/mol
# Density = 2.102224 g / cm^3
# Si number density = 21.070194 Si / 1000 Ang^3
#
#
#
# Elastic Constant Matrix: (Units=GPa)
#
#
# Indices 1 2 3 4 5 6 
#
# 1 87.0875 19.2054 29.6065 0.0000 -0.0001 0.0000
# 2 19.2054 87.2287 21.3072 0.0000 0.0000 0.0000
# 3 29.6065 21.3072 57.4323 -0.0001 -0.0002 -0.0001
# 4 0.0000 0.0000 -0.0001 38.4903 0.0000 0.0000
# 5 -0.0001 0.0000 -0.0002 0.0000 39.1518 0.0000
# 6 0.0000 0.0000 -0.0001 0.0000 0.0000 17.3748
#
#
#
# Elastic Compliance Matrix: (Units=1/GPa)
#
#
# Indices 1 2 3 4 5 6 
#
# 1 0.014090 -0.001460 -0.006722 0.000000 0.000000 0.000000
# 2 -0.001460 0.012758 -0.003980 0.000000 0.000000 0.000000
# 3 -0.006722 -0.003980 0.022354 0.000000 0.000000 0.000000
# 4 0.000000 0.000000 0.000000 0.025981 0.000000 0.000000
# 5 0.000000 0.000000 0.000000 0.000000 0.025542 0.000000
# 6 0.000000 0.000000 0.000000 0.000000 0.000000 0.057554
#
#
# Mechanical properties :
#
#
# Convention : Reuss Voigt Hill
#
# Bulk Modulus (GPa) = 40.19818 41.33186 40.76502
# Shear Modulus (GPa) = 26.19245 29.77866 27.98556
#
# Velocity S-wave (km/s) = 3.52959 3.76348 3.64841
# Velocity P-wave (km/s) = 5.97749 6.20837 6.09402
#
# Compressibility (1/GPa) = 0.02487675
#
# Stress axis : x y z
#
# Youngs Moduli (GPa) = 70.97310 78.38267 44.73572
#
# Poissons Ratio (x) = 0.11447 0.30069
# Poissons Ratio (y) = 0.10364 0.17806
# Poissons Ratio (z) = 0.47705 0.31199
#
# Static dielectric constant tensor:
#      x y z
#    x 1.783170 0.000000 0.000000 
#    y 0.000000 1.783780 0.000000 
#    z 0.000000 0.000000 1.749280 
# 
# From -- ./inp_files/12661.got.cif
#   From: 2010.05.17/outbox.cif.g08.bks.cpg/sg74_7_cif.got.tgz:12661.got - 2010.06.03 17:57:02.
