data_PCOD9538515
_publ_section_title
;
Structure prediction by ZEFSAII (Michael W. Deem and Ramdas Pophale) SiO2 
 PCOD9538515
Probable space group: I M M A
;
_chemical_formula_sum "Si O2"
_cell_formula_units_Z 112
_cell_length_a 15.024007
_cell_length_b 30.178716
_cell_length_c 12.578287
_cell_angle_alpha 90.000000
_cell_angle_beta 90.000000
_cell_angle_gamma 90.000000
_cell_volume 5703.061241
_symmetry_space_group_name_H-M "I M M A"
_symmetry_group_IT_number 74
_symmetry_cell_setting 'orthorhombic'
loop_
_space_group_symop_operation_xyz
x,y,z
-x,1/2-y,z
x,-y,-z
-x,1/2+y,-z
-x,-y,-z
x,1/2+y,-z
-x,y,z
x,1/2-y,z
1/2+x,1/2+y,1/2+z
1/2-x,-y,1/2+z
1/2+x,1/2-y,1/2-z
1/2-x,y,1/2-z
1/2-x,1/2-y,1/2-z
1/2+x,y,1/2-z
1/2-x,1/2+y,1/2+z
1/2+x,-y,1/2+z
loop_
_atom_site_type_symbol
_atom_site_label
_atom_site_fract_x
_atom_site_fract_y
_atom_site_fract_z
Si Si1 0.268497 0.200484 0.126038
Si Si2 0.892891 0.897371 0.056426
Si Si3 0.604201 0.074997 0.325376
Si Si4 0.102865 0.956159 0.449803
Si Si5 0.150372 0.975083 0.214589
Si Si6 0.104082 0.200308 0.969493
Si Si7 0.108174 0.619122 0.602318
O O1 0.304168 0.250000 0.109162
O O2 0.250000 0.194207 0.250000
O O3 0.340004 0.164648 0.091535
O O4 0.174580 0.198311 0.064834
O O5 0.853056 0.935489 0.130363
O O6 0.878458 0.846173 0.091434
O O7 0.000000 0.904739 0.058155
O O8 0.859730 0.904594 0.935006
O O9 0.500000 0.086062 0.325940
O O10 0.636342 0.094876 0.213015
O O11 0.612598 0.021759 0.325917
O O12 0.104494 0.959311 0.323678
O O13 0.137736 0.912230 0.504875
O O14 0.000000 0.956586 0.485916
O O15 0.146817 0.000000 0.500000
O O16 0.250000 0.984652 0.250000
O O17 0.114471 0.250000 0.919941
O O18 0.000000 0.197590 0.003817
O O19 0.000000 0.624937 0.602727
#
# Coordination Sequence:
#
# PCOD9538515 Si02
#       7
#    16  16  16  16  16  16  16
#     4  10  21  35  55  85 120 154 187 237 293 345
#     4  10  21  37  60  84 110 145 188 243 293 337
#     4  10  20  38  58  80 113 153 192 233 287 338
#     4  10  20  39  60  76 108 157 201 233 274 343
#     4  12  25  35  52  83 118 150 192 238 286 338
#     4   9  19  37  60  83 110 148 190 237 298 356
#     4  10  21  37  61  86 114 159 200 235 283 343
#
# _framework density 19.638576
#
# number of rings (size 3 to 8) (size 9 to 14) (size 15 to 20)
#    0.000    1.857    1.429    2.571    2.000    6.000 
#    0.000    1.429    0.000    1.286    0.000    2.000 
#    0.000    0.000    0.000    0.000    0.000    0.000 
#
# Total GULP energy -312329.261743 kJ/mol
# GULP energy per Si atom -5577.308245 kJ/mol
# Density = 1.959388 g / cm^3
# Si number density = 19.638576 Si / 1000 Ang^3
#
#
#
# Elastic Constant Matrix: (Units=GPa)
#
#
# Indices 1 2 3 4 5 6 
#
# 1 36.5865 15.9849 -4.1830 -0.0001 0.0000 0.0000
# 2 15.9849 157.6043 40.1109 0.0000 0.0000 0.0000
# 3 -4.1830 40.1109 43.1018 0.0003 0.0000 0.0000
# 4 -0.0001 0.0000 0.0003 25.0442 0.0000 0.0000
# 5 0.0000 0.0000 0.0000 0.0000 1.4007 0.0000
# 6 0.0000 0.0000 0.0000 0.0000 0.0000 28.5429
#
#
#
# Elastic Compliance Matrix: (Units=1/GPa)
#
#
# Indices 1 2 3 4 5 6 
#
# 1 0.030399 -0.005024 0.007626 0.000000 -0.000001 0.000000
# 2 -0.005024 0.009144 -0.008997 0.000000 0.000000 0.000000
# 3 0.007626 -0.008997 0.032314 0.000000 -0.000001 0.000000
# 4 0.000000 0.000000 0.000000 0.039929 0.000000 0.000000
# 5 -0.000001 0.000000 -0.000001 0.000000 0.713924 0.000000
# 6 0.000000 0.000000 0.000000 0.000000 0.000000 0.035035
#
#
# Mechanical properties :
#
#
# Convention : Reuss Voigt Hill
#
# Bulk Modulus (GPa) = 16.93014 37.90202 27.41608
# Shear Modulus (GPa) = 5.59768 23.35621 14.47695
#
# Velocity S-wave (km/s) = 1.69013 3.45237 2.71803
# Velocity P-wave (km/s) = 3.52821 5.93578 4.88271
#
# Compressibility (1/GPa) = 0.05906625
#
# Stress axis : x y z
#
# Youngs Moduli (GPa) = 32.89541 109.35585 30.94621
#
# Poissons Ratio (x) = 0.54940 -0.23598
# Poissons Ratio (y) = 0.16527 0.27844
# Poissons Ratio (z) = -0.25085 0.98393
#
# Static dielectric constant tensor:
#      x y z
#    x 1.799980 0.000000 0.000000 
#    y 0.000000 1.724910 0.000000 
#    z 0.000000 0.000000 1.680690 
# 
# From -- ./inp_files/21121.got.cif
#   From: 2010.05.17/outbox.cif.g08.bks.cpg/sg74_11_cif.got.tgz:21121.got - 2010.06.03 17:57:02.
