data_PCOD9538801
_publ_section_title
;
Structure prediction by ZEFSAII (Michael W. Deem and Ramdas Pophale) SiO2 
 PCOD9538801
Probable space group: I M M A
;
_chemical_formula_sum "Si O2"
_cell_formula_units_Z 96
_cell_length_a 7.850133
_cell_length_b 19.307349
_cell_length_c 33.986485
_cell_angle_alpha 90.000000
_cell_angle_beta 90.000000
_cell_angle_gamma 90.000000
_cell_volume 5151.170351
_symmetry_space_group_name_H-M "I M M A"
_symmetry_group_IT_number 74
_symmetry_cell_setting 'orthorhombic'
loop_
_space_group_symop_operation_xyz
x,y,z
-x,1/2-y,z
x,-y,-z
-x,1/2+y,-z
-x,-y,-z
x,1/2+y,-z
-x,y,z
x,1/2-y,z
1/2+x,1/2+y,1/2+z
1/2-x,-y,1/2+z
1/2+x,1/2-y,1/2-z
1/2-x,y,1/2-z
1/2-x,1/2-y,1/2-z
1/2+x,y,1/2-z
1/2-x,1/2+y,1/2+z
1/2+x,-y,1/2+z
loop_
_atom_site_type_symbol
_atom_site_label
_atom_site_fract_x
_atom_site_fract_y
_atom_site_fract_z
Si Si1 0.704792 0.541159 0.871578
Si Si2 0.207837 0.405475 0.584297
Si Si3 0.704325 0.670888 0.007353
Si Si4 0.707676 0.172444 0.836341
Si Si5 0.704689 0.034743 0.794368
Si Si6 0.202310 0.671927 0.919707
O O1 0.500000 0.537051 0.870994
O O2 0.765313 0.481495 0.901935
O O3 0.765785 0.517977 0.828282
O O4 0.750067 0.616618 0.886826
O O5 0.269189 0.377719 0.542368
O O6 0.253147 0.352913 0.619661
O O7 0.000000 0.407336 0.583091
O O8 0.500000 0.673871 0.011487
O O9 0.769556 0.750000 0.011344
O O10 0.740962 0.647321 0.963038
O O11 0.500000 0.173758 0.835031
O O12 0.768669 0.250000 0.828061
O O13 0.765415 0.111800 0.806878
O O14 0.500000 0.036262 0.796873
O O15 0.750000 0.017052 0.750000
O O16 0.272287 0.750000 0.913698
O O17 0.000000 0.676580 0.920542
#
# Coordination Sequence:
#
# PCOD9538801 Si02
#       6
#    16  16  16  16  16  16
#     4   9  18  33  51  70  92 119 153 191 229 270
#     4   8  14  25  43  68  95 123 159 199 229 254
#     4   9  16  27  46  70  94 124 161 195 225 259
#     4   8  13  23  41  66  96 128 161 195 226 255
#     4   9  18  31  48  71  96 122 152 187 228 272
#     4  10  21  35  49  67  92 120 149 185 232 282
#
# _framework density 18.636541000000001
#
# number of rings (size 3 to 8) (size 9 to 14) (size 15 to 20)
#    0.000    3.167    0.000    3.000    0.000    4.667 
#    0.000    4.167    0.000    1.500    0.000    0.000 
#    0.000    0.000    0.000    0.000    0.000    0.000 
#
# Total GULP energy -267498.419286 kJ/mol
# GULP energy per Si atom -5572.883735 kJ/mol
# Density = 1.859412 g / cm^3
# Si number density = 18.636541 Si / 1000 Ang^3
#
#
#
# Elastic Constant Matrix: (Units=GPa)
#
#
# Indices 1 2 3 4 5 6 
#
# 1 18.2931 6.4464 5.7407 0.0000 0.0000 0.0000
# 2 6.4464 93.8511 90.5143 0.0000 0.0000 0.0000
# 3 5.7407 90.5143 143.9014 0.0000 0.0000 0.0000
# 4 0.0000 0.0000 0.0000 7.3263 0.0000 0.0000
# 5 0.0000 0.0000 0.0000 0.0000 12.8385 0.0000
# 6 0.0000 0.0000 0.0000 0.0000 0.0000 2.3896
#
#
#
# Elastic Compliance Matrix: (Units=1/GPa)
#
#
# Indices 1 2 3 4 5 6 
#
# 1 0.056034 -0.004304 0.000472 0.000000 0.000000 0.000000
# 2 -0.004304 0.027418 -0.017074 0.000000 0.000000 0.000000
# 3 0.000472 -0.017074 0.017670 0.000000 0.000000 0.000000
# 4 0.000000 0.000000 0.000000 0.136495 0.000000 0.000000
# 5 0.000000 0.000000 0.000000 0.000000 0.077891 0.000000
# 6 0.000000 0.000000 0.000000 0.000000 0.000000 0.418479
#
#
# Mechanical properties :
#
#
# Convention : Reuss Voigt Hill
#
# Bulk Modulus (GPa) = 16.86072 51.27204 34.06638
# Shear Modulus (GPa) = 6.28481 14.73383 10.50932
#
# Velocity S-wave (km/s) = 1.83838 2.81479 2.37725
# Velocity P-wave (km/s) = 3.68415 6.17538 5.08470
#
# Compressibility (1/GPa) = 0.05930945
#
# Stress axis : x y z
#
# Youngs Moduli (GPa) = 17.84629 36.47229 56.59251
#
# Poissons Ratio (x) = 0.15697 -0.02670
# Poissons Ratio (y) = 0.07681 0.96628
# Poissons Ratio (z) = -0.00842 0.62274
#
# Static dielectric constant tensor:
#      x y z
#    x 1.691510 0.000000 0.000000 
#    y 0.000000 1.660740 0.000000 
#    z 0.000000 0.000000 1.634360 
# 
# From -- ./inp_files/64331.got.cif
#   From: 2010.05.17/outbox.cif.g08.bks.cpg/sg74_33_cif.got.tgz:64331.got - 2010.06.03 17:57:02.
