data_PCOD9538630
_publ_section_title
;
Structure prediction by ZEFSAII (Michael W. Deem and Ramdas Pophale) SiO2 
 PCOD9538630
Probable space group: I M M A
;
_chemical_formula_sum "Si O2"
_cell_formula_units_Z 96
_cell_length_a 17.251325
_cell_length_b 28.401829
_cell_length_c 11.131871
_cell_angle_alpha 90.000000
_cell_angle_beta 90.000000
_cell_angle_gamma 90.000000
_cell_volume 5454.273735
_symmetry_space_group_name_H-M "I M M A"
_symmetry_group_IT_number 74
_symmetry_cell_setting 'orthorhombic'
loop_
_space_group_symop_operation_xyz
x,y,z
-x,1/2-y,z
x,-y,-z
-x,1/2+y,-z
-x,-y,-z
x,1/2+y,-z
-x,y,z
x,1/2-y,z
1/2+x,1/2+y,1/2+z
1/2-x,-y,1/2+z
1/2+x,1/2-y,1/2-z
1/2-x,y,1/2-z
1/2-x,1/2-y,1/2-z
1/2+x,y,1/2-z
1/2-x,1/2+y,1/2+z
1/2+x,-y,1/2+z
loop_
_atom_site_type_symbol
_atom_site_label
_atom_site_fract_x
_atom_site_fract_y
_atom_site_fract_z
Si Si1 0.703025 0.638323 0.366483
Si Si2 0.835944 0.971557 0.716218
Si Si3 0.913199 0.569430 0.261441
Si Si4 0.843021 0.368125 0.244306
Si Si5 0.152742 0.401562 0.490578
Si Si6 0.090342 0.805759 0.966448
O O1 0.750000 0.656567 0.250000
O O2 0.649398 0.595800 0.319988
O O3 0.766495 0.618134 0.458633
O O4 0.647530 0.675733 0.429915
O O5 0.750000 0.988341 0.750000
O O6 0.852413 0.923526 0.791207
O O7 0.835872 0.950542 0.581256
O O8 0.894077 0.014103 0.733210
O O9 0.901603 0.590018 0.395997
O O10 0.000000 0.577820 0.219192
O O11 0.750000 0.359737 0.250000
O O12 0.873577 0.367394 0.381897
O O13 0.884633 0.333909 0.153103
O O14 0.099491 0.750000 0.949194
O O15 0.000000 0.815282 0.994162
#
# Coordination Sequence:
#
# PCOD9538630 Si02
#       6
#    16  16  16  16  16  16
#     4  10  20  39  59  78 107 144 194 228 262 319
#     4   9  17  32  53  77 108 143 185 224 263 315
#     4  11  22  31  48  81 115 152 183 219 269 322
#     4   9  18  36  58  83 106 141 184 224 269 326
#     4   9  18  34  57  78 106 142 185 226 266 310
#     4  11  23  39  60  85 113 141 171 227 297 337
#
# _framework density 17.600877000000001
#
# number of rings (size 3 to 8) (size 9 to 14) (size 15 to 20)
#    1.000    1.167    1.667    2.500    0.000    3.333 
#    0.000    0.833    0.000    5.000    0.000    9.333 
#    0.000    0.000    0.000    0.000    0.000    0.000 
#
# Total GULP energy -267314.872948 kJ/mol
# GULP energy per Si atom -5569.059853 kJ/mol
# Density = 1.756082 g / cm^3
# Si number density = 17.600877 Si / 1000 Ang^3
#
#
#
# Elastic Constant Matrix: (Units=GPa)
#
#
# Indices 1 2 3 4 5 6 
#
# 1 85.5096 49.2814 31.7913 -0.0002 0.0000 -0.0001
# 2 49.2814 86.0329 39.5092 -0.0006 0.0001 -0.0003
# 3 31.7913 39.5092 75.5384 -0.0013 0.0006 -0.0011
# 4 -0.0002 -0.0006 -0.0013 12.0741 0.0001 -0.0005
# 5 0.0000 0.0001 0.0006 0.0001 14.4560 0.0003
# 6 -0.0001 -0.0003 -0.0011 -0.0005 0.0003 34.4193
#
#
#
# Elastic Compliance Matrix: (Units=1/GPa)
#
#
# Indices 1 2 3 4 5 6 
#
# 1 0.017915 -0.008949 -0.002859 0.000000 0.000000 0.000000
# 2 -0.008949 0.019768 -0.006573 0.000000 0.000000 0.000000
# 3 -0.002859 -0.006573 0.017880 0.000002 -0.000001 0.000000
# 4 0.000000 0.000000 0.000002 0.082822 0.000000 0.000001
# 5 0.000000 0.000000 -0.000001 0.000000 0.069176 -0.000001
# 6 0.000000 0.000000 0.000000 0.000001 -0.000001 0.029053
#
#
# Mechanical properties :
#
#
# Convention : Reuss Voigt Hill
#
# Bulk Modulus (GPa) = 53.19082 54.24942 53.72012
# Shear Modulus (GPa) = 17.87987 20.62313 19.25150
#
# Velocity S-wave (km/s) = 3.19070 3.42674 3.31082
# Velocity P-wave (km/s) = 6.62271 6.82244 6.72331
#
# Compressibility (1/GPa) = 0.01880024
#
# Stress axis : x y z
#
# Youngs Moduli (GPa) = 55.81843 50.58581 55.92974
#
# Poissons Ratio (x) = 0.45270 0.15991
# Poissons Ratio (y) = 0.49953 0.36764
# Poissons Ratio (z) = 0.15959 0.33251
#
# Static dielectric constant tensor:
#      x y z
#    x 1.587920 0.000000 0.000000 
#    y 0.000000 1.577180 0.000000 
#    z 0.000000 0.000000 1.624900 
# 
# From -- ./inp_files/22664.got.cif
#   From: 2010.05.17/outbox.cif.g08.bks.cpg/sg74_12_cif.got.tgz:22664.got - 2010.06.03 17:57:02.
