data_PCOD9538062
_publ_section_title
;
Structure prediction by ZEFSAII (Michael W. Deem and Ramdas Pophale) SiO2 
 PCOD9538062
Probable space group: I M M A
;
_chemical_formula_sum "Si O2"
_cell_formula_units_Z 72
_cell_length_a 15.468891
_cell_length_b 8.938184
_cell_length_c 25.748638
_cell_angle_alpha 90.000000
_cell_angle_beta 90.000000
_cell_angle_gamma 90.000000
_cell_volume 3560.104381
_symmetry_space_group_name_H-M "I M M A"
_symmetry_group_IT_number 74
_symmetry_cell_setting 'orthorhombic'
loop_
_space_group_symop_operation_xyz
x,y,z
-x,1/2-y,z
x,-y,-z
-x,1/2+y,-z
-x,-y,-z
x,1/2+y,-z
-x,y,z
x,1/2-y,z
1/2+x,1/2+y,1/2+z
1/2-x,-y,1/2+z
1/2+x,1/2-y,1/2-z
1/2-x,y,1/2-z
1/2-x,1/2-y,1/2-z
1/2+x,y,1/2-z
1/2-x,1/2+y,1/2+z
1/2+x,-y,1/2+z
loop_
_atom_site_type_symbol
_atom_site_label
_atom_site_fract_x
_atom_site_fract_y
_atom_site_fract_z
Si Si1 0.644244 0.921223 0.749181
Si Si2 0.124340 0.424371 0.643876
Si Si3 0.332736 0.418690 0.645888
Si Si4 0.000000 0.067634 0.440775
Si Si5 0.598046 0.424819 0.450927
O O1 0.615628 0.750000 0.741185
O O2 0.750000 0.917608 0.750000
O O3 0.606232 0.987560 0.802425
O O4 0.628157 0.028945 0.700556
O O5 0.097068 0.250000 0.645311
O O6 0.228619 0.421321 0.644235
O O7 0.080815 0.506040 0.594315
O O8 0.360923 0.250000 0.633418
O O9 0.359970 0.535045 0.602750
O O10 0.000000 0.250000 0.442950
O O11 0.000000 0.000000 0.500000
O O12 0.643293 0.500000 0.500000
O O13 0.500000 0.484230 0.447944
O O14 0.595930 0.250000 0.459646
#
# Coordination Sequence:
#
# PCOD9538062 Si02
#       5
#    16  16  16   8  16
#     4   9  17  32  56  85 116 148 184 231 285 340
#     4  10  21  39  61  86 117 152 192 239 293 348
#     4  10  20  35  59  88 117 152 193 238 289 348
#     4  12  26  44  64  86 116 156 201 250 301 352
#     4  10  21  37  56  79 111 149 188 234 285 339
#
# _framework density 20.224126999999999
#
# number of rings (size 3 to 8) (size 9 to 14) (size 15 to 20)
#    0.000    2.000    0.000    3.667    0.000    7.556 
#    2.000    0.000    0.000    0.000    0.000    0.000 
#    0.000    0.000    0.000    0.000    0.000    0.000 
#
# Total GULP energy -200781.046584 kJ/mol
# GULP energy per Si atom -5577.251294 kJ/mol
# Density = 2.017810 g / cm^3
# Si number density = 20.224127 Si / 1000 Ang^3
#
#
#
# Elastic Constant Matrix: (Units=GPa)
#
#
# Indices 1 2 3 4 5 6 
#
# 1 36.8835 17.1742 25.8557 0.0000 0.0000 0.0000
# 2 17.1742 118.5322 44.4064 0.0000 0.0000 0.0000
# 3 25.8557 44.4064 141.8663 0.0000 0.0000 0.0000
# 4 0.0000 0.0000 0.0000 41.1578 0.0000 0.0000
# 5 0.0000 0.0000 0.0000 0.0000 21.6014 0.0000
# 6 0.0000 0.0000 0.0000 0.0000 0.0000 21.4834
#
#
#
# Elastic Compliance Matrix: (Units=1/GPa)
#
#
# Indices 1 2 3 4 5 6 
#
# 1 0.031864 -0.002765 -0.004942 0.000000 0.000000 0.000000
# 2 -0.002765 0.009797 -0.002563 0.000000 0.000000 0.000000
# 3 -0.004942 -0.002563 0.008752 0.000000 0.000000 0.000000
# 4 0.000000 0.000000 0.000000 0.024297 0.000000 0.000000
# 5 0.000000 0.000000 0.000000 0.000000 0.046293 0.000000
# 6 0.000000 0.000000 0.000000 0.000000 0.000000 0.046548
#
#
# Mechanical properties :
#
#
# Convention : Reuss Voigt Hill
#
# Bulk Modulus (GPa) = 33.47451 52.46162 42.96806
# Shear Modulus (GPa) = 25.24633 30.83823 28.04228
#
# Velocity S-wave (km/s) = 3.53700 3.90914 3.72771
# Velocity P-wave (km/s) = 5.76786 6.80967 6.31030
#
# Compressibility (1/GPa) = 0.02987347
#
# Stress axis : x y z
#
# Youngs Moduli (GPa) = 31.38308 102.06905 114.26345
#
# Poissons Ratio (x) = 0.28227 0.56466
# Poissons Ratio (y) = 0.08679 0.29282
# Poissons Ratio (z) = 0.15509 0.26157
#
# Static dielectric constant tensor:
#      x y z
#    x 1.785630 0.000000 0.000000 
#    y 0.000000 1.690960 0.000000 
#    z 0.000000 0.000000 1.738450 
# 
# From -- ./inp_files/60616.got.cif
#   From: 2010.05.17/outbox.cif.g08.bks.cpg/sg74_31_cif.got.tgz:60616.got - 2010.06.03 17:57:02.
