data_PCOD9538876
_publ_section_title
;
Structure prediction by ZEFSAII (Michael W. Deem and Ramdas Pophale) SiO2 
 PCOD9538876
Probable space group: I M M A
;
_chemical_formula_sum "Si O2"
_cell_formula_units_Z 80
_cell_length_a 26.817821
_cell_length_b 17.221547
_cell_length_c 7.603308
_cell_angle_alpha 90.000000
_cell_angle_beta 90.000000
_cell_angle_gamma 90.000000
_cell_volume 3511.544954
_symmetry_space_group_name_H-M "I M M A"
_symmetry_group_IT_number 74
_symmetry_cell_setting 'orthorhombic'
loop_
_space_group_symop_operation_xyz
x,y,z
-x,1/2-y,z
x,-y,-z
-x,1/2+y,-z
-x,-y,-z
x,1/2+y,-z
-x,y,z
x,1/2-y,z
1/2+x,1/2+y,1/2+z
1/2-x,-y,1/2+z
1/2+x,1/2-y,1/2-z
1/2-x,y,1/2-z
1/2-x,1/2-y,1/2-z
1/2+x,y,1/2-z
1/2-x,1/2+y,1/2+z
1/2+x,-y,1/2+z
loop_
_atom_site_type_symbol
_atom_site_label
_atom_site_fract_x
_atom_site_fract_y
_atom_site_fract_z
Si Si1 0.604957 0.003161 0.287824
Si Si2 0.197776 0.161028 0.679320
Si Si3 0.206120 0.560642 0.633514
Si Si4 0.908279 0.336066 0.812545
Si Si5 0.441182 0.665420 0.718435
O O1 0.662735 0.014500 0.233870
O O2 0.580194 0.082786 0.220664
O O3 0.601729 0.000000 0.500000
O O4 0.580643 0.920817 0.228048
O O5 0.207885 0.250000 0.638091
O O6 0.250000 0.128093 0.750000
O O7 0.182064 0.122757 0.496358
O O8 0.152250 0.159084 0.816196
O O9 0.231095 0.500000 0.500000
O O10 0.250000 0.594869 0.750000
O O11 0.920376 0.250000 0.733504
O O12 0.930804 0.334919 0.007578
O O13 0.500000 0.665094 0.749292
O O14 0.421162 0.750000 0.782479
#
# Coordination Sequence:
#
# PCOD9538876 Si02
#       5
#    16  16  16  16  16
#     4  10  21  35  58  88 117 154 201 247 304 354
#     4  10  22  39  58  81 117 160 202 248 301 359
#     4  12  24  36  56  82 121 161 207 249 298 358
#     4   9  18  34  55  79 115 155 193 239 298 352
#     4   9  19  36  61  91 120 152 196 251 305 361
#
# _framework density 22.781994999999998
#
# number of rings (size 3 to 8) (size 9 to 14) (size 15 to 20)
#    0.000    2.000    2.000    1.200    5.600    4.800 
#    0.000    0.000    0.000    1.800    0.000    2.800 
#    0.000    0.000    0.000    0.000    0.000    0.000 
#
# Total GULP energy -222758.485453 kJ/mol
# GULP energy per Si atom -5568.962136 kJ/mol
# Density = 2.273014 g / cm^3
# Si number density = 22.781995 Si / 1000 Ang^3
#
#
#
# Elastic Constant Matrix: (Units=GPa)
#
#
# Indices 1 2 3 4 5 6 
#
# 1 34.8182 23.5087 3.2636 0.0000 0.0000 0.0000
# 2 23.5087 209.9762 11.8359 0.0000 0.0000 0.0000
# 3 3.2636 11.8359 34.3347 0.0000 0.0000 0.0000
# 4 0.0000 0.0000 0.0000 12.6454 0.0000 0.0000
# 5 0.0000 0.0000 0.0000 0.0000 14.8827 0.0000
# 6 0.0000 0.0000 0.0000 0.0000 0.0000 29.9134
#
#
#
# Elastic Compliance Matrix: (Units=1/GPa)
#
#
# Indices 1 2 3 4 5 6 
#
# 1 0.031177 -0.003389 -0.001795 0.000000 0.000000 0.000000
# 2 -0.003389 0.005225 -0.001479 0.000000 0.000000 0.000000
# 3 -0.001795 -0.001479 0.029806 0.000000 0.000000 0.000000
# 4 0.000000 0.000000 0.000000 0.079080 0.000000 0.000000
# 5 0.000000 0.000000 0.000000 0.000000 0.067192 0.000000
# 6 0.000000 0.000000 0.000000 0.000000 0.000000 0.033430
#
#
# Mechanical properties :
#
#
# Convention : Reuss Voigt Hill
#
# Bulk Modulus (GPa) = 18.91039 39.59396 29.25218
# Shear Modulus (GPa) = 18.05940 27.52304 22.79122
#
# Velocity S-wave (km/s) = 2.81856 3.47955 3.16635
# Velocity P-wave (km/s) = 4.34867 5.79312 5.12207
#
# Compressibility (1/GPa) = 0.05288098
#
# Stress axis : x y z
#
# Youngs Moduli (GPa) = 32.07458 191.37686 33.55083
#
# Poissons Ratio (x) = 0.64865 0.06023
# Poissons Ratio (y) = 0.10871 0.04962
# Poissons Ratio (z) = 0.05758 0.28306
#
# Static dielectric constant tensor:
#      x y z
#    x 1.832620 0.000000 0.000000 
#    y 0.000000 1.982780 0.000000 
#    z 0.000000 0.000000 1.827560 
# 
# From -- ./inp_files/16014.got.cif
#   From: 2010.05.17/outbox.cif.g08.bks.cpg/sg74_9_cif.got.tgz:16014.got - 2010.06.03 17:57:02.
