data_PCOD9538798
_publ_section_title
;
Structure prediction by ZEFSAII (Michael W. Deem and Ramdas Pophale) SiO2 
 PCOD9538798
Probable space group: I M M A
;
_chemical_formula_sum "Si O2"
_cell_formula_units_Z 96
_cell_length_a 9.750896
_cell_length_b 14.887994
_cell_length_c 32.394281
_cell_angle_alpha 90.000000
_cell_angle_beta 90.000000
_cell_angle_gamma 90.000000
_cell_volume 4702.719274
_symmetry_space_group_name_H-M "I M M A"
_symmetry_group_IT_number 74
_symmetry_cell_setting 'orthorhombic'
loop_
_space_group_symop_operation_xyz
x,y,z
-x,1/2-y,z
x,-y,-z
-x,1/2+y,-z
-x,-y,-z
x,1/2+y,-z
-x,y,z
x,1/2-y,z
1/2+x,1/2+y,1/2+z
1/2-x,-y,1/2+z
1/2+x,1/2-y,1/2-z
1/2-x,y,1/2-z
1/2-x,1/2-y,1/2-z
1/2+x,y,1/2-z
1/2-x,1/2+y,1/2+z
1/2+x,-y,1/2+z
loop_
_atom_site_type_symbol
_atom_site_label
_atom_site_fract_x
_atom_site_fract_y
_atom_site_fract_z
Si Si1 0.158007 0.392888 0.121216
Si Si2 0.657899 0.890513 0.287716
Si Si3 0.157417 0.391047 0.879955
Si Si4 0.154085 0.143549 0.542124
Si Si5 0.156097 0.643470 0.969088
Si Si6 0.339794 0.109587 0.288487
O O1 0.154887 0.500743 0.121553
O O2 0.217559 0.367068 0.076913
O O3 0.213415 0.363314 0.165870
O O4 0.000000 0.360410 0.120209
O O5 0.500000 0.865111 0.281498
O O6 0.750000 0.858914 0.250000
O O7 0.698016 0.860731 0.333855
O O8 0.662882 0.000076 0.287758
O O9 0.261923 0.365500 0.915530
O O10 0.000000 0.361585 0.888459
O O11 0.140700 0.250000 0.534494
O O12 0.246881 0.106277 0.504864
O O13 0.000000 0.105411 0.544374
O O14 0.143041 0.750000 0.976208
O O15 0.000000 0.605364 0.970096
O O16 0.500000 0.135298 0.284748
O O17 0.250000 0.141132 0.250000
#
# Coordination Sequence:
#
# PCOD9538798 Si02
#       6
#    16  16  16  16  16  16
#     4   8  15  28  46  69  94 117 146 188 228 256
#     4   8  14  24  40  63  89 116 144 176 215 257
#     4   9  17  30  48  69  92 118 149 184 221 262
#     4  10  21  35  48  64  89 118 146 182 228 271
#     4   9  17  31  51  69  85 115 157 189 217 263
#     4   8  13  23  39  60  88 118 146 177 215 258
#
# _framework density 20.413720000000001
#
# number of rings (size 3 to 8) (size 9 to 14) (size 15 to 20)
#    0.000    3.333    0.000    2.500    0.000    2.333 
#    0.000    7.500    0.000    1.000    0.000    0.000 
#    0.000    0.000    0.000    0.000    0.000    0.000 
#
# Total GULP energy -267464.685434 kJ/mol
# GULP energy per Si atom -5572.180947 kJ/mol
# Density = 2.036726 g / cm^3
# Si number density = 20.413720 Si / 1000 Ang^3
#
#
#
# Elastic Constant Matrix: (Units=GPa)
#
#
# Indices 1 2 3 4 5 6 
#
# 1 102.1282 3.6815 118.8511 0.0000 0.0000 0.0000
# 2 3.6815 47.9415 -0.0589 0.0000 0.0000 0.0000
# 3 118.8511 -0.0589 231.3072 0.0000 0.0000 0.0000
# 4 0.0000 0.0000 0.0000 34.2547 0.0000 0.0000
# 5 0.0000 0.0000 0.0000 0.0000 30.3879 0.0000
# 6 0.0000 0.0000 0.0000 0.0000 0.0000 19.7446
#
#
#
# Elastic Compliance Matrix: (Units=1/GPa)
#
#
# Indices 1 2 3 4 5 6 
#
# 1 0.024526 -0.001899 -0.012603 0.000000 0.000000 0.000000
# 2 -0.001899 0.021006 0.000981 0.000000 0.000000 0.000000
# 3 -0.012603 0.000981 0.010799 0.000000 0.000000 0.000000
# 4 0.000000 0.000000 0.000000 0.029193 0.000000 0.000000
# 5 0.000000 0.000000 0.000000 0.000000 0.032908 0.000000
# 6 0.000000 0.000000 0.000000 0.000000 0.000000 0.050647
#
#
# Mechanical properties :
#
#
# Convention : Reuss Voigt Hill
#
# Bulk Modulus (GPa) = 34.14122 69.59158 51.86640
# Shear Modulus (GPa) = 24.28555 34.13764 29.21160
#
# Velocity S-wave (km/s) = 3.45290 4.09380 3.78693
# Velocity P-wave (km/s) = 5.71469 7.51733 6.67712
#
# Compressibility (1/GPa) = 0.02929011
#
# Stress axis : x y z
#
# Youngs Moduli (GPa) = 40.77227 47.60591 92.60030
#
# Poissons Ratio (x) = 0.09040 1.16702
# Poissons Ratio (y) = 0.07742 -0.09085
# Poissons Ratio (z) = 0.51384 -0.04670
#
# Static dielectric constant tensor:
#      x y z
#    x 1.709190 0.000000 0.000000 
#    y 0.000000 1.778810 0.000000 
#    z 0.000000 0.000000 1.747410 
# 
# From -- ./inp_files/64662.got.cif
#   From: 2010.05.17/outbox.cif.g08.bks.cpg/sg74_33_cif.got.tgz:64662.got - 2010.06.03 17:57:02.
