data_PCOD9538720
_publ_section_title
;
Structure prediction by ZEFSAII (Michael W. Deem and Ramdas Pophale) SiO2 
 PCOD9538720
Probable space group: I M M A
;
_chemical_formula_sum "Si O2"
_cell_formula_units_Z 104
_cell_length_a 21.996622
_cell_length_b 15.455622
_cell_length_c 15.536215
_cell_angle_alpha 90.000000
_cell_angle_beta 90.000000
_cell_angle_gamma 90.000000
_cell_volume 5281.869928
_symmetry_space_group_name_H-M "I M M A"
_symmetry_group_IT_number 74
_symmetry_cell_setting 'orthorhombic'
loop_
_space_group_symop_operation_xyz
x,y,z
-x,1/2-y,z
x,-y,-z
-x,1/2+y,-z
-x,-y,-z
x,1/2+y,-z
-x,y,z
x,1/2-y,z
1/2+x,1/2+y,1/2+z
1/2-x,-y,1/2+z
1/2+x,1/2-y,1/2-z
1/2-x,y,1/2-z
1/2-x,1/2-y,1/2-z
1/2+x,y,1/2-z
1/2-x,1/2+y,1/2+z
1/2+x,-y,1/2+z
loop_
_atom_site_type_symbol
_atom_site_label
_atom_site_fract_x
_atom_site_fract_y
_atom_site_fract_z
Si Si1 0.620289 0.853338 0.997850
Si Si2 0.886089 0.646738 0.300934
Si Si3 0.000000 0.540331 0.247958
Si Si4 0.298614 0.962135 0.310986
Si Si5 0.000000 0.071268 0.075648
Si Si6 0.000000 0.932655 0.577545
Si Si7 0.754769 0.851171 0.025800
Si Si8 0.867902 0.079128 0.068257
O O1 0.617801 0.750000 0.995054
O O2 0.611064 0.879440 0.098297
O O3 0.564494 0.884574 0.939154
O O4 0.690885 0.878122 0.981026
O O5 0.887862 0.750000 0.297355
O O6 0.828540 0.610035 0.250205
O O7 0.942560 0.603073 0.254048
O O8 0.000000 0.483235 0.163234
O O9 0.000000 0.477981 0.330608
O O10 0.250000 0.007807 0.250000
O O11 0.268964 0.913541 0.393188
O O12 0.347638 0.030901 0.344785
O O13 0.935152 0.119401 0.071248
O O14 0.000000 0.000000 0.000000
O O15 0.000000 0.000000 0.500000
O O16 0.748780 0.750000 0.052697
O O17 0.812651 0.861639 0.963570
O O18 0.871144 0.000000 0.000000
#
# Coordination Sequence:
#
# PCOD9538720 Si02
#       8
#    16  16   8  16   8   8  16  16
#     4  10  21  38  58  83 125 166 196 241 298 355
#     4  11  21  34  55  88 126 156 186 234 304 373
#     4  12  23  38  59  87 119 159 200 246 295 355
#     4  11  20  33  55  89 119 151 193 242 300 366
#     4  10  20  41  62  79 112 150 202 252 308 351
#     4  12  23  35  57  90 122 162 210 242 280 359
#     4  10  21  37  58  85 117 156 199 246 303 363
#     4   9  20  36  58  81 111 151 195 243 293 360
#
# _framework density 19.689997000000002
#
# number of rings (size 3 to 8) (size 9 to 14) (size 15 to 20)
#    0.000    1.538    4.615    0.923    0.000    4.923 
#    0.000    0.385    0.000    2.308    0.000    0.000 
#    0.000    0.000    0.000    0.000    0.000    0.000 
#
# Total GULP energy -289972.096489 kJ/mol
# GULP energy per Si atom -5576.386471 kJ/mol
# Density = 1.964518 g / cm^3
# Si number density = 19.689997 Si / 1000 Ang^3
#
#
#
# Elastic Constant Matrix: (Units=GPa)
#
#
# Indices 1 2 3 4 5 6 
#
# 1 157.4794 14.2993 23.1053 0.0000 0.0000 0.0000
# 2 14.2993 19.6926 5.0268 0.0000 0.0000 0.0000
# 3 23.1053 5.0268 77.5146 0.0000 0.0000 0.0000
# 4 0.0000 0.0000 0.0000 22.9975 0.0000 0.0000
# 5 0.0000 0.0000 0.0000 0.0000 24.2418 0.0000
# 6 0.0000 0.0000 0.0000 0.0000 0.0000 26.8441
#
#
#
# Elastic Compliance Matrix: (Units=1/GPa)
#
#
# Indices 1 2 3 4 5 6 
#
# 1 0.007036 -0.004651 -0.001796 0.000000 0.000000 0.000000
# 2 -0.004651 0.054709 -0.002162 0.000000 0.000000 0.000000
# 3 -0.001796 -0.002162 0.013576 0.000000 0.000000 0.000000
# 4 0.000000 0.000000 0.000000 0.043483 0.000000 0.000000
# 5 0.000000 0.000000 0.000000 0.000000 0.041251 0.000000
# 6 0.000000 0.000000 0.000000 0.000000 0.000000 0.037252
#
#
# Mechanical properties :
#
#
# Convention : Reuss Voigt Hill
#
# Bulk Modulus (GPa) = 17.21002 37.72771 27.46887
# Shear Modulus (GPa) = 21.37744 28.96703 25.17223
#
# Velocity S-wave (km/s) = 3.29857 3.83972 3.57939
# Velocity P-wave (km/s) = 4.82358 6.23381 5.57348
#
# Compressibility (1/GPa) = 0.05810569
#
# Stress axis : x y z
#
# Youngs Moduli (GPa) = 142.13098 18.27844 73.65829
#
# Poissons Ratio (x) = 0.08500 0.13226
# Poissons Ratio (y) = 0.66098 0.15922
# Poissons Ratio (z) = 0.25521 0.03951
#
# Static dielectric constant tensor:
#      x y z
#    x 1.795810 0.000000 0.000000 
#    y 0.000000 1.656270 0.000000 
#    z 0.000000 0.000000 1.679230 
# 
# From -- ./inp_files/35523.got.cif
#   From: 2010.05.17/outbox.cif.g08.bks.cpg/sg74_18_cif.got.tgz:35523.got - 2010.06.03 17:57:02.
