data_PCOD9538282
_publ_section_title
;
Structure prediction by ZEFSAII (Michael W. Deem and Ramdas Pophale) SiO2 
 PCOD9538282
Probable space group: I M M A
;
_chemical_formula_sum "Si O2"
_cell_formula_units_Z 88
_cell_length_a 9.591805
_cell_length_b 23.106922
_cell_length_c 19.956419
_cell_angle_alpha 90.000000
_cell_angle_beta 90.000000
_cell_angle_gamma 90.000000
_cell_volume 4423.082633
_symmetry_space_group_name_H-M "I M M A"
_symmetry_group_IT_number 74
_symmetry_cell_setting 'orthorhombic'
loop_
_space_group_symop_operation_xyz
x,y,z
-x,1/2-y,z
x,-y,-z
-x,1/2+y,-z
-x,-y,-z
x,1/2+y,-z
-x,y,z
x,1/2-y,z
1/2+x,1/2+y,1/2+z
1/2-x,-y,1/2+z
1/2+x,1/2-y,1/2-z
1/2-x,y,1/2-z
1/2-x,1/2-y,1/2-z
1/2+x,y,1/2-z
1/2-x,1/2+y,1/2+z
1/2+x,-y,1/2+z
loop_
_atom_site_type_symbol
_atom_site_label
_atom_site_fract_x
_atom_site_fract_y
_atom_site_fract_z
Si Si1 0.663576 0.839399 0.413982
Si Si2 0.842211 0.022147 0.924027
Si Si3 0.844719 0.349454 0.309386
Si Si4 0.653317 0.513918 0.807579
Si Si5 0.328227 0.750000 0.177531
Si Si6 0.343934 0.817633 0.569783
O O1 0.500000 0.824591 0.399221
O O2 0.674696 0.908934 0.414557
O O3 0.767065 0.805184 0.364573
O O4 0.690714 0.822438 0.491376
O O5 0.728589 0.992972 0.877833
O O6 0.000000 0.006997 0.902085
O O7 0.828322 0.000000 0.000000
O O8 0.750000 0.324104 0.250000
O O9 0.858896 0.417714 0.294669
O O10 0.766500 0.344322 0.379911
O O11 0.000000 0.324358 0.311357
O O12 0.500000 0.487780 0.807157
O O13 0.750000 0.487601 0.750000
O O14 0.500000 0.750000 0.181894
O O15 0.250000 0.750000 0.250000
O O16 0.500000 0.843176 0.579074
O O17 0.350056 0.750000 0.586452
#
# Coordination Sequence:
#
# PCOD9538282 Si02
#       6
#    16  16  16  16   8  16
#     4  10  21  41  65  90 123 159 200 250 305 367
#     4  10  21  37  62  93 123 159 201 246 301 367
#     4  10  21  36  55  81 114 154 197 241 288 341
#     4  10  21  37  57  81 114 153 193 239 290 346
#     4  12  26  44  68  94 123 162 211 264 320 378
#     4  10  20  36  60  84 111 150 191 237 291 345
#
# _framework density 19.895627000000001
#
# number of rings (size 3 to 8) (size 9 to 14) (size 15 to 20)
#    0.000    1.818    0.909    3.000    0.000    6.909 
#    0.000    0.000    0.000    0.000    0.000    0.000 
#    0.000    0.000    0.000    0.000    0.000    0.000 
#
# Total GULP energy -245525.842341 kJ/mol
# GULP energy per Si atom -5580.132780 kJ/mol
# Density = 1.985034 g / cm^3
# Si number density = 19.895627 Si / 1000 Ang^3
#
#
#
# Elastic Constant Matrix: (Units=GPa)
#
#
# Indices 1 2 3 4 5 6 
#
# 1 189.2276 26.9753 103.7488 0.0000 0.0000 0.0000
# 2 26.9753 49.8766 5.8606 0.0000 0.0000 0.0000
# 3 103.7488 5.8606 103.2995 0.0000 0.0000 0.0000
# 4 0.0000 0.0000 0.0000 22.8779 0.0000 0.0000
# 5 0.0000 0.0000 0.0000 0.0000 20.1263 0.0000
# 6 0.0000 0.0000 0.0000 0.0000 0.0000 29.2844
#
#
#
# Elastic Compliance Matrix: (Units=1/GPa)
#
#
# Indices 1 2 3 4 5 6 
#
# 1 0.013149 -0.005597 -0.012889 0.000000 0.000000 0.000000
# 2 -0.005597 0.022567 0.004341 0.000000 0.000000 0.000000
# 3 -0.012889 0.004341 0.022379 0.000000 0.000000 0.000000
# 4 0.000000 0.000000 0.000000 0.043710 0.000000 0.000000
# 5 0.000000 0.000000 0.000000 0.000000 0.049686 0.000000
# 6 0.000000 0.000000 0.000000 0.000000 0.000000 0.034148
#
#
# Mechanical properties :
#
#
# Convention : Reuss Voigt Hill
#
# Bulk Modulus (GPa) = 33.55100 68.39700 50.97400
# Shear Modulus (GPa) = 22.33500 28.17898 25.25699
#
# Velocity S-wave (km/s) = 3.35417 3.76751 3.56683
# Velocity P-wave (km/s) = 5.64807 7.30603 6.52988
#
# Compressibility (1/GPa) = 0.02980537
#
# Stress axis : x y z
#
# Youngs Moduli (GPa) = 76.05059 44.31339 44.68445
#
# Poissons Ratio (x) = 0.24803 0.57593
# Poissons Ratio (y) = 0.42567 -0.19398
# Poissons Ratio (z) = 0.98020 -0.19237
#
# Static dielectric constant tensor:
#      x y z
#    x 1.733610 0.000000 0.000000 
#    y 0.000000 1.793010 0.000000 
#    z 0.000000 0.000000 1.669680 
# 
# From -- ./inp_files/48753.got.cif
#   From: 2010.05.17/outbox.cif.g08.bks.cpg/sg74_25_cif.got.tgz:48753.got - 2010.06.03 17:57:02.
