data_PCOD9538614
_publ_section_title
;
Structure prediction by ZEFSAII (Michael W. Deem and Ramdas Pophale) SiO2 
 PCOD9538614
Probable space group: I M M A
;
_chemical_formula_sum "Si O2"
_cell_formula_units_Z 52
_cell_length_a 21.400641
_cell_length_b 14.915083
_cell_length_c 6.802457
_cell_angle_alpha 90.000000
_cell_angle_beta 90.000000
_cell_angle_gamma 90.000000
_cell_volume 2171.292146
_symmetry_space_group_name_H-M "I M M A"
_symmetry_group_IT_number 74
_symmetry_cell_setting 'orthorhombic'
loop_
_space_group_symop_operation_xyz
x,y,z
-x,1/2-y,z
x,-y,-z
-x,1/2+y,-z
-x,-y,-z
x,1/2+y,-z
-x,y,z
x,1/2-y,z
1/2+x,1/2+y,1/2+z
1/2-x,-y,1/2+z
1/2+x,1/2-y,1/2-z
1/2-x,y,1/2-z
1/2-x,1/2-y,1/2-z
1/2+x,y,1/2-z
1/2-x,1/2+y,1/2+z
1/2+x,-y,1/2+z
loop_
_atom_site_type_symbol
_atom_site_label
_atom_site_fract_x
_atom_site_fract_y
_atom_site_fract_z
Si Si1 0.928497 0.858316 0.550424
Si Si2 0.685744 0.857560 0.656163
Si Si3 0.000000 0.750000 0.027700
Si Si4 0.592188 0.912402 0.384160
O O1 0.925810 0.750000 0.508079
O O2 0.872142 0.878142 0.697307
O O3 0.919092 0.911366 0.347939
O O4 0.000000 0.873127 0.620694
O O5 0.690592 0.750000 0.638277
O O6 0.750000 0.890866 0.750000
O O7 0.664081 0.896427 0.447256
O O8 0.946157 0.827448 0.039433
O O9 0.571305 0.000000 0.500000
#
# Coordination Sequence:
#
# PCOD9538614 Si02
#       4
#    16  16   4  16
#     4  10  20  38  67  99 133 174 222 281 344 403
#     4  10  23  43  67  95 134 186 235 282 342 407
#     4  12  22  44  68 100 142 172 224 290 356 414
#     4  12  24  42  69  99 136 178 228 285 352 408
#
# _framework density 23.948872999999999
#
# number of rings (size 3 to 8) (size 9 to 14) (size 15 to 20)
#    0.000    1.231    4.615    0.462    2.154    2.462 
#    5.538    6.154    0.000    0.000    0.000    0.000 
#    0.000    0.000    0.000    0.000    0.000    0.000 
#
# Total GULP energy -145032.867036 kJ/mol
# GULP energy per Si atom -5578.187194 kJ/mol
# Density = 2.389436 g / cm^3
# Si number density = 23.948873 Si / 1000 Ang^3
#
#
#
# Elastic Constant Matrix: (Units=GPa)
#
#
# Indices 1 2 3 4 5 6 
#
# 1 141.7956 2.5424 28.3313 0.0000 0.0000 0.0000
# 2 2.5424 119.9988 5.2350 0.0000 0.0000 0.0000
# 3 28.3313 5.2350 85.3183 0.0000 0.0000 0.0000
# 4 0.0000 0.0000 0.0000 17.7825 0.0000 0.0000
# 5 0.0000 0.0000 0.0000 0.0000 32.8729 0.0000
# 6 0.0000 0.0000 0.0000 0.0000 0.0000 -51.3085
#
#
#
# Elastic Compliance Matrix: (Units=1/GPa)
#
#
# Indices 1 2 3 4 5 6 
#
# 1 0.007554 -0.000051 -0.002505 0.000000 0.000000 0.000000
# 2 -0.000051 0.008356 -0.000496 0.000000 0.000000 0.000000
# 3 -0.002505 -0.000496 0.012583 0.000000 0.000000 0.000000
# 4 0.000000 0.000000 0.000000 0.056235 0.000000 0.000000
# 5 0.000000 0.000000 0.000000 0.000000 0.030420 0.000000
# 6 0.000000 0.000000 0.000000 0.000000 0.000000 -0.019490
#
#
# Mechanical properties :
#
#
# Convention : Reuss Voigt Hill
#
# Bulk Modulus (GPa) = 44.66404 46.59225 45.62815
# Shear Modulus (GPa) = 45.77685 20.60297 33.18991
#
# Velocity S-wave (km/s) = 4.37675 2.93625 3.72676
# Velocity P-wave (km/s) = 6.65067 5.56710 6.13286
#
# Compressibility (1/GPa) = 0.02238937
#
# Stress axis : x y z
#
# Youngs Moduli (GPa) = 132.38236 119.67270 79.47133
#
# Poissons Ratio (x) = 0.00607 0.19910
# Poissons Ratio (y) = 0.00672 0.03941
# Poissons Ratio (z) = 0.33165 0.05934
#
# Static dielectric constant tensor:
#      x y z
#    x 1.894410 0.000000 0.000000 
#    y 0.000000 1.938820 0.000000 
#    z 0.000000 0.000000 2.017460 
# 
# From -- ./inp_files/11587.got.cif
#   From: 2010.05.17/outbox.cif.g08.bks.cpg/sg74_6_cif.got.tgz:11587.got - 2010.06.03 17:57:02.
