data_PCOD9538113
_publ_section_title
;
Structure prediction by ZEFSAII (Michael W. Deem and Ramdas Pophale) SiO2 
 PCOD9538113
Probable space group: I M M A
;
_chemical_formula_sum "Si O2"
_cell_formula_units_Z 72
_cell_length_a 22.529706
_cell_length_b 25.956003
_cell_length_c 6.283840
_cell_angle_alpha 90.000000
_cell_angle_beta 90.000000
_cell_angle_gamma 90.000000
_cell_volume 3674.670971
_symmetry_space_group_name_H-M "I M M A"
_symmetry_group_IT_number 74
_symmetry_cell_setting 'orthorhombic'
loop_
_space_group_symop_operation_xyz
x,y,z
-x,1/2-y,z
x,-y,-z
-x,1/2+y,-z
-x,-y,-z
x,1/2+y,-z
-x,y,z
x,1/2-y,z
1/2+x,1/2+y,1/2+z
1/2-x,-y,1/2+z
1/2+x,1/2-y,1/2-z
1/2-x,y,1/2-z
1/2-x,1/2-y,1/2-z
1/2+x,y,1/2-z
1/2-x,1/2+y,1/2+z
1/2+x,-y,1/2+z
loop_
_atom_site_type_symbol
_atom_site_label
_atom_site_fract_x
_atom_site_fract_y
_atom_site_fract_z
Si Si1 0.151835 0.626993 0.439959
Si Si2 0.826960 0.942404 0.054082
Si Si3 0.432360 0.189752 0.633204
Si Si4 0.431884 0.901364 0.685231
Si Si5 0.250000 0.370027 0.250000
O O1 0.177830 0.581328 0.290105
O O2 0.116765 0.666739 0.290761
O O3 0.103805 0.601202 0.595933
O O4 0.202888 0.653966 0.583719
O O5 0.895481 0.936490 0.979879
O O6 0.791102 0.904702 0.899901
O O7 0.807312 0.000000 0.000000
O O8 0.500000 0.182887 0.719086
O O9 0.423242 0.250000 0.593906
O O10 0.429555 0.155664 0.419945
O O11 0.500000 0.916490 0.710417
#
# Coordination Sequence:
#
# PCOD9538113 Si02
#       5
#    16  16  16  16   8
#     4  10  20  36  54  81 113 149 185 234 284 328
#     4  10  22  36  56  80 106 143 190 232 278 331
#     4   9  18  34  58  85 112 147 191 233 276 333
#     4   9  19  35  54  80 114 145 180 228 282 338
#     4  10  22  34  55  78 110 146 189 236 280 326
#
# _framework density 19.593592000000001
#
# number of rings (size 3 to 8) (size 9 to 14) (size 15 to 20)
#    0.000    2.444    0.000    1.333    3.111    4.889 
#    0.000    3.889    0.000   17.333    0.000    0.000 
#    0.000    0.000    0.000    0.000    0.000    0.000 
#
# Total GULP energy -200620.749818 kJ/mol
# GULP energy per Si atom -5572.798606 kJ/mol
# Density = 1.954900 g / cm^3
# Si number density = 19.593592 Si / 1000 Ang^3
#
#
#
# Elastic Constant Matrix: (Units=GPa)
#
#
# Indices 1 2 3 4 5 6 
#
# 1 94.9272 -4.3340 34.9099 0.0000 0.0000 0.0000
# 2 -4.3340 49.7338 8.6517 0.0000 0.0000 0.0000
# 3 34.9099 8.6517 95.0058 0.0000 0.0000 0.0000
# 4 0.0000 0.0000 0.0000 -0.7480 0.0000 0.0000
# 5 0.0000 0.0000 0.0000 0.0000 40.9333 0.0000
# 6 0.0000 0.0000 0.0000 0.0000 0.0000 10.4040
#
#
#
# Elastic Compliance Matrix: (Units=1/GPa)
#
#
# Indices 1 2 3 4 5 6 
#
# 1 0.012354 0.001896 -0.004712 0.000000 0.000000 0.000000
# 2 0.001896 0.020722 -0.002584 0.000000 0.000000 0.000000
# 3 -0.004712 -0.002584 0.012492 0.000000 0.000000 0.000000
# 4 0.000000 0.000000 0.000000 -1.336887 0.000000 0.000000
# 5 0.000000 0.000000 0.000000 0.000000 0.024430 0.000000
# 6 0.000000 0.000000 0.000000 0.000000 0.000000 0.096117
#
#
# Mechanical properties :
#
#
# Convention : Reuss Voigt Hill
#
# Bulk Modulus (GPa) = 28.76142 35.34689 32.05416
# Shear Modulus (GPa) = -4.35395 23.48048 9.56327
#
# Velocity S-wave (km/s) = -1.49230 3.46551 2.21165
# Velocity P-wave (km/s) = 3.42660 5.83885 4.78716
#
# Compressibility (1/GPa) = 0.03476879
#
# Stress axis : x y z
#
# Youngs Moduli (GPa) = 80.94633 48.25835 80.04839
#
# Poissons Ratio (x) = -0.09151 0.37720
# Poissons Ratio (y) = -0.15350 0.20683
# Poissons Ratio (z) = 0.38143 0.12469
#
# Static dielectric constant tensor:
#      x y z
#    x 1.750400 0.000000 0.000000 
#    y 0.000000 1.652580 0.000000 
#    z 0.000000 0.000000 1.711640 
# 
# From -- ./inp_files/3740.got.cif
#   From: 2010.05.17/outbox.cif.g08.bks.cpg/sg74_2_cif.got.tgz:3740.got - 2010.06.03 17:57:02.
