data_PCOD9538392
_publ_section_title
;
Structure prediction by ZEFSAII (Michael W. Deem and Ramdas Pophale) SiO2 
 PCOD9538392
Probable space group: I M M A
;
_chemical_formula_sum "Si O2"
_cell_formula_units_Z 96
_cell_length_a 19.239859
_cell_length_b 28.796008
_cell_length_c 9.904754
_cell_angle_alpha 90.000000
_cell_angle_beta 90.000000
_cell_angle_gamma 90.000000
_cell_volume 5487.542087
_symmetry_space_group_name_H-M "I M M A"
_symmetry_group_IT_number 74
_symmetry_cell_setting 'orthorhombic'
loop_
_space_group_symop_operation_xyz
x,y,z
-x,1/2-y,z
x,-y,-z
-x,1/2+y,-z
-x,-y,-z
x,1/2+y,-z
-x,y,z
x,1/2-y,z
1/2+x,1/2+y,1/2+z
1/2-x,-y,1/2+z
1/2+x,1/2-y,1/2-z
1/2-x,y,1/2-z
1/2-x,1/2-y,1/2-z
1/2+x,y,1/2-z
1/2-x,1/2+y,1/2+z
1/2+x,-y,1/2+z
loop_
_atom_site_type_symbol
_atom_site_label
_atom_site_fract_x
_atom_site_fract_y
_atom_site_fract_z
Si Si1 0.582860 0.055449 0.502323
Si Si2 0.320174 0.801301 0.160968
Si Si3 0.577357 0.946274 0.036053
Si Si4 0.333819 0.899378 0.254988
Si Si5 0.420411 0.114167 0.234184
Si Si6 0.180723 0.302945 0.339767
O O1 0.500000 0.060713 0.533681
O O2 0.631878 0.081420 0.609123
O O3 0.595952 0.080179 0.358800
O O4 0.596705 0.000000 0.500000
O O5 0.353826 0.750000 0.172311
O O6 0.250000 0.798855 0.250000
O O7 0.357740 0.846663 0.219769
O O8 0.305863 0.809492 0.001089
O O9 0.500000 0.937891 0.095424
O O10 0.583388 0.916185 0.901292
O O11 0.636303 0.931771 0.138337
O O12 0.581820 0.000000 0.000000
O O13 0.250000 0.900108 0.250000
O O14 0.500000 0.129908 0.251763
O O15 0.371267 0.158183 0.214510
O O16 0.154036 0.250000 0.324826
O O17 0.250000 0.306355 0.250000
#
# Coordination Sequence:
#
# PCOD9538392 Si02
#       6
#    16  16  16  16  16  16
#     4  10  22  41  61  80 111 157 197 229 277 343
#     4   9  19  36  56  83 116 150 187 225 280 343
#     4  10  20  37  59  80 109 150 193 230 274 341
#     4  11  22  35  57  89 115 146 184 236 291 325
#     4  10  21  36  57  84 112 147 189 238 283 324
#     4  10  21  37  60  86 113 151 190 229 283 345
#
# _framework density 17.494171999999999
#
# number of rings (size 3 to 8) (size 9 to 14) (size 15 to 20)
#    0.000    2.000    1.667    1.500    4.667    3.667 
#    0.000    1.667    0.000    3.000    0.000    0.000 
#    0.000    0.000    0.000    0.000    0.000    0.000 
#
# Total GULP energy -267557.136252 kJ/mol
# GULP energy per Si atom -5574.107005 kJ/mol
# Density = 1.745435 g / cm^3
# Si number density = 17.494172 Si / 1000 Ang^3
#
#
#
# Elastic Constant Matrix: (Units=GPa)
#
#
# Indices 1 2 3 4 5 6 
#
# 1 63.4042 48.3371 36.7345 0.0000 0.0000 0.0000
# 2 48.3371 105.4664 15.8764 -0.0001 0.0000 0.0000
# 3 36.7345 15.8764 71.8040 -0.0004 0.0000 0.0000
# 4 0.0000 -0.0001 -0.0004 52.2777 0.0000 0.0000
# 5 0.0000 0.0000 0.0000 0.0000 27.0397 0.0000
# 6 0.0000 0.0000 0.0000 0.0000 0.0000 33.5094
#
#
#
# Elastic Compliance Matrix: (Units=1/GPa)
#
#
# Indices 1 2 3 4 5 6 
#
# 1 0.034784 -0.013720 -0.014762 0.000000 0.000000 0.000000
# 2 -0.013720 0.015220 0.003654 0.000000 0.000000 0.000000
# 3 -0.014762 0.003654 0.020671 0.000000 0.000000 0.000000
# 4 0.000000 0.000000 0.000000 0.019129 0.000000 0.000000
# 5 0.000000 0.000000 0.000000 0.000000 0.036983 0.000000
# 6 0.000000 0.000000 0.000000 0.000000 0.000000 0.029842
#
#
# Mechanical properties :
#
#
# Convention : Reuss Voigt Hill
#
# Bulk Modulus (GPa) = 47.57596 49.17454 48.37525
# Shear Modulus (GPa) = 23.44229 31.88046 27.66137
#
# Velocity S-wave (km/s) = 3.66458 4.27353 3.98071
# Velocity P-wave (km/s) = 6.72011 7.24713 6.98859
#
# Compressibility (1/GPa) = 0.02101902
#
# Stress axis : x y z
#
# Youngs Moduli (GPa) = 28.74901 65.70417 48.37731
#
# Poissons Ratio (x) = 0.90145 0.71413
# Poissons Ratio (y) = 0.39443 -0.17676
# Poissons Ratio (z) = 0.42438 -0.24007
#
# Static dielectric constant tensor:
#      x y z
#    x 1.568850 0.000000 0.000000 
#    y 0.000000 1.602700 0.000000 
#    z 0.000000 0.000000 1.605770 
# 
# From -- ./inp_files/12640.got.cif
#   From: 2010.05.17/outbox.cif.g08.bks.cpg/sg74_7_cif.got.tgz:12640.got - 2010.06.03 17:57:02.
