data_PCOD9538654
_publ_section_title
;
Structure prediction by ZEFSAII (Michael W. Deem and Ramdas Pophale) SiO2 
 PCOD9538654
Probable space group: I M M A
;
_chemical_formula_sum "Si O2"
_cell_formula_units_Z 88
_cell_length_a 15.258500
_cell_length_b 12.338748
_cell_length_c 24.272628
_cell_angle_alpha 90.000000
_cell_angle_beta 90.000000
_cell_angle_gamma 90.000000
_cell_volume 4569.826761
_symmetry_space_group_name_H-M "I M M A"
_symmetry_group_IT_number 74
_symmetry_cell_setting 'orthorhombic'
loop_
_space_group_symop_operation_xyz
x,y,z
-x,1/2-y,z
x,-y,-z
-x,1/2+y,-z
-x,-y,-z
x,1/2+y,-z
-x,y,z
x,1/2-y,z
1/2+x,1/2+y,1/2+z
1/2-x,-y,1/2+z
1/2+x,1/2-y,1/2-z
1/2-x,y,1/2-z
1/2-x,1/2-y,1/2-z
1/2+x,y,1/2-z
1/2-x,1/2+y,1/2+z
1/2+x,-y,1/2+z
loop_
_atom_site_type_symbol
_atom_site_label
_atom_site_fract_x
_atom_site_fract_y
_atom_site_fract_z
Si Si1 0.400706 0.750000 0.642993
Si Si2 0.000000 0.123075 0.846591
Si Si3 0.351328 0.250000 0.232570
Si Si4 0.856220 0.028725 0.335809
Si Si5 0.755711 0.500000 0.500000
Si Si6 0.597726 0.873565 0.951269
Si Si7 0.330274 0.986597 0.617701
Si Si8 0.500000 0.624859 0.214414
O O1 0.500000 0.750000 0.622313
O O2 0.401375 0.750000 0.709512
O O3 0.353838 0.859480 0.623599
O O4 0.000000 0.119268 0.780415
O O5 0.000000 0.250000 0.863523
O O6 0.913462 0.059443 0.866788
O O7 0.250000 0.250000 0.250000
O O8 0.367540 0.359167 0.197999
O O9 0.889695 0.052349 0.397681
O O10 0.754095 0.997497 0.342658
O O11 0.915073 0.937618 0.308143
O O12 0.823981 0.598886 0.507558
O O13 0.699325 0.491340 0.555106
O O14 0.500000 0.887031 0.974534
O O15 0.606100 0.750000 0.932490
O O16 0.500000 0.750000 0.197323
#
# Coordination Sequence:
#
# PCOD9538654 Si02
#       8
#     8   8   8  16   8  16  16   8
#     4  12  24  40  66  99 143 162 216 275 342 399
#     4  11  26  46  64  90 129 174 234 272 315 384
#     4  12  22  34  64 114 136 175 201 270 351 412
#     4  11  22  39  67 101 144 167 217 263 337 408
#     4  10  25  39  66  88 130 172 216 262 344 376
#     4  10  20  39  64  97 132 166 211 271 328 401
#     4  11  24  45  65  97 128 173 219 282 330 394
#     4  11  26  43  64  95 137 191 222 259 319 400
#
# _framework density 19.256748000000002
#
# number of rings (size 3 to 8) (size 9 to 14) (size 15 to 20)
#    0.000    1.091    4.545    1.364    5.091    1.818 
#    0.000    4.545    0.000    0.000    0.000    0.000 
#    0.000    0.000    0.000    0.000    0.000    0.000 
#
# Total GULP energy -245851.699881 kJ/mol
# GULP energy per Si atom -5587.538634 kJ/mol
# Density = 1.921292 g / cm^3
# Si number density = 19.256748 Si / 1000 Ang^3
#
#
#
# Elastic Constant Matrix: (Units=GPa)
#
#
# Indices 1 2 3 4 5 6 
#
# 1 163.8376 86.1059 48.9907 0.0000 0.0000 0.0000
# 2 86.1059 152.2619 58.6219 0.0000 0.0000 0.0000
# 3 48.9907 58.6219 99.6138 0.0000 0.0000 0.0000
# 4 0.0000 0.0000 0.0000 28.2243 0.0000 0.0000
# 5 0.0000 0.0000 0.0000 0.0000 7.6092 0.0000
# 6 0.0000 0.0000 0.0000 0.0000 0.0000 23.2526
#
#
#
# Elastic Compliance Matrix: (Units=1/GPa)
#
#
# Indices 1 2 3 4 5 6 
#
# 1 0.008938 -0.004347 -0.001837 0.000000 0.000000 0.000000
# 2 -0.004347 0.010606 -0.004104 0.000000 0.000000 0.000000
# 3 -0.001837 -0.004104 0.013357 0.000000 0.000000 0.000000
# 4 0.000000 0.000000 0.000000 0.035430 0.000000 0.000000
# 5 0.000000 0.000000 0.000000 0.000000 0.131419 0.000000
# 6 0.000000 0.000000 0.000000 0.000000 0.000000 0.043006
#
#
# Mechanical properties :
#
#
# Convention : Reuss Voigt Hill
#
# Bulk Modulus (GPa) = 81.13672 89.23891 85.18781
# Shear Modulus (GPa) = 18.69574 26.61688 22.65631
#
# Velocity S-wave (km/s) = 3.11925 3.72184 3.43379
# Velocity P-wave (km/s) = 7.42958 8.05678 7.74953
#
# Compressibility (1/GPa) = 0.01232488
#
# Stress axis : x y z
#
# Youngs Moduli (GPa) = 111.88739 94.28863 74.86513
#
# Poissons Ratio (x) = 0.40986 0.13756
# Poissons Ratio (y) = 0.48636 0.30721
# Poissons Ratio (z) = 0.20559 0.38692
#
# Static dielectric constant tensor:
#      x y z
#    x 1.737460 0.000000 0.000000 
#    y 0.000000 1.665610 0.000000 
#    z 0.000000 0.000000 1.670950 
# 
# From -- ./inp_files/59882.got.cif
#   From: 2010.05.17/outbox.cif.g08.bks.cpg/sg74_30_cif.got.tgz:59882.got - 2010.06.03 17:57:02.
