data_PCOD9538288
_publ_section_title
;
Structure prediction by ZEFSAII (Michael W. Deem and Ramdas Pophale) SiO2 
 PCOD9538288
Probable space group: I M M A
;
_chemical_formula_sum "Si O2"
_cell_formula_units_Z 80
_cell_length_a 25.901234
_cell_length_b 15.243780
_cell_length_c 9.401480
_cell_angle_alpha 90.000000
_cell_angle_beta 90.000000
_cell_angle_gamma 90.000000
_cell_volume 3712.011853
_symmetry_space_group_name_H-M "I M M A"
_symmetry_group_IT_number 74
_symmetry_cell_setting 'orthorhombic'
loop_
_space_group_symop_operation_xyz
x,y,z
-x,1/2-y,z
x,-y,-z
-x,1/2+y,-z
-x,-y,-z
x,1/2+y,-z
-x,y,z
x,1/2-y,z
1/2+x,1/2+y,1/2+z
1/2-x,-y,1/2+z
1/2+x,1/2-y,1/2-z
1/2-x,y,1/2-z
1/2-x,1/2-y,1/2-z
1/2+x,y,1/2-z
1/2-x,1/2+y,1/2+z
1/2+x,-y,1/2+z
loop_
_atom_site_type_symbol
_atom_site_label
_atom_site_fract_x
_atom_site_fract_y
_atom_site_fract_z
Si Si1 0.256905 0.849293 0.404278
Si Si2 0.340477 0.594786 0.942234
Si Si3 0.941438 0.644080 0.393251
Si Si4 0.941494 0.856867 0.068446
Si Si5 0.344684 0.357319 0.382690
O O1 0.276501 0.750000 0.375259
O O2 0.250000 0.892691 0.250000
O O3 0.202242 0.845162 0.482868
O O4 0.298872 0.886813 0.512473
O O5 0.338552 0.604785 0.773939
O O6 0.325740 0.500000 0.000000
O O7 0.397820 0.613841 0.999105
O O8 0.941422 0.750000 0.394009
O O9 0.929154 0.615892 0.230828
O O10 0.000000 0.615473 0.427195
O O11 0.941349 0.750000 0.069401
O O12 0.000000 0.884670 0.034392
O O13 0.898495 0.883794 0.956179
O O14 0.343310 0.250000 0.369805
#
# Coordination Sequence:
#
# PCOD9538288 Si02
#       5
#    16  16  16  16  16
#     4  10  21  39  63  85 107 142 191 243 289 338
#     4  12  25  37  52  80 119 156 186 225 280 342
#     4   9  18  36  61  83 107 145 192 238 282 332
#     4   8  15  31  58  88 110 133 177 236 290 336
#     4  10  20  36  60  86 112 144 187 238 284 333
#
# _framework density 21.551655
#
# number of rings (size 3 to 8) (size 9 to 14) (size 15 to 20)
#    0.000    2.200    0.000    4.800    0.000    7.600 
#    0.000    5.000    0.000    2.400    0.000    0.000 
#    0.000    0.000    0.000    0.000    0.000    0.000 
#
# Total GULP energy -223454.136832 kJ/mol
# GULP energy per Si atom -5586.353421 kJ/mol
# Density = 2.150260 g / cm^3
# Si number density = 21.551655 Si / 1000 Ang^3
#
#
#
# Elastic Constant Matrix: (Units=GPa)
#
#
# Indices 1 2 3 4 5 6 
#
# 1 119.9533 6.9993 112.2297 0.0000 0.0000 0.0000
# 2 6.9993 46.8512 21.6910 0.0000 0.0000 0.0000
# 3 112.2297 21.6910 219.8094 0.0000 0.0000 0.0000
# 4 0.0000 0.0000 0.0000 28.6408 0.0000 0.0000
# 5 0.0000 0.0000 0.0000 0.0000 -57.2319 0.0000
# 6 0.0000 0.0000 0.0000 0.0000 0.0000 -24.0844
#
#
#
# Elastic Compliance Matrix: (Units=1/GPa)
#
#
# Indices 1 2 3 4 5 6 
#
# 1 0.016057 0.001464 -0.008343 0.000000 0.000000 0.000000
# 2 0.001464 0.022499 -0.002968 0.000000 0.000000 0.000000
# 3 -0.008343 -0.002968 0.009102 0.000000 0.000000 0.000000
# 4 0.000000 0.000000 0.000000 0.034915 0.000000 0.000000
# 5 0.000000 0.000000 0.000000 0.000000 -0.017473 0.000000
# 6 0.000000 0.000000 0.000000 0.000000 0.000000 -0.041521
#
#
# Mechanical properties :
#
#
# Convention : Reuss Voigt Hill
#
# Bulk Modulus (GPa) = 35.75929 74.27267 55.01598
# Shear Modulus (GPa) = 95.06804 5.84451 50.45628
#
# Velocity S-wave (km/s) = 6.64887 1.64856 4.84382
# Velocity P-wave (km/s) = 8.69320 6.17747 7.54098
#
# Compressibility (1/GPa) = 0.02796476
#
# Stress axis : x y z
#
# Youngs Moduli (GPa) = 62.27992 44.44561 109.86905
#
# Poissons Ratio (x) = -0.06505 0.91659
# Poissons Ratio (y) = -0.09115 0.32604
# Poissons Ratio (z) = 0.51957 0.13190
#
# Static dielectric constant tensor:
#      x y z
#    x 1.764050 0.000000 0.000000 
#    y 0.000000 1.855740 0.000000 
#    z 0.000000 0.000000 1.739900 
# 
# From -- ./inp_files/14923.got.cif
#   From: 2010.05.17/outbox.cif.g08.bks.cpg/sg74_8_cif.got.tgz:14923.got - 2010.06.03 17:57:02.
