data_PCOD9538203
_publ_section_title
;
Structure prediction by ZEFSAII (Michael W. Deem and Ramdas Pophale) SiO2 
 PCOD9538203
Probable space group: I M M A
;
_chemical_formula_sum "Si O2"
_cell_formula_units_Z 96
_cell_length_a 15.037543
_cell_length_b 25.790314
_cell_length_c 12.273627
_cell_angle_alpha 90.000000
_cell_angle_beta 90.000000
_cell_angle_gamma 90.000000
_cell_volume 4759.994301
_symmetry_space_group_name_H-M "I M M A"
_symmetry_group_IT_number 74
_symmetry_cell_setting 'orthorhombic'
loop_
_space_group_symop_operation_xyz
x,y,z
-x,1/2-y,z
x,-y,-z
-x,1/2+y,-z
-x,-y,-z
x,1/2+y,-z
-x,y,z
x,1/2-y,z
1/2+x,1/2+y,1/2+z
1/2-x,-y,1/2+z
1/2+x,1/2-y,1/2-z
1/2-x,y,1/2-z
1/2-x,1/2-y,1/2-z
1/2+x,y,1/2-z
1/2-x,1/2+y,1/2+z
1/2+x,-y,1/2+z
loop_
_atom_site_type_symbol
_atom_site_label
_atom_site_fract_x
_atom_site_fract_y
_atom_site_fract_z
Si Si1 0.393599 0.189716 0.185801
Si Si2 0.329463 0.404500 0.328301
Si Si3 0.897043 0.595784 0.287711
Si Si4 0.100957 0.991349 0.120998
Si Si5 0.716489 0.639355 0.010074
Si Si6 0.334554 0.305710 0.669398
O O1 0.500000 0.188139 0.176149
O O2 0.367123 0.250000 0.202756
O O3 0.364092 0.150381 0.281811
O O4 0.349382 0.166667 0.075947
O O5 0.250000 0.421592 0.250000
O O6 0.398551 0.450974 0.329604
O O7 0.281931 0.397645 0.443676
O O8 0.861874 0.549162 0.210179
O O9 0.837400 0.610172 0.393501
O O10 0.892801 0.646962 0.211865
O O11 0.000000 0.585326 0.319362
O O12 0.000000 0.972152 0.102931
O O13 0.140700 0.000000 0.000000
O O14 0.784759 0.681346 0.058196
O O15 0.379946 0.250000 0.669106
O O16 0.250000 0.303578 0.750000
#
# Coordination Sequence:
#
# PCOD9538203 Si02
#       6
#    16  16  16  16  16  16
#     4  10  21  38  60  85 115 153 197 245 299 359
#     4  10  22  36  56  83 111 146 188 238 292 348
#     4  10  21  37  58  85 117 154 195 239 288 346
#     4  10  21  38  58  79 110 151 192 236 288 348
#     4  10  20  36  58  84 114 149 192 241 294 348
#     4   9  18  32  51  78 112 147 185 233 287 343
#
# _framework density 20.168092000000001
#
# number of rings (size 3 to 8) (size 9 to 14) (size 15 to 20)
#    0.000    2.167    0.000    2.500    0.000    8.000 
#    0.000    3.333    0.000    9.000    0.000    0.000 
#    0.000    0.000    0.000    0.000    0.000    0.000 
#
# Total GULP energy -267381.697963 kJ/mol
# GULP energy per Si atom -5570.452041 kJ/mol
# Density = 2.012219 g / cm^3
# Si number density = 20.168092 Si / 1000 Ang^3
#
#
#
# Elastic Constant Matrix: (Units=GPa)
#
#
# Indices 1 2 3 4 5 6 
#
# 1 55.0585 33.3344 29.4974 0.0000 0.0000 0.0000
# 2 33.3344 158.1077 74.9888 0.0000 0.0000 0.0000
# 3 29.4974 74.9888 102.9101 -0.0001 0.0000 0.0000
# 4 0.0000 0.0000 -0.0001 10.9615 0.0000 0.0000
# 5 0.0000 0.0000 0.0000 0.0000 18.9049 0.0000
# 6 0.0000 0.0000 0.0000 0.0000 0.0000 28.1438
#
#
#
# Elastic Compliance Matrix: (Units=1/GPa)
#
#
# Indices 1 2 3 4 5 6 
#
# 1 0.022100 -0.002529 -0.004492 0.000000 0.000000 0.000000
# 2 -0.002529 0.009955 -0.006529 0.000000 0.000000 0.000000
# 3 -0.004492 -0.006529 0.015762 0.000000 0.000000 0.000000
# 4 0.000000 0.000000 0.000000 0.091228 0.000000 0.000000
# 5 0.000000 0.000000 0.000000 0.000000 0.052896 0.000000
# 6 0.000000 0.000000 0.000000 0.000000 0.000000 0.035532
#
#
# Mechanical properties :
#
#
# Convention : Reuss Voigt Hill
#
# Bulk Modulus (GPa) = 48.26817 65.74640 57.00729
# Shear Modulus (GPa) = 19.12207 23.48577 21.30392
#
# Velocity S-wave (km/s) = 3.08252 3.41618 3.25363
# Velocity P-wave (km/s) = 6.05427 6.94481 6.51477
#
# Compressibility (1/GPa) = 0.02071759
#
# Stress axis : x y z
#
# Youngs Moduli (GPa) = 45.24867 100.45661 63.44327
#
# Poissons Ratio (x) = 0.25406 0.28497
# Poissons Ratio (y) = 0.11444 0.41421
# Poissons Ratio (z) = 0.20324 0.65586
#
# Static dielectric constant tensor:
#      x y z
#    x 1.707910 0.000000 0.000000 
#    y 0.000000 1.744950 0.000000 
#    z 0.000000 0.000000 1.681540 
# 
# From -- ./inp_files/22485.got.cif
#   From: 2010.05.17/outbox.cif.g08.bks.cpg/sg74_12_cif.got.tgz:22485.got - 2010.06.03 17:57:02.
