data_PCOD9538064
_publ_section_title
;
Structure prediction by ZEFSAII (Michael W. Deem and Ramdas Pophale) SiO2 
 PCOD9538064
Probable space group: I M M A
;
_chemical_formula_sum "Si O2"
_cell_formula_units_Z 88
_cell_length_a 14.247458
_cell_length_b 17.234515
_cell_length_c 17.451327
_cell_angle_alpha 90.000000
_cell_angle_beta 90.000000
_cell_angle_gamma 90.000000
_cell_volume 4285.138942
_symmetry_space_group_name_H-M "I M M A"
_symmetry_group_IT_number 74
_symmetry_cell_setting 'orthorhombic'
loop_
_space_group_symop_operation_xyz
x,y,z
-x,1/2-y,z
x,-y,-z
-x,1/2+y,-z
-x,-y,-z
x,1/2+y,-z
-x,y,z
x,1/2-y,z
1/2+x,1/2+y,1/2+z
1/2-x,-y,1/2+z
1/2+x,1/2-y,1/2-z
1/2-x,y,1/2-z
1/2-x,1/2-y,1/2-z
1/2+x,y,1/2-z
1/2-x,1/2+y,1/2+z
1/2+x,-y,1/2+z
loop_
_atom_site_type_symbol
_atom_site_label
_atom_site_fract_x
_atom_site_fract_y
_atom_site_fract_z
Si Si1 0.393881 0.342430 0.145201
Si Si2 0.750000 0.935262 0.750000
Si Si3 0.107819 0.442477 0.807830
Si Si4 0.193608 0.906598 0.496420
Si Si5 0.612087 0.839976 0.158500
Si Si6 0.101766 0.907790 0.017760
O O1 0.500000 0.363751 0.167757
O O2 0.384194 0.250000 0.149535
O O3 0.318617 0.384676 0.198171
O O4 0.375245 0.370395 0.058718
O O5 0.816347 0.989526 0.802386
O O6 0.128482 0.384549 0.737968
O O7 0.110415 0.401770 0.890288
O O8 0.000000 0.471107 0.798550
O O9 0.164787 0.880004 0.411785
O O10 0.299960 0.878793 0.515269
O O11 0.190688 0.000000 0.500000
O O12 0.500000 0.843884 0.143728
O O13 0.639028 0.750000 0.164295
O O14 0.000000 0.875419 0.993235
O O15 0.098874 0.000000 0.000000
#
# Coordination Sequence:
#
# PCOD9538064 Si02
#       6
#    16   8  16  16  16  16
#     4  11  25  43  62  87 120 156 193 241 305 371
#     4  12  21  38  63  88 116 148 196 248 301 364
#     4  10  20  35  59  89 119 155 203 255 301 354
#     4  11  21  36  61  90 118 155 205 256 305 362
#     4  10  21  37  57  85 124 167 206 250 311 376
#     4   9  18  34  55  81 114 150 192 244 299 352
#
# _framework density 20.536090000000002
#
# number of rings (size 3 to 8) (size 9 to 14) (size 15 to 20)
#    0.000    1.636    0.000    6.273    0.000    4.364 
#    0.000    5.909    0.000    6.545    0.000    0.000 
#    0.000    0.000    0.000    0.000    0.000    0.000 
#
# Total GULP energy -245937.532111 kJ/mol
# GULP energy per Si atom -5589.489366 kJ/mol
# Density = 2.048935 g / cm^3
# Si number density = 20.536090 Si / 1000 Ang^3
#
#
#
# Elastic Constant Matrix: (Units=GPa)
#
#
# Indices 1 2 3 4 5 6 
#
# 1 128.0714 61.8037 24.1778 0.0000 0.0000 0.0000
# 2 61.8037 71.6571 27.6039 0.0000 0.0000 0.0000
# 3 24.1778 27.6039 63.5502 0.0000 0.0000 0.0000
# 4 0.0000 0.0000 0.0000 22.2337 0.0000 0.0000
# 5 0.0000 0.0000 0.0000 0.0000 36.5449 0.0000
# 6 0.0000 0.0000 0.0000 0.0000 0.0000 41.0355
#
#
#
# Elastic Compliance Matrix: (Units=1/GPa)
#
#
# Indices 1 2 3 4 5 6 
#
# 1 0.013376 -0.011500 -0.000093 0.000000 0.000000 0.000000
# 2 -0.011500 0.026648 -0.007199 0.000000 0.000000 0.000000
# 3 -0.000093 -0.007199 0.018898 0.000000 0.000000 0.000000
# 4 0.000000 0.000000 0.000000 0.044977 0.000000 0.000000
# 5 0.000000 0.000000 0.000000 0.000000 0.027364 0.000000
# 6 0.000000 0.000000 0.000000 0.000000 0.000000 0.024369
#
#
# Mechanical properties :
#
#
# Convention : Reuss Voigt Hill
#
# Bulk Modulus (GPa) = 46.87110 54.49440 50.68275
# Shear Modulus (GPa) = 24.95892 29.94237 27.45064
#
# Velocity S-wave (km/s) = 3.49000 3.82257 3.66006
# Velocity P-wave (km/s) = 6.25407 6.78795 6.52647
#
# Compressibility (1/GPa) = 0.02133511
#
# Stress axis : x y z
#
# Youngs Moduli (GPa) = 74.76356 37.52672 52.91473
#
# Poissons Ratio (x) = 0.43157 0.00494
# Poissons Ratio (y) = 0.85980 0.38096
# Poissons Ratio (z) = 0.00698 0.27017
#
# Static dielectric constant tensor:
#      x y z
#    x 1.778770 0.000000 0.000000 
#    y 0.000000 1.690800 0.000000 
#    z 0.000000 0.000000 1.709760 
# 
# From -- ./inp_files/42816.got.cif
#   From: 2010.05.17/outbox.cif.g08.bks.cpg/sg74_22_cif.got.tgz:42816.got - 2010.06.03 17:57:02.
