data_PCOD9538538
_publ_section_title
;
Structure prediction by ZEFSAII (Michael W. Deem and Ramdas Pophale) SiO2 
 PCOD9538538
Probable space group: I M M A
;
_chemical_formula_sum "Si O2"
_cell_formula_units_Z 68
_cell_length_a 30.171946
_cell_length_b 14.483204
_cell_length_c 8.051144
_cell_angle_alpha 90.000000
_cell_angle_beta 90.000000
_cell_angle_gamma 90.000000
_cell_volume 3518.240827
_symmetry_space_group_name_H-M "I M M A"
_symmetry_group_IT_number 74
_symmetry_cell_setting 'orthorhombic'
loop_
_space_group_symop_operation_xyz
x,y,z
-x,1/2-y,z
x,-y,-z
-x,1/2+y,-z
-x,-y,-z
x,1/2+y,-z
-x,y,z
x,1/2-y,z
1/2+x,1/2+y,1/2+z
1/2-x,-y,1/2+z
1/2+x,1/2-y,1/2-z
1/2-x,y,1/2-z
1/2-x,1/2-y,1/2-z
1/2+x,y,1/2-z
1/2-x,1/2+y,1/2+z
1/2+x,-y,1/2+z
loop_
_atom_site_type_symbol
_atom_site_label
_atom_site_fract_x
_atom_site_fract_y
_atom_site_fract_z
Si Si1 0.697192 0.750000 0.263937
Si Si2 0.587748 0.053170 0.659629
Si Si3 0.109783 0.750000 0.026711
Si Si4 0.000000 0.750000 0.628668
Si Si5 0.000000 0.465326 0.305880
Si Si6 0.653600 0.091211 0.943945
Si Si7 0.898832 0.750000 0.630898
O O1 0.750000 0.750000 0.250000
O O2 0.662737 0.750000 0.422966
O O3 0.682718 0.840435 0.164023
O O4 0.587542 0.160143 0.608248
O O5 0.617484 0.047053 0.821798
O O6 0.606587 0.000000 0.500000
O O7 0.541951 0.007156 0.711316
O O8 0.100712 0.750000 0.830424
O O9 0.000000 0.853514 0.707450
O O10 0.050841 0.750000 0.555981
O O11 0.000000 0.500000 0.500000
O O12 0.627634 0.159139 0.069954
O O13 0.679528 0.000000 0.000000
#
# Coordination Sequence:
#
# PCOD9538538 Si02
#       7
#     8  16   8   4   8  16   8
#     4   9  21  41  61  86 118 148 192 250 305 363
#     4  11  22  37  57  85 118 156 201 247 298 358
#     4  10  22  39  62  83 114 159 192 246 310 360
#     4  12  22  34  56  84 120 158 198 248 284 336
#     4  12  25  37  55  84 119 160 207 253 293 348
#     4  10  20  38  61  84 116 156 195 242 298 360
#     4  11  22  38  59  88 121 160 205 242 294 355
#
# _framework density 19.327840999999999
#
# number of rings (size 3 to 8) (size 9 to 14) (size 15 to 20)
#    0.000    1.412    0.000    7.412    0.000    2.353 
#    0.000    9.412    0.000    0.000    0.000    0.000 
#    0.000    0.000    0.000    0.000    0.000    0.000 
#
# Total GULP energy -189454.178329 kJ/mol
# GULP energy per Si atom -5572.181716 kJ/mol
# Density = 1.928385 g / cm^3
# Si number density = 19.327841 Si / 1000 Ang^3
#
#
#
# Elastic Constant Matrix: (Units=GPa)
#
#
# Indices 1 2 3 4 5 6 
#
# 1 89.6099 24.7600 -2.1964 0.0000 0.0000 0.0000
# 2 24.7600 152.2762 16.7669 0.0000 0.0000 0.0000
# 3 -2.1964 16.7669 72.1259 0.0000 0.0000 0.0000
# 4 0.0000 0.0000 0.0000 7.9506 0.0000 0.0000
# 5 0.0000 0.0000 0.0000 0.0000 3.1426 0.0000
# 6 0.0000 0.0000 0.0000 0.0000 0.0000 -9.4708
#
#
#
# Elastic Compliance Matrix: (Units=1/GPa)
#
#
# Indices 1 2 3 4 5 6 
#
# 1 0.011732 -0.001998 0.000822 0.000000 0.000000 0.000000
# 2 -0.001998 0.007080 -0.001707 0.000000 0.000000 0.000000
# 3 0.000822 -0.001707 0.014286 0.000000 0.000000 0.000000
# 4 0.000000 0.000000 0.000000 0.125776 0.000000 0.000000
# 5 0.000000 0.000000 0.000000 0.000000 0.318204 0.000000
# 6 0.000000 0.000000 0.000000 0.000000 0.000000 -0.105588
#
#
# Mechanical properties :
#
#
# Convention : Reuss Voigt Hill
#
# Bulk Modulus (GPa) = 36.58718 43.63033 40.10876
# Shear Modulus (GPa) = 12.94105 18.63659 15.78882
#
# Velocity S-wave (km/s) = 2.59038 3.10858 2.86124
# Velocity P-wave (km/s) = 5.28372 5.95879 5.63138
#
# Compressibility (1/GPa) = 0.02733198
#
# Stress axis : x y z
#
# Youngs Moduli (GPa) = 85.23916 141.24665 69.99654
#
# Poissons Ratio (x) = 0.28222 -0.05752
# Poissons Ratio (y) = 0.17031 0.11946
# Poissons Ratio (z) = -0.07004 0.24106
#
# Static dielectric constant tensor:
#      x y z
#    x 1.690240 0.000000 0.000000 
#    y 0.000000 1.758340 0.000000 
#    z 0.000000 0.000000 1.731280 
# 
# From -- ./inp_files/9097.got.cif
#   From: 2010.05.17/outbox.cif.g08.bks.cpg/sg74_5_cif.got.tgz:9097.got - 2010.06.03 17:57:02.
