data_PCOD9538315
_publ_section_title
;
Structure prediction by ZEFSAII (Michael W. Deem and Ramdas Pophale) SiO2 
 PCOD9538315
Probable space group: I M M A
;
_chemical_formula_sum "Si O2"
_cell_formula_units_Z 100
_cell_length_a 7.700943
_cell_length_b 28.251950
_cell_length_c 20.324983
_cell_angle_alpha 90.000000
_cell_angle_beta 90.000000
_cell_angle_gamma 90.000000
_cell_volume 4422.038597
_symmetry_space_group_name_H-M "I M M A"
_symmetry_group_IT_number 74
_symmetry_cell_setting 'orthorhombic'
loop_
_space_group_symop_operation_xyz
x,y,z
-x,1/2-y,z
x,-y,-z
-x,1/2+y,-z
-x,-y,-z
x,1/2+y,-z
-x,y,z
x,1/2-y,z
1/2+x,1/2+y,1/2+z
1/2-x,-y,1/2+z
1/2+x,1/2-y,1/2-z
1/2-x,y,1/2-z
1/2-x,1/2-y,1/2-z
1/2+x,y,1/2-z
1/2-x,1/2+y,1/2+z
1/2+x,-y,1/2+z
loop_
_atom_site_type_symbol
_atom_site_label
_atom_site_fract_x
_atom_site_fract_y
_atom_site_fract_z
Si Si1 0.708366 0.388801 0.826156
Si Si2 0.695735 0.170206 0.315061
Si Si3 0.702791 0.044227 0.458655
Si Si4 0.801180 0.145687 0.453361
Si Si5 0.500000 0.250000 0.184119
Si Si6 0.287082 0.696571 0.081299
Si Si7 0.207472 0.996028 0.326263
O O1 0.500000 0.390220 0.833693
O O2 0.750000 0.379369 0.750000
O O3 0.772781 0.345443 0.870705
O O4 0.772842 0.442167 0.840754
O O5 0.500000 0.189445 0.307049
O O6 0.750000 0.140837 0.250000
O O7 0.702686 0.144818 0.384664
O O8 0.655877 0.209694 0.182062
O O9 0.500000 0.050228 0.473833
O O10 0.795036 0.092416 0.479342
O O11 0.771719 0.000000 0.500000
O O12 0.722733 0.031186 0.381795
O O13 0.732314 0.181947 0.507603
O O14 0.000000 0.159135 0.440343
O O15 0.500000 0.696107 0.081689
O O16 0.232783 0.750000 0.098196
O O17 0.250000 0.006651 0.250000
O O18 0.000000 0.996339 0.332278
#
# Coordination Sequence:
#
# PCOD9538315 Si02
#       7
#    16  16  16  16   4  16  16
#     4   9  18  34  57  87 120 155 196 242 294 360
#     4  12  25  42  66  97 130 169 219 270 321 381
#     4  11  24  41  62  89 122 159 202 256 318 382
#     4  11  23  41  64  90 123 162 210 265 320 379
#     4  12  24  44  66  98 126 174 218 270 322 378
#     4   9  19  35  58  85 118 159 202 246 300 360
#     4  10  20  36  60  90 118 154 197 244 302 367
#
# _framework density 22.614003
#
# number of rings (size 3 to 8) (size 9 to 14) (size 15 to 20)
#    0.000    1.600    1.600    2.880    1.120    4.160 
#    0.000    4.800    0.000    1.920    0.000    0.000 
#    0.000    0.000    0.000    0.000    0.000    0.000 
#
# Total GULP energy -278858.671393 kJ/mol
# GULP energy per Si atom -5577.173428 kJ/mol
# Density = 2.256253 g / cm^3
# Si number density = 22.614003 Si / 1000 Ang^3
#
#
#
# Elastic Constant Matrix: (Units=GPa)
#
#
# Indices 1 2 3 4 5 6 
#
# 1 99.3186 5.8543 -1.4192 0.0000 0.0000 0.0000
# 2 5.8543 68.8849 11.5064 0.0000 0.0000 0.0000
# 3 -1.4192 11.5064 51.0337 0.0002 0.0000 0.0000
# 4 0.0000 0.0000 0.0002 -202.5313 0.0000 0.0001
# 5 0.0000 0.0000 0.0000 0.0000 18.0109 0.0000
# 6 0.0000 0.0000 0.0000 0.0001 0.0000 6.6560
#
#
#
# Elastic Compliance Matrix: (Units=1/GPa)
#
#
# Indices 1 2 3 4 5 6 
#
# 1 0.010131 -0.000944 0.000495 0.000000 0.000000 0.000000
# 2 -0.000944 0.015173 -0.003447 0.000000 0.000000 0.000000
# 3 0.000495 -0.003447 0.020386 0.000000 0.000000 0.000000
# 4 0.000000 0.000000 0.000000 -0.004938 0.000000 0.000000
# 5 0.000000 0.000000 0.000000 0.000000 0.055522 0.000000
# 6 0.000000 0.000000 0.000000 0.000000 0.000000 0.150240
#
#
# Mechanical properties :
#
#
# Convention : Reuss Voigt Hill
#
# Bulk Modulus (GPa) = 26.38702 27.90224 27.14463
# Shear Modulus (GPa) = 18.73085 -22.01983 -1.64449
#
# Velocity S-wave (km/s) = 2.88112 -3.12384 -0.85368
# Velocity P-wave (km/s) = 4.77091 0.80369 3.32533
#
# Compressibility (1/GPa) = 0.03789742
#
# Stress axis : x y z
#
# Youngs Moduli (GPa) = 98.70404 65.90662 49.05356
#
# Poissons Ratio (x) = 0.06219 -0.02426
# Poissons Ratio (y) = 0.09314 0.16910
# Poissons Ratio (z) = -0.04881 0.22720
#
# Static dielectric constant tensor:
#      x y z
#    x 1.834450 0.000000 0.000000 
#    y 0.000000 1.820950 0.000000 
#    z 0.000000 0.000000 1.887340 
# 
# From -- ./inp_files/49348.got.cif
#   From: 2010.05.17/outbox.cif.g08.bks.cpg/sg74_25_cif.got.tgz:49348.got - 2010.06.03 17:57:02.
