data_PCOD9538323
_publ_section_title
;
Structure prediction by ZEFSAII (Michael W. Deem and Ramdas Pophale) SiO2 
 PCOD9538323
Probable space group: I M M A
;
_chemical_formula_sum "Si O2"
_cell_formula_units_Z 116
_cell_length_a 24.512424
_cell_length_b 7.897831
_cell_length_c 29.444071
_cell_angle_alpha 90.000000
_cell_angle_beta 90.000000
_cell_angle_gamma 90.000000
_cell_volume 5700.224400
_symmetry_space_group_name_H-M "I M M A"
_symmetry_group_IT_number 74
_symmetry_cell_setting 'orthorhombic'
loop_
_space_group_symop_operation_xyz
x,y,z
-x,1/2-y,z
x,-y,-z
-x,1/2+y,-z
-x,-y,-z
x,1/2+y,-z
-x,y,z
x,1/2-y,z
1/2+x,1/2+y,1/2+z
1/2-x,-y,1/2+z
1/2+x,1/2-y,1/2-z
1/2-x,y,1/2-z
1/2-x,1/2-y,1/2-z
1/2+x,y,1/2-z
1/2-x,1/2+y,1/2+z
1/2+x,-y,1/2+z
loop_
_atom_site_type_symbol
_atom_site_label
_atom_site_fract_x
_atom_site_fract_y
_atom_site_fract_z
Si Si1 0.153056 0.546145 0.449399
Si Si2 0.287854 0.449444 0.792738
Si Si3 0.307566 0.553227 0.646537
Si Si4 0.440846 0.453742 0.883488
Si Si5 0.778116 0.452771 0.949346
Si Si6 0.500000 0.750000 0.662909
Si Si7 0.090198 0.057513 0.283672
Si Si8 0.579566 0.561651 0.315236
O O1 0.134152 0.500000 0.500000
O O2 0.155469 0.750000 0.445766
O O3 0.110564 0.480914 0.412146
O O4 0.215297 0.483933 0.444867
O O5 0.300776 0.250000 0.790178
O O6 0.250000 0.495725 0.750000
O O7 0.250629 0.482427 0.836566
O O8 0.344632 0.545678 0.790625
O O9 0.309753 0.750000 0.658453
O O10 0.311355 0.527916 0.592551
O O11 0.356791 0.460546 0.671933
O O12 0.500000 0.514375 0.900247
O O13 0.439968 0.250000 0.887302
O O14 0.435045 0.498002 0.830772
O O15 0.778612 0.250000 0.945108
O O16 0.796837 0.500000 0.000000
O O17 0.547054 0.597781 0.664701
O O18 0.073586 0.250000 0.274210
O O19 0.074416 0.952547 0.239320
O O20 0.562536 0.750000 0.329926
#
# Coordination Sequence:
#
# PCOD9538323 Si02
#       8
#    16  16  16  16  16   4  16  16
#     4   9  19  36  57  81 114 152 202 255 315 387
#     4  11  22  36  58  86 120 166 207 250 316 385
#     4  12  23  39  62  95 132 165 211 259 310 383
#     4  10  22  38  56  79 109 157 212 266 321 372
#     4  10  20  36  60  91 127 165 202 250 317 381
#     4  12  26  48  64  96 122 164 226 256 314 374
#     4  12  24  39  57  86 122 161 213 262 317 382
#     4  12  25  44  67  92 127 169 210 266 317 368
#
# _framework density 20.350075
#
# number of rings (size 3 to 8) (size 9 to 14) (size 15 to 20)
#    0.000    1.103    2.759    4.345    0.966    3.310 
#    0.000    0.000    0.000    0.000    0.000    0.483 
#    0.000    0.000    0.000    0.000    0.000    0.000 
#
# Total GULP energy -323803.075580 kJ/mol
# GULP energy per Si atom -5582.811648 kJ/mol
# Density = 2.030376 g / cm^3
# Si number density = 20.350075 Si / 1000 Ang^3
#
#
#
# Elastic Constant Matrix: (Units=GPa)
#
#
# Indices 1 2 3 4 5 6 
#
# 1 44.9423 14.1621 -4.6961 0.0000 0.0000 0.0000
# 2 14.1621 82.8832 -6.5512 0.0000 0.0000 0.0000
# 3 -4.6961 -6.5512 78.6276 0.0000 0.0000 0.0000
# 4 0.0000 0.0000 0.0000 25.6891 0.0000 0.0000
# 5 0.0000 0.0000 0.0000 0.0000 52.4502 0.0000
# 6 0.0000 0.0000 0.0000 0.0000 0.0000 -5.2867
#
#
#
# Elastic Compliance Matrix: (Units=1/GPa)
#
#
# Indices 1 2 3 4 5 6 
#
# 1 0.023608 -0.003948 0.001081 0.000000 0.000000 0.000000
# 2 -0.003948 0.012806 0.000831 0.000000 0.000000 0.000000
# 3 0.001081 0.000831 0.012852 0.000000 0.000000 0.000000
# 4 0.000000 0.000000 0.000000 0.038927 0.000000 0.000000
# 5 0.000000 0.000000 0.000000 0.000000 0.019066 0.000000
# 6 0.000000 0.000000 0.000000 0.000000 0.000000 -0.189154
#
#
# Mechanical properties :
#
#
# Convention : Reuss Voigt Hill
#
# Bulk Modulus (GPa) = 22.12735 23.58698 22.85717
# Shear Modulus (GPa) = -79.67054 28.13972 -25.76541
#
# Velocity S-wave (km/s) = -6.26378 3.72261 -3.56210
# Velocity P-wave (km/s) = 6.43555 5.48570 2.37944
#
# Compressibility (1/GPa) = 0.04519293
#
# Stress axis : x y z
#
# Youngs Moduli (GPa) = 42.35862 78.09126 77.80893
#
# Poissons Ratio (x) = 0.30834 -0.08411
# Poissons Ratio (y) = 0.16725 -0.06467
# Poissons Ratio (z) = -0.04579 -0.06490
#
# Static dielectric constant tensor:
#      x y z
#    x 1.738710 0.000000 0.000000 
#    y 0.000000 1.724720 0.000000 
#    z 0.000000 0.000000 1.718400 
# 
# From -- ./inp_files/73734.got.cif
#   From: 2010.05.17/outbox.cif.g08.bks.cpg/sg74_37_cif.got.tgz:73734.got - 2010.06.03 17:57:02.
