data_PCOD9538429
_publ_section_title
;
Structure prediction by ZEFSAII (Michael W. Deem and Ramdas Pophale) SiO2 
 PCOD9538429
Probable space group: I M M A
;
_chemical_formula_sum "Si O2"
_cell_formula_units_Z 104
_cell_length_a 21.079936
_cell_length_b 8.820110
_cell_length_c 30.416988
_cell_angle_alpha 90.000000
_cell_angle_beta 90.000000
_cell_angle_gamma 90.000000
_cell_volume 5655.350105
_symmetry_space_group_name_H-M "I M M A"
_symmetry_group_IT_number 74
_symmetry_cell_setting 'orthorhombic'
loop_
_space_group_symop_operation_xyz
x,y,z
-x,1/2-y,z
x,-y,-z
-x,1/2+y,-z
-x,-y,-z
x,1/2+y,-z
-x,y,z
x,1/2-y,z
1/2+x,1/2+y,1/2+z
1/2-x,-y,1/2+z
1/2+x,1/2-y,1/2-z
1/2-x,y,1/2-z
1/2-x,1/2-y,1/2-z
1/2+x,y,1/2-z
1/2-x,1/2+y,1/2+z
1/2+x,-y,1/2+z
loop_
_atom_site_type_symbol
_atom_site_label
_atom_site_fract_x
_atom_site_fract_y
_atom_site_fract_z
Si Si1 0.686891 0.567350 0.777085
Si Si2 0.423625 0.423506 0.454947
Si Si3 0.140274 0.432488 0.549325
Si Si4 0.427726 0.432806 0.722657
Si Si5 0.000000 0.431902 0.548700
Si Si6 0.865362 0.930665 0.130061
Si Si7 0.725857 0.068510 0.125303
O O1 0.684556 0.750000 0.774077
O O2 0.750000 0.517883 0.750000
O O3 0.624123 0.499604 0.755521
O O4 0.693554 0.525583 0.828234
O O5 0.400737 0.500000 0.500000
O O6 0.500000 0.421034 0.456224
O O7 0.401037 0.250000 0.451534
O O8 0.402028 0.519219 0.413387
O O9 0.147555 0.500000 0.500000
O O10 0.144371 0.250000 0.546568
O O11 0.191273 0.495122 0.583562
O O12 0.069185 0.475341 0.566952
O O13 0.500000 0.483795 0.730445
O O14 0.426682 0.250000 0.725731
O O15 0.404973 0.473668 0.673437
O O16 0.000000 0.500000 0.500000
O O17 0.000000 0.250000 0.546275
O O18 0.856073 0.750000 0.130674
O O19 0.797865 0.012678 0.129311
O O20 0.724144 0.250000 0.121110
#
# Coordination Sequence:
#
# PCOD9538429 Si02
#       7
#    16  16  16  16   8  16  16
#     4  10  21  40  63  86 117 156 197 242 292 347
#     4  10  21  37  57  82 114 152 192 236 287 339
#     4  10  20  37  60  87 118 152 192 237 290 346
#     4  10  22  39  61  90 120 151 192 242 293 348
#     4   8  16  32  56  82 110 146 186 230 280 340
#     4  11  22  37  59  85 115 151 193 239 289 345
#     4  11  23  39  59  85 117 152 194 239 287 344
#
# _framework density 18.389665000000001
#
# number of rings (size 3 to 8) (size 9 to 14) (size 15 to 20)
#    0.000    1.846    1.538    2.308    0.000    5.231 
#    1.385    3.077    0.000    0.000    0.000    0.000 
#    0.000    0.000    0.000    0.000    0.000    0.000 
#
# Total GULP energy -290257.704764 kJ/mol
# GULP energy per Si atom -5581.878938 kJ/mol
# Density = 1.834781 g / cm^3
# Si number density = 18.389665 Si / 1000 Ang^3
#
#
#
# Elastic Constant Matrix: (Units=GPa)
#
#
# Indices 1 2 3 4 5 6 
#
# 1 118.6493 30.7240 51.9987 0.0000 0.0000 0.0000
# 2 30.7240 40.5942 39.0393 0.0000 0.0000 0.0000
# 3 51.9987 39.0393 115.5680 0.0000 0.0000 0.0000
# 4 0.0000 0.0000 0.0000 25.9524 0.0000 0.0000
# 5 0.0000 0.0000 0.0000 0.0000 34.7806 0.0000
# 6 0.0000 0.0000 0.0000 0.0000 0.0000 29.1884
#
#
#
# Elastic Compliance Matrix: (Units=1/GPa)
#
#
# Indices 1 2 3 4 5 6 
#
# 1 0.011244 -0.005399 -0.003236 0.000000 0.000000 0.000000
# 2 -0.005399 0.039080 -0.010772 0.000000 0.000000 0.000000
# 3 -0.003236 -0.010772 0.013748 0.000000 0.000000 0.000000
# 4 0.000000 0.000000 0.000000 0.038532 0.000000 0.000000
# 5 0.000000 0.000000 0.000000 0.000000 0.028752 0.000000
# 6 0.000000 0.000000 0.000000 0.000000 0.000000 0.034260
#
#
# Mechanical properties :
#
#
# Convention : Reuss Voigt Hill
#
# Bulk Modulus (GPa) = 39.59033 57.59283 48.59158
# Shear Modulus (GPa) = 23.49100 28.18757 25.83928
#
# Velocity S-wave (km/s) = 3.57795 3.91934 3.75253
# Velocity P-wave (km/s) = 6.21645 7.20192 6.72726
#
# Compressibility (1/GPa) = 0.02525870
#
# Stress axis : x y z
#
# Youngs Moduli (GPa) = 88.93514 25.58879 72.74003
#
# Poissons Ratio (x) = 0.13814 0.23535
# Poissons Ratio (y) = 0.48013 0.78357
# Poissons Ratio (z) = 0.28775 0.27565
#
# Static dielectric constant tensor:
#      x y z
#    x 1.635730 0.000000 0.000000 
#    y 0.000000 1.622040 0.000000 
#    z 0.000000 0.000000 1.605880 
# 
# From -- ./inp_files/68238.got.cif
#   From: 2010.05.17/outbox.cif.g08.bks.cpg/sg74_35_cif.got.tgz:68238.got - 2010.06.03 17:57:02.
