data_PCOD9538612
_publ_section_title
;
Structure prediction by ZEFSAII (Michael W. Deem and Ramdas Pophale) SiO2 
 PCOD9538612
Probable space group: I M M A
;
_chemical_formula_sum "Si O2"
_cell_formula_units_Z 68
_cell_length_a 14.064141
_cell_length_b 21.167838
_cell_length_c 12.267072
_cell_angle_alpha 90.000000
_cell_angle_beta 90.000000
_cell_angle_gamma 90.000000
_cell_volume 3651.998826
_symmetry_space_group_name_H-M "I M M A"
_symmetry_group_IT_number 74
_symmetry_cell_setting 'orthorhombic'
loop_
_space_group_symop_operation_xyz
x,y,z
-x,1/2-y,z
x,-y,-z
-x,1/2+y,-z
-x,-y,-z
x,1/2+y,-z
-x,y,z
x,1/2-y,z
1/2+x,1/2+y,1/2+z
1/2-x,-y,1/2+z
1/2+x,1/2-y,1/2-z
1/2-x,y,1/2-z
1/2-x,1/2-y,1/2-z
1/2+x,y,1/2-z
1/2-x,1/2+y,1/2+z
1/2+x,-y,1/2+z
loop_
_atom_site_type_symbol
_atom_site_label
_atom_site_fract_x
_atom_site_fract_y
_atom_site_fract_z
Si Si1 0.318574 0.155476 0.651734
Si Si2 0.112749 0.613956 0.754244
Si Si3 0.114342 0.515461 0.124239
Si Si4 0.000000 0.750000 0.150531
Si Si5 0.254525 0.323019 0.088800
O O1 0.250000 0.174556 0.750000
O O2 0.342177 0.081302 0.660965
O O3 0.415506 0.195293 0.650135
O O4 0.264868 0.165998 0.537377
O O5 0.135187 0.543521 0.796945
O O6 0.158322 0.660029 0.845213
O O7 0.165720 0.632649 0.643086
O O8 0.000000 0.621219 0.746800
O O9 0.000000 0.522068 0.121194
O O10 0.145334 0.500000 0.000000
O O11 0.279687 0.250000 0.107633
#
# Coordination Sequence:
#
# PCOD9538612 Si02
#       5
#    16  16  16   4  16
#     4  12  26  43  69  98 128 176 227 275 330 397
#     4  10  22  40  64  96 135 165 214 272 332 395
#     4  10  20  38  67  98 128 172 222 267 327 388
#     4  12  26  48  66  92 132 174 230 282 314 388
#     4  11  24  40  63  99 131 174 225 268 335 397
#
# _framework density 18.61994
#
# number of rings (size 3 to 8) (size 9 to 14) (size 15 to 20)
#    0.000    1.176    4.706    1.765    4.941    1.882 
#    2.118    0.000    0.000    2.824    0.000    0.000 
#    0.000    0.000    0.000    0.000    0.000    0.000 
#
# Total GULP energy -189395.382073 kJ/mol
# GULP energy per Si atom -5570.452414 kJ/mol
# Density = 1.857756 g / cm^3
# Si number density = 18.619940 Si / 1000 Ang^3
#
#
#
# Elastic Constant Matrix: (Units=GPa)
#
#
# Indices 1 2 3 4 5 6 
#
# 1 122.6278 54.8604 80.1124 0.0000 0.0000 0.0000
# 2 54.8604 144.8785 47.4841 -0.0001 0.0000 0.0000
# 3 80.1124 47.4841 141.4033 -0.0002 0.0000 0.0000
# 4 0.0000 -0.0001 -0.0002 -61.6337 0.0000 0.0000
# 5 0.0000 0.0000 0.0000 0.0000 13.7699 0.0000
# 6 0.0000 0.0000 0.0000 0.0000 0.0000 32.4547
#
#
#
# Elastic Compliance Matrix: (Units=1/GPa)
#
#
# Indices 1 2 3 4 5 6 
#
# 1 0.014049 -0.003047 -0.006937 0.000000 0.000000 0.000000
# 2 -0.003047 0.008417 -0.001100 0.000000 0.000000 0.000000
# 3 -0.006937 -0.001100 0.011371 0.000000 0.000000 0.000000
# 4 0.000000 0.000000 0.000000 -0.016225 0.000000 0.000000
# 5 0.000000 0.000000 0.000000 0.000000 0.072622 0.000000
# 6 0.000000 0.000000 0.000000 0.000000 0.000000 0.030812
#
#
# Mechanical properties :
#
#
# Convention : Reuss Voigt Hill
#
# Bulk Modulus (GPa) = 85.68694 85.98038 85.83366
# Shear Modulus (GPa) = 33.98952 12.01502 23.00227
#
# Velocity S-wave (km/s) = 4.27715 2.54299 3.51858
# Velocity P-wave (km/s) = 8.39707 7.40939 7.91865
#
# Compressibility (1/GPa) = 0.01167039
#
# Stress axis : x y z
#
# Youngs Moduli (GPa) = 71.17742 118.81318 87.93944
#
# Poissons Ratio (x) = 0.36197 0.61001
# Poissons Ratio (y) = 0.21684 0.09676
# Poissons Ratio (z) = 0.49374 0.13073
#
# Static dielectric constant tensor:
#      x y z
#    x 1.620200 0.000000 0.000000 
#    y 0.000000 1.656040 0.000000 
#    z 0.000000 0.000000 1.647730 
# 
# From -- ./inp_files/20222.got.cif
#   From: 2010.05.17/outbox.cif.g08.bks.cpg/sg74_11_cif.got.tgz:20222.got - 2010.06.03 17:57:02.
