data_PCOD9538050
_publ_section_title
;
Structure prediction by ZEFSAII (Michael W. Deem and Ramdas Pophale) SiO2 
 PCOD9538050
Probable space group: I M M A
;
_chemical_formula_sum "Si O2"
_cell_formula_units_Z 96
_cell_length_a 19.595362
_cell_length_b 19.497980
_cell_length_c 12.326289
_cell_angle_alpha 90.000000
_cell_angle_beta 90.000000
_cell_angle_gamma 90.000000
_cell_volume 4709.504947
_symmetry_space_group_name_H-M "I M M A"
_symmetry_group_IT_number 74
_symmetry_cell_setting 'orthorhombic'
loop_
_space_group_symop_operation_xyz
x,y,z
-x,1/2-y,z
x,-y,-z
-x,1/2+y,-z
-x,-y,-z
x,1/2+y,-z
-x,y,z
x,1/2-y,z
1/2+x,1/2+y,1/2+z
1/2-x,-y,1/2+z
1/2+x,1/2-y,1/2-z
1/2-x,y,1/2-z
1/2-x,1/2-y,1/2-z
1/2+x,y,1/2-z
1/2-x,1/2+y,1/2+z
1/2+x,-y,1/2+z
loop_
_atom_site_type_symbol
_atom_site_label
_atom_site_fract_x
_atom_site_fract_y
_atom_site_fract_z
Si Si1 0.422003 0.039633 0.680473
Si Si2 0.717459 0.671765 0.635854
Si Si3 0.580179 0.170654 0.059183
Si Si4 0.640119 0.940003 0.090648
Si Si5 0.711756 0.928581 0.438356
Si Si6 0.077294 0.621475 0.801650
O O1 0.500000 0.058614 0.650439
O O2 0.409489 0.047630 0.808791
O O3 0.360534 0.080441 0.621922
O O4 0.414330 0.957478 0.661767
O O5 0.740085 0.750000 0.623340
O O6 0.750000 0.645395 0.750000
O O7 0.731002 0.626602 0.530513
O O8 0.636033 0.666916 0.647628
O O9 0.500000 0.169559 0.032287
O O10 0.600366 0.250000 0.074158
O O11 0.587628 0.130208 0.172452
O O12 0.620074 0.130591 0.967247
O O13 0.718685 0.937047 0.130090
O O14 0.634436 0.000000 0.000000
O O15 0.703329 0.000000 0.500000
O O16 0.000000 0.643177 0.825691
#
# Coordination Sequence:
#
# PCOD9538050 Si02
#       6
#    16  16  16  16  16  16
#     4  11  23  39  62  92 125 164 215 262 314 381
#     4  11  24  41  64  93 125 161 206 260 320 386
#     4  10  20  35  58  92 129 162 203 260 323 376
#     4  11  22  37  62  89 123 165 214 267 316 376
#     4  11  24  39  61  90 126 164 207 259 321 381
#     4  10  20  35  59  89 123 157 200 260 315 374
#
# _framework density 20.384308000000001
#
# number of rings (size 3 to 8) (size 9 to 14) (size 15 to 20)
#    0.000    1.333    3.333    2.500    2.333    4.667 
#    0.000    0.833    0.000    3.000    0.000    0.000 
#    0.000    0.000    0.000    0.000    0.000    0.000 
#
# Total GULP energy -268013.323130 kJ/mol
# GULP energy per Si atom -5583.610899 kJ/mol
# Density = 2.033791 g / cm^3
# Si number density = 20.384308 Si / 1000 Ang^3
#
#
#
# Elastic Constant Matrix: (Units=GPa)
#
#
# Indices 1 2 3 4 5 6 
#
# 1 101.6804 16.5591 14.1660 0.0000 0.0000 0.0000
# 2 16.5591 59.0375 20.7544 0.0000 0.0000 0.0000
# 3 14.1660 20.7544 39.5194 0.0000 0.0000 0.0000
# 4 0.0000 0.0000 0.0000 25.0713 0.0000 0.0000
# 5 0.0000 0.0000 0.0000 0.0000 30.6316 0.0000
# 6 0.0000 0.0000 0.0000 0.0000 0.0000 124.7605
#
#
#
# Elastic Compliance Matrix: (Units=1/GPa)
#
#
# Indices 1 2 3 4 5 6 
#
# 1 0.010540 -0.001997 -0.002730 0.000000 0.000000 0.000000
# 2 -0.001997 0.021152 -0.010393 0.000000 0.000000 0.000000
# 3 -0.002730 -0.010393 0.031740 0.000000 0.000000 0.000000
# 4 0.000000 0.000000 0.000000 0.039886 0.000000 0.000000
# 5 0.000000 0.000000 0.000000 0.000000 0.032646 0.000000
# 6 0.000000 0.000000 0.000000 0.000000 0.000000 0.008015
#
#
# Mechanical properties :
#
#
# Convention : Reuss Voigt Hill
#
# Bulk Modulus (GPa) = 30.12540 33.68847 31.90694
# Shear Modulus (GPa) = 26.98577 46.00987 36.49782
#
# Velocity S-wave (km/s) = 3.64242 4.75607 4.23600
# Velocity P-wave (km/s) = 5.70092 6.83541 6.29378
#
# Compressibility (1/GPa) = 0.03319458
#
# Stress axis : x y z
#
# Youngs Moduli (GPa) = 94.87486 47.27702 31.50567
#
# Poissons Ratio (x) = 0.09440 0.08600
# Poissons Ratio (y) = 0.18944 0.32743
# Poissons Ratio (z) = 0.25897 0.49133
#
# Static dielectric constant tensor:
#      x y z
#    x 1.773680 0.000000 0.000000 
#    y 0.000000 1.713350 0.000000 
#    z 0.000000 0.000000 1.745970 
# 
# From -- ./inp_files/23921.got.cif
#   From: 2010.05.17/outbox.cif.g08.bks.cpg/sg74_12_cif.got.tgz:23921.got - 2010.06.03 17:57:02.
