data_PCOD9538655
_publ_section_title
;
Structure prediction by ZEFSAII (Michael W. Deem and Ramdas Pophale) SiO2 
 PCOD9538655
Probable space group: I M M A
;
_chemical_formula_sum "Si O2"
_cell_formula_units_Z 92
_cell_length_a 7.802527
_cell_length_b 26.185997
_cell_length_c 22.469108
_cell_angle_alpha 90.000000
_cell_angle_beta 90.000000
_cell_angle_gamma 90.000000
_cell_volume 4590.819585
_symmetry_space_group_name_H-M "I M M A"
_symmetry_group_IT_number 74
_symmetry_cell_setting 'orthorhombic'
loop_
_space_group_symop_operation_xyz
x,y,z
-x,1/2-y,z
x,-y,-z
-x,1/2+y,-z
-x,-y,-z
x,1/2+y,-z
-x,y,z
x,1/2-y,z
1/2+x,1/2+y,1/2+z
1/2-x,-y,1/2+z
1/2+x,1/2-y,1/2-z
1/2-x,y,1/2-z
1/2-x,1/2-y,1/2-z
1/2+x,y,1/2-z
1/2-x,1/2+y,1/2+z
1/2+x,-y,1/2+z
loop_
_atom_site_type_symbol
_atom_site_label
_atom_site_fract_x
_atom_site_fract_y
_atom_site_fract_z
Si Si1 0.295045 0.194116 0.005546
Si Si2 0.205160 0.935088 0.819640
Si Si3 0.298472 0.250000 0.819392
Si Si4 0.000000 0.250000 0.185398
Si Si5 0.799083 0.324509 0.356781
Si Si6 0.292987 0.047510 0.680386
Si Si7 0.798924 0.645942 0.112969
O O1 0.500000 0.196110 0.003866
O O2 0.226243 0.250000 0.987450
O O3 0.243283 0.153613 0.956237
O O4 0.250243 0.185922 0.074250
O O5 0.250000 0.933438 0.750000
O O6 0.287112 0.884991 0.847534
O O7 0.000000 0.931668 0.827293
O O8 0.265467 0.991219 0.840507
O O9 0.500000 0.250000 0.823684
O O10 0.250000 0.250000 0.750000
O O11 0.241551 0.198118 0.851912
O O12 0.844950 0.294404 0.180854
O O13 0.000000 0.308917 0.346337
O O14 0.500000 0.046354 0.676554
O O15 0.250000 0.053813 0.750000
O O16 0.222128 0.095547 0.643656
O O17 0.000000 0.639593 0.117274
#
# Coordination Sequence:
#
# PCOD9538655 Si02
#       7
#    16  16   8   4  16  16  16
#     4  10  21  37  57  82 117 157 199 245 294 355
#     4  10  20  39  65  89 120 159 197 245 304 358
#     4  12  24  37  52  76 115 155 193 249 308 356
#     4  12  22  38  66  90 122 166 190 240 302 350
#     4  11  23  40  64  93 125 159 206 247 295 366
#     4   9  20  37  58  86 115 152 200 247 297 358
#     4  11  22  35  56  85 115 153 202 247 298 362
#
# _framework density 20.039994
#
# number of rings (size 3 to 8) (size 9 to 14) (size 15 to 20)
#    0.000    1.565    2.609    2.609    1.217    3.478 
#    0.000    1.304    0.000    5.217    0.000    0.000 
#    0.000    0.000    0.000    0.000    0.000    0.000 
#
# Total GULP energy -256225.214385 kJ/mol
# GULP energy per Si atom -5570.113356 kJ/mol
# Density = 1.999438 g / cm^3
# Si number density = 20.039994 Si / 1000 Ang^3
#
#
#
# Elastic Constant Matrix: (Units=GPa)
#
#
# Indices 1 2 3 4 5 6 
#
# 1 67.0526 17.7311 9.5887 0.0000 0.0000 0.0000
# 2 17.7311 167.7350 33.0570 0.0000 0.0000 0.0000
# 3 9.5887 33.0570 26.4847 0.0000 0.0000 0.0000
# 4 0.0000 0.0000 0.0000 25.1640 0.0000 0.0000
# 5 0.0000 0.0000 0.0000 0.0000 23.0554 0.0000
# 6 0.0000 0.0000 0.0000 0.0000 0.0000 0.6621
#
#
#
# Elastic Compliance Matrix: (Units=1/GPa)
#
#
# Indices 1 2 3 4 5 6 
#
# 1 0.015793 -0.000720 -0.004820 0.000000 0.000000 0.000000
# 2 -0.000720 0.007940 -0.009649 0.000000 0.000000 0.000000
# 3 -0.004820 -0.009649 0.051546 0.000000 0.000000 0.000002
# 4 0.000000 0.000000 0.000000 0.039739 0.000000 0.000000
# 5 0.000000 0.000000 0.000000 0.000000 0.043374 0.000000
# 6 0.000000 0.000000 0.000002 0.000000 0.000000 1.510409
#
#
# Mechanical properties :
#
#
# Convention : Reuss Voigt Hill
#
# Bulk Modulus (GPa) = 22.27073 42.44734 32.35903
# Shear Modulus (GPa) = 2.91690 23.16933 13.04312
#
# Velocity S-wave (km/s) = 1.20777 3.40392 2.55395
# Velocity P-wave (km/s) = 3.61693 6.05608 4.98790
#
# Compressibility (1/GPa) = 0.04490199
#
# Stress axis : x y z
#
# Youngs Moduli (GPa) = 63.31851 125.95242 19.40007
#
# Poissons Ratio (x) = 0.09064 0.09350
# Poissons Ratio (y) = 0.04557 0.18719
# Poissons Ratio (z) = 0.30517 1.21534
#
# Static dielectric constant tensor:
#      x y z
#    x 1.719530 0.000000 0.000000 
#    y 0.000000 1.778200 0.000000 
#    z 0.000000 0.000000 1.684940 
# 
# From -- ./inp_files/57340.got.cif
#   From: 2010.05.17/outbox.cif.g08.bks.cpg/sg74_29_cif.got.tgz:57340.got - 2010.06.03 17:57:02.
