data_PCOD9538895
_publ_section_title
;
Structure prediction by ZEFSAII (Michael W. Deem and Ramdas Pophale) SiO2 
 PCOD9538895
Probable space group: I M M A
;
_chemical_formula_sum "Si O2"
_cell_formula_units_Z 72
_cell_length_a 24.820513
_cell_length_b 29.521477
_cell_length_c 5.255974
_cell_angle_alpha 90.000000
_cell_angle_beta 90.000000
_cell_angle_gamma 90.000000
_cell_volume 3851.252947
_symmetry_space_group_name_H-M "I M M A"
_symmetry_group_IT_number 74
_symmetry_cell_setting 'orthorhombic'
loop_
_space_group_symop_operation_xyz
x,y,z
-x,1/2-y,z
x,-y,-z
-x,1/2+y,-z
-x,-y,-z
x,1/2+y,-z
-x,y,z
x,1/2-y,z
1/2+x,1/2+y,1/2+z
1/2-x,-y,1/2+z
1/2+x,1/2-y,1/2-z
1/2-x,y,1/2-z
1/2-x,1/2-y,1/2-z
1/2+x,y,1/2-z
1/2-x,1/2+y,1/2+z
1/2+x,-y,1/2+z
loop_
_atom_site_type_symbol
_atom_site_label
_atom_site_fract_x
_atom_site_fract_y
_atom_site_fract_z
Si Si1 0.214659 0.803525 0.497279
Si Si2 0.614025 0.500000 0.500000
Si Si3 0.936446 0.595385 0.003384
Si Si4 0.800225 0.544615 0.617692
Si Si5 0.874103 0.121649 0.516029
O O1 0.202160 0.750000 0.478190
O O2 0.250000 0.816189 0.250000
O O3 0.161267 0.833533 0.510554
O O4 0.250000 0.810559 0.750000
O O5 0.577109 0.457213 0.570712
O O6 0.653688 0.478272 0.290956
O O7 0.912888 0.622918 0.241919
O O8 0.000000 0.600985 0.973177
O O9 0.906113 0.609894 0.743473
O O10 0.773576 0.500000 0.500000
O O11 0.750000 0.569411 0.750000
O O12 0.831195 0.580366 0.443181
#
# Coordination Sequence:
#
# PCOD9538895 Si02
#       5
#    16   8  16  16  16
#     4  10  21  39  64  93 121 150 185 228 284 352
#     4  10  21  36  50  78 110 154 199 238 282 330
#     4  11  23  39  59  80 112 154 204 251 285 327
#     4  11  20  32  50  78 117 151 182 225 281 352
#     4  11  23  38  59  86 115 153 193 237 292 341
#
# _framework density 18.695215000000001
#
# number of rings (size 3 to 8) (size 9 to 14) (size 15 to 20)
#    0.000    1.333    3.333    3.000    0.000    2.667 
#    0.000    3.333    0.000    4.000    0.000    0.000 
#    0.000    0.000    0.000    0.000    0.000    0.000 
#
# Total GULP energy -200884.768112 kJ/mol
# GULP energy per Si atom -5580.132448 kJ/mol
# Density = 1.865266 g / cm^3
# Si number density = 18.695215 Si / 1000 Ang^3
#
#
#
# Elastic Constant Matrix: (Units=GPa)
#
#
# Indices 1 2 3 4 5 6 
#
# 1 131.6852 55.7119 46.2345 0.0000 0.0000 0.0000
# 2 55.7119 75.3864 28.0422 0.0000 0.0000 0.0000
# 3 46.2345 28.0422 102.6800 0.0000 0.0000 0.0000
# 4 0.0000 0.0000 0.0000 1.7342 0.0000 0.0000
# 5 0.0000 0.0000 0.0000 0.0000 28.2224 0.0000
# 6 0.0000 0.0000 0.0000 0.0000 0.0000 -141.4616
#
#
#
# Elastic Compliance Matrix: (Units=1/GPa)
#
#
# Indices 1 2 3 4 5 6 
#
# 1 0.011982 -0.007622 -0.003314 0.000000 0.000000 0.000000
# 2 -0.007622 0.019614 -0.001924 0.000000 0.000000 0.000000
# 3 -0.003314 -0.001924 0.011757 0.000000 0.000000 0.000000
# 4 0.000000 0.000000 0.000000 0.576646 0.000000 0.000000
# 5 0.000000 0.000000 0.000000 0.000000 0.035433 0.000000
# 6 0.000000 0.000000 0.000000 0.000000 0.000000 -0.007069
#
#
# Mechanical properties :
#
#
# Convention : Reuss Voigt Hill
#
# Bulk Modulus (GPa) = 56.71565 63.30321 60.00943
# Shear Modulus (GPa) = 7.35337 -10.31682 -1.48172
#
# Velocity S-wave (km/s) = 1.98540 -2.35168 -0.89123
# Velocity P-wave (km/s) = 5.97148 5.15367 5.57758
#
# Compressibility (1/GPa) = 0.01763182
#
# Stress axis : x y z
#
# Youngs Moduli (GPa) = 83.45817 50.98414 85.05879
#
# Poissons Ratio (x) = 0.38862 0.28185
# Poissons Ratio (y) = 0.63615 0.16369
# Poissons Ratio (z) = 0.27654 0.09812
#
# Static dielectric constant tensor:
#      x y z
#    x 1.624570 0.000000 0.000000 
#    y 0.000000 1.648560 0.000000 
#    z 0.000000 0.000000 1.818140 
# 
# From -- ./inp_files/3749.got.cif
#   From: 2010.05.17/outbox.cif.g08.bks.cpg/sg74_2_cif.got.tgz:3749.got - 2010.06.03 17:57:02.
