data_PCOD9538921
_publ_section_title
;
Structure prediction by ZEFSAII (Michael W. Deem and Ramdas Pophale) SiO2 
 PCOD9538921
Probable space group: I M M A
;
_chemical_formula_sum "Si O2"
_cell_formula_units_Z 96
_cell_length_a 9.395716
_cell_length_b 29.112816
_cell_length_c 19.360137
_cell_angle_alpha 90.000000
_cell_angle_beta 90.000000
_cell_angle_gamma 90.000000
_cell_volume 5295.689616
_symmetry_space_group_name_H-M "I M M A"
_symmetry_group_IT_number 74
_symmetry_cell_setting 'orthorhombic'
loop_
_space_group_symop_operation_xyz
x,y,z
-x,1/2-y,z
x,-y,-z
-x,1/2+y,-z
-x,-y,-z
x,1/2+y,-z
-x,y,z
x,1/2-y,z
1/2+x,1/2+y,1/2+z
1/2-x,-y,1/2+z
1/2+x,1/2-y,1/2-z
1/2-x,y,1/2-z
1/2-x,1/2-y,1/2-z
1/2+x,y,1/2-z
1/2-x,1/2+y,1/2+z
1/2+x,-y,1/2+z
loop_
_atom_site_type_symbol
_atom_site_label
_atom_site_fract_x
_atom_site_fract_y
_atom_site_fract_z
Si Si1 0.338652 0.642430 0.085265
Si Si2 0.329625 0.302340 0.177639
Si Si3 0.668211 0.949232 0.177633
Si Si4 0.331531 0.615118 0.926352
Si Si5 0.829726 0.980426 0.922228
Si Si6 0.658318 0.305032 0.684997
O O1 0.500000 0.659830 0.093605
O O2 0.323280 0.597132 0.132261
O O3 0.229823 0.679009 0.114849
O O4 0.315976 0.630153 0.005867
O O5 0.500000 0.304224 0.188546
O O6 0.295964 0.250000 0.153831
O O7 0.250000 0.309753 0.250000
O O8 0.293891 0.342232 0.123240
O O9 0.500000 0.959492 0.187949
O O10 0.750000 0.944148 0.250000
O O11 0.746875 0.987895 0.132294
O O12 0.500000 0.603955 0.915654
O O13 0.234848 0.570521 0.915706
O O14 0.000000 0.980969 0.910510
O O15 0.804294 0.000000 0.000000
O O16 0.500000 0.323767 0.691229
O O17 0.653847 0.250000 0.687723
O O18 0.750000 0.321332 0.750000
#
# Coordination Sequence:
#
# PCOD9538921 Si02
#       6
#    16  16  16  16  16  16
#     4  10  21  36  57  84 112 148 189 235 290 346
#     4   9  19  37  61  88 119 155 195 241 294 353
#     4  11  23  39  60  86 116 151 195 241 291 350
#     4  10  21  38  61  88 117 154 195 238 293 351
#     4  11  23  39  60  86 117 156 197 242 296 352
#     4  10  21  36  54  77 108 147 189 234 284 337
#
# _framework density 18.127950999999999
#
# number of rings (size 3 to 8) (size 9 to 14) (size 15 to 20)
#    0.000    1.833    1.667    2.000    0.000    7.000 
#    0.000    3.333    0.000    2.000    0.000    0.000 
#    0.000    0.000    0.000    0.000    0.000    0.000 
#
# Total GULP energy -267990.660577 kJ/mol
# GULP energy per Si atom -5583.138762 kJ/mol
# Density = 1.808669 g / cm^3
# Si number density = 18.127951 Si / 1000 Ang^3
#
#
#
# Elastic Constant Matrix: (Units=GPa)
#
#
# Indices 1 2 3 4 5 6 
#
# 1 101.1228 53.7668 63.6533 0.0000 0.0000 0.0000
# 2 53.7668 81.8888 54.6879 0.0000 0.0000 0.0000
# 3 63.6533 54.6879 110.0544 0.0000 0.0000 0.0001
# 4 0.0000 0.0000 0.0000 32.0253 0.0000 0.0000
# 5 0.0000 0.0000 0.0000 0.0000 29.6577 0.0000
# 6 0.0000 0.0000 0.0001 0.0000 0.0000 28.3371
#
#
#
# Elastic Compliance Matrix: (Units=1/GPa)
#
#
# Indices 1 2 3 4 5 6 
#
# 1 0.018067 -0.007309 -0.006817 0.000000 0.000000 0.000000
# 2 -0.007309 0.021234 -0.006324 0.000000 0.000000 0.000000
# 3 -0.006817 -0.006324 0.016172 0.000000 0.000000 0.000000
# 4 0.000000 0.000000 0.000000 0.031225 0.000000 0.000000
# 5 0.000000 0.000000 0.000000 0.000000 0.033718 0.000000
# 6 0.000000 0.000000 0.000000 0.000000 0.000000 0.035289
#
#
# Mechanical properties :
#
#
# Convention : Reuss Voigt Hill
#
# Bulk Modulus (GPa) = 68.62756 70.80914 69.71835
# Shear Modulus (GPa) = 24.81834 26.06790 25.44312
#
# Velocity S-wave (km/s) = 3.70410 3.79620 3.75044
# Velocity P-wave (km/s) = 7.49889 7.63940 7.56947
#
# Compressibility (1/GPa) = 0.01457141
#
# Stress axis : x y z
#
# Youngs Moduli (GPa) = 55.35092 47.09348 61.83594
#
# Poissons Ratio (x) = 0.34423 0.42154
# Poissons Ratio (y) = 0.40459 0.39105
# Poissons Ratio (z) = 0.37733 0.29782
#
# Static dielectric constant tensor:
#      x y z
#    x 1.617490 0.000000 0.000000 
#    y 0.000000 1.617750 0.000000 
#    z 0.000000 0.000000 1.593280 
# 
# From -- ./inp_files/49167.got.cif
#   From: 2010.05.17/outbox.cif.g08.bks.cpg/sg74_25_cif.got.tgz:49167.got - 2010.06.03 17:57:02.
