data_PCOD9538039
_publ_section_title
;
Structure prediction by ZEFSAII (Michael W. Deem and Ramdas Pophale) SiO2 
 PCOD9538039
Probable space group: I M M A
;
_chemical_formula_sum "Si O2"
_cell_formula_units_Z 104
_cell_length_a 14.965222
_cell_length_b 18.733424
_cell_length_c 16.949804
_cell_angle_alpha 90.000000
_cell_angle_beta 90.000000
_cell_angle_gamma 90.000000
_cell_volume 4751.874992
_symmetry_space_group_name_H-M "I M M A"
_symmetry_group_IT_number 74
_symmetry_cell_setting 'orthorhombic'
loop_
_space_group_symop_operation_xyz
x,y,z
-x,1/2-y,z
x,-y,-z
-x,1/2+y,-z
-x,-y,-z
x,1/2+y,-z
-x,y,z
x,1/2-y,z
1/2+x,1/2+y,1/2+z
1/2-x,-y,1/2+z
1/2+x,1/2-y,1/2-z
1/2-x,y,1/2-z
1/2-x,1/2-y,1/2-z
1/2+x,y,1/2-z
1/2-x,1/2+y,1/2+z
1/2+x,-y,1/2+z
loop_
_atom_site_type_symbol
_atom_site_label
_atom_site_fract_x
_atom_site_fract_y
_atom_site_fract_z
Si Si1 0.898195 0.082249 0.015582
Si Si2 0.346112 0.334014 0.639538
Si Si3 0.152914 0.326791 0.558384
Si Si4 0.892595 0.534466 0.241688
Si Si5 0.250752 0.832148 0.892240
Si Si6 0.402360 0.522874 0.079798
Si Si7 0.750000 0.928021 0.750000
O O1 0.835121 0.126588 0.073381
O O2 0.000000 0.078812 0.044644
O O3 0.895197 0.126430 0.933232
O O4 0.869505 0.000000 0.000000
O O5 0.370489 0.250000 0.650038
O O6 0.242659 0.334761 0.611497
O O7 0.365605 0.386286 0.713103
O O8 0.113487 0.250000 0.575541
O O9 0.183070 0.330339 0.467138
O O10 0.091281 0.392652 0.573456
O O11 0.867984 0.516339 0.332431
O O12 0.824969 0.476660 0.205551
O O13 0.000000 0.525873 0.230693
O O14 0.229477 0.750000 0.872434
O O15 0.287458 0.874821 0.817421
O O16 0.500000 0.487139 0.078046
O O17 0.351913 0.500000 0.000000
#
# Coordination Sequence:
#
# PCOD9538039 Si02
#       7
#    16  16  16  16  16  16   8
#     4  10  20  35  58  89 123 158 198 242 294 368
#     4  10  21  37  58  87 125 161 189 234 304 374
#     4   9  19  36  56  80 110 145 189 232 281 353
#     4  11  24  39  59  89 118 152 200 243 293 364
#     4  10  22  38  58  84 113 152 199 246 300 359
#     4  10  21  37  56  78 107 145 191 243 293 339
#     4  12  23  40  63  82 116 156 194 256 313 346
#
# _framework density 21.886099000000002
#
# number of rings (size 3 to 8) (size 9 to 14) (size 15 to 20)
#    0.000    1.846    0.000    4.846    0.000    8.615 
#    0.000    3.462    0.000    2.308    0.000    0.000 
#    0.000    0.000    0.000    0.000    0.000    0.000 
#
# Total GULP energy -289935.043081 kJ/mol
# GULP energy per Si atom -5575.673905 kJ/mol
# Density = 2.183628 g / cm^3
# Si number density = 21.886099 Si / 1000 Ang^3
#
#
#
# Elastic Constant Matrix: (Units=GPa)
#
#
# Indices 1 2 3 4 5 6 
#
# 1 69.5511 37.7756 3.5457 0.0000 0.0000 0.0000
# 2 37.7756 172.3755 29.3165 0.0000 0.0000 0.0000
# 3 3.5457 29.3165 80.2205 0.0000 0.0000 0.0000
# 4 0.0000 0.0000 0.0000 38.2759 0.0000 0.0000
# 5 0.0000 0.0000 0.0000 0.0000 4.3457 0.0000
# 6 0.0000 0.0000 0.0000 0.0000 0.0000 0.5983
#
#
#
# Elastic Compliance Matrix: (Units=1/GPa)
#
#
# Indices 1 2 3 4 5 6 
#
# 1 0.016350 -0.003689 0.000626 0.000000 0.000000 0.000000
# 2 -0.003689 0.007018 -0.002402 0.000000 0.000000 0.000000
# 3 0.000626 -0.002402 0.013316 0.000000 0.000000 0.000000
# 4 0.000000 0.000000 0.000000 0.026126 0.000000 0.000000
# 5 0.000000 0.000000 0.000000 0.000000 0.230114 -0.000002
# 6 0.000000 0.000000 0.000000 0.000000 -0.000002 1.671266
#
#
# Mechanical properties :
#
#
# Convention : Reuss Voigt Hill
#
# Bulk Modulus (GPa) = 38.83076 51.49143 45.16110
# Shear Modulus (GPa) = 2.52054 25.41128 13.96591
#
# Velocity S-wave (km/s) = 1.07432 3.41114 2.52884
# Velocity P-wave (km/s) = 4.39541 6.25241 5.40427
#
# Compressibility (1/GPa) = 0.02575278
#
# Stress axis : x y z
#
# Youngs Moduli (GPa) = 61.16251 142.48485 75.09930
#
# Poissons Ratio (x) = 0.52569 -0.04698
# Poissons Ratio (y) = 0.22565 0.18037
# Poissons Ratio (z) = -0.03827 0.34221
#
# Static dielectric constant tensor:
#      x y z
#    x 1.824480 0.000000 0.000000 
#    y 0.000000 1.803220 0.000000 
#    z 0.000000 0.000000 1.943600 
# 
# From -- ./inp_files/44196.got.cif
#   From: 2010.05.17/outbox.cif.g08.bks.cpg/sg74_23_cif.got.tgz:44196.got - 2010.06.03 17:57:02.
