data_PCOD9538732
_publ_section_title
;
Structure prediction by ZEFSAII (Michael W. Deem and Ramdas Pophale) SiO2 
 PCOD9538732
Probable space group: I M M A
;
_chemical_formula_sum "Si O2"
_cell_formula_units_Z 64
_cell_length_a 14.170859
_cell_length_b 13.469711
_cell_length_c 17.154588
_cell_angle_alpha 90.000000
_cell_angle_beta 90.000000
_cell_angle_gamma 90.000000
_cell_volume 3274.422733
_symmetry_space_group_name_H-M "I M M A"
_symmetry_group_IT_number 74
_symmetry_cell_setting 'orthorhombic'
loop_
_space_group_symop_operation_xyz
x,y,z
-x,1/2-y,z
x,-y,-z
-x,1/2+y,-z
-x,-y,-z
x,1/2+y,-z
-x,y,z
x,1/2-y,z
1/2+x,1/2+y,1/2+z
1/2-x,-y,1/2+z
1/2+x,1/2-y,1/2-z
1/2-x,y,1/2-z
1/2-x,1/2-y,1/2-z
1/2+x,y,1/2-z
1/2-x,1/2+y,1/2+z
1/2+x,-y,1/2+z
loop_
_atom_site_type_symbol
_atom_site_label
_atom_site_fract_x
_atom_site_fract_y
_atom_site_fract_z
Si Si1 0.143838 0.530878 0.217651
Si Si2 0.786965 0.073329 0.067255
Si Si3 0.848346 0.750000 0.202059
Si Si4 0.397215 0.137887 0.161754
Si Si5 0.612976 0.250000 0.522298
O O1 0.250000 0.539185 0.250000
O O2 0.153044 0.488812 0.130484
O O3 0.105321 0.643063 0.220800
O O4 0.101207 0.445705 0.271793
O O5 0.694710 0.118610 0.109290
O O6 0.851231 0.155890 0.026762
O O7 0.752744 0.000000 0.000000
O O8 0.750000 0.750000 0.250000
O O9 0.838841 0.750000 0.107966
O O10 0.500000 0.132986 0.120747
O O11 0.388540 0.250000 0.194510
O O12 0.500000 0.250000 0.532585
#
# Coordination Sequence:
#
# PCOD9538732 Si02
#       5
#    16  16   8  16   8
#     4   9  20  36  62  90 121 167 210 252 311 373
#     4  11  22  41  65  90 127 165 204 260 324 374
#     4  10  20  42  64  85 125 171 209 251 311 374
#     4  10  22  40  65  94 125 164 213 260 307 374
#     4  12  26  40  62  95 127 163 209 261 314 373
#
# _framework density 19.545431000000001
#
# number of rings (size 3 to 8) (size 9 to 14) (size 15 to 20)
#    0.000    1.750    3.750    0.000    1.750    4.500 
#    0.000    0.000    0.000    0.000    0.000    0.000 
#    0.000    0.000    0.000    0.000    0.000    0.000 
#
# Total GULP energy -178345.682084 kJ/mol
# GULP energy per Si atom -5573.302565 kJ/mol
# Density = 1.950094 g / cm^3
# Si number density = 19.545431 Si / 1000 Ang^3
#
#
#
# Elastic Constant Matrix: (Units=GPa)
#
#
# Indices 1 2 3 4 5 6 
#
# 1 109.7768 46.0600 37.5337 0.0000 0.0000 0.0000
# 2 46.0600 189.3167 58.4065 0.0000 0.0000 0.0000
# 3 37.5337 58.4065 105.6258 0.0000 0.0000 0.0000
# 4 0.0000 0.0000 0.0000 27.6486 0.0000 0.0000
# 5 0.0000 0.0000 0.0000 0.0000 8.0523 0.0000
# 6 0.0000 0.0000 0.0000 0.0000 0.0000 25.0083
#
#
#
# Elastic Compliance Matrix: (Units=1/GPa)
#
#
# Indices 1 2 3 4 5 6 
#
# 1 0.010827 -0.001745 -0.002883 0.000000 0.000000 0.000000
# 2 -0.001745 0.006650 -0.003057 0.000000 0.000000 0.000000
# 3 -0.002883 -0.003057 0.012182 0.000000 0.000000 0.000000
# 4 0.000000 0.000000 0.000000 0.036168 0.000000 0.000000
# 5 0.000000 0.000000 0.000000 0.000000 0.124189 0.000000
# 6 0.000000 0.000000 0.000000 0.000000 0.000000 0.039987
#
#
# Mechanical properties :
#
#
# Convention : Reuss Voigt Hill
#
# Bulk Modulus (GPa) = 69.97846 76.52443 73.25145
# Shear Modulus (GPa) = 19.98925 29.65645 24.82285
#
# Velocity S-wave (km/s) = 3.20145 3.89949 3.56758
# Velocity P-wave (km/s) = 7.03892 7.71439 7.38438
#
# Compressibility (1/GPa) = 0.01429011
#
# Stress axis : x y z
#
# Youngs Moduli (GPa) = 92.36109 150.38034 82.08788
#
# Poissons Ratio (x) = 0.26240 0.23662
# Poissons Ratio (y) = 0.16116 0.25094
# Poissons Ratio (z) = 0.26623 0.45971
#
# Static dielectric constant tensor:
#      x y z
#    x 1.695860 0.000000 0.000000 
#    y 0.000000 1.717850 0.000000 
#    z 0.000000 0.000000 1.651270 
# 
# From -- ./inp_files/42427.got.cif
#   From: 2010.05.17/outbox.cif.g08.bks.cpg/sg74_22_cif.got.tgz:42427.got - 2010.06.03 17:57:02.
