data_PCOD9538960
_publ_section_title
;
Structure prediction by ZEFSAII (Michael W. Deem and Ramdas Pophale) SiO2 
 PCOD9538960
Probable space group: I M M A
;
_chemical_formula_sum "Si O2"
_cell_formula_units_Z 64
_cell_length_a 13.228682
_cell_length_b 21.230960
_cell_length_c 11.311451
_cell_angle_alpha 90.000000
_cell_angle_beta 90.000000
_cell_angle_gamma 90.000000
_cell_volume 3176.907188
_symmetry_space_group_name_H-M "I M M A"
_symmetry_group_IT_number 74
_symmetry_cell_setting 'orthorhombic'
loop_
_space_group_symop_operation_xyz
x,y,z
-x,1/2-y,z
x,-y,-z
-x,1/2+y,-z
-x,-y,-z
x,1/2+y,-z
-x,y,z
x,1/2-y,z
1/2+x,1/2+y,1/2+z
1/2-x,-y,1/2+z
1/2+x,1/2-y,1/2-z
1/2-x,y,1/2-z
1/2-x,1/2-y,1/2-z
1/2+x,y,1/2-z
1/2-x,1/2+y,1/2+z
1/2+x,-y,1/2+z
loop_
_atom_site_type_symbol
_atom_site_label
_atom_site_fract_x
_atom_site_fract_y
_atom_site_fract_z
Si Si1 0.798129 0.910786 0.363174
Si Si2 0.112839 0.512112 0.164358
Si Si3 0.677049 0.321934 0.071160
Si Si4 0.612929 0.861984 0.669581
O O1 0.750000 0.873085 0.250000
O O2 0.870674 0.960496 0.297263
O O3 0.700499 0.950918 0.405104
O O4 0.845297 0.868894 0.463797
O O5 0.126718 0.437501 0.166546
O O6 0.000000 0.527577 0.123734
O O7 0.652835 0.250000 0.042843
O O8 0.624920 0.341202 0.193951
O O9 0.797109 0.329598 0.097766
O O10 0.500000 0.846818 0.627684
#
# Coordination Sequence:
#
# PCOD9538960 Si02
#       4
#    16  16  16  16
#     4   8  19  35  54  79 107 134 176 212 260 314
#     4   8  17  35  55  80 107 131 167 220 270 308
#     4  11  22  36  54  76 108 145 176 212 254 305
#     4  10  21  36  56  81 105 135 175 217 265 312
#
# _framework density 20.145379999999999
#
# number of rings (size 3 to 8) (size 9 to 14) (size 15 to 20)
#    1.500    1.000    0.000    4.500    0.000    8.500 
#    0.000    5.000    0.000    1.500    0.000    0.000 
#    0.000    0.000    0.000    0.000    0.000    0.000 
#
# Total GULP energy -178306.232874 kJ/mol
# GULP energy per Si atom -5572.069777 kJ/mol
# Density = 2.009953 g / cm^3
# Si number density = 20.145380 Si / 1000 Ang^3
#
#
#
# Elastic Constant Matrix: (Units=GPa)
#
#
# Indices 1 2 3 4 5 6 
#
# 1 56.9799 7.3875 -4.4708 -0.0001 0.0000 0.0000
# 2 7.3875 81.3551 18.7393 -0.0001 0.0000 0.0000
# 3 -4.4708 18.7393 62.6008 -0.0002 0.0000 0.0000
# 4 -0.0001 -0.0001 -0.0002 19.3368 0.0000 0.0001
# 5 0.0000 0.0000 0.0000 0.0000 -9.6237 0.0000
# 6 0.0000 0.0000 0.0000 0.0001 0.0000 43.2262
#
#
#
# Elastic Compliance Matrix: (Units=1/GPa)
#
#
# Indices 1 2 3 4 5 6 
#
# 1 0.017968 -0.002070 0.001903 0.000000 0.000000 0.000000
# 2 -0.002070 0.013441 -0.004171 0.000000 0.000000 0.000000
# 3 0.001903 -0.004171 0.017359 0.000000 0.000000 0.000000
# 4 0.000000 0.000000 0.000000 0.051715 0.000000 0.000000
# 5 0.000000 0.000000 0.000000 0.000000 -0.103910 0.000000
# 6 0.000000 0.000000 0.000000 0.000000 0.000000 0.023134
#
#
# Mechanical properties :
#
#
# Convention : Reuss Voigt Hill
#
# Bulk Modulus (GPa) = 24.94356 27.13864 26.04110
# Shear Modulus (GPa) = 119.77278 22.53986 71.15632
#
# Velocity S-wave (km/s) = 7.71902 3.34857 5.94963
# Velocity P-wave (km/s) = 9.58400 5.33396 7.75578
#
# Compressibility (1/GPa) = 0.04009051
#
# Stress axis : x y z
#
# Youngs Moduli (GPa) = 55.65543 74.40182 57.60784
#
# Poissons Ratio (x) = 0.15400 -0.10962
# Poissons Ratio (y) = 0.11520 0.24029
# Poissons Ratio (z) = -0.10590 0.31034
#
# Static dielectric constant tensor:
#      x y z
#    x 1.745750 0.000000 0.000000 
#    y 0.000000 1.674520 0.000000 
#    z 0.000000 0.000000 1.765520 
# 
# From -- ./inp_files/19916.got.cif
#   From: 2010.05.17/outbox.cif.g08.bks.cpg/sg74_10_cif.got.tgz:19916.got - 2010.06.03 17:57:02.
