data_PCOD9538919
_publ_section_title
;
Structure prediction by ZEFSAII (Michael W. Deem and Ramdas Pophale) SiO2 
 PCOD9538919
Probable space group: I M M A
;
_chemical_formula_sum "Si O2"
_cell_formula_units_Z 112
_cell_length_a 19.415738
_cell_length_b 17.922886
_cell_length_c 16.267975
_cell_angle_alpha 90.000000
_cell_angle_beta 90.000000
_cell_angle_gamma 90.000000
_cell_volume 5661.028505
_symmetry_space_group_name_H-M "I M M A"
_symmetry_group_IT_number 74
_symmetry_cell_setting 'orthorhombic'
loop_
_space_group_symop_operation_xyz
x,y,z
-x,1/2-y,z
x,-y,-z
-x,1/2+y,-z
-x,-y,-z
x,1/2+y,-z
-x,y,z
x,1/2-y,z
1/2+x,1/2+y,1/2+z
1/2-x,-y,1/2+z
1/2+x,1/2-y,1/2-z
1/2-x,y,1/2-z
1/2-x,1/2-y,1/2-z
1/2+x,y,1/2-z
1/2-x,1/2+y,1/2+z
1/2+x,-y,1/2+z
loop_
_atom_site_type_symbol
_atom_site_label
_atom_site_fract_x
_atom_site_fract_y
_atom_site_fract_z
Si Si1 0.079017 0.475480 0.843247
Si Si2 0.923397 0.939303 0.667652
Si Si3 0.580065 0.092297 0.926400
Si Si4 0.284842 0.662328 0.015141
Si Si5 0.222339 0.473640 0.910864
Si Si6 0.779970 0.885389 0.663575
Si Si7 0.082800 0.331284 0.748764
O O1 0.079233 0.521534 0.757812
O O2 0.142309 0.496337 0.900980
O O3 0.100484 0.392289 0.815856
O O4 0.000000 0.477686 0.874621
O O5 0.862140 0.881317 0.666438
O O6 0.000000 0.908660 0.656593
O O7 0.914198 0.005466 0.600104
O O8 0.500000 0.105054 0.950160
O O9 0.594936 0.136730 0.841642
O O10 0.638920 0.124633 0.984412
O O11 0.287990 0.750000 0.034028
O O12 0.255783 0.651555 0.921944
O O13 0.242064 0.613435 0.082130
O O14 0.261605 0.525852 0.845732
O O15 0.247235 0.500000 0.000000
O O16 0.750000 0.858096 0.750000
O O17 0.113563 0.250000 0.760175
O O18 0.000000 0.326316 0.754128
#
# Coordination Sequence:
#
# PCOD9538919 Si02
#       7
#    16  16  16  16  16  16  16
#     4   9  17  30  51  78 103 131 176 226 268 318
#     4   9  17  31  55  85 110 136 175 220 265 321
#     4   9  17  31  52  78 113 146 172 210 259 317
#     4  11  24  37  52  80 113 145 184 223 266 323
#     4  10  21  36  54  77 105 137 177 229 277 316
#     4  11  21  38  60  77 104 147 185 225 271 317
#     4   8  14  25  43  70 104 139 166 193 244 313
#
# _framework density 19.784390999999999
#
# number of rings (size 3 to 8) (size 9 to 14) (size 15 to 20)
#    0.000    2.429    2.857    2.143    0.000    2.571 
#    0.000    1.429    0.000    3.000    0.000    0.000 
#    0.000    0.000    0.000    0.000    0.000    0.000 
#
# Total GULP energy -311930.780137 kJ/mol
# GULP energy per Si atom -5570.192502 kJ/mol
# Density = 1.973936 g / cm^3
# Si number density = 19.784391 Si / 1000 Ang^3
#
#
#
# Elastic Constant Matrix: (Units=GPa)
#
#
# Indices 1 2 3 4 5 6 
#
# 1 102.9639 4.4138 20.3589 0.0000 0.0000 0.0000
# 2 4.4138 33.3948 -6.6064 0.0000 0.0000 0.0000
# 3 20.3589 -6.6064 40.0647 0.0000 0.0000 0.0000
# 4 0.0000 0.0000 0.0000 3.5921 0.0000 0.0000
# 5 0.0000 0.0000 0.0000 0.0000 27.9390 0.0000
# 6 0.0000 0.0000 0.0000 0.0000 0.0000 12.8810
#
#
#
# Elastic Compliance Matrix: (Units=1/GPa)
#
#
# Indices 1 2 3 4 5 6 
#
# 1 0.011019 -0.002651 -0.006037 0.000000 0.000000 0.000000
# 2 -0.002651 0.031592 0.006556 0.000000 0.000000 0.000000
# 3 -0.006037 0.006556 0.029108 0.000000 0.000000 0.000000
# 4 0.000000 0.000000 0.000000 0.278389 0.000000 0.000000
# 5 0.000000 0.000000 0.000000 0.000000 0.035792 0.000000
# 6 0.000000 0.000000 0.000000 0.000000 0.000000 0.077634
#
#
# Mechanical properties :
#
#
# Convention : Reuss Voigt Hill
#
# Bulk Modulus (GPa) = 14.82411 23.63956 19.23184
# Shear Modulus (GPa) = 10.19820 19.43290 14.81555
#
# Velocity S-wave (km/s) = 2.27285 3.13746 2.73948
# Velocity P-wave (km/s) = 3.79433 5.00993 4.44389
#
# Compressibility (1/GPa) = 0.06745768
#
# Stress axis : x y z
#
# Youngs Moduli (GPa) = 90.74939 31.65349 34.35466
#
# Poissons Ratio (x) = 0.08390 0.20738
# Poissons Ratio (y) = 0.24054 -0.22524
# Poissons Ratio (z) = 0.54781 -0.20753
#
# Static dielectric constant tensor:
#      x y z
#    x 1.713780 0.000000 0.000000 
#    y 0.000000 1.825770 0.000000 
#    z 0.000000 0.000000 1.747200 
# 
# From -- ./inp_files/44411.got.cif
#   From: 2010.05.17/outbox.cif.g08.bks.cpg/sg74_23_cif.got.tgz:44411.got - 2010.06.03 17:57:02.
