data_PCOD9538192
_publ_section_title
;
Structure prediction by ZEFSAII (Michael W. Deem and Ramdas Pophale) SiO2 
 PCOD9538192
Probable space group: I M M A
;
_chemical_formula_sum "Si O2"
_cell_formula_units_Z 96
_cell_length_a 28.405122
_cell_length_b 8.099864
_cell_length_c 21.254416
_cell_angle_alpha 90.000000
_cell_angle_beta 90.000000
_cell_angle_gamma 90.000000
_cell_volume 4890.165556
_symmetry_space_group_name_H-M "I M M A"
_symmetry_group_IT_number 74
_symmetry_cell_setting 'orthorhombic'
loop_
_space_group_symop_operation_xyz
x,y,z
-x,1/2-y,z
x,-y,-z
-x,1/2+y,-z
-x,-y,-z
x,1/2+y,-z
-x,y,z
x,1/2-y,z
1/2+x,1/2+y,1/2+z
1/2-x,-y,1/2+z
1/2+x,1/2-y,1/2-z
1/2-x,y,1/2-z
1/2-x,1/2-y,1/2-z
1/2+x,y,1/2-z
1/2-x,1/2+y,1/2+z
1/2+x,-y,1/2+z
loop_
_atom_site_type_symbol
_atom_site_label
_atom_site_fract_x
_atom_site_fract_y
_atom_site_fract_z
Si Si1 0.222761 0.449421 0.687719
Si Si2 0.614430 0.050299 0.188658
Si Si3 0.391538 0.947309 0.430217
Si Si4 0.446554 0.948468 0.692792
Si Si5 0.054073 0.550934 0.569748
Si Si6 0.783457 0.050919 0.930305
O O1 0.224996 0.250000 0.687514
O O2 0.250000 0.508128 0.750000
O O3 0.168497 0.498617 0.689143
O O4 0.249726 0.509192 0.625231
O O5 0.612834 0.250000 0.188771
O O6 0.586611 0.990489 0.250561
O O7 0.587452 0.992114 0.125861
O O8 0.390911 0.750000 0.427711
O O9 0.337474 0.007797 0.421563
O O10 0.407035 0.000000 0.500000
O O11 0.424045 0.010351 0.374308
O O12 0.500000 0.011278 0.698220
O O13 0.448409 0.750000 0.698337
O O14 0.069759 0.500000 0.500000
O O15 0.053224 0.750000 0.572079
O O16 0.000000 0.492800 0.578373
O O17 0.784384 0.250000 0.928006
O O18 0.767835 0.000000 0.000000
#
# Coordination Sequence:
#
# PCOD9538192 Si02
#       6
#    16  16  16  16  16  16
#     4  10  21  37  55  76 105 139 174 215 263 312
#     4  10  21  36  55  79 106 138 177 220 264 311
#     4  10  20  36  58  82 108 139 176 217 261 311
#     4  10  21  37  56  78 106 140 177 218 264 313
#     4   9  18  34  55  78 106 140 176 215 261 312
#     4   9  19  35  55  78 105 138 173 212 259 310
#
# _framework density 19.631236000000001
#
# number of rings (size 3 to 8) (size 9 to 14) (size 15 to 20)
#    0.000    2.333    0.000    2.000    0.000    7.667 
#    0.000    3.333    0.000    3.000    0.000    0.000 
#    0.000    0.000    0.000    0.000    0.000    0.000 
#
# Total GULP energy -268026.854343 kJ/mol
# GULP energy per Si atom -5583.892799 kJ/mol
# Density = 1.958655 g / cm^3
# Si number density = 19.631236 Si / 1000 Ang^3
#
#
#
# Elastic Constant Matrix: (Units=GPa)
#
#
# Indices 1 2 3 4 5 6 
#
# 1 111.1085 3.4083 86.1918 0.0000 0.0000 0.0000
# 2 3.4083 8.9759 3.5686 0.0000 0.0000 0.0000
# 3 86.1918 3.5686 149.9572 0.0000 0.0000 0.0000
# 4 0.0000 0.0000 0.0000 27.9853 0.0000 0.0000
# 5 0.0000 0.0000 0.0000 0.0000 41.6027 0.0000
# 6 0.0000 0.0000 0.0000 0.0000 0.0000 26.3892
#
#
#
# Elastic Compliance Matrix: (Units=1/GPa)
#
#
# Indices 1 2 3 4 5 6 
#
# 1 0.016297 -0.002488 -0.009308 0.000000 0.000000 0.000000
# 2 -0.002488 0.112853 -0.001256 0.000000 0.000000 0.000000
# 3 -0.009308 -0.001256 0.012048 0.000000 0.000000 0.000000
# 4 0.000000 0.000000 0.000000 0.035733 0.000000 0.000000
# 5 0.000000 0.000000 0.000000 0.000000 0.024037 0.000000
# 6 0.000000 0.000000 0.000000 0.000000 0.000000 0.037894
#
#
# Mechanical properties :
#
#
# Convention : Reuss Voigt Hill
#
# Bulk Modulus (GPa) = 8.68842 50.70877 29.69860
# Shear Modulus (GPa) = 16.48363 30.98695 23.73529
#
# Velocity S-wave (km/s) = 2.90084 3.97728 3.48092
# Velocity P-wave (km/s) = 3.95667 6.85408 5.59615
#
# Compressibility (1/GPa) = 0.11509577
#
# Stress axis : x y z
#
# Youngs Moduli (GPa) = 61.36036 8.86108 82.99810
#
# Poissons Ratio (x) = 0.02204 0.77255
# Poissons Ratio (y) = 0.15265 0.10422
# Poissons Ratio (z) = 0.57114 0.01113
#
# Static dielectric constant tensor:
#      x y z
#    x 1.666350 0.000000 0.000000 
#    y 0.000000 1.704490 0.000000 
#    z 0.000000 0.000000 1.671440 
# 
# From -- ./inp_files/49036.got.cif
#   From: 2010.05.17/outbox.cif.g08.bks.cpg/sg74_25_cif.got.tgz:49036.got - 2010.06.03 17:57:02.
