data_PCOD9538065
_publ_section_title
;
Structure prediction by ZEFSAII (Michael W. Deem and Ramdas Pophale) SiO2 
 PCOD9538065
Probable space group: I M M A
;
_chemical_formula_sum "Si O2"
_cell_formula_units_Z 96
_cell_length_a 22.209592
_cell_length_b 19.380922
_cell_length_c 11.658502
_cell_angle_alpha 90.000000
_cell_angle_beta 90.000000
_cell_angle_gamma 90.000000
_cell_volume 5018.313234
_symmetry_space_group_name_H-M "I M M A"
_symmetry_group_IT_number 74
_symmetry_cell_setting 'orthorhombic'
loop_
_space_group_symop_operation_xyz
x,y,z
-x,1/2-y,z
x,-y,-z
-x,1/2+y,-z
-x,-y,-z
x,1/2+y,-z
-x,y,z
x,1/2-y,z
1/2+x,1/2+y,1/2+z
1/2-x,-y,1/2+z
1/2+x,1/2-y,1/2-z
1/2-x,y,1/2-z
1/2-x,1/2-y,1/2-z
1/2+x,y,1/2-z
1/2-x,1/2+y,1/2+z
1/2+x,-y,1/2+z
loop_
_atom_site_type_symbol
_atom_site_label
_atom_site_fract_x
_atom_site_fract_y
_atom_site_fract_z
Si Si1 0.757256 0.456211 0.883692
Si Si2 0.933113 0.333462 0.410940
Si Si3 0.065224 0.325795 0.775672
Si Si4 0.332018 0.669677 0.085490
Si Si5 0.107307 0.928352 0.042561
Si Si6 0.929733 0.830870 0.857321
O O1 0.750000 0.482686 0.750000
O O2 0.720977 0.383989 0.891260
O O3 0.828044 0.443831 0.902683
O O4 0.738985 0.500000 0.000000
O O5 0.934891 0.250000 0.424434
O O6 0.874897 0.355625 0.481625
O O7 0.925218 0.348111 0.276791
O O8 0.000000 0.359314 0.445089
O O9 0.068478 0.250000 0.833219
O O10 0.120937 0.330035 0.690573
O O11 0.069394 0.386426 0.865701
O O12 0.000000 0.328271 0.715615
O O13 0.312637 0.750000 0.067599
O O14 0.112237 0.878362 0.933493
O O15 0.080108 0.000000 0.000000
O O16 0.916331 0.750000 0.870813
O O17 0.000000 0.841477 0.890692
#
# Coordination Sequence:
#
# PCOD9538065 Si02
#       6
#    16  16  16  16  16  16
#     4  11  25  45  64  84 117 168 211 253 309 364
#     4   8  15  31  56  86 118 151 187 233 298 364
#     4  10  20  35  59  89 120 150 186 239 303 364
#     4  10  20  36  62  90 116 149 199 254 303 355
#     4  11  23  37  56  80 115 156 202 243 298 354
#     4   9  18  34  57  85 119 157 194 239 300 366
#
# _framework density 19.129933999999999
#
# number of rings (size 3 to 8) (size 9 to 14) (size 15 to 20)
#    0.000    2.167    1.667    2.500    0.000    9.000 
#    0.000    0.000    0.000    4.500    0.000    0.000 
#    0.000    0.000    0.000    0.000    0.000    0.000 
#
# Total GULP energy -267420.834605 kJ/mol
# GULP energy per Si atom -5571.267388 kJ/mol
# Density = 1.908639 g / cm^3
# Si number density = 19.129934 Si / 1000 Ang^3
#
#
#
# Elastic Constant Matrix: (Units=GPa)
#
#
# Indices 1 2 3 4 5 6 
#
# 1 35.5232 22.4436 18.1241 0.0000 0.0000 0.0000
# 2 22.4436 76.2805 43.6558 0.0000 0.0000 0.0000
# 3 18.1241 43.6558 100.4578 0.0000 0.0000 0.0000
# 4 0.0000 0.0000 0.0000 20.7884 0.0000 0.0000
# 5 0.0000 0.0000 0.0000 0.0000 33.4120 0.0000
# 6 0.0000 0.0000 0.0000 0.0000 0.0000 16.9240
#
#
#
# Elastic Compliance Matrix: (Units=1/GPa)
#
#
# Indices 1 2 3 4 5 6 
#
# 1 0.035026 -0.008903 -0.002450 0.000000 0.000000 0.000000
# 2 -0.008903 0.019712 -0.006960 0.000000 0.000000 0.000000
# 3 -0.002450 -0.006960 0.013421 0.000000 0.000000 0.000000
# 4 0.000000 0.000000 0.000000 0.048104 0.000000 0.000000
# 5 0.000000 0.000000 0.000000 0.000000 0.029929 0.000000
# 6 0.000000 0.000000 0.000000 0.000000 0.000000 0.059088
#
#
# Mechanical properties :
#
#
# Convention : Reuss Voigt Hill
#
# Bulk Modulus (GPa) = 31.71345 42.30094 37.00720
# Shear Modulus (GPa) = 19.80843 22.76074 21.28458
#
# Velocity S-wave (km/s) = 3.22136 3.45309 3.33923
# Velocity P-wave (km/s) = 5.51816 6.16918 5.85273
#
# Compressibility (1/GPa) = 0.03153236
#
# Stress axis : x y z
#
# Youngs Moduli (GPa) = 28.55044 50.72952 74.50945
#
# Poissons Ratio (x) = 0.45166 0.18255
# Poissons Ratio (y) = 0.25419 0.51859
# Poissons Ratio (z) = 0.06995 0.35308
#
# Static dielectric constant tensor:
#      x y z
#    x 1.658260 0.000000 0.000000 
#    y 0.000000 1.651300 0.000000 
#    z 0.000000 0.000000 1.714200 
# 
# From -- ./inp_files/25154.got.cif
#   From: 2010.05.17/outbox.cif.g08.bks.cpg/sg74_13_cif.got.tgz:25154.got - 2010.06.03 17:57:02.
