data_PCOD9538444
_publ_section_title
;
Structure prediction by ZEFSAII (Michael W. Deem and Ramdas Pophale) SiO2 
 PCOD9538444
Probable space group: I M M A
;
_chemical_formula_sum "Si O2"
_cell_formula_units_Z 104
_cell_length_a 9.640649
_cell_length_b 24.566618
_cell_length_c 21.236857
_cell_angle_alpha 90.000000
_cell_angle_beta 90.000000
_cell_angle_gamma 90.000000
_cell_volume 5029.697738
_symmetry_space_group_name_H-M "I M M A"
_symmetry_group_IT_number 74
_symmetry_cell_setting 'orthorhombic'
loop_
_space_group_symop_operation_xyz
x,y,z
-x,1/2-y,z
x,-y,-z
-x,1/2+y,-z
-x,-y,-z
x,1/2+y,-z
-x,y,z
x,1/2-y,z
1/2+x,1/2+y,1/2+z
1/2-x,-y,1/2+z
1/2+x,1/2-y,1/2-z
1/2-x,y,1/2-z
1/2-x,1/2-y,1/2-z
1/2+x,y,1/2-z
1/2-x,1/2+y,1/2+z
1/2+x,-y,1/2+z
loop_
_atom_site_type_symbol
_atom_site_label
_atom_site_fract_x
_atom_site_fract_y
_atom_site_fract_z
Si Si1 0.653849 0.335001 0.028800
Si Si2 0.235918 0.813254 0.669317
Si Si3 0.664957 0.690651 0.413383
Si Si4 0.161706 0.538852 0.558553
Si Si5 0.000000 0.652063 0.770851
Si Si6 0.840030 0.391857 0.809581
Si Si7 0.336131 0.976896 0.686361
O O1 0.500000 0.319471 0.007543
O O2 0.678387 0.315359 0.099288
O O3 0.663011 0.400229 0.032294
O O4 0.764825 0.312965 0.980649
O O5 0.271556 0.750000 0.683417
O O6 0.120093 0.835505 0.716725
O O7 0.375616 0.847670 0.676212
O O8 0.500000 0.686292 0.420780
O O9 0.695653 0.750000 0.384459
O O10 0.712077 0.640441 0.370384
O O11 0.204487 0.500000 0.500000
O O12 0.256772 0.537815 0.621496
O O13 0.000000 0.525203 0.575581
O O14 0.750000 0.376343 0.750000
O O15 0.836362 0.457144 0.815745
O O16 0.000000 0.376346 0.799627
O O17 0.500000 0.958793 0.693147
O O18 0.250000 0.960784 0.750000
#
# Coordination Sequence:
#
# PCOD9538444 Si02
#       7
#    16  16  16  16   8  16  16
#     4  11  24  39  56  84 112 149 192 236 288 335
#     4  11  20  36  56  80 109 143 187 229 272 327
#     4  10  22  39  58  84 119 154 190 235 283 337
#     4  10  22  41  61  83 113 149 191 241 293 346
#     4  10  21  36  58  80 106 146 186 228 276 322
#     4   9  19  36  60  89 118 150 188 230 281 343
#     4  10  20  37  61  88 117 151 191 237 289 346
#
# _framework density 20.677187
#
# number of rings (size 3 to 8) (size 9 to 14) (size 15 to 20)
#    0.000    1.846    0.769    3.692    1.077    3.385 
#    2.769    0.000    0.000    0.000    0.000    0.000 
#    0.000    0.000    0.000    0.000    0.000    0.000 
#
# Total GULP energy -289485.734727 kJ/mol
# GULP energy per Si atom -5567.033360 kJ/mol
# Density = 2.063013 g / cm^3
# Si number density = 20.677187 Si / 1000 Ang^3
#
#
#
# Elastic Constant Matrix: (Units=GPa)
#
#
# Indices 1 2 3 4 5 6 
#
# 1 115.1037 18.2739 27.0258 0.0000 0.0000 0.0000
# 2 18.2739 49.1487 12.9867 0.0000 0.0000 0.0000
# 3 27.0258 12.9867 69.4100 0.0000 0.0000 0.0000
# 4 0.0000 0.0000 0.0000 17.0942 0.0000 0.0000
# 5 0.0000 0.0000 0.0000 0.0000 42.7534 0.0000
# 6 0.0000 0.0000 0.0000 0.0000 0.0000 10.2002
#
#
#
# Elastic Compliance Matrix: (Units=1/GPa)
#
#
# Indices 1 2 3 4 5 6 
#
# 1 0.009917 -0.002806 -0.003336 0.000000 0.000000 0.000000
# 2 -0.002806 0.022198 -0.003061 0.000000 0.000000 0.000000
# 3 -0.003336 -0.003061 0.016279 0.000000 0.000000 0.000000
# 4 0.000000 0.000000 0.000000 0.058499 0.000000 0.000000
# 5 0.000000 0.000000 0.000000 0.000000 0.023390 0.000000
# 6 0.000000 0.000000 0.000000 0.000000 0.000000 0.098037
#
#
# Mechanical properties :
#
#
# Convention : Reuss Voigt Hill
#
# Bulk Modulus (GPa) = 33.34630 38.91501 36.13065
# Shear Modulus (GPa) = 19.47633 25.70129 22.58881
#
# Velocity S-wave (km/s) = 3.07241 3.52941 3.30881
# Velocity P-wave (km/s) = 5.36175 5.95568 5.66650
#
# Compressibility (1/GPa) = 0.02998834
#
# Stress axis : x y z
#
# Youngs Moduli (GPa) = 100.84144 45.04838 61.42929
#
# Poissons Ratio (x) = 0.12638 0.20494
# Poissons Ratio (y) = 0.28291 0.18803
# Poissons Ratio (z) = 0.33643 0.13789
#
# Static dielectric constant tensor:
#      x y z
#    x 1.694730 0.000000 0.000000 
#    y 0.000000 1.832600 0.000000 
#    z 0.000000 0.000000 1.725370 
# 
# From -- ./inp_files/49320.got.cif
#   From: 2010.05.17/outbox.cif.g08.bks.cpg/sg74_25_cif.got.tgz:49320.got - 2010.06.03 17:57:02.
