data_PCOD9538745
_publ_section_title
;
Structure prediction by ZEFSAII (Michael W. Deem and Ramdas Pophale) SiO2 
 PCOD9538745
Probable space group: I M M A
;
_chemical_formula_sum "Si O2"
_cell_formula_units_Z 88
_cell_length_a 30.598642
_cell_length_b 30.902886
_cell_length_c 5.460640
_cell_angle_alpha 90.000000
_cell_angle_beta 90.000000
_cell_angle_gamma 90.000000
_cell_volume 5163.506622
_symmetry_space_group_name_H-M "I M M A"
_symmetry_group_IT_number 74
_symmetry_cell_setting 'orthorhombic'
loop_
_space_group_symop_operation_xyz
x,y,z
-x,1/2-y,z
x,-y,-z
-x,1/2+y,-z
-x,-y,-z
x,1/2+y,-z
-x,y,z
x,1/2-y,z
1/2+x,1/2+y,1/2+z
1/2-x,-y,1/2+z
1/2+x,1/2-y,1/2-z
1/2-x,y,1/2-z
1/2-x,1/2-y,1/2-z
1/2+x,y,1/2-z
1/2-x,1/2+y,1/2+z
1/2+x,-y,1/2+z
loop_
_atom_site_type_symbol
_atom_site_label
_atom_site_fract_x
_atom_site_fract_y
_atom_site_fract_z
Si Si1 0.087782 0.500000 0.000000
Si Si2 0.448181 0.343040 0.535703
Si Si3 0.371057 0.951215 0.888775
Si Si4 0.450982 0.570263 0.187895
Si Si5 0.774340 0.947172 0.501096
Si Si6 0.553164 0.699435 0.962021
O O1 0.119498 0.537215 0.893224
O O2 0.056515 0.476791 0.805876
O O3 0.500000 0.333034 0.525265
O O4 0.445171 0.393435 0.603954
O O5 0.430689 0.327374 0.274255
O O6 0.430698 0.318077 0.775877
O O7 0.324622 0.932710 0.967848
O O8 0.412485 0.925719 0.992039
O O9 0.371631 0.000000 0.000000
O O10 0.500000 0.575145 0.086457
O O11 0.750000 0.933906 0.750000
O O12 0.774711 0.000000 0.500000
O O13 0.750000 0.933947 0.250000
O O14 0.500000 0.695256 0.969732
O O15 0.563099 0.750000 0.930923
#
# Coordination Sequence:
#
# PCOD9538745 Si02
#       6
#     8  16  16  16  16  16
#     4  10  21  32  48  62  86 128 172 212 241 272
#     4   9  18  29  44  64  85 113 151 192 233 279
#     4   9  20  32  46  63  88 115 160 201 243 286
#     4  10  21  33  45  62  90 127 170 210 241 270
#     4   9  18  29  49  68  86 107 140 191 247 292
#     4   9  16  28  45  64  85 108 141 188 238 284
#
# _framework density 17.042681999999999
#
# number of rings (size 3 to 8) (size 9 to 14) (size 15 to 20)
#    0.000    2.727    0.000    0.818   11.455    6.182 
#    0.000    0.000    0.000    0.000    0.000    0.000 
#    0.000    0.000    0.000    0.000    0.000   18.182 
#
# Total GULP energy -244950.623974 kJ/mol
# GULP energy per Si atom -5567.059636 kJ/mol
# Density = 1.700389 g / cm^3
# Si number density = 17.042682 Si / 1000 Ang^3
#
#
#
# Elastic Constant Matrix: (Units=GPa)
#
#
# Indices 1 2 3 4 5 6 
#
# 1 103.3088 15.2959 39.6052 0.0000 0.0000 0.0000
# 2 15.2959 28.4153 18.4649 0.0000 0.0000 0.0000
# 3 39.6052 18.4649 90.3918 0.0000 0.0000 0.0000
# 4 0.0000 0.0000 0.0000 22.2951 0.0000 0.0000
# 5 0.0000 0.0000 0.0000 0.0000 13.5747 0.0000
# 6 0.0000 0.0000 0.0000 0.0000 0.0000 0.0942
#
#
#
# Elastic Compliance Matrix: (Units=1/GPa)
#
#
# Indices 1 2 3 4 5 6 
#
# 1 0.011926 -0.003487 -0.004513 0.000000 0.000000 0.000000
# 2 -0.003487 0.041598 -0.006970 0.000000 0.000000 0.000000
# 3 -0.004513 -0.006970 0.014464 0.000000 0.000000 0.000000
# 4 0.000000 0.000000 0.000000 0.044853 0.000000 0.000000
# 5 0.000000 0.000000 0.000000 0.000000 0.073667 0.000000
# 6 0.000000 0.000000 0.000000 0.000000 0.000000 10.614187
#
#
# Mechanical properties :
#
#
# Convention : Reuss Voigt Hill
#
# Bulk Modulus (GPa) = 26.28195 40.98308 33.63251
# Shear Modulus (GPa) = 0.46111 17.10947 8.78529
#
# Velocity S-wave (km/s) = 0.52072 3.17191 2.27290
# Velocity P-wave (km/s) = 3.97697 6.12488 5.16384
#
# Compressibility (1/GPa) = 0.03804893
#
# Stress axis : x y z
#
# Youngs Moduli (GPa) = 83.84902 24.03934 69.13654
#
# Poissons Ratio (x) = 0.08383 0.31202
# Poissons Ratio (y) = 0.29239 0.48186
# Poissons Ratio (z) = 0.37842 0.16755
#
# Static dielectric constant tensor:
#      x y z
#    x 1.574470 0.000000 0.000000 
#    y 0.000000 1.580300 0.000000 
#    z 0.000000 0.000000 1.708970 
# 
# From -- ./inp_files/4631.got.cif
#   From: 2010.05.17/outbox.cif.g08.bks.cpg/sg74_3_cif.got.tgz:4631.got - 2010.06.03 17:57:02.
