data_PCOD9538898
_publ_section_title
;
Structure prediction by ZEFSAII (Michael W. Deem and Ramdas Pophale) SiO2 
 PCOD9538898
Probable space group: I M M A
;
_chemical_formula_sum "Si O2"
_cell_formula_units_Z 104
_cell_length_a 18.884391
_cell_length_b 14.222824
_cell_length_c 24.910455
_cell_angle_alpha 90.000000
_cell_angle_beta 90.000000
_cell_angle_gamma 90.000000
_cell_volume 6690.683403
_symmetry_space_group_name_H-M "I M M A"
_symmetry_group_IT_number 74
_symmetry_cell_setting 'orthorhombic'
loop_
_space_group_symop_operation_xyz
x,y,z
-x,1/2-y,z
x,-y,-z
-x,1/2+y,-z
-x,-y,-z
x,1/2+y,-z
-x,y,z
x,1/2-y,z
1/2+x,1/2+y,1/2+z
1/2-x,-y,1/2+z
1/2+x,1/2-y,1/2-z
1/2-x,y,1/2-z
1/2-x,1/2-y,1/2-z
1/2+x,y,1/2-z
1/2-x,1/2+y,1/2+z
1/2+x,-y,1/2+z
loop_
_atom_site_type_symbol
_atom_site_label
_atom_site_fract_x
_atom_site_fract_y
_atom_site_fract_z
Si Si1 0.228863 0.362058 0.188199
Si Si2 0.078655 0.138732 0.465759
Si Si3 0.920844 0.137834 0.025077
Si Si4 0.799682 0.000000 0.000000
Si Si5 0.576160 0.363564 0.348333
Si Si6 0.308497 0.981928 0.901513
Si Si7 0.917960 0.861221 0.405595
O O1 0.234948 0.250000 0.174006
O O2 0.250000 0.371946 0.250000
O O3 0.147164 0.392542 0.181104
O O4 0.274630 0.425107 0.147810
O O5 0.082714 0.250000 0.455795
O O6 0.136857 0.085377 0.432518
O O7 0.086627 0.125722 0.529643
O O8 0.000000 0.105195 0.450926
O O9 0.914939 0.250000 0.020399
O O10 0.918287 0.113924 0.088515
O O11 0.000000 0.111489 0.005129
O O12 0.853889 0.087511 0.999406
O O13 0.751115 0.003245 0.946750
O O14 0.500000 0.399087 0.328164
O O15 0.574206 0.250000 0.345012
O O16 0.355751 0.071856 0.883963
O O17 0.907043 0.750000 0.394750
O O18 0.000000 0.883597 0.390231
#
# Coordination Sequence:
#
# PCOD9538898 Si02
#       7
#    16  16  16   8  16  16  16
#     4  10  21  36  52  72 101 135 168 205 249 295
#     4   9  17  29  45  68 102 140 167 192 239 302
#     4   9  18  32  47  66  97 132 162 195 238 296
#     4  12  21  26  45  78 102 124 158 204 253 300
#     4   8  14  28  49  67  89 127 166 194 229 282
#     4  12  20  30  47  74 103 129 165 212 253 294
#     4   9  18  32  48  68  99 137 172 203 243 300
#
# _framework density 15.544003
#
# number of rings (size 3 to 8) (size 9 to 14) (size 15 to 20)
#    0.000    2.308    3.077    3.000    0.000    2.462 
#    0.000    1.538    0.000    4.154    0.000    0.000 
#    0.000    2.462    0.000    0.000    0.000    0.000 
#
# Total GULP energy -289641.941534 kJ/mol
# GULP energy per Si atom -5570.037337 kJ/mol
# Density = 1.550862 g / cm^3
# Si number density = 15.544003 Si / 1000 Ang^3
#
#
#
# Elastic Constant Matrix: (Units=GPa)
#
#
# Indices 1 2 3 4 5 6 
#
# 1 155.7523 62.0893 52.1638 0.0000 0.0000 0.0000
# 2 62.0893 66.6983 34.8166 0.0000 0.0000 0.0000
# 3 52.1638 34.8166 48.2744 0.0000 0.0000 0.0000
# 4 0.0000 0.0000 0.0000 18.3081 0.0000 0.0000
# 5 0.0000 0.0000 0.0000 0.0000 1.4898 0.0000
# 6 0.0000 0.0000 0.0000 0.0000 0.0000 30.9561
#
#
#
# Elastic Compliance Matrix: (Units=1/GPa)
#
#
# Indices 1 2 3 4 5 6 
#
# 1 0.011766 -0.006922 -0.007721 0.000000 0.000000 0.000000
# 2 -0.006922 0.028118 -0.012799 0.000000 0.000000 0.000000
# 3 -0.007721 -0.012799 0.038290 0.000000 0.000000 0.000000
# 4 0.000000 0.000000 0.000000 0.054621 0.000000 0.000000
# 5 0.000000 0.000000 0.000000 0.000000 0.671222 0.000000
# 6 0.000000 0.000000 0.000000 0.000000 0.000000 0.032304
#
#
# Mechanical properties :
#
#
# Convention : Reuss Voigt Hill
#
# Bulk Modulus (GPa) = 42.94150 63.20718 53.07434
# Shear Modulus (GPa) = 5.56192 18.26116 11.91154
#
# Velocity S-wave (km/s) = 1.89366 3.43126 2.77124
# Velocity P-wave (km/s) = 5.69798 7.51330 6.66771
#
# Compressibility (1/GPa) = 0.02328750
#
# Stress axis : x y z
#
# Youngs Moduli (GPa) = 84.99053 35.56413 26.11672
#
# Poissons Ratio (x) = 0.24619 0.20166
# Poissons Ratio (y) = 0.58834 0.33428
# Poissons Ratio (z) = 0.65625 0.45520
#
# Static dielectric constant tensor:
#      x y z
#    x 1.552670 0.000000 0.000000 
#    y 0.000000 1.540470 0.000000 
#    z 0.000000 0.000000 1.487740 
# 
# From -- ./inp_files/67856.got.cif
#   From: 2010.05.17/outbox.cif.g08.bks.cpg/sg74_34_cif.got.tgz:67856.got - 2010.06.03 17:57:02.
