data_PCOD9538743
_publ_section_title
;
Structure prediction by ZEFSAII (Michael W. Deem and Ramdas Pophale) SiO2 
 PCOD9538743
Probable space group: I M M A
;
_chemical_formula_sum "Si O2"
_cell_formula_units_Z 96
_cell_length_a 22.574814
_cell_length_b 20.935435
_cell_length_c 11.020876
_cell_angle_alpha 90.000000
_cell_angle_beta 90.000000
_cell_angle_gamma 90.000000
_cell_volume 5208.615343
_symmetry_space_group_name_H-M "I M M A"
_symmetry_group_IT_number 74
_symmetry_cell_setting 'orthorhombic'
loop_
_space_group_symop_operation_xyz
x,y,z
-x,1/2-y,z
x,-y,-z
-x,1/2+y,-z
-x,-y,-z
x,1/2+y,-z
-x,y,z
x,1/2-y,z
1/2+x,1/2+y,1/2+z
1/2-x,-y,1/2+z
1/2+x,1/2-y,1/2-z
1/2-x,y,1/2-z
1/2-x,1/2-y,1/2-z
1/2+x,y,1/2-z
1/2-x,1/2+y,1/2+z
1/2+x,-y,1/2+z
loop_
_atom_site_type_symbol
_atom_site_label
_atom_site_fract_x
_atom_site_fract_y
_atom_site_fract_z
Si Si1 0.130562 0.494967 0.640608
Si Si2 0.759757 0.177972 0.575857
Si Si3 0.883324 0.448720 0.102246
Si Si4 0.746111 0.576541 0.881043
Si Si5 0.929370 0.678115 0.022157
Si Si6 0.151554 0.358865 0.763243
O O1 0.106672 0.500000 0.500000
O O2 0.102763 0.533940 0.756306
O O3 0.197974 0.520682 0.628172
O O4 0.134023 0.424102 0.696441
O O5 0.739315 0.250000 0.547639
O O6 0.775977 0.131694 0.467960
O O7 0.817049 0.182742 0.660684
O O8 0.706611 0.139248 0.642001
O O9 0.811846 0.447928 0.092083
O O10 0.904919 0.500000 0.000000
O O11 0.905666 0.378911 0.062639
O O12 0.750000 0.607694 0.750000
O O13 0.912828 0.750000 0.981680
O O14 0.901565 0.667262 0.155740
O O15 0.000000 0.674004 0.027458
#
# Coordination Sequence:
#
# PCOD9538743 Si02
#       6
#    16  16  16  16  16  16
#     4  11  21  35  57  89 127 162 201 244 311 379
#     4  11  21  33  54  84 123 163 198 251 316 384
#     4  11  21  36  61  92 122 162 206 261 305 365
#     4  10  21  31  53  88 124 164 200 238 304 381
#     4  11  24  43  67  92 121 162 217 275 322 366
#     4  11  21  36  58  86 121 157 209 258 312 374
#
# _framework density 18.431000999999998
#
# number of rings (size 3 to 8) (size 9 to 14) (size 15 to 20)
#    0.000    1.167    5.000    2.500    7.000    0.667 
#    0.000    2.500    0.000    2.000    0.000    2.333 
#    0.000    0.000    0.000    0.000    0.000    0.000 
#
# Total GULP energy -267265.142904 kJ/mol
# GULP energy per Si atom -5568.023810 kJ/mol
# Density = 1.838905 g / cm^3
# Si number density = 18.431001 Si / 1000 Ang^3
#
#
#
# Elastic Constant Matrix: (Units=GPa)
#
#
# Indices 1 2 3 4 5 6 
#
# 1 34.8710 16.8583 26.3710 0.0000 0.0000 0.0000
# 2 16.8583 119.1125 63.6591 0.0000 0.0000 0.0000
# 3 26.3710 63.6591 106.1156 0.0000 0.0000 0.0000
# 4 0.0000 0.0000 0.0000 13.3023 0.0000 0.0000
# 5 0.0000 0.0000 0.0000 0.0000 12.3210 0.0000
# 6 0.0000 0.0000 0.0000 0.0000 0.0000 15.1943
#
#
#
# Elastic Compliance Matrix: (Units=1/GPa)
#
#
# Indices 1 2 3 4 5 6 
#
# 1 0.035330 -0.000453 -0.008508 0.000000 0.000000 0.000000
# 2 -0.000453 0.012363 -0.007304 0.000000 0.000000 0.000000
# 3 -0.008508 -0.007304 0.015920 0.000000 0.000000 0.000000
# 4 0.000000 0.000000 0.000000 0.075175 0.000000 0.000000
# 5 0.000000 0.000000 0.000000 0.000000 0.081162 0.000000
# 6 0.000000 0.000000 0.000000 0.000000 0.000000 0.065814
#
#
# Mechanical properties :
#
#
# Convention : Reuss Voigt Hill
#
# Bulk Modulus (GPa) = 32.17246 52.65287 42.41266
# Shear Modulus (GPa) = 15.21345 18.37757 16.79551
#
# Velocity S-wave (km/s) = 2.87614 3.16112 3.02199
# Velocity P-wave (km/s) = 5.34070 6.47712 5.93617
#
# Compressibility (1/GPa) = 0.03108249
#
# Stress axis : x y z
#
# Youngs Moduli (GPa) = 28.30419 80.88520 62.81494
#
# Poissons Ratio (x) = 0.03667 0.53443
# Poissons Ratio (y) = 0.01283 0.45880
# Poissons Ratio (z) = 0.24081 0.59079
#
# Static dielectric constant tensor:
#      x y z
#    x 1.624870 0.000000 0.000000 
#    y 0.000000 1.662320 0.000000 
#    z 0.000000 0.000000 1.807210 
# 
# From -- ./inp_files/25301.got.cif
#   From: 2010.05.17/outbox.cif.g08.bks.cpg/sg74_13_cif.got.tgz:25301.got - 2010.06.03 17:57:02.
