data_PCOD9538063
_publ_section_title
;
Structure prediction by ZEFSAII (Michael W. Deem and Ramdas Pophale) SiO2 
 PCOD9538063
Probable space group: I M M A
;
_chemical_formula_sum "Si O2"
_cell_formula_units_Z 96
_cell_length_a 19.819023
_cell_length_b 11.695011
_cell_length_c 19.269338
_cell_angle_alpha 90.000000
_cell_angle_beta 90.000000
_cell_angle_gamma 90.000000
_cell_volume 4466.318304
_symmetry_space_group_name_H-M "I M M A"
_symmetry_group_IT_number 74
_symmetry_cell_setting 'orthorhombic'
loop_
_space_group_symop_operation_xyz
x,y,z
-x,1/2-y,z
x,-y,-z
-x,1/2+y,-z
-x,-y,-z
x,1/2+y,-z
-x,y,z
x,1/2-y,z
1/2+x,1/2+y,1/2+z
1/2-x,-y,1/2+z
1/2+x,1/2-y,1/2-z
1/2-x,y,1/2-z
1/2-x,1/2-y,1/2-z
1/2+x,y,1/2-z
1/2-x,1/2+y,1/2+z
1/2+x,-y,1/2+z
loop_
_atom_site_type_symbol
_atom_site_label
_atom_site_fract_x
_atom_site_fract_y
_atom_site_fract_z
Si Si1 0.575528 0.431197 0.929044
Si Si2 0.580128 0.869419 0.829849
Si Si3 0.580008 0.375555 0.475509
Si Si4 0.422289 0.452473 0.321971
Si Si5 0.277787 0.376348 0.960379
Si Si6 0.202674 0.617475 0.187152
O O1 0.500000 0.384470 0.911457
O O2 0.600483 0.517351 0.869073
O O3 0.642639 0.363116 0.945179
O O4 0.565846 0.500000 0.000000
O O5 0.500000 0.864946 0.844317
O O6 0.610821 0.750000 0.855393
O O7 0.587876 0.880700 0.747882
O O8 0.607713 0.500000 0.500000
O O9 0.500000 0.377266 0.493326
O O10 0.604970 0.250000 0.500483
O O11 0.586103 0.381683 0.392415
O O12 0.500000 0.494816 0.321440
O O13 0.367304 0.551230 0.319229
O O14 0.257377 0.250000 0.991533
O O15 0.239964 0.388442 0.886778
O O16 0.269036 0.500000 0.000000
O O17 0.188956 0.750000 0.203334
O O18 0.250000 0.572365 0.250000
#
# Coordination Sequence:
#
# PCOD9538063 Si02
#       6
#    16  16  16  16  16  16
#     4   9  18  32  54  86 118 149 190 238 287 343
#     4   9  17  31  53  82 117 154 191 238 297 351
#     4   9  18  33  54  83 120 157 192 238 297 354
#     4  10  20  35  59  89 116 146 193 250 299 345
#     4  10  22  41  63  86 118 160 200 242 295 354
#     4  10  22  41  61  82 116 160 199 238 292 356
#
# _framework density 21.494212999999998
#
# number of rings (size 3 to 8) (size 9 to 14) (size 15 to 20)
#    0.000    2.500    0.000    1.500    0.000    6.667 
#    0.000    8.333    0.000    9.500    0.000    0.000 
#    0.000    0.000    0.000    0.000    0.000    0.000 
#
# Total GULP energy -267230.390429 kJ/mol
# GULP energy per Si atom -5567.299801 kJ/mol
# Density = 2.144529 g / cm^3
# Si number density = 21.494213 Si / 1000 Ang^3
#
#
#
# Elastic Constant Matrix: (Units=GPa)
#
#
# Indices 1 2 3 4 5 6 
#
# 1 113.5865 48.8379 4.7045 0.0000 0.0000 0.0000
# 2 48.8379 165.5428 39.6955 0.0000 0.0000 0.0000
# 3 4.7045 39.6955 62.9819 0.0000 0.0000 0.0000
# 4 0.0000 0.0000 0.0000 -23.4274 0.0000 0.0000
# 5 0.0000 0.0000 0.0000 0.0000 24.6601 0.0000
# 6 0.0000 0.0000 0.0000 0.0000 0.0000 1.2950
#
#
#
# Elastic Compliance Matrix: (Units=1/GPa)
#
#
# Indices 1 2 3 4 5 6 
#
# 1 0.010177 -0.003322 0.001334 0.000000 0.000000 0.000000
# 2 -0.003322 0.008201 -0.004921 0.000000 0.000000 0.000000
# 3 0.001334 -0.004921 0.018879 0.000000 0.000000 0.000000
# 4 0.000000 0.000000 0.000000 -0.042685 0.000000 0.000000
# 5 0.000000 0.000000 0.000000 0.000000 0.040551 0.000000
# 6 0.000000 0.000000 0.000000 0.000000 0.000000 0.772186
#
#
# Mechanical properties :
#
#
# Convention : Reuss Voigt Hill
#
# Bulk Modulus (GPa) = 42.66401 58.73188 50.69794
# Shear Modulus (GPa) = 6.03180 17.09710 11.56445
#
# Velocity S-wave (km/s) = 1.67700 2.82339 2.32206
# Velocity P-wave (km/s) = 4.86230 6.16543 5.55223
#
# Compressibility (1/GPa) = 0.02343896
#
# Stress axis : x y z
#
# Youngs Moduli (GPa) = 98.26029 121.94033 52.96832
#
# Poissons Ratio (x) = 0.40511 -0.07064
# Poissons Ratio (y) = 0.32644 0.26063
# Poissons Ratio (z) = -0.13105 0.60001
#
# Static dielectric constant tensor:
#      x y z
#    x 1.786010 0.000000 0.000000 
#    y 0.000000 1.770830 0.000000 
#    z 0.000000 0.000000 1.795690 
# 
# From -- ./inp_files/53874.got.cif
#   From: 2010.05.17/outbox.cif.g08.bks.cpg/sg74_27_cif.got.tgz:53874.got - 2010.06.03 17:57:02.
