data_PCOD9538122
_publ_section_title
;
Structure prediction by ZEFSAII (Michael W. Deem and Ramdas Pophale) SiO2 
 PCOD9538122
Probable space group: I M M A
;
_chemical_formula_sum "Si O2"
_cell_formula_units_Z 120
_cell_length_a 8.590184
_cell_length_b 27.759742
_cell_length_c 28.326483
_cell_angle_alpha 90.000000
_cell_angle_beta 90.000000
_cell_angle_gamma 90.000000
_cell_volume 6754.769722
_symmetry_space_group_name_H-M "I M M A"
_symmetry_group_IT_number 74
_symmetry_cell_setting 'orthorhombic'
loop_
_space_group_symop_operation_xyz
x,y,z
-x,1/2-y,z
x,-y,-z
-x,1/2+y,-z
-x,-y,-z
x,1/2+y,-z
-x,y,z
x,1/2-y,z
1/2+x,1/2+y,1/2+z
1/2-x,-y,1/2+z
1/2+x,1/2-y,1/2-z
1/2-x,y,1/2-z
1/2-x,1/2-y,1/2-z
1/2+x,y,1/2-z
1/2-x,1/2+y,1/2+z
1/2+x,-y,1/2+z
loop_
_atom_site_type_symbol
_atom_site_label
_atom_site_fract_x
_atom_site_fract_y
_atom_site_fract_z
Si Si1 0.813374 0.945433 0.987756
Si Si2 0.189302 0.303783 0.437250
Si Si3 0.185423 0.750000 0.302973
Si Si4 0.688929 0.598435 0.891804
Si Si5 0.687087 0.927587 0.197653
Si Si6 0.686382 0.852359 0.035764
Si Si7 0.685073 0.840036 0.361452
Si Si8 0.687440 0.038697 0.198325
O O1 0.754379 0.931736 0.935711
O O2 0.000000 0.059199 0.009929
O O3 0.737935 0.906593 0.022967
O O4 0.770156 0.000000 0.000000
O O5 0.245515 0.250000 0.426830
O O6 0.237208 0.346303 0.401651
O O7 0.233425 0.320554 0.490167
O O8 0.000000 0.302871 0.436561
O O9 0.250000 0.750000 0.250000
O O10 0.243835 0.702979 0.330637
O O11 0.000000 0.750000 0.301489
O O12 0.500000 0.596639 0.893856
O O13 0.739724 0.574710 0.842790
O O14 0.500000 0.924417 0.197719
O O15 0.750000 0.915569 0.250000
O O16 0.754830 0.890319 0.160208
O O17 0.732945 0.983155 0.187773
O O18 0.500000 0.850224 0.039928
O O19 0.761567 0.835904 0.084433
O O20 0.500000 0.838197 0.358403
O O21 0.500000 0.039730 0.199873
O O22 0.750000 0.051164 0.250000
#
# Coordination Sequence:
#
# PCOD9538122 Si02
#       8
#    16  16   8  16  16  16  16  16
#     4  10  21  35  51  77 111 146 181 222 275 333
#     4   8  15  30  54  80 105 135 177 226 270 317
#     4  12  26  46  66  84 108 144 190 238 293 346
#     4   9  18  33  53  79 107 141 184 225 270 331
#     4  10  20  36  55  78 105 140 182 225 275 330
#     4  10  21  36  55  80 108 144 186 228 274 327
#     4  12  25  40  58  83 112 142 181 232 286 338
#     4   9  19  34  54  81 110 143 183 225 269 324
#
# _framework density 17.765225000000001
#
# number of rings (size 3 to 8) (size 9 to 14) (size 15 to 20)
#    0.000    2.133    0.000    4.200    2.800    2.133 
#    0.000    0.000    0.000    4.000    0.000    0.000 
#    0.000    0.000    0.000    0.000    0.000    0.000 
#
# Total GULP energy -334993.077512 kJ/mol
# GULP energy per Si atom -5583.217959 kJ/mol
# Density = 1.772479 g / cm^3
# Si number density = 17.765225 Si / 1000 Ang^3
#
#
#
# Elastic Constant Matrix: (Units=GPa)
#
#
# Indices 1 2 3 4 5 6 
#
# 1 62.5716 31.8921 34.5841 0.0000 0.0000 0.0000
# 2 31.8921 131.7327 78.6010 0.0000 0.0000 0.0000
# 3 34.5841 78.6010 127.3407 0.0000 0.0000 0.0000
# 4 0.0000 0.0000 0.0000 19.3793 0.0000 0.0000
# 5 0.0000 0.0000 0.0000 0.0000 29.6212 0.0000
# 6 0.0000 0.0000 0.0000 0.0000 0.0000 9.2798
#
#
#
# Elastic Compliance Matrix: (Units=1/GPa)
#
#
# Indices 1 2 3 4 5 6 
#
# 1 0.019289 -0.002444 -0.003730 0.000000 0.000000 0.000000
# 2 -0.002444 0.012327 -0.006945 0.000000 0.000000 0.000000
# 3 -0.003730 -0.006945 0.013153 0.000000 0.000000 0.000000
# 4 0.000000 0.000000 0.000000 0.051602 0.000000 0.000000
# 5 0.000000 0.000000 0.000000 0.000000 0.033760 0.000000
# 6 0.000000 0.000000 0.000000 0.000000 0.000000 0.107761
#
#
# Mechanical properties :
#
#
# Convention : Reuss Voigt Hill
#
# Bulk Modulus (GPa) = 53.96554 67.97772 60.97163
# Shear Modulus (GPa) = 18.49760 23.42724 20.96242
#
# Velocity S-wave (km/s) = 3.23030 3.63535 3.43880
# Velocity P-wave (km/s) = 6.66004 7.48121 7.08254
#
# Compressibility (1/GPa) = 0.01853034
#
# Stress axis : x y z
#
# Youngs Moduli (GPa) = 51.84278 81.12518 76.03058
#
# Poissons Ratio (x) = 0.19829 0.28359
# Poissons Ratio (y) = 0.12672 0.52801
# Poissons Ratio (z) = 0.19337 0.56340
#
# Static dielectric constant tensor:
#      x y z
#    x 1.598670 0.000000 0.000000 
#    y 0.000000 1.610070 0.000000 
#    z 0.000000 0.000000 1.575580 
# 
# From -- ./inp_files/65129.got.cif
#   From: 2010.05.17/outbox.cif.g08.bks.cpg/sg74_33_cif.got.tgz:65129.got - 2010.06.03 17:57:02.
