data_PCOD9538157
_publ_section_title
;
Structure prediction by ZEFSAII (Michael W. Deem and Ramdas Pophale) SiO2 
 PCOD9538157
Probable space group: I M M A
;
_chemical_formula_sum "Si O2"
_cell_formula_units_Z 88
_cell_length_a 13.194771
_cell_length_b 13.489945
_cell_length_c 24.394307
_cell_angle_alpha 90.000000
_cell_angle_beta 90.000000
_cell_angle_gamma 90.000000
_cell_volume 4342.107000
_symmetry_space_group_name_H-M "I M M A"
_symmetry_group_IT_number 74
_symmetry_cell_setting 'orthorhombic'
loop_
_space_group_symop_operation_xyz
x,y,z
-x,1/2-y,z
x,-y,-z
-x,1/2+y,-z
-x,-y,-z
x,1/2+y,-z
-x,y,z
x,1/2-y,z
1/2+x,1/2+y,1/2+z
1/2-x,-y,1/2+z
1/2+x,1/2-y,1/2-z
1/2-x,y,1/2-z
1/2-x,1/2-y,1/2-z
1/2+x,y,1/2-z
1/2-x,1/2+y,1/2+z
1/2+x,-y,1/2+z
loop_
_atom_site_type_symbol
_atom_site_label
_atom_site_fract_x
_atom_site_fract_y
_atom_site_fract_z
Si Si1 0.500000 0.058133 0.095659
Si Si2 0.888141 0.010198 0.125549
Si Si3 0.000000 0.136644 0.666333
Si Si4 0.133613 0.036299 0.754118
Si Si5 0.778835 0.132032 0.426757
Si Si6 0.385145 0.864495 0.477061
Si Si7 0.500000 0.862777 0.783750
O O1 0.608870 0.083549 0.067938
O O2 0.500000 0.124881 0.150839
O O3 0.500000 0.944475 0.117720
O O4 0.790629 0.082241 0.120938
O O5 0.000000 0.060266 0.122040
O O6 0.890912 0.949873 0.182200
O O7 0.877312 0.935388 0.074836
O O8 0.909630 0.110254 0.708381
O O9 0.000000 0.250000 0.648221
O O10 0.250000 0.039679 0.750000
O O11 0.092859 0.927311 0.738668
O O12 0.791148 0.250000 0.417946
O O13 0.705003 0.118700 0.479603
O O14 0.500000 0.878678 0.500337
O O15 0.378509 0.750000 0.460027
O O16 0.500000 0.750000 0.766966
#
# Coordination Sequence:
#
# PCOD9538157 Si02
#       7
#     8  16   8  16  16  16   8
#     4  10  22  42  63  88 123 163 207 249 315 370
#     4  11  20  37  59  90 125 165 202 257 309 366
#     4  10  22  42  64  89 120 155 204 258 307 372
#     4  10  21  38  58  89 125 159 203 249 308 371
#     4  11  22  37  61  90 123 166 209 252 306 367
#     4   9  20  38  61  91 124 162 210 257 307 365
#     4  10  20  36  56  87 124 162 206 249 294 360
#
# _framework density 20.266658
#
# number of rings (size 3 to 8) (size 9 to 14) (size 15 to 20)
#    0.000    2.000    1.818    4.091    0.000    4.727 
#    0.000    4.545    0.000    1.091    0.000    0.000 
#    0.000    0.000    0.000    0.000    0.000    0.000 
#
# Total GULP energy -245261.151486 kJ/mol
# GULP energy per Si atom -5574.117079 kJ/mol
# Density = 2.022053 g / cm^3
# Si number density = 20.266658 Si / 1000 Ang^3
#
#
#
# Elastic Constant Matrix: (Units=GPa)
#
#
# Indices 1 2 3 4 5 6 
#
# 1 197.1874 48.0231 34.5580 0.0000 0.0000 0.0000
# 2 48.0231 129.2979 20.5746 0.0000 0.0000 0.0000
# 3 34.5580 20.5746 61.8418 0.0000 0.0000 0.0000
# 4 0.0000 0.0000 0.0000 8.4003 0.0000 0.0000
# 5 0.0000 0.0000 0.0000 0.0000 43.0508 0.0000
# 6 0.0000 0.0000 0.0000 0.0000 0.0000 72.3939
#
#
#
# Elastic Compliance Matrix: (Units=1/GPa)
#
#
# Indices 1 2 3 4 5 6 
#
# 1 0.005989 -0.001786 -0.002752 0.000000 0.000000 0.000000
# 2 -0.001786 0.008699 -0.001896 0.000000 0.000000 0.000000
# 3 -0.002752 -0.001896 0.018339 0.000000 0.000000 0.000000
# 4 0.000000 0.000000 0.000000 0.119044 0.000000 0.000000
# 5 0.000000 0.000000 0.000000 0.000000 0.023228 0.000000
# 6 0.000000 0.000000 0.000000 0.000000 0.000000 0.013813
#
#
# Mechanical properties :
#
#
# Convention : Reuss Voigt Hill
#
# Bulk Modulus (GPa) = 49.60843 66.07095 57.83969
# Shear Modulus (GPa) = 23.95772 43.78041 33.86907
#
# Velocity S-wave (km/s) = 3.44193 4.65286 4.09243
# Velocity P-wave (km/s) = 6.35034 7.84455 7.13666
#
# Compressibility (1/GPa) = 0.02015786
#
# Stress axis : x y z
#
# Youngs Moduli (GPa) = 166.98085 114.95245 54.52841
#
# Poissons Ratio (x) = 0.20534 0.15008
# Poissons Ratio (y) = 0.29828 0.10338
# Poissons Ratio (z) = 0.45957 0.21795
#
# Static dielectric constant tensor:
#      x y z
#    x 1.750880 0.000000 0.000000 
#    y 0.000000 1.709780 0.000000 
#    z 0.000000 0.000000 1.748830 
# 
# From -- ./inp_files/58685.got.cif
#   From: 2010.05.17/outbox.cif.g08.bks.cpg/sg74_30_cif.got.tgz:58685.got - 2010.06.03 17:57:02.
