data_PCOD9538503
_publ_section_title
;
Structure prediction by ZEFSAII (Michael W. Deem and Ramdas Pophale) SiO2 
 PCOD9538503
Probable space group: I M M A
;
_chemical_formula_sum "Si O2"
_cell_formula_units_Z 52
_cell_length_a 7.477410
_cell_length_b 10.834322
_cell_length_c 30.005641
_cell_angle_alpha 90.000000
_cell_angle_beta 90.000000
_cell_angle_gamma 90.000000
_cell_volume 2430.837022
_symmetry_space_group_name_H-M "I M M A"
_symmetry_group_IT_number 74
_symmetry_cell_setting 'orthorhombic'
loop_
_space_group_symop_operation_xyz
x,y,z
-x,1/2-y,z
x,-y,-z
-x,1/2+y,-z
-x,-y,-z
x,1/2+y,-z
-x,y,z
x,1/2-y,z
1/2+x,1/2+y,1/2+z
1/2-x,-y,1/2+z
1/2+x,1/2-y,1/2-z
1/2-x,y,1/2-z
1/2-x,1/2-y,1/2-z
1/2+x,y,1/2-z
1/2-x,1/2+y,1/2+z
1/2+x,-y,1/2+z
loop_
_atom_site_type_symbol
_atom_site_label
_atom_site_fract_x
_atom_site_fract_y
_atom_site_fract_z
Si Si1 0.703178 0.035046 0.887248
Si Si2 0.500000 0.750000 0.397548
Si Si3 0.712771 0.609067 0.698796
Si Si4 0.215485 0.885102 0.528786
O O1 0.500000 0.074256 0.898396
O O2 0.843563 0.142223 0.895409
O O3 0.709526 0.984527 0.837053
O O4 0.747803 0.920685 0.920043
O O5 0.500000 0.609584 0.692341
O O6 0.779236 0.750000 0.692482
O O7 0.750000 0.574626 0.750000
O O8 0.286392 0.750000 0.516559
O O9 0.000000 0.880592 0.522624
O O10 0.283593 0.000000 0.500000
#
# Coordination Sequence:
#
# PCOD9538503 Si02
#       4
#    16   4  16  16
#     4  11  23  42  68  91 130 173 219 270 334 384
#     4  12  26  44  62  94 128 180 218 280 310 416
#     4  10  20  37  65  98 131 164 210 270 328 388
#     4   9  19  36  64 100 132 172 220 268 324 393
#
# _framework density 21.391808999999999
#
# number of rings (size 3 to 8) (size 9 to 14) (size 15 to 20)
#    0.000    1.846    1.538    2.308    2.154    3.077 
#    0.000    1.538    0.000    0.000    0.000    0.000 
#    0.000    0.000    0.000    0.000    0.000    0.000 
#
# Total GULP energy -144806.177846 kJ/mol
# GULP energy per Si atom -5569.468379 kJ/mol
# Density = 2.134312 g / cm^3
# Si number density = 21.391809 Si / 1000 Ang^3
#
#
#
# Elastic Constant Matrix: (Units=GPa)
#
#
# Indices 1 2 3 4 5 6 
#
# 1 120.7220 40.4168 0.2873 0.0000 0.0000 0.0000
# 2 40.4168 164.0189 41.5719 0.0000 0.0000 0.0000
# 3 0.2873 41.5719 67.1103 0.0000 0.0000 0.0000
# 4 0.0000 0.0000 0.0000 4.8323 0.0000 0.0000
# 5 0.0000 0.0000 0.0000 0.0000 -6.5257 0.0000
# 6 0.0000 0.0000 0.0000 0.0000 0.0000 25.4220
#
#
#
# Elastic Compliance Matrix: (Units=1/GPa)
#
#
# Indices 1 2 3 4 5 6 
#
# 1 0.009173 -0.002670 0.001614 0.000000 0.000000 0.000000
# 2 -0.002670 0.008009 -0.004950 0.000000 0.000000 0.000000
# 3 0.001614 -0.004950 0.017960 0.000000 0.000000 0.000000
# 4 0.000000 0.000000 0.000000 0.206940 0.000000 0.000000
# 5 0.000000 0.000000 0.000000 0.000000 -0.153240 0.000000
# 6 0.000000 0.000000 0.000000 0.000000 0.000000 0.039336
#
#
# Mechanical properties :
#
#
# Convention : Reuss Voigt Hill
#
# Bulk Modulus (GPa) = 43.22903 57.37812 50.30358
# Shear Modulus (GPa) = 33.80676 22.71740 28.26208
#
# Velocity S-wave (km/s) = 3.97969 3.26232 3.63872
# Velocity P-wave (km/s) = 6.43190 6.40867 6.42029
#
# Compressibility (1/GPa) = 0.02313260
#
# Stress axis : x y z
#
# Youngs Moduli (GPa) = 109.01040 124.85448 55.67856
#
# Poissons Ratio (x) = 0.33332 -0.08989
# Poissons Ratio (y) = 0.29102 0.27561
# Poissons Ratio (z) = -0.17599 0.61803
#
# Static dielectric constant tensor:
#      x y z
#    x 1.790280 0.000000 0.000000 
#    y 0.000000 1.742810 0.000000 
#    z 0.000000 0.000000 1.784150 
# 
# From -- ./inp_files/63164.got.cif
#   From: 2010.05.17/outbox.cif.g08.bks.cpg/sg74_32_cif.got.tgz:63164.got - 2010.06.03 17:57:02.
