data_PCOD9538516
_publ_section_title
;
Structure prediction by ZEFSAII (Michael W. Deem and Ramdas Pophale) SiO2 
 PCOD9538516
Probable space group: I M M A
;
_chemical_formula_sum "Si O2"
_cell_formula_units_Z 88
_cell_length_a 17.099797
_cell_length_b 7.762784
_cell_length_c 29.751735
_cell_angle_alpha 90.000000
_cell_angle_beta 90.000000
_cell_angle_gamma 90.000000
_cell_volume 3949.305716
_symmetry_space_group_name_H-M "I M M A"
_symmetry_group_IT_number 74
_symmetry_cell_setting 'orthorhombic'
loop_
_space_group_symop_operation_xyz
x,y,z
-x,1/2-y,z
x,-y,-z
-x,1/2+y,-z
-x,-y,-z
x,1/2+y,-z
-x,y,z
x,1/2-y,z
1/2+x,1/2+y,1/2+z
1/2-x,-y,1/2+z
1/2+x,1/2-y,1/2-z
1/2-x,y,1/2-z
1/2-x,1/2-y,1/2-z
1/2+x,y,1/2-z
1/2-x,1/2+y,1/2+z
1/2+x,-y,1/2+z
loop_
_atom_site_type_symbol
_atom_site_label
_atom_site_fract_x
_atom_site_fract_y
_atom_site_fract_z
Si Si1 0.000000 0.042041 0.054113
Si Si2 0.751983 0.039192 0.197358
Si Si3 0.084280 0.451377 0.332632
Si Si4 0.584184 0.049260 0.059687
Si Si5 0.360225 0.056372 0.380182
Si Si6 0.754199 0.057345 0.951987
O O1 0.074286 0.983544 0.085119
O O2 0.000000 0.250000 0.053934
O O3 0.000000 0.000000 0.000000
O O4 0.753773 0.250000 0.192904
O O5 0.750000 0.998882 0.250000
O O6 0.667698 0.973223 0.180581
O O7 0.824973 0.978255 0.166141
O O8 0.084935 0.250000 0.318022
O O9 0.083707 0.452471 0.386390
O O10 0.000000 0.525033 0.317299
O O11 0.500000 0.977356 0.045965
O O12 0.590250 0.250000 0.046045
O O13 0.660983 0.951103 0.045221
O O14 0.387576 0.250000 0.369208
O O15 0.283949 0.061012 0.412084
O O16 0.779096 0.250000 0.941589
O O17 0.786957 0.000000 0.000000
#
# Coordination Sequence:
#
# PCOD9538516 Si02
#       6
#     8  16  16  16  16  16
#     4  10  22  38  60  86 114 150 190 244 303 358
#     4   9  16  28  50  80 113 148 183 228 285 340
#     4   8  13  24  45  73 103 138 179 221 266 318
#     4   9  17  32  54  76 105 145 183 222 269 317
#     4  10  20  38  58  80 114 147 186 235 288 348
#     4  12  24  36  54  79 107 143 186 228 281 337
#
# _framework density 22.282399000000002
#
# number of rings (size 3 to 8) (size 9 to 14) (size 15 to 20)
#    0.000    2.364    1.818    3.273    0.000    2.909 
#    1.636    0.000    0.000    0.545    0.000    0.000 
#    0.000    0.000    0.000    0.000    0.000    0.000 
#
# Total GULP energy -245075.368054 kJ/mol
# GULP energy per Si atom -5569.894728 kJ/mol
# Density = 2.223168 g / cm^3
# Si number density = 22.282399 Si / 1000 Ang^3
#
#
#
# Elastic Constant Matrix: (Units=GPa)
#
#
# Indices 1 2 3 4 5 6 
#
# 1 141.7991 8.4374 65.7976 0.0000 0.0000 0.0000
# 2 8.4374 53.2605 6.2110 0.0000 0.0000 0.0000
# 3 65.7976 6.2110 139.1721 0.0000 0.0000 0.0000
# 4 0.0000 0.0000 0.0000 10.5556 0.0000 0.0000
# 5 0.0000 0.0000 0.0000 0.0000 14.2625 0.0000
# 6 0.0000 0.0000 0.0000 0.0000 0.0000 9.9057
#
#
#
# Elastic Compliance Matrix: (Units=1/GPa)
#
#
# Indices 1 2 3 4 5 6 
#
# 1 0.009081 -0.000943 -0.004251 0.000000 0.000000 0.000000
# 2 -0.000943 0.018972 -0.000401 0.000000 0.000000 0.000000
# 3 -0.004251 -0.000401 0.009213 0.000000 0.000000 0.000000
# 4 0.000000 0.000000 0.000000 0.094737 0.000000 0.000000
# 5 0.000000 0.000000 0.000000 0.000000 0.070114 0.000000
# 6 0.000000 0.000000 0.000000 0.000000 0.000000 0.100952
#
#
# Mechanical properties :
#
#
# Convention : Reuss Voigt Hill
#
# Bulk Modulus (GPa) = 38.34959 55.01375 46.68167
# Shear Modulus (GPa) = 15.48227 23.86380 19.67304
#
# Velocity S-wave (km/s) = 2.63880 3.27612 2.97458
# Velocity P-wave (km/s) = 5.15097 6.24928 5.72652
#
# Compressibility (1/GPa) = 0.02607590
#
# Stress axis : x y z
#
# Youngs Moduli (GPa) = 110.12026 52.70998 108.54080
#
# Poissons Ratio (x) = 0.04970 0.46143
# Poissons Ratio (y) = 0.10383 0.04352
# Poissons Ratio (z) = 0.46814 0.02113
#
# Static dielectric constant tensor:
#      x y z
#    x 1.880470 0.000000 0.000000 
#    y 0.000000 1.860840 0.000000 
#    z 0.000000 0.000000 1.815330 
# 
# From -- ./inp_files/72975.got.cif
#   From: 2010.05.17/outbox.cif.g08.bks.cpg/sg74_37_cif.got.tgz:72975.got - 2010.06.03 17:57:02.
