data_PCOD9538295
_publ_section_title
;
Structure prediction by ZEFSAII (Michael W. Deem and Ramdas Pophale) SiO2 
 PCOD9538295
Probable space group: I M M A
;
_chemical_formula_sum "Si O2"
_cell_formula_units_Z 88
_cell_length_a 23.778268
_cell_length_b 11.099818
_cell_length_c 15.744904
_cell_angle_alpha 90.000000
_cell_angle_beta 90.000000
_cell_angle_gamma 90.000000
_cell_volume 4155.622533
_symmetry_space_group_name_H-M "I M M A"
_symmetry_group_IT_number 74
_symmetry_cell_setting 'orthorhombic'
loop_
_space_group_symop_operation_xyz
x,y,z
-x,1/2-y,z
x,-y,-z
-x,1/2+y,-z
-x,-y,-z
x,1/2+y,-z
-x,y,z
x,1/2-y,z
1/2+x,1/2+y,1/2+z
1/2-x,-y,1/2+z
1/2+x,1/2-y,1/2-z
1/2-x,y,1/2-z
1/2-x,1/2-y,1/2-z
1/2+x,y,1/2-z
1/2-x,1/2+y,1/2+z
1/2+x,-y,1/2+z
loop_
_atom_site_type_symbol
_atom_site_label
_atom_site_fract_x
_atom_site_fract_y
_atom_site_fract_z
Si Si1 0.234191 0.119791 0.101189
Si Si2 0.435753 0.884435 0.247211
Si Si3 0.500000 0.120484 0.446516
Si Si4 0.217584 0.879410 0.412313
Si Si5 0.110150 0.382316 0.171539
Si Si6 0.414985 0.881734 0.049859
O O1 0.254197 0.250000 0.135268
O O2 0.168330 0.109701 0.120344
O O3 0.265342 0.001180 0.135206
O O4 0.246973 0.122876 0.000216
O O5 0.500000 0.900331 0.278462
O O6 0.416023 0.750000 0.273950
O O7 0.437216 0.884157 0.145423
O O8 0.398052 0.997041 0.274227
O O9 0.500000 0.250000 0.494210
O O10 0.556169 0.119245 0.389883
O O11 0.500000 0.000000 0.500000
O O12 0.225924 0.750000 0.368445
O O13 0.152731 0.886609 0.440277
O O14 0.110340 0.250000 0.216158
O O15 0.429181 0.750000 0.011810
O O16 0.433367 0.000000 0.000000
#
# Coordination Sequence:
#
# PCOD9538295 Si02
#       6
#    16  16   8  16  16  16
#     4   9  17  30  52  79 105 139 182 223 269 326
#     4  10  22  40  60  83 114 151 192 239 290 344
#     4  10  22  36  54  82 115 148 189 236 279 332
#     4   9  17  31  53  79 109 145 181 226 280 331
#     4  10  21  38  57  81 115 153 193 233 280 344
#     4  10  20  36  60  87 113 146 190 238 289 347
#
# _framework density 21.176127999999999
#
# number of rings (size 3 to 8) (size 9 to 14) (size 15 to 20)
#    0.000    2.364    2.727    0.000    2.545    2.545 
#    0.000    0.909    0.000    5.455    0.000    0.000 
#    0.000    0.000    0.000    0.000    0.000    0.000 
#
# Total GULP energy -245257.754045 kJ/mol
# GULP energy per Si atom -5574.039865 kJ/mol
# Density = 2.112793 g / cm^3
# Si number density = 21.176128 Si / 1000 Ang^3
#
#
#
# Elastic Constant Matrix: (Units=GPa)
#
#
# Indices 1 2 3 4 5 6 
#
# 1 82.1828 50.1943 11.3818 0.0000 0.0000 0.0000
# 2 50.1943 253.1710 33.9210 0.0000 0.0000 0.0000
# 3 11.3818 33.9210 23.0830 0.0000 0.0000 0.0000
# 4 0.0000 0.0000 0.0000 27.3792 0.0000 0.0000
# 5 0.0000 0.0000 0.0000 0.0000 69.9538 0.0000
# 6 0.0000 0.0000 0.0000 0.0000 0.0000-2328.1677
#
#
#
# Elastic Compliance Matrix: (Units=1/GPa)
#
#
# Indices 1 2 3 4 5 6 
#
# 1 0.014072 -0.002316 -0.003535 0.000000 0.000000 0.000000
# 2 -0.002316 0.005300 -0.006646 0.000000 0.000000 0.000000
# 3 -0.003535 -0.006646 0.054831 0.000000 0.000000 0.000000
# 4 0.000000 0.000000 0.000000 0.036524 0.000000 0.000000
# 5 0.000000 0.000000 0.000000 0.000000 0.014295 0.000000
# 6 0.000000 0.000000 0.000000 0.000000 0.000000 -0.000430
#
#
# Mechanical properties :
#
#
# Convention : Reuss Voigt Hill
#
# Bulk Modulus (GPa) = 20.32150 61.04790 40.68470
# Shear Modulus (GPa) = 30.12246 -428.63762 -199.25758
#
# Velocity S-wave (km/s) = 3.77566 -14.24271 -9.71080
# Velocity P-wave (km/s) = 5.35021 15.54291 10.31885
#
# Compressibility (1/GPa) = 0.04920897
#
# Stress axis : x y z
#
# Youngs Moduli (GPa) = 71.06146 188.69451 18.23792
#
# Poissons Ratio (x) = 0.43709 0.06447
# Poissons Ratio (y) = 0.16461 0.12120
# Poissons Ratio (z) = 0.25119 1.25400
#
# Static dielectric constant tensor:
#      x y z
#    x 1.647300 0.000000 0.000000 
#    y 0.000000 1.871640 0.000000 
#    z 0.000000 0.000000 1.726470 
# 
# From -- ./inp_files/36260.got.cif
#   From: 2010.05.17/outbox.cif.g08.bks.cpg/sg74_19_cif.got.tgz:36260.got - 2010.06.03 17:57:02.
