data_PCOD9538698
_publ_section_title
;
Structure prediction by ZEFSAII (Michael W. Deem and Ramdas Pophale) SiO2 
 PCOD9538698
Probable space group: I M M A
;
_chemical_formula_sum "Si O2"
_cell_formula_units_Z 80
_cell_length_a 7.958835
_cell_length_b 17.595195
_cell_length_c 31.217942
_cell_angle_alpha 90.000000
_cell_angle_beta 90.000000
_cell_angle_gamma 90.000000
_cell_volume 4371.674867
_symmetry_space_group_name_H-M "I M M A"
_symmetry_group_IT_number 74
_symmetry_cell_setting 'orthorhombic'
loop_
_space_group_symop_operation_xyz
x,y,z
-x,1/2-y,z
x,-y,-z
-x,1/2+y,-z
-x,-y,-z
x,1/2+y,-z
-x,y,z
x,1/2-y,z
1/2+x,1/2+y,1/2+z
1/2-x,-y,1/2+z
1/2+x,1/2-y,1/2-z
1/2-x,y,1/2-z
1/2-x,1/2-y,1/2-z
1/2+x,y,1/2-z
1/2-x,1/2+y,1/2+z
1/2+x,-y,1/2+z
loop_
_atom_site_type_symbol
_atom_site_label
_atom_site_fract_x
_atom_site_fract_y
_atom_site_fract_z
Si Si1 0.201815 0.835074 0.334682
Si Si2 0.194207 0.007951 0.797973
Si Si3 0.805207 0.597303 0.427570
Si Si4 0.000000 0.839890 0.915038
Si Si5 0.500000 0.090651 0.509025
Si Si6 0.813130 0.066294 0.382977
O O1 0.258635 0.750000 0.324224
O O2 0.281889 0.902358 0.307355
O O3 0.231884 0.853751 0.384854
O O4 0.000000 0.839412 0.328760
O O5 0.250000 0.990771 0.750000
O O6 0.000000 0.988616 0.804006
O O7 0.296875 0.964068 0.834444
O O8 0.666430 0.609962 0.463569
O O9 0.792519 0.509497 0.412089
O O10 0.000000 0.611128 0.440355
O O11 0.834948 0.876553 0.893780
O O12 0.000000 0.750000 0.910887
O O13 0.000000 0.865331 0.964507
O O14 0.500000 0.000000 0.500000
O O15 0.000000 0.097079 0.390382
#
# Coordination Sequence:
#
# PCOD9538698 Si02
#       6
#    16  16  16   8   8  16
#     4   9  19  35  53  79 121 165 203 247 296 347
#     4  11  21  35  59  91 118 150 204 248 292 355
#     4   9  19  35  59  85 114 158 210 248 288 347
#     4  12  26  42  60  92 124 156 196 248 310 365
#     4  12  22  36  60  86 120 154 202 252 290 346
#     4  10  20  40  64  87 117 157 200 245 298 356
#
# _framework density 18.299621999999999
#
# number of rings (size 3 to 8) (size 9 to 14) (size 15 to 20)
#    0.000    1.800    3.000    3.000    4.200    3.200 
#    0.000    0.000    0.000    0.600    0.000    0.000 
#    0.000    0.000    0.000    0.000    0.000    0.000 
#
# Total GULP energy -223422.422351 kJ/mol
# GULP energy per Si atom -5585.560559 kJ/mol
# Density = 1.825797 g / cm^3
# Si number density = 18.299622 Si / 1000 Ang^3
#
#
#
# Elastic Constant Matrix: (Units=GPa)
#
#
# Indices 1 2 3 4 5 6 
#
# 1 110.4953 34.8754 46.7337 0.0000 0.0000 0.0000
# 2 34.8754 62.4329 23.8826 0.0000 0.0000 0.0000
# 3 46.7337 23.8826 88.5817 0.0000 0.0000 0.0000
# 4 0.0000 0.0000 0.0000 7.1340 0.0000 0.0000
# 5 0.0000 0.0000 0.0000 0.0000 32.3636 0.0000
# 6 0.0000 0.0000 0.0000 0.0000 0.0000 17.6470
#
#
#
# Elastic Compliance Matrix: (Units=1/GPa)
#
#
# Indices 1 2 3 4 5 6 
#
# 1 0.012991 -0.005168 -0.005460 0.000000 0.000000 0.000000
# 2 -0.005168 0.019915 -0.002643 0.000000 0.000000 0.000000
# 3 -0.005460 -0.002643 0.014882 0.000000 0.000000 0.000000
# 4 0.000000 0.000000 0.000000 0.140174 0.000000 0.000000
# 5 0.000000 0.000000 0.000000 0.000000 0.030899 0.000000
# 6 0.000000 0.000000 0.000000 0.000000 0.000000 0.056667
#
#
# Mechanical properties :
#
#
# Convention : Reuss Voigt Hill
#
# Bulk Modulus (GPa) = 47.06790 52.49925 49.78358
# Shear Modulus (GPa) = 16.17329 21.83012 19.00171
#
# Velocity S-wave (km/s) = 2.97611 3.45763 3.22586
# Velocity P-wave (km/s) = 6.13076 6.68515 6.41395
#
# Compressibility (1/GPa) = 0.02124590
#
# Stress axis : x y z
#
# Youngs Moduli (GPa) = 76.97812 50.21341 67.19411
#
# Poissons Ratio (x) = 0.25950 0.36690
# Poissons Ratio (y) = 0.39782 0.17758
# Poissons Ratio (z) = 0.42032 0.13270
#
# Static dielectric constant tensor:
#      x y z
#    x 1.992650 0.000000 0.000000 
#    y 0.000000 1.603620 0.000000 
#    z 0.000000 0.000000 1.617930 
# 
# From -- ./inp_files/63987.got.cif
#   From: 2010.05.17/outbox.cif.g08.bks.cpg/sg74_32_cif.got.tgz:63987.got - 2010.06.03 17:57:02.
