data_PCOD9538461
_publ_section_title
;
Structure prediction by ZEFSAII (Michael W. Deem and Ramdas Pophale) SiO2 
 PCOD9538461
Probable space group: I M M A
;
_chemical_formula_sum "Si O2"
_cell_formula_units_Z 96
_cell_length_a 16.359990
_cell_length_b 15.107771
_cell_length_c 20.944531
_cell_angle_alpha 90.000000
_cell_angle_beta 90.000000
_cell_angle_gamma 90.000000
_cell_volume 5176.712749
_symmetry_space_group_name_H-M "I M M A"
_symmetry_group_IT_number 74
_symmetry_cell_setting 'orthorhombic'
loop_
_space_group_symop_operation_xyz
x,y,z
-x,1/2-y,z
x,-y,-z
-x,1/2+y,-z
-x,-y,-z
x,1/2+y,-z
-x,y,z
x,1/2-y,z
1/2+x,1/2+y,1/2+z
1/2-x,-y,1/2+z
1/2+x,1/2-y,1/2-z
1/2-x,y,1/2-z
1/2-x,1/2-y,1/2-z
1/2+x,y,1/2-z
1/2-x,1/2+y,1/2+z
1/2+x,-y,1/2+z
loop_
_atom_site_type_symbol
_atom_site_label
_atom_site_fract_x
_atom_site_fract_y
_atom_site_fract_z
Si Si1 0.500000 0.149240 0.363094
Si Si2 0.366180 0.151181 0.611129
Si Si3 0.500000 0.394440 0.508703
Si Si4 0.673945 0.148569 0.916386
Si Si5 0.360071 0.523115 0.689138
Si Si6 0.667118 0.021937 0.162742
Si Si7 0.403981 0.855414 0.947208
O O1 0.500000 0.250000 0.339360
O O2 0.500000 0.148071 0.439539
O O3 0.579539 0.095198 0.340485
O O4 0.381778 0.250000 0.636539
O O5 0.422459 0.133850 0.550233
O O6 0.272223 0.147378 0.588533
O O7 0.382499 0.073964 0.662053
O O8 0.500000 0.500000 0.500000
O O9 0.646700 0.250000 0.903722
O O10 0.647284 0.075127 0.865572
O O11 0.642922 0.123177 0.986884
O O12 0.365488 0.528689 0.765437
O O13 0.265371 0.535203 0.668378
O O14 0.631063 0.091626 0.112771
O O15 0.500000 0.875161 0.955330
O O16 0.395087 0.750000 0.936863
#
# Coordination Sequence:
#
# PCOD9538461 Si02
#       7
#     8  16   8  16  16  16  16
#     4  12  26  41  60  85 119 158 197 240 286 337
#     4  10  20  37  62  89 119 153 189 235 293 348
#     4  12  22  37  61  88 121 153 194 244 285 338
#     4   9  20  37  61  91 117 147 190 240 294 353
#     4  10  23  41  57  88 119 155 195 238 281 349
#     4  10  22  39  62  84 119 154 192 237 294 342
#     4  10  22  39  60  86 115 149 196 247 292 341
#
# _framework density 18.544587
#
# number of rings (size 3 to 8) (size 9 to 14) (size 15 to 20)
#    0.000    1.833    1.667    1.250    3.500    3.333 
#    0.000    5.000    0.000    0.000    0.000    0.000 
#    0.000    0.000    0.000    0.000    0.000    0.000 
#
# Total GULP energy -268023.934148 kJ/mol
# GULP energy per Si atom -5583.831961 kJ/mol
# Density = 1.850238 g / cm^3
# Si number density = 18.544587 Si / 1000 Ang^3
#
#
#
# Elastic Constant Matrix: (Units=GPa)
#
#
# Indices 1 2 3 4 5 6 
#
# 1 23.8462 31.7116 22.3496 0.0000 0.0000 0.0000
# 2 31.7116 102.1111 30.8739 0.0000 0.0000 0.0000
# 3 22.3496 30.8739 84.8929 0.0000 0.0000 0.0000
# 4 0.0000 0.0000 0.0000 -3.5120 0.0000 0.0000
# 5 0.0000 0.0000 0.0000 0.0000 26.6341 0.0000
# 6 0.0000 0.0000 0.0000 0.0000 0.0000 13.4416
#
#
#
# Elastic Compliance Matrix: (Units=1/GPa)
#
#
# Indices 1 2 3 4 5 6 
#
# 1 0.084441 -0.021912 -0.014262 0.000000 0.000000 0.000000
# 2 -0.021912 0.016689 -0.000301 0.000000 0.000000 0.000000
# 3 -0.014262 -0.000301 0.015644 0.000000 0.000000 0.000000
# 4 0.000000 0.000000 0.000000 -0.284742 0.000000 0.000000
# 5 0.000000 0.000000 0.000000 0.000000 0.037546 0.000000
# 6 0.000000 0.000000 0.000000 0.000000 0.000000 0.074396
#
#
# Mechanical properties :
#
#
# Convention : Reuss Voigt Hill
#
# Bulk Modulus (GPa) = 22.81798 42.30228 32.56013
# Shear Modulus (GPa) = 158.57147 15.70710 87.13928
#
# Velocity S-wave (km/s) = 9.25710 2.91347 6.86229
# Velocity P-wave (km/s) = 11.25120 5.84623 8.96571
#
# Compressibility (1/GPa) = 0.04382510
#
# Stress axis : x y z
#
# Youngs Moduli (GPa) = 11.84253 59.91896 63.92390
#
# Poissons Ratio (x) = 1.31295 0.91167
# Poissons Ratio (y) = 0.25949 0.01923
# Poissons Ratio (z) = 0.16890 0.01802
#
# Static dielectric constant tensor:
#      x y z
#    x 1.609710 0.000000 0.000000 
#    y 0.000000 1.652000 0.000000 
#    z 0.000000 0.000000 1.593810 
# 
# From -- ./inp_files/51947.got.cif
#   From: 2010.05.17/outbox.cif.g08.bks.cpg/sg74_26_cif.got.tgz:51947.got - 2010.06.03 17:57:02.
