data_PCOD9538048
_publ_section_title
;
Structure prediction by ZEFSAII (Michael W. Deem and Ramdas Pophale) SiO2 
 PCOD9538048
Probable space group: I M M A
;
_chemical_formula_sum "Si O2"
_cell_formula_units_Z 64
_cell_length_a 10.121773
_cell_length_b 23.448307
_cell_length_c 14.165854
_cell_angle_alpha 90.000000
_cell_angle_beta 90.000000
_cell_angle_gamma 90.000000
_cell_volume 3362.101699
_symmetry_space_group_name_H-M "I M M A"
_symmetry_group_IT_number 74
_symmetry_cell_setting 'orthorhombic'
loop_
_space_group_symop_operation_xyz
x,y,z
-x,1/2-y,z
x,-y,-z
-x,1/2+y,-z
-x,-y,-z
x,1/2+y,-z
-x,y,z
x,1/2-y,z
1/2+x,1/2+y,1/2+z
1/2-x,-y,1/2+z
1/2+x,1/2-y,1/2-z
1/2-x,y,1/2-z
1/2-x,1/2-y,1/2-z
1/2+x,y,1/2-z
1/2-x,1/2+y,1/2+z
1/2+x,-y,1/2+z
loop_
_atom_site_type_symbol
_atom_site_label
_atom_site_fract_x
_atom_site_fract_y
_atom_site_fract_z
Si Si1 0.272547 0.128469 0.043344
Si Si2 0.656385 0.472970 0.162453
Si Si3 0.500000 0.681025 0.608503
Si Si4 0.847752 0.609780 0.333856
Si Si5 0.000000 0.182286 0.330297
O O1 0.290776 0.062320 0.073214
O O2 0.128696 0.153123 0.062414
O O3 0.372710 0.159469 0.114731
O O4 0.313535 0.136235 0.935085
O O5 0.500000 0.459876 0.176450
O O6 0.750000 0.455712 0.250000
O O7 0.666094 0.541133 0.153795
O O8 0.500000 0.750000 0.598838
O O9 0.500000 0.666783 0.720126
O O10 0.750000 0.627374 0.250000
O O11 0.000000 0.621534 0.309392
O O12 0.000000 0.250000 0.334714
#
# Coordination Sequence:
#
# PCOD9538048 Si02
#       5
#    16  16   8  16   8
#     4  12  22  38  63  89 119 164 198 242 301 357
#     4  10  20  35  58  91 127 159 194 239 293 357
#     4  11  26  42  60  91 125 151 194 254 306 359
#     4  10  22  40  61  90 125 161 200 244 290 347
#     4  11  22  40  64  89 117 151 198 248 306 365
#
# _framework density 19.035712
#
# number of rings (size 3 to 8) (size 9 to 14) (size 15 to 20)
#    0.000    1.250    2.500    3.750    3.500    4.000 
#    0.000    1.250    0.000    4.500    0.000    0.000 
#    0.000    0.000    0.000    0.000    0.000    0.000 
#
# Total GULP energy -178809.394477 kJ/mol
# GULP energy per Si atom -5587.793577 kJ/mol
# Density = 1.899239 g / cm^3
# Si number density = 19.035712 Si / 1000 Ang^3
#
#
#
# Elastic Constant Matrix: (Units=GPa)
#
#
# Indices 1 2 3 4 5 6 
#
# 1 176.4283 29.6248 63.4304 0.0000 0.0000 0.0000
# 2 29.6248 31.4152 11.7048 0.0000 0.0000 0.0000
# 3 63.4304 11.7048 119.3001 0.0000 0.0000 0.0000
# 4 0.0000 0.0000 0.0000 17.3129 0.0000 0.0000
# 5 0.0000 0.0000 0.0000 0.0000 42.0250 0.0000
# 6 0.0000 0.0000 0.0000 0.0000 0.0000 -0.6569
#
#
#
# Elastic Compliance Matrix: (Units=1/GPa)
#
#
# Indices 1 2 3 4 5 6 
#
# 1 0.008025 -0.006205 -0.003658 0.000000 0.000000 0.000000
# 2 -0.006205 0.037837 -0.000413 0.000000 0.000000 0.000000
# 3 -0.003658 -0.000413 0.010368 0.000000 0.000000 0.000000
# 4 0.000000 0.000000 0.000000 0.057760 0.000000 0.000000
# 5 0.000000 0.000000 0.000000 0.000000 0.023795 0.000000
# 6 0.000000 0.000000 0.000000 0.000000 0.000000 -1.522358
#
#
# Mechanical properties :
#
#
# Convention : Reuss Voigt Hill
#
# Bulk Modulus (GPa) = 28.02894 59.62928 43.82911
# Shear Modulus (GPa) = -3.69787 26.56179 11.43196
#
# Velocity S-wave (km/s) = -1.39528 3.73951 2.45328
# Velocity P-wave (km/s) = 3.48721 7.07377 5.57669
#
# Compressibility (1/GPa) = 0.03567741
#
# Stress axis : x y z
#
# Youngs Moduli (GPa) = 124.60974 26.42931 96.45333
#
# Poissons Ratio (x) = 0.16399 0.35283
# Poissons Ratio (y) = 0.77317 0.03986
# Poissons Ratio (z) = 0.45583 0.01092
#
# Static dielectric constant tensor:
#      x y z
#    x 1.649820 0.000000 0.000000 
#    y 0.000000 1.685540 0.000000 
#    z 0.000000 0.000000 1.637650 
# 
# From -- ./inp_files/24697.got.cif
#   From: 2010.05.17/outbox.cif.g08.bks.cpg/sg74_13_cif.got.tgz:24697.got - 2010.06.03 17:57:02.
