data_PCOD9538104
_publ_section_title
;
Structure prediction by ZEFSAII (Michael W. Deem and Ramdas Pophale) SiO2 
 PCOD9538104
Probable space group: I M M A
;
_chemical_formula_sum "Si O2"
_cell_formula_units_Z 116
_cell_length_a 15.303483
_cell_length_b 17.826415
_cell_length_c 24.682376
_cell_angle_alpha 90.000000
_cell_angle_beta 90.000000
_cell_angle_gamma 90.000000
_cell_volume 6733.506164
_symmetry_space_group_name_H-M "I M M A"
_symmetry_group_IT_number 74
_symmetry_cell_setting 'orthorhombic'
loop_
_space_group_symop_operation_xyz
x,y,z
-x,1/2-y,z
x,-y,-z
-x,1/2+y,-z
-x,-y,-z
x,1/2+y,-z
-x,y,z
x,1/2-y,z
1/2+x,1/2+y,1/2+z
1/2-x,-y,1/2+z
1/2+x,1/2-y,1/2-z
1/2-x,y,1/2-z
1/2-x,1/2-y,1/2-z
1/2+x,y,1/2-z
1/2-x,1/2+y,1/2+z
1/2+x,-y,1/2+z
loop_
_atom_site_type_symbol
_atom_site_label
_atom_site_fract_x
_atom_site_fract_y
_atom_site_fract_z
Si Si1 0.211665 0.418718 0.141177
Si Si2 0.900084 0.164014 0.224484
Si Si3 0.000000 0.750000 0.319275
Si Si4 0.873487 0.111691 0.704423
Si Si5 0.605084 0.165221 0.573898
Si Si6 0.176257 0.584639 0.178249
Si Si7 0.102218 0.079140 0.031523
Si Si8 0.097229 0.940404 0.670047
O O1 0.170829 0.354210 0.178717
O O2 0.187872 0.495412 0.173218
O O3 0.162638 0.419632 0.083945
O O4 0.316624 0.418757 0.136080
O O5 0.890780 0.250000 0.243260
O O6 0.891732 0.106046 0.274049
O O7 0.000000 0.155320 0.203036
O O8 0.074593 0.682810 0.316730
O O9 0.881454 0.106305 0.769839
O O10 0.771659 0.118365 0.689394
O O11 0.900207 0.029723 0.681721
O O12 0.500000 0.161316 0.575337
O O13 0.633040 0.250000 0.584323
O O14 0.640016 0.113305 0.621530
O O15 0.630232 0.139009 0.513861
O O16 0.000000 0.091070 0.046543
O O17 0.106732 0.000000 0.000000
O O18 0.000000 0.922100 0.648379
#
# Coordination Sequence:
#
# PCOD9538104 Si02
#       8
#    16  16   4  16  16  16  16  16
#     4  11  20  34  59  81 107 150 185 223 278 336
#     4  10  21  35  56  87 118 147 181 224 275 338
#     4  12  24  34  52  80 108 160 188 232 266 316
#     4  10  22  35  51  79 114 146 184 225 272 321
#     4  10  22  35  53  78 108 139 175 220 271 328
#     4  10  21  35  53  80 111 146 182 221 269 330
#     4  10  20  36  53  79 105 136 178 224 277 338
#     4  10  20  37  54  78 115 149 184 227 274 326
#
# _framework density 17.22728
#
# number of rings (size 3 to 8) (size 9 to 14) (size 15 to 20)
#    0.000    1.793    3.448    0.828    2.897    2.759 
#    0.000    1.379    0.000    0.414    1.793    0.000 
#    0.000    0.000    0.000    0.000    0.000    0.000 
#
# Total GULP energy -322944.610076 kJ/mol
# GULP energy per Si atom -5568.010519 kJ/mol
# Density = 1.718807 g / cm^3
# Si number density = 17.227280 Si / 1000 Ang^3
#
#
#
# Elastic Constant Matrix: (Units=GPa)
#
#
# Indices 1 2 3 4 5 6 
#
# 1 82.6930 14.5632 37.1175 0.0000 0.0000 0.0000
# 2 14.5632 71.1525 3.4235 0.0000 0.0000 0.0000
# 3 37.1175 3.4235 55.5016 0.0000 0.0000 0.0000
# 4 0.0000 0.0000 0.0000 6.2289 0.0000 0.0000
# 5 0.0000 0.0000 0.0000 0.0000 23.8379 0.0000
# 6 0.0000 0.0000 0.0000 0.0000 0.0000 25.5556
#
#
#
# Elastic Compliance Matrix: (Units=1/GPa)
#
#
# Indices 1 2 3 4 5 6 
#
# 1 0.017938 -0.003104 -0.011805 0.000000 0.000000 0.000000
# 2 -0.003104 0.014633 0.001173 0.000000 0.000000 0.000000
# 3 -0.011805 0.001173 0.025840 0.000000 0.000000 0.000000
# 4 0.000000 0.000000 0.000000 0.160542 0.000000 0.000000
# 5 0.000000 0.000000 0.000000 0.000000 0.041950 0.000000
# 6 0.000000 0.000000 0.000000 0.000000 0.000000 0.039130
#
#
# Mechanical properties :
#
#
# Convention : Reuss Voigt Hill
#
# Bulk Modulus (GPa) = 32.32061 35.50617 33.91339
# Shear Modulus (GPa) = 14.80087 21.40736 18.10411
#
# Velocity S-wave (km/s) = 2.93431 3.52894 3.24527
# Velocity P-wave (km/s) = 5.50293 6.10407 5.81128
#
# Compressibility (1/GPa) = 0.03094001
#
# Stress axis : x y z
#
# Youngs Moduli (GPa) = 55.74670 68.33816 38.69975
#
# Poissons Ratio (x) = 0.21209 0.45685
# Poissons Ratio (y) = 0.17301 -0.04539
# Poissons Ratio (z) = 0.65809 -0.08015
#
# Static dielectric constant tensor:
#      x y z
#    x 1.615270 0.000000 0.000000 
#    y 0.000000 1.599690 0.000000 
#    z 0.000000 0.000000 1.558080 
# 
# From -- ./inp_files/60379.got.cif
#   From: 2010.05.17/outbox.cif.g08.bks.cpg/sg74_31_cif.got.tgz:60379.got - 2010.06.03 17:57:02.
