data_PCOD9538972
_publ_section_title
;
Structure prediction by ZEFSAII (Michael W. Deem and Ramdas Pophale) SiO2 
 PCOD9538972
Probable space group: I M M A
;
_chemical_formula_sum "Si O2"
_cell_formula_units_Z 80
_cell_length_a 15.479018
_cell_length_b 13.529637
_cell_length_c 15.962801
_cell_angle_alpha 90.000000
_cell_angle_beta 90.000000
_cell_angle_gamma 90.000000
_cell_volume 3343.017496
_symmetry_space_group_name_H-M "I M M A"
_symmetry_group_IT_number 74
_symmetry_cell_setting 'orthorhombic'
loop_
_space_group_symop_operation_xyz
x,y,z
-x,1/2-y,z
x,-y,-z
-x,1/2+y,-z
-x,-y,-z
x,1/2+y,-z
-x,y,z
x,1/2-y,z
1/2+x,1/2+y,1/2+z
1/2-x,-y,1/2+z
1/2+x,1/2-y,1/2-z
1/2-x,y,1/2-z
1/2-x,1/2-y,1/2-z
1/2+x,y,1/2-z
1/2-x,1/2+y,1/2+z
1/2+x,-y,1/2+z
loop_
_atom_site_type_symbol
_atom_site_label
_atom_site_fract_x
_atom_site_fract_y
_atom_site_fract_z
Si Si1 0.142014 0.859443 0.072857
Si Si2 0.395236 0.546383 0.782740
Si Si3 0.603784 0.863384 0.956680
Si Si4 0.834823 0.362529 0.636196
Si Si5 0.401211 0.417813 0.396252
O O1 0.103589 0.750000 0.087600
O O2 0.153267 0.872803 0.972084
O O3 0.233161 0.861528 0.119910
O O4 0.095896 0.962257 0.095510
O O5 0.500000 0.546912 0.781280
O O6 0.363312 0.594676 0.868939
O O7 0.363347 0.434028 0.789978
O O8 0.367727 0.599421 0.697404
O O9 0.500000 0.866856 0.951412
O O10 0.632718 0.750000 0.961626
O O11 0.626774 0.903974 0.048384
O O12 0.864936 0.250000 0.649897
O O13 0.500000 0.381378 0.405567
#
# Coordination Sequence:
#
# PCOD9538972 Si02
#       5
#    16  16  16  16  16
#     4  10  22  40  60  83 113 151 191 236 290 341
#     4  10  21  36  57  86 119 151 187 238 289 333
#     4   9  18  33  54  82 116 154 191 224 269 336
#     4  10  21  36  56  84 117 152 191 229 280 348
#     4  10  23  40  59  87 112 144 199 243 285 346
#
# _framework density 23.930475999999999
#
# number of rings (size 3 to 8) (size 9 to 14) (size 15 to 20)
#    0.000    2.200    0.000    2.400    5.600    6.800 
#    0.000    6.000    0.000    3.600    0.000    0.000 
#    0.000    0.000    0.000    0.000    0.000    0.000 
#
# Total GULP energy -223484.548738 kJ/mol
# GULP energy per Si atom -5587.113718 kJ/mol
# Density = 2.387601 g / cm^3
# Si number density = 23.930476 Si / 1000 Ang^3
#
#
#
# Elastic Constant Matrix: (Units=GPa)
#
#
# Indices 1 2 3 4 5 6 
#
# 1 19.4345 -7.5544 2.1464 0.0000 0.0000 0.0000
# 2 -7.5544 35.6382 -8.2106 0.0000 0.0000 0.0000
# 3 2.1464 -8.2106 104.8636 0.0000 0.0000 0.0000
# 4 0.0000 0.0000 0.0000 8.9747 0.0000 0.0000
# 5 0.0000 0.0000 0.0000 0.0000 57.7818 0.0000
# 6 0.0000 0.0000 0.0000 0.0000 0.0000 14.9545
#
#
#
# Elastic Compliance Matrix: (Units=1/GPa)
#
#
# Indices 1 2 3 4 5 6 
#
# 1 0.056080 0.011837 -0.000221 0.000000 0.000000 0.000000
# 2 0.011837 0.031074 0.002191 0.000000 0.000000 0.000000
# 3 -0.000221 0.002191 0.009712 0.000000 0.000000 0.000000
# 4 0.000000 0.000000 0.000000 0.111425 0.000000 0.000000
# 5 0.000000 0.000000 0.000000 0.000000 0.017306 0.000000
# 6 0.000000 0.000000 0.000000 0.000000 0.000000 0.066869
#
#
# Mechanical properties :
#
#
# Convention : Reuss Voigt Hill
#
# Bulk Modulus (GPa) = 8.03351 14.74436 11.38893
# Shear Modulus (GPa) = 16.32136 27.91254 22.11695
#
# Velocity S-wave (km/s) = 2.61441 3.41897 3.04339
# Velocity P-wave (km/s) = 3.53240 4.66481 4.13753
#
# Compressibility (1/GPa) = 0.12447860
#
# Stress axis : x y z
#
# Youngs Moduli (GPa) = 17.83157 32.18172 102.96278
#
# Poissons Ratio (x) = -0.38092 0.02276
# Poissons Ratio (y) = -0.21107 -0.22556
# Poissons Ratio (z) = 0.00394 -0.07050
#
# Static dielectric constant tensor:
#      x y z
#    x 1.861850 0.000000 0.000000 
#    y 0.000000 1.944350 0.000000 
#    z 0.000000 0.000000 1.928700 
# 
# From -- ./inp_files/43841.got.cif
#   From: 2010.05.17/outbox.cif.g08.bks.cpg/sg74_22_cif.got.tgz:43841.got - 2010.06.03 17:57:02.
