data_PCOD9538983
_publ_section_title
;
Structure prediction by ZEFSAII (Michael W. Deem and Ramdas Pophale) SiO2 
 PCOD9538983
Probable space group: I M M A
;
_chemical_formula_sum "Si O2"
_cell_formula_units_Z 116
_cell_length_a 16.853210
_cell_length_b 29.511386
_cell_length_c 10.508119
_cell_angle_alpha 90.000000
_cell_angle_beta 90.000000
_cell_angle_gamma 90.000000
_cell_volume 5226.334728
_symmetry_space_group_name_H-M "I M M A"
_symmetry_group_IT_number 74
_symmetry_cell_setting 'orthorhombic'
loop_
_space_group_symop_operation_xyz
x,y,z
-x,1/2-y,z
x,-y,-z
-x,1/2+y,-z
-x,-y,-z
x,1/2+y,-z
-x,y,z
x,1/2-y,z
1/2+x,1/2+y,1/2+z
1/2-x,-y,1/2+z
1/2+x,1/2-y,1/2-z
1/2-x,y,1/2-z
1/2-x,1/2-y,1/2-z
1/2+x,y,1/2-z
1/2-x,1/2+y,1/2+z
1/2+x,-y,1/2+z
loop_
_atom_site_type_symbol
_atom_site_label
_atom_site_fract_x
_atom_site_fract_y
_atom_site_fract_z
Si Si1 0.500000 0.250000 0.408501
Si Si2 0.189823 0.200015 0.476682
Si Si3 0.651017 0.075968 0.475861
Si Si4 0.808100 0.394843 0.372949
Si Si5 0.155861 0.567197 0.262399
Si Si6 0.408061 0.165297 0.796606
Si Si7 0.906271 0.527044 0.728301
Si Si8 0.624499 0.322628 0.496871
O O1 0.568647 0.289247 0.421910
O O2 0.172592 0.250000 0.423916
O O3 0.162746 0.155837 0.398645
O O4 0.148726 0.194740 0.614037
O O5 0.284218 0.192703 0.487042
O O6 0.746045 0.085336 0.476080
O O7 0.624285 0.063526 0.616704
O O8 0.627091 0.040409 0.368658
O O9 0.616159 0.125885 0.447877
O O10 0.750000 0.393962 0.250000
O O11 0.877648 0.430288 0.353988
O O12 0.250000 0.572924 0.250000
O O13 0.117192 0.612820 0.316552
O O14 0.133162 0.519181 0.321565
O O15 0.500000 0.172158 0.829497
O O16 0.396713 0.176740 0.647473
O O17 0.000000 0.522226 0.731827
#
# Coordination Sequence:
#
# PCOD9538983 Si02
#       8
#     4  16  16  16  16  16  16  16
#     4  12  20  32  58  88 122 162 192 236 304 364
#     4  11  23  39  62  85 112 156 206 244 294 353
#     4   9  20  37  61  86 117 154 192 239 289 349
#     4   9  20  42  60  81 112 152 197 243 292 340
#     4  11  21  38  62  90 119 154 191 235 295 365
#     4  11  23  37  56  87 126 156 190 239 290 353
#     4  11  23  37  60  85 117 154 196 245 297 345
#     4  10  21  36  56  87 124 156 188 240 295 361
#
# _framework density 22.195288000000001
#
# number of rings (size 3 to 8) (size 9 to 14) (size 15 to 20)
#    0.000    1.655    1.379    4.966    1.931    3.310 
#    0.000    2.069    0.000    4.138    0.000    0.000 
#    0.000    0.000    0.000    0.000    0.000    0.000 
#
# Total GULP energy -323721.519939 kJ/mol
# GULP energy per Si atom -5581.405516 kJ/mol
# Density = 2.214477 g / cm^3
# Si number density = 22.195288 Si / 1000 Ang^3
#
#
#
# Elastic Constant Matrix: (Units=GPa)
#
#
# Indices 1 2 3 4 5 6 
#
# 1 53.7540 7.0356 -9.1125 -0.0008 0.0004 -0.0001
# 2 7.0356 121.2961 4.9404 -0.0010 0.0002 -0.0001
# 3 -9.1125 4.9404 24.3674 -0.0012 0.0004 -0.0003
# 4 -0.0008 -0.0010 -0.0012 7.2767 -0.0006 -0.0005
# 5 0.0004 0.0002 0.0004 -0.0006 -3.1588 -0.0003
# 6 -0.0001 -0.0001 -0.0003 -0.0005 -0.0003 34.6625
#
#
#
# Elastic Compliance Matrix: (Units=1/GPa)
#
#
# Indices 1 2 3 4 5 6 
#
# 1 0.020125 -0.001486 0.007827 0.000003 0.000004 0.000000
# 2 -0.001486 0.008423 -0.002263 0.000001 0.000000 0.000000
# 3 0.007827 -0.002263 0.044424 0.000008 0.000006 0.000000
# 4 0.000003 0.000001 0.000008 0.137426 -0.000027 0.000002
# 5 0.000004 0.000000 0.000006 -0.000027 -0.316578 -0.000002
# 6 0.000000 0.000000 0.000000 0.000002 -0.000002 0.028850
#
#
# Mechanical properties :
#
#
# Convention : Reuss Voigt Hill
#
# Bulk Modulus (GPa) = 12.32635 22.79383 17.56009
# Shear Modulus (GPa) = -85.55246 20.85968 -32.34639
#
# Velocity S-wave (km/s) = -6.21522 3.06898 -3.82167
# Velocity P-wave (km/s) = 6.77788 4.78018 3.39776
#
# Compressibility (1/GPa) = 0.08112698
#
# Stress axis : x y z
#
# Youngs Moduli (GPa) = 49.69032 118.72711 22.51017
#
# Poissons Ratio (x) = 0.17644 -0.17619
# Poissons Ratio (y) = 0.07384 0.05095
# Poissons Ratio (z) = -0.38893 0.26873
#
# Static dielectric constant tensor:
#      x y z
#    x 1.769890 0.000000 0.000000 
#    y 0.000000 1.824540 0.000000 
#    z 0.000000 0.000000 1.902560 
# 
# From -- ./inp_files/22814.got.cif
#   From: 2010.05.17/outbox.cif.g08.bks.cpg/sg74_12_cif.got.tgz:22814.got - 2010.06.03 17:57:02.
