data_PCOD9538256
_publ_section_title
;
Structure prediction by ZEFSAII (Michael W. Deem and Ramdas Pophale) SiO2 
 PCOD9538256
Probable space group: I M M A
;
_chemical_formula_sum "Si O2"
_cell_formula_units_Z 68
_cell_length_a 23.724384
_cell_length_b 7.769688
_cell_length_c 16.853691
_cell_angle_alpha 90.000000
_cell_angle_beta 90.000000
_cell_angle_gamma 90.000000
_cell_volume 3106.658755
_symmetry_space_group_name_H-M "I M M A"
_symmetry_group_IT_number 74
_symmetry_cell_setting 'orthorhombic'
loop_
_space_group_symop_operation_xyz
x,y,z
-x,1/2-y,z
x,-y,-z
-x,1/2+y,-z
-x,-y,-z
x,1/2+y,-z
-x,y,z
x,1/2-y,z
1/2+x,1/2+y,1/2+z
1/2-x,-y,1/2+z
1/2+x,1/2-y,1/2-z
1/2-x,y,1/2-z
1/2-x,1/2-y,1/2-z
1/2+x,y,1/2-z
1/2-x,1/2+y,1/2+z
1/2+x,-y,1/2+z
loop_
_atom_site_type_symbol
_atom_site_label
_atom_site_fract_x
_atom_site_fract_y
_atom_site_fract_z
Si Si1 0.582612 0.949299 0.361790
Si Si2 0.560795 0.044137 0.181664
Si Si3 0.500000 0.500000 0.500000
Si Si4 0.171006 0.542549 0.592935
Si Si5 0.294516 0.455917 0.406737
O O1 0.566293 0.750000 0.372254
O O2 0.549347 0.039878 0.432903
O O3 0.565100 0.010752 0.275207
O O4 0.649730 0.967851 0.368335
O O5 0.500000 0.976717 0.153002
O O6 0.560775 0.250000 0.169284
O O7 0.616597 0.974272 0.139036
O O8 0.166196 0.500000 0.500000
O O9 0.171863 0.750000 0.600737
O O10 0.232843 0.482499 0.621730
O O11 0.296867 0.500000 0.500000
O O12 0.297462 0.250000 0.396909
#
# Coordination Sequence:
#
# PCOD9538256 Si02
#       5
#    16  16   4  16  16
#     4  12  25  40  61  88 120 155 198 241 289 349
#     4  10  22  40  61  86 120 157 197 242 293 347
#     4  12  26  40  60  86 124 156 192 240 292 344
#     4   9  20  39  62  89 118 154 196 243 294 348
#     4  10  20  36  59  85 117 154 197 242 289 345
#
# _framework density 21.888466999999999
#
# number of rings (size 3 to 8) (size 9 to 14) (size 15 to 20)
#    0.000    1.647    2.353    1.765    0.000    6.118 
#    0.000    4.706    0.000    0.000    0.000    0.000 
#    0.000    0.000    0.000    0.000    0.000    0.000 
#
# Total GULP energy -189419.556142 kJ/mol
# GULP energy per Si atom -5571.163416 kJ/mol
# Density = 2.183865 g / cm^3
# Si number density = 21.888467 Si / 1000 Ang^3
#
#
#
# Elastic Constant Matrix: (Units=GPa)
#
#
# Indices 1 2 3 4 5 6 
#
# 1 254.8181 12.4791 64.2765 0.0000 0.0000 0.0000
# 2 12.4791 39.9099 -15.1843 0.0000 0.0000 0.0000
# 3 64.2765 -15.1843 50.8590 0.0000 0.0000 0.0000
# 4 0.0000 0.0000 0.0000 18.1701 0.0000 0.0000
# 5 0.0000 0.0000 0.0000 0.0000 70.2680 0.0000
# 6 0.0000 0.0000 0.0000 0.0000 0.0000 46.9894
#
#
#
# Elastic Compliance Matrix: (Units=1/GPa)
#
#
# Indices 1 2 3 4 5 6 
#
# 1 0.006885 -0.006164 -0.010542 0.000000 0.000000 0.000000
# 2 -0.006164 0.033785 0.017877 0.000000 0.000000 0.000000
# 3 -0.010542 0.017877 0.038323 0.000000 0.000000 0.000000
# 4 0.000000 0.000000 0.000000 0.055036 0.000000 0.000000
# 5 0.000000 0.000000 0.000000 0.000000 0.014231 0.000000
# 6 0.000000 0.000000 0.000000 0.000000 0.000000 0.021281
#
#
# Mechanical properties :
#
#
# Convention : Reuss Voigt Hill
#
# Bulk Modulus (GPa) = 12.29479 52.08103 32.18791
# Shear Modulus (GPa) = 25.73181 46.01988 35.87584
#
# Velocity S-wave (km/s) = 3.43240 4.59025 4.05288
# Velocity P-wave (km/s) = 4.61928 7.20689 6.05298
#
# Compressibility (1/GPa) = 0.08133527
#
# Stress axis : x y z
#
# Youngs Moduli (GPa) = 145.23386 29.59863 26.09405
#
# Poissons Ratio (x) = 0.18244 0.27509
# Poissons Ratio (y) = 0.89521 -0.46648
# Poissons Ratio (z) = 1.53109 -0.52913
#
# Static dielectric constant tensor:
#      x y z
#    x 1.843860 0.000000 0.000000 
#    y 0.000000 1.823140 0.000000 
#    z 0.000000 0.000000 1.737960 
# 
# From -- ./inp_files/44856.got.cif
#   From: 2010.05.17/outbox.cif.g08.bks.cpg/sg74_23_cif.got.tgz:44856.got - 2010.06.03 17:57:02.
