data_PCOD9538848
_publ_section_title
;
Structure prediction by ZEFSAII (Michael W. Deem and Ramdas Pophale) SiO2 
 PCOD9538848
Probable space group: I M M A
;
_chemical_formula_sum "Si O2"
_cell_formula_units_Z 104
_cell_length_a 40.307890
_cell_length_b 8.576674
_cell_length_c 14.136029
_cell_angle_alpha 90.000000
_cell_angle_beta 90.000000
_cell_angle_gamma 90.000000
_cell_volume 4886.933114
_symmetry_space_group_name_H-M "I M M A"
_symmetry_group_IT_number 74
_symmetry_cell_setting 'orthorhombic'
loop_
_space_group_symop_operation_xyz
x,y,z
-x,1/2-y,z
x,-y,-z
-x,1/2+y,-z
-x,-y,-z
x,1/2+y,-z
-x,y,z
x,1/2-y,z
1/2+x,1/2+y,1/2+z
1/2-x,-y,1/2+z
1/2+x,1/2-y,1/2-z
1/2-x,y,1/2-z
1/2-x,1/2-y,1/2-z
1/2+x,y,1/2-z
1/2-x,1/2+y,1/2+z
1/2+x,-y,1/2+z
loop_
_atom_site_type_symbol
_atom_site_label
_atom_site_fract_x
_atom_site_fract_y
_atom_site_fract_z
Si Si1 0.963868 0.561406 0.106801
Si Si2 0.827077 0.935961 0.804982
Si Si3 0.188995 0.568651 0.401536
Si Si4 0.573508 0.937922 0.105328
Si Si5 0.396145 0.938192 0.293951
Si Si6 0.500000 0.061885 0.892620
Si Si7 0.257403 0.928663 0.637537
O O1 0.963357 0.750000 0.107817
O O2 0.930145 0.509329 0.156564
O O3 0.000000 0.514937 0.148649
O O4 0.963342 0.500000 0.000000
O O5 0.825730 0.750000 0.805983
O O6 0.795134 0.988945 0.866010
O O7 0.822807 0.991012 0.696145
O O8 0.862706 0.995367 0.837726
O O9 0.175469 0.500000 0.500000
O O10 0.181374 0.750000 0.396975
O O11 0.099884 0.513567 0.316032
O O12 0.228700 0.537520 0.402109
O O13 0.573682 0.750000 0.100809
O O14 0.536533 0.986102 0.142011
O O15 0.578789 0.000000 0.000000
O O16 0.394735 0.750000 0.297217
O O17 0.500000 0.250000 0.889083
O O18 0.500000 0.000000 0.000000
O O19 0.254402 0.750000 0.601195
O O20 0.250000 0.919494 0.750000
#
# Coordination Sequence:
#
# PCOD9538848 Si02
#       7
#    16  16  16  16  16   8  16
#     4   9  19  37  61  85 109 139 181 237 297 352
#     4  10  21  37  55  77 110 148 182 224 275 328
#     4  11  21  34  56  84 113 145 184 227 269 318
#     4   9  18  31  48  71 102 139 179 222 267 321
#     4  10  21  35  54  81 111 148 191 231 282 347
#     4   8  14  26  44  64  89 124 166 212 261 308
#     4   8  16  33  54  75 102 137 177 219 267 317
#
# _framework density 21.281238999999999
#
# number of rings (size 3 to 8) (size 9 to 14) (size 15 to 20)
#    0.000    2.615    0.000    2.769    1.077    5.231 
#    0.000    2.308    0.000    1.846    0.000    0.000 
#    0.000    0.000    0.000    0.000    0.000    0.000 
#
# Total GULP energy -290044.190663 kJ/mol
# GULP energy per Si atom -5577.772897 kJ/mol
# Density = 2.123280 g / cm^3
# Si number density = 21.281239 Si / 1000 Ang^3
#
#
#
# Elastic Constant Matrix: (Units=GPa)
#
#
# Indices 1 2 3 4 5 6 
#
# 1 135.1557 6.6899 7.4947 0.0000 0.0000 0.0000
# 2 6.6899 18.5202 -1.9098 0.0000 0.0000 0.0000
# 3 7.4947 -1.9098 30.1637 0.0000 0.0000 0.0000
# 4 0.0000 0.0000 0.0000 19.0140 0.0000 0.0000
# 5 0.0000 0.0000 0.0000 0.0000 12.7045 0.0000
# 6 0.0000 0.0000 0.0000 0.0000 0.0000 15.6857
#
#
#
# Elastic Compliance Matrix: (Units=1/GPa)
#
#
# Indices 1 2 3 4 5 6 
#
# 1 0.007663 -0.002984 -0.002093 0.000000 0.000000 0.000000
# 2 -0.002984 0.055512 0.004256 0.000000 0.000000 0.000000
# 3 -0.002093 0.004256 0.033942 0.000000 0.000000 0.000000
# 4 0.000000 0.000000 0.000000 0.052593 0.000000 0.000000
# 5 0.000000 0.000000 0.000000 0.000000 0.078713 0.000000
# 6 0.000000 0.000000 0.000000 0.000000 0.000000 0.063753
#
#
# Mechanical properties :
#
#
# Convention : Reuss Voigt Hill
#
# Bulk Modulus (GPa) = 10.47393 23.15436 16.81414
# Shear Modulus (GPa) = 15.35437 20.91848 18.13642
#
# Velocity S-wave (km/s) = 2.68899 3.13861 2.92246
# Velocity P-wave (km/s) = 3.81749 4.90289 4.39383
#
# Compressibility (1/GPa) = 0.09547516
#
# Stress axis : x y z
#
# Youngs Moduli (GPa) = 130.50385 18.01423 29.46210
#
# Poissons Ratio (x) = 0.05375 0.06166
# Poissons Ratio (y) = 0.38938 -0.12539
# Poissons Ratio (z) = 0.27312 -0.07667
#
# Static dielectric constant tensor:
#      x y z
#    x 1.844690 0.000000 0.000000 
#    y 0.000000 1.724200 0.000000 
#    z 0.000000 0.000000 1.783720 
# 
# From -- ./inp_files/47194.got.cif
#   From: 2010.05.17/outbox.cif.g08.bks.cpg/sg74_24_cif.got.tgz:47194.got - 2010.06.03 17:57:02.
