data_PCOD9538598
_publ_section_title
;
Structure prediction by ZEFSAII (Michael W. Deem and Ramdas Pophale) SiO2 
 PCOD9538598
Probable space group: I M M A
;
_chemical_formula_sum "Si O2"
_cell_formula_units_Z 100
_cell_length_a 7.791886
_cell_length_b 28.716766
_cell_length_c 19.451984
_cell_angle_alpha 90.000000
_cell_angle_beta 90.000000
_cell_angle_gamma 90.000000
_cell_volume 4352.532503
_symmetry_space_group_name_H-M "I M M A"
_symmetry_group_IT_number 74
_symmetry_cell_setting 'orthorhombic'
loop_
_space_group_symop_operation_xyz
x,y,z
-x,1/2-y,z
x,-y,-z
-x,1/2+y,-z
-x,-y,-z
x,1/2+y,-z
-x,y,z
x,1/2-y,z
1/2+x,1/2+y,1/2+z
1/2-x,-y,1/2+z
1/2+x,1/2-y,1/2-z
1/2-x,y,1/2-z
1/2-x,1/2-y,1/2-z
1/2+x,y,1/2-z
1/2-x,1/2+y,1/2+z
1/2+x,-y,1/2+z
loop_
_atom_site_type_symbol
_atom_site_label
_atom_site_fract_x
_atom_site_fract_y
_atom_site_fract_z
Si Si1 0.296185 0.303065 0.174605
Si Si2 0.192639 0.481272 0.328559
Si Si3 0.195843 0.547520 0.969425
Si Si4 0.796371 0.317518 0.891314
Si Si5 0.705043 0.149712 0.467493
Si Si6 0.000000 0.250000 0.655886
Si Si7 0.698477 0.583269 0.326381
O O1 0.500000 0.300170 0.171877
O O2 0.224747 0.250000 0.170416
O O3 0.250000 0.322301 0.250000
O O4 0.241238 0.332300 0.108632
O O5 0.250000 0.474775 0.250000
O O6 0.305755 0.458126 0.387170
O O7 0.198507 0.536767 0.342824
O O8 0.000000 0.463644 0.336612
O O9 0.277804 0.597965 0.981292
O O10 0.000000 0.548806 0.997167
O O11 0.275320 0.500000 0.000000
O O12 0.784227 0.372052 0.873499
O O13 0.000000 0.304640 0.881017
O O14 0.746299 0.314382 0.972061
O O15 0.654904 0.289814 0.848667
O O16 0.500000 0.145417 0.473821
O O17 0.500000 0.568370 0.325901
O O18 0.750000 0.598314 0.250000
#
# Coordination Sequence:
#
# PCOD9538598 Si02
#       7
#    16  16  16  16  16   4  16
#     4  10  22  39  61  88 118 155 202 251 307 366
#     4  11  22  36  59  91 122 161 207 253 300 366
#     4  10  21  40  62  86 122 162 202 250 315 368
#     4  10  24  43  64  94 126 162 212 256 318 379
#     4  10  22  39  62  89 120 162 203 254 312 373
#     4  12  26  40  70  90 126 164 204 272 316 370
#     4  10  20  38  65  90 123 163 208 255 305 369
#
# _framework density 22.97513
#
# number of rings (size 3 to 8) (size 9 to 14) (size 15 to 20)
#    0.000    1.760    0.000    4.560    4.480    5.120 
#    0.000    0.400    0.000    0.000    0.000    0.000 
#    0.000    0.000    0.000    0.000    0.000    0.000 
#
# Total GULP energy -278761.443265 kJ/mol
# GULP energy per Si atom -5575.228865 kJ/mol
# Density = 2.292284 g / cm^3
# Si number density = 22.975130 Si / 1000 Ang^3
#
#
#
# Elastic Constant Matrix: (Units=GPa)
#
#
# Indices 1 2 3 4 5 6 
#
# 1 85.9749 3.0876 -1.2676 0.0000 0.0000 0.0000
# 2 3.0876 45.3425 8.1448 0.0000 0.0000 0.0000
# 3 -1.2676 8.1448 53.6137 0.0001 0.0000 0.0000
# 4 0.0000 0.0000 0.0001 12.9450 0.0000 0.0000
# 5 0.0000 0.0000 0.0000 0.0000 21.6027 0.0000
# 6 0.0000 0.0000 0.0000 0.0000 0.0000 -18.0744
#
#
#
# Elastic Compliance Matrix: (Units=1/GPa)
#
#
# Indices 1 2 3 4 5 6 
#
# 1 0.011668 -0.000868 0.000408 0.000000 0.000000 0.000000
# 2 -0.000868 0.022738 -0.003475 0.000000 0.000000 0.000000
# 3 0.000408 -0.003475 0.019189 0.000000 0.000000 0.000000
# 4 0.000000 0.000000 0.000000 0.077250 0.000000 0.000000
# 5 0.000000 0.000000 0.000000 0.000000 0.046290 0.000000
# 6 0.000000 0.000000 0.000000 0.000000 0.000000 -0.055327
#
#
# Mechanical properties :
#
#
# Convention : Reuss Voigt Hill
#
# Bulk Modulus (GPa) = 21.86945 22.76231 22.31588
# Shear Modulus (GPa) = 34.50168 14.95909 24.73038
#
# Velocity S-wave (km/s) = 3.87938 2.55443 3.28441
# Velocity P-wave (km/s) = 5.44109 4.31614 4.91093
#
# Compressibility (1/GPa) = 0.04572588
#
# Stress axis : x y z
#
# Youngs Moduli (GPa) = 85.70097 43.98001 52.11192
#
# Poissons Ratio (x) = 0.03817 -0.02125
# Poissons Ratio (y) = 0.07437 0.18108
# Poissons Ratio (z) = -0.03494 0.15282
#
# Static dielectric constant tensor:
#      x y z
#    x 1.864940 0.000000 0.000000 
#    y 0.000000 1.871660 0.000000 
#    z 0.000000 0.000000 1.899820 
# 
# From -- ./inp_files/49271.got.cif
#   From: 2010.05.17/outbox.cif.g08.bks.cpg/sg74_25_cif.got.tgz:49271.got - 2010.06.03 17:57:02.
