data_PCOD9538182
_publ_section_title
;
Structure prediction by ZEFSAII (Michael W. Deem and Ramdas Pophale) SiO2 
 PCOD9538182
Probable space group: I M M A
;
_chemical_formula_sum "Si O2"
_cell_formula_units_Z 116
_cell_length_a 7.835673
_cell_length_b 24.568452
_cell_length_c 29.197732
_cell_angle_alpha 90.000000
_cell_angle_beta 90.000000
_cell_angle_gamma 90.000000
_cell_volume 5620.865781
_symmetry_space_group_name_H-M "I M M A"
_symmetry_group_IT_number 74
_symmetry_cell_setting 'orthorhombic'
loop_
_space_group_symop_operation_xyz
x,y,z
-x,1/2-y,z
x,-y,-z
-x,1/2+y,-z
-x,-y,-z
x,1/2+y,-z
-x,y,z
x,1/2-y,z
1/2+x,1/2+y,1/2+z
1/2-x,-y,1/2+z
1/2+x,1/2-y,1/2-z
1/2-x,y,1/2-z
1/2-x,1/2-y,1/2-z
1/2+x,y,1/2-z
1/2-x,1/2+y,1/2+z
1/2+x,-y,1/2+z
loop_
_atom_site_type_symbol
_atom_site_label
_atom_site_fract_x
_atom_site_fract_y
_atom_site_fract_z
Si Si1 0.704510 0.928113 0.196473
Si Si2 0.302525 0.946830 0.026786
Si Si3 0.205471 0.308634 0.695980
Si Si4 0.297765 0.126731 0.109182
Si Si5 0.301416 0.998478 0.615681
Si Si6 0.000000 0.250000 0.505619
Si Si7 0.205122 0.812350 0.699745
Si Si8 0.689750 0.665837 0.511054
O O1 0.500000 0.929466 0.192472
O O2 0.750000 0.933177 0.250000
O O3 0.766189 0.867926 0.179545
O O4 0.778680 0.976038 0.165799
O O5 0.500000 0.939507 0.012711
O O6 0.290340 0.961733 0.079922
O O7 0.206631 0.892419 0.013672
O O8 0.236015 0.000000 0.000000
O O9 0.267796 0.250000 0.676989
O O10 0.250000 0.308143 0.750000
O O11 0.000000 0.308610 0.691453
O O12 0.500000 0.137884 0.104813
O O13 0.271126 0.062095 0.110828
O O14 0.234254 0.152773 0.156727
O O15 0.210568 0.153380 0.065233
O O16 0.500000 0.996528 0.603794
O O17 0.152335 0.203089 0.503776
O O18 0.269214 0.750000 0.696826
O O19 0.250000 0.834200 0.750000
O O20 0.000000 0.810648 0.697172
O O21 0.500000 0.687698 0.502361
#
# Coordination Sequence:
#
# PCOD9538182 Si02
#       8
#    16  16  16  16  16   4  16  16
#     4  10  20  36  57  84 120 163 207 260 325 389
#     4  11  22  42  71  99 131 170 215 272 338 402
#     4   8  14  26  48  76 104 137 184 237 293 357
#     4  11  22  39  62  91 127 166 213 273 337 395
#     4  12  25  39  61  93 126 166 218 266 326 406
#     4  12  26  48  66 102 142 180 222 274 340 398
#     4   9  20  37  59  83 118 164 212 264 324 391
#     4  12  25  43  71 104 136 178 224 276 335 402
#
# _framework density 20.637388999999999
#
# number of rings (size 3 to 8) (size 9 to 14) (size 15 to 20)
#    0.000    1.517    2.759    2.690    0.966    2.759 
#    0.000    1.379    1.517    0.000    0.000    0.000 
#    0.000    0.000    0.000    0.000    0.000    0.000 
#
# Total GULP energy -323374.929529 kJ/mol
# GULP energy per Si atom -5575.429819 kJ/mol
# Density = 2.059042 g / cm^3
# Si number density = 20.637389 Si / 1000 Ang^3
#
#
#
# Elastic Constant Matrix: (Units=GPa)
#
#
# Indices 1 2 3 4 5 6 
#
# 1 101.7318 30.7732 2.6235 0.0000 0.0000 0.0000
# 2 30.7732 81.2187 16.1256 0.0000 0.0000 0.0000
# 3 2.6235 16.1256 54.3891 0.0000 0.0000 0.0000
# 4 0.0000 0.0000 0.0000 323.8522 0.0000 0.0000
# 5 0.0000 0.0000 0.0000 0.0000 23.5771 0.0000
# 6 0.0000 0.0000 0.0000 0.0000 0.0000 -2.4914
#
#
#
# Elastic Compliance Matrix: (Units=1/GPa)
#
#
# Indices 1 2 3 4 5 6 
#
# 1 0.011132 -0.004368 0.000758 0.000000 0.000000 0.000000
# 2 -0.004368 0.014797 -0.004176 0.000000 0.000000 0.000000
# 3 0.000758 -0.004176 0.019588 0.000000 0.000000 0.000000
# 4 0.000000 0.000000 0.000000 0.003088 0.000000 0.000000
# 5 0.000000 0.000000 0.000000 0.000000 0.042414 0.000000
# 6 0.000000 0.000000 0.000000 0.000000 0.000000 -0.401385
#
#
# Mechanical properties :
#
#
# Convention : Reuss Voigt Hill
#
# Bulk Modulus (GPa) = 33.39648 37.37601 35.38625
# Shear Modulus (GPa) = -17.55533 81.50873 31.97670
#
# Velocity S-wave (km/s) = -2.91977 6.29138 3.94058
# Velocity P-wave (km/s) = 2.20248 8.42172 6.15533
#
# Compressibility (1/GPa) = 0.02994328
#
# Stress axis : x y z
#
# Youngs Moduli (GPa) = 89.83459 67.58257 51.05249
#
# Poissons Ratio (x) = 0.29521 -0.03871
# Poissons Ratio (y) = 0.39242 0.21321
# Poissons Ratio (z) = -0.06811 0.28225
#
# Static dielectric constant tensor:
#      x y z
#    x 1.766800 0.000000 0.000000 
#    y 0.000000 1.740730 0.000000 
#    z 0.000000 0.000000 1.727570 
# 
# From -- ./inp_files/64847.got.cif
#   From: 2010.05.17/outbox.cif.g08.bks.cpg/sg74_33_cif.got.tgz:64847.got - 2010.06.03 17:57:02.
