data_PCOD9538200
_publ_section_title
;
Structure prediction by ZEFSAII (Michael W. Deem and Ramdas Pophale) SiO2 
 PCOD9538200
Probable space group: I M M A
;
_chemical_formula_sum "Si O2"
_cell_formula_units_Z 104
_cell_length_a 21.221772
_cell_length_b 8.608041
_cell_length_c 30.867195
_cell_angle_alpha 90.000000
_cell_angle_beta 90.000000
_cell_angle_gamma 90.000000
_cell_volume 5638.753851
_symmetry_space_group_name_H-M "I M M A"
_symmetry_group_IT_number 74
_symmetry_cell_setting 'orthorhombic'
loop_
_space_group_symop_operation_xyz
x,y,z
-x,1/2-y,z
x,-y,-z
-x,1/2+y,-z
-x,-y,-z
x,1/2+y,-z
-x,y,z
x,1/2-y,z
1/2+x,1/2+y,1/2+z
1/2-x,-y,1/2+z
1/2+x,1/2-y,1/2-z
1/2-x,y,1/2-z
1/2-x,1/2-y,1/2-z
1/2+x,y,1/2-z
1/2-x,1/2+y,1/2+z
1/2+x,-y,1/2+z
loop_
_atom_site_type_symbol
_atom_site_label
_atom_site_fract_x
_atom_site_fract_y
_atom_site_fract_z
Si Si1 0.781068 0.937196 0.128580
Si Si2 0.072685 0.563367 0.455500
Si Si3 0.639586 0.436550 0.450776
Si Si4 0.000000 0.563090 0.951278
Si Si5 0.313752 0.937725 0.275761
Si Si6 0.071843 0.564232 0.719808
Si Si7 0.865759 0.937634 0.366038
O O1 0.785094 0.750000 0.125207
O O2 0.812828 0.986395 0.173922
O O3 0.707742 0.977674 0.135014
O O4 0.811131 0.006280 0.085123
O O5 0.100662 0.500000 0.500000
O O6 0.073267 0.750000 0.457054
O O7 0.107944 0.513810 0.412525
O O8 0.000000 0.510986 0.452864
O O9 0.649023 0.500000 0.500000
O O10 0.641564 0.250000 0.453381
O O11 0.568956 0.485522 0.434413
O O12 0.000000 0.750000 0.951168
O O13 0.000000 0.500000 0.000000
O O14 0.313017 0.750000 0.274593
O O15 0.250000 0.988376 0.250000
O O16 0.376085 0.996425 0.252149
O O17 0.072758 0.750000 0.722672
O O18 0.094547 0.512634 0.672266
O O19 0.000000 0.510593 0.727796
O O20 0.871072 0.750000 0.361916
#
# Coordination Sequence:
#
# PCOD9538200 Si02
#       7
#    16  16  16   8  16  16  16
#     4  10  21  37  58  85 114 144 185 234 282 337
#     4   9  18  32  51  75 104 141 182 224 273 323
#     4  10  20  36  58  83 114 150 189 234 285 339
#     4   8  16  32  54  78 104 142 186 228 276 332
#     4  10  20  40  65  86 113 152 194 237 287 345
#     4  11  24  39  58  88 120 149 188 239 289 340
#     4  10  20  37  59  81 109 147 191 235 279 337
#
# _framework density 18.443791999999998
#
# number of rings (size 3 to 8) (size 9 to 14) (size 15 to 20)
#    0.000    2.154    1.538    1.385    0.000    5.231 
#    1.385    3.077    0.000    0.000    0.000    0.000 
#    0.000    0.000    0.000    0.000    0.000    0.000 
#
# Total GULP energy -290012.256737 kJ/mol
# GULP energy per Si atom -5577.158783 kJ/mol
# Density = 1.840181 g / cm^3
# Si number density = 18.443792 Si / 1000 Ang^3
#
#
#
# Elastic Constant Matrix: (Units=GPa)
#
#
# Indices 1 2 3 4 5 6 
#
# 1 121.2619 26.2357 71.2910 0.0000 0.0000 0.0000
# 2 26.2357 15.9955 28.5093 0.0000 0.0000 0.0000
# 3 71.2910 28.5093 148.0378 0.0000 0.0000 0.0000
# 4 0.0000 0.0000 0.0000 30.2714 0.0000 0.0000
# 5 0.0000 0.0000 0.0000 0.0000 30.8357 0.0000
# 6 0.0000 0.0000 0.0000 0.0000 0.0000 22.1445
#
#
#
# Elastic Compliance Matrix: (Units=1/GPa)
#
#
# Indices 1 2 3 4 5 6 
#
# 1 0.013881 -0.016525 -0.003502 0.000000 0.000000 0.000000
# 2 -0.016525 0.114864 -0.014163 0.000000 0.000000 0.000000
# 3 -0.003502 -0.014163 0.011169 0.000000 0.000000 0.000000
# 4 0.000000 0.000000 0.000000 0.033035 0.000000 0.000000
# 5 0.000000 0.000000 0.000000 0.000000 0.032430 0.000000
# 6 0.000000 0.000000 0.000000 0.000000 0.000000 0.045158
#
#
# Mechanical properties :
#
#
# Convention : Reuss Voigt Hill
#
# Bulk Modulus (GPa) = 13.97933 59.70748 36.84340
# Shear Modulus (GPa) = 14.58741 27.26759 20.92750
#
# Velocity S-wave (km/s) = 2.81537 3.84919 3.37213
# Velocity P-wave (km/s) = 4.26196 7.22482 5.93137
#
# Compressibility (1/GPa) = 0.07153417
#
# Stress axis : x y z
#
# Youngs Moduli (GPa) = 72.04133 8.70593 89.53302
#
# Poissons Ratio (x) = 0.14387 0.31357
# Poissons Ratio (y) = 1.19049 1.26802
# Poissons Ratio (z) = 0.25231 0.12330
#
# Static dielectric constant tensor:
#      x y z
#    x 1.652180 0.000000 0.000000 
#    y 0.000000 1.633370 0.000000 
#    z 0.000000 0.000000 1.619960 
# 
# From -- ./inp_files/73353.got.cif
#   From: 2010.05.17/outbox.cif.g08.bks.cpg/sg74_37_cif.got.tgz:73353.got - 2010.06.03 17:57:02.
