data_PCOD9538402
_publ_section_title
;
Structure prediction by ZEFSAII (Michael W. Deem and Ramdas Pophale) SiO2 
 PCOD9538402
Probable space group: I M M A
;
_chemical_formula_sum "Si O2"
_cell_formula_units_Z 120
_cell_length_a 29.315879
_cell_length_b 14.976701
_cell_length_c 14.791808
_cell_angle_alpha 90.000000
_cell_angle_beta 90.000000
_cell_angle_gamma 90.000000
_cell_volume 6494.419544
_symmetry_space_group_name_H-M "I M M A"
_symmetry_group_IT_number 74
_symmetry_cell_setting 'orthorhombic'
loop_
_space_group_symop_operation_xyz
x,y,z
-x,1/2-y,z
x,-y,-z
-x,1/2+y,-z
-x,-y,-z
x,1/2+y,-z
-x,y,z
x,1/2-y,z
1/2+x,1/2+y,1/2+z
1/2-x,-y,1/2+z
1/2+x,1/2-y,1/2-z
1/2-x,y,1/2-z
1/2-x,1/2-y,1/2-z
1/2+x,y,1/2-z
1/2-x,1/2+y,1/2+z
1/2+x,-y,1/2+z
loop_
_atom_site_type_symbol
_atom_site_label
_atom_site_fract_x
_atom_site_fract_y
_atom_site_fract_z
Si Si1 0.317417 0.851802 0.838365
Si Si2 0.449200 0.482449 0.234328
Si Si3 0.850521 0.516185 0.806852
Si Si4 0.446294 0.149063 0.887971
Si Si5 0.301852 0.854687 0.212812
Si Si6 0.580593 0.352709 0.082271
Si Si7 0.189255 0.000000 0.000000
Si Si8 0.234662 0.856678 0.479958
O O1 0.306036 0.750000 0.812881
O O2 0.319946 0.915165 0.752146
O O3 0.368091 0.852734 0.880903
O O4 0.285722 0.879636 0.921819
O O5 0.500000 0.476431 0.275501
O O6 0.404034 0.463559 0.291874
O O7 0.441912 0.581000 0.193454
O O8 0.447286 0.416151 0.148330
O O9 0.835697 0.420499 0.765031
O O10 0.839206 0.523515 0.911587
O O11 0.500000 0.150507 0.911890
O O12 0.431766 0.250000 0.865899
O O13 0.420820 0.117990 0.978222
O O14 0.313340 0.750000 0.224573
O O15 0.250000 0.867057 0.250000
O O16 0.298759 0.874637 0.105123
O O17 0.563786 0.250000 0.083903
O O18 0.221026 0.917106 0.029087
O O19 0.243655 0.750000 0.477143
#
# Coordination Sequence:
#
# PCOD9538402 Si02
#       8
#    16  16  16  16  16  16   8  16
#     4   9  20  36  54  83 117 148 180 218 269 330
#     4  10  21  36  52  75 106 141 185 234 280 322
#     4  11  24  38  58  81 108 148 190 236 284 328
#     4   9  17  29  47  73 105 140 173 209 260 323
#     4  10  20  37  59  86 116 147 184 221 266 331
#     4   9  17  30  50  78 111 145 179 212 257 324
#     4  12  24  40  57  78 106 140 193 242 282 330
#     4  10  21  36  58  86 117 149 178 216 269 332
#
# _framework density 18.477402000000001
#
# number of rings (size 3 to 8) (size 9 to 14) (size 15 to 20)
#    0.000    2.133    1.333    1.600    1.867    2.933 
#    0.000    1.667    0.000    0.000    0.000    0.000 
#    0.000    5.333    0.000    0.000    0.000    0.000 
#
# Total GULP energy -334895.930596 kJ/mol
# GULP energy per Si atom -5581.598843 kJ/mol
# Density = 1.843535 g / cm^3
# Si number density = 18.477402 Si / 1000 Ang^3
#
#
#
# Elastic Constant Matrix: (Units=GPa)
#
#
# Indices 1 2 3 4 5 6 
#
# 1 46.4997 3.8686 11.2285 0.0000 0.0000 0.0000
# 2 3.8686 31.3882 10.5255 0.0000 0.0000 0.0000
# 3 11.2285 10.5255 81.7443 0.0000 0.0000 0.0000
# 4 0.0000 0.0000 0.0000 15.3622 0.0000 0.0000
# 5 0.0000 0.0000 0.0000 0.0000 16.1855 0.0000
# 6 0.0000 0.0000 0.0000 0.0000 0.0000 18.0503
#
#
#
# Elastic Compliance Matrix: (Units=1/GPa)
#
#
# Indices 1 2 3 4 5 6 
#
# 1 0.022340 -0.001802 -0.002837 0.000000 0.000000 0.000000
# 2 -0.001802 0.033442 -0.004059 0.000000 0.000000 0.000000
# 3 -0.002837 -0.004059 0.013145 0.000000 0.000000 0.000000
# 4 0.000000 0.000000 0.000000 0.065095 0.000000 0.000000
# 5 0.000000 0.000000 0.000000 0.000000 0.061784 0.000000
# 6 0.000000 0.000000 0.000000 0.000000 0.000000 0.055401
#
#
# Mechanical properties :
#
#
# Convention : Reuss Voigt Hill
#
# Bulk Modulus (GPa) = 19.40494 23.43083 21.41789
# Shear Modulus (GPa) = 17.49596 18.85356 18.17476
#
# Velocity S-wave (km/s) = 3.08049 3.19777 3.13968
# Velocity P-wave (km/s) = 4.81428 5.13251 4.97594
#
# Compressibility (1/GPa) = 0.05153326
#
# Stress axis : x y z
#
# Youngs Moduli (GPa) = 44.76186 29.90238 76.07166
#
# Poissons Ratio (x) = 0.05389 0.21579
# Poissons Ratio (y) = 0.08067 0.30874
# Poissons Ratio (z) = 0.12697 0.12136
#
# Static dielectric constant tensor:
#      x y z
#    x 1.661500 0.000000 0.000000 
#    y 0.000000 1.664310 0.000000 
#    z 0.000000 0.000000 1.624850 
# 
# From -- ./inp_files/38011.got.cif
#   From: 2010.05.17/outbox.cif.g08.bks.cpg/sg74_20_cif.got.tgz:38011.got - 2010.06.03 17:57:02.
