data_PCOD9538613
_publ_section_title
;
Structure prediction by ZEFSAII (Michael W. Deem and Ramdas Pophale) SiO2 
 PCOD9538613
Probable space group: I M M A
;
_chemical_formula_sum "Si O2"
_cell_formula_units_Z 52
_cell_length_a 11.200914
_cell_length_b 15.542518
_cell_length_c 13.491383
_cell_angle_alpha 90.000000
_cell_angle_beta 90.000000
_cell_angle_gamma 90.000000
_cell_volume 2348.720364
_symmetry_space_group_name_H-M "I M M A"
_symmetry_group_IT_number 74
_symmetry_cell_setting 'orthorhombic'
loop_
_space_group_symop_operation_xyz
x,y,z
-x,1/2-y,z
x,-y,-z
-x,1/2+y,-z
-x,-y,-z
x,1/2+y,-z
-x,y,z
x,1/2-y,z
1/2+x,1/2+y,1/2+z
1/2-x,-y,1/2+z
1/2+x,1/2-y,1/2-z
1/2-x,y,1/2-z
1/2-x,1/2-y,1/2-z
1/2+x,y,1/2-z
1/2-x,1/2+y,1/2+z
1/2+x,-y,1/2+z
loop_
_atom_site_type_symbol
_atom_site_label
_atom_site_fract_x
_atom_site_fract_y
_atom_site_fract_z
Si Si1 0.271623 0.151012 0.144608
Si Si2 0.000000 0.250000 0.647973
Si Si3 0.000000 0.600835 0.517514
Si Si4 0.860989 0.750000 0.156199
Si Si5 0.862781 0.405647 0.972552
O O1 0.300965 0.250000 0.162411
O O2 0.250000 0.106758 0.250000
O O3 0.382455 0.118587 0.081604
O O4 0.155576 0.143469 0.075865
O O5 0.000000 0.166021 0.577067
O O6 0.886649 0.250000 0.725419
O O7 0.000000 0.500000 0.500000
O O8 0.000000 0.750000 0.117100
O O9 0.811313 0.660685 0.109844
O O10 0.000000 0.421858 0.944556
O O11 0.810500 0.500000 0.000000
#
# Coordination Sequence:
#
# PCOD9538613 Si02
#       5
#    16   4   8   8  16
#     4  11  24  42  68  97 132 182 224 276 346 404
#     4  10  22  44  66  94 134 174 220 274 348 412
#     4  12  26  48  69  96 143 176 223 288 350 416
#     4   8  18  37  62  93 131 175 214 273 339 390
#     4  10  20  38  67  98 134 169 230 280 328 402
#
# _framework density 22.139716
#
# number of rings (size 3 to 8) (size 9 to 14) (size 15 to 20)
#    0.462    1.231    3.077    0.923    2.154    2.462 
#    0.000    3.077    0.000    0.000    0.000    0.000 
#    0.000    0.000    0.000    0.000    0.000    0.000 
#
# Total GULP energy -144787.506188 kJ/mol
# GULP energy per Si atom -5568.750238 kJ/mol
# Density = 2.208932 g / cm^3
# Si number density = 22.139716 Si / 1000 Ang^3
#
#
#
# Elastic Constant Matrix: (Units=GPa)
#
#
# Indices 1 2 3 4 5 6 
#
# 1 44.9717 29.3879 29.0938 0.0000 0.0000 0.0000
# 2 29.3879 184.5212 80.5277 0.0001 0.0000 0.0000
# 3 29.0938 80.5277 178.3127 0.0001 0.0000 0.0000
# 4 0.0000 0.0001 0.0001 -2.8457 0.0000 0.0000
# 5 0.0000 0.0000 0.0000 0.0000 15.6524 0.0000
# 6 0.0000 0.0000 0.0000 0.0000 0.0000 8.0442
#
#
#
# Elastic Compliance Matrix: (Units=1/GPa)
#
#
# Indices 1 2 3 4 5 6 
#
# 1 0.026013 -0.002853 -0.002956 0.000000 0.000000 0.000000
# 2 -0.002853 0.007063 -0.002724 0.000000 0.000000 0.000000
# 3 -0.002956 -0.002724 0.007321 0.000000 0.000000 0.000000
# 4 0.000000 0.000000 0.000000 -0.351404 0.000000 0.000000
# 5 0.000000 0.000000 0.000000 0.000000 0.063888 0.000000
# 6 0.000000 0.000000 0.000000 0.000000 0.000000 0.124313
#
#
# Mechanical properties :
#
#
# Convention : Reuss Voigt Hill
#
# Bulk Modulus (GPa) = 42.86279 76.20271 59.53275
# Shear Modulus (GPa) = -51.03909 22.08993 -14.47458
#
# Velocity S-wave (km/s) = -4.80658 3.16215 -2.55969
# Velocity P-wave (km/s) = 3.37671 6.91563 4.26754
#
# Compressibility (1/GPa) = 0.02333026
#
# Stress axis : x y z
#
# Youngs Moduli (GPa) = 38.44267 141.59041 136.60050
#
# Poissons Ratio (x) = 0.40395 0.40377
# Poissons Ratio (y) = 0.10968 0.37211
# Poissons Ratio (z) = 0.11363 0.38570
#
# Static dielectric constant tensor:
#      x y z
#    x 1.907510 0.000000 0.000000 
#    y 0.000000 2.319550 0.000000 
#    z 0.000000 0.000000 1.928700 
# 
# From -- ./inp_files/19619.got.cif
#   From: 2010.05.17/outbox.cif.g08.bks.cpg/sg74_10_cif.got.tgz:19619.got - 2010.06.03 17:57:02.
