data_PCOD9538588
_publ_section_title
;
Structure prediction by ZEFSAII (Michael W. Deem and Ramdas Pophale) SiO2 
 PCOD9538588
Probable space group: I M M A
;
_chemical_formula_sum "Si O2"
_cell_formula_units_Z 100
_cell_length_a 17.468472
_cell_length_b 21.033041
_cell_length_c 15.231553
_cell_angle_alpha 90.000000
_cell_angle_beta 90.000000
_cell_angle_gamma 90.000000
_cell_volume 5596.302383
_symmetry_space_group_name_H-M "I M M A"
_symmetry_group_IT_number 74
_symmetry_cell_setting 'orthorhombic'
loop_
_space_group_symop_operation_xyz
x,y,z
-x,1/2-y,z
x,-y,-z
-x,1/2+y,-z
-x,-y,-z
x,1/2+y,-z
-x,y,z
x,1/2-y,z
1/2+x,1/2+y,1/2+z
1/2-x,-y,1/2+z
1/2+x,1/2-y,1/2-z
1/2-x,y,1/2-z
1/2-x,1/2-y,1/2-z
1/2+x,y,1/2-z
1/2-x,1/2+y,1/2+z
1/2+x,-y,1/2+z
loop_
_atom_site_type_symbol
_atom_site_label
_atom_site_fract_x
_atom_site_fract_y
_atom_site_fract_z
Si Si1 0.500000 0.250000 0.073534
Si Si2 0.699948 0.680218 0.529195
Si Si3 0.584125 0.993313 0.289603
Si Si4 0.360404 0.840182 0.877314
Si Si5 0.372230 0.491249 0.096479
Si Si6 0.203382 0.450460 0.925657
Si Si7 0.089683 0.354347 0.185575
O O1 0.431938 0.195027 0.078593
O O2 0.691198 0.750000 0.487678
O O3 0.779377 0.679660 0.583261
O O4 0.702500 0.620414 0.463906
O O5 0.632232 0.668869 0.599113
O O6 0.500000 0.974249 0.321842
O O7 0.587940 0.984592 0.184731
O O8 0.593947 0.068782 0.308656
O O9 0.650916 0.957690 0.340565
O O10 0.363974 0.915861 0.890956
O O11 0.369633 0.828506 0.773172
O O12 0.289277 0.525235 0.093230
O O13 0.407787 0.500000 0.000000
O O14 0.173410 0.500000 0.000000
O O15 0.000000 0.336539 0.188434
#
# Coordination Sequence:
#
# PCOD9538588 Si02
#       7
#     4  16  16  16  16  16  16
#     4  12  24  36  56  80 134 172 184 244 306 380
#     4  12  24  36  58  87 118 163 211 246 297 369
#     4  10  21  36  60  91 120 154 197 250 306 356
#     4  11  21  37  55  83 118 163 197 237 303 368
#     4  10  20  38  64  90 115 147 199 254 298 353
#     4  11  20  39  61  86 118 162 204 250 291 345
#     4  10  21  35  54  86 125 158 201 243 299 368
#
# _framework density 17.868941
#
# number of rings (size 3 to 8) (size 9 to 14) (size 15 to 20)
#    0.000    1.280    6.400    0.960    2.240    4.800 
#    0.000    0.000    0.000    1.920    0.000    0.000 
#    0.000    0.000    0.000    0.000    0.000    0.000 
#
# Total GULP energy -278538.625615 kJ/mol
# GULP energy per Si atom -5570.772512 kJ/mol
# Density = 1.782827 g / cm^3
# Si number density = 17.868941 Si / 1000 Ang^3
#
#
#
# Elastic Constant Matrix: (Units=GPa)
#
#
# Indices 1 2 3 4 5 6 
#
# 1 81.3564 34.6891 41.2315 0.0000 0.0000 0.0000
# 2 34.6891 123.5472 39.6876 0.0000 0.0000 0.0000
# 3 41.2315 39.6876 64.1447 0.0000 0.0000 0.0000
# 4 0.0000 0.0000 0.0000 9.0177 0.0000 0.0000
# 5 0.0000 0.0000 0.0000 0.0000 3.6413 0.0000
# 6 0.0000 0.0000 0.0000 0.0000 0.0000 32.2109
#
#
#
# Elastic Compliance Matrix: (Units=1/GPa)
#
#
# Indices 1 2 3 4 5 6 
#
# 1 0.018518 -0.001717 -0.010841 0.000000 0.000000 0.000000
# 2 -0.001717 0.010261 -0.005245 0.000000 0.000000 0.000000
# 3 -0.010841 -0.005245 0.025803 0.000000 0.000000 0.000000
# 4 0.000000 0.000000 0.000000 0.110893 0.000000 0.000000
# 5 0.000000 0.000000 0.000000 0.000000 0.274624 0.000000
# 6 0.000000 0.000000 0.000000 0.000000 0.000000 0.031045
#
#
# Mechanical properties :
#
#
# Convention : Reuss Voigt Hill
#
# Bulk Modulus (GPa) = 52.69639 55.58495 54.14067
# Shear Modulus (GPa) = 9.74515 19.20332 14.47424
#
# Velocity S-wave (km/s) = 2.33785 3.28178 2.84918
# Velocity P-wave (km/s) = 6.06975 6.74794 6.41781
#
# Compressibility (1/GPa) = 0.01897663
#
# Stress axis : x y z
#
# Youngs Moduli (GPa) = 54.00219 97.45590 38.75475
#
# Poissons Ratio (x) = 0.16733 0.42013
# Poissons Ratio (y) = 0.09272 0.20327
# Poissons Ratio (z) = 0.58542 0.51116
#
# Static dielectric constant tensor:
#      x y z
#    x 1.603240 0.000000 0.000000 
#    y 0.000000 1.637820 0.000000 
#    z 0.000000 0.000000 1.613540 
# 
# From -- ./inp_files/34305.got.cif
#   From: 2010.05.17/outbox.cif.g08.bks.cpg/sg74_18_cif.got.tgz:34305.got - 2010.06.03 17:57:02.
