data_PCOD9538407
_publ_section_title
;
Structure prediction by ZEFSAII (Michael W. Deem and Ramdas Pophale) SiO2 
 PCOD9538407
Probable space group: I M M A
;
_chemical_formula_sum "Si O2"
_cell_formula_units_Z 72
_cell_length_a 8.603035
_cell_length_b 14.849891
_cell_length_c 30.550002
_cell_angle_alpha 90.000000
_cell_angle_beta 90.000000
_cell_angle_gamma 90.000000
_cell_volume 3902.888989
_symmetry_space_group_name_H-M "I M M A"
_symmetry_group_IT_number 74
_symmetry_cell_setting 'orthorhombic'
loop_
_space_group_symop_operation_xyz
x,y,z
-x,1/2-y,z
x,-y,-z
-x,1/2+y,-z
-x,-y,-z
x,1/2+y,-z
-x,y,z
x,1/2-y,z
1/2+x,1/2+y,1/2+z
1/2-x,-y,1/2+z
1/2+x,1/2-y,1/2-z
1/2-x,y,1/2-z
1/2-x,1/2-y,1/2-z
1/2+x,y,1/2-z
1/2-x,1/2+y,1/2+z
1/2+x,-y,1/2+z
loop_
_atom_site_type_symbol
_atom_site_label
_atom_site_fract_x
_atom_site_fract_y
_atom_site_fract_z
Si Si1 0.310952 0.750000 0.586247
Si Si2 0.313228 0.750000 0.484297
Si Si3 0.687073 0.750000 0.200510
Si Si4 0.813296 0.552790 0.299394
Si Si5 0.313584 0.441865 0.377336
Si Si6 0.186338 0.058622 0.542921
O O1 0.500000 0.750000 0.586232
O O2 0.262647 0.750000 0.535417
O O3 0.259825 0.658647 0.609902
O O4 0.500000 0.750000 0.482950
O O5 0.250118 0.840795 0.462552
O O6 0.500000 0.750000 0.201262
O O7 0.750000 0.750000 0.250000
O O8 0.734929 0.652492 0.182274
O O9 0.750000 0.544905 0.250000
O O10 0.748564 0.476969 0.331183
O O11 0.000000 0.549359 0.298362
O O12 0.500000 0.442640 0.376994
O O13 0.253668 0.508835 0.414895
O O14 0.000000 0.061071 0.545743
O O15 0.230273 0.000000 0.500000
#
# Coordination Sequence:
#
# PCOD9538407 Si02
#       6
#     8   8   8  16  16  16
#     4   9  20  37  59  83 111 150 199 247 293 346
#     4  11  21  38  62  86 115 157 201 245 292 347
#     4   8  16  31  54  79 110 145 180 220 275 338
#     4  10  20  37  59  87 118 154 193 241 295 351
#     4  11  22  39  61  86 115 154 200 246 294 353
#     4  11  23  38  57  86 120 153 190 240 295 351
#
# _framework density 18.447873000000001
#
# number of rings (size 3 to 8) (size 9 to 14) (size 15 to 20)
#    0.000    1.778    2.222    2.333    0.000    2.667 
#    0.000    6.111    0.000    0.000    0.000    0.000 
#    0.000    0.000    0.000    0.000    0.000    0.000 
#
# Total GULP energy -201001.480436 kJ/mol
# GULP energy per Si atom -5583.374457 kJ/mol
# Density = 1.840588 g / cm^3
# Si number density = 18.447873 Si / 1000 Ang^3
#
#
#
# Elastic Constant Matrix: (Units=GPa)
#
#
# Indices 1 2 3 4 5 6 
#
# 1 49.2688 40.3190 31.7173 0.0000 0.0000 0.0000
# 2 40.3190 191.3623 79.6009 0.0000 0.0000 0.0000
# 3 31.7173 79.6009 103.5486 0.0000 0.0000 0.0000
# 4 0.0000 0.0000 0.0000 69.6290 0.0000 0.0000
# 5 0.0000 0.0000 0.0000 0.0000 31.6119 0.0000
# 6 0.0000 0.0000 0.0000 0.0000 0.0000 20.7511
#
#
#
# Elastic Compliance Matrix: (Units=1/GPa)
#
#
# Indices 1 2 3 4 5 6 
#
# 1 0.026594 -0.003256 -0.005643 0.000000 0.000000 0.000000
# 2 -0.003256 0.008081 -0.005215 0.000000 0.000000 0.000000
# 3 -0.005643 -0.005215 0.015394 0.000000 0.000000 0.000000
# 4 0.000000 0.000000 0.000000 0.014362 0.000000 0.000000
# 5 0.000000 0.000000 0.000000 0.000000 0.031634 0.000000
# 6 0.000000 0.000000 0.000000 0.000000 0.000000 0.048190
#
#
# Mechanical properties :
#
#
# Convention : Reuss Voigt Hill
#
# Bulk Modulus (GPa) = 45.78292 71.93935 58.86113
# Shear Modulus (GPa) = 27.81444 37.23457 32.52451
#
# Velocity S-wave (km/s) = 3.88716 4.49750 4.20342
# Velocity P-wave (km/s) = 6.70955 8.12715 7.45214
#
# Compressibility (1/GPa) = 0.02184221
#
# Stress axis : x y z
#
# Youngs Moduli (GPa) = 37.60253 123.74942 64.95865
#
# Poissons Ratio (x) = 0.40292 0.36655
# Poissons Ratio (y) = 0.12243 0.33874
# Poissons Ratio (z) = 0.21219 0.64531
#
# Static dielectric constant tensor:
#      x y z
#    x 1.625720 0.000000 0.000000 
#    y 0.000000 1.647650 0.000000 
#    z 0.000000 0.000000 1.606870 
# 
# From -- ./inp_files/63647.got.cif
#   From: 2010.05.17/outbox.cif.g08.bks.cpg/sg74_32_cif.got.tgz:63647.got - 2010.06.03 17:57:02.
