data_PCOD9538197
_publ_section_title
;
Structure prediction by ZEFSAII (Michael W. Deem and Ramdas Pophale) SiO2 
 PCOD9538197
Probable space group: I M M A
;
_chemical_formula_sum "Si O2"
_cell_formula_units_Z 72
_cell_length_a 22.127979
_cell_length_b 15.303349
_cell_length_c 9.584774
_cell_angle_alpha 90.000000
_cell_angle_beta 90.000000
_cell_angle_gamma 90.000000
_cell_volume 3245.712965
_symmetry_space_group_name_H-M "I M M A"
_symmetry_group_IT_number 74
_symmetry_cell_setting 'orthorhombic'
loop_
_space_group_symop_operation_xyz
x,y,z
-x,1/2-y,z
x,-y,-z
-x,1/2+y,-z
-x,-y,-z
x,1/2+y,-z
-x,y,z
x,1/2-y,z
1/2+x,1/2+y,1/2+z
1/2-x,-y,1/2+z
1/2+x,1/2-y,1/2-z
1/2-x,y,1/2-z
1/2-x,1/2-y,1/2-z
1/2+x,y,1/2-z
1/2-x,1/2+y,1/2+z
1/2+x,-y,1/2+z
loop_
_atom_site_type_symbol
_atom_site_label
_atom_site_fract_x
_atom_site_fract_y
_atom_site_fract_z
Si Si1 0.432047 0.750000 0.181491
Si Si2 0.755517 0.582385 0.917725
Si Si3 0.928565 0.053478 0.642168
Si Si4 0.595163 0.250000 0.498615
Si Si5 0.238785 0.250000 0.917513
Si Si6 0.602946 0.066081 0.393056
O O1 0.500000 0.750000 0.120587
O O2 0.405152 0.654225 0.141843
O O3 0.434733 0.750000 0.349539
O O4 0.750000 0.584699 0.750000
O O5 0.827628 0.578171 0.937140
O O6 0.728514 0.500000 0.000000
O O7 0.734364 0.666906 0.001750
O O8 0.000000 0.060349 0.679895
O O9 0.924693 0.000000 0.500000
O O10 0.898003 0.988231 0.751719
O O11 0.666717 0.250000 0.544878
O O12 0.578902 0.163973 0.409658
O O13 0.250000 0.250000 0.750000
O O14 0.571920 0.000000 0.500000
#
# Coordination Sequence:
#
# PCOD9538197 Si02
#       6
#     8  16  16   8   8  16
#     4  10  20  37  61  84 112 151 191 234 285 345
#     4  10  21  37  57  83 116 151 195 245 290 345
#     4  10  22  39  59  86 120 152 190 240 294 351
#     4  10  20  36  58  87 117 146 199 243 287 345
#     4  10  21  39  59  81 118 156 193 244 295 341
#     4  10  20  36  58  82 114 150 190 243 289 338
#
# _framework density 22.183109000000002
#
# number of rings (size 3 to 8) (size 9 to 14) (size 15 to 20)
#    0.000    2.000    2.222    1.000    0.000    3.111 
#    4.000    1.111    0.000    0.000    0.000    0.000 
#    0.000    0.000    0.000    0.000    0.000    0.000 
#
# Total GULP energy -200621.484557 kJ/mol
# GULP energy per Si atom -5572.819015 kJ/mol
# Density = 2.213262 g / cm^3
# Si number density = 22.183109 Si / 1000 Ang^3
#
#
#
# Elastic Constant Matrix: (Units=GPa)
#
#
# Indices 1 2 3 4 5 6 
#
# 1 39.1964 14.9041 -16.2906 0.0000 0.0000 0.0000
# 2 14.9041 289.0404 99.6116 0.0000 0.0000 0.0000
# 3 -16.2906 99.6116 120.4708 0.0000 0.0000 0.0000
# 4 0.0000 0.0000 0.0000 29.7751 0.0000 0.0000
# 5 0.0000 0.0000 0.0000 0.0000 25.5212 0.0000
# 6 0.0000 0.0000 0.0000 0.0000 0.0000 -6.7088
#
#
#
# Elastic Compliance Matrix: (Units=1/GPa)
#
#
# Indices 1 2 3 4 5 6 
#
# 1 0.030213 -0.004148 0.007515 0.000000 0.000000 0.000000
# 2 -0.004148 0.005408 -0.005032 0.000000 0.000000 0.000000
# 3 0.007515 -0.005032 0.013478 0.000000 0.000000 0.000000
# 4 0.000000 0.000000 0.000000 0.033585 0.000000 0.000000
# 5 0.000000 0.000000 0.000000 0.000000 0.039183 0.000000
# 6 0.000000 0.000000 0.000000 0.000000 0.000000 -0.149059
#
#
# Mechanical properties :
#
#
# Convention : Reuss Voigt Hill
#
# Bulk Modulus (GPa) = 21.84881 71.68421 46.76651
# Shear Modulus (GPa) = -581.06978 33.08300 -273.99339
#
# Velocity S-wave (km/s) = -16.20219 3.86600 -11.12576
# Velocity P-wave (km/s) = 18.44300 7.23276 11.99648
#
# Compressibility (1/GPa) = 0.04576909
#
# Stress axis : x y z
#
# Youngs Moduli (GPa) = 33.09810 184.91332 74.19428
#
# Poissons Ratio (x) = 0.76700 -0.55759
# Poissons Ratio (y) = 0.13729 0.37338
# Poissons Ratio (z) = -0.24874 0.93057
#
# Static dielectric constant tensor:
#      x y z
#    x 1.883650 0.000000 0.000000 
#    y 0.000000 1.818130 0.000000 
#    z 0.000000 0.000000 2.675560 
# 
# From -- ./inp_files/9199.got.cif
#   From: 2010.05.17/outbox.cif.g08.bks.cpg/sg74_5_cif.got.tgz:9199.got - 2010.06.03 17:57:02.
