data_PCOD9538370
_publ_section_title
;
Structure prediction by ZEFSAII (Michael W. Deem and Ramdas Pophale) SiO2 
 PCOD9538370
Probable space group: I M M A
;
_chemical_formula_sum "Si O2"
_cell_formula_units_Z 100
_cell_length_a 19.211085
_cell_length_b 14.753112
_cell_length_c 19.230308
_cell_angle_alpha 90.000000
_cell_angle_beta 90.000000
_cell_angle_gamma 90.000000
_cell_volume 5450.317135
_symmetry_space_group_name_H-M "I M M A"
_symmetry_group_IT_number 74
_symmetry_cell_setting 'orthorhombic'
loop_
_space_group_symop_operation_xyz
x,y,z
-x,1/2-y,z
x,-y,-z
-x,1/2+y,-z
-x,-y,-z
x,1/2+y,-z
-x,y,z
x,1/2-y,z
1/2+x,1/2+y,1/2+z
1/2-x,-y,1/2+z
1/2+x,1/2-y,1/2-z
1/2-x,y,1/2-z
1/2-x,1/2-y,1/2-z
1/2+x,y,1/2-z
1/2-x,1/2+y,1/2+z
1/2+x,-y,1/2+z
loop_
_atom_site_type_symbol
_atom_site_label
_atom_site_fract_x
_atom_site_fract_y
_atom_site_fract_z
Si Si1 0.168824 0.855608 0.267303
Si Si2 0.424831 0.908224 0.881629
Si Si3 0.000000 0.750000 0.454174
Si Si4 0.122536 0.896974 0.424818
Si Si5 0.291142 0.149245 0.051468
Si Si6 0.704622 0.359943 0.319462
Si Si7 0.920230 0.475553 0.223126
O O1 0.154848 0.750000 0.249879
O O2 0.250000 0.874233 0.250000
O O3 0.151963 0.869426 0.349078
O O4 0.118827 0.927691 0.228967
O O5 0.500000 0.869527 0.899870
O O6 0.362574 0.845713 0.904554
O O7 0.422915 0.933013 0.800722
O O8 0.410834 0.004023 0.918439
O O9 0.937893 0.671704 0.447652
O O10 0.185560 0.895897 0.479869
O O11 0.265795 0.250000 0.034427
O O12 0.240551 0.107198 0.109032
O O13 0.701416 0.250000 0.320172
O O14 0.750000 0.384718 0.250000
O O15 0.629720 0.406240 0.316384
O O16 0.000000 0.484157 0.198942
#
# Coordination Sequence:
#
# PCOD9538370 Si02
#       7
#    16  16   4  16  16  16  16
#     4  10  21  36  57  83 115 149 187 228 272 335
#     4  10  21  32  48  76 109 146 182 217 266 329
#     4  12  20  36  56  76 128 152 170 228 262 338
#     4  11  22  35  52  80 112 150 183 214 277 329
#     4  11  22  34  52  75 105 148 187 223 272 331
#     4  10  20  37  55  75 106 145 188 239 287 326
#     4  10  21  35  55  79 107 144 188 235 283 327
#
# _framework density 18.347556000000001
#
# number of rings (size 3 to 8) (size 9 to 14) (size 15 to 20)
#    0.000    1.600    4.000    0.960    4.480    1.600 
#    0.000    1.600    0.000    0.000    0.000    2.240 
#    0.000    5.120    0.000    0.000    0.000    0.000 
#
# Total GULP energy -278445.163939 kJ/mol
# GULP energy per Si atom -5568.903279 kJ/mol
# Density = 1.830580 g / cm^3
# Si number density = 18.347556 Si / 1000 Ang^3
#
#
#
# Elastic Constant Matrix: (Units=GPa)
#
#
# Indices 1 2 3 4 5 6 
#
# 1 127.1064 27.6413 37.1720 0.0000 0.0000 0.0000
# 2 27.6413 64.7715 6.9787 0.0000 0.0000 0.0000
# 3 37.1720 6.9787 53.4136 0.0000 0.0000 0.0000
# 4 0.0000 0.0000 0.0000 5.6402 0.0000 0.0000
# 5 0.0000 0.0000 0.0000 0.0000 17.5170 0.0000
# 6 0.0000 0.0000 0.0000 0.0000 0.0000 15.8567
#
#
#
# Elastic Compliance Matrix: (Units=1/GPa)
#
#
# Indices 1 2 3 4 5 6 
#
# 1 0.010740 -0.003832 -0.006974 0.000000 0.000000 0.000000
# 2 -0.003832 0.017027 0.000442 0.000000 0.000000 0.000000
# 3 -0.006974 0.000442 0.023517 0.000000 0.000000 0.000000
# 4 0.000000 0.000000 0.000000 0.177297 0.000000 0.000000
# 5 0.000000 0.000000 0.000000 0.000000 0.057087 0.000000
# 6 0.000000 0.000000 0.000000 0.000000 0.000000 0.063065
#
#
# Mechanical properties :
#
#
# Convention : Reuss Voigt Hill
#
# Bulk Modulus (GPa) = 32.72580 43.20841 37.96710
# Shear Modulus (GPa) = 13.17017 19.36943 16.26980
#
# Velocity S-wave (km/s) = 2.68212 3.25267 2.98107
# Velocity P-wave (km/s) = 5.24089 6.14065 5.70853
#
# Compressibility (1/GPa) = 0.03055693
#
# Stress axis : x y z
#
# Youngs Moduli (GPa) = 93.10800 58.73178 42.52194
#
# Poissons Ratio (x) = 0.22506 0.29654
# Poissons Ratio (y) = 0.35679 -0.01880
# Poissons Ratio (z) = 0.64931 -0.02597
#
# Static dielectric constant tensor:
#      x y z
#    x 1.629360 0.000000 0.000000 
#    y 0.000000 1.671570 0.000000 
#    z 0.000000 0.000000 1.663340 
# 
# From -- ./inp_files/53101.got.cif
#   From: 2010.05.17/outbox.cif.g08.bks.cpg/sg74_27_cif.got.tgz:53101.got - 2010.06.03 17:57:02.
