data_PCOD9538794
_publ_section_title
;
Structure prediction by ZEFSAII (Michael W. Deem and Ramdas Pophale) SiO2 
 PCOD9538794
Probable space group: I M M A
;
_chemical_formula_sum "Si O2"
_cell_formula_units_Z 68
_cell_length_a 14.383230
_cell_length_b 27.329777
_cell_length_c 9.050198
_cell_angle_alpha 90.000000
_cell_angle_beta 90.000000
_cell_angle_gamma 90.000000
_cell_volume 3557.546571
_symmetry_space_group_name_H-M "I M M A"
_symmetry_group_IT_number 74
_symmetry_cell_setting 'orthorhombic'
loop_
_space_group_symop_operation_xyz
x,y,z
-x,1/2-y,z
x,-y,-z
-x,1/2+y,-z
-x,-y,-z
x,1/2+y,-z
-x,y,z
x,1/2-y,z
1/2+x,1/2+y,1/2+z
1/2-x,-y,1/2+z
1/2+x,1/2-y,1/2-z
1/2-x,y,1/2-z
1/2-x,1/2-y,1/2-z
1/2+x,y,1/2-z
1/2-x,1/2+y,1/2+z
1/2+x,-y,1/2+z
loop_
_atom_site_type_symbol
_atom_site_label
_atom_site_fract_x
_atom_site_fract_y
_atom_site_fract_z
Si Si1 0.231825 0.108822 0.398667
Si Si2 0.652088 0.663305 0.176390
Si Si3 0.392485 0.072206 0.614891
Si Si4 0.000000 0.250000 0.666843
Si Si5 0.107501 0.517541 0.670246
O O1 0.250000 0.139622 0.250000
O O2 0.176389 0.140280 0.517943
O O3 0.319788 0.085197 0.485781
O O4 0.168717 0.065477 0.334174
O O5 0.750000 0.678408 0.250000
O O6 0.613347 0.618332 0.274706
O O7 0.580701 0.707090 0.168933
O O8 0.500000 0.065964 0.566050
O O9 0.364624 0.024395 0.711741
O O10 0.112487 0.500000 0.500000
O O11 0.000000 0.528725 0.702021
#
# Coordination Sequence:
#
# PCOD9538794 Si02
#       5
#    16  16  16   4  16
#     4  11  25  38  62  91 133 171 209 250 307 371
#     4  10  22  40  66  96 121 155 205 264 320 373
#     4  10  21  41  62  92 128 165 211 259 303 364
#     4  12  22  40  74  94 118 148 216 264 324 388
#     4  10  21  34  59  91 126 167 206 251 302 363
#
# _framework density 19.114294999999998
#
# number of rings (size 3 to 8) (size 9 to 14) (size 15 to 20)
#    0.000    1.647    3.529    0.353    4.941    0.941 
#    0.000    2.941    0.000    5.647    0.000    0.000 
#    0.000    0.000    0.000    0.000    0.000    0.000 
#
# Total GULP energy -189352.457759 kJ/mol
# GULP energy per Si atom -5569.189934 kJ/mol
# Density = 1.907079 g / cm^3
# Si number density = 19.114295 Si / 1000 Ang^3
#
#
#
# Elastic Constant Matrix: (Units=GPa)
#
#
# Indices 1 2 3 4 5 6 
#
# 1 79.7575 53.1595 34.1487 -0.0002 -0.0001 0.0000
# 2 53.1595 121.6583 52.6396 -0.0003 -0.0001 -0.0001
# 3 34.1487 52.6396 137.0292 -0.0001 0.0004 -0.0001
# 4 -0.0002 -0.0003 -0.0001 -0.7792 0.0000 -0.0001
# 5 -0.0001 -0.0001 0.0004 0.0000 9.7129 -0.0001
# 6 0.0000 -0.0001 -0.0001 -0.0001 -0.0001 47.0819
#
#
#
# Elastic Compliance Matrix: (Units=1/GPa)
#
#
# Indices 1 2 3 4 5 6 
#
# 1 0.018037 -0.007120 -0.001760 -0.000002 0.000000 0.000000
# 2 -0.007120 0.012669 -0.003092 -0.000002 0.000000 0.000000
# 3 -0.001760 -0.003092 0.008924 0.000000 0.000000 0.000000
# 4 -0.000002 -0.000002 0.000000 -1.283354 -0.000003 -0.000001
# 5 0.000000 0.000000 0.000000 -0.000003 0.102956 0.000000
# 6 0.000000 0.000000 0.000000 -0.000001 0.000000 0.021240
#
#
# Mechanical properties :
#
#
# Convention : Reuss Voigt Hill
#
# Bulk Modulus (GPa) = 63.75208 68.70451 66.22830
# Shear Modulus (GPa) = -4.58566 24.43627 9.92531
#
# Velocity S-wave (km/s) = -1.55057 3.57939 2.28120
# Velocity P-wave (km/s) = 5.49725 7.28730 6.45463
#
# Compressibility (1/GPa) = 0.01568576
#
# Stress axis : x y z
#
# Youngs Moduli (GPa) = 55.44148 78.93348 112.05466
#
# Poissons Ratio (x) = 0.56200 0.19720
# Poissons Ratio (y) = 0.39474 0.34652
# Poissons Ratio (z) = 0.09757 0.24409
#
# Static dielectric constant tensor:
#      x y z
#    x 1.717150 0.000000 0.000000 
#    y 0.000000 1.627040 0.000000 
#    z 0.000000 0.000000 1.766250 
# 
# From -- ./inp_files/9058.got.cif
#   From: 2010.05.17/outbox.cif.g08.bks.cpg/sg74_5_cif.got.tgz:9058.got - 2010.06.03 17:57:02.
