data_PCOD9538766
_publ_section_title
;
Structure prediction by ZEFSAII (Michael W. Deem and Ramdas Pophale) SiO2 
 PCOD9538766
Probable space group: I M M A
;
_chemical_formula_sum "Si O2"
_cell_formula_units_Z 112
_cell_length_a 7.670173
_cell_length_b 15.383699
_cell_length_c 45.518317
_cell_angle_alpha 90.000000
_cell_angle_beta 90.000000
_cell_angle_gamma 90.000000
_cell_volume 5370.962614
_symmetry_space_group_name_H-M "I M M A"
_symmetry_group_IT_number 74
_symmetry_cell_setting 'orthorhombic'
loop_
_space_group_symop_operation_xyz
x,y,z
-x,1/2-y,z
x,-y,-z
-x,1/2+y,-z
-x,-y,-z
x,1/2+y,-z
-x,y,z
x,1/2-y,z
1/2+x,1/2+y,1/2+z
1/2-x,-y,1/2+z
1/2+x,1/2-y,1/2-z
1/2-x,y,1/2-z
1/2-x,1/2-y,1/2-z
1/2+x,y,1/2-z
1/2-x,1/2+y,1/2+z
1/2+x,-y,1/2+z
loop_
_atom_site_type_symbol
_atom_site_label
_atom_site_fract_x
_atom_site_fract_y
_atom_site_fract_z
Si Si1 0.709337 0.151482 0.283123
Si Si2 0.205089 0.151805 0.935042
Si Si3 0.710479 0.150600 0.063483
Si Si4 0.798736 0.144290 0.500114
Si Si5 0.209060 0.002160 0.892823
Si Si6 0.709317 0.348506 0.716846
Si Si7 0.214232 0.499809 0.174145
O O1 0.500000 0.154973 0.285546
O O2 0.777173 0.250000 0.286432
O O3 0.750000 0.121623 0.250000
O O4 0.772239 0.084611 0.307606
O O5 0.279776 0.250000 0.933256
O O6 0.219501 0.119678 0.968699
O O7 0.000000 0.159106 0.928789
O O8 0.279669 0.082346 0.912250
O O9 0.500000 0.153581 0.061076
O O10 0.770617 0.250000 0.068268
O O11 0.756567 0.086033 0.089447
O O12 0.775736 0.117205 0.031510
O O13 0.792174 0.250000 0.498933
O O14 0.000000 0.117139 0.501523
O O15 0.000000 0.011940 0.891171
O O16 0.273815 0.000254 0.859464
O O17 0.500000 0.344981 0.714398
O O18 0.777139 0.250000 0.713434
O O19 0.750000 0.378027 0.750000
O O20 0.771597 0.415714 0.692430
O O21 0.000000 0.499410 0.174098
#
# Coordination Sequence:
#
# PCOD9538766 Si02
#       7
#    16  16  16  16  16  16  16
#     4   9  17  30  49  71  93 118 150 189 231 273
#     4   9  18  32  49  71 100 129 159 202 249 287
#     4   9  19  36  54  72  97 127 160 202 250 296
#     4   8  15  30  52  73  92 121 161 201 245 297
#     4  10  21  34  49  72  99 131 170 202 235 287
#     4   9  17  30  50  74  97 123 157 197 239 281
#     4   9  18  32  48  68  96 128 160 191 227 277
#
# _framework density 20.852874
#
# number of rings (size 3 to 8) (size 9 to 14) (size 15 to 20)
#    0.000    3.000    0.000    1.286    0.000    3.143 
#    0.000   10.000    0.000    1.714    0.000    4.000 
#    0.000    0.000    0.000    0.000    0.000    0.000 
#
# Total GULP energy -312387.873379 kJ/mol
# GULP energy per Si atom -5578.354882 kJ/mol
# Density = 2.080541 g / cm^3
# Si number density = 20.852874 Si / 1000 Ang^3
#
#
#
# Elastic Constant Matrix: (Units=GPa)
#
#
# Indices 1 2 3 4 5 6 
#
# 1 34.9317 4.1107 4.6369 0.0000 0.0000 0.0000
# 2 4.1107 118.9554 121.0376 0.0000 0.0000 0.0000
# 3 4.6369 121.0376 228.9255 0.0000 0.0000 0.0000
# 4 0.0000 0.0000 0.0000 -13.4929 0.0000 0.0000
# 5 0.0000 0.0000 0.0000 0.0000 14.6182 0.0000
# 6 0.0000 0.0000 0.0000 0.0000 0.0000 4.3804
#
#
#
# Elastic Compliance Matrix: (Units=1/GPa)
#
#
# Indices 1 2 3 4 5 6 
#
# 1 0.028746 -0.000868 -0.000123 0.000000 0.000000 0.000000
# 2 -0.000868 0.018221 -0.009616 0.000000 0.000000 0.000000
# 3 -0.000123 -0.009616 0.009455 0.000000 0.000000 0.000000
# 4 0.000000 0.000000 0.000000 -0.074113 0.000000 0.000000
# 5 0.000000 0.000000 0.000000 0.000000 0.068408 0.000000
# 6 0.000000 0.000000 0.000000 0.000000 0.000000 0.228288
#
#
# Mechanical properties :
#
#
# Convention : Reuss Voigt Hill
#
# Bulk Modulus (GPa) = 28.40346 71.37590 49.88968
# Shear Modulus (GPa) = 16.02796 17.96965 16.99880
#
# Velocity S-wave (km/s) = 2.77541 2.93872 2.85823
# Velocity P-wave (km/s) = 4.89091 6.76885 5.90501
#
# Compressibility (1/GPa) = 0.03520698
#
# Stress axis : x y z
#
# Youngs Moduli (GPa) = 34.78770 54.88134 105.76338
#
# Poissons Ratio (x) = 0.04762 0.01306
# Poissons Ratio (y) = 0.03019 1.01705
# Poissons Ratio (z) = 0.00429 0.52776
#
# Static dielectric constant tensor:
#      x y z
#    x 1.782860 0.000000 0.000000 
#    y 0.000000 1.761830 0.000000 
#    z 0.000000 0.000000 1.722340 
# 
# From -- ./inp_files/71873.got.cif
#   From: 2010.05.17/outbox.cif.g08.bks.cpg/sg74_36_cif.got.tgz:71873.got - 2010.06.03 17:57:02.
