data_PCOD9538368
_publ_section_title
;
Structure prediction by ZEFSAII (Michael W. Deem and Ramdas Pophale) SiO2 
 PCOD9538368
Probable space group: I M M A
;
_chemical_formula_sum "Si O2"
_cell_formula_units_Z 88
_cell_length_a 31.916488
_cell_length_b 9.798796
_cell_length_c 16.462405
_cell_angle_alpha 90.000000
_cell_angle_beta 90.000000
_cell_angle_gamma 90.000000
_cell_volume 5148.504478
_symmetry_space_group_name_H-M "I M M A"
_symmetry_group_IT_number 74
_symmetry_cell_setting 'orthorhombic'
loop_
_space_group_symop_operation_xyz
x,y,z
-x,1/2-y,z
x,-y,-z
-x,1/2+y,-z
-x,-y,-z
x,1/2+y,-z
-x,y,z
x,1/2-y,z
1/2+x,1/2+y,1/2+z
1/2-x,-y,1/2+z
1/2+x,1/2-y,1/2-z
1/2-x,y,1/2-z
1/2-x,1/2-y,1/2-z
1/2+x,y,1/2-z
1/2-x,1/2+y,1/2+z
1/2+x,-y,1/2+z
loop_
_atom_site_type_symbol
_atom_site_label
_atom_site_fract_x
_atom_site_fract_y
_atom_site_fract_z
Si Si1 0.381528 0.414337 0.753885
Si Si2 0.841047 0.090648 0.578593
Si Si3 0.327583 0.093484 0.370057
Si Si4 0.248377 0.091314 0.847760
Si Si5 0.953404 0.411420 0.858932
Si Si6 0.609043 0.000000 0.500000
O O1 0.374835 0.250000 0.740072
O O2 0.372738 0.440288 0.847830
O O3 0.349550 0.502443 0.699856
O O4 0.427337 0.454081 0.720671
O O5 0.845137 0.250000 0.557745
O O6 0.794430 0.071432 0.615464
O O7 0.847183 0.000000 0.500000
O O8 0.320477 0.250000 0.345583
O O9 0.359310 0.090691 0.446436
O O10 0.284425 0.013920 0.386133
O O11 0.235748 0.250000 0.861602
O O12 0.250000 0.071245 0.750000
O O13 0.958142 0.250000 0.852274
O O14 0.922369 0.435032 0.934488
O O15 0.000000 0.472377 0.868351
#
# Coordination Sequence:
#
# PCOD9538368 Si02
#       6
#    16  16  16  16  16   8
#     4   9  18  36  56  74 103 139 171 211 270 322
#     4  10  21  36  54  76 102 139 178 220 270 318
#     4  11  22  33  50  76 104 140 185 223 257 305
#     4  10  20  37  55  70  98 139 178 219 270 315
#     4   9  17  31  55  81 102 133 179 219 252 311
#     4  10  21  34  46  72 118 152 168 206 271 322
#
# _framework density 17.092341999999999
#
# number of rings (size 3 to 8) (size 9 to 14) (size 15 to 20)
#    0.000    2.182    1.818    1.364    1.273    4.000 
#    0.000    0.000    0.000    5.455    0.000    0.000 
#    0.000    0.000    0.000    0.000    0.000    0.000 
#
# Total GULP energy -245198.012519 kJ/mol
# GULP energy per Si atom -5572.682103 kJ/mol
# Density = 1.705344 g / cm^3
# Si number density = 17.092342 Si / 1000 Ang^3
#
#
#
# Elastic Constant Matrix: (Units=GPa)
#
#
# Indices 1 2 3 4 5 6 
#
# 1 95.2949 35.3896 50.6259 0.0000 0.0000 0.0000
# 2 35.3896 56.2478 46.4681 0.0000 0.0000 0.0000
# 3 50.6259 46.4681 120.2893 0.0000 0.0000 0.0000
# 4 0.0000 0.0000 0.0000 18.2806 0.0000 0.0000
# 5 0.0000 0.0000 0.0000 0.0000 35.1266 0.0000
# 6 0.0000 0.0000 0.0000 0.0000 0.0000 8.6391
#
#
#
# Elastic Compliance Matrix: (Units=1/GPa)
#
#
# Indices 1 2 3 4 5 6 
#
# 1 0.014827 -0.006130 -0.003872 0.000000 0.000000 0.000000
# 2 -0.006130 0.028646 -0.008486 0.000000 0.000000 0.000000
# 3 -0.003872 -0.008486 0.013221 0.000000 0.000000 0.000000
# 4 0.000000 0.000000 0.000000 0.054703 0.000000 0.000000
# 5 0.000000 0.000000 0.000000 0.000000 0.028468 0.000000
# 6 0.000000 0.000000 0.000000 0.000000 0.000000 0.115753
#
#
# Mechanical properties :
#
#
# Convention : Reuss Voigt Hill
#
# Bulk Modulus (GPa) = 50.71567 59.64436 55.18002
# Shear Modulus (GPa) = 16.71303 21.69916 19.20610
#
# Velocity S-wave (km/s) = 3.13039 3.56690 3.35575
# Velocity P-wave (km/s) = 6.54230 7.20659 6.88246
#
# Compressibility (1/GPa) = 0.01971777
#
# Stress axis : x y z
#
# Youngs Moduli (GPa) = 67.44263 34.90901 75.63572
#
# Poissons Ratio (x) = 0.21399 0.29289
# Poissons Ratio (y) = 0.41342 0.64185
# Poissons Ratio (z) = 0.26116 0.29624
#
# Static dielectric constant tensor:
#      x y z
#    x 1.612850 0.000000 0.000000 
#    y 0.000000 1.574750 0.000000 
#    z 0.000000 0.000000 1.582260 
# 
# From -- ./inp_files/47065.got.cif
#   From: 2010.05.17/outbox.cif.g08.bks.cpg/sg74_24_cif.got.tgz:47065.got - 2010.06.03 17:57:02.
