data_PCOD9538586
_publ_section_title
;
Structure prediction by ZEFSAII (Michael W. Deem and Ramdas Pophale) SiO2 
 PCOD9538586
Probable space group: I M M A
;
_chemical_formula_sum "Si O2"
_cell_formula_units_Z 72
_cell_length_a 23.101062
_cell_length_b 8.740679
_cell_length_c 19.433755
_cell_angle_alpha 90.000000
_cell_angle_beta 90.000000
_cell_angle_gamma 90.000000
_cell_volume 3924.043744
_symmetry_space_group_name_H-M "I M M A"
_symmetry_group_IT_number 74
_symmetry_cell_setting 'orthorhombic'
loop_
_space_group_symop_operation_xyz
x,y,z
-x,1/2-y,z
x,-y,-z
-x,1/2+y,-z
-x,-y,-z
x,1/2+y,-z
-x,y,z
x,1/2-y,z
1/2+x,1/2+y,1/2+z
1/2-x,-y,1/2+z
1/2+x,1/2-y,1/2-z
1/2-x,y,1/2-z
1/2-x,1/2-y,1/2-z
1/2+x,y,1/2-z
1/2-x,1/2+y,1/2+z
1/2+x,-y,1/2+z
loop_
_atom_site_type_symbol
_atom_site_label
_atom_site_fract_x
_atom_site_fract_y
_atom_site_fract_z
Si Si1 0.099743 0.931877 0.671722
Si Si2 0.500000 0.432651 0.923551
Si Si3 0.167227 0.934194 0.076158
Si Si4 0.273561 0.934315 0.173602
Si Si5 0.066646 0.933732 0.180251
O O1 0.095034 0.750000 0.666250
O O2 0.055994 0.009183 0.618141
O O3 0.165429 0.986138 0.660483
O O4 0.081701 0.985844 0.748106
O O5 0.500000 0.250000 0.925727
O O6 0.500000 0.500000 0.000000
O O7 0.166535 0.750000 0.072379
O O8 0.224777 0.978258 0.118382
O O9 0.111626 0.981343 0.121403
O O10 0.166324 0.000000 0.000000
O O11 0.281425 0.750000 0.171429
O O12 0.250000 0.971687 0.250000
O O13 0.073151 0.750000 0.190574
O O14 0.000000 0.964018 0.161701
#
# Coordination Sequence:
#
# PCOD9538586 Si02
#       5
#    16   8  16  16  16
#     4  12  24  38  62  97 128 158 204 257 312 369
#     4  12  26  46  68  92 127 166 205 254 312 372
#     4  10  22  39  60  89 123 161 206 255 310 368
#     4  10  20  39  64  87 118 165 216 255 304 370
#     4  10  20  38  64  89 118 165 212 249 300 371
#
# _framework density 18.348419
#
# number of rings (size 3 to 8) (size 9 to 14) (size 15 to 20)
#    0.000    1.333    3.333    3.000    0.000    3.556 
#    0.000    2.222    0.000    0.000    0.000    0.000 
#    0.000    0.000    0.000    0.000    0.000    0.000 
#
# Total GULP energy -201259.047651 kJ/mol
# GULP energy per Si atom -5590.529101 kJ/mol
# Density = 1.830666 g / cm^3
# Si number density = 18.348419 Si / 1000 Ang^3
#
#
#
# Elastic Constant Matrix: (Units=GPa)
#
#
# Indices 1 2 3 4 5 6 
#
# 1 194.8909 81.7762 111.5739 0.0000 0.0000 0.0000
# 2 81.7762 78.9389 68.8921 0.0000 0.0000 0.0000
# 3 111.5739 68.8921 191.5039 0.0000 0.0000 0.0000
# 4 0.0000 0.0000 0.0000 35.7146 0.0000 0.0000
# 5 0.0000 0.0000 0.0000 0.0000 31.8344 0.0000
# 6 0.0000 0.0000 0.0000 0.0000 0.0000 -62.9263
#
#
#
# Elastic Compliance Matrix: (Units=1/GPa)
#
#
# Indices 1 2 3 4 5 6 
#
# 1 0.010217 -0.007856 -0.003127 0.000000 0.000000 0.000000
# 2 -0.007856 0.024505 -0.004239 0.000000 0.000000 0.000000
# 3 -0.003127 -0.004239 0.008568 0.000000 0.000000 0.000000
# 4 0.000000 0.000000 0.000000 0.028000 0.000000 0.000000
# 5 0.000000 0.000000 0.000000 0.000000 0.031413 0.000000
# 6 0.000000 0.000000 0.000000 0.000000 0.000000 -0.015892
#
#
# Mechanical properties :
#
#
# Convention : Reuss Voigt Hill
#
# Bulk Modulus (GPa) = 77.82934 109.97978 93.90456
# Shear Modulus (GPa) = 41.13955 14.46399 27.80177
#
# Velocity S-wave (km/s) = 4.74025 2.81071 3.89680
# Velocity P-wave (km/s) = 8.51290 8.40257 8.45792
#
# Compressibility (1/GPa) = 0.01284862
#
# Stress axis : x y z
#
# Youngs Moduli (GPa) = 97.87148 40.80725 116.70797
#
# Poissons Ratio (x) = 0.32058 0.36492
# Poissons Ratio (y) = 0.76887 0.49469
# Poissons Ratio (z) = 0.30603 0.17297
#
# Static dielectric constant tensor:
#      x y z
#    x 1.622550 0.000000 0.000000 
#    y 0.000000 1.618940 0.000000 
#    z 0.000000 0.000000 1.589910 
# 
# From -- ./inp_files/39477.got.cif
#   From: 2010.05.17/outbox.cif.g08.bks.cpg/sg74_20_cif.got.tgz:39477.got - 2010.06.03 17:57:02.
