data_PCOD9538771
_publ_section_title
;
Structure prediction by ZEFSAII (Michael W. Deem and Ramdas Pophale) SiO2 
 PCOD9538771
Probable space group: I M M A
;
_chemical_formula_sum "Si O2"
_cell_formula_units_Z 116
_cell_length_a 25.896289
_cell_length_b 7.921312
_cell_length_c 29.243871
_cell_angle_alpha 90.000000
_cell_angle_beta 90.000000
_cell_angle_gamma 90.000000
_cell_volume 5998.870848
_symmetry_space_group_name_H-M "I M M A"
_symmetry_group_IT_number 74
_symmetry_cell_setting 'orthorhombic'
loop_
_space_group_symop_operation_xyz
x,y,z
-x,1/2-y,z
x,-y,-z
-x,1/2+y,-z
-x,-y,-z
x,1/2+y,-z
-x,y,z
x,1/2-y,z
1/2+x,1/2+y,1/2+z
1/2-x,-y,1/2+z
1/2+x,1/2-y,1/2-z
1/2-x,y,1/2-z
1/2-x,1/2-y,1/2-z
1/2+x,y,1/2-z
1/2-x,1/2+y,1/2+z
1/2+x,-y,1/2+z
loop_
_atom_site_type_symbol
_atom_site_label
_atom_site_fract_x
_atom_site_fract_y
_atom_site_fract_z
Si Si1 0.555136 0.945435 0.816196
Si Si2 0.500000 0.750000 0.225543
Si Si3 0.664412 0.544595 0.274009
Si Si4 0.169046 0.446558 0.330948
Si Si5 0.556756 0.954693 0.577852
Si Si6 0.333829 0.052581 0.451798
Si Si7 0.556738 0.045744 0.684664
Si Si8 0.274305 0.055948 0.637999
O O1 0.500000 0.948991 0.842963
O O2 0.559909 0.750000 0.799007
O O3 0.608843 0.984492 0.840858
O O4 0.544269 0.098899 0.781235
O O5 0.665564 0.750000 0.272055
O O6 0.675597 0.481840 0.223225
O O7 0.608112 0.484455 0.290776
O O8 0.703216 0.486425 0.314007
O O9 0.177673 0.250000 0.339664
O O10 0.212790 0.542309 0.358842
O O11 0.500000 0.014071 0.561543
O O12 0.556247 0.750000 0.576007
O O13 0.608305 0.023277 0.553834
O O14 0.561924 0.006838 0.630943
O O15 0.341501 0.250000 0.454403
O O16 0.309976 0.000000 0.500000
O O17 0.299735 0.019598 0.407112
O O18 0.500000 0.977318 0.697902
O O19 0.553415 0.250000 0.690462
O O20 0.290492 0.250000 0.637094
#
# Coordination Sequence:
#
# PCOD9538771 Si02
#       8
#    16   4  16  16  16  16  16  16
#     4   8  17  31  48  77 107 137 184 227 264 323
#     4   8  14  28  56  70 102 152 168 224 278 318
#     4  10  21  34  50  75 106 141 187 231 274 330
#     4  11  23  36  53  78 110 146 186 230 273 325
#     4   9  18  33  54  78 105 137 177 225 282 342
#     4  11  23  39  60  82 108 140 179 229 289 345
#     4   9  17  31  50  74 103 140 182 228 276 327
#     4  11  23  39  57  78 106 139 183 230 275 335
#
# _framework density 19.336974000000001
#
# number of rings (size 3 to 8) (size 9 to 14) (size 15 to 20)
#    0.414    1.793    1.379    1.655    1.931    4.690 
#    0.000    0.000    0.000    0.000    0.000    0.000 
#    0.000    0.552    0.000    3.034    0.000    5.655 
#
# Total GULP energy -322885.076765 kJ/mol
# GULP energy per Si atom -5566.984082 kJ/mol
# Density = 1.929296 g / cm^3
# Si number density = 19.336974 Si / 1000 Ang^3
#
#
#
# Elastic Constant Matrix: (Units=GPa)
#
#
# Indices 1 2 3 4 5 6 
#
# 1 116.7420 8.2951 32.6002 0.0000 0.0000 0.0000
# 2 8.2951 37.8775 -2.0103 0.0000 0.0000 0.0000
# 3 32.6002 -2.0103 47.1713 0.0000 0.0000 0.0000
# 4 0.0000 0.0000 0.0000 19.1701 0.0000 0.0000
# 5 0.0000 0.0000 0.0000 0.0000 11.2309 0.0000
# 6 0.0000 0.0000 0.0000 0.0000 0.0000 -128.8454
#
#
#
# Elastic Compliance Matrix: (Units=1/GPa)
#
#
# Indices 1 2 3 4 5 6 
#
# 1 0.010902 -0.002794 -0.007653 0.000000 0.000000 0.000000
# 2 -0.002794 0.027177 0.003089 0.000000 0.000000 0.000000
# 3 -0.007653 0.003089 0.026620 0.000000 0.000000 0.000000
# 4 0.000000 0.000000 0.000000 0.052164 0.000000 0.000000
# 5 0.000000 0.000000 0.000000 0.000000 0.089040 0.000000
# 6 0.000000 0.000000 0.000000 0.000000 0.000000 -0.007761
#
#
# Mechanical properties :
#
#
# Convention : Reuss Voigt Hill
#
# Bulk Modulus (GPa) = 20.00700 31.06232 25.53466
# Shear Modulus (GPa) = 21.78474 -8.82849 6.47812
#
# Velocity S-wave (km/s) = 3.36010 -2.13905 1.83232
# Velocity P-wave (km/s) = 5.04209 3.16194 4.20836
#
# Compressibility (1/GPa) = 0.04998250
#
# Stress axis : x y z
#
# Youngs Moduli (GPa) = 91.73014 36.79631 37.56558
#
# Poissons Ratio (x) = 0.10279 0.28750
# Poissons Ratio (y) = 0.25626 -0.11603
# Poissons Ratio (z) = 0.70202 -0.11366
#
# Static dielectric constant tensor:
#      x y z
#    x 1.808960 0.000000 0.000000 
#    y 0.000000 1.698940 0.000000 
#    z 0.000000 0.000000 1.690210 
# 
# From -- ./inp_files/68767.got.cif
#   From: 2010.05.17/outbox.cif.g08.bks.cpg/sg74_35_cif.got.tgz:68767.got - 2010.06.03 17:57:02.
