data_PCOD9538486
_publ_section_title
;
Structure prediction by ZEFSAII (Michael W. Deem and Ramdas Pophale) SiO2 
 PCOD9538486
Probable space group: I M M A
;
_chemical_formula_sum "Si O2"
_cell_formula_units_Z 96
_cell_length_a 28.095222
_cell_length_b 18.344822
_cell_length_c 8.559072
_cell_angle_alpha 90.000000
_cell_angle_beta 90.000000
_cell_angle_gamma 90.000000
_cell_volume 4411.361514
_symmetry_space_group_name_H-M "I M M A"
_symmetry_group_IT_number 74
_symmetry_cell_setting 'orthorhombic'
loop_
_space_group_symop_operation_xyz
x,y,z
-x,1/2-y,z
x,-y,-z
-x,1/2+y,-z
-x,-y,-z
x,1/2+y,-z
-x,y,z
x,1/2-y,z
1/2+x,1/2+y,1/2+z
1/2-x,-y,1/2+z
1/2+x,1/2-y,1/2-z
1/2-x,y,1/2-z
1/2-x,1/2-y,1/2-z
1/2+x,y,1/2-z
1/2-x,1/2+y,1/2+z
1/2+x,-y,1/2+z
loop_
_atom_site_type_symbol
_atom_site_label
_atom_site_fract_x
_atom_site_fract_y
_atom_site_fract_z
Si Si1 0.606012 0.164543 0.394482
Si Si2 0.301082 0.163015 0.205501
Si Si3 0.946757 0.062800 0.873879
Si Si4 0.698284 0.833596 0.171341
Si Si5 0.053648 0.664335 0.575713
Si Si6 0.622491 0.561268 0.117335
O O1 0.613177 0.250000 0.429258
O O2 0.654653 0.135627 0.310415
O O3 0.585153 0.124721 0.544861
O O4 0.566568 0.158752 0.257996
O O5 0.300370 0.250000 0.238450
O O6 0.250000 0.130793 0.250000
O O7 0.303225 0.158245 0.017643
O O8 0.917924 0.029522 0.729606
O O9 0.000000 0.088542 0.832088
O O10 0.950928 0.000000 0.000000
O O11 0.683018 0.750000 0.207244
O O12 0.750000 0.842180 0.250000
O O13 0.662737 0.897980 0.217412
O O14 0.056568 0.750000 0.535002
O O15 0.093228 0.621606 0.479777
O O16 0.000000 0.638270 0.547208
O O17 0.641497 0.500000 0.000000
#
# Coordination Sequence:
#
# PCOD9538486 Si02
#       6
#    16  16  16  16  16  16
#     4  10  20  37  63  95 130 163 207 266 324 387
#     4   9  18  34  61  95 124 159 202 250 313 383
#     4  11  26  44  61  87 124 171 222 267 321 391
#     4  10  22  42  68  98 129 164 213 268 324 388
#     4  10  20  37  64  95 127 166 213 266 323 387
#     4  12  25  42  65  93 128 172 217 272 335 399
#
# _framework density 21.761990000000001
#
# number of rings (size 3 to 8) (size 9 to 14) (size 15 to 20)
#    0.000    1.667    1.667    2.500    2.333    5.000 
#    0.000    1.667    0.000    0.000    0.000    0.000 
#    0.000    0.000    0.000    0.000    0.000    0.000 
#
# Total GULP energy -267975.037578 kJ/mol
# GULP energy per Si atom -5582.813283 kJ/mol
# Density = 2.171246 g / cm^3
# Si number density = 21.761990 Si / 1000 Ang^3
#
#
#
# Elastic Constant Matrix: (Units=GPa)
#
#
# Indices 1 2 3 4 5 6 
#
# 1 141.3471 45.2207 24.7395 0.0000 0.0000 0.0000
# 2 45.2207 56.2453 12.4272 0.0000 0.0000 0.0000
# 3 24.7395 12.4272 33.7118 0.0000 0.0000 0.0000
# 4 0.0000 0.0000 0.0000 28.6363 0.0000 0.0000
# 5 0.0000 0.0000 0.0000 0.0000 20.1945 0.0000
# 6 0.0000 0.0000 0.0000 0.0000 0.0000 19.6611
#
#
#
# Elastic Compliance Matrix: (Units=1/GPa)
#
#
# Indices 1 2 3 4 5 6 
#
# 1 0.010208 -0.007133 -0.004862 0.000000 0.000000 0.000000
# 2 -0.007133 0.024340 -0.003738 0.000000 0.000000 0.000000
# 3 -0.004862 -0.003738 0.034609 0.000000 0.000000 0.000000
# 4 0.000000 0.000000 0.000000 0.034921 0.000000 0.000000
# 5 0.000000 0.000000 0.000000 0.000000 0.049518 0.000000
# 6 0.000000 0.000000 0.000000 0.000000 0.000000 0.050862
#
#
# Mechanical properties :
#
#
# Convention : Reuss Voigt Hill
#
# Bulk Modulus (GPa) = 26.53111 44.00878 35.26994
# Shear Modulus (GPa) = 20.12187 23.62616 21.87402
#
# Velocity S-wave (km/s) = 3.04408 3.29851 3.17385
# Velocity P-wave (km/s) = 4.95713 5.89691 5.44733
#
# Compressibility (1/GPa) = 0.03769160
#
# Stress axis : x y z
#
# Youngs Moduli (GPa) = 97.96605 41.08500 28.89435
#
# Poissons Ratio (x) = 0.29305 0.14047
# Poissons Ratio (y) = 0.69876 0.10801
# Poissons Ratio (z) = 0.47627 0.15358
#
# Static dielectric constant tensor:
#      x y z
#    x 1.855910 0.000000 0.000000 
#    y 0.000000 1.528930 0.000000 
#    z 0.000000 0.000000 1.822400 
# 
# From -- ./inp_files/15138.got.cif
#   From: 2010.05.17/outbox.cif.g08.bks.cpg/sg74_8_cif.got.tgz:15138.got - 2010.06.03 17:57:02.
