data_PCOD9538939
_publ_section_title
;
Structure prediction by ZEFSAII (Michael W. Deem and Ramdas Pophale) SiO2 
 PCOD9538939
Probable space group: I M M A
;
_chemical_formula_sum "Si O2"
_cell_formula_units_Z 56
_cell_length_a 15.125063
_cell_length_b 10.526370
_cell_length_c 17.558286
_cell_angle_alpha 90.000000
_cell_angle_beta 90.000000
_cell_angle_gamma 90.000000
_cell_volume 2795.489996
_symmetry_space_group_name_H-M "I M M A"
_symmetry_group_IT_number 74
_symmetry_cell_setting 'orthorhombic'
loop_
_space_group_symop_operation_xyz
x,y,z
-x,1/2-y,z
x,-y,-z
-x,1/2+y,-z
-x,-y,-z
x,1/2+y,-z
-x,y,z
x,1/2-y,z
1/2+x,1/2+y,1/2+z
1/2-x,-y,1/2+z
1/2+x,1/2-y,1/2-z
1/2-x,y,1/2-z
1/2-x,1/2-y,1/2-z
1/2+x,y,1/2-z
1/2-x,1/2+y,1/2+z
1/2+x,-y,1/2+z
loop_
_atom_site_type_symbol
_atom_site_label
_atom_site_fract_x
_atom_site_fract_y
_atom_site_fract_z
Si Si1 0.184664 0.000000 0.500000
Si Si2 0.106671 0.606617 0.232645
Si Si3 0.106170 0.107467 0.348296
Si Si4 0.857754 0.607250 0.056347
O O1 0.129669 0.934727 0.566365
O O2 0.253089 0.901408 0.461365
O O3 0.138747 0.750000 0.250019
O O4 0.140583 0.498653 0.289543
O O5 0.126812 0.577337 0.144619
O O6 0.000000 0.609512 0.239811
O O7 0.140252 0.250000 0.333442
O O8 0.000000 0.110931 0.340943
O O9 0.890064 0.750000 0.041722
O O10 0.895967 0.500000 0.000000
#
# Coordination Sequence:
#
# PCOD9538939 Si02
#       4
#     8  16  16  16
#     4  10  21  36  55  78 110 144 174 224 263 324
#     4   9  19  37  58  81 109 142 181 222 267 318
#     4  10  21  37  58  82 107 140 182 225 269 317
#     4   9  20  36  55  80 110 144 180 219 268 320
#
# _framework density 20.032267000000001
#
# number of rings (size 3 to 8) (size 9 to 14) (size 15 to 20)
#    0.857    1.714    0.000    1.286    0.000    5.143 
#    0.000    7.143    0.000    0.000    0.000    0.000 
#    0.000    0.000    0.000    0.000    0.000    0.000 
#
# Total GULP energy -156077.345536 kJ/mol
# GULP energy per Si atom -5574.190912 kJ/mol
# Density = 1.998667 g / cm^3
# Si number density = 20.032267 Si / 1000 Ang^3
#
#
#
# Elastic Constant Matrix: (Units=GPa)
#
#
# Indices 1 2 3 4 5 6 
#
# 1 20.1501 16.3911 5.6056 0.0000 0.0000 0.0000
# 2 16.3911 180.6646 127.3214 0.0000 0.0000 0.0000
# 3 5.6056 127.3214 135.7018 0.0000 0.0000 0.0000
# 4 0.0000 0.0000 0.0000 17.7990 0.0000 0.0000
# 5 0.0000 0.0000 0.0000 0.0000 28.5926 0.0000
# 6 0.0000 0.0000 0.0000 0.0000 0.0000 -10.2742
#
#
#
# Elastic Compliance Matrix: (Units=1/GPa)
#
#
# Indices 1 2 3 4 5 6 
#
# 1 0.055885 -0.010164 0.007228 0.000000 0.000000 0.000000
# 2 -0.010164 0.018187 -0.016644 0.000000 0.000000 0.000000
# 3 0.007228 -0.016644 0.022686 0.000000 0.000000 0.000000
# 4 0.000000 0.000000 0.000000 0.056183 0.000000 0.000000
# 5 0.000000 0.000000 0.000000 0.000000 0.034974 0.000000
# 6 0.000000 0.000000 0.000000 0.000000 0.000000 -0.097331
#
#
# Mechanical properties :
#
#
# Convention : Reuss Voigt Hill
#
# Bulk Modulus (GPa) = 17.36170 70.57252 43.96711
# Shear Modulus (GPa) = 33.56984 19.70336 26.63660
#
# Velocity S-wave (km/s) = 4.09808 3.13961 3.65044
# Velocity P-wave (km/s) = 5.57477 6.96052 6.30582
#
# Compressibility (1/GPa) = 0.05759806
#
# Stress axis : x y z
#
# Youngs Moduli (GPa) = 17.89396 54.98507 44.07921
#
# Poissons Ratio (x) = 0.55886 -0.31859
# Poissons Ratio (y) = 0.18187 0.73364
# Poissons Ratio (z) = -0.12933 0.91516
#
# Static dielectric constant tensor:
#      x y z
#    x 1.722530 0.000000 0.000000 
#    y 0.000000 1.726820 0.000000 
#    z 0.000000 0.000000 1.652500 
# 
# From -- ./inp_files/33517.got.cif
#   From: 2010.05.17/outbox.cif.g08.bks.cpg/sg74_17_cif.got.tgz:33517.got - 2010.06.03 17:57:02.
