data_PCOD9538830
_publ_section_title
;
Structure prediction by ZEFSAII (Michael W. Deem and Ramdas Pophale) SiO2 
 PCOD9538830
Probable space group: I M M A
;
_chemical_formula_sum "Si O2"
_cell_formula_units_Z 88
_cell_length_a 14.414537
_cell_length_b 25.501516
_cell_length_c 13.546437
_cell_angle_alpha 90.000000
_cell_angle_beta 90.000000
_cell_angle_gamma 90.000000
_cell_volume 4979.569265
_symmetry_space_group_name_H-M "I M M A"
_symmetry_group_IT_number 74
_symmetry_cell_setting 'orthorhombic'
loop_
_space_group_symop_operation_xyz
x,y,z
-x,1/2-y,z
x,-y,-z
-x,1/2+y,-z
-x,-y,-z
x,1/2+y,-z
-x,y,z
x,1/2-y,z
1/2+x,1/2+y,1/2+z
1/2-x,-y,1/2+z
1/2+x,1/2-y,1/2-z
1/2-x,y,1/2-z
1/2-x,1/2-y,1/2-z
1/2+x,y,1/2-z
1/2-x,1/2+y,1/2+z
1/2+x,-y,1/2+z
loop_
_atom_site_type_symbol
_atom_site_label
_atom_site_fract_x
_atom_site_fract_y
_atom_site_fract_z
Si Si1 0.000000 0.023708 0.885575
Si Si2 0.500000 0.916878 0.732743
Si Si3 0.000000 0.939915 0.537040
Si Si4 0.891042 0.811988 0.031142
Si Si5 0.675834 0.400872 0.660016
Si Si6 0.190486 0.367105 0.160354
Si Si7 0.702237 0.437730 0.018723
O O1 0.089239 0.058304 0.850661
O O2 0.000000 0.970382 0.826556
O O3 0.000000 0.000000 0.000000
O O4 0.500000 0.934102 0.845861
O O5 0.592401 0.885680 0.703810
O O6 0.902057 0.916742 0.505429
O O7 0.000000 0.000000 0.500000
O O8 0.880041 0.750000 0.043074
O O9 0.863015 0.843563 0.130283
O O10 0.000000 0.823967 0.011750
O O11 0.833221 0.831621 0.935161
O O12 0.750000 0.403477 0.750000
O O13 0.736359 0.415367 0.566514
O O14 0.250000 0.342866 0.250000
O O15 0.250531 0.416996 0.119347
O O16 0.701229 0.500000 0.000000
#
# Coordination Sequence:
#
# PCOD9538830 Si02
#       7
#     8   8   8  16  16  16  16
#     4  12  24  40  58  87 129 163 202 241 279 336
#     4  12  22  34  56  83 119 161 195 235 279 337
#     4  10  22  34  48  78 115 166 194 228 274 337
#     4  10  21  42  65  84 111 147 192 251 313 363
#     4  11  24  38  60  89 112 155 200 243 290 347
#     4  11  21  36  58  88 114 151 199 242 295 353
#     4  10  21  35  52  79 120 157 193 232 277 340
#
# _framework density 17.672211999999998
#
# number of rings (size 3 to 8) (size 9 to 14) (size 15 to 20)
#    0.000    1.273    3.636    3.818    5.091    2.182 
#    0.000    0.000    0.000    0.000    0.000    3.818 
#    0.000    0.000    0.000    0.000    0.000    0.000 
#
# Total GULP energy -244935.330651 kJ/mol
# GULP energy per Si atom -5566.712060 kJ/mol
# Density = 1.763199 g / cm^3
# Si number density = 17.672212 Si / 1000 Ang^3
#
#
#
# Elastic Constant Matrix: (Units=GPa)
#
#
# Indices 1 2 3 4 5 6 
#
# 1 139.0014 22.2881 22.8636 0.0000 0.0000 0.0000
# 2 22.2881 55.8781 12.3142 0.0000 0.0000 0.0000
# 3 22.8636 12.3142 46.0530 0.0001 0.0000 0.0000
# 4 0.0000 0.0000 0.0001 16.7550 0.0000 0.0000
# 5 0.0000 0.0000 0.0000 0.0000 29.7609 0.0000
# 6 0.0000 0.0000 0.0000 0.0000 0.0000 21.8190
#
#
#
# Elastic Compliance Matrix: (Units=1/GPa)
#
#
# Indices 1 2 3 4 5 6 
#
# 1 0.008152 -0.002507 -0.003377 0.000000 0.000000 0.000000
# 2 -0.002507 0.019788 -0.004046 0.000000 0.000000 0.000000
# 3 -0.003377 -0.004046 0.024472 0.000000 0.000000 0.000000
# 4 0.000000 0.000000 0.000000 0.059684 0.000000 0.000000
# 5 0.000000 0.000000 0.000000 0.000000 0.033601 0.000000
# 6 0.000000 0.000000 0.000000 0.000000 0.000000 0.045832
#
#
# Mechanical properties :
#
#
# Convention : Reuss Voigt Hill
#
# Bulk Modulus (GPa) = 30.72054 39.54049 35.13051
# Shear Modulus (GPa) = 22.49829 25.89810 24.19820
#
# Velocity S-wave (km/s) = 3.57191 3.83230 3.70439
# Velocity P-wave (km/s) = 5.86793 6.48112 6.18214
#
# Compressibility (1/GPa) = 0.03255151
#
# Stress axis : x y z
#
# Youngs Moduli (GPa) = 122.67546 50.53593 40.86241
#
# Poissons Ratio (x) = 0.12671 0.13797
# Poissons Ratio (y) = 0.30759 0.16534
# Poissons Ratio (z) = 0.41422 0.20449
#
# Static dielectric constant tensor:
#      x y z
#    x 1.781590 0.000000 0.000000 
#    y 0.000000 1.639090 0.000000 
#    z 0.000000 0.000000 1.654030 
# 
# From -- ./inp_files/20925.got.cif
#   From: 2010.05.17/outbox.cif.g08.bks.cpg/sg74_11_cif.got.tgz:20925.got - 2010.06.03 17:57:02.
