data_PCOD9538975
_publ_section_title
;
Structure prediction by ZEFSAII (Michael W. Deem and Ramdas Pophale) SiO2 
 PCOD9538975
Probable space group: I M M A
;
_chemical_formula_sum "Si O2"
_cell_formula_units_Z 96
_cell_length_a 14.463996
_cell_length_b 31.463225
_cell_length_c 11.850859
_cell_angle_alpha 90.000000
_cell_angle_beta 90.000000
_cell_angle_gamma 90.000000
_cell_volume 5393.135850
_symmetry_space_group_name_H-M "I M M A"
_symmetry_group_IT_number 74
_symmetry_cell_setting 'orthorhombic'
loop_
_space_group_symop_operation_xyz
x,y,z
-x,1/2-y,z
x,-y,-z
-x,1/2+y,-z
-x,-y,-z
x,1/2+y,-z
-x,y,z
x,1/2-y,z
1/2+x,1/2+y,1/2+z
1/2-x,-y,1/2+z
1/2+x,1/2-y,1/2-z
1/2-x,y,1/2-z
1/2-x,1/2-y,1/2-z
1/2+x,y,1/2-z
1/2-x,1/2+y,1/2+z
1/2+x,-y,1/2+z
loop_
_atom_site_type_symbol
_atom_site_label
_atom_site_fract_x
_atom_site_fract_y
_atom_site_fract_z
Si Si1 0.728708 0.955659 0.938206
Si Si2 0.891585 0.750000 0.898123
Si Si3 0.888323 0.750000 0.153771
Si Si4 0.166742 0.158381 0.163550
Si Si5 0.759937 0.872465 0.073776
Si Si6 0.394860 0.933489 0.723434
Si Si7 0.111158 0.340632 0.738293
O O1 0.651481 0.942904 0.845129
O O2 0.825384 0.954208 0.868226
O O3 0.735432 0.919442 0.032916
O O4 0.712223 0.000000 0.000000
O O5 0.869987 0.706294 0.834168
O O6 0.000000 0.750000 0.915735
O O7 0.850253 0.750000 0.025738
O O8 0.865117 0.792998 0.219614
O O9 0.000000 0.750000 0.147697
O O10 0.250000 0.155296 0.250000
O O11 0.105968 0.117254 0.196190
O O12 0.202529 0.150952 0.036897
O O13 0.841442 0.870389 0.166605
O O14 0.668638 0.850894 0.126015
O O15 0.500000 0.948888 0.717741
O O16 0.000000 0.345276 0.730126
#
# Coordination Sequence:
#
# PCOD9538975 Si02
#       7
#    16   8   8  16  16  16  16
#     4  10  22  42  61  85 119 150 191 250 306 361
#     4  11  21  32  57  89 118 156 209 253 282 340
#     4   9  18  33  52  80 115 153 191 234 283 330
#     4  11  20  39  57  86 120 160 201 244 295 352
#     4  10  21  37  59  84 111 155 197 236 303 351
#     4  10  21  39  63  87 118 157 195 240 303 362
#     4  10  21  36  56  84 119 153 195 242 288 349
#
# _framework density 17.800404
#
# number of rings (size 3 to 8) (size 9 to 14) (size 15 to 20)
#    0.000    1.833    5.000    0.750    0.000    8.667 
#    0.000    1.667    0.000    1.000    0.000    0.000 
#    0.000    0.000    0.000    0.000    0.000    0.000 
#
# Total GULP energy -267510.153325 kJ/mol
# GULP energy per Si atom -5573.128194 kJ/mol
# Density = 1.775989 g / cm^3
# Si number density = 17.800404 Si / 1000 Ang^3
#
#
#
# Elastic Constant Matrix: (Units=GPa)
#
#
# Indices 1 2 3 4 5 6 
#
# 1 113.1360 7.4846 33.1068 0.0000 -0.0001 0.0000
# 2 7.4846 74.5406 30.5912 0.0001 -0.0001 -0.0001
# 3 33.1068 30.5912 57.5222 0.0009 0.0002 -0.0002
# 4 0.0000 0.0001 0.0009 37.4971 0.0000 0.0000
# 5 -0.0001 -0.0001 0.0002 0.0000 3.7200 0.0000
# 6 0.0000 -0.0001 -0.0002 0.0000 0.0000 8.7837
#
#
#
# Elastic Compliance Matrix: (Units=1/GPa)
#
#
# Indices 1 2 3 4 5 6 
#
# 1 0.010832 0.001882 -0.007235 0.000000 0.000001 0.000000
# 2 0.001882 0.017488 -0.010383 0.000000 0.000001 0.000000
# 3 -0.007235 -0.010383 0.027070 -0.000001 -0.000002 0.000000
# 4 0.000000 0.000000 -0.000001 0.026669 0.000000 0.000000
# 5 0.000001 0.000001 -0.000002 0.000000 0.268818 -0.000001
# 6 0.000000 0.000000 0.000000 0.000000 -0.000001 0.113848
#
#
# Mechanical properties :
#
#
# Convention : Reuss Voigt Hill
#
# Bulk Modulus (GPa) = 41.81119 43.06267 42.43693
# Shear Modulus (GPa) = 9.91729 21.60123 15.75926
#
# Velocity S-wave (km/s) = 2.36294 3.48735 2.97868
# Velocity P-wave (km/s) = 5.56638 6.36081 5.97681
#
# Compressibility (1/GPa) = 0.02391704
#
# Stress axis : x y z
#
# Youngs Moduli (GPa) = 92.32312 57.18268 36.94062
#
# Poissons Ratio (x) = -0.10759 0.26725
# Poissons Ratio (y) = -0.17371 0.38356
# Poissons Ratio (z) = 0.66793 0.59374
#
# Static dielectric constant tensor:
#      x y z
#    x 1.602920 0.000000 0.000000 
#    y 0.000000 1.566450 0.000000 
#    z 0.000000 0.000000 1.670420 
# 
# From -- ./inp_files/21075.got.cif
#   From: 2010.05.17/outbox.cif.g08.bks.cpg/sg74_11_cif.got.tgz:21075.got - 2010.06.03 17:57:02.
