data_PCOD9538591
_publ_section_title
;
Structure prediction by ZEFSAII (Michael W. Deem and Ramdas Pophale) SiO2 
 PCOD9538591
Probable space group: I M M A
;
_chemical_formula_sum "Si O2"
_cell_formula_units_Z 100
_cell_length_a 17.046758
_cell_length_b 14.464096
_cell_length_c 21.415509
_cell_angle_alpha 90.000000
_cell_angle_beta 90.000000
_cell_angle_gamma 90.000000
_cell_volume 5280.335197
_symmetry_space_group_name_H-M "I M M A"
_symmetry_group_IT_number 74
_symmetry_cell_setting 'orthorhombic'
loop_
_space_group_symop_operation_xyz
x,y,z
-x,1/2-y,z
x,-y,-z
-x,1/2+y,-z
-x,-y,-z
x,1/2+y,-z
-x,y,z
x,1/2-y,z
1/2+x,1/2+y,1/2+z
1/2-x,-y,1/2+z
1/2+x,1/2-y,1/2-z
1/2-x,y,1/2-z
1/2-x,1/2-y,1/2-z
1/2+x,y,1/2-z
1/2-x,1/2+y,1/2+z
1/2+x,-y,1/2+z
loop_
_atom_site_type_symbol
_atom_site_label
_atom_site_fract_x
_atom_site_fract_y
_atom_site_fract_z
Si Si1 0.000000 0.750000 0.037037
Si Si2 0.613545 0.075220 0.553461
Si Si3 0.411954 0.060842 0.337671
Si Si4 0.328143 0.507434 0.215650
Si Si5 0.249315 0.858051 0.625057
Si Si6 0.591622 0.139258 0.883641
Si Si7 0.719830 0.639278 0.018358
O O1 0.067731 0.668472 0.039043
O O2 0.706309 0.094066 0.552622
O O3 0.596139 0.000000 0.500000
O O4 0.590131 0.030320 0.619053
O O5 0.500000 0.100147 0.340085
O O6 0.386360 0.032050 0.268253
O O7 0.342457 0.124603 0.365184
O O8 0.250000 0.545294 0.250000
O O9 0.296241 0.423395 0.173079
O O10 0.369601 0.583134 0.172876
O O11 0.232281 0.750000 0.635316
O O12 0.225212 0.884151 0.554648
O O13 0.500000 0.116946 0.889259
O O14 0.598790 0.250000 0.873734
O O15 0.640115 0.115194 0.946137
O O16 0.728880 0.750000 0.021913
#
# Coordination Sequence:
#
# PCOD9538591 Si02
#       7
#     4  16  16  16  16  16  16
#     4  12  26  40  60 102 132 174 210 258 312 376
#     4  12  23  41  63  90 134 171 208 260 313 375
#     4  11  23  38  58  89 125 162 203 257 308 373
#     4  10  22  40  62  87 124 162 211 255 313 380
#     4  10  22  41  64  88 119 162 208 261 318 381
#     4  10  22  41  64  93 126 161 208 265 316 374
#     4  10  20  38  64  92 121 161 208 254 316 378
#
# _framework density 18.938192000000001
#
# number of rings (size 3 to 8) (size 9 to 14) (size 15 to 20)
#    0.000    1.440    3.200    2.640    0.000    3.520 
#    1.440    2.400    0.000    3.360    0.000    0.000 
#    0.000    0.000    0.000    0.000    0.000    0.000 
#
# Total GULP energy -278871.424620 kJ/mol
# GULP energy per Si atom -5577.428492 kJ/mol
# Density = 1.889509 g / cm^3
# Si number density = 18.938192 Si / 1000 Ang^3
#
#
#
# Elastic Constant Matrix: (Units=GPa)
#
#
# Indices 1 2 3 4 5 6 
#
# 1 161.1335 60.0679 78.9034 0.0000 0.0000 0.0000
# 2 60.0679 87.7505 32.4157 0.0000 0.0000 0.0000
# 3 78.9034 32.4157 119.7286 0.0000 0.0000 0.0000
# 4 0.0000 0.0000 0.0000 20.6096 0.0000 0.0000
# 5 0.0000 0.0000 0.0000 0.0000 3.8545 0.0000
# 6 0.0000 0.0000 0.0000 0.0000 0.0000 8.6080
#
#
#
# Elastic Compliance Matrix: (Units=1/GPa)
#
#
# Indices 1 2 3 4 5 6 
#
# 1 0.011091 -0.005436 -0.005837 0.000000 0.000000 0.000000
# 2 -0.005436 0.015326 -0.000567 0.000000 0.000000 0.000000
# 3 -0.005837 -0.000567 0.012353 0.000000 0.000000 0.000000
# 4 0.000000 0.000000 0.000000 0.048521 0.000000 0.000000
# 5 0.000000 0.000000 0.000000 0.000000 0.259439 0.000000
# 6 0.000000 0.000000 0.000000 0.000000 0.000000 0.116171
#
#
# Mechanical properties :
#
#
# Convention : Reuss Voigt Hill
#
# Bulk Modulus (GPa) = 66.27233 79.04297 72.65765
# Shear Modulus (GPa) = 10.17065 19.76280 14.96673
#
# Velocity S-wave (km/s) = 2.31994 3.23389 2.81427
# Velocity P-wave (km/s) = 6.49970 7.46807 7.00065
#
# Compressibility (1/GPa) = 0.01508925
#
# Stress axis : x y z
#
# Youngs Moduli (GPa) = 90.16519 65.24712 80.95351
#
# Poissons Ratio (x) = 0.35466 0.47256
# Poissons Ratio (y) = 0.49010 0.04593
# Poissons Ratio (z) = 0.52633 0.03702
#
# Static dielectric constant tensor:
#      x y z
#    x 1.661140 0.000000 0.000000 
#    y 0.000000 1.639970 0.000000 
#    z 0.000000 0.000000 1.659500 
# 
# From -- ./inp_files/53061.got.cif
#   From: 2010.05.17/outbox.cif.g08.bks.cpg/sg74_27_cif.got.tgz:53061.got - 2010.06.03 17:57:02.
