data_PCOD9538246
_publ_section_title
;
Structure prediction by ZEFSAII (Michael W. Deem and Ramdas Pophale) SiO2 
 PCOD9538246
Probable space group: I M M A
;
_chemical_formula_sum "Si O2"
_cell_formula_units_Z 64
_cell_length_a 27.967510
_cell_length_b 9.861808
_cell_length_c 12.753398
_cell_angle_alpha 90.000000
_cell_angle_beta 90.000000
_cell_angle_gamma 90.000000
_cell_volume 3517.517430
_symmetry_space_group_name_H-M "I M M A"
_symmetry_group_IT_number 74
_symmetry_cell_setting 'orthorhombic'
loop_
_space_group_symop_operation_xyz
x,y,z
-x,1/2-y,z
x,-y,-z
-x,1/2+y,-z
-x,-y,-z
x,1/2+y,-z
-x,y,z
x,1/2-y,z
1/2+x,1/2+y,1/2+z
1/2-x,-y,1/2+z
1/2+x,1/2-y,1/2-z
1/2-x,y,1/2-z
1/2-x,1/2-y,1/2-z
1/2+x,y,1/2-z
1/2-x,1/2+y,1/2+z
1/2+x,-y,1/2+z
loop_
_atom_site_type_symbol
_atom_site_label
_atom_site_fract_x
_atom_site_fract_y
_atom_site_fract_z
Si Si1 0.000000 0.091388 0.394983
Si Si2 0.167667 0.405834 0.101827
Si Si3 0.250000 0.989739 0.250000
Si Si4 0.602533 0.090256 0.202754
Si Si5 0.676658 0.902586 0.087821
O O1 0.047092 0.069776 0.324005
O O2 0.000000 0.250000 0.427429
O O3 0.000000 0.000000 0.500000
O O4 0.165135 0.250000 0.068149
O O5 0.214847 0.425762 0.174163
O O6 0.122789 0.434679 0.180023
O O7 0.168720 0.500000 0.000000
O O8 0.285304 0.901362 0.180456
O O9 0.613859 0.250000 0.181242
O O10 0.631197 0.986788 0.128778
O O11 0.665701 0.750000 0.053334
O O12 0.698379 0.000000 0.000000
#
# Coordination Sequence:
#
# PCOD9538246 Si02
#       5
#     8  16   8  16  16
#     4  10  20  36  59  84 110 140 177 222 273 324
#     4  10  21  37  57  80 109 145 184 225 271 321
#     4  10  22  36  54  76 104 142 184 224 264 314
#     4   9  20  38  57  79 108 142 178 219 268 323
#     4  11  22  35  52  76 106 139 175 217 265 318
#
# _framework density 18.194652000000001
#
# number of rings (size 3 to 8) (size 9 to 14) (size 15 to 20)
#    0.000    2.000    0.000    3.000    0.000   13.000 
#    0.000    0.625    0.000    0.000    0.000    0.000 
#    0.000    0.000    0.000    0.000    0.000    0.000 
#
# Total GULP energy -178455.292209 kJ/mol
# GULP energy per Si atom -5576.727882 kJ/mol
# Density = 1.815324 g / cm^3
# Si number density = 18.194652 Si / 1000 Ang^3
#
#
#
# Elastic Constant Matrix: (Units=GPa)
#
#
# Indices 1 2 3 4 5 6 
#
# 1 128.9235 43.8156 56.1471 0.0000 0.0000 0.0000
# 2 43.8156 120.6865 67.5215 0.0000 0.0000 0.0000
# 3 56.1471 67.5215 120.1513 0.0000 0.0000 0.0000
# 4 0.0000 0.0000 0.0000 26.0218 0.0000 0.0000
# 5 0.0000 0.0000 0.0000 0.0000 16.3710 0.0000
# 6 0.0000 0.0000 0.0000 0.0000 0.0000 48.0703
#
#
#
# Elastic Compliance Matrix: (Units=1/GPa)
#
#
# Indices 1 2 3 4 5 6 
#
# 1 0.009914 -0.001469 -0.003807 0.000000 0.000000 0.000000
# 2 -0.001469 0.012304 -0.006228 0.000000 0.000000 0.000000
# 3 -0.003807 -0.006228 0.013602 0.000000 0.000000 0.000000
# 4 0.000000 0.000000 0.000000 0.038429 0.000000 0.000000
# 5 0.000000 0.000000 0.000000 0.000000 0.061084 0.000000
# 6 0.000000 0.000000 0.000000 0.000000 0.000000 0.020803
#
#
# Mechanical properties :
#
#
# Convention : Reuss Voigt Hill
#
# Bulk Modulus (GPa) = 78.05741 78.30329 78.18035
# Shear Modulus (GPa) = 27.26082 31.57776 29.41929
#
# Velocity S-wave (km/s) = 3.87497 4.17051 4.02546
# Velocity P-wave (km/s) = 7.93820 8.14376 8.04163
#
# Compressibility (1/GPa) = 0.01281108
#
# Stress axis : x y z
#
# Youngs Moduli (GPa) = 100.86837 81.27707 73.52037
#
# Poissons Ratio (x) = 0.11942 0.27990
# Poissons Ratio (y) = 0.14820 0.45786
# Poissons Ratio (z) = 0.38402 0.50617
#
# Static dielectric constant tensor:
#      x y z
#    x 1.635000 0.000000 0.000000 
#    y 0.000000 1.636070 0.000000 
#    z 0.000000 0.000000 1.660170 
# 
# From -- ./inp_files/26792.got.cif
#   From: 2010.05.17/outbox.cif.g08.bks.cpg/sg74_14_cif.got.tgz:26792.got - 2010.06.03 17:57:02.
