data_PCOD9538858
_publ_section_title
;
Structure prediction by ZEFSAII (Michael W. Deem and Ramdas Pophale) SiO2 
 PCOD9538858
Probable space group: I M M A
;
_chemical_formula_sum "Si O2"
_cell_formula_units_Z 88
_cell_length_a 8.315936
_cell_length_b 22.766806
_cell_length_c 23.661739
_cell_angle_alpha 90.000000
_cell_angle_beta 90.000000
_cell_angle_gamma 90.000000
_cell_volume 4479.813197
_symmetry_space_group_name_H-M "I M M A"
_symmetry_group_IT_number 74
_symmetry_cell_setting 'orthorhombic'
loop_
_space_group_symop_operation_xyz
x,y,z
-x,1/2-y,z
x,-y,-z
-x,1/2+y,-z
-x,-y,-z
x,1/2+y,-z
-x,y,z
x,1/2-y,z
1/2+x,1/2+y,1/2+z
1/2-x,-y,1/2+z
1/2+x,1/2-y,1/2-z
1/2-x,y,1/2-z
1/2-x,1/2-y,1/2-z
1/2+x,y,1/2-z
1/2-x,1/2+y,1/2+z
1/2+x,-y,1/2+z
loop_
_atom_site_type_symbol
_atom_site_label
_atom_site_fract_x
_atom_site_fract_y
_atom_site_fract_z
Si Si1 0.692737 0.012052 0.688446
Si Si2 0.194717 0.911661 0.899025
Si Si3 0.692312 0.372771 0.867678
Si Si4 0.193160 0.683737 0.809715
Si Si5 0.190891 0.064532 0.517427
Si Si6 0.190814 0.250000 0.815355
O O1 0.500000 0.012923 0.688286
O O2 0.750000 0.991030 0.750000
O O3 0.759455 0.077019 0.677034
O O4 0.744589 0.969921 0.636338
O O5 0.242832 0.857789 0.859793
O O6 0.000000 0.913594 0.905019
O O7 0.274507 0.902562 0.959351
O O8 0.500000 0.368575 0.870824
O O9 0.753187 0.400019 0.927914
O O10 0.754420 0.309236 0.848008
O O11 0.255453 0.750000 0.815130
O O12 0.250000 0.659436 0.750000
O O13 0.000000 0.685427 0.809328
O O14 0.000000 0.056874 0.526895
O O15 0.259733 0.000000 0.500000
O O16 0.250000 0.250000 0.750000
O O17 0.000000 0.250000 0.813521
#
# Coordination Sequence:
#
# PCOD9538858 Si02
#       6
#    16  16  16  16  16   8
#     4  11  22  35  55  86 119 153 195 245 302 361
#     4  10  21  35  55  83 116 153 195 244 295 353
#     4  11  23  42  65  89 122 159 200 249 303 362
#     4   9  18  34  54  78 111 149 190 235 285 340
#     4  10  21  39  62  87 116 154 195 239 293 351
#     4  12  26  46  70  96 126 162 207 254 311 370
#
# _framework density 19.643675999999999
#
# number of rings (size 3 to 8) (size 9 to 14) (size 15 to 20)
#    0.000    1.636    1.818    3.000    0.000    3.273 
#    1.636    0.000    0.000    0.000    0.000    0.000 
#    0.000    0.000    0.000    0.000    0.000    0.000 
#
# Total GULP energy -245553.912646 kJ/mol
# GULP energy per Si atom -5580.770742 kJ/mol
# Density = 1.959897 g / cm^3
# Si number density = 19.643676 Si / 1000 Ang^3
#
#
#
# Elastic Constant Matrix: (Units=GPa)
#
#
# Indices 1 2 3 4 5 6 
#
# 1 37.2382 23.7146 16.6909 0.0000 0.0000 0.0000
# 2 23.7146 109.6188 62.2001 0.0000 0.0000 0.0000
# 3 16.6909 62.2001 138.5379 0.0000 0.0000 0.0000
# 4 0.0000 0.0000 0.0000 -23.8468 0.0000 0.0000
# 5 0.0000 0.0000 0.0000 0.0000 30.3287 0.0000
# 6 0.0000 0.0000 0.0000 0.0000 0.0000 1.7459
#
#
#
# Elastic Compliance Matrix: (Units=1/GPa)
#
#
# Indices 1 2 3 4 5 6 
#
# 1 0.031244 -0.006204 -0.000979 0.000000 0.000000 0.000000
# 2 -0.006204 0.013473 -0.005302 0.000000 0.000000 0.000000
# 3 -0.000979 -0.005302 0.009716 0.000000 0.000000 0.000000
# 4 0.000000 0.000000 0.000000 -0.041934 0.000000 0.000000
# 5 0.000000 0.000000 0.000000 0.000000 0.032972 0.000000
# 6 0.000000 0.000000 0.000000 0.000000 0.000000 0.572766
#
#
# Mechanical properties :
#
#
# Convention : Reuss Voigt Hill
#
# Bulk Modulus (GPa) = 33.93903 54.51181 44.22542
# Shear Modulus (GPa) = 7.65665 13.83150 10.74408
#
# Velocity S-wave (km/s) = 1.97642 2.65640 2.34123
# Velocity P-wave (km/s) = 4.74586 6.10075 5.46545
#
# Compressibility (1/GPa) = 0.02946461
#
# Stress axis : x y z
#
# Youngs Moduli (GPa) = 32.00650 74.22339 102.91826
#
# Poissons Ratio (x) = 0.46046 0.10075
# Poissons Ratio (y) = 0.19856 0.54563
# Poissons Ratio (z) = 0.03133 0.39350
#
# Static dielectric constant tensor:
#      x y z
#    x 1.683820 0.000000 0.000000 
#    y 0.000000 1.721310 0.000000 
#    z 0.000000 0.000000 1.622890 
# 
# From -- ./inp_files/48722.got.cif
#   From: 2010.05.17/outbox.cif.g08.bks.cpg/sg74_25_cif.got.tgz:48722.got - 2010.06.03 17:57:02.
