data_PCOD9538302
_publ_section_title
;
Structure prediction by ZEFSAII (Michael W. Deem and Ramdas Pophale) SiO2 
 PCOD9538302
Probable space group: I M M A
;
_chemical_formula_sum "Si O2"
_cell_formula_units_Z 100
_cell_length_a 19.834484
_cell_length_b 19.081151
_cell_length_c 13.789050
_cell_angle_alpha 90.000000
_cell_angle_beta 90.000000
_cell_angle_gamma 90.000000
_cell_volume 5218.669833
_symmetry_space_group_name_H-M "I M M A"
_symmetry_group_IT_number 74
_symmetry_cell_setting 'orthorhombic'
loop_
_space_group_symop_operation_xyz
x,y,z
-x,1/2-y,z
x,-y,-z
-x,1/2+y,-z
-x,-y,-z
x,1/2+y,-z
-x,y,z
x,1/2-y,z
1/2+x,1/2+y,1/2+z
1/2-x,-y,1/2+z
1/2+x,1/2-y,1/2-z
1/2-x,y,1/2-z
1/2-x,1/2-y,1/2-z
1/2+x,y,1/2-z
1/2-x,1/2+y,1/2+z
1/2+x,-y,1/2+z
loop_
_atom_site_type_symbol
_atom_site_label
_atom_site_fract_x
_atom_site_fract_y
_atom_site_fract_z
Si Si1 0.000000 0.750000 0.903424
Si Si2 0.190441 0.885832 0.329511
Si Si3 0.078847 0.132630 0.817742
Si Si4 0.184046 0.549809 0.681799
Si Si5 0.578901 0.534031 0.657893
Si Si6 0.618848 0.650727 0.531093
Si Si7 0.223957 0.171635 0.461293
O O1 0.939795 0.690366 0.911271
O O2 0.250000 0.882635 0.250000
O O3 0.124941 0.854338 0.275576
O O4 0.210117 0.845183 0.426136
O O5 0.180216 0.968791 0.353655
O O6 0.000000 0.149190 0.804295
O O7 0.086978 0.049469 0.837352
O O8 0.104695 0.165632 0.917897
O O9 0.250000 0.553582 0.750000
O O10 0.120179 0.563152 0.750670
O O11 0.191596 0.609027 0.600908
O O12 0.500000 0.547602 0.664021
O O13 0.608685 0.570127 0.562350
O O14 0.695338 0.669768 0.554532
O O15 0.199683 0.250000 0.436274
#
# Coordination Sequence:
#
# PCOD9538302 Si02
#       7
#     4  16  16  16  16  16  16
#     4  12  24  36  46  84 132 162 182 210 300 364
#     4  10  21  38  61  87 115 151 193 243 292 335
#     4  10  20  36  60  88 114 146 191 240 290 342
#     4  10  21  38  61  87 115 151 193 243 292 335
#     4  10  20  36  60  88 114 146 191 240 290 342
#     4  12  21  35  55  85 120 154 184 230 288 350
#     4  12  25  39  56  86 119 154 197 234 282 347
#
# _framework density 19.161971999999999
#
# number of rings (size 3 to 8) (size 9 to 14) (size 15 to 20)
#    0.000    1.280    5.600    0.960    0.000    3.200 
#    2.880    0.800    0.000    4.800    0.000    0.000 
#    0.000    0.000    0.000    0.000    0.000    0.000 
#
# Total GULP energy -278619.330845 kJ/mol
# GULP energy per Si atom -5572.386617 kJ/mol
# Density = 1.911836 g / cm^3
# Si number density = 19.161972 Si / 1000 Ang^3
#
#
#
# Elastic Constant Matrix: (Units=GPa)
#
#
# Indices 1 2 3 4 5 6 
#
# 1 44.0746 8.4717 17.1706 0.0000 0.0000 0.0000
# 2 8.4717 46.0691 5.5815 0.0000 0.0000 0.0000
# 3 17.1706 5.5815 44.3004 0.0000 0.0000 0.0000
# 4 0.0000 0.0000 0.0000 148.3922 0.0000 0.0000
# 5 0.0000 0.0000 0.0000 0.0000 26.4051 0.0000
# 6 0.0000 0.0000 0.0000 0.0000 0.0000 13.7724
#
#
#
# Elastic Compliance Matrix: (Units=1/GPa)
#
#
# Indices 1 2 3 4 5 6 
#
# 1 0.027366 -0.003805 -0.010127 0.000000 0.000000 0.000000
# 2 -0.003805 0.022572 -0.001369 0.000000 0.000000 0.000000
# 3 -0.010127 -0.001369 0.026671 0.000000 0.000000 0.000000
# 4 0.000000 0.000000 0.000000 0.006739 0.000000 0.000000
# 5 0.000000 0.000000 0.000000 0.000000 0.037871 0.000000
# 6 0.000000 0.000000 0.000000 0.000000 0.000000 0.072609
#
#
# Mechanical properties :
#
#
# Convention : Reuss Voigt Hill
#
# Bulk Modulus (GPa) = 21.73656 21.87685 21.80670
# Shear Modulus (GPa) = 20.85365 44.59530 32.72447
#
# Velocity S-wave (km/s) = 3.30249 4.82942 4.13702
# Velocity P-wave (km/s) = 5.09020 6.52222 5.85019
#
# Compressibility (1/GPa) = 0.04600545
#
# Stress axis : x y z
#
# Youngs Moduli (GPa) = 36.54219 44.30236 37.49402
#
# Poissons Ratio (x) = 0.16858 0.37971
# Poissons Ratio (y) = 0.13905 0.05133
# Poissons Ratio (z) = 0.37007 0.06065
#
# Static dielectric constant tensor:
#      x y z
#    x 1.643230 0.000000 0.000000 
#    y 0.000000 1.766820 0.000000 
#    z 0.000000 0.000000 1.671470 
# 
# From -- ./inp_files/34343.got.cif
#   From: 2010.05.17/outbox.cif.g08.bks.cpg/sg74_18_cif.got.tgz:34343.got - 2010.06.03 17:57:02.
