data_PCOD9538033
_publ_section_title
;
Structure prediction by ZEFSAII (Michael W. Deem and Ramdas Pophale) SiO2 
 PCOD9538033
Probable space group: I M M A
;
_chemical_formula_sum "Si O2"
_cell_formula_units_Z 72
_cell_length_a 18.786883
_cell_length_b 20.733480
_cell_length_c 9.876961
_cell_angle_alpha 90.000000
_cell_angle_beta 90.000000
_cell_angle_gamma 90.000000
_cell_volume 3847.248790
_symmetry_space_group_name_H-M "I M M A"
_symmetry_group_IT_number 74
_symmetry_cell_setting 'orthorhombic'
loop_
_space_group_symop_operation_xyz
x,y,z
-x,1/2-y,z
x,-y,-z
-x,1/2+y,-z
-x,-y,-z
x,1/2+y,-z
-x,y,z
x,1/2-y,z
1/2+x,1/2+y,1/2+z
1/2-x,-y,1/2+z
1/2+x,1/2-y,1/2-z
1/2-x,y,1/2-z
1/2-x,1/2-y,1/2-z
1/2+x,y,1/2-z
1/2-x,1/2+y,1/2+z
1/2+x,-y,1/2+z
loop_
_atom_site_type_symbol
_atom_site_label
_atom_site_fract_x
_atom_site_fract_y
_atom_site_fract_z
Si Si1 0.159855 0.500000 0.000000
Si Si2 0.419220 0.420939 0.714864
Si Si3 0.724370 0.370637 0.399613
Si Si4 0.184836 0.323806 0.642548
Si Si5 0.075792 0.822794 0.964541
O O1 0.114015 0.517143 0.135545
O O2 0.207596 0.438105 0.027817
O O3 0.500000 0.433648 0.763002
O O4 0.369675 0.382021 0.821175
O O5 0.423509 0.370340 0.590922
O O6 0.750000 0.382264 0.250000
O O7 0.779303 0.333319 0.495826
O O8 0.648503 0.334937 0.387612
O O9 0.155902 0.250000 0.654088
O O10 0.250000 0.328769 0.750000
O O11 0.077249 0.750000 0.015458
O O12 0.000000 0.832516 0.890588
#
# Coordination Sequence:
#
# PCOD9538033 Si02
#       5
#     8  16  16  16  16
#     4  10  21  36  60  82 119 158 206 250 291 360
#     4  10  20  35  58  88 118 155 198 246 297 349
#     4  11  24  37  58  85 118 158 197 243 302 361
#     4  11  21  37  59  87 118 150 196 249 302 361
#     4   9  17  32  55  82 111 145 190 237 285 342
#
# _framework density 18.714672
#
# number of rings (size 3 to 8) (size 9 to 14) (size 15 to 20)
#    0.000    1.778    4.444    1.667    3.111    4.000 
#    0.000    1.111    0.000    1.333    0.000    0.000 
#    0.000    0.000    0.000    0.000    0.000    0.000 
#
# Total GULP energy -200481.317516 kJ/mol
# GULP energy per Si atom -5568.925487 kJ/mol
# Density = 1.867208 g / cm^3
# Si number density = 18.714672 Si / 1000 Ang^3
#
#
#
# Elastic Constant Matrix: (Units=GPa)
#
#
# Indices 1 2 3 4 5 6 
#
# 1 85.6375 3.7612 26.0844 0.0000 0.0000 0.0000
# 2 3.7612 58.5743 -7.4886 0.0000 0.0000 0.0000
# 3 26.0844 -7.4886 51.3028 0.0000 0.0000 0.0000
# 4 0.0000 0.0000 0.0000 8.7407 0.0000 0.0000
# 5 0.0000 0.0000 0.0000 0.0000 7.1139 0.0000
# 6 0.0000 0.0000 0.0000 0.0000 0.0000 15.7967
#
#
#
# Elastic Compliance Matrix: (Units=1/GPa)
#
#
# Indices 1 2 3 4 5 6 
#
# 1 0.014010 -0.001845 -0.007392 0.000000 0.000000 0.000000
# 2 -0.001845 0.017640 0.003513 0.000000 0.000000 0.000000
# 3 -0.007392 0.003513 0.023764 0.000000 0.000000 0.000000
# 4 0.000000 0.000000 0.000000 0.114407 0.000000 0.000000
# 5 0.000000 0.000000 0.000000 0.000000 0.140570 0.000000
# 6 0.000000 0.000000 0.000000 0.000000 0.000000 0.063304
#
#
# Mechanical properties :
#
#
# Convention : Reuss Voigt Hill
#
# Bulk Modulus (GPa) = 22.74559 26.69206 24.71883
# Shear Modulus (GPa) = 12.50631 17.87410 15.19021
#
# Velocity S-wave (km/s) = 2.58788 3.09380 2.85208
# Velocity P-wave (km/s) = 4.59454 5.20151 4.90742
#
# Compressibility (1/GPa) = 0.04396456
#
# Stress axis : x y z
#
# Youngs Moduli (GPa) = 71.37855 56.68964 42.08134
#
# Poissons Ratio (x) = 0.10458 0.31108
# Poissons Ratio (y) = 0.13167 -0.14782
# Poissons Ratio (z) = 0.52766 -0.19914
#
# Static dielectric constant tensor:
#      x y z
#    x 1.740680 0.000000 0.000000 
#    y 0.000000 1.697710 0.000000 
#    z 0.000000 0.000000 1.600260 
# 
# From -- ./inp_files/12155.got.cif
#   From: 2010.05.17/outbox.cif.g08.bks.cpg/sg74_7_cif.got.tgz:12155.got - 2010.06.03 17:57:02.
