data_PCOD9538675
_publ_section_title
;
Structure prediction by ZEFSAII (Michael W. Deem and Ramdas Pophale) SiO2 
 PCOD9538675
Probable space group: I M M A
;
_chemical_formula_sum "Si O2"
_cell_formula_units_Z 88
_cell_length_a 15.537928
_cell_length_b 23.163556
_cell_length_c 11.888483
_cell_angle_alpha 90.000000
_cell_angle_beta 90.000000
_cell_angle_gamma 90.000000
_cell_volume 4278.827492
_symmetry_space_group_name_H-M "I M M A"
_symmetry_group_IT_number 74
_symmetry_cell_setting 'orthorhombic'
loop_
_space_group_symop_operation_xyz
x,y,z
-x,1/2-y,z
x,-y,-z
-x,1/2+y,-z
-x,-y,-z
x,1/2+y,-z
-x,y,z
x,1/2-y,z
1/2+x,1/2+y,1/2+z
1/2-x,-y,1/2+z
1/2+x,1/2-y,1/2-z
1/2-x,y,1/2-z
1/2-x,1/2-y,1/2-z
1/2+x,y,1/2-z
1/2-x,1/2+y,1/2+z
1/2+x,-y,1/2+z
loop_
_atom_site_type_symbol
_atom_site_label
_atom_site_fract_x
_atom_site_fract_y
_atom_site_fract_z
Si Si1 0.250000 0.413091 0.750000
Si Si2 0.403919 0.188470 0.071702
Si Si3 0.600781 0.509848 0.365138
Si Si4 0.858269 0.316434 0.678768
Si Si5 0.500000 0.319513 0.381801
Si Si6 0.500000 0.819558 0.360071
Si Si7 0.353114 0.111414 0.253122
O O1 0.325068 0.449995 0.690140
O O2 0.211288 0.366394 0.663012
O O3 0.500000 0.193322 0.115649
O O4 0.358117 0.250000 0.100443
O O5 0.371347 0.130005 0.125333
O O6 0.407129 0.185191 0.938387
O O7 0.613923 0.500000 0.500000
O O8 0.500000 0.528845 0.350549
O O9 0.614129 0.449597 0.298932
O O10 0.829591 0.250000 0.696131
O O11 0.917294 0.333729 0.784278
O O12 0.500000 0.250000 0.379237
O O13 0.500000 0.340860 0.512396
O O14 0.588195 0.343536 0.325238
O O15 0.500000 0.750000 0.366820
O O16 0.250000 0.114435 0.250000
#
# Coordination Sequence:
#
# PCOD9538675 Si02
#       7
#     8  16  16  16   8   8  16
#     4  12  27  40  72 100 129 176 246 290 338 414
#     4  10  20  39  68  99 137 179 217 270 349 415
#     4  11  27  49  71  96 135 189 238 287 352 416
#     4  10  22  40  65 102 140 178 222 284 348 409
#     4  11  24  41  69 105 141 186 230 283 347 417
#     4   9  20  39  66 100 142 184 229 272 337 421
#     4  12  25  43  69  99 137 177 229 289 339 410
#
# _framework density 20.566381
#
# number of rings (size 3 to 8) (size 9 to 14) (size 15 to 20)
#    0.000    1.273    3.636    0.818    6.364    1.455 
#    0.000    3.636    0.000    2.727    0.000    0.000 
#    0.000    0.000    0.000    0.000    0.000    0.000 
#
# Total GULP energy -244964.968011 kJ/mol
# GULP energy per Si atom -5567.385637 kJ/mol
# Density = 2.051957 g / cm^3
# Si number density = 20.566381 Si / 1000 Ang^3
#
#
#
# Elastic Constant Matrix: (Units=GPa)
#
#
# Indices 1 2 3 4 5 6 
#
# 1 141.9819 67.3243 49.5301 0.0000 0.0000 0.0000
# 2 67.3243 136.1064 37.5680 0.0000 0.0000 0.0000
# 3 49.5301 37.5680 109.2053 0.0000 0.0000 0.0000
# 4 0.0000 0.0000 0.0000 15.8322 0.0000 0.0000
# 5 0.0000 0.0000 0.0000 0.0000 21.5293 0.0000
# 6 0.0000 0.0000 0.0000 0.0000 0.0000 34.4188
#
#
#
# Elastic Compliance Matrix: (Units=1/GPa)
#
#
# Indices 1 2 3 4 5 6 
#
# 1 0.010102 -0.004124 -0.003163 0.000000 0.000000 0.000000
# 2 -0.004124 0.009801 -0.001501 0.000000 0.000000 0.000000
# 3 -0.003163 -0.001501 0.011108 0.000000 0.000000 0.000000
# 4 0.000000 0.000000 0.000000 0.063162 0.000000 0.000000
# 5 0.000000 0.000000 0.000000 0.000000 0.046448 0.000000
# 6 0.000000 0.000000 0.000000 0.000000 0.000000 0.029054
#
#
# Mechanical properties :
#
#
# Convention : Reuss Voigt Hill
#
# Bulk Modulus (GPa) = 74.43316 77.34871 75.89093
# Shear Modulus (GPa) = 26.07815 29.88080 27.97947
#
# Velocity S-wave (km/s) = 3.56476 3.81582 3.69243
# Velocity P-wave (km/s) = 7.29476 7.55678 7.42693
#
# Compressibility (1/GPa) = 0.01343487
#
# Stress axis : x y z
#
# Youngs Moduli (GPa) = 98.99014 102.02574 90.02335
#
# Poissons Ratio (x) = 0.42074 0.28476
# Poissons Ratio (y) = 0.40822 0.13517
# Poissons Ratio (z) = 0.31312 0.15319
#
# Static dielectric constant tensor:
#      x y z
#    x 1.973680 0.000000 0.000000 
#    y 0.000000 1.782550 0.000000 
#    z 0.000000 0.000000 1.731100 
# 
# From -- ./inp_files/22280.got.cif
#   From: 2010.05.17/outbox.cif.g08.bks.cpg/sg74_12_cif.got.tgz:22280.got - 2010.06.03 17:57:02.
