data_PCOD9538623
_publ_section_title
;
Structure prediction by ZEFSAII (Michael W. Deem and Ramdas Pophale) SiO2 
 PCOD9538623
Probable space group: I M M A
;
_chemical_formula_sum "Si O2"
_cell_formula_units_Z 44
_cell_length_a 22.532392
_cell_length_b 10.540848
_cell_length_c 8.924497
_cell_angle_alpha 90.000000
_cell_angle_beta 90.000000
_cell_angle_gamma 90.000000
_cell_volume 2119.661916
_symmetry_space_group_name_H-M "I M M A"
_symmetry_group_IT_number 74
_symmetry_cell_setting 'orthorhombic'
loop_
_space_group_symop_operation_xyz
x,y,z
-x,1/2-y,z
x,-y,-z
-x,1/2+y,-z
-x,-y,-z
x,1/2+y,-z
-x,y,z
x,1/2-y,z
1/2+x,1/2+y,1/2+z
1/2-x,-y,1/2+z
1/2+x,1/2-y,1/2-z
1/2-x,y,1/2-z
1/2-x,1/2-y,1/2-z
1/2+x,y,1/2-z
1/2-x,1/2+y,1/2+z
1/2+x,-y,1/2+z
loop_
_atom_site_type_symbol
_atom_site_label
_atom_site_fract_x
_atom_site_fract_y
_atom_site_fract_z
Si Si1 0.628673 0.996183 0.329849
Si Si2 0.315063 0.750000 0.179264
Si Si3 0.868306 0.250000 0.354837
Si Si4 0.500000 0.395487 0.710823
Si Si5 0.000000 0.250000 0.494036
O O1 0.653780 0.875610 0.242410
O O2 0.558185 0.971248 0.332545
O O3 0.651242 0.000000 0.500000
O O4 0.642201 0.124995 0.243084
O O5 0.250000 0.750000 0.250000
O O6 0.326439 0.750000 0.001284
O O7 0.937997 0.250000 0.405852
O O8 0.500000 0.250000 0.646886
O O9 0.500000 0.368406 0.889819
#
# Coordination Sequence:
#
# PCOD9538623 Si02
#       5
#    16   8   8   8   4
#     4  12  25  45  69 104 141 178 225 283 346 409
#     4  12  27  48  70  96 132 181 240 287 335 404
#     4  12  25  42  76 102 139 181 226 281 345 408
#     4  10  20  39  70  98 144 177 224 270 346 407
#     4  10  20  38  70 106 136 176 234 268 342 410
#
# _framework density 20.758026999999998
#
# number of rings (size 3 to 8) (size 9 to 14) (size 15 to 20)
#    0.545    0.000    5.455    3.818    0.000    4.364 
#    0.000    2.727    0.000    0.000    0.000    0.000 
#    0.000    0.000    0.000    0.000    0.000    0.000 
#
# Total GULP energy -123044.946112 kJ/mol
# GULP energy per Si atom -5592.952096 kJ/mol
# Density = 2.071078 g / cm^3
# Si number density = 20.758027 Si / 1000 Ang^3
#
#
#
# Elastic Constant Matrix: (Units=GPa)
#
#
# Indices 1 2 3 4 5 6 
#
# 1 93.4025 33.2175 33.4063 0.0000 0.0000 0.0000
# 2 33.2175 196.4167 102.4321 0.0000 0.0000 0.0000
# 3 33.4063 102.4321 189.6528 0.0000 0.0000 0.0000
# 4 0.0000 0.0000 0.0000 32.5242 0.0000 0.0000
# 5 0.0000 0.0000 0.0000 0.0000 -11.7731 0.0000
# 6 0.0000 0.0000 0.0000 0.0000 0.0000 19.3333
#
#
#
# Elastic Compliance Matrix: (Units=1/GPa)
#
#
# Indices 1 2 3 4 5 6 
#
# 1 0.011643 -0.001252 -0.001375 0.000000 0.000000 0.000000
# 2 -0.001252 0.007222 -0.003680 0.000000 0.000000 0.000000
# 3 -0.001375 -0.003680 0.007503 0.000000 0.000000 0.000000
# 4 0.000000 0.000000 0.000000 0.030746 0.000000 0.000000
# 5 0.000000 0.000000 0.000000 0.000000 -0.084939 0.000000
# 6 0.000000 0.000000 0.000000 0.000000 0.000000 0.051724
#
#
# Mechanical properties :
#
#
# Convention : Reuss Voigt Hill
#
# Bulk Modulus (GPa) = 72.70524 90.84265 81.77395
# Shear Modulus (GPa) = 121.66026 28.71129 75.18578
#
# Velocity S-wave (km/s) = 7.66394 3.72310 6.02484
# Velocity P-wave (km/s) = 10.64969 7.89554 9.37431
#
# Compressibility (1/GPa) = 0.01375417
#
# Stress axis : x y z
#
# Youngs Moduli (GPa) = 85.88616 138.46160 133.28738
#
# Poissons Ratio (x) = 0.17339 0.18321
# Poissons Ratio (y) = 0.10755 0.49052
# Poissons Ratio (z) = 0.11806 0.50956
#
# Static dielectric constant tensor:
#      x y z
#    x 1.570270 0.000000 0.000000 
#    y 0.000000 1.708920 0.000000 
#    z 0.000000 0.000000 1.743990 
# 
# From -- ./inp_files/13109.got.cif
#   From: 2010.05.17/outbox.cif.g08.bks.cpg/sg74_7_cif.got.tgz:13109.got - 2010.06.03 17:57:02.
