data_PCOD9538916
_publ_section_title
;
Structure prediction by ZEFSAII (Michael W. Deem and Ramdas Pophale) SiO2 
 PCOD9538916
Probable space group: I M M A
;
_chemical_formula_sum "Si O2"
_cell_formula_units_Z 104
_cell_length_a 7.748896
_cell_length_b 22.534381
_cell_length_c 27.167328
_cell_angle_alpha 90.000000
_cell_angle_beta 90.000000
_cell_angle_gamma 90.000000
_cell_volume 4743.865762
_symmetry_space_group_name_H-M "I M M A"
_symmetry_group_IT_number 74
_symmetry_cell_setting 'orthorhombic'
loop_
_space_group_symop_operation_xyz
x,y,z
-x,1/2-y,z
x,-y,-z
-x,1/2+y,-z
-x,-y,-z
x,1/2+y,-z
-x,y,z
x,1/2-y,z
1/2+x,1/2+y,1/2+z
1/2-x,-y,1/2+z
1/2+x,1/2-y,1/2-z
1/2-x,y,1/2-z
1/2-x,1/2-y,1/2-z
1/2+x,y,1/2-z
1/2-x,1/2+y,1/2+z
1/2+x,-y,1/2+z
loop_
_atom_site_type_symbol
_atom_site_label
_atom_site_fract_x
_atom_site_fract_y
_atom_site_fract_z
Si Si1 0.792194 0.815856 0.815570
Si Si2 0.205003 0.626407 0.914842
Si Si3 0.305388 0.398535 0.608600
Si Si4 0.750000 0.579530 0.750000
Si Si5 0.788020 0.819235 0.018085
Si Si6 0.795575 0.180415 0.695881
Si Si7 0.805589 0.479342 0.344207
O O1 0.741069 0.750000 0.801245
O O2 0.769720 0.823305 0.873703
O O3 0.689813 0.868071 0.788441
O O4 0.000000 0.824754 0.806527
O O5 0.268206 0.649985 0.967097
O O6 0.279006 0.568310 0.887921
O O7 0.000000 0.615550 0.919770
O O8 0.500000 0.415823 0.594607
O O9 0.229982 0.361608 0.562779
O O10 0.303804 0.353080 0.653668
O O11 0.220020 0.457422 0.630245
O O12 0.693685 0.535644 0.705103
O O13 0.733981 0.750000 0.022214
O O14 0.000000 0.818097 0.018704
O O15 0.751859 0.250000 0.694731
O O16 0.750000 0.157376 0.750000
O O17 0.000000 0.173900 0.687572
O O18 0.000000 0.476347 0.324246
#
# Coordination Sequence:
#
# PCOD9538916 Si02
#       7
#    16  16  16   8  16  16  16
#     4   9  16  28  51  82 110 138 178 228 280 335
#     4   9  18  35  59  86 116 150 190 233 284 346
#     4  11  23  38  59  86 116 152 198 248 295 345
#     4  10  21  36  54  74 107 152 196 236 282 344
#     4   9  18  35  62  92 117 146 189 241 293 350
#     4  10  21  38  60  86 117 151 189 237 296 358
#     4  11  24  40  57  80 116 157 199 244 293 350
#
# _framework density 21.923051000000001
#
# number of rings (size 3 to 8) (size 9 to 14) (size 15 to 20)
#    0.000    2.154    0.000    3.000    1.077    5.846 
#    0.000    4.615    0.000   11.077    0.000    0.000 
#    0.000    0.000    0.000    0.000    0.000    0.000 
#
# Total GULP energy -289562.240832 kJ/mol
# GULP energy per Si atom -5568.504631 kJ/mol
# Density = 2.187315 g / cm^3
# Si number density = 21.923051 Si / 1000 Ang^3
#
#
#
# Elastic Constant Matrix: (Units=GPa)
#
#
# Indices 1 2 3 4 5 6 
#
# 1 49.0808 25.5514 16.5761 0.0000 0.0000 0.0000
# 2 25.5514 126.2864 84.8520 0.0000 0.0000 0.0000
# 3 16.5761 84.8520 190.1035 0.0000 0.0000 0.0000
# 4 0.0000 0.0000 0.0000 29.7803 0.0000 0.0000
# 5 0.0000 0.0000 0.0000 0.0000 6.3825 0.0000
# 6 0.0000 0.0000 0.0000 0.0000 0.0000 22.7944
#
#
#
# Elastic Compliance Matrix: (Units=1/GPa)
#
#
# Indices 1 2 3 4 5 6 
#
# 1 0.022775 -0.004676 0.000101 0.000000 0.000000 0.000000
# 2 -0.004676 0.012271 -0.005069 0.000000 0.000000 0.000000
# 3 0.000101 -0.005069 0.007514 0.000000 0.000000 0.000000
# 4 0.000000 0.000000 0.000000 0.033579 0.000000 0.000000
# 5 0.000000 0.000000 0.000000 0.000000 0.156678 0.000000
# 6 0.000000 0.000000 0.000000 0.000000 0.000000 0.043871
#
#
# Mechanical properties :
#
#
# Convention : Reuss Voigt Hill
#
# Bulk Modulus (GPa) = 42.97109 68.82553 55.89831
# Shear Modulus (GPa) = 16.46186 27.69085 22.07635
#
# Velocity S-wave (km/s) = 2.74322 3.55786 3.17676
# Velocity P-wave (km/s) = 5.44767 6.95270 6.24568
#
# Compressibility (1/GPa) = 0.02327146
#
# Stress axis : x y z
#
# Youngs Moduli (GPa) = 43.90840 81.49543 133.08333
#
# Poissons Ratio (x) = 0.38108 -0.01348
# Poissons Ratio (y) = 0.20532 0.67463
# Poissons Ratio (z) = -0.00445 0.41312
#
# Static dielectric constant tensor:
#      x y z
#    x 2.034190 0.000000 0.000000 
#    y 0.000000 1.786330 0.000000 
#    z 0.000000 0.000000 1.801310 
# 
# From -- ./inp_files/64526.got.cif
#   From: 2010.05.17/outbox.cif.g08.bks.cpg/sg74_33_cif.got.tgz:64526.got - 2010.06.03 17:57:02.
