data_PCOD9538053
_publ_section_title
;
Structure prediction by ZEFSAII (Michael W. Deem and Ramdas Pophale) SiO2 
 PCOD9538053
Probable space group: I M M A
;
_chemical_formula_sum "Si O2"
_cell_formula_units_Z 64
_cell_length_a 26.955694
_cell_length_b 17.373491
_cell_length_c 7.608330
_cell_angle_alpha 90.000000
_cell_angle_beta 90.000000
_cell_angle_gamma 90.000000
_cell_volume 3563.091314
_symmetry_space_group_name_H-M "I M M A"
_symmetry_group_IT_number 74
_symmetry_cell_setting 'orthorhombic'
loop_
_space_group_symop_operation_xyz
x,y,z
-x,1/2-y,z
x,-y,-z
-x,1/2+y,-z
-x,-y,-z
x,1/2+y,-z
-x,y,z
x,1/2-y,z
1/2+x,1/2+y,1/2+z
1/2-x,-y,1/2+z
1/2+x,1/2-y,1/2-z
1/2-x,y,1/2-z
1/2-x,1/2-y,1/2-z
1/2+x,y,1/2-z
1/2-x,1/2+y,1/2+z
1/2+x,-y,1/2+z
loop_
_atom_site_type_symbol
_atom_site_label
_atom_site_fract_x
_atom_site_fract_y
_atom_site_fract_z
Si Si1 0.607764 0.562741 0.796184
Si Si2 0.305404 0.540269 0.311920
Si Si3 0.882303 0.161237 0.943104
Si Si4 0.442653 0.904127 0.147610
O O1 0.661221 0.519660 0.801186
O O2 0.607066 0.615741 0.624209
O O3 0.569617 0.490830 0.784347
O O4 0.591719 0.605361 0.974537
O O5 0.301889 0.500000 0.500000
O O6 0.250000 0.554621 0.250000
O O7 0.337291 0.617092 0.344806
O O8 0.871652 0.250000 0.977704
O O9 0.927244 0.151152 0.805968
O O10 0.500000 0.897206 0.100212
#
# Coordination Sequence:
#
# PCOD9538053 Si02
#       4
#    16  16  16  16
#     4   9  19  36  56  80 108 142 178 235 274 311
#     4   9  19  33  58  82 102 138 187 229 269 320
#     4  10  22  37  51  78 119 149 173 215 275 336
#     4  10  20  35  59  84 103 139 193 233 266 314
#
# _framework density 17.961929999999999
#
# number of rings (size 3 to 8) (size 9 to 14) (size 15 to 20)
#    0.000    2.500    0.000    3.750    7.000    5.000 
#    0.000    0.000    0.000    3.000    0.000    0.000 
#    0.000    0.000    0.000    0.000    0.000    0.000 
#
# Total GULP energy -178317.832852 kJ/mol
# GULP energy per Si atom -5572.432277 kJ/mol
# Density = 1.792105 g / cm^3
# Si number density = 17.961930 Si / 1000 Ang^3
#
#
#
# Elastic Constant Matrix: (Units=GPa)
#
#
# Indices 1 2 3 4 5 6 
#
# 1 117.1296 23.9004 64.3746 0.0000 0.0000 0.0000
# 2 23.9004 65.8017 48.9555 0.0000 0.0000 0.0000
# 3 64.3746 48.9555 121.8178 0.0000 0.0000 0.0000
# 4 0.0000 0.0000 0.0000 3.9317 0.0000 0.0000
# 5 0.0000 0.0000 0.0000 0.0000 25.9138 0.0000
# 6 0.0000 0.0000 0.0000 0.0000 0.0000 4.5674
#
#
#
# Elastic Compliance Matrix: (Units=1/GPa)
#
#
# Indices 1 2 3 4 5 6 
#
# 1 0.012044 0.000514 -0.006572 0.000000 0.000000 0.000000
# 2 0.000514 0.021701 -0.008993 0.000000 0.000000 0.000000
# 3 -0.006572 -0.008993 0.015296 0.000000 0.000000 0.000000
# 4 0.000000 0.000000 0.000000 0.254342 0.000000 0.000000
# 5 0.000000 0.000000 0.000000 0.000000 0.038589 0.000000
# 6 0.000000 0.000000 0.000000 0.000000 0.000000 0.218942
#
#
# Mechanical properties :
#
#
# Convention : Reuss Voigt Hill
#
# Bulk Modulus (GPa) = 52.79574 64.35667 58.57620
# Shear Modulus (GPa) = 8.37061 18.05050 13.21056
#
# Velocity S-wave (km/s) = 2.16109 3.17350 2.71491
# Velocity P-wave (km/s) = 5.97361 7.02392 6.51995
#
# Compressibility (1/GPa) = 0.01894092
#
# Stress axis : x y z
#
# Youngs Moduli (GPa) = 83.02672 46.08101 65.37772
#
# Poissons Ratio (x) = -0.02371 0.42963
# Poissons Ratio (y) = -0.04271 0.58793
# Poissons Ratio (z) = 0.54561 0.41440
#
# Static dielectric constant tensor:
#      x y z
#    x 1.644340 0.000000 0.000000 
#    y 0.000000 1.602590 0.000000 
#    z 0.000000 0.000000 1.645610 
# 
# From -- ./inp_files/10582.got.cif
#   From: 2010.05.17/outbox.cif.g08.bks.cpg/sg74_6_cif.got.tgz:10582.got - 2010.06.03 17:57:02.
