data_PCOD9538332
_publ_section_title
;
Structure prediction by ZEFSAII (Michael W. Deem and Ramdas Pophale) SiO2 
 PCOD9538332
Probable space group: I M M A
;
_chemical_formula_sum "Si O2"
_cell_formula_units_Z 96
_cell_length_a 9.286090
_cell_length_b 29.414707
_cell_length_c 18.491630
_cell_angle_alpha 90.000000
_cell_angle_beta 90.000000
_cell_angle_gamma 90.000000
_cell_volume 5050.944660
_symmetry_space_group_name_H-M "I M M A"
_symmetry_group_IT_number 74
_symmetry_cell_setting 'orthorhombic'
loop_
_space_group_symop_operation_xyz
x,y,z
-x,1/2-y,z
x,-y,-z
-x,1/2+y,-z
-x,-y,-z
x,1/2+y,-z
-x,y,z
x,1/2-y,z
1/2+x,1/2+y,1/2+z
1/2-x,-y,1/2+z
1/2+x,1/2-y,1/2-z
1/2-x,y,1/2-z
1/2-x,1/2-y,1/2-z
1/2+x,y,1/2-z
1/2-x,1/2+y,1/2+z
1/2+x,-y,1/2+z
loop_
_atom_site_type_symbol
_atom_site_label
_atom_site_fract_x
_atom_site_fract_y
_atom_site_fract_z
Si Si1 0.162392 0.302460 0.881146
Si Si2 0.328878 0.485805 0.327076
Si Si3 0.674208 0.800820 0.550644
Si Si4 0.840356 0.123062 0.688878
Si Si5 0.171023 0.902808 0.926022
Si Si6 0.333322 0.947404 0.062008
O O1 0.158970 0.250000 0.860836
O O2 0.265400 0.330122 0.830237
O O3 0.000000 0.321274 0.877903
O O4 0.208031 0.304592 0.965144
O O5 0.500000 0.496575 0.321323
O O6 0.250000 0.491688 0.250000
O O7 0.314385 0.433712 0.354812
O O8 0.255911 0.515583 0.391448
O O9 0.500000 0.799154 0.556968
O O10 0.725817 0.750000 0.575157
O O11 0.719123 0.849949 0.582679
O O12 0.750000 0.098033 0.750000
O O13 0.839403 0.095081 0.615883
O O14 0.000000 0.129486 0.715866
O O15 0.000000 0.902171 0.945333
O O16 0.256058 0.929075 0.989906
O O17 0.500000 0.961391 0.049760
#
# Coordination Sequence:
#
# PCOD9538332 Si02
#       6
#    16  16  16  16  16  16
#     4   9  17  31  52  74  98 134 178 224 275 326
#     4  11  24  40  59  84 114 151 189 231 283 335
#     4   8  14  28  54  85 112 140 178 225 274 324
#     4  11  23  35  49  71 101 141 184 226 276 326
#     4  10  20  36  61  89 115 146 188 232 276 331
#     4  11  23  38  57  83 112 147 188 231 279 330
#
# _framework density 19.006346000000001
#
# number of rings (size 3 to 8) (size 9 to 14) (size 15 to 20)
#    0.000    2.000    1.667    3.500    0.000    7.333 
#    0.000    0.000    0.000    1.000    0.000    0.000 
#    0.000    0.000    0.000    0.000    0.000    0.167 
#
# Total GULP energy -267533.733322 kJ/mol
# GULP energy per Si atom -5573.619444 kJ/mol
# Density = 1.896309 g / cm^3
# Si number density = 19.006346 Si / 1000 Ang^3
#
#
#
# Elastic Constant Matrix: (Units=GPa)
#
#
# Indices 1 2 3 4 5 6 
#
# 1 90.5249 36.9011 21.1743 0.0005 0.0000 -0.0001
# 2 36.9011 121.7812 29.3237 0.0000 0.0000 0.0000
# 3 21.1743 29.3237 30.0834 -0.0003 0.0000 0.0001
# 4 0.0005 0.0000 -0.0003 337.7848 -0.0001 0.0004
# 5 0.0000 0.0000 0.0000 -0.0001 20.0378 0.0000
# 6 -0.0001 0.0000 0.0001 0.0004 0.0000 -4.8018
#
#
#
# Elastic Compliance Matrix: (Units=1/GPa)
#
#
# Indices 1 2 3 4 5 6 
#
# 1 0.013739 -0.002397 -0.007334 0.000000 0.000000 0.000000
# 2 -0.002397 0.011148 -0.009179 0.000000 0.000000 0.000000
# 3 -0.007334 -0.009179 0.047350 0.000000 0.000000 0.000001
# 4 0.000000 0.000000 0.000000 0.002960 0.000000 0.000000
# 5 0.000000 0.000000 0.000000 0.000000 0.049906 0.000000
# 6 0.000000 0.000000 0.000001 0.000000 0.000000 -0.208257
#
#
# Mechanical properties :
#
#
# Convention : Reuss Voigt Hill
#
# Bulk Modulus (GPa) = 29.05525 46.35421 37.70473
# Shear Modulus (GPa) = -147.66485 80.93687 -33.36399
#
# Velocity S-wave (km/s) = -8.82389 6.53273 -4.19431
# Velocity P-wave (km/s) = 9.40715 9.01908 1.89084
#
# Compressibility (1/GPa) = 0.03441718
#
# Stress axis : x y z
#
# Youngs Moduli (GPa) = 72.78397 89.70107 21.11916
#
# Poissons Ratio (x) = 0.21504 0.15488
# Poissons Ratio (y) = 0.17448 0.19386
# Poissons Ratio (z) = 0.53378 0.82339
#
# Static dielectric constant tensor:
#      x y z
#    x 1.681390 0.000000 0.000000 
#    y 0.000000 1.711770 0.000000 
#    z 0.000000 0.000000 1.651810 
# 
# From -- ./inp_files/49106.got.cif
#   From: 2010.05.17/outbox.cif.g08.bks.cpg/sg74_25_cif.got.tgz:49106.got - 2010.06.03 17:57:02.
