data_PCOD9538035
_publ_section_title
;
Structure prediction by ZEFSAII (Michael W. Deem and Ramdas Pophale) SiO2 
 PCOD9538035
Probable space group: I M M A
;
_chemical_formula_sum "Si O2"
_cell_formula_units_Z 112
_cell_length_a 15.167964
_cell_length_b 14.727544
_cell_length_c 25.166069
_cell_angle_alpha 90.000000
_cell_angle_beta 90.000000
_cell_angle_gamma 90.000000
_cell_volume 5621.769062
_symmetry_space_group_name_H-M "I M M A"
_symmetry_group_IT_number 74
_symmetry_cell_setting 'orthorhombic'
loop_
_space_group_symop_operation_xyz
x,y,z
-x,1/2-y,z
x,-y,-z
-x,1/2+y,-z
-x,-y,-z
x,1/2+y,-z
-x,y,z
x,1/2-y,z
1/2+x,1/2+y,1/2+z
1/2-x,-y,1/2+z
1/2+x,1/2-y,1/2-z
1/2-x,y,1/2-z
1/2-x,1/2-y,1/2-z
1/2+x,y,1/2-z
1/2-x,1/2+y,1/2+z
1/2+x,-y,1/2+z
loop_
_atom_site_type_symbol
_atom_site_label
_atom_site_fract_x
_atom_site_fract_y
_atom_site_fract_z
Si Si1 0.595823 0.569464 0.548064
Si Si2 0.738317 0.354608 0.186847
Si Si3 0.326080 0.353413 0.900921
Si Si4 0.309756 0.648647 0.302704
Si Si5 0.597071 0.026377 0.335857
Si Si6 0.897854 0.046166 0.387593
Si Si7 0.716176 0.854174 0.975464
O O1 0.598183 0.500000 0.500000
O O2 0.500000 0.618076 0.548042
O O3 0.597207 0.509242 0.601225
O O4 0.683528 0.628755 0.543013
O O5 0.726213 0.250000 0.171205
O O6 0.750000 0.360143 0.250000
O O7 0.830422 0.395988 0.168251
O O8 0.659581 0.413254 0.161216
O O9 0.362263 0.250000 0.899108
O O10 0.250613 0.357748 0.855668
O O11 0.389864 0.437079 0.888315
O O12 0.290937 0.368992 0.961038
O O13 0.349966 0.750000 0.301983
O O14 0.250000 0.640453 0.250000
O O15 0.375037 0.564039 0.305276
O O16 0.500000 0.056619 0.319172
O O17 0.848538 0.083496 0.440476
O O18 0.000000 0.073591 0.385732
O O19 0.691655 0.750000 0.965300
#
# Coordination Sequence:
#
# PCOD9538035 Si02
#       7
#    16  16  16  16  16  16  16
#     4  10  20  35  58  88 124 166 209 257 312 377
#     4  11  25  46  67  90 126 164 206 262 317 375
#     4  10  22  40  64  93 128 170 212 261 324 382
#     4  10  20  38  63  89 126 172 214 258 309 370
#     4  11  22  37  63  94 125 162 207 254 311 378
#     4  12  25  42  68  95 124 167 216 267 323 384
#     4  11  22  38  62  91 129 170 213 265 320 381
#
# _framework density 19.922554999999999
#
# number of rings (size 3 to 8) (size 9 to 14) (size 15 to 20)
#    0.000    1.286    2.857    3.000    0.000    4.000 
#    0.000    4.286    0.000    7.714    0.000    0.000 
#    0.000    0.000    0.000    0.000    0.000    0.000 
#
# Total GULP energy -312521.535079 kJ/mol
# GULP energy per Si atom -5580.741698 kJ/mol
# Density = 1.987721 g / cm^3
# Si number density = 19.922555 Si / 1000 Ang^3
#
#
#
# Elastic Constant Matrix: (Units=GPa)
#
#
# Indices 1 2 3 4 5 6 
#
# 1 135.0344 53.5060 36.0493 0.0000 0.0000 0.0000
# 2 53.5060 107.9142 34.6647 0.0000 0.0000 0.0000
# 3 36.0493 34.6647 90.2134 0.0000 0.0000 0.0000
# 4 0.0000 0.0000 0.0000 -5.4818 0.0000 0.0000
# 5 0.0000 0.0000 0.0000 0.0000 10.3284 0.0000
# 6 0.0000 0.0000 0.0000 0.0000 0.0000 16.9296
#
#
#
# Elastic Compliance Matrix: (Units=1/GPa)
#
#
# Indices 1 2 3 4 5 6 
#
# 1 0.009615 -0.004031 -0.002293 0.000000 0.000000 0.000000
# 2 -0.004031 0.012261 -0.003101 0.000000 0.000000 0.000000
# 3 -0.002293 -0.003101 0.013193 0.000000 0.000000 0.000000
# 4 0.000000 0.000000 0.000000 -0.182423 0.000000 0.000000
# 5 0.000000 0.000000 0.000000 0.000000 0.096821 0.000000
# 6 0.000000 0.000000 0.000000 0.000000 0.000000 0.059068
#
#
# Mechanical properties :
#
#
# Convention : Reuss Voigt Hill
#
# Bulk Modulus (GPa) = 61.65469 64.62245 63.13857
# Shear Modulus (GPa) = 152.48610 18.28471 85.38540
#
# Velocity S-wave (km/s) = 8.75817 3.03279 6.55375
# Velocity P-wave (km/s) = 11.54506 6.69111 9.43556
#
# Compressibility (1/GPa) = 0.01621937
#
# Stress axis : x y z
#
# Youngs Moduli (GPa) = 104.00611 81.55890 75.79936
#
# Poissons Ratio (x) = 0.32873 0.17383
# Poissons Ratio (y) = 0.41920 0.23503
# Poissons Ratio (z) = 0.23852 0.25289
#
# Static dielectric constant tensor:
#      x y z
#    x 1.723180 0.000000 0.000000 
#    y 0.000000 1.710770 0.000000 
#    z 0.000000 0.000000 1.786880 
# 
# From -- ./inp_files/60120.got.cif
#   From: 2010.05.17/outbox.cif.g08.bks.cpg/sg74_31_cif.got.tgz:60120.got - 2010.06.03 17:57:02.
