data_PCOD9538999
_publ_section_title
;
Structure prediction by ZEFSAII (Michael W. Deem and Ramdas Pophale) SiO2 
 PCOD9538999
Probable space group: I M M A
;
_chemical_formula_sum "Si O2"
_cell_formula_units_Z 112
_cell_length_a 15.330363
_cell_length_b 14.790401
_cell_length_c 25.034462
_cell_angle_alpha 90.000000
_cell_angle_beta 90.000000
_cell_angle_gamma 90.000000
_cell_volume 5676.369396
_symmetry_space_group_name_H-M "I M M A"
_symmetry_group_IT_number 74
_symmetry_cell_setting 'orthorhombic'
loop_
_space_group_symop_operation_xyz
x,y,z
-x,1/2-y,z
x,-y,-z
-x,1/2+y,-z
-x,-y,-z
x,1/2+y,-z
-x,y,z
x,1/2-y,z
1/2+x,1/2+y,1/2+z
1/2-x,-y,1/2+z
1/2+x,1/2-y,1/2-z
1/2-x,y,1/2-z
1/2-x,1/2-y,1/2-z
1/2+x,y,1/2-z
1/2-x,1/2+y,1/2+z
1/2+x,-y,1/2+z
loop_
_atom_site_type_symbol
_atom_site_label
_atom_site_fract_x
_atom_site_fract_y
_atom_site_fract_z
Si Si1 0.784612 0.606442 0.514565
Si Si2 0.604495 0.355660 0.121012
Si Si3 0.171803 0.530371 0.335614
Si Si4 0.600843 0.351337 0.746474
Si Si5 0.596273 0.392756 0.511124
Si Si6 0.593661 0.152049 0.920100
Si Si7 0.164455 0.354840 0.870862
O O1 0.783410 0.500000 0.500000
O O2 0.844618 0.625719 0.565416
O O3 0.684400 0.638544 0.518993
O O4 0.830786 0.649042 0.463278
O O5 0.500000 0.373125 0.116849
O O6 0.614733 0.250000 0.134529
O O7 0.651664 0.424661 0.161713
O O8 0.155899 0.575258 0.278435
O O9 0.103250 0.575272 0.376615
O O10 0.261206 0.569940 0.360402
O O11 0.500000 0.358839 0.762456
O O12 0.632873 0.250000 0.759878
O O13 0.607133 0.360255 0.682687
O O14 0.592724 0.500000 0.500000
O O15 0.500000 0.356347 0.497286
O O16 0.615547 0.374531 0.573779
O O17 0.500000 0.142742 0.948198
O O18 0.595369 0.250000 0.892917
O O19 0.197096 0.250000 0.873100
#
# Coordination Sequence:
#
# PCOD9538999 Si02
#       7
#    16  16  16  16  16  16  16
#     4  11  20  35  55  80 114 155 198 243 292 348
#     4  11  24  40  59  84 117 157 200 246 298 356
#     4  12  21  36  58  84 118 155 196 242 289 349
#     4  10  21  36  57  89 124 158 197 240 290 351
#     4  10  21  38  58  83 116 157 203 245 285 338
#     4  11  21  31  49  78 113 151 187 228 283 347
#     4  11  22  38  60  88 123 161 196 237 296 361
#
# _framework density 19.730922
#
# number of rings (size 3 to 8) (size 9 to 14) (size 15 to 20)
#    0.000    1.143    2.857    5.143    0.000    5.429 
#    0.000    0.000    0.000    1.714    0.000    0.000 
#    0.000    2.286    0.000    0.000    0.000    0.000 
#
# Total GULP energy -312590.513144 kJ/mol
# GULP energy per Si atom -5581.973449 kJ/mol
# Density = 1.968601 g / cm^3
# Si number density = 19.730922 Si / 1000 Ang^3
#
#
#
# Elastic Constant Matrix: (Units=GPa)
#
#
# Indices 1 2 3 4 5 6 
#
# 1 123.8731 33.7723 6.0873 0.0000 0.0000 0.0000
# 2 33.7723 126.8285 25.7128 0.0000 0.0000 0.0000
# 3 6.0873 25.7128 63.1396 0.0000 0.0000 0.0000
# 4 0.0000 0.0000 0.0000 28.3806 0.0000 0.0000
# 5 0.0000 0.0000 0.0000 0.0000 24.2872 0.0000
# 6 0.0000 0.0000 0.0000 0.0000 0.0000 7.3305
#
#
#
# Elastic Compliance Matrix: (Units=1/GPa)
#
#
# Indices 1 2 3 4 5 6 
#
# 1 0.008705 -0.002341 0.000114 0.000000 0.000000 0.000000
# 2 -0.002341 0.009224 -0.003531 0.000000 0.000000 0.000000
# 3 0.000114 -0.003531 0.017265 0.000000 0.000000 0.000000
# 4 0.000000 0.000000 0.000000 0.035235 0.000000 0.000000
# 5 0.000000 0.000000 0.000000 0.000000 0.041174 0.000000
# 6 0.000000 0.000000 0.000000 0.000000 0.000000 0.136417
#
#
# Mechanical properties :
#
#
# Convention : Reuss Voigt Hill
#
# Bulk Modulus (GPa) = 42.23212 49.44289 45.83750
# Shear Modulus (GPa) = 18.69661 28.55091 23.62376
#
# Velocity S-wave (km/s) = 3.08162 3.80809 3.46395
# Velocity P-wave (km/s) = 5.84057 6.66696 6.26740
#
# Compressibility (1/GPa) = 0.02367866
#
# Stress axis : x y z
#
# Youngs Moduli (GPa) = 114.87012 108.41417 57.92165
#
# Poissons Ratio (x) = 0.25383 -0.00661
# Poissons Ratio (y) = 0.26894 0.20450
# Poissons Ratio (z) = -0.01311 0.38277
#
# Static dielectric constant tensor:
#      x y z
#    x 1.753010 0.000000 0.000000 
#    y 0.000000 1.748320 0.000000 
#    z 0.000000 0.000000 1.677370 
# 
# From -- ./inp_files/60111.got.cif
#   From: 2010.05.17/outbox.cif.g08.bks.cpg/sg74_31_cif.got.tgz:60111.got - 2010.06.03 17:57:02.
