data_PCOD9538242
_publ_section_title
;
Structure prediction by ZEFSAII (Michael W. Deem and Ramdas Pophale) SiO2 
 PCOD9538242
Probable space group: I M M A
;
_chemical_formula_sum "Si O2"
_cell_formula_units_Z 96
_cell_length_a 9.317494
_cell_length_b 18.287606
_cell_length_c 30.328186
_cell_angle_alpha 90.000000
_cell_angle_beta 90.000000
_cell_angle_gamma 90.000000
_cell_volume 5167.760917
_symmetry_space_group_name_H-M "I M M A"
_symmetry_group_IT_number 74
_symmetry_cell_setting 'orthorhombic'
loop_
_space_group_symop_operation_xyz
x,y,z
-x,1/2-y,z
x,-y,-z
-x,1/2+y,-z
-x,-y,-z
x,1/2+y,-z
-x,y,z
x,1/2-y,z
1/2+x,1/2+y,1/2+z
1/2-x,-y,1/2+z
1/2+x,1/2-y,1/2-z
1/2-x,y,1/2-z
1/2-x,1/2-y,1/2-z
1/2+x,y,1/2-z
1/2-x,1/2+y,1/2+z
1/2+x,-y,1/2+z
loop_
_atom_site_type_symbol
_atom_site_label
_atom_site_fract_x
_atom_site_fract_y
_atom_site_fract_z
Si Si1 0.328104 0.662738 0.362778
Si Si2 0.330998 0.091630 0.141682
Si Si3 0.157551 0.164298 0.210720
Si Si4 0.172968 0.052348 0.702301
Si Si5 0.833897 0.100648 0.956289
Si Si6 0.832162 0.075487 0.051898
O O1 0.500000 0.645259 0.359503
O O2 0.312500 0.750000 0.359091
O O3 0.241832 0.619735 0.325064
O O4 0.275331 0.636442 0.411554
O O5 0.500000 0.103097 0.141798
O O6 0.246670 0.154345 0.167016
O O7 0.267551 0.090062 0.093125
O O8 0.301393 0.018049 0.170388
O O9 0.141387 0.250000 0.219802
O O10 0.250000 0.130885 0.250000
O O11 0.000000 0.130547 0.207911
O O12 0.250000 0.046129 0.750000
O O13 0.000000 0.059722 0.707755
O O14 0.000000 0.124779 0.958077
O O15 0.832399 0.012851 0.951688
O O16 0.777728 0.111486 0.006105
O O17 0.000000 0.096444 0.058957
#
# Coordination Sequence:
#
# PCOD9538242 Si02
#       6
#    16  16  16  16  16  16
#     4  10  20  36  59  83 109 144 186 234 286 337
#     4  11  22  35  54  84 115 147 184 227 278 326
#     4  10  21  37  57  80 107 143 183 222 270 328
#     4  11  24  39  56  80 110 145 188 235 282 333
#     4   8  15  30  53  81 107 139 181 222 269 325
#     4   9  16  30  55  80 108 143 179 223 270 320
#
# _framework density 18.576709999999999
#
# number of rings (size 3 to 8) (size 9 to 14) (size 15 to 20)
#    0.000    2.167    1.667    3.000    0.000    5.000 
#    0.000    3.333    0.000    3.000    0.000    0.000 
#    0.000    0.000    0.000    0.000    0.000    0.000 
#
# Total GULP energy -267421.565118 kJ/mol
# GULP energy per Si atom -5571.282607 kJ/mol
# Density = 1.853443 g / cm^3
# Si number density = 18.576710 Si / 1000 Ang^3
#
#
#
# Elastic Constant Matrix: (Units=GPa)
#
#
# Indices 1 2 3 4 5 6 
#
# 1 91.6170 23.0390 67.0039 0.0000 0.0000 0.0000
# 2 23.0390 31.9024 16.5208 0.0000 0.0000 0.0000
# 3 67.0039 16.5208 153.6882 0.0000 0.0000 0.0000
# 4 0.0000 0.0000 0.0000 28.5932 0.0000 0.0000
# 5 0.0000 0.0000 0.0000 0.0000 34.3462 0.0000
# 6 0.0000 0.0000 0.0000 0.0000 0.0000 -45.5874
#
#
#
# Elastic Compliance Matrix: (Units=1/GPa)
#
#
# Indices 1 2 3 4 5 6 
#
# 1 0.018491 -0.009720 -0.007017 0.000000 0.000000 0.000000
# 2 -0.009720 0.038303 0.000120 0.000000 0.000000 0.000000
# 3 -0.007017 0.000120 0.009553 0.000000 0.000000 0.000000
# 4 0.000000 0.000000 0.000000 0.034973 0.000000 0.000000
# 5 0.000000 0.000000 0.000000 0.000000 0.029115 0.000000
# 6 0.000000 0.000000 0.000000 0.000000 0.000000 -0.021936
#
#
# Mechanical properties :
#
#
# Convention : Reuss Voigt Hill
#
# Bulk Modulus (GPa) = 30.19890 54.48166 42.34028
# Shear Modulus (GPa) = 32.72891 14.84667 23.78779
#
# Velocity S-wave (km/s) = 4.20196 2.83010 3.58231
# Velocity P-wave (km/s) = 6.31139 6.33015 6.32078
#
# Compressibility (1/GPa) = 0.03311378
#
# Stress axis : x y z
#
# Youngs Moduli (GPa) = 54.08053 26.10772 104.68096
#
# Poissons Ratio (x) = 0.25377 0.73451
# Poissons Ratio (y) = 0.52566 -0.01259
# Poissons Ratio (z) = 0.37947 -0.00314
#
# Static dielectric constant tensor:
#      x y z
#    x 1.651960 0.000000 0.000000 
#    y 0.000000 1.663900 0.000000 
#    z 0.000000 0.000000 1.377260 
# 
# From -- ./inp_files/64270.got.cif
#   From: 2010.05.17/outbox.cif.g08.bks.cpg/sg74_33_cif.got.tgz:64270.got - 2010.06.03 17:57:02.
