data_PCOD9538637
_publ_section_title
;
Structure prediction by ZEFSAII (Michael W. Deem and Ramdas Pophale) SiO2 
 PCOD9538637
Probable space group: I M M A
;
_chemical_formula_sum "Si O2"
_cell_formula_units_Z 52
_cell_length_a 36.633577
_cell_length_b 7.490068
_cell_length_c 7.608190
_cell_angle_alpha 90.000000
_cell_angle_beta 90.000000
_cell_angle_gamma 90.000000
_cell_volume 2087.595907
_symmetry_space_group_name_H-M "I M M A"
_symmetry_group_IT_number 74
_symmetry_cell_setting 'orthorhombic'
loop_
_space_group_symop_operation_xyz
x,y,z
-x,1/2-y,z
x,-y,-z
-x,1/2+y,-z
-x,-y,-z
x,1/2+y,-z
-x,y,z
x,1/2-y,z
1/2+x,1/2+y,1/2+z
1/2-x,-y,1/2+z
1/2+x,1/2-y,1/2-z
1/2-x,y,1/2-z
1/2-x,1/2-y,1/2-z
1/2+x,y,1/2-z
1/2-x,1/2+y,1/2+z
1/2+x,-y,1/2+z
loop_
_atom_site_type_symbol
_atom_site_label
_atom_site_fract_x
_atom_site_fract_y
_atom_site_fract_z
Si Si1 0.000000 0.750000 0.654452
Si Si2 0.210043 0.037039 0.294481
Si Si3 0.051381 0.951166 0.200316
Si Si4 0.131828 0.962792 0.709179
O O1 0.031800 0.594359 0.678024
O O2 0.211074 0.250000 0.259914
O O3 0.250000 0.962563 0.250000
O O4 0.171226 0.969755 0.220235
O O5 0.206671 0.000000 0.500000
O O6 0.040025 0.750000 0.243445
O O7 0.095110 0.959883 0.211369
O O8 0.041068 0.000000 0.000000
O O9 0.130875 0.750000 0.734347
O O10 0.130120 0.000000 0.500000
#
# Coordination Sequence:
#
# PCOD9538637 Si02
#       4
#     4  16  16  16
#     4  12  24  44  64  92 126 154 200 258 306 372
#     4   9  19  35  57  86 120 160 199 247 296 348
#     4  12  24  40  66  92 121 161 203 250 307 364
#     4  10  20  39  61  86 124 163 204 250 304 363
#
# _framework density 24.909037000000001
#
# number of rings (size 3 to 8) (size 9 to 14) (size 15 to 20)
#    0.000    1.538    3.077    1.846    0.000    3.077 
#    0.000    3.846    0.000    0.000    0.000    0.000 
#    0.000    0.000    0.000    0.000    0.000    0.000 
#
# Total GULP energy -144914.281931 kJ/mol
# GULP energy per Si atom -5573.626228 kJ/mol
# Density = 2.485234 g / cm^3
# Si number density = 24.909037 Si / 1000 Ang^3
#
#
#
# Elastic Constant Matrix: (Units=GPa)
#
#
# Indices 1 2 3 4 5 6 
#
# 1 286.4762 47.3708 14.5692 0.0000 0.0000 0.0000
# 2 47.3708 192.0859 -2.0738 0.0000 0.0000 0.0000
# 3 14.5692 -2.0738 53.8593 0.0000 0.0000 0.0000
# 4 0.0000 0.0000 0.0000 17.2409 0.0000 0.0000
# 5 0.0000 0.0000 0.0000 0.0000 68.9544 0.0000
# 6 0.0000 0.0000 0.0000 0.0000 0.0000 55.9912
#
#
#
# Elastic Compliance Matrix: (Units=1/GPa)
#
#
# Indices 1 2 3 4 5 6 
#
# 1 0.003696 -0.000923 -0.001035 0.000000 0.000000 0.000000
# 2 -0.000923 0.005438 0.000459 0.000000 0.000000 0.000000
# 3 -0.001035 0.000459 0.018865 0.000000 0.000000 0.000000
# 4 0.000000 0.000000 0.000000 0.058002 0.000000 0.000000
# 5 0.000000 0.000000 0.000000 0.000000 0.014502 0.000000
# 6 0.000000 0.000000 0.000000 0.000000 0.000000 0.017860
#
#
# Mechanical properties :
#
#
# Convention : Reuss Voigt Hill
#
# Bulk Modulus (GPa) = 39.99821 72.46154 56.22988
# Shear Modulus (GPa) = 38.55211 59.94099 49.24655
#
# Velocity S-wave (km/s) = 3.93837 4.91082 4.45123
# Velocity P-wave (km/s) = 6.06412 7.82998 7.00293
#
# Compressibility (1/GPa) = 0.02500112
#
# Stress axis : x y z
#
# Youngs Moduli (GPa) = 270.56965 183.87452 53.00934
#
# Poissons Ratio (x) = 0.16965 0.05488
# Poissons Ratio (y) = 0.24964 -0.02433
# Poissons Ratio (z) = 0.28012 -0.08439
#
# Static dielectric constant tensor:
#      x y z
#    x 2.030160 0.000000 0.000000 
#    y 0.000000 1.879880 0.000000 
#    z 0.000000 0.000000 2.005580 
# 
# From -- ./inp_files/17442.got.cif
#   From: 2010.05.17/outbox.cif.g08.bks.cpg/sg74_9_cif.got.tgz:17442.got - 2010.06.03 17:57:02.
