data_PCOD9538119
_publ_section_title
;
Structure prediction by ZEFSAII (Michael W. Deem and Ramdas Pophale) SiO2 
 PCOD9538119
Probable space group: I M M A
;
_chemical_formula_sum "Si O2"
_cell_formula_units_Z 72
_cell_length_a 9.002826
_cell_length_b 15.739531
_cell_length_c 28.562000
_cell_angle_alpha 90.000000
_cell_angle_beta 90.000000
_cell_angle_gamma 90.000000
_cell_volume 4047.242795
_symmetry_space_group_name_H-M "I M M A"
_symmetry_group_IT_number 74
_symmetry_cell_setting 'orthorhombic'
loop_
_space_group_symop_operation_xyz
x,y,z
-x,1/2-y,z
x,-y,-z
-x,1/2+y,-z
-x,-y,-z
x,1/2+y,-z
-x,y,z
x,1/2-y,z
1/2+x,1/2+y,1/2+z
1/2-x,-y,1/2+z
1/2+x,1/2-y,1/2-z
1/2-x,y,1/2-z
1/2-x,1/2-y,1/2-z
1/2+x,y,1/2-z
1/2-x,1/2+y,1/2+z
1/2+x,-y,1/2+z
loop_
_atom_site_type_symbol
_atom_site_label
_atom_site_fract_x
_atom_site_fract_y
_atom_site_fract_z
Si Si1 0.678191 0.438127 0.698548
Si Si2 0.322448 0.250000 0.698946
Si Si3 0.324542 0.152435 0.559495
Si Si4 0.324367 0.504841 0.889374
Si Si5 0.174029 0.847987 0.947125
O O1 0.500000 0.444764 0.701775
O O2 0.750000 0.446554 0.750000
O O3 0.716635 0.342548 0.679292
O O4 0.744597 0.502467 0.661034
O O5 0.500000 0.250000 0.703057
O O6 0.250000 0.250000 0.750000
O O7 0.500000 0.140985 0.571039
O O8 0.285558 0.250000 0.572194
O O9 0.230526 0.079180 0.583326
O O10 0.309211 0.144256 0.503275
O O11 0.500000 0.503420 0.883453
O O12 0.272554 0.585417 0.919470
O O13 0.206645 0.750000 0.934947
O O14 0.000000 0.864718 0.936892
#
# Coordination Sequence:
#
# PCOD9538119 Si02
#       5
#    16   8  16  16  16
#     4  10  20  36  55  77 106 142 183 226 270 318
#     4   8  16  30  50  72  96 132 172 212 258 306
#     4   9  19  36  57  80 109 145 185 227 270 319
#     4  12  24  34  51  82 115 148 182 220 270 328
#     4   9  19  38  61  81 103 139 186 232 277 324
#
# _framework density 17.78989
#
# number of rings (size 3 to 8) (size 9 to 14) (size 15 to 20)
#    0.000    2.222    0.000    4.667    1.556    5.333 
#    0.000    2.222    0.000    0.667    0.000    0.000 
#    0.000    0.000    0.000    0.000    0.000    0.000 
#
# Total GULP energy -200930.078981 kJ/mol
# GULP energy per Si atom -5581.391083 kJ/mol
# Density = 1.774940 g / cm^3
# Si number density = 17.789890 Si / 1000 Ang^3
#
#
#
# Elastic Constant Matrix: (Units=GPa)
#
#
# Indices 1 2 3 4 5 6 
#
# 1 88.8364 56.0044 51.2730 0.0000 0.0000 0.0000
# 2 56.0044 62.7704 43.1950 0.0000 0.0000 0.0000
# 3 51.2730 43.1950 65.0163 0.0000 0.0000 0.0000
# 4 0.0000 0.0000 0.0000 22.2690 0.0000 0.0000
# 5 0.0000 0.0000 0.0000 0.0000 27.8220 0.0000
# 6 0.0000 0.0000 0.0000 0.0000 0.0000 8.5638
#
#
#
# Elastic Compliance Matrix: (Units=1/GPa)
#
#
# Indices 1 2 3 4 5 6 
#
# 1 0.029177 -0.018787 -0.010527 0.000000 0.000000 0.000000
# 2 -0.018787 0.041446 -0.012720 0.000000 0.000000 0.000000
# 3 -0.010527 -0.012720 0.032133 0.000000 0.000000 0.000000
# 4 0.000000 0.000000 0.000000 0.044905 0.000000 0.000000
# 5 0.000000 0.000000 0.000000 0.000000 0.035943 0.000000
# 6 0.000000 0.000000 0.000000 0.000000 0.000000 0.116771
#
#
# Mechanical properties :
#
#
# Convention : Reuss Voigt Hill
#
# Bulk Modulus (GPa) = 53.51185 57.50753 55.50969
# Shear Modulus (GPa) = 12.79840 16.14100 14.46970
#
# Velocity S-wave (km/s) = 2.68511 3.01543 2.85505
# Velocity P-wave (km/s) = 6.30542 6.67232 6.49146
#
# Compressibility (1/GPa) = 0.01868745
#
# Stress axis : x y z
#
# Youngs Moduli (GPa) = 34.27410 24.12762 31.12018
#
# Poissons Ratio (x) = 0.45329 0.32761
# Poissons Ratio (y) = 0.64392 0.39584
# Poissons Ratio (z) = 0.36082 0.30690
#
# Static dielectric constant tensor:
#      x y z
#    x 1.585460 0.000000 0.000000 
#    y 0.000000 1.610900 0.000000 
#    z 0.000000 0.000000 1.610820 
# 
# From -- ./inp_files/63612.got.cif
#   From: 2010.05.17/outbox.cif.g08.bks.cpg/sg74_32_cif.got.tgz:63612.got - 2010.06.03 17:57:02.
