data_PCOD9538020
_publ_section_title
;
Structure prediction by ZEFSAII (Michael W. Deem and Ramdas Pophale) SiO2 
 PCOD9538020
Probable space group: I M M A
;
_chemical_formula_sum "Si O2"
_cell_formula_units_Z 88
_cell_length_a 27.945713
_cell_length_b 8.387988
_cell_length_c 19.827615
_cell_angle_alpha 90.000000
_cell_angle_beta 90.000000
_cell_angle_gamma 90.000000
_cell_volume 4647.757630
_symmetry_space_group_name_H-M "I M M A"
_symmetry_group_IT_number 74
_symmetry_cell_setting 'orthorhombic'
loop_
_space_group_symop_operation_xyz
x,y,z
-x,1/2-y,z
x,-y,-z
-x,1/2+y,-z
-x,-y,-z
x,1/2+y,-z
-x,y,z
x,1/2-y,z
1/2+x,1/2+y,1/2+z
1/2-x,-y,1/2+z
1/2+x,1/2-y,1/2-z
1/2-x,y,1/2-z
1/2-x,1/2-y,1/2-z
1/2+x,y,1/2-z
1/2-x,1/2+y,1/2+z
1/2+x,-y,1/2+z
loop_
_atom_site_type_symbol
_atom_site_label
_atom_site_fract_x
_atom_site_fract_y
_atom_site_fract_z
Si Si1 0.692187 0.442678 0.423659
Si Si2 0.500000 0.060360 0.577200
Si Si3 0.904816 0.443090 0.152941
Si Si4 0.618091 0.942533 0.804947
Si Si5 0.726768 0.444392 0.178824
Si Si6 0.444885 0.559439 0.071851
O O1 0.693463 0.500000 0.500000
O O2 0.692346 0.250000 0.422639
O O3 0.643028 0.493911 0.387094
O O4 0.738379 0.497985 0.381087
O O5 0.500000 0.250000 0.575766
O O6 0.500000 0.000000 0.500000
O O7 0.452580 0.002352 0.616386
O O8 0.905961 0.250000 0.152517
O O9 0.899322 0.495732 0.230817
O O10 0.619161 0.750000 0.802938
O O11 0.671988 0.998580 0.821194
O O12 0.583816 0.996672 0.864487
O O13 0.726171 0.250000 0.176891
O O14 0.750000 0.490036 0.250000
O O15 0.500000 0.503356 0.076280
O O16 0.444437 0.750000 0.071953
O O17 0.425196 0.500000 0.000000
#
# Coordination Sequence:
#
# PCOD9538020 Si02
#       6
#    16   8  16  16  16  16
#     4  10  20  35  58  85 115 150 191 233 279 335
#     4  12  26  42  60  82 115 154 193 242 294 342
#     4  10  21  38  60  87 116 152 195 235 281 342
#     4  10  20  35  61  90 116 151 193 236 282 338
#     4   9  16  33  58  83 111 148 191 230 272 329
#     4  10  22  40  60  83 115 152 191 237 289 342
#
# _framework density 18.933861
#
# number of rings (size 3 to 8) (size 9 to 14) (size 15 to 20)
#    0.000    2.000    1.818    1.909    1.273    4.727 
#    0.000    2.727    0.000    1.091    0.000    0.000 
#    0.000    0.000    0.000    0.000    0.000    0.000 
#
# Total GULP energy -245688.064497 kJ/mol
# GULP energy per Si atom -5583.819648 kJ/mol
# Density = 1.889077 g / cm^3
# Si number density = 18.933861 Si / 1000 Ang^3
#
#
#
# Elastic Constant Matrix: (Units=GPa)
#
#
# Indices 1 2 3 4 5 6 
#
# 1 158.7922 25.8999 122.2576 0.0000 0.0000 0.0000
# 2 25.8999 16.5620 26.9512 0.0000 0.0000 0.0000
# 3 122.2576 26.9512 224.3322 0.0000 0.0000 0.0000
# 4 0.0000 0.0000 0.0000 33.3448 0.0000 0.0000
# 5 0.0000 0.0000 0.0000 0.0000 40.1617 0.0000
# 6 0.0000 0.0000 0.0000 0.0000 0.0000 4.3144
#
#
#
# Elastic Compliance Matrix: (Units=1/GPa)
#
#
# Indices 1 2 3 4 5 6 
#
# 1 0.012088 -0.010172 -0.005366 0.000000 0.000000 0.000000
# 2 -0.010172 0.083611 -0.004502 0.000000 0.000000 0.000000
# 3 -0.005366 -0.004502 0.007923 0.000000 0.000000 0.000000
# 4 0.000000 0.000000 0.000000 0.029990 0.000000 0.000000
# 5 0.000000 0.000000 0.000000 0.000000 0.024899 0.000000
# 6 0.000000 0.000000 0.000000 0.000000 0.000000 0.231781
#
#
# Mechanical properties :
#
#
# Convention : Reuss Voigt Hill
#
# Bulk Modulus (GPa) = 15.73714 83.32263 49.52988
# Shear Modulus (GPa) = 11.07295 30.53603 20.80449
#
# Velocity S-wave (km/s) = 2.42093 4.02029 3.31841
# Velocity P-wave (km/s) = 4.01799 8.10266 6.39521
#
# Compressibility (1/GPa) = 0.06354396
#
# Stress axis : x y z
#
# Youngs Moduli (GPa) = 82.72907 11.96011 126.22014
#
# Poissons Ratio (x) = 0.12165 0.67724
# Poissons Ratio (y) = 0.84148 0.56821
# Poissons Ratio (z) = 0.44389 0.05384
#
# Static dielectric constant tensor:
#      x y z
#    x 1.654420 0.000000 0.000000 
#    y 0.000000 1.660540 0.000000 
#    z 0.000000 0.000000 1.625500 
# 
# From -- ./inp_files/54511.got.cif
#   From: 2010.05.17/outbox.cif.g08.bks.cpg/sg74_28_cif.got.tgz:54511.got - 2010.06.03 17:57:02.
