data_PCOD9538690
_publ_section_title
;
Structure prediction by ZEFSAII (Michael W. Deem and Ramdas Pophale) SiO2 
 PCOD9538690
Probable space group: I M M A
;
_chemical_formula_sum "Si O2"
_cell_formula_units_Z 72
_cell_length_a 29.243900
_cell_length_b 14.016821
_cell_length_c 6.913839
_cell_angle_alpha 90.000000
_cell_angle_beta 90.000000
_cell_angle_gamma 90.000000
_cell_volume 2834.027627
_symmetry_space_group_name_H-M "I M M A"
_symmetry_group_IT_number 74
_symmetry_cell_setting 'orthorhombic'
loop_
_space_group_symop_operation_xyz
x,y,z
-x,1/2-y,z
x,-y,-z
-x,1/2+y,-z
-x,-y,-z
x,1/2+y,-z
-x,y,z
x,1/2-y,z
1/2+x,1/2+y,1/2+z
1/2-x,-y,1/2+z
1/2+x,1/2-y,1/2-z
1/2-x,y,1/2-z
1/2-x,1/2-y,1/2-z
1/2+x,y,1/2-z
1/2-x,1/2+y,1/2+z
1/2+x,-y,1/2+z
loop_
_atom_site_type_symbol
_atom_site_label
_atom_site_fract_x
_atom_site_fract_y
_atom_site_fract_z
Si Si1 0.946879 0.642416 0.683159
Si Si2 0.257322 0.146229 0.520144
Si Si3 0.947229 0.920946 0.236207
Si Si4 0.313365 0.000000 0.000000
Si Si5 0.145446 0.093969 0.876392
O O1 0.926175 0.750000 0.716554
O O2 0.935021 0.535193 0.763303
O O3 0.945264 0.620833 0.452956
O O4 0.000000 0.651140 0.736371
O O5 0.239822 0.250000 0.472783
O O6 0.250000 0.127205 0.750000
O O7 0.312209 0.146365 0.521578
O O8 0.222969 0.075094 0.413120
O O9 0.906105 0.867638 0.126134
O O10 0.000000 0.910450 0.171528
O O11 0.342164 0.059387 0.843135
O O12 0.145287 0.000000 0.000000
#
# Coordination Sequence:
#
# PCOD9538690 Si02
#       5
#    16  16  16   8  16
#     4   8  14  28  52  78 106 147 196 242 287 337
#     4   9  19  37  63  89 116 152 193 242 302 358
#     4   9  18  32  51  81 118 155 198 240 288 350
#     4  10  20  40  63  84 115 152 192 246 304 356
#     4  11  22  37  59  85 119 156 194 243 295 354
#
# _framework density 25.405539000000001
#
# number of rings (size 3 to 8) (size 9 to 14) (size 15 to 20)
#    0.000    2.667    1.111    2.667    0.000    1.333 
#    0.000    8.889    0.000    0.000    0.000    6.222 
#    0.000    0.000    0.000    0.000    0.000    0.000 
#
# Total GULP energy -200433.743343 kJ/mol
# GULP energy per Si atom -5567.603982 kJ/mol
# Density = 2.534772 g / cm^3
# Si number density = 25.405539 Si / 1000 Ang^3
#
#
#
# Elastic Constant Matrix: (Units=GPa)
#
#
# Indices 1 2 3 4 5 6 
#
# 1 150.8707 40.9825 4.8936 0.0000 0.0000 0.0000
# 2 40.9825 146.1878 -0.1870 0.0000 0.0000 0.0000
# 3 4.8936 -0.1870 69.6100 0.0000 0.0000 0.0000
# 4 0.0000 0.0000 0.0000 10.7967 0.0000 0.0000
# 5 0.0000 0.0000 0.0000 0.0000 10.7249 0.0000
# 6 0.0000 0.0000 0.0000 0.0000 0.0000 34.1421
#
#
#
# Elastic Compliance Matrix: (Units=1/GPa)
#
#
# Indices 1 2 3 4 5 6 
#
# 1 0.007193 -0.002017 -0.000511 0.000000 0.000000 0.000000
# 2 -0.002017 0.007406 0.000162 0.000000 0.000000 0.000000
# 3 -0.000511 0.000162 0.014402 0.000000 0.000000 0.000000
# 4 0.000000 0.000000 0.000000 0.092621 0.000000 0.000000
# 5 0.000000 0.000000 0.000000 0.000000 0.093241 0.000000
# 6 0.000000 0.000000 0.000000 0.000000 0.000000 0.029289
#
#
# Mechanical properties :
#
#
# Convention : Reuss Voigt Hill
#
# Bulk Modulus (GPa) = 41.20631 50.89408 46.05019
# Shear Modulus (GPa) = 19.45720 32.53137 25.99428
#
# Velocity S-wave (km/s) = 2.77043 3.58227 3.20218
# Velocity P-wave (km/s) = 5.14668 6.09806 5.64246
#
# Compressibility (1/GPa) = 0.02426813
#
# Stress axis : x y z
#
# Youngs Moduli (GPa) = 139.03011 135.02218 69.43420
#
# Poissons Ratio (x) = 0.27235 0.03549
# Poissons Ratio (y) = 0.28043 -0.01123
# Poissons Ratio (z) = 0.07105 -0.02183
#
# Static dielectric constant tensor:
#      x y z
#    x 2.050150 0.000000 0.000000 
#    y 0.000000 2.054910 0.000000 
#    z 0.000000 0.000000 2.405150 
# 
# From -- ./inp_files/15937.got.cif
#   From: 2010.05.17/outbox.cif.g08.bks.cpg/sg74_8_cif.got.tgz:15937.got - 2010.06.03 17:57:02.
