data_PCOD9538046
_publ_section_title
;
Structure prediction by ZEFSAII (Michael W. Deem and Ramdas Pophale) SiO2 
 PCOD9538046
Probable space group: I M M A
;
_chemical_formula_sum "Si O2"
_cell_formula_units_Z 112
_cell_length_a 24.827220
_cell_length_b 14.793382
_cell_length_c 14.327121
_cell_angle_alpha 90.000000
_cell_angle_beta 90.000000
_cell_angle_gamma 90.000000
_cell_volume 5262.044219
_symmetry_space_group_name_H-M "I M M A"
_symmetry_group_IT_number 74
_symmetry_cell_setting 'orthorhombic'
loop_
_space_group_symop_operation_xyz
x,y,z
-x,1/2-y,z
x,-y,-z
-x,1/2+y,-z
-x,-y,-z
x,1/2+y,-z
-x,y,z
x,1/2-y,z
1/2+x,1/2+y,1/2+z
1/2-x,-y,1/2+z
1/2+x,1/2-y,1/2-z
1/2-x,y,1/2-z
1/2-x,1/2-y,1/2-z
1/2+x,y,1/2-z
1/2-x,1/2+y,1/2+z
1/2+x,-y,1/2+z
loop_
_atom_site_type_symbol
_atom_site_label
_atom_site_fract_x
_atom_site_fract_y
_atom_site_fract_z
Si Si1 0.272627 0.108088 0.990729
Si Si2 0.629289 0.513311 0.708054
Si Si3 0.941439 0.581829 0.074132
Si Si4 0.560512 0.859532 0.065565
Si Si5 0.346513 0.151849 0.455262
Si Si6 0.374397 0.354894 0.116227
Si Si7 0.662799 0.853267 0.193405
O O1 0.213094 0.144640 0.004660
O O2 0.315335 0.141487 0.068504
O O3 0.295474 0.138139 0.890971
O O4 0.272050 0.000000 0.000000
O O5 0.575680 0.463176 0.671382
O O6 0.647987 0.573273 0.620836
O O7 0.622957 0.579607 0.795549
O O8 0.670453 0.432503 0.732377
O O9 0.000000 0.626717 0.079031
O O10 0.945287 0.500000 0.000000
O O11 0.892080 0.639830 0.034325
O O12 0.500000 0.893382 0.081846
O O13 0.558370 0.750000 0.061268
O O14 0.585041 0.887644 0.965521
O O15 0.605210 0.877295 0.144322
O O16 0.354282 0.250000 0.410256
O O17 0.386354 0.250000 0.139509
O O18 0.661798 0.750000 0.228120
#
# Coordination Sequence:
#
# PCOD9538046 Si02
#       7
#    16  16  16  16  16  16  16
#     4  11  20  40  65  89 128 173 212 254 312 385
#     4  11  22  39  60  96 127 156 205 266 323 377
#     4   9  21  43  65  86 120 165 215 266 321 381
#     4   8  16  32  54  83 122 168 212 248 294 368
#     4  11  24  43  67  92 120 162 215 266 324 390
#     4  10  20  35  58  90 131 173 210 258 318 377
#     4  10  21  38  61  90 127 169 209 254 312 377
#
# _framework density 21.284503000000001
#
# number of rings (size 3 to 8) (size 9 to 14) (size 15 to 20)
#    0.000    2.000    1.429    3.857    0.000    2.571 
#    2.571    2.143    0.000    5.143    0.000    0.000 
#    0.000    0.000    0.000    0.000    0.000    0.000 
#
# Total GULP energy -312831.642361 kJ/mol
# GULP energy per Si atom -5586.279328 kJ/mol
# Density = 2.123606 g / cm^3
# Si number density = 21.284503 Si / 1000 Ang^3
#
#
#
# Elastic Constant Matrix: (Units=GPa)
#
#
# Indices 1 2 3 4 5 6 
#
# 1 132.0093 17.5035 33.2060 0.0000 0.0000 0.0000
# 2 17.5035 127.8918 44.4509 0.0000 0.0000 0.0000
# 3 33.2060 44.4509 79.9752 0.0000 0.0000 0.0000
# 4 0.0000 0.0000 0.0000 20.7905 0.0000 0.0000
# 5 0.0000 0.0000 0.0000 0.0000 -1.1205 0.0000
# 6 0.0000 0.0000 0.0000 0.0000 0.0000 11.5170
#
#
#
# Elastic Compliance Matrix: (Units=1/GPa)
#
#
# Indices 1 2 3 4 5 6 
#
# 1 0.008459 0.000078 -0.003556 0.000000 0.000000 0.000000
# 2 0.000078 0.009692 -0.005419 0.000000 0.000000 0.000000
# 3 -0.003556 -0.005419 0.016992 0.000000 0.000000 0.000000
# 4 0.000000 0.000000 0.000000 0.048099 0.000000 0.000000
# 5 0.000000 0.000000 0.000000 0.000000 -0.892454 0.000000
# 6 0.000000 0.000000 0.000000 0.000000 0.000000 0.086828
#
#
# Mechanical properties :
#
#
# Convention : Reuss Voigt Hill
#
# Bulk Modulus (GPa) = 57.63784 58.91077 58.27430
# Shear Modulus (GPa) = -7.15507 22.55179 7.69836
#
# Velocity S-wave (km/s) = -1.83546 3.25859 1.90387
# Velocity P-wave (km/s) = 4.75884 6.47269 5.68077
#
# Compressibility (1/GPa) = 0.01734971
#
# Stress axis : x y z
#
# Youngs Moduli (GPa) = 118.21326 103.17799 58.85005
#
# Poissons Ratio (x) = -0.00806 0.20926
# Poissons Ratio (y) = -0.00923 0.31893
# Poissons Ratio (z) = 0.42034 0.55915
#
# Static dielectric constant tensor:
#      x y z
#    x 1.780110 0.000000 0.000000 
#    y 0.000000 1.801670 0.000000 
#    z 0.000000 0.000000 1.762310 
# 
# From -- ./inp_files/36555.got.cif
#   From: 2010.05.17/outbox.cif.g08.bks.cpg/sg74_19_cif.got.tgz:36555.got - 2010.06.03 17:57:02.
