data_PCOD9538360
_publ_section_title
;
Structure prediction by ZEFSAII (Michael W. Deem and Ramdas Pophale) SiO2 
 PCOD9538360
Probable space group: I M M A
;
_chemical_formula_sum "Si O2"
_cell_formula_units_Z 88
_cell_length_a 24.490191
_cell_length_b 21.089761
_cell_length_c 9.345155
_cell_angle_alpha 90.000000
_cell_angle_beta 90.000000
_cell_angle_gamma 90.000000
_cell_volume 4826.700366
_symmetry_space_group_name_H-M "I M M A"
_symmetry_group_IT_number 74
_symmetry_cell_setting 'orthorhombic'
loop_
_space_group_symop_operation_xyz
x,y,z
-x,1/2-y,z
x,-y,-z
-x,1/2+y,-z
-x,-y,-z
x,1/2+y,-z
-x,y,z
x,1/2-y,z
1/2+x,1/2+y,1/2+z
1/2-x,-y,1/2+z
1/2+x,1/2-y,1/2-z
1/2-x,y,1/2-z
1/2-x,1/2-y,1/2-z
1/2+x,y,1/2-z
1/2-x,1/2+y,1/2+z
1/2+x,-y,1/2+z
loop_
_atom_site_type_symbol
_atom_site_label
_atom_site_fract_x
_atom_site_fract_y
_atom_site_fract_z
Si Si1 0.750000 0.089688 0.750000
Si Si2 0.064280 0.940051 0.105765
Si Si3 0.837959 0.137843 0.269068
Si Si4 0.645699 0.492103 0.832243
Si Si5 0.246639 0.824387 0.979609
Si Si6 0.564243 0.177781 0.403722
O O1 0.766096 0.134051 0.882304
O O2 0.701296 0.045820 0.805527
O O3 0.000000 0.936500 0.139401
O O4 0.099302 0.954863 0.245515
O O5 0.079306 0.875722 0.020761
O O6 0.072495 0.000000 0.000000
O O7 0.846010 0.062578 0.270654
O O8 0.806036 0.158427 0.412487
O O9 0.896391 0.168017 0.232136
O O10 0.797638 0.159145 0.141797
O O11 0.633912 0.500000 0.000000
O O12 0.244744 0.750000 0.010310
O O13 0.500000 0.168502 0.369426
O O14 0.571191 0.250000 0.456420
#
# Coordination Sequence:
#
# PCOD9538360 Si02
#       6
#     8  16  16  16  16  16
#     4  12  25  38  58  88 119 152 196 246 300 358
#     4  10  21  39  64  91 119 154 199 244 288 347
#     4  11  21  38  61  87 116 154 200 244 291 351
#     4  12  25  39  59  88 121 156 195 247 301 348
#     4  11  23  39  60  84 118 157 195 243 299 357
#     4  10  20  36  63  95 122 153 198 248 296 350
#
# _framework density 18.231915999999998
#
# number of rings (size 3 to 8) (size 9 to 14) (size 15 to 20)
#    0.000    1.091    3.636    4.636    0.000    0.364 
#    0.000    0.909    0.000    0.000    0.000    0.000 
#    0.000    0.000    0.000    0.000    0.000    0.000 
#
# Total GULP energy -245770.773038 kJ/mol
# GULP energy per Si atom -5585.699387 kJ/mol
# Density = 1.819042 g / cm^3
# Si number density = 18.231916 Si / 1000 Ang^3
#
#
#
# Elastic Constant Matrix: (Units=GPa)
#
#
# Indices 1 2 3 4 5 6 
#
# 1 68.2173 24.7583 26.1936 0.0000 0.0000 0.0000
# 2 24.7583 127.1662 9.3425 0.0000 0.0000 0.0000
# 3 26.1936 9.3425 56.8623 0.0000 0.0000 0.0000
# 4 0.0000 0.0000 0.0000 -7.1779 0.0000 0.0000
# 5 0.0000 0.0000 0.0000 0.0000 55.5629 0.0000
# 6 0.0000 0.0000 0.0000 0.0000 0.0000 56.6961
#
#
#
# Elastic Compliance Matrix: (Units=1/GPa)
#
#
# Indices 1 2 3 4 5 6 
#
# 1 0.018932 -0.003082 -0.008215 0.000000 0.000000 0.000000
# 2 -0.003082 0.008462 0.000030 0.000000 0.000000 0.000000
# 3 -0.008215 0.000030 0.021365 0.000000 0.000000 0.000000
# 4 0.000000 0.000000 0.000000 -0.139316 0.000000 0.000000
# 5 0.000000 0.000000 0.000000 0.000000 0.017998 0.000000
# 6 0.000000 0.000000 0.000000 0.000000 0.000000 0.017638
#
#
# Mechanical properties :
#
#
# Convention : Reuss Voigt Hill
#
# Bulk Modulus (GPa) = 38.13228 41.42605 39.77916
# Shear Modulus (GPa) = -211.45304 33.81299 -88.82002
#
# Velocity S-wave (km/s) = -10.78107 4.31118 -6.98731
# Velocity P-wave (km/s) = 11.57647 6.89585 6.57502
#
# Compressibility (1/GPa) = 0.02622450
#
# Stress axis : x y z
#
# Youngs Moduli (GPa) = 52.82090 118.18001 46.80449
#
# Poissons Ratio (x) = 0.36428 0.38448
# Poissons Ratio (y) = 0.16282 -0.00139
# Poissons Ratio (z) = 0.43390 -0.00350
#
# Static dielectric constant tensor:
#      x y z
#    x 1.612690 0.000000 0.000000 
#    y 0.000000 1.618460 0.000000 
#    z 0.000000 0.000000 1.609430 
# 
# From -- ./inp_files/13731.got.cif
#   From: 2010.05.17/outbox.cif.g08.bks.cpg/sg74_7_cif.got.tgz:13731.got - 2010.06.03 17:57:02.
