data_PCOD9538993
_publ_section_title
;
Structure prediction by ZEFSAII (Michael W. Deem and Ramdas Pophale) SiO2 
 PCOD9538993
Probable space group: I M M A
;
_chemical_formula_sum "Si O2"
_cell_formula_units_Z 64
_cell_length_a 21.511818
_cell_length_b 14.830139
_cell_length_c 9.426235
_cell_angle_alpha 90.000000
_cell_angle_beta 90.000000
_cell_angle_gamma 90.000000
_cell_volume 3007.188135
_symmetry_space_group_name_H-M "I M M A"
_symmetry_group_IT_number 74
_symmetry_cell_setting 'orthorhombic'
loop_
_space_group_symop_operation_xyz
x,y,z
-x,1/2-y,z
x,-y,-z
-x,1/2+y,-z
-x,-y,-z
x,1/2+y,-z
-x,y,z
x,1/2-y,z
1/2+x,1/2+y,1/2+z
1/2-x,-y,1/2+z
1/2+x,1/2-y,1/2-z
1/2-x,y,1/2-z
1/2-x,1/2-y,1/2-z
1/2+x,y,1/2-z
1/2-x,1/2+y,1/2+z
1/2+x,-y,1/2+z
loop_
_atom_site_type_symbol
_atom_site_label
_atom_site_fract_x
_atom_site_fract_y
_atom_site_fract_z
Si Si1 0.569918 0.141066 0.393355
Si Si2 0.673428 0.646041 0.383949
Si Si3 0.931581 0.400227 0.431021
Si Si4 0.689691 0.097561 0.929661
O O1 0.500000 0.122215 0.447109
O O2 0.574920 0.250000 0.373903
O O3 0.622970 0.113601 0.503255
O O4 0.576120 0.097747 0.238363
O O5 0.658464 0.750000 0.347161
O O6 0.674990 0.591636 0.237555
O O7 0.743489 0.644002 0.443827
O O8 0.933173 0.500000 0.500000
O O9 0.869987 0.356992 0.497318
O O10 0.000000 0.359267 0.458969
O O11 0.697102 0.000000 0.000000
#
# Coordination Sequence:
#
# PCOD9538993 Si02
#       4
#    16  16  16  16
#     4   9  19  36  58  84 112 145 188 234 278 329
#     4  10  22  40  60  83 114 150 190 234 280 334
#     4   9  19  36  56  81 113 147 184 227 278 334
#     4  10  21  36  57  84 115 148 186 231 280 335
#
# _framework density 21.282340000000001
#
# number of rings (size 3 to 8) (size 9 to 14) (size 15 to 20)
#    0.000    2.500    0.000    1.500    0.000   12.000 
#    0.000    2.500    0.000   14.250    0.000    0.000 
#    0.000    0.000    0.000    0.000    0.000    0.000 
#
# Total GULP energy -178572.301967 kJ/mol
# GULP energy per Si atom -5580.384436 kJ/mol
# Density = 2.123390 g / cm^3
# Si number density = 21.282340 Si / 1000 Ang^3
#
#
#
# Elastic Constant Matrix: (Units=GPa)
#
#
# Indices 1 2 3 4 5 6 
#
# 1 203.7466 8.1059 108.6313 0.0000 0.0000 0.0000
# 2 8.1059 80.0917 40.6869 0.0000 0.0000 0.0000
# 3 108.6313 40.6869 134.3221 0.0000 0.0000 0.0000
# 4 0.0000 0.0000 0.0000 56.4261 0.0000 0.0000
# 5 0.0000 0.0000 0.0000 0.0000 47.5302 0.0000
# 6 0.0000 0.0000 0.0000 0.0000 0.0000 19.2433
#
#
#
# Elastic Compliance Matrix: (Units=1/GPa)
#
#
# Indices 1 2 3 4 5 6 
#
# 1 0.009362 0.003426 -0.008609 0.000000 0.000000 0.000000
# 2 0.003426 0.016010 -0.007620 0.000000 0.000000 0.000000
# 3 -0.008609 -0.007620 0.016715 0.000000 0.000000 0.000000
# 4 0.000000 0.000000 0.000000 0.017722 0.000000 0.000000
# 5 0.000000 0.000000 0.000000 0.000000 0.021039 0.000000
# 6 0.000000 0.000000 0.000000 0.000000 0.000000 0.051966
#
#
# Mechanical properties :
#
#
# Convention : Reuss Voigt Hill
#
# Bulk Modulus (GPa) = 60.67692 81.44539 71.06115
# Shear Modulus (GPa) = 30.50360 42.02232 36.26296
#
# Velocity S-wave (km/s) = 3.78998 4.44837 4.13231
# Velocity P-wave (km/s) = 6.90828 8.04588 7.49868
#
# Compressibility (1/GPa) = 0.01648073
#
# Stress axis : x y z
#
# Youngs Moduli (GPa) = 106.81719 62.46071 59.82512
#
# Poissons Ratio (x) = -0.21398 0.51503
# Poissons Ratio (y) = -0.36595 0.45588
# Poissons Ratio (z) = 0.91958 0.47596
#
# Static dielectric constant tensor:
#      x y z
#    x 1.815200 0.000000 0.000000 
#    y 0.000000 1.810700 0.000000 
#    z 0.000000 0.000000 1.719440 
# 
# From -- ./inp_files/13275.got.cif
#   From: 2010.05.17/outbox.cif.g08.bks.cpg/sg74_7_cif.got.tgz:13275.got - 2010.06.03 17:57:02.
