data_PCOD9538577
_publ_section_title
;
Structure prediction by ZEFSAII (Michael W. Deem and Ramdas Pophale) SiO2 
 PCOD9538577
Probable space group: I M M A
;
_chemical_formula_sum "Si O2"
_cell_formula_units_Z 68
_cell_length_a 17.417030
_cell_length_b 7.569938
_cell_length_c 22.799203
_cell_angle_alpha 90.000000
_cell_angle_beta 90.000000
_cell_angle_gamma 90.000000
_cell_volume 3005.980008
_symmetry_space_group_name_H-M "I M M A"
_symmetry_group_IT_number 74
_symmetry_cell_setting 'orthorhombic'
loop_
_space_group_symop_operation_xyz
x,y,z
-x,1/2-y,z
x,-y,-z
-x,1/2+y,-z
-x,-y,-z
x,1/2+y,-z
-x,y,z
x,1/2-y,z
1/2+x,1/2+y,1/2+z
1/2-x,-y,1/2+z
1/2+x,1/2-y,1/2-z
1/2-x,y,1/2-z
1/2-x,1/2-y,1/2-z
1/2+x,y,1/2-z
1/2-x,1/2+y,1/2+z
1/2+x,-y,1/2+z
loop_
_atom_site_type_symbol
_atom_site_label
_atom_site_fract_x
_atom_site_fract_y
_atom_site_fract_z
Si Si1 0.128724 0.465116 0.592741
Si Si2 0.585138 0.047227 0.331231
Si Si3 0.000000 0.250000 0.440173
Si Si4 0.826243 0.448666 0.721750
Si Si5 0.696432 0.957594 0.435171
O O1 0.113128 0.250000 0.586694
O O2 0.066797 0.592610 0.563857
O O3 0.135274 0.515011 0.662217
O O4 0.214072 0.506128 0.569262
O O5 0.500000 0.991015 0.350090
O O6 0.581955 0.250000 0.311719
O O7 0.614224 0.944260 0.274645
O O8 0.645084 0.037422 0.384042
O O9 0.801070 0.250000 0.704327
O O10 0.750000 0.536315 0.750000
O O11 0.692713 0.750000 0.425567
O O12 0.667467 0.000000 0.500000
#
# Coordination Sequence:
#
# PCOD9538577 Si02
#       5
#    16  16   4  16  16
#     4  10  24  43  66 101 134 175 230 275 338 413
#     4  11  25  40  62 101 138 172 223 274 327 397
#     4  12  26  40  72  94 140 176 220 280 356 384
#     4  10  20  38  63  92 132 176 220 268 329 396
#     4  11  24  45  72  94 127 174 224 278 335 401
#
# _framework density 22.621573000000001
#
# number of rings (size 3 to 8) (size 9 to 14) (size 15 to 20)
#    0.000    1.412    2.353    1.765    6.588    2.824 
#    0.000    0.588    0.000    0.000    0.000    0.000 
#    0.000    0.000    0.000    0.000    0.000    0.000 
#
# Total GULP energy -189482.234802 kJ/mol
# GULP energy per Si atom -5573.006906 kJ/mol
# Density = 2.257009 g / cm^3
# Si number density = 22.621573 Si / 1000 Ang^3
#
#
#
# Elastic Constant Matrix: (Units=GPa)
#
#
# Indices 1 2 3 4 5 6 
#
# 1 116.6776 44.2147 11.5214 0.0000 0.0000 0.0000
# 2 44.2147 88.4261 12.1889 0.0000 0.0000 0.0000
# 3 11.5214 12.1889 112.1694 0.0000 0.0000 0.0000
# 4 0.0000 0.0000 0.0000 9.4645 0.0000 0.0000
# 5 0.0000 0.0000 0.0000 0.0000 -21.3673 0.0000
# 6 0.0000 0.0000 0.0000 0.0000 0.0000 -145.1442
#
#
#
# Elastic Compliance Matrix: (Units=1/GPa)
#
#
# Indices 1 2 3 4 5 6 
#
# 1 0.010604 -0.005230 -0.000521 0.000000 0.000000 0.000000
# 2 -0.005230 0.014061 -0.000991 0.000000 0.000000 0.000000
# 3 -0.000521 -0.000991 0.009076 0.000000 0.000000 0.000000
# 4 0.000000 0.000000 0.000000 0.105658 0.000000 0.000000
# 5 0.000000 0.000000 0.000000 0.000000 -0.046800 0.000000
# 6 0.000000 0.000000 0.000000 0.000000 0.000000 -0.006890
#
#
# Mechanical properties :
#
#
# Convention : Reuss Voigt Hill
#
# Bulk Modulus (GPa) = 49.36516 50.34700 49.85608
# Shear Modulus (GPa) = 47.19427 -14.78619 16.20404
#
# Velocity S-wave (km/s) = 4.57250 -2.55940 2.67930
# Velocity P-wave (km/s) = 7.05313 3.68381 5.62659
#
# Compressibility (1/GPa) = 0.02025720
#
# Stress axis : x y z
#
# Youngs Moduli (GPa) = 94.30290 71.11988 110.17787
#
# Poissons Ratio (x) = 0.37199 0.05738
# Poissons Ratio (y) = 0.49325 0.10915
# Poissons Ratio (z) = 0.04912 0.07046
#
# Static dielectric constant tensor:
#      x y z
#    x 1.835000 0.000000 0.000000 
#    y 0.000000 1.894440 0.000000 
#    z 0.000000 0.000000 1.810260 
# 
# From -- ./inp_files/52605.got.cif
#   From: 2010.05.17/outbox.cif.g08.bks.cpg/sg74_27_cif.got.tgz:52605.got - 2010.06.03 17:57:02.
