data_PCOD9538094
_publ_section_title
;
Structure prediction by ZEFSAII (Michael W. Deem and Ramdas Pophale) SiO2 
 PCOD9538094
Probable space group: I M M A
;
_chemical_formula_sum "Si O2"
_cell_formula_units_Z 116
_cell_length_a 18.640513
_cell_length_b 16.862509
_cell_length_c 17.829998
_cell_angle_alpha 90.000000
_cell_angle_beta 90.000000
_cell_angle_gamma 90.000000
_cell_volume 5604.428710
_symmetry_space_group_name_H-M "I M M A"
_symmetry_group_IT_number 74
_symmetry_cell_setting 'orthorhombic'
loop_
_space_group_symop_operation_xyz
x,y,z
-x,1/2-y,z
x,-y,-z
-x,1/2+y,-z
-x,-y,-z
x,1/2+y,-z
-x,y,z
x,1/2-y,z
1/2+x,1/2+y,1/2+z
1/2-x,-y,1/2+z
1/2+x,1/2-y,1/2-z
1/2-x,y,1/2-z
1/2-x,1/2-y,1/2-z
1/2+x,y,1/2-z
1/2-x,1/2+y,1/2+z
1/2+x,-y,1/2+z
loop_
_atom_site_type_symbol
_atom_site_label
_atom_site_fract_x
_atom_site_fract_y
_atom_site_fract_z
Si Si1 0.082454 0.844923 0.043661
Si Si2 0.086219 0.563197 0.192799
Si Si3 0.145183 0.907153 0.497772
Si Si4 0.127877 0.381617 0.201666
Si Si5 0.586072 0.343892 0.842256
Si Si6 0.420494 0.844444 0.853862
Si Si7 0.211336 0.156888 0.064856
Si Si8 0.000000 0.750000 0.820030
O O1 0.082655 0.750000 0.055246
O O2 0.107729 0.887586 0.119199
O O3 0.000000 0.867810 0.026283
O O4 0.136420 0.862137 0.976487
O O5 0.109230 0.472656 0.185801
O O6 0.109969 0.605596 0.269804
O O7 0.000000 0.566224 0.194511
O O8 0.126823 0.871783 0.416830
O O9 0.098144 0.865377 0.561891
O O10 0.226052 0.891458 0.525124
O O11 0.129311 0.000000 0.500000
O O12 0.133948 0.375421 0.291696
O O13 0.196169 0.359009 0.151899
O O14 0.063657 0.319757 0.181444
O O15 0.500000 0.356064 0.853194
O O16 0.596933 0.250000 0.829378
O O17 0.500000 0.876427 0.835360
O O18 0.423163 0.750000 0.845541
O O19 0.227783 0.250000 0.054558
#
# Coordination Sequence:
#
# PCOD9538094 Si02
#       8
#    16  16  16  16  16  16  16   4
#     4   9  20  37  62  92 123 162 210 265 321 376
#     4  10  20  35  62  98 127 157 203 264 319 369
#     4  12  27  42  60  91 128 170 211 264 311 373
#     4  12  22  37  64  94 128 166 204 260 314 375
#     4  10  21  42  70  97 128 165 209 261 322 382
#     4  11  21  40  67  94 123 157 205 256 311 380
#     4  11  25  42  62  85 126 173 215 257 310 380
#     4  12  20  40  60 100 132 164 214 256 320 378
#
# _framework density 20.697917
#
# number of rings (size 3 to 8) (size 9 to 14) (size 15 to 20)
#    0.000    1.241    2.759    2.897    2.897    5.517 
#    0.000    3.448    0.000    2.483    0.000    0.000 
#    0.000    0.000    0.000    0.000    0.000    0.000 
#
# Total GULP energy -323677.506417 kJ/mol
# GULP energy per Si atom -5580.646662 kJ/mol
# Density = 2.065081 g / cm^3
# Si number density = 20.697917 Si / 1000 Ang^3
#
#
#
# Elastic Constant Matrix: (Units=GPa)
#
#
# Indices 1 2 3 4 5 6 
#
# 1 42.5874 22.6378 18.2811 0.0000 0.0000 0.0000
# 2 22.6378 61.4593 15.2880 0.0000 0.0000 0.0000
# 3 18.2811 15.2880 72.1539 0.0000 0.0000 0.0000
# 4 0.0000 0.0000 0.0000 -10.8060 0.0000 0.0000
# 5 0.0000 0.0000 0.0000 0.0000 28.1939 0.0000
# 6 0.0000 0.0000 0.0000 0.0000 0.0000 23.3587
#
#
#
# Elastic Compliance Matrix: (Units=1/GPa)
#
#
# Indices 1 2 3 4 5 6 
#
# 1 0.031340 -0.010101 -0.005800 0.000000 0.000000 0.000000
# 2 -0.010101 0.020432 -0.001770 0.000000 0.000000 0.000000
# 3 -0.005800 -0.001770 0.015704 0.000000 0.000000 0.000000
# 4 0.000000 0.000000 0.000000 -0.092541 0.000000 0.000000
# 5 0.000000 0.000000 0.000000 0.000000 0.035469 0.000000
# 6 0.000000 0.000000 0.000000 0.000000 0.000000 0.042811
#
#
# Mechanical properties :
#
#
# Convention : Reuss Voigt Hill
#
# Bulk Modulus (GPa) = 31.12007 32.06827 31.59417
# Shear Modulus (GPa) = 50.36898 16.14890 33.25894
#
# Velocity S-wave (km/s) = 4.93843 2.79627 4.01293
# Velocity P-wave (km/s) = 6.89822 5.09437 6.06375
#
# Compressibility (1/GPa) = 0.03213360
#
# Stress axis : x y z
#
# Youngs Moduli (GPa) = 31.90790 48.94338 63.67866
#
# Poissons Ratio (x) = 0.49438 0.36935
# Poissons Ratio (y) = 0.32230 0.11270
# Poissons Ratio (z) = 0.18507 0.08662
#
# Static dielectric constant tensor:
#      x y z
#    x 1.749970 0.000000 0.000000 
#    y 0.000000 2.073000 0.000000 
#    z 0.000000 0.000000 1.752360 
# 
# From -- ./inp_files/44280.got.cif
#   From: 2010.05.17/outbox.cif.g08.bks.cpg/sg74_23_cif.got.tgz:44280.got - 2010.06.03 17:57:02.
