data_PCOD9538446
_publ_section_title
;
Structure prediction by ZEFSAII (Michael W. Deem and Ramdas Pophale) SiO2 
 PCOD9538446
Probable space group: I M M A
;
_chemical_formula_sum "Si O2"
_cell_formula_units_Z 80
_cell_length_a 22.501953
_cell_length_b 19.642398
_cell_length_c 9.706206
_cell_angle_alpha 90.000000
_cell_angle_beta 90.000000
_cell_angle_gamma 90.000000
_cell_volume 4290.068475
_symmetry_space_group_name_H-M "I M M A"
_symmetry_group_IT_number 74
_symmetry_cell_setting 'orthorhombic'
loop_
_space_group_symop_operation_xyz
x,y,z
-x,1/2-y,z
x,-y,-z
-x,1/2+y,-z
-x,-y,-z
x,1/2+y,-z
-x,y,z
x,1/2-y,z
1/2+x,1/2+y,1/2+z
1/2-x,-y,1/2+z
1/2+x,1/2-y,1/2-z
1/2-x,y,1/2-z
1/2-x,1/2-y,1/2-z
1/2+x,y,1/2-z
1/2-x,1/2+y,1/2+z
1/2+x,-y,1/2+z
loop_
_atom_site_type_symbol
_atom_site_label
_atom_site_fract_x
_atom_site_fract_y
_atom_site_fract_z
Si Si1 0.397506 0.079758 0.983141
Si Si2 0.565311 0.326414 0.742285
Si Si3 0.341961 0.828815 0.503640
Si Si4 0.069241 0.668930 0.747463
Si Si5 0.258718 0.068510 0.915798
O O1 0.429582 0.116089 0.856231
O O2 0.327210 0.084835 0.950021
O O3 0.415020 0.122215 0.117796
O O4 0.411996 0.000000 0.000000
O O5 0.500000 0.329196 0.675983
O O6 0.571237 0.250000 0.804269
O O7 0.616017 0.334120 0.629803
O O8 0.324534 0.750000 0.521067
O O9 0.383833 0.847813 0.632204
O O10 0.284916 0.874349 0.475542
O O11 0.075145 0.750000 0.716547
O O12 0.000000 0.658043 0.787207
O O13 0.250000 0.061474 0.750000
O O14 0.244206 0.000000 0.000000
#
# Coordination Sequence:
#
# PCOD9538446 Si02
#       5
#    16  16  16  16  16
#     4  11  24  39  59  88 121 160 203 252 296 356
#     4  10  20  37  61  88 119 157 198 245 305 361
#     4  10  22  39  64  92 120 155 202 253 298 356
#     4  10  22  41  63  90 125 161 198 246 304 362
#     4  11  25  43  64  88 123 164 203 250 304 361
#
# _framework density 18.647722000000002
#
# number of rings (size 3 to 8) (size 9 to 14) (size 15 to 20)
#    0.000    1.600    2.000    1.800    5.600    7.600 
#    0.000    2.000    0.000    3.600    0.000    0.000 
#    0.000    0.000    0.000    0.000    0.000    0.000 
#
# Total GULP energy -223334.721461 kJ/mol
# GULP energy per Si atom -5583.368037 kJ/mol
# Density = 1.860528 g / cm^3
# Si number density = 18.647722 Si / 1000 Ang^3
#
#
#
# Elastic Constant Matrix: (Units=GPa)
#
#
# Indices 1 2 3 4 5 6 
#
# 1 63.9058 37.2386 6.1010 0.0000 0.0000 0.0000
# 2 37.2386 60.1919 30.0377 0.0000 0.0000 0.0000
# 3 6.1010 30.0377 76.0250 0.0000 0.0000 0.0000
# 4 0.0000 0.0000 0.0000 22.5880 0.0000 0.0000
# 5 0.0000 0.0000 0.0000 0.0000 26.1731 0.0000
# 6 0.0000 0.0000 0.0000 0.0000 0.0000 4.2257
#
#
#
# Elastic Compliance Matrix: (Units=1/GPa)
#
#
# Indices 1 2 3 4 5 6 
#
# 1 0.026099 -0.018810 0.005338 0.000000 0.000000 0.000000
# 2 -0.018810 0.034251 -0.012023 0.000000 0.000000 0.000000
# 3 0.005338 -0.012023 0.017476 0.000000 0.000000 0.000000
# 4 0.000000 0.000000 0.000000 0.044271 0.000000 0.000000
# 5 0.000000 0.000000 0.000000 0.000000 0.038207 0.000000
# 6 0.000000 0.000000 0.000000 0.000000 0.000000 0.236645
#
#
# Mechanical properties :
#
#
# Convention : Reuss Voigt Hill
#
# Bulk Modulus (GPa) = 37.26615 38.54193 37.90404
# Shear Modulus (GPa) = 10.94366 19.04707 14.99536
#
# Velocity S-wave (km/s) = 2.42515 3.19943 2.83881
# Velocity P-wave (km/s) = 5.27916 5.86189 5.57814
#
# Compressibility (1/GPa) = 0.02683400
#
# Stress axis : x y z
#
# Youngs Moduli (GPa) = 38.31492 29.19642 57.22268
#
# Poissons Ratio (x) = 0.54920 -0.30543
# Poissons Ratio (y) = 0.72072 0.68799
# Poissons Ratio (z) = -0.20451 0.35103
#
# Static dielectric constant tensor:
#      x y z
#    x 1.630350 0.000000 0.000000 
#    y 0.000000 1.658790 0.000000 
#    z 0.000000 0.000000 1.624690 
# 
# From -- ./inp_files/14894.got.cif
#   From: 2010.05.17/outbox.cif.g08.bks.cpg/sg74_8_cif.got.tgz:14894.got - 2010.06.03 17:57:02.
