data_PCOD9538750
_publ_section_title
;
Structure prediction by ZEFSAII (Michael W. Deem and Ramdas Pophale) SiO2 
 PCOD9538750
Probable space group: I M M A
;
_chemical_formula_sum "Si O2"
_cell_formula_units_Z 68
_cell_length_a 15.656290
_cell_length_b 7.402413
_cell_length_c 28.990202
_cell_angle_alpha 90.000000
_cell_angle_beta 90.000000
_cell_angle_gamma 90.000000
_cell_volume 3359.799882
_symmetry_space_group_name_H-M "I M M A"
_symmetry_group_IT_number 74
_symmetry_cell_setting 'orthorhombic'
loop_
_space_group_symop_operation_xyz
x,y,z
-x,1/2-y,z
x,-y,-z
-x,1/2+y,-z
-x,-y,-z
x,1/2+y,-z
-x,y,z
x,1/2-y,z
1/2+x,1/2+y,1/2+z
1/2-x,-y,1/2+z
1/2+x,1/2-y,1/2-z
1/2-x,y,1/2-z
1/2-x,1/2-y,1/2-z
1/2+x,y,1/2-z
1/2-x,1/2+y,1/2+z
1/2+x,-y,1/2+z
loop_
_atom_site_type_symbol
_atom_site_label
_atom_site_fract_x
_atom_site_fract_y
_atom_site_fract_z
Si Si1 0.500000 0.750000 0.424791
Si Si2 0.096199 0.040545 0.810470
Si Si3 0.762490 0.454456 0.366093
Si Si4 0.348571 0.466873 0.445706
Si Si5 0.402723 0.468821 0.203573
O O1 0.425994 0.590638 0.428528
O O2 0.093379 0.250000 0.825003
O O3 0.000000 0.967157 0.818055
O O4 0.173985 0.953019 0.837251
O O5 0.113451 0.032242 0.755785
O O6 0.791873 0.250000 0.373956
O O7 0.733960 0.524306 0.415765
O O8 0.834184 0.538229 0.333236
O O9 0.338751 0.500000 0.500000
O O10 0.363307 0.250000 0.438637
O O11 0.500000 0.517997 0.191585
O O12 0.397432 0.250000 0.205842
#
# Coordination Sequence:
#
# PCOD9538750 Si02
#       5
#     4  16  16  16  16
#     4  12  24  40  62  82 116 158 184 232 272 338
#     4  10  21  33  49  77 111 144 180 221 272 333
#     4  10  22  36  53  79 108 141 184 231 273 331
#     4  11  24  39  58  85 115 151 189 230 275 334
#     4   9  18  36  58  76 102 142 185 228 280 330
#
# _framework density 20.2393
#
# number of rings (size 3 to 8) (size 9 to 14) (size 15 to 20)
#    0.000    1.882    1.176    2.118    3.294    5.176 
#    0.000    0.000    0.000    0.706    0.000    0.000 
#    0.000    0.000    0.000    0.000    0.000    0.000 
#
# Total GULP energy -189305.699488 kJ/mol
# GULP energy per Si atom -5567.814691 kJ/mol
# Density = 2.019323 g / cm^3
# Si number density = 20.239300 Si / 1000 Ang^3
#
#
#
# Elastic Constant Matrix: (Units=GPa)
#
#
# Indices 1 2 3 4 5 6 
#
# 1 61.4884 9.1229 47.4441 0.0000 0.0000 0.0000
# 2 9.1229 103.2140 13.9617 0.0000 0.0000 0.0000
# 3 47.4441 13.9617 79.4171 0.0000 0.0000 0.0000
# 4 0.0000 0.0000 0.0000 -37.5482 0.0000 0.0000
# 5 0.0000 0.0000 0.0000 0.0000 -25.6508 0.0000
# 6 0.0000 0.0000 0.0000 0.0000 0.0000 -13.8499
#
#
#
# Elastic Compliance Matrix: (Units=1/GPa)
#
#
# Indices 1 2 3 4 5 6 
#
# 1 0.030176 -0.000234 -0.017986 0.000000 0.000000 0.000000
# 2 -0.000234 0.009926 -0.001605 0.000000 0.000000 0.000000
# 3 -0.017986 -0.001605 0.023619 0.000000 0.000000 0.000000
# 4 0.000000 0.000000 0.000000 -0.026632 0.000000 0.000000
# 5 0.000000 0.000000 0.000000 0.000000 -0.038985 0.000000
# 6 0.000000 0.000000 0.000000 0.000000 0.000000 -0.072203
#
#
# Mechanical properties :
#
#
# Convention : Reuss Voigt Hill
#
# Bulk Modulus (GPa) = 41.54489 42.79746 42.17118
# Shear Modulus (GPa) = -189.21631 -3.83706 -96.52668
#
# Velocity S-wave (km/s) = -9.67949 -1.37839 -6.91348
# Velocity P-wave (km/s) = 10.21528 4.31953 6.54575
#
# Compressibility (1/GPa) = 0.02407035
#
# Stress axis : x y z
#
# Youngs Moduli (GPa) = 33.13903 100.74102 42.33902
#
# Poissons Ratio (x) = 0.02360 0.76151
# Poissons Ratio (y) = 0.00776 0.06796
# Poissons Ratio (z) = 0.59604 0.16171
#
# Static dielectric constant tensor:
#      x y z
#    x 1.707400 0.000000 0.000000 
#    y 0.000000 1.787410 0.000000 
#    z 0.000000 0.000000 1.756600 
# 
# From -- ./inp_files/67473.got.cif
#   From: 2010.05.17/outbox.cif.g08.bks.cpg/sg74_34_cif.got.tgz:67473.got - 2010.06.03 17:57:02.
