data_PCOD9538907
_publ_section_title
;
Structure prediction by ZEFSAII (Michael W. Deem and Ramdas Pophale) SiO2 
 PCOD9538907
Probable space group: I M M A
;
_chemical_formula_sum "Si O2"
_cell_formula_units_Z 64
_cell_length_a 9.809602
_cell_length_b 7.548510
_cell_length_c 42.248716
_cell_angle_alpha 90.000000
_cell_angle_beta 90.000000
_cell_angle_gamma 90.000000
_cell_volume 3128.427802
_symmetry_space_group_name_H-M "I M M A"
_symmetry_group_IT_number 74
_symmetry_cell_setting 'orthorhombic'
loop_
_space_group_symop_operation_xyz
x,y,z
-x,1/2-y,z
x,-y,-z
-x,1/2+y,-z
-x,-y,-z
x,1/2+y,-z
-x,y,z
x,1/2-y,z
1/2+x,1/2+y,1/2+z
1/2-x,-y,1/2+z
1/2+x,1/2-y,1/2-z
1/2-x,y,1/2-z
1/2-x,1/2-y,1/2-z
1/2+x,y,1/2-z
1/2-x,1/2+y,1/2+z
1/2+x,-y,1/2+z
loop_
_atom_site_type_symbol
_atom_site_label
_atom_site_fract_x
_atom_site_fract_y
_atom_site_fract_z
Si Si1 0.844485 0.463652 0.836644
Si Si2 0.345556 0.539830 0.777932
Si Si3 0.656160 0.466256 0.591799
Si Si4 0.155129 0.037549 0.535106
O O1 0.848064 0.250000 0.836914
O O2 0.735003 0.517540 0.810699
O O3 0.809063 0.522079 0.872376
O O4 0.000000 0.523743 0.829220
O O5 0.500000 0.467909 0.778448
O O6 0.357449 0.750000 0.772236
O O7 0.250000 0.465217 0.750000
O O8 0.500000 0.517923 0.585677
O O9 0.659785 0.250000 0.591738
O O10 0.754640 0.529660 0.564087
O O11 0.149038 0.250000 0.538138
O O12 0.000000 0.968729 0.536412
O O13 0.210719 0.000000 0.500000
#
# Coordination Sequence:
#
# PCOD9538907 Si02
#       4
#    16  16  16  16
#     4   9  18  33  53  76 100 126 159 200 244 288
#     4  10  21  36  53  73  98 130 165 198 237 286
#     4   8  15  29  48  69  93 121 153 190 232 278
#     4   9  17  29  45  65  90 121 155 190 230 275
#
# _framework density 20.457561999999999
#
# number of rings (size 3 to 8) (size 9 to 14) (size 15 to 20)
#    0.000    3.000    0.000    2.250    0.000    4.000 
#    0.000    3.750    0.000    4.500    0.000    0.000 
#    0.000    0.000    0.000    0.000    0.000    0.000 
#
# Total GULP energy -178514.745768 kJ/mol
# GULP energy per Si atom -5578.585805 kJ/mol
# Density = 2.041100 g / cm^3
# Si number density = 20.457562 Si / 1000 Ang^3
#
#
#
# Elastic Constant Matrix: (Units=GPa)
#
#
# Indices 1 2 3 4 5 6 
#
# 1 157.9504 6.4898 138.4501 0.0000 0.0000 0.0000
# 2 6.4898 48.6515 -1.2457 0.0000 0.0000 0.0000
# 3 138.4501 -1.2457 186.6498 0.0000 0.0000 0.0000
# 4 0.0000 0.0000 0.0000 15.1165 0.0000 0.0000
# 5 0.0000 0.0000 0.0000 0.0000 36.6892 0.0000
# 6 0.0000 0.0000 0.0000 0.0000 0.0000 12.5634
#
#
#
# Elastic Compliance Matrix: (Units=1/GPa)
#
#
# Indices 1 2 3 4 5 6 
#
# 1 0.018476 -0.002816 -0.013724 0.000000 0.000000 0.000000
# 2 -0.002816 0.020987 0.002229 0.000000 0.000000 0.000000
# 3 -0.013724 0.002229 0.015552 0.000000 0.000000 0.000000
# 4 0.000000 0.000000 0.000000 0.066153 0.000000 0.000000
# 5 0.000000 0.000000 0.000000 0.000000 0.027256 0.000000
# 6 0.000000 0.000000 0.000000 0.000000 0.000000 0.079596
#
#
# Mechanical properties :
#
#
# Convention : Reuss Voigt Hill
#
# Bulk Modulus (GPa) = 37.88775 75.62668 56.75721
# Shear Modulus (GPa) = 18.83661 29.51100 24.17380
#
# Velocity S-wave (km/s) = 3.03770 3.80221 3.44125
# Velocity P-wave (km/s) = 5.55553 7.50490 6.60255
#
# Compressibility (1/GPa) = 0.02639375
#
# Stress axis : x y z
#
# Youngs Moduli (GPa) = 54.12315 47.64844 64.29874
#
# Poissons Ratio (x) = 0.13418 0.88243
# Poissons Ratio (y) = 0.15241 -0.14331
# Poissons Ratio (z) = 0.74278 -0.10620
#
# Static dielectric constant tensor:
#      x y z
#    x 1.713660 0.000000 0.000000 
#    y 0.000000 1.793630 0.000000 
#    z 0.000000 0.000000 1.707920 
# 
# From -- ./inp_files/69729.got.cif
#   From: 2010.05.17/outbox.cif.g08.bks.cpg/sg74_35_cif.got.tgz:69729.got - 2010.06.03 17:57:02.
