data_PCOD9538207
_publ_section_title
;
Structure prediction by ZEFSAII (Michael W. Deem and Ramdas Pophale) SiO2 
 PCOD9538207
Probable space group: I M M A
;
_chemical_formula_sum "Si O2"
_cell_formula_units_Z 64
_cell_length_a 8.906347
_cell_length_b 13.636641
_cell_length_c 27.811656
_cell_angle_alpha 90.000000
_cell_angle_beta 90.000000
_cell_angle_gamma 90.000000
_cell_volume 3377.799507
_symmetry_space_group_name_H-M "I M M A"
_symmetry_group_IT_number 74
_symmetry_cell_setting 'orthorhombic'
loop_
_space_group_symop_operation_xyz
x,y,z
-x,1/2-y,z
x,-y,-z
-x,1/2+y,-z
-x,-y,-z
x,1/2+y,-z
-x,y,z
x,1/2-y,z
1/2+x,1/2+y,1/2+z
1/2-x,-y,1/2+z
1/2+x,1/2-y,1/2-z
1/2-x,y,1/2-z
1/2-x,1/2-y,1/2-z
1/2+x,y,1/2-z
1/2-x,1/2+y,1/2+z
1/2+x,-y,1/2+z
loop_
_atom_site_type_symbol
_atom_site_label
_atom_site_fract_x
_atom_site_fract_y
_atom_site_fract_z
Si Si1 0.818483 0.363523 0.870136
Si Si2 0.829048 0.109132 0.981384
Si Si3 0.318548 0.032212 0.197834
Si Si4 0.323814 0.250000 0.053046
Si Si5 0.182739 0.750000 0.661551
O O1 0.780432 0.250000 0.856694
O O2 0.777689 0.378247 0.926438
O O3 0.742389 0.449231 0.838843
O O4 0.000000 0.373356 0.866336
O O5 0.727594 0.161114 0.020391
O O6 0.000000 0.146859 0.982854
O O7 0.834368 0.000000 0.000000
O O8 0.500000 0.028433 0.198523
O O9 0.250000 0.010621 0.250000
O O10 0.272793 0.144939 0.184353
O O11 0.500000 0.250000 0.058949
O O12 0.259619 0.250000 0.106668
O O13 0.000000 0.750000 0.662580
#
# Coordination Sequence:
#
# PCOD9538207 Si02
#       5
#    16  16  16   8   8
#     4  10  21  39  60  85 122 160 198 247 296 349
#     4  10  20  36  58  84 117 157 199 242 288 342
#     4  11  23  41  64  88 117 153 200 250 306 362
#     4  11  21  34  56  86 121 155 190 232 289 350
#     4   9  21  40  60  88 124 157 191 246 303 360
#
# _framework density 18.947247000000001
#
# number of rings (size 3 to 8) (size 9 to 14) (size 15 to 20)
#    0.000    1.750    1.250    3.000    0.000    2.500 
#    0.000    5.625    0.000    0.000    0.000    0.000 
#    0.000    0.000    0.000    0.000    0.000    0.000 
#
# Total GULP energy -178435.771652 kJ/mol
# GULP energy per Si atom -5576.117864 kJ/mol
# Density = 1.890412 g / cm^3
# Si number density = 18.947247 Si / 1000 Ang^3
#
#
#
# Elastic Constant Matrix: (Units=GPa)
#
#
# Indices 1 2 3 4 5 6 
#
# 1 33.1497 23.8544 19.7639 0.0000 0.0000 0.0000
# 2 23.8544 155.4601 43.1949 0.0000 0.0000 0.0000
# 3 19.7639 43.1949 107.3037 0.0000 0.0000 0.0000
# 4 0.0000 0.0000 0.0000 -3.1682 0.0000 0.0000
# 5 0.0000 0.0000 0.0000 0.0000 13.9406 0.0000
# 6 0.0000 0.0000 0.0000 0.0000 0.0000 33.0956
#
#
#
# Elastic Compliance Matrix: (Units=1/GPa)
#
#
# Indices 1 2 3 4 5 6 
#
# 1 0.036129 -0.004160 -0.004980 0.000000 0.000000 0.000000
# 2 -0.004160 0.007722 -0.002342 0.000000 0.000000 0.000000
# 3 -0.004980 -0.002342 0.011179 0.000000 0.000000 0.000000
# 4 0.000000 0.000000 0.000000 -0.315632 0.000000 0.000000
# 5 0.000000 0.000000 0.000000 0.000000 0.071733 0.000000
# 6 0.000000 0.000000 0.000000 0.000000 0.000000 0.030216
#
#
# Mechanical properties :
#
#
# Convention : Reuss Voigt Hill
#
# Bulk Modulus (GPa) = 31.18593 52.17108 41.67850
# Shear Modulus (GPa) = -39.99952 22.71361 -8.64295
#
# Velocity S-wave (km/s) = -4.59965 3.46610 -2.13810
# Velocity P-wave (km/s) = 3.42257 6.60402 3.99369
#
# Compressibility (1/GPa) = 0.03206575
#
# Stress axis : x y z
#
# Youngs Moduli (GPa) = 27.67886 129.50668 89.45064
#
# Poissons Ratio (x) = 0.53876 0.44544
# Poissons Ratio (y) = 0.11515 0.20950
# Poissons Ratio (z) = 0.13783 0.30332
#
# Static dielectric constant tensor:
#      x y z
#    x 1.651610 0.000000 0.000000 
#    y 0.000000 1.700550 0.000000 
#    z 0.000000 0.000000 1.631260 
# 
# From -- ./inp_files/56433.got.cif
#   From: 2010.05.17/outbox.cif.g08.bks.cpg/sg74_29_cif.got.tgz:56433.got - 2010.06.03 17:57:02.
