data_PCOD9538140
_publ_section_title
;
Structure prediction by ZEFSAII (Michael W. Deem and Ramdas Pophale) SiO2 
 PCOD9538140
Probable space group: I M M A
;
_chemical_formula_sum "Si O2"
_cell_formula_units_Z 104
_cell_length_a 8.811220
_cell_length_b 26.749978
_cell_length_c 24.523006
_cell_angle_alpha 90.000000
_cell_angle_beta 90.000000
_cell_angle_gamma 90.000000
_cell_volume 5780.071071
_symmetry_space_group_name_H-M "I M M A"
_symmetry_group_IT_number 74
_symmetry_cell_setting 'orthorhombic'
loop_
_space_group_symop_operation_xyz
x,y,z
-x,1/2-y,z
x,-y,-z
-x,1/2+y,-z
-x,-y,-z
x,1/2+y,-z
-x,y,z
x,1/2-y,z
1/2+x,1/2+y,1/2+z
1/2-x,-y,1/2+z
1/2+x,1/2-y,1/2-z
1/2-x,y,1/2-z
1/2-x,1/2-y,1/2-z
1/2+x,y,1/2-z
1/2-x,1/2+y,1/2+z
1/2+x,-y,1/2+z
loop_
_atom_site_type_symbol
_atom_site_label
_atom_site_fract_x
_atom_site_fract_y
_atom_site_fract_z
Si Si1 0.183378 0.692054 0.101964
Si Si2 0.819550 0.380499 0.514845
Si Si3 0.681580 0.920590 0.593909
Si Si4 0.317535 0.359239 0.189253
Si Si5 0.682408 0.462801 0.593402
Si Si6 0.818355 0.890550 0.189977
Si Si7 0.181801 0.250000 0.310515
O O1 0.226226 0.750000 0.107970
O O2 0.252988 0.666373 0.048370
O O3 0.229393 0.657559 0.153612
O O4 0.000000 0.689053 0.098135
O O5 0.751522 0.388472 0.455093
O O6 0.767037 0.428926 0.549409
O O7 0.000000 0.377201 0.512452
O O8 0.500000 0.916511 0.592983
O O9 0.746953 0.900396 0.650381
O O10 0.720549 0.979187 0.587895
O O11 0.500000 0.363234 0.191355
O O12 0.250000 0.362688 0.250000
O O13 0.275675 0.303879 0.165630
O O14 0.500000 0.456934 0.585238
O O15 0.718668 0.438838 0.652529
O O16 0.750000 0.891616 0.250000
O O17 0.000000 0.888567 0.195065
O O18 0.250000 0.250000 0.250000
O O19 0.000000 0.250000 0.306283
#
# Coordination Sequence:
#
# PCOD9538140 Si02
#       7
#    16  16  16  16  16  16   8
#     4   9  19  38  60  79 107 149 191 230 275 328
#     4  11  22  36  56  83 111 140 178 228 282 334
#     4  11  22  37  57  81 108 144 187 228 273 328
#     4  10  20  36  56  80 109 141 178 223 273 325
#     4   9  20  38  57  76 106 147 186 226 272 324
#     4   9  18  33  53  80 111 144 183 225 270 323
#     4   8  16  32  54  74  98 134 170 208 255 306
#
# _framework density 17.992857999999998
#
# number of rings (size 3 to 8) (size 9 to 14) (size 15 to 20)
#    0.000    2.308    0.000    3.692    0.000    7.385 
#    1.385    1.538    0.000    0.000    0.000    0.000 
#    0.000    0.000    0.000    0.000    0.000    0.000 
#
# Total GULP energy -290082.267574 kJ/mol
# GULP energy per Si atom -5578.505146 kJ/mol
# Density = 1.795191 g / cm^3
# Si number density = 17.992858 Si / 1000 Ang^3
#
#
#
# Elastic Constant Matrix: (Units=GPa)
#
#
# Indices 1 2 3 4 5 6 
#
# 1 29.2752 12.0354 21.4118 0.0000 0.0000 0.0000
# 2 12.0354 23.8423 9.4019 0.0000 0.0000 0.0000
# 3 21.4118 9.4019 97.1188 0.0000 0.0000 0.0000
# 4 0.0000 0.0000 0.0000 10.8487 0.0000 0.0000
# 5 0.0000 0.0000 0.0000 0.0000 33.0857 0.0000
# 6 0.0000 0.0000 0.0000 0.0000 0.0000 17.0703
#
#
#
# Elastic Compliance Matrix: (Units=1/GPa)
#
#
# Indices 1 2 3 4 5 6 
#
# 1 0.049440 -0.021479 -0.008821 0.000000 0.000000 0.000000
# 2 -0.021479 0.052938 -0.000389 0.000000 0.000000 0.000000
# 3 -0.008821 -0.000389 0.012279 0.000000 0.000000 0.000000
# 4 0.000000 0.000000 0.000000 0.092177 0.000000 0.000000
# 5 0.000000 0.000000 0.000000 0.000000 0.030225 0.000000
# 6 0.000000 0.000000 0.000000 0.000000 0.000000 0.058581
#
#
# Mechanical properties :
#
#
# Convention : Reuss Voigt Hill
#
# Bulk Modulus (GPa) = 18.76890 26.21494 22.49192
# Shear Modulus (GPa) = 13.34122 19.36007 16.35064
#
# Velocity S-wave (km/s) = 2.72595 3.28378 3.01778
# Velocity P-wave (km/s) = 4.51240 5.38321 4.96692
#
# Compressibility (1/GPa) = 0.05327964
#
# Stress axis : x y z
#
# Youngs Moduli (GPa) = 20.22642 18.88997 81.43934
#
# Poissons Ratio (x) = 0.40573 0.71836
# Poissons Ratio (y) = 0.43444 0.03172
# Poissons Ratio (z) = 0.17841 0.00736
#
# Static dielectric constant tensor:
#      x y z
#    x 1.601340 0.000000 0.000000 
#    y 0.000000 1.630110 0.000000 
#    z 0.000000 0.000000 1.599140 
# 
# From -- ./inp_files/49302.got.cif
#   From: 2010.05.17/outbox.cif.g08.bks.cpg/sg74_25_cif.got.tgz:49302.got - 2010.06.03 17:57:02.
