data_PCOD9538134
_publ_section_title
;
Structure prediction by ZEFSAII (Michael W. Deem and Ramdas Pophale) SiO2 
 PCOD9538134
Probable space group: I M M A
;
_chemical_formula_sum "Si O2"
_cell_formula_units_Z 56
_cell_length_a 9.465311
_cell_length_b 7.916524
_cell_length_c 41.001908
_cell_angle_alpha 90.000000
_cell_angle_beta 90.000000
_cell_angle_gamma 90.000000
_cell_volume 3072.369801
_symmetry_space_group_name_H-M "I M M A"
_symmetry_group_IT_number 74
_symmetry_cell_setting 'orthorhombic'
loop_
_space_group_symop_operation_xyz
x,y,z
-x,1/2-y,z
x,-y,-z
-x,1/2+y,-z
-x,-y,-z
x,1/2+y,-z
-x,y,z
x,1/2-y,z
1/2+x,1/2+y,1/2+z
1/2-x,-y,1/2+z
1/2+x,1/2-y,1/2-z
1/2-x,y,1/2-z
1/2-x,1/2-y,1/2-z
1/2+x,y,1/2-z
1/2-x,1/2+y,1/2+z
1/2+x,-y,1/2+z
loop_
_atom_site_type_symbol
_atom_site_label
_atom_site_fract_x
_atom_site_fract_y
_atom_site_fract_z
Si Si1 0.335398 0.454733 0.901756
Si Si2 0.828289 0.437803 0.330139
Si Si3 0.828407 0.750000 0.284348
Si Si4 0.838351 0.453346 0.964422
O O1 0.500000 0.501111 0.905396
O O2 0.328554 0.250000 0.899842
O O3 0.282000 0.524677 0.867206
O O4 0.249597 0.513092 0.933330
O O5 0.783837 0.250000 0.320109
O O6 0.787163 0.585393 0.305469
O O7 0.000000 0.441803 0.331144
O O8 0.750000 0.750000 0.250000
O O9 0.000000 0.750000 0.280451
O O10 0.841613 0.250000 0.962750
O O11 0.000000 0.516456 0.962872
O O12 0.779563 0.500000 0.000000
#
# Coordination Sequence:
#
# PCOD9538134 Si02
#       4
#    16  16   8  16
#     4   9  16  29  49  70  92 122 163 208 249 291
#     4   9  17  31  53  78 102 132 169 206 249 301
#     4  10  20  36  56  78 106 138 168 204 252 302
#     4   9  18  31  45  63  92 130 165 199 246 300
#
# _framework density 18.226973999999998
#
# number of rings (size 3 to 8) (size 9 to 14) (size 15 to 20)
#    0.000    2.857    1.429    0.000    0.000    2.286 
#    0.000    1.429    0.000    1.714    0.000    0.000 
#    0.000    0.000    0.000    0.000    0.000    0.000 
#
# Total GULP energy -156078.906331 kJ/mol
# GULP energy per Si atom -5574.246655 kJ/mol
# Density = 1.818549 g / cm^3
# Si number density = 18.226974 Si / 1000 Ang^3
#
#
#
# Elastic Constant Matrix: (Units=GPa)
#
#
# Indices 1 2 3 4 5 6 
#
# 1 26.4071 25.5261 49.8557 0.0000 0.0000 0.0000
# 2 25.5261 90.3757 77.5158 0.0000 0.0000 0.0000
# 3 49.8557 77.5158 192.8357 0.0000 0.0000 0.0000
# 4 0.0000 0.0000 0.0000 19.8323 0.0000 0.0000
# 5 0.0000 0.0000 0.0000 0.0000 35.2097 0.0000
# 6 0.0000 0.0000 0.0000 0.0000 0.0000 3.3155
#
#
#
# Elastic Compliance Matrix: (Units=1/GPa)
#
#
# Indices 1 2 3 4 5 6 
#
# 1 0.076868 -0.007120 -0.017011 0.000000 0.000000 0.000000
# 2 -0.007120 0.017547 -0.005213 0.000000 0.000000 0.000000
# 3 -0.017011 -0.005213 0.011679 0.000000 0.000000 0.000000
# 4 0.000000 0.000000 0.000000 0.050423 0.000000 0.000000
# 5 0.000000 0.000000 0.000000 0.000000 0.028401 0.000000
# 6 0.000000 0.000000 0.000000 0.000000 0.000000 0.301609
#
#
# Mechanical properties :
#
#
# Convention : Reuss Voigt Hill
#
# Bulk Modulus (GPa) = 21.09449 68.37930 44.73690
# Shear Modulus (GPa) = 8.91238 22.11956 15.51597
#
# Velocity S-wave (km/s) = 2.21366 3.48740 2.92081
# Velocity P-wave (km/s) = 4.25818 7.33572 5.99770
#
# Compressibility (1/GPa) = 0.04740574
#
# Stress axis : x y z
#
# Youngs Moduli (GPa) = 13.00934 56.99014 85.62249
#
# Poissons Ratio (x) = 0.40579 1.45654
# Poissons Ratio (y) = 0.09263 0.44631
# Poissons Ratio (z) = 0.22130 0.29707
#
# Static dielectric constant tensor:
#      x y z
#    x 1.614740 0.000000 0.000000 
#    y 0.000000 1.652000 0.000000 
#    z 0.000000 0.000000 1.607010 
# 
# From -- ./inp_files/63249.got.cif
#   From: 2010.05.17/outbox.cif.g08.bks.cpg/sg74_32_cif.got.tgz:63249.got - 2010.06.03 17:57:02.
