data_PCOD9538451
_publ_section_title
;
Structure prediction by ZEFSAII (Michael W. Deem and Ramdas Pophale) SiO2 
 PCOD9538451
Probable space group: I M M A
;
_chemical_formula_sum "Si O2"
_cell_formula_units_Z 116
_cell_length_a 7.967267
_cell_length_b 26.979771
_cell_length_c 23.505851
_cell_angle_alpha 90.000000
_cell_angle_beta 90.000000
_cell_angle_gamma 90.000000
_cell_volume 5052.701122
_symmetry_space_group_name_H-M "I M M A"
_symmetry_group_IT_number 74
_symmetry_cell_setting 'orthorhombic'
loop_
_space_group_symop_operation_xyz
x,y,z
-x,1/2-y,z
x,-y,-z
-x,1/2+y,-z
-x,-y,-z
x,1/2+y,-z
-x,y,z
x,1/2-y,z
1/2+x,1/2+y,1/2+z
1/2-x,-y,1/2+z
1/2+x,1/2-y,1/2-z
1/2-x,y,1/2-z
1/2-x,1/2-y,1/2-z
1/2+x,y,1/2-z
1/2-x,1/2+y,1/2+z
1/2+x,-y,1/2+z
loop_
_atom_site_type_symbol
_atom_site_label
_atom_site_fract_x
_atom_site_fract_y
_atom_site_fract_z
Si Si1 0.688531 0.457292 0.355403
Si Si2 0.306625 0.193846 0.420525
Si Si3 0.795084 0.176231 0.658756
Si Si4 0.296697 0.555406 0.981411
Si Si5 0.697530 0.939693 0.184841
Si Si6 0.688216 0.362239 0.188088
Si Si7 0.806508 0.151414 0.537307
Si Si8 0.500000 0.250000 0.695178
O O1 0.500000 0.447120 0.336988
O O2 0.718163 0.439241 0.419580
O O3 0.721368 0.515750 0.350724
O O4 0.803104 0.421896 0.317299
O O5 0.500000 0.192136 0.439086
O O6 0.261180 0.250000 0.405652
O O7 0.287574 0.160812 0.364616
O O8 0.205388 0.177017 0.476069
O O9 0.769163 0.117537 0.669472
O O10 0.747951 0.182601 0.591504
O O11 0.653429 0.207226 0.691878
O O12 0.000000 0.187792 0.668613
O O13 0.500000 0.560663 0.975940
O O14 0.232582 0.596871 0.025262
O O15 0.260765 0.500000 0.000000
O O16 0.500000 0.946722 0.178233
O O17 0.750000 0.947121 0.250000
O O18 0.500000 0.345102 0.179870
O O19 0.750000 0.347249 0.250000
O O20 0.000000 0.142471 0.552545
#
# Coordination Sequence:
#
# PCOD9538451 Si02
#       8
#    16  16  16  16  16  16  16   4
#     4  12  24  39  63  99 135 175 222 272 332 402
#     4  11  25  42  64  95 129 170 221 276 335 396
#     4  10  25  46  71 104 141 181 231 287 352 415
#     4  10  20  37  61  91 133 177 218 264 331 396
#     4  11  24  45  72  99 138 178 226 283 340 414
#     4  12  25  44  67  92 129 171 221 275 333 394
#     4  10  21  39  64  95 134 178 221 276 333 402
#     4  12  26  44  78 102 140 180 236 290 346 428
#
# _framework density 22.958016000000001
#
# number of rings (size 3 to 8) (size 9 to 14) (size 15 to 20)
#    0.000    1.103    1.379    4.759    3.862    3.862 
#    0.000    0.345    0.000    0.000    0.000    0.000 
#    0.000    0.000    0.000    0.000    0.000    0.000 
#
# Total GULP energy -323609.036070 kJ/mol
# GULP energy per Si atom -5579.466139 kJ/mol
# Density = 2.290576 g / cm^3
# Si number density = 22.958016 Si / 1000 Ang^3
#
#
#
# Elastic Constant Matrix: (Units=GPa)
#
#
# Indices 1 2 3 4 5 6 
#
# 1 66.6663 21.6475 14.5247 0.0000 0.0000 0.0000
# 2 21.6475 103.4772 5.3606 0.0000 0.0000 0.0000
# 3 14.5247 5.3606 67.6677 -0.0001 0.0000 0.0000
# 4 0.0000 0.0000 -0.0001 8.4489 0.0000 0.0000
# 5 0.0000 0.0000 0.0000 0.0000 25.8578 0.0000
# 6 0.0000 0.0000 0.0000 0.0000 0.0000 29.8149
#
#
#
# Elastic Compliance Matrix: (Units=1/GPa)
#
#
# Indices 1 2 3 4 5 6 
#
# 1 0.016815 -0.003344 -0.003344 0.000000 0.000000 0.000000
# 2 -0.003344 0.010369 -0.000104 0.000000 0.000000 0.000000
# 3 -0.003344 -0.000104 0.015504 0.000000 0.000000 0.000000
# 4 0.000000 0.000000 0.000000 0.118358 0.000000 0.000000
# 5 0.000000 0.000000 0.000000 0.000000 0.038673 0.000000
# 6 0.000000 0.000000 0.000000 0.000000 0.000000 0.033540
#
#
# Mechanical properties :
#
#
# Convention : Reuss Voigt Hill
#
# Bulk Modulus (GPa) = 34.36031 35.65296 35.00664
# Shear Modulus (GPa) = 19.48978 25.90955 22.69966
#
# Velocity S-wave (km/s) = 2.91680 3.36305 3.14785
# Velocity P-wave (km/s) = 5.13252 5.53566 5.33789
#
# Compressibility (1/GPa) = 0.02910334
#
# Stress axis : x y z
#
# Youngs Moduli (GPa) = 59.47184 96.44154 64.49884
#
# Poissons Ratio (x) = 0.32254 0.21570
# Poissons Ratio (y) = 0.19890 0.00668
# Poissons Ratio (z) = 0.19889 0.00999
#
# Static dielectric constant tensor:
#      x y z
#    x 1.821680 0.000000 0.000000 
#    y 0.000000 1.877290 0.000000 
#    z 0.000000 0.000000 1.611170 
# 
# From -- ./inp_files/57716.got.cif
#   From: 2010.05.17/outbox.cif.g08.bks.cpg/sg74_29_cif.got.tgz:57716.got - 2010.06.03 17:57:02.
