data_PCOD9538936
_publ_section_title
;
Structure prediction by ZEFSAII (Michael W. Deem and Ramdas Pophale) SiO2 
 PCOD9538936
Probable space group: I M M A
;
_chemical_formula_sum "Si O2"
_cell_formula_units_Z 80
_cell_length_a 26.587694
_cell_length_b 28.001549
_cell_length_c 4.991841
_cell_angle_alpha 90.000000
_cell_angle_beta 90.000000
_cell_angle_gamma 90.000000
_cell_volume 3716.408734
_symmetry_space_group_name_H-M "I M M A"
_symmetry_group_IT_number 74
_symmetry_cell_setting 'orthorhombic'
loop_
_space_group_symop_operation_xyz
x,y,z
-x,1/2-y,z
x,-y,-z
-x,1/2+y,-z
-x,-y,-z
x,1/2+y,-z
-x,y,z
x,1/2-y,z
1/2+x,1/2+y,1/2+z
1/2-x,-y,1/2+z
1/2+x,1/2-y,1/2-z
1/2-x,y,1/2-z
1/2-x,1/2-y,1/2-z
1/2+x,y,1/2-z
1/2-x,1/2+y,1/2+z
1/2+x,-y,1/2+z
loop_
_atom_site_type_symbol
_atom_site_label
_atom_site_fract_x
_atom_site_fract_y
_atom_site_fract_z
Si Si1 0.440622 0.302332 0.353071
Si Si2 0.213908 0.804781 0.994191
Si Si3 0.058257 0.862513 0.367578
Si Si4 0.195006 0.447763 0.384144
Si Si5 0.653564 0.102800 0.616824
O O1 0.500000 0.299777 0.282286
O O2 0.418674 0.250000 0.308679
O O3 0.439537 0.318056 0.660539
O O4 0.422181 0.343239 0.152104
O O5 0.196520 0.750000 0.949264
O O6 0.250000 0.804392 0.250000
O O7 0.170452 0.843496 0.036936
O O8 0.250000 0.819280 0.750000
O O9 0.097790 0.898686 0.239928
O O10 0.000000 0.878645 0.381160
O O11 0.183539 0.500000 0.500000
O O12 0.250000 0.448057 0.250000
O O13 0.189828 0.413485 0.640407
O O14 0.159939 0.430198 0.142088
#
# Coordination Sequence:
#
# PCOD9538936 Si02
#       5
#    16  16  16  16  16
#     4   9  17  31  51  76 112 159 210 261 302 334
#     4  10  21  36  54  81 119 159 197 236 284 354
#     4  10  21  36  55  83 120 163 208 253 301 354
#     4  12  25  43  68  96 121 146 189 254 320 374
#     4  12  23  39  64  91 123 163 202 244 304 367
#
# _framework density 21.526154999999999
#
# number of rings (size 3 to 8) (size 9 to 14) (size 15 to 20)
#    0.000    1.400    0.000    7.200    0.000    4.000 
#    0.000    2.000    0.000    3.600    0.000    0.000 
#    0.000    0.000    0.000    0.000    0.000    0.000 
#
# Total GULP energy -223593.657934 kJ/mol
# GULP energy per Si atom -5589.841448 kJ/mol
# Density = 2.147716 g / cm^3
# Si number density = 21.526155 Si / 1000 Ang^3
#
#
#
# Elastic Constant Matrix: (Units=GPa)
#
#
# Indices 1 2 3 4 5 6 
#
# 1 84.9305 21.6329 13.6780 0.0000 0.0000 0.0000
# 2 21.6329 66.6381 9.2667 0.0000 0.0000 0.0000
# 3 13.6780 9.2667 108.0089 0.0000 0.0000 0.0000
# 4 0.0000 0.0000 0.0000 14.2901 0.0000 0.0000
# 5 0.0000 0.0000 0.0000 0.0000 32.9963 0.0000
# 6 0.0000 0.0000 0.0000 0.0000 0.0000 0.6081
#
#
#
# Elastic Compliance Matrix: (Units=1/GPa)
#
#
# Indices 1 2 3 4 5 6 
#
# 1 0.013014 -0.004044 -0.001301 0.000000 0.000000 0.000000
# 2 -0.004044 0.016444 -0.000899 0.000000 0.000000 0.000000
# 3 -0.001301 -0.000899 0.009500 0.000000 0.000000 0.000000
# 4 0.000000 0.000000 0.000000 0.069979 0.000000 0.000000
# 5 0.000000 0.000000 0.000000 0.000000 0.030306 0.000000
# 6 0.000000 0.000000 0.000000 0.000000 0.000000 1.644335
#
#
# Mechanical properties :
#
#
# Convention : Reuss Voigt Hill
#
# Bulk Modulus (GPa) = 37.77702 38.74808 38.26255
# Shear Modulus (GPa) = 2.77025 23.91225 13.34125
#
# Velocity S-wave (km/s) = 1.13566 3.33655 2.49222
# Velocity P-wave (km/s) = 4.39398 5.73437 5.10833
#
# Compressibility (1/GPa) = 0.02647112
#
# Stress axis : x y z
#
# Youngs Moduli (GPa) = 76.84094 60.81187 105.25905
#
# Poissons Ratio (x) = 0.24591 0.13695
# Poissons Ratio (y) = 0.31073 0.09460
# Poissons Ratio (z) = 0.09998 0.05465
#
# Static dielectric constant tensor:
#      x y z
#    x 1.831220 0.000000 0.000000 
#    y 0.000000 1.811940 0.000000 
#    z 0.000000 0.000000 1.724690 
# 
# From -- ./inp_files/5202.got.cif
#   From: 2010.05.17/outbox.cif.g08.bks.cpg/sg74_3_cif.got.tgz:5202.got - 2010.06.03 17:57:02.
