data_PCOD9538148
_publ_section_title
;
Structure prediction by ZEFSAII (Michael W. Deem and Ramdas Pophale) SiO2 
 PCOD9538148
Probable space group: I M M A
;
_chemical_formula_sum "Si O2"
_cell_formula_units_Z 96
_cell_length_a 15.101070
_cell_length_b 16.104986
_cell_length_c 16.898269
_cell_angle_alpha 90.000000
_cell_angle_beta 90.000000
_cell_angle_gamma 90.000000
_cell_volume 4109.701620
_symmetry_space_group_name_H-M "I M M A"
_symmetry_group_IT_number 74
_symmetry_cell_setting 'orthorhombic'
loop_
_space_group_symop_operation_xyz
x,y,z
-x,1/2-y,z
x,-y,-z
-x,1/2+y,-z
-x,-y,-z
x,1/2+y,-z
-x,y,z
x,1/2-y,z
1/2+x,1/2+y,1/2+z
1/2-x,-y,1/2+z
1/2+x,1/2-y,1/2-z
1/2-x,y,1/2-z
1/2-x,1/2-y,1/2-z
1/2+x,y,1/2-z
1/2-x,1/2+y,1/2+z
1/2+x,-y,1/2+z
loop_
_atom_site_type_symbol
_atom_site_label
_atom_site_fract_x
_atom_site_fract_y
_atom_site_fract_z
Si Si1 0.500000 0.347772 0.213922
Si Si2 0.192419 0.647714 0.957925
Si Si3 0.500000 0.149773 0.396934
Si Si4 0.397856 0.250000 0.948747
Si Si5 0.105566 0.069067 0.726458
Si Si6 0.165478 0.917133 0.454375
Si Si7 0.891670 0.250000 0.731000
Si Si8 0.310438 0.404008 0.189011
O O1 0.500000 0.250000 0.218500
O O2 0.500000 0.378282 0.305540
O O3 0.409202 0.373365 0.173056
O O4 0.201011 0.750000 0.957366
O O5 0.252343 0.602189 0.890350
O O6 0.090854 0.626271 0.940103
O O7 0.230588 0.606043 0.038189
O O8 0.500000 0.250000 0.395161
O O9 0.500000 0.250000 0.933597
O O10 0.374160 0.166242 0.991836
O O11 0.356608 0.250000 0.860094
O O12 0.123375 0.077171 0.632032
O O13 0.133029 0.158560 0.763382
O O14 0.000000 0.057566 0.739233
O O15 0.163538 0.987320 0.740475
O O16 0.143123 0.000000 0.500000
O O17 0.000000 0.250000 0.731744
O O18 0.250000 0.352232 0.250000
#
# Coordination Sequence:
#
# PCOD9538148 Si02
#       8
#     8  16   8   8  16  16   8  16
#     4  11  22  38  56  83 115 161 195 235 281 329
#     4  11  22  39  57  85 115 154 194 238 284 350
#     4   9  20  38  63  77 109 157 200 233 283 335
#     4   9  18  32  48  74 111 151 179 212 271 341
#     4  10  20  36  56  82 115 153 188 232 291 349
#     4  11  20  34  54  81 114 146 188 234 286 345
#     4   7  14  30  53  73 100 141 182 218 273 339
#     4  12  23  37  59  86 120 150 196 242 284 338
#
# _framework density 23.359361
#
# number of rings (size 3 to 8) (size 9 to 14) (size 15 to 20)
#    0.000    1.667    5.000    2.000    0.000    2.000 
#    3.000    0.833    0.000    0.000    0.000    0.000 
#    0.000    0.000    0.000    0.000    0.000    0.000 
#
# Total GULP energy -267284.211720 kJ/mol
# GULP energy per Si atom -5568.421077 kJ/mol
# Density = 2.330619 g / cm^3
# Si number density = 23.359361 Si / 1000 Ang^3
#
#
#
# Elastic Constant Matrix: (Units=GPa)
#
#
# Indices 1 2 3 4 5 6 
#
# 1 147.6520 16.9874 1.1066 0.0000 0.0000 0.0000
# 2 16.9874 103.0794 -13.1674 0.0000 0.0000 0.0000
# 3 1.1066 -13.1674 13.2955 0.0000 0.0000 0.0000
# 4 0.0000 0.0000 0.0000 8.1856 0.0000 0.0000
# 5 0.0000 0.0000 0.0000 0.0000 39.5948 0.0000
# 6 0.0000 0.0000 0.0000 0.0000 0.0000 7.9046
#
#
#
# Elastic Compliance Matrix: (Units=1/GPa)
#
#
# Indices 1 2 3 4 5 6 
#
# 1 0.006948 -0.001395 -0.001960 0.000000 0.000000 0.000000
# 2 -0.001395 0.011387 0.011393 0.000000 0.000000 0.000000
# 3 -0.001960 0.011393 0.086660 0.000000 0.000000 0.000000
# 4 0.000000 0.000000 0.000000 0.122165 0.000000 0.000000
# 5 0.000000 0.000000 0.000000 0.000000 0.025256 0.000000
# 6 0.000000 0.000000 0.000000 0.000000 0.000000 0.126509
#
#
# Mechanical properties :
#
#
# Convention : Reuss Voigt Hill
#
# Bulk Modulus (GPa) = 8.25976 30.43112 19.34544
# Shear Modulus (GPa) = 12.40062 28.41037 20.40549
#
# Velocity S-wave (km/s) = 2.30655 3.49123 2.95879
# Velocity P-wave (km/s) = 3.26147 5.41362 4.46903
#
# Compressibility (1/GPa) = 0.12106894
#
# Stress axis : x y z
#
# Youngs Moduli (GPa) = 143.92805 87.82275 11.53938
#
# Poissons Ratio (x) = 0.12255 0.02262
# Poissons Ratio (y) = 0.20084 -0.13147
# Poissons Ratio (z) = 0.28213 -1.00057
#
# Static dielectric constant tensor:
#      x y z
#    x 1.788710 0.000000 0.000000 
#    y 0.000000 1.995620 0.000000 
#    z 0.000000 0.000000 1.932470 
# 
# From -- ./inp_files/60077.got.cif
#   From: 2010.05.17/outbox.cif.g08.bks.cpg/sg74_31_cif.got.tgz:60077.got - 2010.06.03 17:57:02.
