data_PCOD9538055
_publ_section_title
;
Structure prediction by ZEFSAII (Michael W. Deem and Ramdas Pophale) SiO2 
 PCOD9538055
Probable space group: I M M A
;
_chemical_formula_sum "Si O2"
_cell_formula_units_Z 92
_cell_length_a 25.980028
_cell_length_b 9.351315
_cell_length_c 21.640396
_cell_angle_alpha 90.000000
_cell_angle_beta 90.000000
_cell_angle_gamma 90.000000
_cell_volume 5257.478496
_symmetry_space_group_name_H-M "I M M A"
_symmetry_group_IT_number 74
_symmetry_cell_setting 'orthorhombic'
loop_
_space_group_symop_operation_xyz
x,y,z
-x,1/2-y,z
x,-y,-z
-x,1/2+y,-z
-x,-y,-z
x,1/2+y,-z
-x,y,z
x,1/2-y,z
1/2+x,1/2+y,1/2+z
1/2-x,-y,1/2+z
1/2+x,1/2-y,1/2-z
1/2-x,y,1/2-z
1/2-x,1/2-y,1/2-z
1/2+x,y,1/2-z
1/2-x,1/2+y,1/2+z
1/2+x,-y,1/2+z
loop_
_atom_site_type_symbol
_atom_site_label
_atom_site_fract_x
_atom_site_fract_y
_atom_site_fract_z
Si Si1 0.057652 0.080653 0.797997
Si Si2 0.000000 0.750000 0.033546
Si Si3 0.361150 0.420350 0.065349
Si Si4 0.420278 0.500000 0.500000
Si Si5 0.559176 0.918020 0.150143
Si Si6 0.139685 0.083889 0.121484
Si Si7 0.257023 0.579039 0.565148
O O1 0.058852 0.250000 0.811745
O O2 0.062235 0.063231 0.724188
O O3 0.000000 0.029311 0.816879
O O4 0.103604 0.002979 0.832377
O O5 0.044537 0.624010 0.029077
O O6 0.367720 0.250000 0.057949
O O7 0.400956 0.484339 0.114107
O O8 0.301804 0.447447 0.085028
O O9 0.368667 0.500000 0.000000
O O10 0.385658 0.433781 0.445958
O O11 0.500000 0.948882 0.132010
O O12 0.569071 0.750000 0.137210
O O13 0.139066 0.250000 0.139602
O O14 0.198744 0.034999 0.113249
O O15 0.264685 0.500000 0.500000
O O16 0.262766 0.750000 0.555578
#
# Coordination Sequence:
#
# PCOD9538055 Si02
#       7
#    16   4  16   8  16  16  16
#     4   9  21  37  56  76 103 142 182 222 268 319
#     4  10  24  34  44  70 108 134 180 230 284 314
#     4  10  20  35  59  86 112 141 172 214 264 317
#     4  11  22  34  48  72 102 142 177 230 278 322
#     4   9  19  39  60  82 110 140 174 215 262 318
#     4  11  22  34  51  75 104 141 185 226 268 318
#     4   9  19  35  52  76 107 140 180 222 267 313
#
# _framework density 17.498882999999999
#
# number of rings (size 3 to 8) (size 9 to 14) (size 15 to 20)
#    0.000    2.261    1.739    1.565    3.652    3.130 
#    0.000    2.609    0.000    5.217    0.000    0.000 
#    0.000    0.000    0.000    0.000    0.000    0.000 
#
# Total GULP energy -256107.954175 kJ/mol
# GULP energy per Si atom -5567.564221 kJ/mol
# Density = 1.745905 g / cm^3
# Si number density = 17.498883 Si / 1000 Ang^3
#
#
#
# Elastic Constant Matrix: (Units=GPa)
#
#
# Indices 1 2 3 4 5 6 
#
# 1 147.2462 73.2687 61.4692 0.0000 0.0000 0.0000
# 2 73.2687 71.7561 36.1501 0.0000 0.0000 0.0000
# 3 61.4692 36.1501 46.2195 0.0000 0.0000 0.0000
# 4 0.0000 0.0000 0.0000 29.2200 0.0000 0.0000
# 5 0.0000 0.0000 0.0000 0.0000 27.8624 0.0000
# 6 0.0000 0.0000 0.0000 0.0000 0.0000 28.6792
#
#
#
# Elastic Compliance Matrix: (Units=1/GPa)
#
#
# Indices 1 2 3 4 5 6 
#
# 1 0.019646 -0.011382 -0.017226 0.000000 0.000000 0.000000
# 2 -0.011382 0.029592 -0.008008 0.000000 0.000000 0.000000
# 3 -0.017226 -0.008008 0.050808 0.000000 0.000000 0.000000
# 4 0.000000 0.000000 0.000000 0.034223 0.000000 0.000000
# 5 0.000000 0.000000 0.000000 0.000000 0.035891 0.000000
# 6 0.000000 0.000000 0.000000 0.000000 0.000000 0.034869
#
#
# Mechanical properties :
#
#
# Convention : Reuss Voigt Hill
#
# Bulk Modulus (GPa) = 37.29209 67.44422 52.36816
# Shear Modulus (GPa) = 17.40956 23.44124 20.42540
#
# Velocity S-wave (km/s) = 3.15762 3.66400 3.42020
# Velocity P-wave (km/s) = 5.88655 7.51835 6.75193
#
# Compressibility (1/GPa) = 0.02681534
#
# Stress axis : x y z
#
# Youngs Moduli (GPa) = 50.90126 33.79252 19.68182
#
# Poissons Ratio (x) = 0.38462 0.33903
# Poissons Ratio (y) = 0.57935 0.15761
# Poissons Ratio (z) = 0.87680 0.27061
#
# Static dielectric constant tensor:
#      x y z
#    x 1.608160 0.000000 0.000000 
#    y 0.000000 1.580250 0.000000 
#    z 0.000000 0.000000 1.582120 
# 
# From -- ./inp_files/55148.got.cif
#   From: 2010.05.17/outbox.cif.g08.bks.cpg/sg74_28_cif.got.tgz:55148.got - 2010.06.03 17:57:02.
