data_PCOD9538618
_publ_section_title
;
Structure prediction by ZEFSAII (Michael W. Deem and Ramdas Pophale) SiO2 
 PCOD9538618
Probable space group: I M M A
;
_chemical_formula_sum "Si O2"
_cell_formula_units_Z 92
_cell_length_a 12.024599
_cell_length_b 17.538793
_cell_length_c 18.001612
_cell_angle_alpha 90.000000
_cell_angle_beta 90.000000
_cell_angle_gamma 90.000000
_cell_volume 3796.485116
_symmetry_space_group_name_H-M "I M M A"
_symmetry_group_IT_number 74
_symmetry_cell_setting 'orthorhombic'
loop_
_space_group_symop_operation_xyz
x,y,z
-x,1/2-y,z
x,-y,-z
-x,1/2+y,-z
-x,-y,-z
x,1/2+y,-z
-x,y,z
x,1/2-y,z
1/2+x,1/2+y,1/2+z
1/2-x,-y,1/2+z
1/2+x,1/2-y,1/2-z
1/2-x,y,1/2-z
1/2-x,1/2-y,1/2-z
1/2+x,y,1/2-z
1/2-x,1/2+y,1/2+z
1/2+x,-y,1/2+z
loop_
_atom_site_type_symbol
_atom_site_label
_atom_site_fract_x
_atom_site_fract_y
_atom_site_fract_z
Si Si1 0.871898 0.894829 0.580689
Si Si2 0.657404 0.885795 0.336277
Si Si3 0.862350 0.750000 0.692454
Si Si4 0.500000 0.412875 0.529991
Si Si5 0.808698 0.052237 0.176089
Si Si6 0.873573 0.158254 0.589073
Si Si7 0.000000 0.250000 0.789063
Si Si8 0.000000 0.161260 0.123744
O O1 0.855616 0.822727 0.636523
O O2 0.780253 0.954225 0.609359
O O3 0.854401 0.871715 0.495035
O O4 0.000000 0.920902 0.588238
O O5 0.603945 0.894048 0.418332
O O6 0.786100 0.870396 0.350916
O O7 0.595872 0.817263 0.296191
O O8 0.639241 0.970366 0.305488
O O9 0.750000 0.750000 0.750000
O O10 0.000000 0.750000 0.715699
O O11 0.500000 0.500000 0.500000
O O12 0.500000 0.355379 0.462952
O O13 0.750000 0.077413 0.250000
O O14 0.895713 0.116371 0.155500
O O15 0.865035 0.250000 0.585806
O O16 0.000000 0.139023 0.610061
O O17 0.000000 0.250000 0.135367
#
# Coordination Sequence:
#
# PCOD9538618 Si02
#       8
#    16  16   8   8  16  16   4   8
#     4  10  22  40  63  93 131 187 234 279 347 411
#     4  11  23  42  73 106 140 178 227 298 385 439
#     4  10  20  39  62  87 132 190 246 288 332 408
#     4  11  21  42  73 107 148 177 228 311 380 432
#     4  12  28  48  68  97 147 195 238 296 353 430
#     4  10  20  38  68 103 140 176 225 290 354 431
#     4  10  22  44  76 104 128 166 228 296 380 442
#     4  12  28  47  72 113 146 194 253 295 364 442
#
# _framework density 24.232939999999999
#
# number of rings (size 3 to 8) (size 9 to 14) (size 15 to 20)
#    0.000    1.217    3.478    2.087    4.870    2.435 
#    1.565    2.174    1.913    0.000    0.000    0.000 
#    0.000    0.000    0.000    0.000    0.000    0.000 
#
# Total GULP energy -256898.500069 kJ/mol
# GULP energy per Si atom -5584.750002 kJ/mol
# Density = 2.417778 g / cm^3
# Si number density = 24.232940 Si / 1000 Ang^3
#
#
#
# Elastic Constant Matrix: (Units=GPa)
#
#
# Indices 1 2 3 4 5 6 
#
# 1 160.1723 46.3476 37.6472 0.0000 0.0000 0.0000
# 2 46.3476 139.3274 15.7685 0.0000 0.0000 0.0000
# 3 37.6472 15.7685 58.1875 0.0000 0.0000 0.0000
# 4 0.0000 0.0000 0.0000 -31.2915 0.0000 0.0000
# 5 0.0000 0.0000 0.0000 0.0000 21.0500 0.0000
# 6 0.0000 0.0000 0.0000 0.0000 0.0000 -68.1627
#
#
#
# Elastic Compliance Matrix: (Units=1/GPa)
#
#
# Indices 1 2 3 4 5 6 
#
# 1 0.007928 -0.002122 -0.004554 0.000000 0.000000 0.000000
# 2 -0.002122 0.007972 -0.000788 0.000000 0.000000 0.000000
# 3 -0.004554 -0.000788 0.020346 0.000000 0.000000 0.000000
# 4 0.000000 0.000000 0.000000 -0.031958 0.000000 0.000000
# 5 0.000000 0.000000 0.000000 0.000000 0.047506 0.000000
# 6 0.000000 0.000000 0.000000 0.000000 0.000000 -0.014671
#
#
# Mechanical properties :
#
#
# Convention : Reuss Voigt Hill
#
# Bulk Modulus (GPa) = 46.90754 61.91265 54.41010
# Shear Modulus (GPa) = 84.52120 1.51409 43.01764
#
# Velocity S-wave (km/s) = 5.91222 0.79130 4.21785
# Velocity P-wave (km/s) = 8.12433 5.14192 6.79868
#
# Compressibility (1/GPa) = 0.02131853
#
# Stress axis : x y z
#
# Youngs Moduli (GPa) = 126.14083 125.43458 49.15011
#
# Poissons Ratio (x) = 0.26614 0.22384
# Poissons Ratio (y) = 0.26764 0.03872
# Poissons Ratio (z) = 0.57447 0.09880
#
# Static dielectric constant tensor:
#      x y z
#    x 1.996000 0.000000 0.000000 
#    y 0.000000 1.920840 0.000000 
#    z 0.000000 0.000000 1.972210 
# 
# From -- ./inp_files/50573.got.cif
#   From: 2010.05.17/outbox.cif.g08.bks.cpg/sg74_26_cif.got.tgz:50573.got - 2010.06.03 17:57:02.
