data_PCOD9538233
_publ_section_title
;
Structure prediction by ZEFSAII (Michael W. Deem and Ramdas Pophale) SiO2 
 PCOD9538233
Probable space group: I M M A
;
_chemical_formula_sum "Si O2"
_cell_formula_units_Z 88
_cell_length_a 10.916434
_cell_length_b 13.902116
_cell_length_c 28.703952
_cell_angle_alpha 90.000000
_cell_angle_beta 90.000000
_cell_angle_gamma 90.000000
_cell_volume 4356.155723
_symmetry_space_group_name_H-M "I M M A"
_symmetry_group_IT_number 74
_symmetry_cell_setting 'orthorhombic'
loop_
_space_group_symop_operation_xyz
x,y,z
-x,1/2-y,z
x,-y,-z
-x,1/2+y,-z
-x,-y,-z
x,1/2+y,-z
-x,y,z
x,1/2-y,z
1/2+x,1/2+y,1/2+z
1/2-x,-y,1/2+z
1/2+x,1/2-y,1/2-z
1/2-x,y,1/2-z
1/2-x,1/2-y,1/2-z
1/2+x,y,1/2-z
1/2-x,1/2+y,1/2+z
1/2+x,-y,1/2+z
loop_
_atom_site_type_symbol
_atom_site_label
_atom_site_fract_x
_atom_site_fract_y
_atom_site_fract_z
Si Si1 0.637525 0.638753 0.676811
Si Si2 0.354216 0.857604 0.173485
Si Si3 0.859299 0.426757 0.568709
Si Si4 0.634948 0.113912 0.504839
Si Si5 0.750000 0.499228 0.250000
Si Si6 0.283379 0.642900 0.917469
O O1 0.500000 0.621904 0.658735
O O2 0.646374 0.750000 0.691727
O O3 0.662277 0.569809 0.720147
O O4 0.732723 0.625714 0.634574
O O5 0.500000 0.851432 0.177463
O O6 0.302095 0.750000 0.179683
O O7 0.330513 0.895535 0.121485
O O8 0.310321 0.931822 0.211950
O O9 0.755120 0.375730 0.537379
O O10 0.850961 0.544162 0.567052
O O11 0.000000 0.399312 0.557043
O O12 0.500000 0.147275 0.520724
O O13 0.670859 0.149340 0.453686
O O14 0.625363 0.000000 0.500000
O O15 0.343578 0.750000 0.918603
#
# Coordination Sequence:
#
# PCOD9538233 Si02
#       6
#    16  16  16  16   8  16
#     4  10  21  36  57  87 122 159 196 239 300 367
#     4  10  22  40  60  84 116 155 200 252 310 362
#     4  10  21  40  61  86 122 163 201 246 302 359
#     4   9  19  35  58  87 118 156 197 240 289 348
#     4  12  20  38  62  86 110 152 202 260 300 354
#     4  10  20  36  58  88 124 159 195 242 299 360
#
# _framework density 20.201298000000001
#
# number of rings (size 3 to 8) (size 9 to 14) (size 15 to 20)
#    0.000    2.000    1.818    1.636    0.000    6.182 
#    0.000    0.000    0.000    2.182    0.000    0.000 
#    0.000    0.000    0.000    0.000    0.000    0.000 
#
# Total GULP energy -245218.779731 kJ/mol
# GULP energy per Si atom -5573.154085 kJ/mol
# Density = 2.015532 g / cm^3
# Si number density = 20.201298 Si / 1000 Ang^3
#
#
#
# Elastic Constant Matrix: (Units=GPa)
#
#
# Indices 1 2 3 4 5 6 
#
# 1 85.1189 17.4139 52.2581 0.0000 0.0000 0.0000
# 2 17.4139 96.8899 21.1793 0.0000 0.0000 0.0000
# 3 52.2581 21.1793 91.5900 0.0000 0.0000 0.0000
# 4 0.0000 0.0000 0.0000 -15.6390 0.0000 0.0000
# 5 0.0000 0.0000 0.0000 0.0000 25.1508 0.0000
# 6 0.0000 0.0000 0.0000 0.0000 0.0000 -11.1360
#
#
#
# Elastic Compliance Matrix: (Units=1/GPa)
#
#
# Indices 1 2 3 4 5 6 
#
# 1 0.018184 -0.001054 -0.010132 0.000000 0.000000 0.000000
# 2 -0.001054 0.010932 -0.001927 0.000000 0.000000 0.000000
# 3 -0.010132 -0.001927 0.017144 0.000000 0.000000 0.000000
# 4 0.000000 0.000000 0.000000 -0.063943 0.000000 0.000000
# 5 0.000000 0.000000 0.000000 0.000000 0.039760 0.000000
# 6 0.000000 0.000000 0.000000 0.000000 0.000000 -0.089799
#
#
# Mechanical properties :
#
#
# Convention : Reuss Voigt Hill
#
# Bulk Modulus (GPa) = 49.90910 50.58905 50.24907
# Shear Modulus (GPa) = -143.59969 11.85832 -65.87069
#
# Velocity S-wave (km/s) = -8.44030 2.42545 -5.71646
# Velocity P-wave (km/s) = 8.38006 5.73939 4.31769
#
# Compressibility (1/GPa) = 0.02003643
#
# Stress axis : x y z
#
# Youngs Moduli (GPa) = 54.99338 91.47875 58.32787
#
# Poissons Ratio (x) = 0.09638 0.59095
# Poissons Ratio (y) = 0.05794 0.11238
# Poissons Ratio (z) = 0.55717 0.17625
#
# Static dielectric constant tensor:
#      x y z
#    x 1.731580 0.000000 0.000000 
#    y 0.000000 1.615680 0.000000 
#    z 0.000000 0.000000 1.685460 
# 
# From -- ./inp_files/65929.got.cif
#   From: 2010.05.17/outbox.cif.g08.bks.cpg/sg74_33_cif.got.tgz:65929.got - 2010.06.03 17:57:02.
