data_PCOD9538678
_publ_section_title
;
Structure prediction by ZEFSAII (Michael W. Deem and Ramdas Pophale) SiO2 
 PCOD9538678
Probable space group: I M M A
;
_chemical_formula_sum "Si O2"
_cell_formula_units_Z 64
_cell_length_a 17.141782
_cell_length_b 14.082892
_cell_length_c 11.913336
_cell_angle_alpha 90.000000
_cell_angle_beta 90.000000
_cell_angle_gamma 90.000000
_cell_volume 2875.949177
_symmetry_space_group_name_H-M "I M M A"
_symmetry_group_IT_number 74
_symmetry_cell_setting 'orthorhombic'
loop_
_space_group_symop_operation_xyz
x,y,z
-x,1/2-y,z
x,-y,-z
-x,1/2+y,-z
-x,-y,-z
x,1/2+y,-z
-x,y,z
x,1/2-y,z
1/2+x,1/2+y,1/2+z
1/2-x,-y,1/2+z
1/2+x,1/2-y,1/2-z
1/2-x,y,1/2-z
1/2-x,1/2-y,1/2-z
1/2+x,y,1/2-z
1/2-x,1/2+y,1/2+z
1/2+x,-y,1/2+z
loop_
_atom_site_type_symbol
_atom_site_label
_atom_site_fract_x
_atom_site_fract_y
_atom_site_fract_z
Si Si1 0.000000 0.864445 0.686440
Si Si2 0.914262 0.359964 0.010524
Si Si3 0.000000 0.138074 0.565703
Si Si4 0.167609 0.568070 0.789397
Si Si5 0.370704 0.141270 0.747501
O O1 0.084422 0.896605 0.736865
O O2 0.000000 0.750000 0.693889
O O3 0.000000 0.904129 0.558398
O O4 0.909360 0.250000 0.046007
O O5 0.847682 0.413784 0.078576
O O6 0.000000 0.397010 0.042431
O O7 0.909700 0.358859 0.876174
O O8 0.926983 0.123783 0.647174
O O9 0.000000 0.250000 0.541575
O O10 0.250000 0.613352 0.750000
O O11 0.174035 0.457252 0.760615
O O12 0.339031 0.250000 0.760617
#
# Coordination Sequence:
#
# PCOD9538678 Si02
#       5
#     8  16   8  16  16
#     4  11  25  46  70  97 135 179 218 274 341 398
#     4  10  20  39  70 100 128 168 219 280 340 390
#     4   9  19  40  69  97 127 173 226 270 333 404
#     4  12  26  42  67 102 136 177 226 273 328 400
#     4  10  21  41  68  97 131 173 223 279 334 391
#
# _framework density 22.253523000000001
#
# number of rings (size 3 to 8) (size 9 to 14) (size 15 to 20)
#    0.000    1.500    2.500    2.250    0.000    5.500 
#    9.000    0.000    0.000    0.000    0.000    0.000 
#    0.000    0.000    0.000    0.000    0.000    0.000 
#
# Total GULP energy -178185.265940 kJ/mol
# GULP energy per Si atom -5568.289561 kJ/mol
# Density = 2.220287 g / cm^3
# Si number density = 22.253523 Si / 1000 Ang^3
#
#
#
# Elastic Constant Matrix: (Units=GPa)
#
#
# Indices 1 2 3 4 5 6 
#
# 1 152.1531 45.8035 61.1170 0.0000 0.0000 0.0000
# 2 45.8035 122.3485 8.7728 0.0000 0.0000 0.0000
# 3 61.1170 8.7728 141.1222 0.0000 0.0000 0.0000
# 4 0.0000 0.0000 0.0000 23.7801 0.0000 0.0000
# 5 0.0000 0.0000 0.0000 0.0000 75.6755 0.0000
# 6 0.0000 0.0000 0.0000 0.0000 0.0000 16.8919
#
#
#
# Elastic Compliance Matrix: (Units=1/GPa)
#
#
# Indices 1 2 3 4 5 6 
#
# 1 0.008993 -0.003101 -0.003702 0.000000 0.000000 0.000000
# 2 -0.003101 0.009279 0.000766 0.000000 0.000000 0.000000
# 3 -0.003702 0.000766 0.008642 0.000000 0.000000 0.000000
# 4 0.000000 0.000000 0.000000 0.042052 0.000000 0.000000
# 5 0.000000 0.000000 0.000000 0.000000 0.013214 0.000000
# 6 0.000000 0.000000 0.000000 0.000000 0.000000 0.059200
#
#
# Mechanical properties :
#
#
# Convention : Reuss Voigt Hill
#
# Bulk Modulus (GPa) = 67.38431 71.89003 69.63717
# Shear Modulus (GPa) = 31.56555 43.26487 37.41521
#
# Velocity S-wave (km/s) = 3.77032 4.41407 4.10483
# Velocity P-wave (km/s) = 7.02138 7.63897 7.33667
#
# Compressibility (1/GPa) = 0.01484025
#
# Stress axis : x y z
#
# Youngs Moduli (GPa) = 111.19934 107.76522 115.71919
#
# Poissons Ratio (x) = 0.33420 0.42837
# Poissons Ratio (y) = 0.34485 -0.08867
# Poissons Ratio (z) = 0.41164 -0.08257
#
# Static dielectric constant tensor:
#      x y z
#    x 1.824840 0.000000 0.000000 
#    y 0.000000 1.881180 0.000000 
#    z 0.000000 0.000000 1.852710 
# 
# From -- ./inp_files/21613.got.cif
#   From: 2010.05.17/outbox.cif.g08.bks.cpg/sg74_11_cif.got.tgz:21613.got - 2010.06.03 17:57:02.
