data_PCOD9538792
_publ_section_title
;
Structure prediction by ZEFSAII (Michael W. Deem and Ramdas Pophale) SiO2 
 PCOD9538792
Probable space group: I M M A
;
_chemical_formula_sum "Si O2"
_cell_formula_units_Z 100
_cell_length_a 14.897399
_cell_length_b 15.205887
_cell_length_c 21.535591
_cell_angle_alpha 90.000000
_cell_angle_beta 90.000000
_cell_angle_gamma 90.000000
_cell_volume 4878.417928
_symmetry_space_group_name_H-M "I M M A"
_symmetry_group_IT_number 74
_symmetry_cell_setting 'orthorhombic'
loop_
_space_group_symop_operation_xyz
x,y,z
-x,1/2-y,z
x,-y,-z
-x,1/2+y,-z
-x,-y,-z
x,1/2+y,-z
-x,y,z
x,1/2-y,z
1/2+x,1/2+y,1/2+z
1/2-x,-y,1/2+z
1/2+x,1/2-y,1/2-z
1/2-x,y,1/2-z
1/2-x,1/2-y,1/2-z
1/2+x,y,1/2-z
1/2-x,1/2+y,1/2+z
1/2+x,-y,1/2+z
loop_
_atom_site_type_symbol
_atom_site_label
_atom_site_fract_x
_atom_site_fract_y
_atom_site_fract_z
Si Si1 0.900921 0.351656 0.668961
Si Si2 0.263124 0.355420 0.596604
Si Si3 0.758170 0.150094 0.149125
Si Si4 0.102600 0.590225 0.201059
Si Si5 0.605260 0.607011 0.754495
Si Si6 0.651485 0.406005 0.472767
Si Si7 0.500000 0.750000 0.533477
O O1 0.909914 0.250000 0.651646
O O2 0.830108 0.392098 0.622704
O O3 0.866070 0.354473 0.739450
O O4 0.000000 0.392893 0.668566
O O5 0.266752 0.250000 0.605136
O O6 0.339659 0.394715 0.640660
O O7 0.279340 0.376794 0.525793
O O8 0.741701 0.250000 0.126873
O O9 0.668291 0.116626 0.184593
O O10 0.837871 0.154723 0.200525
O O11 0.796359 0.091385 0.092893
O O12 0.105365 0.492218 0.228373
O O13 0.000000 0.614569 0.186810
O O14 0.500000 0.633611 0.761635
O O15 0.616542 0.500000 0.500000
O O16 0.577730 0.328875 0.467175
#
# Coordination Sequence:
#
# PCOD9538792 Si02
#       7
#    16  16  16  16  16  16   4
#     4   9  19  35  55  83 121 172 221 269 325 383
#     4  11  22  38  61  91 133 176 226 274 330 400
#     4  11  24  44  66  96 132 171 223 278 335 398
#     4  10  21  34  56  91 128 166 215 272 332 392
#     4  10  23  40  65  97 127 170 221 279 339 397
#     4  12  27  45  70  99 134 181 217 273 335 397
#     4  12  26  52  68 100 140 172 230 266 318 420
#
# _framework density 20.498449000000001
#
# number of rings (size 3 to 8) (size 9 to 14) (size 15 to 20)
#    0.000    1.440    1.600    3.120    8.960    3.520 
#    0.000    0.800    0.000    2.880    0.000    0.000 
#    0.000    0.000    0.000    0.000    0.000    0.000 
#
# Total GULP energy -278460.171237 kJ/mol
# GULP energy per Si atom -5569.203425 kJ/mol
# Density = 2.045179 g / cm^3
# Si number density = 20.498449 Si / 1000 Ang^3
#
#
#
# Elastic Constant Matrix: (Units=GPa)
#
#
# Indices 1 2 3 4 5 6 
#
# 1 118.0443 26.3362 74.1080 0.0000 0.0000 0.0000
# 2 26.3362 84.6774 17.8864 0.0000 0.0000 0.0000
# 3 74.1080 17.8864 130.6988 0.0000 0.0000 0.0000
# 4 0.0000 0.0000 0.0000 26.4283 0.0000 0.0000
# 5 0.0000 0.0000 0.0000 0.0000 -1.4737 0.0000
# 6 0.0000 0.0000 0.0000 0.0000 0.0000 15.3423
#
#
#
# Elastic Compliance Matrix: (Units=1/GPa)
#
#
# Indices 1 2 3 4 5 6 
#
# 1 0.013730 -0.002704 -0.007415 0.000000 0.000000 0.000000
# 2 -0.002704 0.012694 -0.000204 0.000000 0.000000 0.000000
# 3 -0.007415 -0.000204 0.011883 0.000000 0.000000 0.000000
# 4 0.000000 0.000000 0.000000 0.037838 0.000000 0.000000
# 5 0.000000 0.000000 0.000000 0.000000 -0.678572 0.000000
# 6 0.000000 0.000000 0.000000 0.000000 0.000000 0.065179
#
#
# Mechanical properties :
#
#
# Convention : Reuss Voigt Hill
#
# Bulk Modulus (GPa) = 56.62156 63.34244 59.98200
# Shear Modulus (GPa) = -9.79019 22.39871 6.30426
#
# Velocity S-wave (km/s) = -2.18779 3.30919 1.75561
# Velocity P-wave (km/s) = 4.61524 6.75049 5.78228
#
# Compressibility (1/GPa) = 0.01766112
#
# Stress axis : x y z
#
# Youngs Moduli (GPa) = 72.83465 78.77994 84.15064
#
# Poissons Ratio (x) = 0.21302 0.62397
# Poissons Ratio (y) = 0.19694 0.01716
# Poissons Ratio (z) = 0.54006 0.01607
#
# Static dielectric constant tensor:
#      x y z
#    x 1.757710 0.000000 0.000000 
#    y 0.000000 1.811930 0.000000 
#    z 0.000000 0.000000 1.707820 
# 
# From -- ./inp_files/52138.got.cif
#   From: 2010.05.17/outbox.cif.g08.bks.cpg/sg74_27_cif.got.tgz:52138.got - 2010.06.03 17:57:02.
