data_PCOD9538905
_publ_section_title
;
Structure prediction by ZEFSAII (Michael W. Deem and Ramdas Pophale) SiO2 
 PCOD9538905
Probable space group: I M M A
;
_chemical_formula_sum "Si O2"
_cell_formula_units_Z 128
_cell_length_a 15.937843
_cell_length_b 14.475484
_cell_length_c 24.576173
_cell_angle_alpha 90.000000
_cell_angle_beta 90.000000
_cell_angle_gamma 90.000000
_cell_volume 5669.919508
_symmetry_space_group_name_H-M "I M M A"
_symmetry_group_IT_number 74
_symmetry_cell_setting 'orthorhombic'
loop_
_space_group_symop_operation_xyz
x,y,z
-x,1/2-y,z
x,-y,-z
-x,1/2+y,-z
-x,-y,-z
x,1/2+y,-z
-x,y,z
x,1/2-y,z
1/2+x,1/2+y,1/2+z
1/2-x,-y,1/2+z
1/2+x,1/2-y,1/2-z
1/2-x,y,1/2-z
1/2-x,1/2-y,1/2-z
1/2+x,y,1/2-z
1/2-x,1/2+y,1/2+z
1/2+x,-y,1/2+z
loop_
_atom_site_type_symbol
_atom_site_label
_atom_site_fract_x
_atom_site_fract_y
_atom_site_fract_z
Si Si1 0.902107 0.052560 0.629906
Si Si2 0.131092 0.645566 0.026905
Si Si3 0.901325 0.147094 0.208948
Si Si4 0.896536 0.960808 0.252384
Si Si5 0.146557 0.139173 0.089404
Si Si6 0.821195 0.894612 0.480895
Si Si7 0.152328 0.646619 0.595644
Si Si8 0.899712 0.855193 0.145241
O O1 0.890324 0.941443 0.623087
O O2 0.000000 0.073339 0.627763
O O3 0.869223 0.078773 0.689607
O O4 0.860473 0.101406 0.578458
O O5 0.095252 0.750000 0.029875
O O6 0.231324 0.651862 0.022809
O O7 0.115160 0.600866 0.085629
O O8 0.110098 0.602353 0.967911
O O9 0.863785 0.250000 0.213410
O O10 0.893600 0.112367 0.146552
O O11 0.000000 0.154796 0.220697
O O12 0.866725 0.066677 0.246705
O O13 0.867973 0.907670 0.198468
O O14 0.000000 0.961130 0.252508
O O15 0.133764 0.250000 0.085301
O O16 0.247051 0.126502 0.095265
O O17 0.872162 0.853323 0.531526
O O18 0.807308 0.000000 0.500000
O O19 0.137727 0.750000 0.618198
O O20 0.866459 0.750000 0.144278
O O21 0.000000 0.850626 0.151064
#
# Coordination Sequence:
#
# PCOD9538905 Si02
#       8
#    16  16  16  16  16  16  16  16
#     4  10  21  36  53  72  94 124 164 207 250 300
#     4   9  17  31  52  75 100 131 164 200 244 293
#     4   9  17  30  50  75 104 138 172 206 241 280
#     4   9  19  35  51  69  98 133 168 208 253 296
#     4   8  15  29  48  72 104 136 163 195 242 298
#     4   9  18  32  51  73 100 130 155 190 246 305
#     4   9  18  33  52  74 101 130 156 192 247 304
#     4   9  18  33  52  73  99 133 172 211 246 281
#
# _framework density 22.575275999999999
#
# number of rings (size 3 to 8) (size 9 to 14) (size 15 to 20)
#    0.000    3.000    0.000    1.125    0.000    6.500 
#    0.000    7.500    0.000    9.000    0.000    0.000 
#    0.000    0.000    0.000    0.000    0.000    0.000 
#
# Total GULP energy -356796.109913 kJ/mol
# GULP energy per Si atom -5574.939217 kJ/mol
# Density = 2.252389 g / cm^3
# Si number density = 22.575276 Si / 1000 Ang^3
#
#
#
# Elastic Constant Matrix: (Units=GPa)
#
#
# Indices 1 2 3 4 5 6 
#
# 1 21.4536 -2.0548 6.1840 0.0000 0.0000 0.0000
# 2 -2.0548 38.3845 5.4742 0.0000 0.0000 0.0000
# 3 6.1840 5.4742 113.1880 0.0000 0.0000 0.0000
# 4 0.0000 0.0000 0.0000 -6.9152 0.0000 0.0000
# 5 0.0000 0.0000 0.0000 0.0000 27.2964 0.0000
# 6 0.0000 0.0000 0.0000 0.0000 0.0000 12.9979
#
#
#
# Elastic Compliance Matrix: (Units=1/GPa)
#
#
# Indices 1 2 3 4 5 6 
#
# 1 0.047686 0.002945 -0.002748 0.000000 0.000000 0.000000
# 2 0.002945 0.026415 -0.001438 0.000000 0.000000 0.000000
# 3 -0.002748 -0.001438 0.009055 0.000000 0.000000 0.000000
# 4 0.000000 0.000000 0.000000 -0.144609 0.000000 0.000000
# 5 0.000000 0.000000 0.000000 0.000000 0.036635 0.000000
# 6 0.000000 0.000000 0.000000 0.000000 0.000000 0.076936
#
#
# Mechanical properties :
#
#
# Convention : Reuss Voigt Hill
#
# Bulk Modulus (GPa) = 12.39577 21.35921 16.87749
# Shear Modulus (GPa) = 61.35644 17.57067 39.46355
#
# Velocity S-wave (km/s) = 5.21897 2.79286 4.18555
# Velocity P-wave (km/s) = 6.46681 4.45892 5.55435
#
# Compressibility (1/GPa) = 0.08067270
#
# Stress axis : x y z
#
# Youngs Moduli (GPa) = 20.97035 37.85739 110.44177
#
# Poissons Ratio (x) = -0.11147 0.30346
# Poissons Ratio (y) = -0.06175 0.15886
# Poissons Ratio (z) = 0.05762 0.05445
#
# Static dielectric constant tensor:
#      x y z
#    x 1.803620 0.000000 0.000000 
#    y 0.000000 2.064070 0.000000 
#    z 0.000000 0.000000 1.894710 
# 
# From -- ./inp_files/54172.got.cif
#   From: 2010.05.17/outbox.cif.g08.bks.cpg/sg74_28_cif.got.tgz:54172.got - 2010.06.03 17:57:02.
