data_PCOD9538029
_publ_section_title
;
Structure prediction by ZEFSAII (Michael W. Deem and Ramdas Pophale) SiO2 
 PCOD9538029
Probable space group: I M M A
;
_chemical_formula_sum "Si O2"
_cell_formula_units_Z 96
_cell_length_a 17.437331
_cell_length_b 23.899561
_cell_length_c 11.630155
_cell_angle_alpha 90.000000
_cell_angle_beta 90.000000
_cell_angle_gamma 90.000000
_cell_volume 4846.803781
_symmetry_space_group_name_H-M "I M M A"
_symmetry_group_IT_number 74
_symmetry_cell_setting 'orthorhombic'
loop_
_space_group_symop_operation_xyz
x,y,z
-x,1/2-y,z
x,-y,-z
-x,1/2+y,-z
-x,-y,-z
x,1/2+y,-z
-x,y,z
x,1/2-y,z
1/2+x,1/2+y,1/2+z
1/2-x,-y,1/2+z
1/2+x,1/2-y,1/2-z
1/2-x,y,1/2-z
1/2-x,1/2-y,1/2-z
1/2+x,y,1/2-z
1/2-x,1/2+y,1/2+z
1/2+x,-y,1/2+z
loop_
_atom_site_type_symbol
_atom_site_label
_atom_site_fract_x
_atom_site_fract_y
_atom_site_fract_z
Si Si1 0.592399 0.184648 0.124726
Si Si2 0.086753 0.315649 0.783108
Si Si3 0.170200 0.620719 0.414122
Si Si4 0.350050 0.401031 0.556670
Si Si5 0.591071 0.406250 0.304132
Si Si6 0.158517 0.517104 0.264902
O O1 0.500000 0.182886 0.110693
O O2 0.615534 0.250000 0.122313
O O3 0.611276 0.152225 0.242815
O O4 0.630705 0.148603 0.023563
O O5 0.096242 0.250000 0.797796
O O6 0.147505 0.339845 0.692917
O O7 0.099778 0.348778 0.900674
O O8 0.000000 0.326292 0.739882
O O9 0.260996 0.615272 0.431029
O O10 0.144050 0.559154 0.371041
O O11 0.368657 0.414718 0.426270
O O12 0.366727 0.450459 0.648203
O O13 0.500000 0.408157 0.319869
O O14 0.617622 0.457989 0.225451
O O15 0.250000 0.508986 0.250000
#
# Coordination Sequence:
#
# PCOD9538029 Si02
#       6
#    16  16  16  16  16  16
#     4  10  23  42  61  85 121 164 207 252 301 353
#     4  10  20  35  58  86 119 158 199 251 307 354
#     4  10  21  38  61  90 117 155 202 247 309 356
#     4  10  22  38  58  89 120 157 198 246 306 363
#     4  11  24  40  61  87 119 163 204 245 297 364
#     4   9  21  39  61  88 120 152 190 249 308 361
#
# _framework density 19.806865999999999
#
# number of rings (size 3 to 8) (size 9 to 14) (size 15 to 20)
#    0.000    2.000    0.000    3.500    2.333    9.333 
#    0.000    4.167    0.000    0.000    0.000    0.000 
#    0.000    0.000    0.000    0.000    0.000    0.000 
#
# Total GULP energy -268051.653948 kJ/mol
# GULP energy per Si atom -5584.409457 kJ/mol
# Density = 1.976178 g / cm^3
# Si number density = 19.806866 Si / 1000 Ang^3
#
#
#
# Elastic Constant Matrix: (Units=GPa)
#
#
# Indices 1 2 3 4 5 6 
#
# 1 37.4024 50.1636 23.5553 0.0000 0.0000 0.0000
# 2 50.1636 117.2892 40.4914 0.0000 0.0000 0.0000
# 3 23.5553 40.4914 62.5387 0.0000 0.0000 0.0000
# 4 0.0000 0.0000 0.0000 17.7169 0.0000 0.0000
# 5 0.0000 0.0000 0.0000 0.0000 47.6011 0.0000
# 6 0.0000 0.0000 0.0000 0.0000 0.0000 24.6036
#
#
#
# Elastic Compliance Matrix: (Units=1/GPa)
#
#
# Indices 1 2 3 4 5 6 
#
# 1 0.066021 -0.025309 -0.008480 0.000000 0.000000 0.000000
# 2 -0.025309 0.020682 -0.003858 0.000000 0.000000 0.000000
# 3 -0.008480 -0.003858 0.021682 0.000000 0.000000 0.000000
# 4 0.000000 0.000000 0.000000 0.056443 0.000000 0.000000
# 5 0.000000 0.000000 0.000000 0.000000 0.021008 0.000000
# 6 0.000000 0.000000 0.000000 0.000000 0.000000 0.040644
#
#
# Mechanical properties :
#
#
# Convention : Reuss Voigt Hill
#
# Bulk Modulus (GPa) = 30.22023 49.51676 39.86850
# Shear Modulus (GPa) = 15.98429 24.85231 20.41830
#
# Velocity S-wave (km/s) = 2.84387 3.54606 3.21420
# Velocity P-wave (km/s) = 5.10627 6.46685 5.82641
#
# Compressibility (1/GPa) = 0.03309042
#
# Stress axis : x y z
#
# Youngs Moduli (GPa) = 15.14670 48.35027 46.12037
#
# Poissons Ratio (x) = 1.22370 0.39111
# Poissons Ratio (y) = 0.38335 0.17795
# Poissons Ratio (z) = 0.12845 0.18656
#
# Static dielectric constant tensor:
#      x y z
#    x 1.678340 0.000000 0.000000 
#    y 0.000000 1.685600 0.000000 
#    z 0.000000 0.000000 1.703410 
# 
# From -- ./inp_files/22493.got.cif
#   From: 2010.05.17/outbox.cif.g08.bks.cpg/sg74_12_cif.got.tgz:22493.got - 2010.06.03 17:57:02.
