data_PCOD9538746
_publ_section_title
;
Structure prediction by ZEFSAII (Michael W. Deem and Ramdas Pophale) SiO2 
 PCOD9538746
Probable space group: I M M A
;
_chemical_formula_sum "Si O2"
_cell_formula_units_Z 96
_cell_length_a 14.831415
_cell_length_b 17.950094
_cell_length_c 17.633402
_cell_angle_alpha 90.000000
_cell_angle_beta 90.000000
_cell_angle_gamma 90.000000
_cell_volume 4694.457621
_symmetry_space_group_name_H-M "I M M A"
_symmetry_group_IT_number 74
_symmetry_cell_setting 'orthorhombic'
loop_
_space_group_symop_operation_xyz
x,y,z
-x,1/2-y,z
x,-y,-z
-x,1/2+y,-z
-x,-y,-z
x,1/2+y,-z
-x,y,z
x,1/2-y,z
1/2+x,1/2+y,1/2+z
1/2-x,-y,1/2+z
1/2+x,1/2-y,1/2-z
1/2-x,y,1/2-z
1/2-x,1/2-y,1/2-z
1/2+x,y,1/2-z
1/2-x,1/2+y,1/2+z
1/2+x,-y,1/2+z
loop_
_atom_site_type_symbol
_atom_site_label
_atom_site_fract_x
_atom_site_fract_y
_atom_site_fract_z
Si Si1 0.390940 0.897293 0.926660
Si Si2 0.355683 0.334213 0.759910
Si Si3 0.231404 0.836193 0.838558
Si Si4 0.893750 0.331811 0.901181
Si Si5 0.893080 0.567129 0.405414
Si Si6 0.890823 0.078499 0.044159
O O1 0.500000 0.887277 0.918192
O O2 0.328178 0.842625 0.879926
O O3 0.363211 0.981379 0.900998
O O4 0.365093 0.895476 0.015576
O O5 0.394496 0.250000 0.768184
O O6 0.250000 0.327575 0.750000
O O7 0.386238 0.370614 0.680346
O O8 0.373333 0.383922 0.832590
O O9 0.198042 0.750000 0.844333
O O10 0.250000 0.853376 0.750000
O O11 0.163856 0.894236 0.881566
O O12 0.853279 0.250000 0.889963
O O13 0.000000 0.326046 0.914570
O O14 0.858164 0.366334 0.977481
O O15 0.000000 0.560718 0.412854
O O16 0.000000 0.082678 0.057851
O O17 0.875549 0.000000 0.000000
#
# Coordination Sequence:
#
# PCOD9538746 Si02
#       6
#    16  16  16  16  16  16
#     4   9  21  40  62  90 121 160 211 265 322 381
#     4  10  21  32  49  84 123 159 199 244 302 376
#     4  11  26  44  65  95 129 172 221 273 335 392
#     4   9  18  34  54  78 114 157 196 243 304 368
#     4   9  19  37  59  84 119 161 202 252 315 376
#     4  10  23  42  67  97 126 165 218 270 327 393
#
# _framework density 20.449646999999999
#
# number of rings (size 3 to 8) (size 9 to 14) (size 15 to 20)
#    0.000    2.333    0.000    2.000    4.667    5.667 
#    0.000    6.667    0.000    0.000    0.000    0.000 
#    0.000    0.000    0.000    0.000    0.000    0.000 
#
# Total GULP energy -267363.379205 kJ/mol
# GULP energy per Si atom -5570.070400 kJ/mol
# Density = 2.040310 g / cm^3
# Si number density = 20.449647 Si / 1000 Ang^3
#
#
#
# Elastic Constant Matrix: (Units=GPa)
#
#
# Indices 1 2 3 4 5 6 
#
# 1 76.5091 25.1824 25.3447 0.0000 0.0000 0.0000
# 2 25.1824 48.7127 57.8043 -0.0002 0.0000 0.0000
# 3 25.3447 57.8043 148.4277 0.0003 0.0000 0.0000
# 4 0.0000 -0.0002 0.0003 2251.8188 0.0001 0.0000
# 5 0.0000 0.0000 0.0000 0.0001 33.1751 0.0000
# 6 0.0000 0.0000 0.0000 0.0000 0.0000 16.9360
#
#
#
# Elastic Compliance Matrix: (Units=1/GPa)
#
#
# Indices 1 2 3 4 5 6 
#
# 1 0.015815 -0.009242 0.000899 0.000000 0.000000 0.000000
# 2 -0.009242 0.043567 -0.015389 0.000000 0.000000 0.000000
# 3 0.000899 -0.015389 0.012577 0.000000 0.000000 0.000000
# 4 0.000000 0.000000 0.000000 0.000444 0.000000 0.000000
# 5 0.000000 0.000000 0.000000 0.000000 0.030143 0.000000
# 6 0.000000 0.000000 0.000000 0.000000 0.000000 0.059046
#
#
# Mechanical properties :
#
#
# Convention : Reuss Voigt Hill
#
# Bulk Modulus (GPa) = 40.82535 54.47912 47.65223
# Shear Modulus (GPa) = 23.01805 471.40720 247.21262
#
# Velocity S-wave (km/s) = 3.35863 15.19939 11.00686
# Velocity P-wave (km/s) = 5.92011 18.29554 13.59733
#
# Compressibility (1/GPa) = 0.02449458
#
# Stress axis : x y z
#
# Youngs Moduli (GPa) = 63.23298 22.95296 79.51072
#
# Poissons Ratio (x) = 0.21213 -0.07147
# Poissons Ratio (y) = 0.58440 1.22358
# Poissons Ratio (z) = -0.05684 0.35322
#
# Static dielectric constant tensor:
#      x y z
#    x 1.736700 0.000000 0.000000 
#    y 0.000000 1.848130 0.000000 
#    z 0.000000 0.000000 1.707970 
# 
# From -- ./inp_files/32397.got.cif
#   From: 2010.05.17/outbox.cif.g08.bks.cpg/sg74_17_cif.got.tgz:32397.got - 2010.06.03 17:57:02.
