data_PCOD9538352
_publ_section_title
;
Structure prediction by ZEFSAII (Michael W. Deem and Ramdas Pophale) SiO2 
 PCOD9538352
Probable space group: I M M A
;
_chemical_formula_sum "Si O2"
_cell_formula_units_Z 116
_cell_length_a 27.409888
_cell_length_b 9.637712
_cell_length_c 22.752578
_cell_angle_alpha 90.000000
_cell_angle_beta 90.000000
_cell_angle_gamma 90.000000
_cell_volume 6010.516824
_symmetry_space_group_name_H-M "I M M A"
_symmetry_group_IT_number 74
_symmetry_cell_setting 'orthorhombic'
loop_
_space_group_symop_operation_xyz
x,y,z
-x,1/2-y,z
x,-y,-z
-x,1/2+y,-z
-x,-y,-z
x,1/2+y,-z
-x,y,z
x,1/2-y,z
1/2+x,1/2+y,1/2+z
1/2-x,-y,1/2+z
1/2+x,1/2-y,1/2-z
1/2-x,y,1/2-z
1/2-x,1/2-y,1/2-z
1/2+x,y,1/2-z
1/2-x,1/2+y,1/2+z
1/2+x,-y,1/2+z
loop_
_atom_site_type_symbol
_atom_site_label
_atom_site_fract_x
_atom_site_fract_y
_atom_site_fract_z
Si Si1 0.359064 0.585957 0.835786
Si Si2 0.307699 0.407283 0.738542
Si Si3 0.306860 0.593004 0.399600
Si Si4 0.783563 0.915203 0.557724
Si Si5 0.058433 0.599999 0.819827
Si Si6 0.085540 0.031982 0.932682
Si Si7 0.442486 0.414933 0.790429
Si Si8 0.500000 0.250000 0.592417
O O1 0.367759 0.750000 0.830870
O O2 0.331471 0.522456 0.779373
O O3 0.323458 0.563393 0.891125
O O4 0.409031 0.498270 0.836036
O O5 0.324810 0.250000 0.753574
O O6 0.250000 0.410003 0.750000
O O7 0.316050 0.429733 0.669639
O O8 0.286742 0.750000 0.406250
O O9 0.268008 0.482013 0.422454
O O10 0.359147 0.586155 0.430992
O O11 0.778680 0.750000 0.547343
O O12 0.798514 0.000000 0.500000
O O13 0.071465 0.750000 0.793186
O O14 0.082983 0.587019 0.883382
O O15 0.070011 0.476984 0.774318
O O16 0.000000 0.598438 0.827607
O O17 0.043337 0.132753 0.909847
O O18 0.073211 0.000000 0.000000
O O19 0.500000 0.441540 0.799448
O O20 0.435001 0.250000 0.791974
#
# Coordination Sequence:
#
# PCOD9538352 Si02
#       8
#    16  16  16  16  16  16  16   4
#     4  11  23  39  63  95 129 166 204 250 312 368
#     4  10  20  36  62  93 126 166 205 252 312 378
#     4  11  23  41  63  89 120 158 207 258 316 377
#     4  11  25  43  65  92 125 162 203 251 304 372
#     4  10  22  37  57  84 117 156 201 257 315 369
#     4  12  26  39  61  80 112 163 214 269 326 376
#     4  10  22  39  64  94 126 163 206 250 302 369
#     4  12  26  44  58  80 114 158 224 276 324 376
#
# _framework density 19.299505
#
# number of rings (size 3 to 8) (size 9 to 14) (size 15 to 20)
#    0.000    1.241    2.759    2.690    1.931    4.966 
#    0.000    0.000    0.000    0.414    0.000    0.000 
#    0.000    0.000    0.000    0.000    0.000    0.000 
#
# Total GULP energy -323408.416829 kJ/mol
# GULP energy per Si atom -5576.007187 kJ/mol
# Density = 1.925558 g / cm^3
# Si number density = 19.299505 Si / 1000 Ang^3
#
#
#
# Elastic Constant Matrix: (Units=GPa)
#
#
# Indices 1 2 3 4 5 6 
#
# 1 108.9065 51.5199 32.4639 0.0000 0.0000 0.0000
# 2 51.5199 144.0611 49.3497 0.0000 0.0000 0.0000
# 3 32.4639 49.3497 68.2604 0.0000 0.0000 0.0000
# 4 0.0000 0.0000 0.0000 12.8714 0.0000 0.0000
# 5 0.0000 0.0000 0.0000 0.0000 16.2762 0.0000
# 6 0.0000 0.0000 0.0000 0.0000 0.0000 23.5764
#
#
#
# Elastic Compliance Matrix: (Units=1/GPa)
#
#
# Indices 1 2 3 4 5 6 
#
# 1 0.011600 -0.003002 -0.003346 0.000000 0.000000 0.000000
# 2 -0.003002 0.010003 -0.005804 0.000000 0.000000 0.000000
# 3 -0.003346 -0.005804 0.020438 0.000000 0.000000 0.000000
# 4 0.000000 0.000000 0.000000 0.077692 0.000000 0.000000
# 5 0.000000 0.000000 0.000000 0.000000 0.061440 0.000000
# 6 0.000000 0.000000 0.000000 0.000000 0.000000 0.042415
#
#
# Mechanical properties :
#
#
# Convention : Reuss Voigt Hill
#
# Bulk Modulus (GPa) = 56.38474 65.32168 60.85321
# Shear Modulus (GPa) = 19.70016 23.07109 21.38562
#
# Velocity S-wave (km/s) = 3.19840 3.46124 3.33241
# Velocity P-wave (km/s) = 6.55124 7.06352 6.81220
#
# Compressibility (1/GPa) = 0.01773530
#
# Stress axis : x y z
#
# Youngs Moduli (GPa) = 86.20771 99.96539 48.92937
#
# Poissons Ratio (x) = 0.30010 0.16374
# Poissons Ratio (y) = 0.25880 0.28400
# Poissons Ratio (z) = 0.28849 0.58024
#
# Static dielectric constant tensor:
#      x y z
#    x 1.690640 0.000000 0.000000 
#    y 0.000000 1.261540 0.000000 
#    z 0.000000 0.000000 1.681360 
# 
# From -- ./inp_files/62443.got.cif
#   From: 2010.05.17/outbox.cif.g08.bks.cpg/sg74_32_cif.got.tgz:62443.got - 2010.06.03 17:57:02.
