data_PCOD9538559
_publ_section_title
;
Structure prediction by ZEFSAII (Michael W. Deem and Ramdas Pophale) SiO2 
 PCOD9538559
Probable space group: I M M A
;
_chemical_formula_sum "Si O2"
_cell_formula_units_Z 76
_cell_length_a 15.776141
_cell_length_b 15.545339
_cell_length_c 17.795845
_cell_angle_alpha 90.000000
_cell_angle_beta 90.000000
_cell_angle_gamma 90.000000
_cell_volume 4364.350192
_symmetry_space_group_name_H-M "I M M A"
_symmetry_group_IT_number 74
_symmetry_cell_setting 'orthorhombic'
loop_
_space_group_symop_operation_xyz
x,y,z
-x,1/2-y,z
x,-y,-z
-x,1/2+y,-z
-x,-y,-z
x,1/2+y,-z
-x,y,z
x,1/2-y,z
1/2+x,1/2+y,1/2+z
1/2-x,-y,1/2+z
1/2+x,1/2-y,1/2-z
1/2-x,y,1/2-z
1/2-x,1/2-y,1/2-z
1/2+x,y,1/2-z
1/2-x,1/2+y,1/2+z
1/2+x,-y,1/2+z
loop_
_atom_site_type_symbol
_atom_site_label
_atom_site_fract_x
_atom_site_fract_y
_atom_site_fract_z
Si Si1 0.500000 0.250000 0.977190
Si Si2 0.500000 0.845978 0.168110
Si Si3 0.765480 0.559536 0.572724
Si Si4 0.837876 0.045775 0.714997
Si Si5 0.842912 0.750000 0.585707
Si Si6 0.902371 0.577907 0.845371
Si Si7 0.648005 0.250000 0.257989
O O1 0.500000 0.168890 0.921421
O O2 0.418635 0.250000 0.027790
O O3 0.500000 0.750000 0.201711
O O4 0.587730 0.891198 0.189297
O O5 0.784159 0.500000 0.500000
O O6 0.809666 0.515099 0.645456
O O7 0.793667 0.659861 0.571816
O O8 0.664934 0.562059 0.588839
O O9 0.750000 0.083037 0.750000
O O10 0.880396 0.990495 0.780859
O O11 0.878874 0.750000 0.670981
O O12 0.882308 0.668082 0.804519
O O13 0.000000 0.573643 0.868041
O O14 0.750000 0.250000 0.250000
#
# Coordination Sequence:
#
# PCOD9538559 Si02
#       7
#     4   8  16  16   8  16   8
#     4  10  26  36  54  90 122 158 196 242 308 380
#     4  10  22  41  58  84 128 160 215 255 292 374
#     4  11  23  38  62  87 124 170 200 249 318 373
#     4  10  20  38  62  89 117 160 209 260 312 357
#     4  12  22  39  60  89 130 155 200 251 306 387
#     4  11  21  36  61  90 123 156 207 258 305 367
#     4  12  19  36  59  92 121 156 200 254 311 371
#
# _framework density 17.413817000000002
#
# number of rings (size 3 to 8) (size 9 to 14) (size 15 to 20)
#    0.316    0.842    5.263    2.211    1.474    1.684 
#    0.000    2.105    2.316    0.000    0.000    0.000 
#    0.000    0.000    0.000    0.000    0.000    0.000 
#
# Total GULP energy -211846.280304 kJ/mol
# GULP energy per Si atom -5574.902113 kJ/mol
# Density = 1.737418 g / cm^3
# Si number density = 17.413817 Si / 1000 Ang^3
#
#
#
# Elastic Constant Matrix: (Units=GPa)
#
#
# Indices 1 2 3 4 5 6 
#
# 1 156.3431 61.1039 27.8592 0.0000 0.0000 0.0000
# 2 61.1039 97.5993 32.2609 0.0000 0.0000 0.0000
# 3 27.8592 32.2609 71.3630 0.0000 0.0000 0.0000
# 4 0.0000 0.0000 0.0000 29.6560 0.0000 0.0000
# 5 0.0000 0.0000 0.0000 0.0000 30.4839 0.0000
# 6 0.0000 0.0000 0.0000 0.0000 0.0000 29.8105
#
#
#
# Elastic Compliance Matrix: (Units=1/GPa)
#
#
# Indices 1 2 3 4 5 6 
#
# 1 0.008538 -0.004989 -0.001078 0.000000 0.000000 0.000000
# 2 -0.004989 0.014961 -0.004816 0.000000 0.000000 0.000000
# 3 -0.001078 -0.004816 0.016611 0.000000 0.000000 0.000000
# 4 0.000000 0.000000 0.000000 0.033720 0.000000 0.000000
# 5 0.000000 0.000000 0.000000 0.000000 0.032804 0.000000
# 6 0.000000 0.000000 0.000000 0.000000 0.000000 0.033545
#
#
# Mechanical properties :
#
#
# Convention : Reuss Voigt Hill
#
# Bulk Modulus (GPa) = 54.51174 63.08374 58.79774
# Shear Modulus (GPa) = 29.75123 31.59551 30.67337
#
# Velocity S-wave (km/s) = 4.13787 4.26419 4.20150
# Velocity P-wave (km/s) = 7.36213 7.78134 7.57464
#
# Compressibility (1/GPa) = 0.01834467
#
# Stress axis : x y z
#
# Youngs Moduli (GPa) = 117.12075 66.83845 60.20221
#
# Poissons Ratio (x) = 0.33347 0.06488
# Poissons Ratio (y) = 0.58435 0.28992
# Poissons Ratio (z) = 0.12622 0.32188
#
# Static dielectric constant tensor:
#      x y z
#    x 1.597940 0.000000 0.000000 
#    y 0.000000 1.717990 0.000000 
#    z 0.000000 0.000000 1.590610 
# 
# From -- ./inp_files/51692.got.cif
#   From: 2010.05.17/outbox.cif.g08.bks.cpg/sg74_26_cif.got.tgz:51692.got - 2010.06.03 17:57:02.
