data_PCOD9538364
_publ_section_title
;
Structure prediction by ZEFSAII (Michael W. Deem and Ramdas Pophale) SiO2 
 PCOD9538364
Probable space group: I M M A
;
_chemical_formula_sum "Si O2"
_cell_formula_units_Z 88
_cell_length_a 17.308124
_cell_length_b 19.179686
_cell_length_c 12.158697
_cell_angle_alpha 90.000000
_cell_angle_beta 90.000000
_cell_angle_gamma 90.000000
_cell_volume 4036.254355
_symmetry_space_group_name_H-M "I M M A"
_symmetry_group_IT_number 74
_symmetry_cell_setting 'orthorhombic'
loop_
_space_group_symop_operation_xyz
x,y,z
-x,1/2-y,z
x,-y,-z
-x,1/2+y,-z
-x,-y,-z
x,1/2+y,-z
-x,y,z
x,1/2-y,z
1/2+x,1/2+y,1/2+z
1/2-x,-y,1/2+z
1/2+x,1/2-y,1/2-z
1/2-x,y,1/2-z
1/2-x,1/2-y,1/2-z
1/2+x,y,1/2-z
1/2-x,1/2+y,1/2+z
1/2+x,-y,1/2+z
loop_
_atom_site_type_symbol
_atom_site_label
_atom_site_fract_x
_atom_site_fract_y
_atom_site_fract_z
Si Si1 0.589923 0.372105 0.283145
Si Si2 0.809117 0.750000 0.403813
Si Si3 0.589473 0.886268 0.462815
Si Si4 0.594109 0.250000 0.125522
Si Si5 0.744511 0.094974 0.935366
Si Si6 0.414685 0.250000 0.690649
Si Si7 0.814159 0.966771 0.665245
O O1 0.500000 0.357502 0.287601
O O2 0.612617 0.369311 0.410526
O O3 0.622158 0.315130 0.198896
O O4 0.607040 0.444544 0.222632
O O5 0.869704 0.750000 0.504969
O O6 0.762885 0.822587 0.416590
O O7 0.851312 0.750000 0.286006
O O8 0.500000 0.914122 0.461621
O O9 0.665561 0.928648 0.425277
O O10 0.588660 0.817436 0.387829
O O11 0.500000 0.250000 0.116045
O O12 0.695027 0.049068 0.850887
O O13 0.707165 0.071096 0.051199
O O14 0.500000 0.250000 0.744213
O O15 0.750000 0.941010 0.750000
#
# Coordination Sequence:
#
# PCOD9538364 Si02
#       7
#    16   8  16   8  16   8  16
#     4  10  20  40  69 100 131 170 219 277 330 382
#     4  12  24  41  66  98 134 175 226 257 325 396
#     4  10  21  41  65  95 128 167 219 273 329 385
#     4  10  20  36  63  98 135 172 217 270 321 379
#     4  11  25  41  66  99 130 174 216 271 328 396
#     4  10  23  41  62  95 139 176 213 269 326 390
#     4  11  23  44  64  93 137 169 214 271 331 389
#
# _framework density 21.802392000000001
#
# number of rings (size 3 to 8) (size 9 to 14) (size 15 to 20)
#    0.000    1.455    3.636    1.364    2.545    2.909 
#    0.000    8.182    0.000    0.000    0.000    0.000 
#    0.000    0.000    0.000    0.000    0.000    0.000 
#
# Total GULP energy -245451.244089 kJ/mol
# GULP energy per Si atom -5578.437366 kJ/mol
# Density = 2.175277 g / cm^3
# Si number density = 21.802392 Si / 1000 Ang^3
#
#
#
# Elastic Constant Matrix: (Units=GPa)
#
#
# Indices 1 2 3 4 5 6 
#
# 1 38.4907 9.4227 15.4144 0.0000 0.0000 0.0000
# 2 9.4227 98.7647 25.9518 0.0000 0.0000 0.0000
# 3 15.4144 25.9518 122.9452 0.0000 0.0000 0.0000
# 4 0.0000 0.0000 0.0000 12.8289 0.0000 0.0000
# 5 0.0000 0.0000 0.0000 0.0000 34.4591 0.0000
# 6 0.0000 0.0000 0.0000 0.0000 0.0000 -286.1112
#
#
#
# Elastic Compliance Matrix: (Units=1/GPa)
#
#
# Indices 1 2 3 4 5 6 
#
# 1 0.027662 -0.001829 -0.003082 0.000000 0.000000 0.000000
# 2 -0.001829 0.010841 -0.002059 0.000000 0.000000 0.000000
# 3 -0.003082 -0.002059 0.008955 0.000000 0.000000 0.000000
# 4 0.000000 0.000000 0.000000 0.077949 0.000000 0.000000
# 5 0.000000 0.000000 0.000000 0.000000 0.029020 0.000000
# 6 0.000000 0.000000 0.000000 0.000000 0.000000 -0.003495
#
#
# Mechanical properties :
#
#
# Convention : Reuss Voigt Hill
#
# Bulk Modulus (GPa) = 29.83548 40.19761 35.01654
# Shear Modulus (GPa) = 28.40188 -33.80386 -2.70099
#
# Velocity S-wave (km/s) = 3.61320 -3.94187 -1.11424
# Velocity P-wave (km/s) = 5.57864 1.49682 3.80005
#
# Compressibility (1/GPa) = 0.03351715
#
# Stress axis : x y z
#
# Youngs Moduli (GPa) = 36.15013 92.24569 111.67282
#
# Poissons Ratio (x) = 0.16875 0.34418
# Poissons Ratio (y) = 0.06613 0.22993
# Poissons Ratio (z) = 0.11142 0.18993
#
# Static dielectric constant tensor:
#      x y z
#    x 1.868900 0.000000 0.000000 
#    y 0.000000 1.830660 0.000000 
#    z 0.000000 0.000000 1.807980 
# 
# From -- ./inp_files/22233.got.cif
#   From: 2010.05.17/outbox.cif.g08.bks.cpg/sg74_12_cif.got.tgz:22233.got - 2010.06.03 17:57:02.
