data_PCOD9538021
_publ_section_title
;
Structure prediction by ZEFSAII (Michael W. Deem and Ramdas Pophale) SiO2 
 PCOD9538021
Probable space group: I M M A
;
_chemical_formula_sum "Si O2"
_cell_formula_units_Z 96
_cell_length_a 19.753610
_cell_length_b 16.149211
_cell_length_c 14.506567
_cell_angle_alpha 90.000000
_cell_angle_beta 90.000000
_cell_angle_gamma 90.000000
_cell_volume 4627.670538
_symmetry_space_group_name_H-M "I M M A"
_symmetry_group_IT_number 74
_symmetry_cell_setting 'orthorhombic'
loop_
_space_group_symop_operation_xyz
x,y,z
-x,1/2-y,z
x,-y,-z
-x,1/2+y,-z
-x,-y,-z
x,1/2+y,-z
-x,y,z
x,1/2-y,z
1/2+x,1/2+y,1/2+z
1/2-x,-y,1/2+z
1/2+x,1/2-y,1/2-z
1/2-x,y,1/2-z
1/2-x,1/2-y,1/2-z
1/2+x,y,1/2-z
1/2-x,1/2+y,1/2+z
1/2+x,-y,1/2+z
loop_
_atom_site_type_symbol
_atom_site_label
_atom_site_fract_x
_atom_site_fract_y
_atom_site_fract_z
Si Si1 0.607385 0.340808 0.352875
Si Si2 0.184982 0.114291 0.317038
Si Si3 0.737599 0.158829 0.489625
Si Si4 0.799307 0.921587 0.337291
Si Si5 0.580403 0.345917 0.745076
Si Si6 0.924583 0.519718 0.095763
O O1 0.577329 0.250000 0.373194
O O2 0.629594 0.342885 0.246171
O O3 0.670696 0.348986 0.425130
O O4 0.570929 0.428721 0.361431
O O5 0.250000 0.121027 0.250000
O O6 0.202719 0.153805 0.414156
O O7 0.175762 0.016489 0.332888
O O8 0.734123 0.250000 0.533038
O O9 0.756308 0.095700 0.570545
O O10 0.750000 0.907166 0.250000
O O11 0.866099 0.864855 0.325989
O O12 0.500000 0.361061 0.765812
O O13 0.586199 0.250000 0.716346
O O14 0.601962 0.410768 0.664687
O O15 0.000000 0.551863 0.072404
O O16 0.887755 0.500000 0.000000
#
# Coordination Sequence:
#
# PCOD9538021 Si02
#       6
#    16  16  16  16  16  16
#     4  10  20  35  58  85 116 153 191 239 295 347
#     4   9  18  34  55  80 112 154 188 230 295 355
#     4  10  21  34  53  84 118 150 190 240 293 352
#     4  11  22  36  59  87 118 151 195 248 294 343
#     4  10  22  41  62  83 116 160 198 239 298 358
#     4  10  22  38  57  81 114 155 198 239 283 347
#
# _framework density 20.744778
#
# number of rings (size 3 to 8) (size 9 to 14) (size 15 to 20)
#    0.000    2.000    1.667    1.500    2.333    4.333 
#    0.000    1.667    0.000    3.000    0.000    0.000 
#    0.000    0.000    0.000    0.000    0.000    0.000 
#
# Total GULP energy -267335.607916 kJ/mol
# GULP energy per Si atom -5569.491832 kJ/mol
# Density = 2.069756 g / cm^3
# Si number density = 20.744778 Si / 1000 Ang^3
#
#
#
# Elastic Constant Matrix: (Units=GPa)
#
#
# Indices 1 2 3 4 5 6 
#
# 1 72.3730 31.0743 23.0831 0.0000 0.0000 0.0000
# 2 31.0743 98.0656 28.9963 0.0000 0.0000 0.0000
# 3 23.0831 28.9963 88.2080 0.0000 0.0000 0.0000
# 4 0.0000 0.0000 0.0000 24.8783 0.0000 0.0000
# 5 0.0000 0.0000 0.0000 0.0000 2.5495 0.0000
# 6 0.0000 0.0000 0.0000 0.0000 0.0000 64.8539
#
#
#
# Elastic Compliance Matrix: (Units=1/GPa)
#
#
# Indices 1 2 3 4 5 6 
#
# 1 0.016638 -0.004414 -0.002903 0.000000 0.000000 0.000000
# 2 -0.004414 0.012466 -0.002943 0.000000 0.000000 0.000000
# 3 -0.002903 -0.002943 0.013064 0.000000 0.000000 0.000000
# 4 0.000000 0.000000 0.000000 0.040196 0.000000 0.000000
# 5 0.000000 0.000000 0.000000 0.000000 0.392236 0.000000
# 6 0.000000 0.000000 0.000000 0.000000 0.000000 0.015419
#
#
# Mechanical properties :
#
#
# Convention : Reuss Voigt Hill
#
# Bulk Modulus (GPa) = 46.19217 47.21712 46.70464
# Shear Modulus (GPa) = 9.65706 30.15586 19.90646
#
# Velocity S-wave (km/s) = 2.15993 3.81683 3.10108
# Velocity P-wave (km/s) = 5.34187 6.49881 5.94854
#
# Compressibility (1/GPa) = 0.02164869
#
# Stress axis : x y z
#
# Youngs Moduli (GPa) = 60.10192 80.21799 76.54643
#
# Poissons Ratio (x) = 0.35407 0.22223
# Poissons Ratio (y) = 0.26528 0.22527
# Poissons Ratio (z) = 0.17449 0.23607
#
# Static dielectric constant tensor:
#      x y z
#    x 1.784460 0.000000 0.000000 
#    y 0.000000 1.778700 0.000000 
#    z 0.000000 0.000000 1.759040 
# 
# From -- ./inp_files/35233.got.cif
#   From: 2010.05.17/outbox.cif.g08.bks.cpg/sg74_18_cif.got.tgz:35233.got - 2010.06.03 17:57:02.
