data_PCOD9538638
_publ_section_title
;
Structure prediction by ZEFSAII (Michael W. Deem and Ramdas Pophale) SiO2 
 PCOD9538638
Probable space group: I M M A
;
_chemical_formula_sum "Si O2"
_cell_formula_units_Z 72
_cell_length_a 14.547785
_cell_length_b 16.653518
_cell_length_c 16.338241
_cell_angle_alpha 90.000000
_cell_angle_beta 90.000000
_cell_angle_gamma 90.000000
_cell_volume 3958.295045
_symmetry_space_group_name_H-M "I M M A"
_symmetry_group_IT_number 74
_symmetry_cell_setting 'orthorhombic'
loop_
_space_group_symop_operation_xyz
x,y,z
-x,1/2-y,z
x,-y,-z
-x,1/2+y,-z
-x,-y,-z
x,1/2+y,-z
-x,y,z
x,1/2-y,z
1/2+x,1/2+y,1/2+z
1/2-x,-y,1/2+z
1/2+x,1/2-y,1/2-z
1/2-x,y,1/2-z
1/2-x,1/2-y,1/2-z
1/2+x,y,1/2-z
1/2-x,1/2+y,1/2+z
1/2+x,-y,1/2+z
loop_
_atom_site_type_symbol
_atom_site_label
_atom_site_fract_x
_atom_site_fract_y
_atom_site_fract_z
Si Si1 0.388482 0.250000 0.695039
Si Si2 0.610043 0.097355 0.803486
Si Si3 0.235115 0.160685 0.106864
Si Si4 0.609644 0.750000 0.493048
Si Si5 0.750000 0.462079 0.250000
Si Si6 0.106044 0.403414 0.507542
O O1 0.500000 0.250000 0.693653
O O2 0.362163 0.329575 0.744538
O O3 0.358005 0.250000 0.600945
O O4 0.500000 0.083558 0.795932
O O5 0.627080 0.118601 0.898423
O O6 0.667533 0.019132 0.779721
O O7 0.248306 0.250000 0.143411
O O8 0.152354 0.174522 0.042230
O O9 0.219141 0.094694 0.175479
O O10 0.324358 0.137220 0.054624
O O11 0.500000 0.750000 0.495685
O O12 0.114255 0.500000 0.500000
O O13 0.000000 0.382096 0.490225
#
# Coordination Sequence:
#
# PCOD9538638 Si02
#       6
#     8  16  16   8   8  16
#     4   9  20  40  61  87 119 152 196 243 302 367
#     4  10  23  39  62  92 124 158 195 249 310 367
#     4  10  24  39  61  86 120 163 208 251 301 356
#     4   9  22  42  61  82 118 162 205 252 294 354
#     4  12  23  39  62  86 124 156 210 253 297 360
#     4  10  20  39  61  89 126 156 193 248 309 368
#
# _framework density 18.18965
#
# number of rings (size 3 to 8) (size 9 to 14) (size 15 to 20)
#    0.667    1.333    2.222    0.333    4.667    1.778 
#    0.000    0.000    0.000    4.667    0.000    0.000 
#    0.000    0.000    0.000    0.000    0.000    0.000 
#
# Total GULP energy -200836.350643 kJ/mol
# GULP energy per Si atom -5578.787518 kJ/mol
# Density = 1.814825 g / cm^3
# Si number density = 18.189650 Si / 1000 Ang^3
#
#
#
# Elastic Constant Matrix: (Units=GPa)
#
#
# Indices 1 2 3 4 5 6 
#
# 1 44.9274 2.4067 9.2928 0.0000 0.0000 0.0000
# 2 2.4067 63.1559 15.4910 0.0000 0.0000 0.0000
# 3 9.2928 15.4910 86.4252 0.0000 0.0000 0.0000
# 4 0.0000 0.0000 0.0000 17.3095 0.0000 0.0000
# 5 0.0000 0.0000 0.0000 0.0000 23.5327 0.0000
# 6 0.0000 0.0000 0.0000 0.0000 0.0000 -87.2681
#
#
#
# Elastic Compliance Matrix: (Units=1/GPa)
#
#
# Indices 1 2 3 4 5 6 
#
# 1 0.022769 -0.000279 -0.002398 0.000000 0.000000 0.000000
# 2 -0.000279 0.016565 -0.002939 0.000000 0.000000 0.000000
# 3 -0.002398 -0.002939 0.012355 0.000000 0.000000 0.000000
# 4 0.000000 0.000000 0.000000 0.057772 0.000000 0.000000
# 5 0.000000 0.000000 0.000000 0.000000 0.042494 0.000000
# 6 0.000000 0.000000 0.000000 0.000000 0.000000 -0.011459
#
#
# Mechanical properties :
#
#
# Convention : Reuss Voigt Hill
#
# Bulk Modulus (GPa) = 24.71795 27.65438 26.18616
# Shear Modulus (GPa) = 30.26349 1.86937 16.06643
#
# Velocity S-wave (km/s) = 4.08337 1.01486 2.97522
# Velocity P-wave (km/s) = 5.98752 4.07549 5.12152
#
# Compressibility (1/GPa) = 0.04045643
#
# Stress axis : x y z
#
# Youngs Moduli (GPa) = 43.91909 60.36676 80.93646
#
# Poissons Ratio (x) = 0.01687 0.19410
# Poissons Ratio (y) = 0.01227 0.23789
# Poissons Ratio (z) = 0.10532 0.17743
#
# Static dielectric constant tensor:
#      x y z
#    x 1.613800 0.000000 0.000000 
#    y 0.000000 1.614380 0.000000 
#    z 0.000000 0.000000 1.614670 
# 
# From -- ./inp_files/31980.got.cif
#   From: 2010.05.17/outbox.cif.g08.bks.cpg/sg74_16_cif.got.tgz:31980.got - 2010.06.03 17:57:02.
