data_PCOD9538442
_publ_section_title
;
Structure prediction by ZEFSAII (Michael W. Deem and Ramdas Pophale) SiO2 
 PCOD9538442
Probable space group: I M M A
;
_chemical_formula_sum "Si O2"
_cell_formula_units_Z 52
_cell_length_a 13.710416
_cell_length_b 17.653890
_cell_length_c 9.322886
_cell_angle_alpha 90.000000
_cell_angle_beta 90.000000
_cell_angle_gamma 90.000000
_cell_volume 2256.531613
_symmetry_space_group_name_H-M "I M M A"
_symmetry_group_IT_number 74
_symmetry_cell_setting 'orthorhombic'
loop_
_space_group_symop_operation_xyz
x,y,z
-x,1/2-y,z
x,-y,-z
-x,1/2+y,-z
-x,-y,-z
x,1/2+y,-z
-x,y,z
x,1/2-y,z
1/2+x,1/2+y,1/2+z
1/2-x,-y,1/2+z
1/2+x,1/2-y,1/2-z
1/2-x,y,1/2-z
1/2-x,1/2-y,1/2-z
1/2+x,y,1/2-z
1/2-x,1/2+y,1/2+z
1/2+x,-y,1/2+z
loop_
_atom_site_type_symbol
_atom_site_label
_atom_site_fract_x
_atom_site_fract_y
_atom_site_fract_z
Si Si1 0.250000 0.250000 0.750000
Si Si2 0.117116 0.885130 0.346438
Si Si3 0.381315 0.336732 0.163543
Si Si4 0.881554 0.973030 0.845858
O O1 0.166478 0.183132 0.738225
O O2 0.146659 0.874347 0.512209
O O3 0.000000 0.878345 0.340404
O O4 0.142159 0.965504 0.276085
O O5 0.500000 0.334783 0.164509
O O6 0.347604 0.250000 0.167851
O O7 0.351471 0.389628 0.295496
O O8 0.000000 0.971558 0.854162
O O9 0.844973 0.000000 0.000000
#
# Coordination Sequence:
#
# PCOD9538442 Si02
#       4
#     4  16  16  16
#     4  12  22  36  60  92 118 152 206 262 296 358
#     4  10  20  37  61  87 120 159 203 252 302 361
#     4   9  16  31  57  90 121 155 201 247 295 362
#     4   9  18  34  57  88 123 159 198 246 307 365
#
# _framework density 23.044215999999999
#
# number of rings (size 3 to 8) (size 9 to 14) (size 15 to 20)
#    0.000    2.462    1.538    1.385    0.000    3.692 
#    2.769    3.077    0.000    1.846    0.000    0.000 
#    0.000    0.000    0.000    0.000    0.000    0.308 
#
# Total GULP energy -144903.893297 kJ/mol
# GULP energy per Si atom -5573.226665 kJ/mol
# Density = 2.299177 g / cm^3
# Si number density = 23.044216 Si / 1000 Ang^3
#
#
#
# Elastic Constant Matrix: (Units=GPa)
#
#
# Indices 1 2 3 4 5 6 
#
# 1 89.0137 -2.1784 19.4513 0.0000 0.0000 0.0000
# 2 -2.1784 183.0455 116.0786 0.0000 0.0000 0.0000
# 3 19.4513 116.0786 135.8852 0.0000 0.0000 0.0000
# 4 0.0000 0.0000 0.0000 11.7986 0.0000 0.0000
# 5 0.0000 0.0000 0.0000 0.0000 11.2466 0.0000
# 6 0.0000 0.0000 0.0000 0.0000 0.0000 -21.2775
#
#
#
# Elastic Compliance Matrix: (Units=1/GPa)
#
#
# Indices 1 2 3 4 5 6 
#
# 1 0.012192 0.002732 -0.004079 0.000000 0.000000 0.000000
# 2 0.002732 0.012533 -0.011097 0.000000 0.000000 0.000000
# 3 -0.004079 -0.011097 0.017423 0.000000 0.000000 0.000000
# 4 0.000000 0.000000 0.000000 0.084756 0.000000 0.000000
# 5 0.000000 0.000000 0.000000 0.000000 0.088916 0.000000
# 6 0.000000 0.000000 0.000000 0.000000 0.000000 -0.046998
#
#
# Mechanical properties :
#
#
# Convention : Reuss Voigt Hill
#
# Bulk Modulus (GPa) = 57.93940 74.96082 66.45011
# Shear Modulus (GPa) = 25.06724 18.65972 21.86348
#
# Velocity S-wave (km/s) = 3.30174 2.84867 3.08354
# Velocity P-wave (km/s) = 6.30338 6.58936 6.44796
#
# Compressibility (1/GPa) = 0.01725941
#
# Stress axis : x y z
#
# Youngs Moduli (GPa) = 82.01850 79.78999 57.39663
#
# Poissons Ratio (x) = -0.21796 0.23411
# Poissons Ratio (y) = -0.22405 0.63694
# Poissons Ratio (z) = 0.33453 0.88544
#
# Static dielectric constant tensor:
#      x y z
#    x 1.872840 0.000000 0.000000 
#    y 0.000000 1.808630 0.000000 
#    z 0.000000 0.000000 1.851460 
# 
# From -- ./inp_files/9910.got.cif
#   From: 2010.05.17/outbox.cif.g08.bks.cpg/sg74_5_cif.got.tgz:9910.got - 2010.06.03 17:57:02.
