data_PCOD9538608
_publ_section_title
;
Structure prediction by ZEFSAII (Michael W. Deem and Ramdas Pophale) SiO2 
 PCOD9538608
Probable space group: I M M A
;
_chemical_formula_sum "Si O2"
_cell_formula_units_Z 88
_cell_length_a 11.696937
_cell_length_b 16.580231
_cell_length_c 23.424478
_cell_angle_alpha 90.000000
_cell_angle_beta 90.000000
_cell_angle_gamma 90.000000
_cell_volume 4542.894481
_symmetry_space_group_name_H-M "I M M A"
_symmetry_group_IT_number 74
_symmetry_cell_setting 'orthorhombic'
loop_
_space_group_symop_operation_xyz
x,y,z
-x,1/2-y,z
x,-y,-z
-x,1/2+y,-z
-x,-y,-z
x,1/2+y,-z
-x,y,z
x,1/2-y,z
1/2+x,1/2+y,1/2+z
1/2-x,-y,1/2+z
1/2+x,1/2-y,1/2-z
1/2-x,y,1/2-z
1/2-x,1/2-y,1/2-z
1/2+x,y,1/2-z
1/2-x,1/2+y,1/2+z
1/2+x,-y,1/2+z
loop_
_atom_site_type_symbol
_atom_site_label
_atom_site_fract_x
_atom_site_fract_y
_atom_site_fract_z
Si Si1 0.637050 0.160309 0.589964
Si Si2 0.500000 0.503217 0.066576
Si Si3 0.000000 0.654208 0.362840
Si Si4 0.198792 0.909407 0.632554
Si Si5 0.863748 0.588760 0.972517
Si Si6 0.774437 0.574065 0.314361
Si Si7 0.638968 0.750000 0.795811
O O1 0.500000 0.153638 0.589097
O O2 0.670693 0.250000 0.607711
O O3 0.675860 0.145050 0.524998
O O4 0.686047 0.100146 0.636534
O O5 0.500000 0.598061 0.081333
O O6 0.605869 0.455987 0.093852
O O7 0.500000 0.500000 0.000000
O O8 0.110247 0.621064 0.330085
O O9 0.000000 0.750000 0.370785
O O10 0.301196 0.896182 0.587290
O O11 0.157203 0.828909 0.664194
O O12 0.221898 0.977420 0.680183
O O13 0.000000 0.597697 0.964291
O O14 0.844138 0.500000 0.000000
O O15 0.750000 0.597271 0.250000
O O16 0.500000 0.750000 0.776731
O O17 0.750000 0.750000 0.750000
#
# Coordination Sequence:
#
# PCOD9538608 Si02
#       7
#    16   8   8  16  16  16   8
#     4  10  22  39  61  94 132 171 215 271 332 400
#     4  10  22  41  68  94 133 176 214 272 338 413
#     4  10  24  42  59  93 128 157 216 264 314 396
#     4  11  23  44  68  97 132 170 228 280 348 417
#     4  10  20  38  65  98 134 170 217 273 338 419
#     4  11  24  42  64  89 123 173 218 267 329 400
#     4  12  28  52  74 106 144 186 245 312 367 428
#
# _framework density 19.370909000000001
#
# number of rings (size 3 to 8) (size 9 to 14) (size 15 to 20)
#    0.000    1.455    2.727    1.636    5.091    2.182 
#    1.636    0.000    0.000    0.000    0.000    0.000 
#    0.000    0.000    0.000    0.000    0.000    0.000 
#
# Total GULP energy -245267.886606 kJ/mol
# GULP energy per Si atom -5574.270150 kJ/mol
# Density = 1.932682 g / cm^3
# Si number density = 19.370909 Si / 1000 Ang^3
#
#
#
# Elastic Constant Matrix: (Units=GPa)
#
#
# Indices 1 2 3 4 5 6 
#
# 1 60.0152 28.2934 46.2001 0.0000 0.0000 0.0000
# 2 28.2934 144.9046 40.8242 0.0000 0.0000 0.0000
# 3 46.2001 40.8242 121.8764 0.0000 0.0000 0.0000
# 4 0.0000 0.0000 0.0000 7.6966 0.0000 0.0000
# 5 0.0000 0.0000 0.0000 0.0000 21.2679 0.0000
# 6 0.0000 0.0000 0.0000 0.0000 0.0000 17.6428
#
#
#
# Elastic Compliance Matrix: (Units=1/GPa)
#
#
# Indices 1 2 3 4 5 6 
#
# 1 0.024242 -0.002368 -0.008397 0.000000 0.000000 0.000000
# 2 -0.002368 0.007852 -0.001732 0.000000 0.000000 0.000000
# 3 -0.008397 -0.001732 0.011968 0.000000 0.000000 0.000000
# 4 0.000000 0.000000 0.000000 0.129927 0.000000 0.000000
# 5 0.000000 0.000000 0.000000 0.000000 0.047019 0.000000
# 6 0.000000 0.000000 0.000000 0.000000 0.000000 0.056680
#
#
# Mechanical properties :
#
#
# Convention : Reuss Voigt Hill
#
# Bulk Modulus (GPa) = 52.44221 61.93684 57.18952
# Shear Modulus (GPa) = 16.17920 23.42002 19.79961
#
# Velocity S-wave (km/s) = 2.89317 3.48088 3.20055
# Velocity P-wave (km/s) = 6.18806 6.94255 6.57613
#
# Compressibility (1/GPa) = 0.01906861
#
# Stress axis : x y z
#
# Youngs Moduli (GPa) = 41.24997 127.36417 83.55471
#
# Poissons Ratio (x) = 0.30159 0.70157
# Poissons Ratio (y) = 0.09768 0.14475
# Poissons Ratio (z) = 0.34636 0.22064
#
# Static dielectric constant tensor:
#      x y z
#    x 1.728520 0.000000 0.000000 
#    y 0.000000 1.720160 0.000000 
#    z 0.000000 0.000000 1.626900 
# 
# From -- ./inp_files/58693.got.cif
#   From: 2010.05.17/outbox.cif.g08.bks.cpg/sg74_30_cif.got.tgz:58693.got - 2010.06.03 17:57:02.
