data_PCOD9538729
_publ_section_title
;
Structure prediction by ZEFSAII (Michael W. Deem and Ramdas Pophale) SiO2 
 PCOD9538729
Probable space group: I M M A
;
_chemical_formula_sum "Si O2"
_cell_formula_units_Z 92
_cell_length_a 21.724523
_cell_length_b 26.233600
_cell_length_c 8.637470
_cell_angle_alpha 90.000000
_cell_angle_beta 90.000000
_cell_angle_gamma 90.000000
_cell_volume 4922.601660
_symmetry_space_group_name_H-M "I M M A"
_symmetry_group_IT_number 74
_symmetry_cell_setting 'orthorhombic'
loop_
_space_group_symop_operation_xyz
x,y,z
-x,1/2-y,z
x,-y,-z
-x,1/2+y,-z
-x,-y,-z
x,1/2+y,-z
-x,y,z
x,1/2-y,z
1/2+x,1/2+y,1/2+z
1/2-x,-y,1/2+z
1/2+x,1/2-y,1/2-z
1/2-x,y,1/2-z
1/2-x,1/2-y,1/2-z
1/2+x,y,1/2-z
1/2-x,1/2+y,1/2+z
1/2+x,-y,1/2+z
loop_
_atom_site_type_symbol
_atom_site_label
_atom_site_fract_x
_atom_site_fract_y
_atom_site_fract_z
Si Si1 0.672585 0.551070 0.912880
Si Si2 0.184312 0.750000 0.664393
Si Si3 0.500000 0.692796 0.032776
Si Si4 0.368217 0.341622 0.971249
Si Si5 0.500000 0.250000 0.655716
Si Si6 0.685130 0.153867 0.653181
Si Si7 0.820372 0.554532 0.939419
Si Si8 0.366380 0.250000 0.485650
O O1 0.746665 0.549471 0.919371
O O2 0.653851 0.559505 0.734297
O O3 0.650256 0.500000 0.000000
O O4 0.653416 0.601532 0.000670
O O5 0.250000 0.750000 0.750000
O O6 0.173231 0.699949 0.560048
O O7 0.133549 0.750000 0.800281
O O8 0.500000 0.750000 0.967583
O O9 0.438352 0.665647 0.981885
O O10 0.500000 0.703171 0.219527
O O11 0.362717 0.333731 0.788768
O O12 0.435746 0.250000 0.558200
O O13 0.750000 0.151472 0.750000
O O14 0.672396 0.101787 0.557935
O O15 0.674095 0.200992 0.538324
O O16 0.843277 0.500000 0.000000
#
# Coordination Sequence:
#
# PCOD9538729 Si02
#       8
#    16   8   8  16   4  16  16   8
#     4  10  21  37  57  89 122 159 202 246 305 368
#     4  12  26  39  58  96 131 158 193 257 315 372
#     4  10  20  43  61  84 117 161 217 245 292 365
#     4  12  22  39  64  85 122 166 202 251 302 362
#     4  10  20  42  60  86 112 164 210 252 282 356
#     4  12  21  36  58  90 120 160 198 248 313 369
#     4  10  21  35  57  86 125 160 195 246 303 374
#     4  12  24  38  59  86 126 155 203 252 300 360
#
# _framework density 18.689304
#
# number of rings (size 3 to 8) (size 9 to 14) (size 15 to 20)
#    0.261    0.696    4.348    3.913    4.870    0.696 
#    0.000    0.435    0.000    0.000    0.000    4.261 
#    0.000    0.000    0.000    0.000    0.000    0.000 
#
# Total GULP energy -256435.993812 kJ/mol
# GULP energy per Si atom -5574.695518 kJ/mol
# Density = 1.864677 g / cm^3
# Si number density = 18.689304 Si / 1000 Ang^3
#
#
#
# Elastic Constant Matrix: (Units=GPa)
#
#
# Indices 1 2 3 4 5 6 
#
# 1 68.9727 16.7339 4.7228 0.0000 0.0000 0.0000
# 2 16.7339 138.0240 43.5153 0.0000 0.0000 0.0000
# 3 4.7228 43.5153 94.7467 0.0000 0.0000 0.0000
# 4 0.0000 0.0000 0.0000 21.8478 0.0000 0.0000
# 5 0.0000 0.0000 0.0000 0.0000 16.5258 0.0000
# 6 0.0000 0.0000 0.0000 0.0000 0.0000 5.5335
#
#
#
# Elastic Compliance Matrix: (Units=1/GPa)
#
#
# Indices 1 2 3 4 5 6 
#
# 1 0.014939 -0.001843 0.000102 0.000000 0.000000 0.000000
# 2 -0.001843 0.008699 -0.003904 0.000000 0.000000 0.000000
# 3 0.000102 -0.003904 0.012342 0.000000 0.000000 0.000000
# 4 0.000000 0.000000 0.000000 0.045771 0.000000 0.000000
# 5 0.000000 0.000000 0.000000 0.000000 0.060512 0.000000
# 6 0.000000 0.000000 0.000000 0.000000 0.000000 0.180716
#
#
# Mechanical properties :
#
#
# Convention : Reuss Voigt Hill
#
# Bulk Modulus (GPa) = 40.50151 47.96527 44.23339
# Shear Modulus (GPa) = 14.59859 24.56617 19.58238
#
# Velocity S-wave (km/s) = 2.79788 3.62947 3.24046
# Velocity P-wave (km/s) = 5.67059 6.57908 6.14166
#
# Compressibility (1/GPa) = 0.02469044
#
# Stress axis : x y z
#
# Youngs Moduli (GPa) = 66.94007 114.95219 81.02295
#
# Poissons Ratio (x) = 0.21189 -0.00826
# Poissons Ratio (y) = 0.12339 0.31627
# Poissons Ratio (z) = -0.00682 0.44872
#
# Static dielectric constant tensor:
#      x y z
#    x 1.643620 0.000000 0.000000 
#    y 0.000000 1.642880 0.000000 
#    z 0.000000 0.000000 1.722950 
# 
# From -- ./inp_files/14005.got.cif
#   From: 2010.05.17/outbox.cif.g08.bks.cpg/sg74_8_cif.got.tgz:14005.got - 2010.06.03 17:57:02.
