data_PCOD9538172
_publ_section_title
;
Structure prediction by ZEFSAII (Michael W. Deem and Ramdas Pophale) SiO2 
 PCOD9538172
Probable space group: I M M A
;
_chemical_formula_sum "Si O2"
_cell_formula_units_Z 72
_cell_length_a 31.428295
_cell_length_b 10.347175
_cell_length_c 12.494527
_cell_angle_alpha 90.000000
_cell_angle_beta 90.000000
_cell_angle_gamma 90.000000
_cell_volume 4063.146067
_symmetry_space_group_name_H-M "I M M A"
_symmetry_group_IT_number 74
_symmetry_cell_setting 'orthorhombic'
loop_
_space_group_symop_operation_xyz
x,y,z
-x,1/2-y,z
x,-y,-z
-x,1/2+y,-z
-x,-y,-z
x,1/2+y,-z
-x,y,z
x,1/2-y,z
1/2+x,1/2+y,1/2+z
1/2-x,-y,1/2+z
1/2+x,1/2-y,1/2-z
1/2-x,y,1/2-z
1/2-x,1/2-y,1/2-z
1/2+x,y,1/2-z
1/2-x,1/2+y,1/2+z
1/2+x,-y,1/2+z
loop_
_atom_site_type_symbol
_atom_site_label
_atom_site_fract_x
_atom_site_fract_y
_atom_site_fract_z
Si Si1 0.800902 0.750000 0.740666
Si Si2 0.118744 0.750000 0.117977
Si Si3 0.389031 0.750000 0.636782
Si Si4 0.800597 0.250000 0.746925
Si Si5 0.000000 0.590246 0.390333
Si Si6 0.416817 0.989652 0.244680
Si Si7 0.667410 0.500788 0.123760
O O1 0.750000 0.750000 0.750000
O O2 0.838118 0.750000 0.832652
O O3 0.811772 0.623083 0.675411
O O4 0.169533 0.750000 0.146682
O O5 0.098429 0.624825 0.175914
O O6 0.109416 0.750000 0.991889
O O7 0.411819 0.876304 0.688804
O O8 0.750000 0.250000 0.750000
O O9 0.814371 0.374458 0.680997
O O10 0.000000 0.500000 0.500000
O O11 0.959915 0.550002 0.315573
O O12 0.000000 0.750000 0.409882
O O13 0.382325 0.002062 0.150230
O O14 0.675804 0.500000 0.000000
#
# Coordination Sequence:
#
# PCOD9538172 Si02
#       7
#     8   8   8   8   8  16  16
#     4  10  21  37  55  85 121 151 204 258 290 348
#     4  10  20  40  61  84 123 168 208 247 304 360
#     4  10  22  38  63  88 121 172 210 245 302 364
#     4  10  21  35  55  85 119 153 202 256 298 358
#     4  12  26  44  69  97 126 158 195 253 321 376
#     4  10  22  41  61  89 124 153 202 254 299 369
#     4  10  20  36  57  82 114 154 191 240 308 366
#
# _framework density 17.72026
#
# number of rings (size 3 to 8) (size 9 to 14) (size 15 to 20)
#    0.000    1.778    1.111    2.667    1.556    1.778 
#    4.000    3.333    0.000    0.000    0.000    0.000 
#    0.000    0.000    0.000    0.000    0.000    0.000 
#
# Total GULP energy -200549.507095 kJ/mol
# GULP energy per Si atom -5570.819642 kJ/mol
# Density = 1.767993 g / cm^3
# Si number density = 17.720260 Si / 1000 Ang^3
#
#
#
# Elastic Constant Matrix: (Units=GPa)
#
#
# Indices 1 2 3 4 5 6 
#
# 1 160.6283 54.0830 45.4393 0.0000 0.0000 0.0000
# 2 54.0830 167.2574 46.1814 0.0000 0.0000 0.0000
# 3 45.4393 46.1814 100.4530 0.0000 0.0000 0.0000
# 4 0.0000 0.0000 0.0000 7.8219 0.0000 0.0000
# 5 0.0000 0.0000 0.0000 0.0000 4.9859 0.0000
# 6 0.0000 0.0000 0.0000 0.0000 0.0000 -0.7741
#
#
#
# Elastic Compliance Matrix: (Units=1/GPa)
#
#
# Indices 1 2 3 4 5 6 
#
# 1 0.007546 -0.001715 -0.002625 0.000000 0.000000 0.000000
# 2 -0.001715 0.007238 -0.002552 0.000000 0.000000 0.000000
# 3 -0.002625 -0.002552 0.012315 0.000000 0.000000 0.000000
# 4 0.000000 0.000000 0.000000 0.127846 0.000000 0.000000
# 5 0.000000 0.000000 0.000000 0.000000 0.200567 0.000000
# 6 0.000000 0.000000 0.000000 0.000000 0.000000 -1.291814
#
#
# Mechanical properties :
#
#
# Convention : Reuss Voigt Hill
#
# Bulk Modulus (GPa) = 75.09919 79.97181 77.53550
# Shear Modulus (GPa) = -5.44615 21.24906 7.90146
#
# Velocity S-wave (km/s) = -1.75501 3.46662 2.11392
# Velocity P-wave (km/s) = 6.19400 7.82633 7.05751
#
# Compressibility (1/GPa) = 0.01331572
#
# Stress axis : x y z
#
# Youngs Moduli (GPa) = 132.52901 138.16065 81.20020
#
# Poissons Ratio (x) = 0.23697 0.21312
# Poissons Ratio (y) = 0.22731 0.20720
# Poissons Ratio (z) = 0.34784 0.35254
#
# Static dielectric constant tensor:
#      x y z
#    x 1.684050 0.000000 0.000000 
#    y 0.000000 1.596960 0.000000 
#    z 0.000000 0.000000 1.567630 
# 
# From -- ./inp_files/26889.got.cif
#   From: 2010.05.17/outbox.cif.g08.bks.cpg/sg74_14_cif.got.tgz:26889.got - 2010.06.03 17:57:02.
