data_PCOD9538930
_publ_section_title
;
Structure prediction by ZEFSAII (Michael W. Deem and Ramdas Pophale) SiO2 
 PCOD9538930
Probable space group: I M M A
;
_chemical_formula_sum "Si O2"
_cell_formula_units_Z 96
_cell_length_a 23.646375
_cell_length_b 8.931197
_cell_length_c 24.563444
_cell_angle_alpha 90.000000
_cell_angle_beta 90.000000
_cell_angle_gamma 90.000000
_cell_volume 5187.564386
_symmetry_space_group_name_H-M "I M M A"
_symmetry_group_IT_number 74
_symmetry_cell_setting 'orthorhombic'
loop_
_space_group_symop_operation_xyz
x,y,z
-x,1/2-y,z
x,-y,-z
-x,1/2+y,-z
-x,-y,-z
x,1/2+y,-z
-x,y,z
x,1/2-y,z
1/2+x,1/2+y,1/2+z
1/2-x,-y,1/2+z
1/2+x,1/2-y,1/2-z
1/2-x,y,1/2-z
1/2-x,1/2-y,1/2-z
1/2+x,y,1/2-z
1/2-x,1/2+y,1/2+z
1/2+x,-y,1/2+z
loop_
_atom_site_type_symbol
_atom_site_label
_atom_site_fract_x
_atom_site_fract_y
_atom_site_fract_z
Si Si1 0.861513 0.928546 0.156270
Si Si2 0.261759 0.072588 0.165410
Si Si3 0.564986 0.431143 0.123121
Si Si4 0.933121 0.071037 0.058574
Si Si5 0.367190 0.071343 0.778563
Si Si6 0.831871 0.574394 0.554902
O O1 0.860269 0.750000 0.147809
O O2 0.886039 0.958465 0.216708
O O3 0.798070 0.991967 0.160912
O O4 0.896194 0.004528 0.107655
O O5 0.255248 0.250000 0.175929
O O6 0.291793 0.053044 0.106743
O O7 0.306083 0.002251 0.208209
O O8 0.500000 0.469725 0.114287
O O9 0.570034 0.250000 0.127768
O O10 0.589515 0.502818 0.178046
O O11 0.606489 0.480901 0.074554
O O12 0.925901 0.250000 0.056107
O O13 0.000000 0.038914 0.067600
O O14 0.917670 0.000000 0.000000
O O15 0.362273 0.250000 0.785740
O O16 0.811488 0.500000 0.500000
O O17 0.836117 0.750000 0.544572
#
# Coordination Sequence:
#
# PCOD9538930 Si02
#       6
#    16  16  16  16  16  16
#     4  11  23  37  57  85 114 144 180 223 270 326
#     4  10  21  37  56  79 110 146 184 227 274 325
#     4   9  19  36  55  76 106 143 183 227 272 320
#     4  10  22  41  63  85 111 144 182 225 273 324
#     4  10  21  36  54  80 113 145 180 225 276 326
#     4   9  19  34  52  76 105 139 178 222 270 316
#
# _framework density 18.505793000000001
#
# number of rings (size 3 to 8) (size 9 to 14) (size 15 to 20)
#    0.000    2.167    0.000    3.500    0.000   11.000 
#    0.000    5.000    0.000    0.000    0.000    0.000 
#    0.000    0.000    0.000    0.000    0.000    0.000 
#
# Total GULP energy -267943.223192 kJ/mol
# GULP energy per Si atom -5582.150483 kJ/mol
# Density = 1.846367 g / cm^3
# Si number density = 18.505793 Si / 1000 Ang^3
#
#
#
# Elastic Constant Matrix: (Units=GPa)
#
#
# Indices 1 2 3 4 5 6 
#
# 1 21.3549 10.2869 7.2266 0.0000 0.0000 0.0000
# 2 10.2869 41.0243 40.8630 0.0000 0.0000 0.0000
# 3 7.2266 40.8630 101.6172 0.0000 0.0000 0.0000
# 4 0.0000 0.0000 0.0000 35.4988 0.0000 0.0000
# 5 0.0000 0.0000 0.0000 0.0000 10.2384 0.0000
# 6 0.0000 0.0000 0.0000 0.0000 0.0000 21.8230
#
#
#
# Elastic Compliance Matrix: (Units=1/GPa)
#
#
# Indices 1 2 3 4 5 6 
#
# 1 0.053689 -0.016114 0.002662 0.000000 0.000000 0.000000
# 2 -0.016114 0.045500 -0.017151 0.000000 0.000000 0.000000
# 3 0.002662 -0.017151 0.016548 0.000000 0.000000 0.000000
# 4 0.000000 0.000000 0.000000 0.028170 0.000000 0.000000
# 5 0.000000 0.000000 0.000000 0.000000 0.097671 0.000000
# 6 0.000000 0.000000 0.000000 0.000000 0.000000 0.045823
#
#
# Mechanical properties :
#
#
# Convention : Reuss Voigt Hill
#
# Bulk Modulus (GPa) = 18.33808 31.19438 24.76623
# Shear Modulus (GPa) = 13.63200 20.55338 17.09269
#
# Velocity S-wave (km/s) = 2.71705 3.33625 3.04244
# Velocity P-wave (km/s) = 4.44680 5.63328 5.07483
#
# Compressibility (1/GPa) = 0.05453134
#
# Stress axis : x y z
#
# Youngs Moduli (GPa) = 18.62578 21.97824 60.42912
#
# Poissons Ratio (x) = 0.35415 -0.16084
# Poissons Ratio (y) = 0.30013 1.03640
# Poissons Ratio (z) = -0.04958 0.37694
#
# Static dielectric constant tensor:
#      x y z
#    x 1.630470 0.000000 0.000000 
#    y 0.000000 1.620880 0.000000 
#    z 0.000000 0.000000 1.674010 
# 
# From -- ./inp_files/49128.got.cif
#   From: 2010.05.17/outbox.cif.g08.bks.cpg/sg74_25_cif.got.tgz:49128.got - 2010.06.03 17:57:02.
