data_PCOD9538831
_publ_section_title
;
Structure prediction by ZEFSAII (Michael W. Deem and Ramdas Pophale) SiO2 
 PCOD9538831
Probable space group: I M M A
;
_chemical_formula_sum "Si O2"
_cell_formula_units_Z 96
_cell_length_a 26.115516
_cell_length_b 14.485799
_cell_length_c 14.593462
_cell_angle_alpha 90.000000
_cell_angle_beta 90.000000
_cell_angle_gamma 90.000000
_cell_volume 5520.766735
_symmetry_space_group_name_H-M "I M M A"
_symmetry_group_IT_number 74
_symmetry_cell_setting 'orthorhombic'
loop_
_space_group_symop_operation_xyz
x,y,z
-x,1/2-y,z
x,-y,-z
-x,1/2+y,-z
-x,-y,-z
x,1/2+y,-z
-x,y,z
x,1/2-y,z
1/2+x,1/2+y,1/2+z
1/2-x,-y,1/2+z
1/2+x,1/2-y,1/2-z
1/2-x,y,1/2-z
1/2-x,1/2-y,1/2-z
1/2+x,y,1/2-z
1/2-x,1/2+y,1/2+z
1/2+x,-y,1/2+z
loop_
_atom_site_type_symbol
_atom_site_label
_atom_site_fract_x
_atom_site_fract_y
_atom_site_fract_z
Si Si1 0.438725 0.593161 0.096309
Si Si2 0.699013 0.750000 0.624889
Si Si3 0.943243 0.357498 0.201140
Si Si4 0.872826 0.095531 0.051152
Si Si5 0.181131 0.750000 0.656831
Si Si6 0.404046 0.388552 0.101874
Si Si7 0.438344 0.250000 0.763882
Si Si8 0.438058 0.750000 0.448737
O O1 0.500000 0.572680 0.101415
O O2 0.406680 0.499247 0.102971
O O3 0.423243 0.660697 0.177825
O O4 0.427445 0.636802 0.996725
O O5 0.675555 0.839712 0.574687
O O6 0.760152 0.750000 0.626758
O O7 0.680459 0.750000 0.731691
O O8 0.936922 0.250000 0.173142
O O9 0.901670 0.417845 0.148424
O O10 0.936987 0.359864 0.309935
O O11 0.000000 0.388168 0.175613
O O12 0.912488 0.159242 0.993533
O O13 0.862147 0.000000 0.000000
O O14 0.149849 0.661680 0.619194
O O15 0.500000 0.250000 0.765329
O O16 0.423593 0.250000 0.658507
O O17 0.500000 0.750000 0.459008
#
# Coordination Sequence:
#
# PCOD9538831 Si02
#       8
#    16   8  16  16   8  16   8   8
#     4  10  21  35  52  82 124 155 186 224 267 347
#     4  10  22  44  58  86 110 137 195 250 305 332
#     4  11  20  32  53  84 120 148 184 231 281 343
#     4  11  22  38  58  81 112 151 193 237 288 337
#     4  11  21  38  68  81 109 144 182 254 302 343
#     4  11  19  35  54  85 111 147 187 228 291 337
#     4   9  20  34  49  72 113 166 193 210 258 321
#     4  10  21  36  51  80 118 154 194 227 264 341
#
# _framework density 17.388888000000001
#
# number of rings (size 3 to 8) (size 9 to 14) (size 15 to 20)
#    0.000    1.500    4.167    3.000    2.333    1.333 
#    3.000    0.000    0.000    0.000    0.000    2.333 
#    0.000    0.000    0.000    0.000    0.000    0.000 
#
# Total GULP energy -267728.408880 kJ/mol
# GULP energy per Si atom -5577.675185 kJ/mol
# Density = 1.734931 g / cm^3
# Si number density = 17.388888 Si / 1000 Ang^3
#
#
#
# Elastic Constant Matrix: (Units=GPa)
#
#
# Indices 1 2 3 4 5 6 
#
# 1 113.7253 51.3482 30.5241 0.0000 0.0000 0.0000
# 2 51.3482 110.9881 48.3905 0.0000 0.0000 0.0000
# 3 30.5241 48.3905 107.7104 0.0000 0.0000 0.0000
# 4 0.0000 0.0000 0.0000 26.6450 0.0000 0.0000
# 5 0.0000 0.0000 0.0000 0.0000 23.3862 0.0000
# 6 0.0000 0.0000 0.0000 0.0000 0.0000 0.0132
#
#
#
# Elastic Compliance Matrix: (Units=1/GPa)
#
#
# Indices 1 2 3 4 5 6 
#
# 1 0.011210 -0.004727 -0.001053 0.000000 0.000000 0.000000
# 2 -0.004727 0.013198 -0.004590 0.000000 0.000000 0.000000
# 3 -0.001053 -0.004590 0.011645 0.000000 0.000000 0.000000
# 4 0.000000 0.000000 0.000000 0.037531 0.000000 0.000000
# 5 0.000000 0.000000 0.000000 0.000000 0.042760 0.000000
# 6 0.000000 0.000000 0.000000 0.000000 0.000000 75.525634
#
#
# Mechanical properties :
#
#
# Convention : Reuss Voigt Hill
#
# Bulk Modulus (GPa) = 65.30517 65.88328 65.59422
# Shear Modulus (GPa) = 0.06608 23.48627 11.77617
#
# Velocity S-wave (km/s) = 0.19515 3.67910 2.60518
# Velocity P-wave (km/s) = 6.13906 7.48453 6.84493
#
# Compressibility (1/GPa) = 0.01531272
#
# Stress axis : x y z
#
# Youngs Moduli (GPa) = 89.20491 75.76825 85.87650
#
# Poissons Ratio (x) = 0.35817 0.09044
# Poissons Ratio (y) = 0.42169 0.39416
# Poissons Ratio (z) = 0.09394 0.34776
#
# Static dielectric constant tensor:
#      x y z
#    x 1.570580 0.000000 0.000000 
#    y 0.000000 1.629660 0.000000 
#    z 0.000000 0.000000 1.636720 
# 
# From -- ./inp_files/37356.got.cif
#   From: 2010.05.17/outbox.cif.g08.bks.cpg/sg74_19_cif.got.tgz:37356.got - 2010.06.03 17:57:02.
