data_PCOD9538124
_publ_section_title
;
Structure prediction by ZEFSAII (Michael W. Deem and Ramdas Pophale) SiO2 
 PCOD9538124
Probable space group: I M M A
;
_chemical_formula_sum "Si O2"
_cell_formula_units_Z 80
_cell_length_a 25.764701
_cell_length_b 16.435391
_cell_length_c 9.275567
_cell_angle_alpha 90.000000
_cell_angle_beta 90.000000
_cell_angle_gamma 90.000000
_cell_volume 3927.766069
_symmetry_space_group_name_H-M "I M M A"
_symmetry_group_IT_number 74
_symmetry_cell_setting 'orthorhombic'
loop_
_space_group_symop_operation_xyz
x,y,z
-x,1/2-y,z
x,-y,-z
-x,1/2+y,-z
-x,-y,-z
x,1/2+y,-z
-x,y,z
x,1/2-y,z
1/2+x,1/2+y,1/2+z
1/2-x,-y,1/2+z
1/2+x,1/2-y,1/2-z
1/2-x,y,1/2-z
1/2-x,1/2-y,1/2-z
1/2+x,y,1/2-z
1/2-x,1/2+y,1/2+z
1/2+x,-y,1/2+z
loop_
_atom_site_type_symbol
_atom_site_label
_atom_site_fract_x
_atom_site_fract_y
_atom_site_fract_z
Si Si1 0.120602 0.911987 0.920862
Si Si2 0.701474 0.153648 0.842446
Si Si3 0.559188 0.490184 0.163924
Si Si4 0.237655 0.583833 0.914610
Si Si5 0.909886 0.344729 0.793702
O O1 0.179644 0.879297 0.917218
O O2 0.094129 0.932860 0.767597
O O3 0.090454 0.854764 0.033267
O O4 0.121648 0.000000 0.000000
O O5 0.702094 0.250000 0.831564
O O6 0.750000 0.121350 0.750000
O O7 0.647194 0.130711 0.770414
O O8 0.716156 0.131219 0.005118
O O9 0.500000 0.458207 0.158216
O O10 0.557048 0.581501 0.229432
O O11 0.579130 0.500000 0.000000
O O12 0.250000 0.570230 0.750000
O O13 0.234877 0.500000 0.000000
O O14 0.920874 0.250000 0.755751
#
# Coordination Sequence:
#
# PCOD9538124 Si02
#       5
#    16  16  16  16  16
#     4   9  20  36  56  84 115 151 198 243 292 350
#     4  10  20  36  55  79 119 159 189 230 292 349
#     4  10  23  42  64  88 118 155 198 257 317 366
#     4  11  23  32  53  85 118 158 198 242 281 345
#     4  10  21  38  62  89 118 157 203 249 296 360
#
# _framework density 20.367811
#
# number of rings (size 3 to 8) (size 9 to 14) (size 15 to 20)
#    0.000    2.000    2.000    0.600    8.400    4.400 
#    0.000    1.000    0.000    1.200    0.000    0.000 
#    0.000    0.000    0.000    0.000    0.000    0.000 
#
# Total GULP energy -222898.493869 kJ/mol
# GULP energy per Si atom -5572.462347 kJ/mol
# Density = 2.032145 g / cm^3
# Si number density = 20.367811 Si / 1000 Ang^3
#
#
#
# Elastic Constant Matrix: (Units=GPa)
#
#
# Indices 1 2 3 4 5 6 
#
# 1 62.0833 9.7139 32.5676 0.0000 0.0000 0.0000
# 2 9.7139 31.0693 1.4892 0.0000 0.0000 0.0000
# 3 32.5676 1.4892 154.5036 0.0000 0.0000 0.0000
# 4 0.0000 0.0000 0.0000 22.1696 0.0000 0.0000
# 5 0.0000 0.0000 0.0000 0.0000 11.9533 0.0000
# 6 0.0000 0.0000 0.0000 0.0000 0.0000 7.2861
#
#
#
# Elastic Compliance Matrix: (Units=1/GPa)
#
#
# Indices 1 2 3 4 5 6 
#
# 1 0.019094 -0.005779 -0.003969 0.000000 0.000000 0.000000
# 2 -0.005779 0.033950 0.000891 0.000000 0.000000 0.000000
# 3 -0.003969 0.000891 0.007300 0.000000 0.000000 0.000000
# 4 0.000000 0.000000 0.000000 0.045107 0.000000 0.000000
# 5 0.000000 0.000000 0.000000 0.000000 0.083659 0.000000
# 6 0.000000 0.000000 0.000000 0.000000 0.000000 0.137247
#
#
# Mechanical properties :
#
#
# Convention : Reuss Voigt Hill
#
# Bulk Modulus (GPa) = 23.45792 37.24419 30.35106
# Shear Modulus (GPa) = 13.95548 21.87416 17.91482
#
# Velocity S-wave (km/s) = 2.62042 3.28068 2.96896
# Velocity P-wave (km/s) = 4.54947 5.71629 5.16593
#
# Compressibility (1/GPa) = 0.04262952
#
# Stress axis : x y z
#
# Youngs Moduli (GPa) = 52.37313 29.45471 136.97914
#
# Poissons Ratio (x) = 0.17023 0.54368
# Poissons Ratio (y) = 0.30269 -0.12205
# Poissons Ratio (z) = 0.20787 -0.02624
#
# Static dielectric constant tensor:
#      x y z
#    x 1.835330 0.000000 0.000000 
#    y 0.000000 1.718660 0.000000 
#    z 0.000000 0.000000 0.926430 
# 
# From -- ./inp_files/10918.got.cif
#   From: 2010.05.17/outbox.cif.g08.bks.cpg/sg74_6_cif.got.tgz:10918.got - 2010.06.03 17:57:02.
