data_PCOD9538236
_publ_section_title
;
Structure prediction by ZEFSAII (Michael W. Deem and Ramdas Pophale) SiO2 
 PCOD9538236
Probable space group: I M M A
;
_chemical_formula_sum "Si O2"
_cell_formula_units_Z 88
_cell_length_a 21.490920
_cell_length_b 10.365804
_cell_length_c 18.497882
_cell_angle_alpha 90.000000
_cell_angle_beta 90.000000
_cell_angle_gamma 90.000000
_cell_volume 4120.785465
_symmetry_space_group_name_H-M "I M M A"
_symmetry_group_IT_number 74
_symmetry_cell_setting 'orthorhombic'
loop_
_space_group_symop_operation_xyz
x,y,z
-x,1/2-y,z
x,-y,-z
-x,1/2+y,-z
-x,-y,-z
x,1/2+y,-z
-x,y,z
x,1/2-y,z
1/2+x,1/2+y,1/2+z
1/2-x,-y,1/2+z
1/2+x,1/2-y,1/2-z
1/2-x,y,1/2-z
1/2-x,1/2-y,1/2-z
1/2+x,y,1/2-z
1/2-x,1/2+y,1/2+z
1/2+x,-y,1/2+z
loop_
_atom_site_type_symbol
_atom_site_label
_atom_site_fract_x
_atom_site_fract_y
_atom_site_fract_z
Si Si1 0.429362 0.459828 0.800147
Si Si2 0.111172 0.108353 0.160182
Si Si3 0.708460 0.108140 0.823400
Si Si4 0.500000 0.619564 0.549003
Si Si5 0.426819 0.391123 0.052256
Si Si6 0.236429 0.908963 0.928290
O O1 0.500000 0.403815 0.803490
O O2 0.417436 0.521886 0.722410
O O3 0.365479 0.382217 0.810012
O O4 0.427424 0.563749 0.865173
O O5 0.122885 0.250000 0.192851
O O6 0.173153 0.070665 0.117909
O O7 0.059377 0.117860 0.099364
O O8 0.728756 0.250000 0.853022
O O9 0.750000 0.088415 0.750000
O O10 0.715775 0.984389 0.875629
O O11 0.500000 0.750000 0.503451
O O12 0.500000 0.500000 0.500000
O O13 0.500000 0.380710 0.031258
O O14 0.398107 0.250000 0.042469
O O15 0.398813 0.500000 0.000000
O O16 0.243761 0.750000 0.938250
O O17 0.233763 0.000000 0.000000
#
# Coordination Sequence:
#
# PCOD9538236 Si02
#       6
#    16  16  16   8  16  16
#     4  11  22  40  68 101 137 177 229 280 338 406
#     4  10  20  36  63  97 135 178 227 280 337 404
#     4  11  25  46  69  97 136 180 228 286 346 403
#     4  10  20  36  58  90 133 178 220 274 337 400
#     4   9  19  35  58  88 125 170 217 271 330 390
#     4  11  24  44  72 103 136 179 233 288 347 414
#
# _framework density 21.355152
#
# number of rings (size 3 to 8) (size 9 to 14) (size 15 to 20)
#    0.000    1.636    2.727    1.636    0.000    4.364 
#    0.000    3.636    0.000    0.000    0.000    0.000 
#    0.000    0.000    0.000    0.000    0.000    0.000 
#
# Total GULP energy -245007.579516 kJ/mol
# GULP energy per Si atom -5568.354080 kJ/mol
# Density = 2.130655 g / cm^3
# Si number density = 21.355152 Si / 1000 Ang^3
#
#
#
# Elastic Constant Matrix: (Units=GPa)
#
#
# Indices 1 2 3 4 5 6 
#
# 1 146.6541 29.8995 23.1813 0.0000 0.0000 0.0000
# 2 29.8995 170.7481 80.8677 0.0000 0.0000 0.0000
# 3 23.1813 80.8677 90.1541 0.0000 0.0000 0.0000
# 4 0.0000 0.0000 0.0000 -145.6650 0.0000 0.0000
# 5 0.0000 0.0000 0.0000 0.0000 25.4313 0.0000
# 6 0.0000 0.0000 0.0000 0.0000 0.0000 9.2497
#
#
#
# Elastic Compliance Matrix: (Units=1/GPa)
#
#
# Indices 1 2 3 4 5 6 
#
# 1 0.007151 -0.000663 -0.001244 0.000000 0.000000 0.000000
# 2 -0.000663 0.010244 -0.009018 0.000000 0.000000 0.000000
# 3 -0.001244 -0.009018 0.019501 0.000000 0.000000 0.000000
# 4 0.000000 0.000000 0.000000 -0.006865 0.000000 0.000000
# 5 0.000000 0.000000 0.000000 0.000000 0.039322 0.000000
# 6 0.000000 0.000000 0.000000 0.000000 0.000000 0.108112
#
#
# Mechanical properties :
#
#
# Convention : Reuss Voigt Hill
#
# Bulk Modulus (GPa) = 66.46540 75.05037 70.75789
# Shear Modulus (GPa) = 24.47038 -3.95627 10.25705
#
# Velocity S-wave (km/s) = 3.38875 -1.36258 2.19397
# Velocity P-wave (km/s) = 6.81931 5.72230 6.29475
#
# Compressibility (1/GPa) = 0.01504542
#
# Stress axis : x y z
#
# Youngs Moduli (GPa) = 139.84924 97.62102 51.27919
#
# Poissons Ratio (x) = 0.06472 0.06379
# Poissons Ratio (y) = 0.09272 0.46244
# Poissons Ratio (z) = 0.17396 0.88035
#
# Static dielectric constant tensor:
#      x y z
#    x 1.832850 0.000000 0.000000 
#    y 0.000000 1.855840 0.000000 
#    z 0.000000 0.000000 1.729260 
# 
# From -- ./inp_files/45141.got.cif
#   From: 2010.05.17/outbox.cif.g08.bks.cpg/sg74_23_cif.got.tgz:45141.got - 2010.06.03 17:57:02.
