data_PCOD9538658
_publ_section_title
;
Structure prediction by ZEFSAII (Michael W. Deem and Ramdas Pophale) SiO2 
 PCOD9538658
Probable space group: I M M A
;
_chemical_formula_sum "Si O2"
_cell_formula_units_Z 48
_cell_length_a 15.158306
_cell_length_b 15.498747
_cell_length_c 9.021473
_cell_angle_alpha 90.000000
_cell_angle_beta 90.000000
_cell_angle_gamma 90.000000
_cell_volume 2119.457501
_symmetry_space_group_name_H-M "I M M A"
_symmetry_group_IT_number 74
_symmetry_cell_setting 'orthorhombic'
loop_
_space_group_symop_operation_xyz
x,y,z
-x,1/2-y,z
x,-y,-z
-x,1/2+y,-z
-x,-y,-z
x,1/2+y,-z
-x,y,z
x,1/2-y,z
1/2+x,1/2+y,1/2+z
1/2-x,-y,1/2+z
1/2+x,1/2-y,1/2-z
1/2-x,y,1/2-z
1/2-x,1/2-y,1/2-z
1/2+x,y,1/2-z
1/2-x,1/2+y,1/2+z
1/2+x,-y,1/2+z
loop_
_atom_site_type_symbol
_atom_site_label
_atom_site_fract_x
_atom_site_fract_y
_atom_site_fract_z
Si Si1 0.250000 0.394693 0.250000
Si Si2 0.896498 0.157201 0.798674
Si Si3 0.653453 0.000000 0.500000
Si Si4 0.604725 0.395242 0.023054
O O1 0.291889 0.453117 0.375271
O O2 0.334538 0.358618 0.157118
O O3 0.863816 0.250000 0.857022
O O4 0.858717 0.139275 0.634782
O O5 0.000000 0.164471 0.768677
O O6 0.891046 0.078287 0.911724
O O7 0.500000 0.375115 0.047003
O O8 0.608010 0.500000 0.000000
#
# Coordination Sequence:
#
# PCOD9538658 Si02
#       4
#     8  16   8  16
#     4  12  22  38  64  98 130 176 214 274 324 388
#     4  10  22  41  66  96 131 173 220 271 328 393
#     4  12  21  38  63  96 130 174 214 270 328 394
#     4  10  20  39  65  92 126 173 222 268 327 385
#
# _framework density 22.647303000000001
#
# number of rings (size 3 to 8) (size 9 to 14) (size 15 to 20)
#    0.000    1.333    5.000    0.500    0.000    1.333 
#    0.000   10.833    0.000    4.000    0.000    0.000 
#    0.000    0.000    0.000    0.000    0.000    0.000 
#
# Total GULP energy -133641.854138 kJ/mol
# GULP energy per Si atom -5568.410589 kJ/mol
# Density = 2.259576 g / cm^3
# Si number density = 22.647303 Si / 1000 Ang^3
#
#
#
# Elastic Constant Matrix: (Units=GPa)
#
#
# Indices 1 2 3 4 5 6 
#
# 1 81.3660 32.2106 56.4870 0.0000 0.0000 0.0000
# 2 32.2106 107.0617 39.0888 0.0000 0.0000 0.0000
# 3 56.4870 39.0888 159.6138 0.0000 0.0000 0.0000
# 4 0.0000 0.0000 0.0000 79.8403 0.0000 0.0000
# 5 0.0000 0.0000 0.0000 0.0000 33.9239 0.0000
# 6 0.0000 0.0000 0.0000 0.0000 0.0000 14.7130
#
#
#
# Elastic Compliance Matrix: (Units=1/GPa)
#
#
# Indices 1 2 3 4 5 6 
#
# 1 0.017268 -0.003255 -0.005314 0.000000 0.000000 0.000000
# 2 -0.003255 0.010871 -0.001510 0.000000 0.000000 0.000000
# 3 -0.005314 -0.001510 0.008516 0.000000 0.000000 0.000000
# 4 0.000000 0.000000 0.000000 0.012525 0.000000 0.000000
# 5 0.000000 0.000000 0.000000 0.000000 0.029478 0.000000
# 6 0.000000 0.000000 0.000000 0.000000 0.000000 0.067967
#
#
# Mechanical properties :
#
#
# Convention : Reuss Voigt Hill
#
# Bulk Modulus (GPa) = 60.62094 67.06826 63.84460
# Shear Modulus (GPa) = 29.02226 40.37910 34.70068
#
# Velocity S-wave (km/s) = 3.58367 4.22709 3.91861
# Velocity P-wave (km/s) = 6.62941 7.31456 6.98040
#
# Compressibility (1/GPa) = 0.01649595
#
# Stress axis : x y z
#
# Youngs Moduli (GPa) = 57.91113 91.98648 117.43182
#
# Poissons Ratio (x) = 0.29942 0.62402
# Poissons Ratio (y) = 0.18850 0.17736
# Poissons Ratio (z) = 0.30773 0.13893
#
# Static dielectric constant tensor:
#      x y z
#    x 1.934840 0.000000 0.000000 
#    y 0.000000 1.896230 0.000000 
#    z 0.000000 0.000000 1.976040 
# 
# From -- ./inp_files/8084.got.cif
#   From: 2010.05.17/outbox.cif.g08.bks.cpg/sg74_5_cif.got.tgz:8084.got - 2010.06.03 17:57:02.
