data_PCOD9538041
_publ_section_title
;
Structure prediction by ZEFSAII (Michael W. Deem and Ramdas Pophale) SiO2 
 PCOD9538041
Probable space group: I M M A
;
_chemical_formula_sum "Si O2"
_cell_formula_units_Z 112
_cell_length_a 14.721100
_cell_length_b 14.725816
_cell_length_c 24.072901
_cell_angle_alpha 90.000000
_cell_angle_beta 90.000000
_cell_angle_gamma 90.000000
_cell_volume 5218.528532
_symmetry_space_group_name_H-M "I M M A"
_symmetry_group_IT_number 74
_symmetry_cell_setting 'orthorhombic'
loop_
_space_group_symop_operation_xyz
x,y,z
-x,1/2-y,z
x,-y,-z
-x,1/2+y,-z
-x,-y,-z
x,1/2+y,-z
-x,y,z
x,1/2-y,z
1/2+x,1/2+y,1/2+z
1/2-x,-y,1/2+z
1/2+x,1/2-y,1/2-z
1/2-x,y,1/2-z
1/2-x,1/2-y,1/2-z
1/2+x,y,1/2-z
1/2-x,1/2+y,1/2+z
1/2+x,-y,1/2+z
loop_
_atom_site_type_symbol
_atom_site_label
_atom_site_fract_x
_atom_site_fract_y
_atom_site_fract_z
Si Si1 0.645710 0.649701 0.887856
Si Si2 0.245607 0.357271 0.684053
Si Si3 0.812632 0.652067 0.803986
Si Si4 0.708532 0.650177 0.013549
Si Si5 0.603041 0.445616 0.891063
Si Si6 0.897898 0.494167 0.851868
Si Si7 0.098803 0.594463 0.968420
O O1 0.606292 0.750000 0.873657
O O2 0.741232 0.646917 0.854974
O O3 0.602024 0.552353 0.875863
O O4 0.658610 0.648016 0.954288
O O5 0.258062 0.250000 0.675389
O O6 0.250000 0.375321 0.750000
O O7 0.150656 0.391185 0.658726
O O8 0.323401 0.415775 0.653008
O O9 0.860085 0.750000 0.807513
O O10 0.750000 0.650460 0.750000
O O11 0.877916 0.566224 0.803366
O O12 0.694233 0.750000 0.039281
O O13 0.667618 0.576010 0.055532
O O14 0.814130 0.640965 0.995980
O O15 0.500000 0.416279 0.902899
O O16 0.888488 0.559241 0.905661
O O17 0.000000 0.457838 0.851143
O O18 0.000000 0.641287 0.972586
O O19 0.092298 0.500000 0.000000
#
# Coordination Sequence:
#
# PCOD9538041 Si02
#       7
#    16  16  16  16  16  16  16
#     4  10  21  39  64  94 131 173 214 261 325 391
#     4  11  25  46  68  92 128 172 221 274 330 393
#     4  10  20  38  63  92 132 174 214 265 320 380
#     4  11  22  38  62  92 132 174 216 265 318 383
#     4  12  26  44  69  97 128 168 218 275 329 384
#     4  11  22  38  65  97 130 168 216 266 322 395
#     4  10  20  35  58  89 126 165 206 256 316 383
#
# _framework density 21.461988999999999
#
# number of rings (size 3 to 8) (size 9 to 14) (size 15 to 20)
#    0.000    1.286    2.857    3.000    0.000    4.000 
#    0.000    4.286    0.000    6.857    0.000    0.000 
#    0.000    0.000    0.000    0.000    0.000    0.000 
#
# Total GULP energy -312453.969572 kJ/mol
# GULP energy per Si atom -5579.535171 kJ/mol
# Density = 2.141314 g / cm^3
# Si number density = 21.461989 Si / 1000 Ang^3
#
#
#
# Elastic Constant Matrix: (Units=GPa)
#
#
# Indices 1 2 3 4 5 6 
#
# 1 125.3868 42.9071 19.4657 0.0000 0.0000 0.0000
# 2 42.9071 115.9037 8.8434 0.0000 0.0000 0.0000
# 3 19.4657 8.8434 69.1160 0.0000 0.0000 0.0000
# 4 0.0000 0.0000 0.0000 22.3545 0.0000 0.0000
# 5 0.0000 0.0000 0.0000 0.0000 20.1932 0.0000
# 6 0.0000 0.0000 0.0000 0.0000 0.0000 -19.5496
#
#
#
# Elastic Compliance Matrix: (Units=1/GPa)
#
#
# Indices 1 2 3 4 5 6 
#
# 1 0.009463 -0.003332 -0.002239 0.000000 0.000000 0.000000
# 2 -0.003332 0.009886 -0.000326 0.000000 0.000000 0.000000
# 3 -0.002239 -0.000326 0.015141 0.000000 0.000000 0.000000
# 4 0.000000 0.000000 0.000000 0.044734 0.000000 0.000000
# 5 0.000000 0.000000 0.000000 0.000000 0.049522 0.000000
# 6 0.000000 0.000000 0.000000 0.000000 0.000000 -0.051152
#
#
# Mechanical properties :
#
#
# Convention : Reuss Voigt Hill
#
# Bulk Modulus (GPa) = 44.06253 50.31543 47.18898
# Shear Modulus (GPa) = 51.57087 20.54566 36.05827
#
# Velocity S-wave (km/s) = 4.90725 3.09739 4.10335
# Velocity P-wave (km/s) = 7.25832 6.02384 6.66970
#
# Compressibility (1/GPa) = 0.02269502
#
# Stress axis : x y z
#
# Youngs Moduli (GPa) = 105.67207 101.14895 66.04699
#
# Poissons Ratio (x) = 0.33707 0.14787
# Poissons Ratio (y) = 0.35214 0.02156
# Poissons Ratio (z) = 0.23658 0.03302
#
# Static dielectric constant tensor:
#      x y z
#    x 1.815870 0.000000 0.000000 
#    y 0.000000 1.785390 0.000000 
#    z 0.000000 0.000000 1.723220 
# 
# From -- ./inp_files/60193.got.cif
#   From: 2010.05.17/outbox.cif.g08.bks.cpg/sg74_31_cif.got.tgz:60193.got - 2010.06.03 17:57:02.
