data_PCOD9538780
_publ_section_title
;
Structure prediction by ZEFSAII (Michael W. Deem and Ramdas Pophale) SiO2 
 PCOD9538780
Probable space group: I M M A
;
_chemical_formula_sum "Si O2"
_cell_formula_units_Z 72
_cell_length_a 9.684747
_cell_length_b 15.593803
_cell_length_c 23.264195
_cell_angle_alpha 90.000000
_cell_angle_beta 90.000000
_cell_angle_gamma 90.000000
_cell_volume 3513.406114
_symmetry_space_group_name_H-M "I M M A"
_symmetry_group_IT_number 74
_symmetry_cell_setting 'orthorhombic'
loop_
_space_group_symop_operation_xyz
x,y,z
-x,1/2-y,z
x,-y,-z
-x,1/2+y,-z
-x,-y,-z
x,1/2+y,-z
-x,y,z
x,1/2-y,z
1/2+x,1/2+y,1/2+z
1/2-x,-y,1/2+z
1/2+x,1/2-y,1/2-z
1/2-x,y,1/2-z
1/2-x,1/2-y,1/2-z
1/2+x,y,1/2-z
1/2-x,1/2+y,1/2+z
1/2+x,-y,1/2+z
loop_
_atom_site_type_symbol
_atom_site_label
_atom_site_fract_x
_atom_site_fract_y
_atom_site_fract_z
Si Si1 0.837382 0.847592 0.809289
Si Si2 0.660008 0.089690 0.967123
Si Si3 0.333046 0.750000 0.464345
Si Si4 0.157527 0.750000 0.165107
Si Si5 0.750000 0.897457 0.250000
Si Si6 0.846119 0.506727 0.649115
O O1 0.825187 0.750000 0.831626
O O2 0.750000 0.850658 0.750000
O O3 0.767781 0.919150 0.849060
O O4 0.000000 0.864546 0.799126
O O5 0.500000 0.117731 0.973855
O O6 0.764842 0.162769 0.987603
O O7 0.681446 0.062300 0.900652
O O8 0.677487 0.000000 0.000000
O O9 0.500000 0.750000 0.470188
O O10 0.275846 0.750000 0.397666
O O11 0.182840 0.667088 0.204306
O O12 0.000000 0.750000 0.149352
O O13 0.842198 0.958683 0.289492
O O14 0.000000 0.542269 0.639100
#
# Coordination Sequence:
#
# PCOD9538780 Si02
#       6
#    16  16   8   8   8  16
#     4  10  21  36  55  81 116 158 197 244 296 355
#     4  10  23  45  67  89 121 163 213 261 309 363
#     4  11  22  40  66  96 128 163 205 255 313 373
#     4  10  21  34  52  87 130 164 189 230 295 367
#     4  11  20  34  55  88 126 162 193 242 288 375
#     4  11  22  36  60  90 119 159 203 251 302 363
#
# _framework density 20.492936
#
# number of rings (size 3 to 8) (size 9 to 14) (size 15 to 20)
#    0.000    1.556    3.333    1.667    0.000    3.556 
#    2.000    0.000    0.000    0.000    0.000    0.000 
#    0.000    0.000    0.000    0.000    0.000    0.000 
#
# Total GULP energy -200781.361282 kJ/mol
# GULP energy per Si atom -5577.260036 kJ/mol
# Density = 2.044629 g / cm^3
# Si number density = 20.492936 Si / 1000 Ang^3
#
#
#
# Elastic Constant Matrix: (Units=GPa)
#
#
# Indices 1 2 3 4 5 6 
#
# 1 140.0946 87.3883 4.9545 0.0000 0.0000 0.0000
# 2 87.3883 125.8711 5.2128 0.0000 0.0000 0.0000
# 3 4.9545 5.2128 27.9313 0.0000 0.0000 0.0000
# 4 0.0000 0.0000 0.0000 21.1486 0.0000 0.0000
# 5 0.0000 0.0000 0.0000 0.0000 19.0000 0.0000
# 6 0.0000 0.0000 0.0000 0.0000 0.0000-1847.6533
#
#
#
# Elastic Compliance Matrix: (Units=1/GPa)
#
#
# Indices 1 2 3 4 5 6 
#
# 1 0.012601 -0.008723 -0.000607 0.000000 0.000000 0.000000
# 2 -0.008723 0.014045 -0.001074 0.000000 0.000000 0.000000
# 3 -0.000607 -0.001074 0.036110 0.000000 0.000000 0.000000
# 4 0.000000 0.000000 0.000000 0.047284 0.000000 0.000000
# 5 0.000000 0.000000 0.000000 0.000000 0.052632 0.000000
# 6 0.000000 0.000000 0.000000 0.000000 0.000000 -0.000541
#
#
# Mechanical properties :
#
#
# Convention : Reuss Voigt Hill
#
# Bulk Modulus (GPa) = 23.83911 54.33425 39.08668
# Shear Modulus (GPa) = 25.39067 -348.41152 -161.51043
#
# Velocity S-wave (km/s) = 3.52376 -13.05314 -8.88728
# Velocity P-wave (km/s) = 5.31168 14.16362 9.28424
#
# Compressibility (1/GPa) = 0.04194787
#
# Stress axis : x y z
#
# Youngs Moduli (GPa) = 79.35932 71.19768 27.69295
#
# Poissons Ratio (x) = 0.62108 0.01681
# Poissons Ratio (y) = 0.69227 0.02974
# Poissons Ratio (z) = 0.04819 0.07646
#
# Static dielectric constant tensor:
#      x y z
#    x 1.711630 0.000000 0.000000 
#    y 0.000000 1.745230 0.000000 
#    z 0.000000 0.000000 1.779420 
# 
# From -- ./inp_files/63699.got.cif
#   From: 2010.05.17/outbox.cif.g08.bks.cpg/sg74_32_cif.got.tgz:63699.got - 2010.06.03 17:57:02.
