data_PCOD9538051
_publ_section_title
;
Structure prediction by ZEFSAII (Michael W. Deem and Ramdas Pophale) SiO2 
 PCOD9538051
Probable space group: I M M A
;
_chemical_formula_sum "Si O2"
_cell_formula_units_Z 96
_cell_length_a 9.667576
_cell_length_b 22.995586
_cell_length_c 23.841951
_cell_angle_alpha 90.000000
_cell_angle_beta 90.000000
_cell_angle_gamma 90.000000
_cell_volume 5300.341686
_symmetry_space_group_name_H-M "I M M A"
_symmetry_group_IT_number 74
_symmetry_cell_setting 'orthorhombic'
loop_
_space_group_symop_operation_xyz
x,y,z
-x,1/2-y,z
x,-y,-z
-x,1/2+y,-z
-x,-y,-z
x,1/2+y,-z
-x,y,z
x,1/2-y,z
1/2+x,1/2+y,1/2+z
1/2-x,-y,1/2+z
1/2+x,1/2-y,1/2-z
1/2-x,y,1/2-z
1/2-x,1/2-y,1/2-z
1/2+x,y,1/2-z
1/2-x,1/2+y,1/2+z
1/2+x,-y,1/2+z
loop_
_atom_site_type_symbol
_atom_site_label
_atom_site_fract_x
_atom_site_fract_y
_atom_site_fract_z
Si Si1 0.266938 0.632516 0.613340
Si Si2 0.500000 0.679376 0.826378
Si Si3 0.339150 0.184419 0.004971
Si Si4 0.000000 0.819161 0.807343
Si Si5 0.835247 0.894759 0.395925
Si Si6 0.335584 0.181887 0.692178
Si Si7 0.164014 0.995530 0.932458
O O1 0.260851 0.670543 0.556493
O O2 0.374463 0.652838 0.659522
O O3 0.294761 0.567414 0.591828
O O4 0.126659 0.647083 0.645002
O O5 0.500000 0.750000 0.836898
O O6 0.500000 0.671197 0.759253
O O7 0.500000 0.180270 0.024284
O O8 0.317809 0.250000 0.984325
O O9 0.322893 0.139070 0.955018
O O10 0.000000 0.750000 0.815508
O O11 0.745858 0.858095 0.351641
O O12 0.000000 0.898085 0.382199
O O13 0.762658 0.956799 0.404144
O O14 0.500000 0.167439 0.697871
O O15 0.328548 0.250000 0.675231
O O16 0.250000 0.176620 0.750000
O O17 0.000000 0.005862 0.921650
O O18 0.183338 0.000000 0.000000
#
# Coordination Sequence:
#
# PCOD9538051 Si02
#       7
#    16   8  16   8  16  16  16
#     4  12  22  40  64  92 122 166 211 253 316 383
#     4  11  24  42  67  92 126 164 203 268 328 381
#     4  10  20  35  58  93 130 160 201 258 314 374
#     4  11  24  42  63  94 126 160 209 262 324 385
#     4  11  23  38  64  94 124 167 214 262 317 378
#     4  10  21  40  66  95 130 169 209 257 315 378
#     4  11  24  43  62  87 126 169 209 261 319 380
#
# _framework density 18.11204
#
# number of rings (size 3 to 8) (size 9 to 14) (size 15 to 20)
#    0.000    1.167    3.333    3.500    1.167    3.333 
#    1.500    1.667    0.000    0.000    0.000    0.000 
#    0.000    0.000    0.000    0.000    0.000    0.000 
#
# Total GULP energy -267831.698087 kJ/mol
# GULP energy per Si atom -5579.827043 kJ/mol
# Density = 1.807082 g / cm^3
# Si number density = 18.112040 Si / 1000 Ang^3
#
#
#
# Elastic Constant Matrix: (Units=GPa)
#
#
# Indices 1 2 3 4 5 6 
#
# 1 156.0215 54.9301 55.3301 0.0000 0.0000 0.0000
# 2 54.9301 112.4843 52.2508 0.0000 0.0000 0.0000
# 3 55.3301 52.2508 88.2800 0.0000 0.0000 0.0000
# 4 0.0000 0.0000 0.0000 -9.8610 0.0000 0.0000
# 5 0.0000 0.0000 0.0000 0.0000 29.5155 0.0000
# 6 0.0000 0.0000 0.0000 0.0000 0.0000 29.8579
#
#
#
# Elastic Compliance Matrix: (Units=1/GPa)
#
#
# Indices 1 2 3 4 5 6 
#
# 1 0.008672 -0.002359 -0.004039 0.000000 0.000000 0.000000
# 2 -0.002359 0.012903 -0.006158 0.000000 0.000000 0.000000
# 3 -0.004039 -0.006158 0.017504 0.000000 0.000000 0.000000
# 4 0.000000 0.000000 0.000000 -0.101410 0.000000 0.000000
# 5 0.000000 0.000000 0.000000 0.000000 0.033880 0.000000
# 6 0.000000 0.000000 0.000000 0.000000 0.000000 0.033492
#
#
# Mechanical properties :
#
#
# Convention : Reuss Voigt Hill
#
# Bulk Modulus (GPa) = 71.60096 75.75642 73.67869
# Shear Modulus (GPa) = 143.63587 22.85414 83.24501
#
# Velocity S-wave (km/s) = 8.91495 3.55607 6.78682
# Velocity P-wave (km/s) = 12.06592 7.66669 10.10852
#
# Compressibility (1/GPa) = 0.01396629
#
# Stress axis : x y z
#
# Youngs Moduli (GPa) = 115.31024 77.50352 57.12856
#
# Poissons Ratio (x) = 0.18280 0.23077
# Poissons Ratio (y) = 0.27197 0.35183
# Poissons Ratio (z) = 0.46578 0.47730
#
# Static dielectric constant tensor:
#      x y z
#    x 1.580300 0.000000 0.000000 
#    y 0.000000 1.597190 0.000000 
#    z 0.000000 0.000000 1.603700 
# 
# From -- ./inp_files/57354.got.cif
#   From: 2010.05.17/outbox.cif.g08.bks.cpg/sg74_29_cif.got.tgz:57354.got - 2010.06.03 17:57:02.
