data_PCOD9538329
_publ_section_title
;
Structure prediction by ZEFSAII (Michael W. Deem and Ramdas Pophale) SiO2 
 PCOD9538329
Probable space group: I M M A
;
_chemical_formula_sum "Si O2"
_cell_formula_units_Z 72
_cell_length_a 14.271027
_cell_length_b 9.795409
_cell_length_c 27.441154
_cell_angle_alpha 90.000000
_cell_angle_beta 90.000000
_cell_angle_gamma 90.000000
_cell_volume 3836.013909
_symmetry_space_group_name_H-M "I M M A"
_symmetry_group_IT_number 74
_symmetry_cell_setting 'orthorhombic'
loop_
_space_group_symop_operation_xyz
x,y,z
-x,1/2-y,z
x,-y,-z
-x,1/2+y,-z
-x,-y,-z
x,1/2+y,-z
-x,y,z
x,1/2-y,z
1/2+x,1/2+y,1/2+z
1/2-x,-y,1/2+z
1/2+x,1/2-y,1/2-z
1/2-x,y,1/2-z
1/2-x,1/2-y,1/2-z
1/2+x,y,1/2-z
1/2-x,1/2+y,1/2+z
1/2+x,-y,1/2+z
loop_
_atom_site_type_symbol
_atom_site_label
_atom_site_fract_x
_atom_site_fract_y
_atom_site_fract_z
Si Si1 0.750000 0.947033 0.409677
Si Si2 0.898184 0.250000 0.308180
Si Si3 0.750000 0.250000 0.448163
Si Si4 0.112178 0.250000 0.963025
Si Si5 0.750000 0.516119 0.807475
Si Si6 0.898183 0.750000 0.808180
Si Si7 0.112178 0.750000 0.463025
O O1 0.659688 0.879218 0.435557
O O2 0.840312 0.879218 0.435557
O O3 0.750000 0.109399 0.418416
O O4 0.750000 0.912969 0.352241
O O5 0.838974 0.385740 0.317062
O O6 0.907808 0.250000 0.250000
O O7 0.000000 0.250000 0.331755
O O8 0.659116 0.250000 0.483488
O O9 0.840885 0.250000 0.483488
O O10 0.000000 0.250000 0.962901
O O11 0.750000 0.474621 0.750000
O O12 0.838974 0.614259 0.817062
O O13 0.000000 0.750000 0.831755
O O14 0.000000 0.750000 0.462900
#
# Coordination Sequence:
#
# PCOD9538329 Si02
#       7
#    16   8   8   8  16   8   8
#     4  10  21  37  57  84 113 141 183 228 266 322
#     4   8  14  25  42  68 103 138 173 218 268 311
#     4  10  20  36  61  88 109 132 176 236 280 324
#     4  10  22  40  57  77 112 150 179 220 279 331
#     4   9  17  30  49  74 108 147 180 216 264 314
#     4   8  14  25  42  68 103 138 173 218 268 311
#     4  10  22  40  57  77 112 150 179 220 279 331
#
# _framework density 18.769483999999999
#
# number of rings (size 3 to 8) (size 9 to 14) (size 15 to 20)
#    0.000    2.889    0.000    5.333    0.000    5.333 
#    0.000    4.444    0.000    1.333    0.000    0.000 
#    0.000    0.000    0.000    0.000    0.000    0.000 
#
# Total GULP energy -200423.941579 kJ/mol
# GULP energy per Si atom -5567.331711 kJ/mol
# Density = 1.872676 g / cm^3
# Si number density = 18.769484 Si / 1000 Ang^3
#
#
#
# Elastic Constant Matrix: (Units=GPa)
#
#
# Indices 1 2 3 4 5 6 
#
# 1 167.8336 24.9317 35.9154 0.0000 0.0000 0.0000
# 2 24.9317 101.8892 37.6300 0.0000 0.0000 0.0000
# 3 35.9154 37.6300 129.6145 0.0000 0.0000 0.0000
# 4 0.0000 0.0000 0.0000 71.1945 0.0000 0.0000
# 5 0.0000 0.0000 0.0000 0.0000 7.9835 0.0000
# 6 0.0000 0.0000 0.0000 0.0000 0.0000 57.9496
#
#
#
# Elastic Compliance Matrix: (Units=1/GPa)
#
#
# Indices 1 2 3 4 5 6 
#
# 1 0.006428 -0.001025 -0.001484 0.000000 0.000000 0.000000
# 2 -0.001025 0.011157 -0.002955 0.000000 0.000000 0.000000
# 3 -0.001484 -0.002955 0.008984 0.000000 0.000000 0.000000
# 4 0.000000 0.000000 0.000000 0.014046 0.000000 0.000000
# 5 0.000000 0.000000 0.000000 0.000000 0.125258 0.000000
# 6 0.000000 0.000000 0.000000 0.000000 0.000000 0.017256
#
#
# Mechanical properties :
#
#
# Convention : Reuss Voigt Hill
#
# Bulk Modulus (GPa) = 63.93145 66.25460 65.09303
# Shear Modulus (GPa) = 25.09155 47.48288 36.28722
#
# Velocity S-wave (km/s) = 3.66023 5.03516 4.40171
# Velocity P-wave (km/s) = 7.21099 8.31742 7.78389
#
# Compressibility (1/GPa) = 0.01564175
#
# Stress axis : x y z
#
# Youngs Moduli (GPa) = 155.56888 89.63175 111.30651
#
# Poissons Ratio (x) = 0.09187 0.16513
# Poissons Ratio (y) = 0.15945 0.32892
# Poissons Ratio (z) = 0.23080 0.26487
#
# Static dielectric constant tensor:
#      x y z
#    x 1.845630 0.000000 0.000000 
#    y 0.000000 1.646120 0.000000 
#    z 0.000000 0.000000 1.669230 
# 
# From -- ./inp_files/72314.got.cif
#   From: 2010.05.17/outbox.cif.g08.bks.cpg/sg74_37_cif.got.tgz:72314.got - 2010.06.03 17:57:02.
