data_PCOD9538737
_publ_section_title
;
Structure prediction by ZEFSAII (Michael W. Deem and Ramdas Pophale) SiO2 
 PCOD9538737
Probable space group: I M M A
;
_chemical_formula_sum "Si O2"
_cell_formula_units_Z 56
_cell_length_a 8.240632
_cell_length_b 13.896968
_cell_length_c 22.475058
_cell_angle_alpha 90.000000
_cell_angle_beta 90.000000
_cell_angle_gamma 90.000000
_cell_volume 2573.839129
_symmetry_space_group_name_H-M "I M M A"
_symmetry_group_IT_number 74
_symmetry_cell_setting 'orthorhombic'
loop_
_space_group_symop_operation_xyz
x,y,z
-x,1/2-y,z
x,-y,-z
-x,1/2+y,-z
-x,-y,-z
x,1/2+y,-z
-x,y,z
x,1/2-y,z
1/2+x,1/2+y,1/2+z
1/2-x,-y,1/2+z
1/2+x,1/2-y,1/2-z
1/2-x,y,1/2-z
1/2-x,1/2-y,1/2-z
1/2+x,y,1/2-z
1/2-x,1/2+y,1/2+z
1/2+x,-y,1/2+z
loop_
_atom_site_type_symbol
_atom_site_label
_atom_site_fract_x
_atom_site_fract_y
_atom_site_fract_z
Si Si1 0.500000 0.366006 0.674955
Si Si2 0.696983 0.362436 0.343729
Si Si3 0.682421 0.610067 0.978479
Si Si4 0.500000 0.399095 0.537027
Si Si5 0.250000 0.512802 0.250000
O O1 0.500000 0.250000 0.674096
O O2 0.500000 0.405510 0.607741
O O3 0.354556 0.413430 0.711424
O O4 0.500000 0.379796 0.338600
O O5 0.723887 0.250000 0.329312
O O6 0.756688 0.380396 0.410806
O O7 0.795418 0.434628 0.301052
O O8 0.500000 0.648984 0.984414
O O9 0.669631 0.500000 0.000000
O O10 0.831706 0.648971 0.017381
O O11 0.500000 0.500000 0.500000
#
# Coordination Sequence:
#
# PCOD9538737 Si02
#       5
#     8  16  16   8   8
#     4  12  28  48  75 102 140 195 255 310 367 436
#     4  11  24  43  70 107 149 197 242 300 377 450
#     4  10  21  38  68 106 145 190 237 289 364 445
#     4  10  20  44  70 102 149 189 229 304 374 436
#     4  12  24  48  70  98 140 194 248 306 366 428
#
# _framework density 21.757380999999999
#
# number of rings (size 3 to 8) (size 9 to 14) (size 15 to 20)
#    0.000    1.143    2.857    4.286    2.000    1.714 
#    2.571    0.000    0.000    0.000    0.000    0.000 
#    0.000    0.000    0.000    0.000    0.000    0.000 
#
# Total GULP energy -156029.541236 kJ/mol
# GULP energy per Si atom -5572.483616 kJ/mol
# Density = 2.170786 g / cm^3
# Si number density = 21.757381 Si / 1000 Ang^3
#
#
#
# Elastic Constant Matrix: (Units=GPa)
#
#
# Indices 1 2 3 4 5 6 
#
# 1 155.4142 28.3836 73.9964 0.0000 0.0000 0.0000
# 2 28.3836 205.9714 60.0509 0.0000 0.0000 0.0000
# 3 73.9964 60.0509 197.7153 0.0000 0.0000 0.0000
# 4 0.0000 0.0000 0.0000 -176.5575 0.0000 0.0000
# 5 0.0000 0.0000 0.0000 0.0000 44.0975 0.0000
# 6 0.0000 0.0000 0.0000 0.0000 0.0000 75.0597
#
#
#
# Elastic Compliance Matrix: (Units=1/GPa)
#
#
# Indices 1 2 3 4 5 6 
#
# 1 0.007841 -0.000247 -0.002860 0.000000 0.000000 0.000000
# 2 -0.000247 0.005334 -0.001528 0.000000 0.000000 0.000000
# 3 -0.002860 -0.001528 0.006592 0.000000 0.000000 0.000000
# 4 0.000000 0.000000 0.000000 -0.005664 0.000000 0.000000
# 5 0.000000 0.000000 0.000000 0.000000 0.022677 0.000000
# 6 0.000000 0.000000 0.000000 0.000000 0.000000 0.013323
#
#
# Mechanical properties :
#
#
# Convention : Reuss Voigt Hill
#
# Bulk Modulus (GPa) = 95.24661 98.21808 96.73235
# Shear Modulus (GPa) = 79.52717 14.96462 47.24590
#
# Velocity S-wave (km/s) = 6.05237 2.62543 4.66498
# Velocity P-wave (km/s) = 9.62877 7.37773 8.57742
#
# Compressibility (1/GPa) = 0.01049906
#
# Stress axis : x y z
#
# Youngs Moduli (GPa) = 127.53454 187.45914 151.69797
#
# Poissons Ratio (x) = 0.04627 0.43380
# Poissons Ratio (y) = 0.03148 0.23177
# Poissons Ratio (z) = 0.36470 0.28641
#
# Static dielectric constant tensor:
#      x y z
#    x 1.866930 0.000000 0.000000 
#    y 0.000000 1.706370 0.000000 
#    z 0.000000 0.000000 1.739370 
# 
# From -- ./inp_files/47888.got.cif
#   From: 2010.05.17/outbox.cif.g08.bks.cpg/sg74_24_cif.got.tgz:47888.got - 2010.06.03 17:57:02.
