data_PCOD9538479
_publ_section_title
;
Structure prediction by ZEFSAII (Michael W. Deem and Ramdas Pophale) SiO2 
 PCOD9538479
Probable space group: I M M A
;
_chemical_formula_sum "Si O2"
_cell_formula_units_Z 112
_cell_length_a 14.843621
_cell_length_b 30.559544
_cell_length_c 10.309097
_cell_angle_alpha 90.000000
_cell_angle_beta 90.000000
_cell_angle_gamma 90.000000
_cell_volume 4676.353707
_symmetry_space_group_name_H-M "I M M A"
_symmetry_group_IT_number 74
_symmetry_cell_setting 'orthorhombic'
loop_
_space_group_symop_operation_xyz
x,y,z
-x,1/2-y,z
x,-y,-z
-x,1/2+y,-z
-x,-y,-z
x,1/2+y,-z
-x,y,z
x,1/2-y,z
1/2+x,1/2+y,1/2+z
1/2-x,-y,1/2+z
1/2+x,1/2-y,1/2-z
1/2-x,y,1/2-z
1/2-x,1/2-y,1/2-z
1/2+x,y,1/2-z
1/2-x,1/2+y,1/2+z
1/2+x,-y,1/2+z
loop_
_atom_site_type_symbol
_atom_site_label
_atom_site_fract_x
_atom_site_fract_y
_atom_site_fract_z
Si Si1 0.601307 0.575125 0.029543
Si Si2 0.718932 0.112272 0.604550
Si Si3 0.142969 0.558554 0.758020
Si Si4 0.301217 0.700954 0.482055
Si Si5 0.597892 0.299881 0.024435
Si Si6 0.399155 0.841481 0.699357
Si Si7 0.601109 0.535815 0.315903
O O1 0.500000 0.593893 0.044418
O O2 0.688659 0.606352 0.025267
O O3 0.615917 0.546640 0.160984
O O4 0.603650 0.553513 0.887937
O O5 0.750000 0.118219 0.750000
O O6 0.661430 0.155664 0.576564
O O7 0.666625 0.066610 0.602650
O O8 0.250000 0.556745 0.750000
O O9 0.118372 0.606472 0.812873
O O10 0.112434 0.515717 0.834984
O O11 0.331707 0.750000 0.447606
O O12 0.193928 0.698387 0.452544
O O13 0.326605 0.689924 0.630715
O O14 0.500000 0.305950 0.956429
O O15 0.596485 0.250000 0.075676
O O16 0.600795 0.330994 0.148426
O O17 0.500000 0.831321 0.650224
O O18 0.500000 0.549038 0.345982
#
# Coordination Sequence:
#
# PCOD9538479 Si02
#       7
#    16  16  16  16  16  16  16
#     4  10  20  37  63  90 119 158 199 238 286 349
#     4  10  22  41  61  86 117 150 194 248 299 347
#     4  12  22  35  59  91 127 159 192 237 290 353
#     4  11  23  39  60  83 110 150 199 248 299 355
#     4   9  18  34  57  86 119 150 183 234 299 359
#     4  11  22  35  54  84 121 158 194 232 282 348
#     4  10  22  40  61  86 119 160 202 243 290 345
#
# _framework density 23.950284
#
# number of rings (size 3 to 8) (size 9 to 14) (size 15 to 20)
#    0.000    1.571    0.000    6.429    0.000    5.714 
#    0.000    2.143    0.000    4.286    0.000    6.000 
#    0.000    0.000    0.000    0.000    0.000    0.000 
#
# Total GULP energy -312547.028938 kJ/mol
# GULP energy per Si atom -5581.196945 kJ/mol
# Density = 2.389577 g / cm^3
# Si number density = 23.950284 Si / 1000 Ang^3
#
#
#
# Elastic Constant Matrix: (Units=GPa)
#
#
# Indices 1 2 3 4 5 6 
#
# 1 108.1579 17.0780 5.1975 -0.0005 0.0003 0.0000
# 2 17.0780 185.0263 15.2790 -0.0004 0.0000 0.0000
# 3 5.1975 15.2790 31.2824 -0.0018 -0.0008 -0.0001
# 4 -0.0005 -0.0004 -0.0018 14.0242 0.0000 -0.0001
# 5 0.0003 0.0000 -0.0008 0.0000 18.9704 -0.0001
# 6 0.0000 0.0000 -0.0001 -0.0001 -0.0001 25.2101
#
#
#
# Elastic Compliance Matrix: (Units=1/GPa)
#
#
# Indices 1 2 3 4 5 6 
#
# 1 0.009425 -0.000772 -0.001189 0.000000 0.000000 0.000000
# 2 -0.000772 0.005695 -0.002653 0.000000 0.000000 0.000000
# 3 -0.001189 -0.002653 0.033460 0.000004 0.000001 0.000000
# 4 0.000000 0.000000 0.000004 0.071305 0.000000 0.000000
# 5 0.000000 0.000000 0.000001 0.000000 0.052714 0.000000
# 6 0.000000 0.000000 0.000000 0.000000 0.000000 0.039667
#
#
# Mechanical properties :
#
#
# Convention : Reuss Voigt Hill
#
# Bulk Modulus (GPa) = 25.41165 44.39728 34.90446
# Shear Modulus (GPa) = 21.31187 30.76841 26.04014
#
# Velocity S-wave (km/s) = 2.98625 3.58813 3.30094
# Velocity P-wave (km/s) = 4.74589 5.97861 5.39756
#
# Compressibility (1/GPa) = 0.03935203
#
# Stress axis : x y z
#
# Youngs Moduli (GPa) = 106.10386 175.59344 29.88612
#
# Poissons Ratio (x) = 0.13551 0.03553
# Poissons Ratio (y) = 0.08188 0.07930
# Poissons Ratio (z) = 0.12615 0.46591
#
# Static dielectric constant tensor:
#      x y z
#    x 1.966090 0.000000 0.000000 
#    y 0.000000 1.955340 0.000000 
#    z 0.000000 0.000000 1.959610 
# 
# From -- ./inp_files/21182.got.cif
#   From: 2010.05.17/outbox.cif.g08.bks.cpg/sg74_11_cif.got.tgz:21182.got - 2010.06.03 17:57:02.
