data_PCOD9538965
_publ_section_title
;
Structure prediction by ZEFSAII (Michael W. Deem and Ramdas Pophale) SiO2 
 PCOD9538965
Probable space group: I M M A
;
_chemical_formula_sum "Si O2"
_cell_formula_units_Z 112
_cell_length_a 31.859145
_cell_length_b 14.611878
_cell_length_c 10.078656
_cell_angle_alpha 90.000000
_cell_angle_beta 90.000000
_cell_angle_gamma 90.000000
_cell_volume 4691.835493
_symmetry_space_group_name_H-M "I M M A"
_symmetry_group_IT_number 74
_symmetry_cell_setting 'orthorhombic'
loop_
_space_group_symop_operation_xyz
x,y,z
-x,1/2-y,z
x,-y,-z
-x,1/2+y,-z
-x,-y,-z
x,1/2+y,-z
-x,y,z
x,1/2-y,z
1/2+x,1/2+y,1/2+z
1/2-x,-y,1/2+z
1/2+x,1/2-y,1/2-z
1/2-x,y,1/2-z
1/2-x,1/2-y,1/2-z
1/2+x,y,1/2-z
1/2-x,1/2+y,1/2+z
1/2+x,-y,1/2+z
loop_
_atom_site_type_symbol
_atom_site_label
_atom_site_fract_x
_atom_site_fract_y
_atom_site_fract_z
Si Si1 0.613516 0.639734 0.196653
Si Si2 0.206531 0.148346 0.769153
Si Si3 0.546175 0.359540 0.330063
Si Si4 0.953693 0.360591 0.478762
Si Si5 0.262834 0.394657 0.457956
Si Si6 0.120511 0.476379 0.138464
Si Si7 0.182882 0.854497 0.698784
O O1 0.609696 0.750000 0.220889
O O2 0.663392 0.617322 0.206101
O O3 0.586760 0.615725 0.066440
O O4 0.598948 0.568521 0.307342
O O5 0.211677 0.250000 0.711344
O O6 0.250000 0.093498 0.750000
O O7 0.209272 0.153017 0.927358
O O8 0.500000 0.386083 0.378418
O O9 0.549134 0.250000 0.335397
O O10 0.584579 0.405771 0.401319
O O11 0.549545 0.387619 0.174574
O O12 0.954665 0.250000 0.479789
O O13 0.000000 0.390948 0.529773
O O14 0.262652 0.500000 0.500000
O O15 0.213701 0.370142 0.427937
O O16 0.286579 0.367134 0.324669
O O17 0.146813 0.425667 0.255894
O O18 0.144217 0.500000 0.000000
O O19 0.166506 0.750000 0.690040
#
# Coordination Sequence:
#
# PCOD9538965 Si02
#       7
#    16  16  16  16  16  16  16
#     4  10  22  39  61  92 131 174 221 275 350 421
#     4  10  21  36  56  82 119 164 207 261 329 399
#     4   9  20  42  70  98 131 171 218 276 339 406
#     4   8  16  36  66  97 129 167 213 270 337 410
#     4  11  23  38  64  91 125 162 213 271 330 393
#     4  12  26  41  63  95 129 174 225 283 341 409
#     4  11  24  44  67  91 125 175 229 279 330 397
#
# _framework density 23.871254
#
# number of rings (size 3 to 8) (size 9 to 14) (size 15 to 20)
#    0.000    1.857    0.000    5.143    4.000    4.857 
#    0.000    4.286    0.000    1.714    0.000    0.000 
#    0.000    0.000    0.000    0.000    0.000    0.000 
#
# Total GULP energy -312097.457935 kJ/mol
# GULP energy per Si atom -5573.168892 kJ/mol
# Density = 2.381692 g / cm^3
# Si number density = 23.871254 Si / 1000 Ang^3
#
#
#
# Elastic Constant Matrix: (Units=GPa)
#
#
# Indices 1 2 3 4 5 6 
#
# 1 141.5559 24.0722 36.4352 0.0000 0.0000 0.0000
# 2 24.0722 120.4907 9.3911 0.0000 0.0000 0.0000
# 3 36.4352 9.3911 58.9232 0.0000 0.0000 0.0000
# 4 0.0000 0.0000 0.0000 22.8109 0.0000 0.0000
# 5 0.0000 0.0000 0.0000 0.0000 -269.9306 0.0000
# 6 0.0000 0.0000 0.0000 0.0000 0.0000 136.6098
#
#
#
# Elastic Compliance Matrix: (Units=1/GPa)
#
#
# Indices 1 2 3 4 5 6 
#
# 1 0.008604 -0.001321 -0.005110 0.000000 0.000000 0.000000
# 2 -0.001321 0.008607 -0.000555 0.000000 0.000000 0.000000
# 3 -0.005110 -0.000555 0.020219 0.000000 0.000000 0.000000
# 4 0.000000 0.000000 0.000000 0.043839 0.000000 0.000000
# 5 0.000000 0.000000 0.000000 0.000000 -0.003705 0.000000
# 6 0.000000 0.000000 0.000000 0.000000 0.000000 0.007320
#
#
# Mechanical properties :
#
#
# Convention : Reuss Voigt Hill
#
# Bulk Modulus (GPa) = 42.62791 51.19631 46.91211
# Shear Modulus (GPa) = 46.87127 -5.36390 20.75368
#
# Velocity S-wave (km/s) = 4.43595 -1.50063 2.95176
# Velocity P-wave (km/s) = 6.64327 4.30010 5.59571
#
# Compressibility (1/GPa) = 0.02345881
#
# Stress axis : x y z
#
# Youngs Moduli (GPa) = 116.22255 116.19104 49.45743
#
# Poissons Ratio (x) = 0.15346 0.25272
# Poissons Ratio (y) = 0.15350 0.02745
# Poissons Ratio (z) = 0.59389 0.06449
#
# Static dielectric constant tensor:
#      x y z
#    x 2.009500 0.000000 0.000000 
#    y 0.000000 1.897420 0.000000 
#    z 0.000000 0.000000 2.018590 
# 
# From -- ./inp_files/27258.got.cif
#   From: 2010.05.17/outbox.cif.g08.bks.cpg/sg74_14_cif.got.tgz:27258.got - 2010.06.03 17:57:02.
