data_PCOD9538628
_publ_section_title
;
Structure prediction by ZEFSAII (Michael W. Deem and Ramdas Pophale) SiO2 
 PCOD9538628
Probable space group: I M M A
;
_chemical_formula_sum "Si O2"
_cell_formula_units_Z 116
_cell_length_a 27.271908
_cell_length_b 24.913024
_cell_length_c 9.392537
_cell_angle_alpha 90.000000
_cell_angle_beta 90.000000
_cell_angle_gamma 90.000000
_cell_volume 6381.531012
_symmetry_space_group_name_H-M "I M M A"
_symmetry_group_IT_number 74
_symmetry_cell_setting 'orthorhombic'
loop_
_space_group_symop_operation_xyz
x,y,z
-x,1/2-y,z
x,-y,-z
-x,1/2+y,-z
-x,-y,-z
x,1/2+y,-z
-x,y,z
x,1/2-y,z
1/2+x,1/2+y,1/2+z
1/2-x,-y,1/2+z
1/2+x,1/2-y,1/2-z
1/2-x,y,1/2-z
1/2-x,1/2-y,1/2-z
1/2+x,y,1/2-z
1/2-x,1/2+y,1/2+z
1/2+x,-y,1/2+z
loop_
_atom_site_type_symbol
_atom_site_label
_atom_site_fract_x
_atom_site_fract_y
_atom_site_fract_z
Si Si1 0.556395 0.443518 0.555749
Si Si2 0.417297 0.345927 0.354149
Si Si3 0.191979 0.535487 0.773828
Si Si4 0.766635 0.309407 0.414998
Si Si5 0.140030 0.125717 0.414333
Si Si6 0.820329 0.378321 0.992298
Si Si7 0.000000 0.750000 0.871137
Si Si8 0.636823 0.576483 0.222711
O O1 0.576556 0.500000 0.500000
O O2 0.500000 0.450878 0.590402
O O3 0.562149 0.398496 0.434816
O O4 0.585574 0.427739 0.695461
O O5 0.404836 0.358478 0.188966
O O6 0.362894 0.342635 0.429868
O O7 0.455889 0.297532 0.370561
O O8 0.250000 0.528065 0.750000
O O9 0.171992 0.581318 0.668864
O O10 0.181218 0.563424 0.927743
O O11 0.163651 0.481138 0.733786
O O12 0.756755 0.250000 0.469599
O O13 0.750000 0.311455 0.250000
O O14 0.823383 0.324127 0.428531
O O15 0.732416 0.352488 0.489747
O O16 0.129397 0.100277 0.567081
O O17 0.832436 0.385281 0.827649
#
# Coordination Sequence:
#
# PCOD9538628 Si02
#       8
#    16  16  16  16  16  16   4  16
#     4  10  20  42  66  89 117 157 202 249 308 370
#     4  10  22  39  65  88 116 146 206 262 295 362
#     4  11  20  36  58  90 126 165 207 239 283 351
#     4  11  21  37  61  82 108 163 208 249 287 345
#     4  11  22  39  56  89 126 154 202 242 300 363
#     4  10  20  39  58  89 121 157 201 242 294 357
#     4  12  24  40  70 100 102 148 220 272 316 338
#     4  11  24  34  59  88 128 163 184 245 309 361
#
# _framework density 18.177455999999999
#
# number of rings (size 3 to 8) (size 9 to 14) (size 15 to 20)
#    0.000    1.379    4.828    3.310    3.862    1.103 
#    1.241    1.379    1.517    5.793    0.000    0.000 
#    0.000    0.000    0.000    0.000    0.000    0.000 
#
# Total GULP energy -322947.971704 kJ/mol
# GULP energy per Si atom -5568.068478 kJ/mol
# Density = 1.813608 g / cm^3
# Si number density = 18.177456 Si / 1000 Ang^3
#
#
#
# Elastic Constant Matrix: (Units=GPa)
#
#
# Indices 1 2 3 4 5 6 
#
# 1 76.6261 33.3727 3.2751 0.0000 0.0000 0.0000
# 2 33.3727 106.6288 30.8822 0.0000 0.0000 0.0000
# 3 3.2751 30.8822 58.1167 0.0000 0.0000 0.0000
# 4 0.0000 0.0000 0.0000 3.0774 0.0000 0.0000
# 5 0.0000 0.0000 0.0000 0.0000 4.0700 0.0000
# 6 0.0000 0.0000 0.0000 0.0000 0.0000 24.8235
#
#
#
# Elastic Compliance Matrix: (Units=1/GPa)
#
#
# Indices 1 2 3 4 5 6 
#
# 1 0.015302 -0.005365 0.001989 0.000000 0.000000 0.000000
# 2 -0.005365 0.012965 -0.006587 0.000000 0.000000 0.000000
# 3 0.001989 -0.006587 0.020595 0.000000 0.000000 0.000000
# 4 0.000000 0.000000 0.000000 0.324949 0.000000 0.000000
# 5 0.000000 0.000000 0.000000 0.000000 0.245699 0.000000
# 6 0.000000 0.000000 0.000000 0.000000 0.000000 0.040284
#
#
# Mechanical properties :
#
#
# Convention : Reuss Voigt Hill
#
# Bulk Modulus (GPa) = 34.56036 41.82574 38.19305
# Shear Modulus (GPa) = 7.25302 17.98362 12.61832
#
# Velocity S-wave (km/s) = 1.99970 3.14878 2.63758
# Velocity P-wave (km/s) = 4.93819 6.02324 5.50750
#
# Compressibility (1/GPa) = 0.02893488
#
# Stress axis : x y z
#
# Youngs Moduli (GPa) = 65.35060 77.12876 48.55550
#
# Poissons Ratio (x) = 0.41381 -0.09656
# Poissons Ratio (y) = 0.35062 0.31984
# Poissons Ratio (z) = -0.12996 0.50806
#
# Static dielectric constant tensor:
#      x y z
#    x 1.639680 0.000000 0.000000 
#    y 0.000000 1.657190 0.000000 
#    z 0.000000 0.000000 1.629240 
# 
# From -- ./inp_files/16342.got.cif
#   From: 2010.05.17/outbox.cif.g08.bks.cpg/sg74_9_cif.got.tgz:16342.got - 2010.06.03 17:57:02.
