data_PCOD9538251
_publ_section_title
;
Structure prediction by ZEFSAII (Michael W. Deem and Ramdas Pophale) SiO2 
 PCOD9538251
Probable space group: I M M A
;
_chemical_formula_sum "Si O2"
_cell_formula_units_Z 100
_cell_length_a 7.424909
_cell_length_b 22.446993
_cell_length_c 27.842998
_cell_angle_alpha 90.000000
_cell_angle_beta 90.000000
_cell_angle_gamma 90.000000
_cell_volume 4640.505616
_symmetry_space_group_name_H-M "I M M A"
_symmetry_group_IT_number 74
_symmetry_cell_setting 'orthorhombic'
loop_
_space_group_symop_operation_xyz
x,y,z
-x,1/2-y,z
x,-y,-z
-x,1/2+y,-z
-x,-y,-z
x,1/2+y,-z
-x,y,z
x,1/2-y,z
1/2+x,1/2+y,1/2+z
1/2-x,-y,1/2+z
1/2+x,1/2-y,1/2-z
1/2-x,y,1/2-z
1/2-x,1/2-y,1/2-z
1/2+x,y,1/2-z
1/2-x,1/2+y,1/2+z
1/2+x,-y,1/2+z
loop_
_atom_site_type_symbol
_atom_site_label
_atom_site_fract_x
_atom_site_fract_y
_atom_site_fract_z
Si Si1 0.000000 0.250000 0.156886
Si Si2 0.787346 0.682952 0.104508
Si Si3 0.281171 0.907700 0.474850
Si Si4 0.717749 0.463770 0.430074
Si Si5 0.287023 0.601068 0.195870
Si Si6 0.795804 0.030875 0.320447
Si Si7 0.284323 0.161099 0.196413
O O1 0.159415 0.198333 0.160945
O O2 0.714027 0.750000 0.109146
O O3 0.714155 0.645064 0.059315
O O4 0.772124 0.644817 0.153401
O O5 0.000000 0.688242 0.095590
O O6 0.500000 0.904897 0.475688
O O7 0.224475 0.915213 0.530244
O O8 0.235954 0.970719 0.450169
O O9 0.500000 0.461195 0.426077
O O10 0.796985 0.459915 0.377601
O O11 0.500000 0.596416 0.189553
O O12 0.250000 0.622474 0.250000
O O13 0.211437 0.533639 0.190369
O O14 0.717985 0.092610 0.302097
O O15 0.000000 0.028305 0.301545
O O16 0.500000 0.163383 0.186128
O O17 0.250000 0.185301 0.250000
#
# Coordination Sequence:
#
# PCOD9538251 Si02
#       7
#     4  16  16  16  16  16  16
#     4  12  24  40  62  86 112 156 208 234 310 350
#     4  10  20  36  59  84 113 153 198 242 298 357
#     4   8  15  30  52  86 110 142 188 237 282 337
#     4   9  16  29  57  81 112 147 185 232 287 343
#     4  11  23  39  58  82 117 153 193 247 302 354
#     4  10  22  37  54  86 121 149 189 243 302 348
#     4  11  23  38  59  86 116 152 200 252 290 359
#
# _framework density 21.549375999999999
#
# number of rings (size 3 to 8) (size 9 to 14) (size 15 to 20)
#    0.000    2.080    2.400    2.400    1.120    1.280 
#    0.000    2.400    1.760    0.000    0.000    0.000 
#    0.000    0.000    0.000    0.000    0.000    0.000 
#
# Total GULP energy -278469.842500 kJ/mol
# GULP energy per Si atom -5569.396850 kJ/mol
# Density = 2.150033 g / cm^3
# Si number density = 21.549376 Si / 1000 Ang^3
#
#
#
# Elastic Constant Matrix: (Units=GPa)
#
#
# Indices 1 2 3 4 5 6 
#
# 1 100.7641 17.7030 -6.4254 0.0000 0.0000 0.0000
# 2 17.7030 148.0195 36.8793 0.0000 0.0000 0.0000
# 3 -6.4254 36.8793 98.6928 0.0000 0.0000 0.0000
# 4 0.0000 0.0000 0.0000 166.5732 0.0000 0.0000
# 5 0.0000 0.0000 0.0000 0.0000 13.7637 0.0000
# 6 0.0000 0.0000 0.0000 0.0000 0.0000 19.6308
#
#
#
# Elastic Compliance Matrix: (Units=1/GPa)
#
#
# Indices 1 2 3 4 5 6 
#
# 1 0.010274 -0.001539 0.001244 0.000000 0.000000 0.000000
# 2 -0.001539 0.007680 -0.002970 0.000000 0.000000 0.000000
# 3 0.001244 -0.002970 0.011323 0.000000 0.000000 0.000000
# 4 0.000000 0.000000 0.000000 0.006003 0.000000 0.000000
# 5 0.000000 0.000000 0.000000 0.000000 0.072655 0.000000
# 6 0.000000 0.000000 0.000000 0.000000 0.000000 0.050940
#
#
# Mechanical properties :
#
#
# Convention : Reuss Voigt Hill
#
# Bulk Modulus (GPa) = 43.96113 49.31001 46.63557
# Shear Modulus (GPa) = 28.90381 59.94818 44.42600
#
# Velocity S-wave (km/s) = 3.66633 5.28009 4.54540
# Velocity P-wave (km/s) = 6.19412 7.75271 7.01682
#
# Compressibility (1/GPa) = 0.02274737
#
# Stress axis : x y z
#
# Youngs Moduli (GPa) = 97.33488 130.21074 88.31390
#
# Poissons Ratio (x) = 0.20035 -0.10985
# Poissons Ratio (y) = 0.14976 0.26229
# Poissons Ratio (z) = -0.12107 0.38672
#
# Static dielectric constant tensor:
#      x y z
#    x 1.834550 0.000000 0.000000 
#    y 0.000000 1.806440 0.000000 
#    z 0.000000 0.000000 1.460180 
# 
# From -- ./inp_files/70596.got.cif
#   From: 2010.05.17/outbox.cif.g08.bks.cpg/sg74_36_cif.got.tgz:70596.got - 2010.06.03 17:57:02.
