data_PCOD9538458
_publ_section_title
;
Structure prediction by ZEFSAII (Michael W. Deem and Ramdas Pophale) SiO2 
 PCOD9538458
Probable space group: I M M A
;
_chemical_formula_sum "Si O2"
_cell_formula_units_Z 80
_cell_length_a 8.436737
_cell_length_b 18.765659
_cell_length_c 24.554379
_cell_angle_alpha 90.000000
_cell_angle_beta 90.000000
_cell_angle_gamma 90.000000
_cell_volume 3887.472109
_symmetry_space_group_name_H-M "I M M A"
_symmetry_group_IT_number 74
_symmetry_cell_setting 'orthorhombic'
loop_
_space_group_symop_operation_xyz
x,y,z
-x,1/2-y,z
x,-y,-z
-x,1/2+y,-z
-x,-y,-z
x,1/2+y,-z
-x,y,z
x,1/2-y,z
1/2+x,1/2+y,1/2+z
1/2-x,-y,1/2+z
1/2+x,1/2-y,1/2-z
1/2-x,y,1/2-z
1/2-x,1/2-y,1/2-z
1/2+x,y,1/2-z
1/2-x,1/2+y,1/2+z
1/2+x,-y,1/2+z
loop_
_atom_site_type_symbol
_atom_site_label
_atom_site_fract_x
_atom_site_fract_y
_atom_site_fract_z
Si Si1 0.311843 0.080183 0.493646
Si Si2 0.322332 0.334390 0.694958
Si Si3 0.681547 0.582956 0.106835
Si Si4 0.190024 0.044261 0.312039
Si Si5 0.307464 0.333032 0.387410
O O1 0.500000 0.074312 0.484920
O O2 0.277824 0.107110 0.553998
O O3 0.252186 0.127527 0.443406
O O4 0.244731 0.000000 0.500000
O O5 0.500000 0.362108 0.684129
O O6 0.334683 0.250000 0.700748
O O7 0.250000 0.365400 0.750000
O O8 0.199918 0.352981 0.648534
O O9 0.500000 0.568955 0.091813
O O10 0.743320 0.515361 0.142856
O O11 0.250000 0.034835 0.250000
O O12 0.244928 0.119614 0.337381
O O13 0.000000 0.039951 0.310650
O O14 0.500000 0.334399 0.386439
O O15 0.258907 0.250000 0.386108
#
# Coordination Sequence:
#
# PCOD9538458 Si02
#       5
#    16  16  16  16  16
#     4  10  20  37  62  88 117 156 195 239 296 353
#     4  10  21  37  57  82 116 157 199 245 297 353
#     4  11  23  37  59  90 122 157 200 249 296 354
#     4  11  24  40  61  89 121 159 203 249 300 359
#     4  10  22  41  64  90 120 156 201 250 301 360
#
# _framework density 20.578925000000002
#
# number of rings (size 3 to 8) (size 9 to 14) (size 15 to 20)
#    0.000    1.600    2.000    2.400    0.000    8.000 
#    0.000    2.000    0.000    0.000    0.000    0.000 
#    0.000    0.000    0.000    0.000    0.000    0.000 
#
# Total GULP energy -223051.802435 kJ/mol
# GULP energy per Si atom -5576.295061 kJ/mol
# Density = 2.053209 g / cm^3
# Si number density = 20.578925 Si / 1000 Ang^3
#
#
#
# Elastic Constant Matrix: (Units=GPa)
#
#
# Indices 1 2 3 4 5 6 
#
# 1 27.9433 28.4219 2.2274 0.0000 0.0000 0.0000
# 2 28.4219 82.6476 32.6280 0.0000 0.0000 0.0000
# 3 2.2274 32.6280 98.9123 0.0000 0.0000 0.0000
# 4 0.0000 0.0000 0.0000 18.3808 0.0000 0.0000
# 5 0.0000 0.0000 0.0000 0.0000 29.9442 0.0000
# 6 0.0000 0.0000 0.0000 0.0000 0.0000 8.9045
#
#
#
# Elastic Compliance Matrix: (Units=1/GPa)
#
#
# Indices 1 2 3 4 5 6 
#
# 1 0.058041 -0.022355 0.006067 0.000000 0.000000 0.000000
# 2 -0.022355 0.022522 -0.006926 0.000000 0.000000 0.000000
# 3 0.006067 -0.006926 0.012258 0.000000 0.000000 0.000000
# 4 0.000000 0.000000 0.000000 0.054405 0.000000 0.000000
# 5 0.000000 0.000000 0.000000 0.000000 0.033395 0.000000
# 6 0.000000 0.000000 0.000000 0.000000 0.000000 0.112303
#
#
# Mechanical properties :
#
#
# Convention : Reuss Voigt Hill
#
# Bulk Modulus (GPa) = 21.55487 37.33978 29.44732
# Shear Modulus (GPa) = 14.09184 21.19428 17.64306
#
# Velocity S-wave (km/s) = 2.61965 3.21269 2.93121
# Velocity P-wave (km/s) = 4.43250 5.65207 5.07902
#
# Compressibility (1/GPa) = 0.04639324
#
# Stress axis : x y z
#
# Youngs Moduli (GPa) = 17.22914 44.40191 81.57992
#
# Poissons Ratio (x) = 0.99262 -0.49496
# Poissons Ratio (y) = 0.38516 0.56500
# Poissons Ratio (z) = -0.10453 0.30752
#
# Static dielectric constant tensor:
#      x y z
#    x 1.759460 0.000000 0.000000 
#    y 0.000000 1.786390 0.000000 
#    z 0.000000 0.000000 2.038060 
# 
# From -- ./inp_files/63921.got.cif
#   From: 2010.05.17/outbox.cif.g08.bks.cpg/sg74_32_cif.got.tgz:63921.got - 2010.06.03 17:57:02.
