data_PCOD9538695
_publ_section_title
;
Structure prediction by ZEFSAII (Michael W. Deem and Ramdas Pophale) SiO2 
 PCOD9538695
Probable space group: I M M A
;
_chemical_formula_sum "Si O2"
_cell_formula_units_Z 68
_cell_length_a 19.187565
_cell_length_b 21.602224
_cell_length_c 7.811888
_cell_angle_alpha 90.000000
_cell_angle_beta 90.000000
_cell_angle_gamma 90.000000
_cell_volume 3237.981307
_symmetry_space_group_name_H-M "I M M A"
_symmetry_group_IT_number 74
_symmetry_cell_setting 'orthorhombic'
loop_
_space_group_symop_operation_xyz
x,y,z
-x,1/2-y,z
x,-y,-z
-x,1/2+y,-z
-x,-y,-z
x,1/2+y,-z
-x,y,z
x,1/2-y,z
1/2+x,1/2+y,1/2+z
1/2-x,-y,1/2+z
1/2+x,1/2-y,1/2-z
1/2-x,y,1/2-z
1/2-x,1/2-y,1/2-z
1/2+x,y,1/2-z
1/2-x,1/2+y,1/2+z
1/2+x,-y,1/2+z
loop_
_atom_site_type_symbol
_atom_site_label
_atom_site_fract_x
_atom_site_fract_y
_atom_site_fract_z
Si Si1 0.000000 0.176259 0.460885
Si Si2 0.764359 0.934055 0.549392
Si Si3 0.750000 0.750000 0.250000
Si Si4 0.151701 0.320600 0.349970
Si Si5 0.000000 0.674582 0.148625
Si Si6 0.843393 0.151690 0.955718
O O1 0.070401 0.163284 0.361308
O O2 0.000000 0.152415 0.653964
O O3 0.000000 0.250000 0.481716
O O4 0.750000 0.939569 0.750000
O O5 0.811488 0.872753 0.537546
O O6 0.693293 0.915669 0.451201
O O7 0.794774 0.000000 0.500000
O O8 0.804499 0.803468 0.175297
O O9 0.165156 0.250000 0.414349
O O10 0.172052 0.324298 0.150543
O O11 0.926405 0.652960 0.070332
O O12 0.000000 0.750000 0.137593
#
# Coordination Sequence:
#
# PCOD9538695 Si02
#       6
#     8  16   4  16   8  16
#     4   9  21  33  60  93 128 167 209 260 315 379
#     4  10  25  42  62  90 125 169 215 267 323 382
#     4  12  24  34  66 104 124 162 202 266 302 384
#     4  10  20  40  63  93 129 168 212 260 320 382
#     4  11  21  37  56  95 128 161 207 261 317 372
#     4  11  24  38  64  92 134 166 206 259 321 378
#
# _framework density 21.000738999999999
#
# number of rings (size 3 to 8) (size 9 to 14) (size 15 to 20)
#    0.000    1.647    2.353    0.706    6.588    2.353 
#    0.000    1.176    0.000    0.000    0.000    0.000 
#    0.000    0.000    0.000    0.000    0.000    0.000 
#
# Total GULP energy -189356.862107 kJ/mol
# GULP energy per Si atom -5569.319474 kJ/mol
# Density = 2.095294 g / cm^3
# Si number density = 21.000739 Si / 1000 Ang^3
#
#
#
# Elastic Constant Matrix: (Units=GPa)
#
#
# Indices 1 2 3 4 5 6 
#
# 1 148.0048 54.6785 22.5273 0.0000 0.0000 0.0000
# 2 54.6785 113.3310 33.2968 0.0000 0.0000 0.0000
# 3 22.5273 33.2968 62.1030 0.0000 0.0000 0.0000
# 4 0.0000 0.0000 0.0000 17.6011 0.0000 0.0000
# 5 0.0000 0.0000 0.0000 0.0000 34.3198 0.0000
# 6 0.0000 0.0000 0.0000 0.0000 0.0000 0.0846
#
#
#
# Elastic Compliance Matrix: (Units=1/GPa)
#
#
# Indices 1 2 3 4 5 6 
#
# 1 0.008276 -0.003693 -0.001022 0.000000 0.000000 0.000000
# 2 -0.003693 0.012121 -0.005159 0.000000 0.000000 0.000000
# 3 -0.001022 -0.005159 0.019239 0.000000 0.000000 0.000000
# 4 0.000000 0.000000 0.000000 0.056815 0.000000 0.000000
# 5 0.000000 0.000000 0.000000 0.000000 0.029138 0.000000
# 6 0.000000 0.000000 0.000000 0.000000 0.000000 11.823962
#
#
# Mechanical properties :
#
#
# Convention : Reuss Voigt Hill
#
# Bulk Modulus (GPa) = 50.28124 60.49378 55.38751
# Shear Modulus (GPa) = 0.41750 24.59685 12.50718
#
# Velocity S-wave (km/s) = 0.44636 3.42605 2.44305
# Velocity P-wave (km/s) = 4.92547 6.67222 5.86424
#
# Compressibility (1/GPa) = 0.01988813
#
# Stress axis : x y z
#
# Youngs Moduli (GPa) = 120.82595 82.50047 51.97695
#
# Poissons Ratio (x) = 0.30465 0.05314
# Poissons Ratio (y) = 0.44618 0.26817
# Poissons Ratio (z) = 0.12352 0.42565
#
# Static dielectric constant tensor:
#      x y z
#    x 1.830780 0.000000 0.000000 
#    y 0.000000 1.841930 0.000000 
#    z 0.000000 0.000000 1.882700 
# 
# From -- ./inp_files/11966.got.cif
#   From: 2010.05.17/outbox.cif.g08.bks.cpg/sg74_6_cif.got.tgz:11966.got - 2010.06.03 17:57:02.
