data_PCOD9538764
_publ_section_title
;
Structure prediction by ZEFSAII (Michael W. Deem and Ramdas Pophale) SiO2 
 PCOD9538764
Probable space group: I M M A
;
_chemical_formula_sum "Si O2"
_cell_formula_units_Z 88
_cell_length_a 17.971615
_cell_length_b 26.990663
_cell_length_c 8.616724
_cell_angle_alpha 90.000000
_cell_angle_beta 90.000000
_cell_angle_gamma 90.000000
_cell_volume 4179.678155
_symmetry_space_group_name_H-M "I M M A"
_symmetry_group_IT_number 74
_symmetry_cell_setting 'orthorhombic'
loop_
_space_group_symop_operation_xyz
x,y,z
-x,1/2-y,z
x,-y,-z
-x,1/2+y,-z
-x,-y,-z
x,1/2+y,-z
-x,y,z
x,1/2-y,z
1/2+x,1/2+y,1/2+z
1/2-x,-y,1/2+z
1/2+x,1/2-y,1/2-z
1/2-x,y,1/2-z
1/2-x,1/2-y,1/2-z
1/2+x,y,1/2-z
1/2-x,1/2+y,1/2+z
1/2+x,-y,1/2+z
loop_
_atom_site_type_symbol
_atom_site_label
_atom_site_fract_x
_atom_site_fract_y
_atom_site_fract_z
Si Si1 0.410543 0.093337 0.572394
Si Si2 0.584147 0.849755 0.897809
Si Si3 0.313459 0.000000 0.000000
Si Si4 0.186571 0.601868 0.359460
Si Si5 0.090281 0.196070 0.080046
Si Si6 0.916430 0.042671 0.234496
O O1 0.500000 0.093905 0.576972
O O2 0.377366 0.084275 0.740278
O O3 0.384370 0.147715 0.513716
O O4 0.390511 0.053309 0.440366
O O5 0.500000 0.838232 0.956882
O O6 0.646396 0.859936 0.025943
O O7 0.606435 0.811950 0.762500
O O8 0.577840 0.902345 0.808429
O O9 0.362423 0.014870 0.149488
O O10 0.279910 0.946767 0.052264
O O11 0.250000 0.623453 0.250000
O O12 0.116737 0.250000 0.026648
O O13 0.000000 0.195577 0.069932
O O14 0.000000 0.020940 0.232778
#
# Coordination Sequence:
#
# PCOD9538764 Si02
#       6
#    16  16   8  16  16  16
#     4   9  18  33  53  77 103 130 163 206 255 301
#     4   8  15  31  53  76 102 132 165 200 246 304
#     4  10  21  34  48  68  95 132 174 214 254 302
#     4  11  23  36  50  69  99 137 173 212 255 297
#     4   8  14  29  57  87 107 126 161 208 251 296
#     4   8  15  29  50  74  98 125 160 205 253 303
#
# _framework density 21.054252000000002
#
# number of rings (size 3 to 8) (size 9 to 14) (size 15 to 20)
#    0.000    3.091    0.000    3.000    0.000    4.364 
#    0.000   10.000    0.000    7.636    0.000    0.000 
#    0.000    0.000    0.000    0.000    0.000    0.000 
#
# Total GULP energy -245189.452541 kJ/mol
# GULP energy per Si atom -5572.487558 kJ/mol
# Density = 2.100633 g / cm^3
# Si number density = 21.054252 Si / 1000 Ang^3
#
#
#
# Elastic Constant Matrix: (Units=GPa)
#
#
# Indices 1 2 3 4 5 6 
#
# 1 40.5906 4.4724 16.6091 0.0000 0.0000 -0.0001
# 2 4.4724 83.8424 25.4009 0.0000 0.0000 -0.0002
# 3 16.6091 25.4009 57.6752 0.0000 0.0003 -0.0016
# 4 0.0000 0.0000 0.0000 21.6671 0.0001 -0.0001
# 5 0.0000 0.0000 0.0003 0.0001 -124.5560 -0.0029
# 6 -0.0001 -0.0002 -0.0016 -0.0001 -0.0029 -121.0759
#
#
#
# Elastic Compliance Matrix: (Units=1/GPa)
#
#
# Indices 1 2 3 4 5 6 
#
# 1 0.028014 0.001096 -0.008550 0.000000 0.000000 0.000000
# 2 0.001096 0.013806 -0.006396 0.000000 0.000000 0.000000
# 3 -0.008550 -0.006396 0.022618 0.000000 0.000000 0.000000
# 4 0.000000 0.000000 0.000000 0.046153 0.000000 0.000000
# 5 0.000000 0.000000 0.000000 0.000000 -0.008029 0.000000
# 6 0.000000 0.000000 0.000000 0.000000 0.000000 -0.008259
#
#
# Mechanical properties :
#
#
# Convention : Reuss Voigt Hill
#
# Bulk Modulus (GPa) = 27.22004 30.56368 28.89186
# Shear Modulus (GPa) = 37.24403 -35.75126 0.74639
#
# Velocity S-wave (km/s) = 4.21046 -4.12522 0.59605
# Velocity P-wave (km/s) = 6.04929 2.85337 3.77175
#
# Compressibility (1/GPa) = 0.03673763
#
# Stress axis : x y z
#
# Youngs Moduli (GPa) = 35.69639 72.42987 44.21327
#
# Poissons Ratio (x) = -0.07938 0.37803
# Poissons Ratio (y) = -0.03912 0.28280
# Poissons Ratio (z) = 0.30521 0.46327
#
# Static dielectric constant tensor:
#      x y z
#    x 1.771580 0.000000 0.000000 
#    y 0.000000 1.807410 0.000000 
#    z 0.000000 0.000000 1.760120 
# 
# From -- ./inp_files/11249.got.cif
#   From: 2010.05.17/outbox.cif.g08.bks.cpg/sg74_6_cif.got.tgz:11249.got - 2010.06.03 17:57:02.
