data_PCOD9538014
_publ_section_title
;
Structure prediction by ZEFSAII (Michael W. Deem and Ramdas Pophale) SiO2 
 PCOD9538014
Probable space group: I M M A
;
_chemical_formula_sum "Si O2"
_cell_formula_units_Z 96
_cell_length_a 21.144564
_cell_length_b 15.280147
_cell_length_c 14.388681
_cell_angle_alpha 90.000000
_cell_angle_beta 90.000000
_cell_angle_gamma 90.000000
_cell_volume 4648.868386
_symmetry_space_group_name_H-M "I M M A"
_symmetry_group_IT_number 74
_symmetry_cell_setting 'orthorhombic'
loop_
_space_group_symop_operation_xyz
x,y,z
-x,1/2-y,z
x,-y,-z
-x,1/2+y,-z
-x,-y,-z
x,1/2+y,-z
-x,y,z
x,1/2-y,z
1/2+x,1/2+y,1/2+z
1/2-x,-y,1/2+z
1/2+x,1/2-y,1/2-z
1/2-x,y,1/2-z
1/2-x,1/2-y,1/2-z
1/2+x,y,1/2-z
1/2-x,1/2+y,1/2+z
1/2+x,-y,1/2+z
loop_
_atom_site_type_symbol
_atom_site_label
_atom_site_fract_x
_atom_site_fract_y
_atom_site_fract_z
Si Si1 0.691070 0.402063 0.469900
Si Si2 0.676134 0.847970 0.949784
Si Si3 0.122960 0.152427 0.644939
Si Si4 0.069269 0.534374 0.639323
Si Si5 0.879245 0.346051 0.856249
Si Si6 0.930200 0.961498 0.859313
O O1 0.709551 0.500000 0.500000
O O2 0.751850 0.362917 0.419760
O O3 0.672621 0.350955 0.563179
O O4 0.627503 0.413133 0.409464
O O5 0.655541 0.750000 0.924222
O O6 0.626803 0.917453 0.910332
O O7 0.673476 0.854575 0.062250
O O8 0.094118 0.250000 0.636237
O O9 0.147210 0.145643 0.751013
O O10 0.077048 0.070309 0.631225
O O11 0.072547 0.554801 0.749129
O O12 0.000000 0.561090 0.603999
O O13 0.910749 0.250000 0.861268
O O14 0.920644 0.433465 0.871680
O O15 0.000000 0.936638 0.893894
#
# Coordination Sequence:
#
# PCOD9538014 Si02
#       6
#    16  16  16  16  16  16
#     4  10  20  35  58  84 114 150 188 231 282 339
#     4  11  23  38  57  83 115 151 195 241 284 334
#     4   9  19  35  57  88 121 149 181 227 284 345
#     4  10  21  39  61  84 114 152 192 235 286 339
#     4   9  18  33  55  86 120 148 178 224 284 346
#     4   9  20  38  59  83 112 149 191 235 284 338
#
# _framework density 20.650186999999999
#
# number of rings (size 3 to 8) (size 9 to 14) (size 15 to 20)
#    0.000    2.333    0.000    2.000    0.000    6.667 
#    0.000   15.000    0.000    3.500    0.000    0.000 
#    0.000    0.000    0.000    0.000    0.000    0.000 
#
# Total GULP energy -267652.277265 kJ/mol
# GULP energy per Si atom -5576.089110 kJ/mol
# Density = 2.060319 g / cm^3
# Si number density = 20.650187 Si / 1000 Ang^3
#
#
#
# Elastic Constant Matrix: (Units=GPa)
#
#
# Indices 1 2 3 4 5 6 
#
# 1 140.8614 54.6178 51.9017 0.0000 0.0000 0.0000
# 2 54.6178 92.7531 38.2268 0.0000 0.0000 0.0000
# 3 51.9017 38.2268 73.0381 0.0000 0.0000 0.0000
# 4 0.0000 0.0000 0.0000 26.7993 0.0000 0.0000
# 5 0.0000 0.0000 0.0000 0.0000 17.3207 0.0000
# 6 0.0000 0.0000 0.0000 0.0000 0.0000 1.1466
#
#
#
# Elastic Compliance Matrix: (Units=1/GPa)
#
#
# Indices 1 2 3 4 5 6 
#
# 1 0.010682 -0.004031 -0.005481 0.000000 0.000000 0.000000
# 2 -0.004031 0.015268 -0.005126 0.000000 0.000000 0.000000
# 3 -0.005481 -0.005126 0.020269 0.000000 0.000000 0.000000
# 4 0.000000 0.000000 0.000000 0.037314 0.000000 0.000000
# 5 0.000000 0.000000 0.000000 0.000000 0.057734 0.000000
# 6 0.000000 0.000000 0.000000 0.000000 0.000000 0.872170
#
#
# Mechanical properties :
#
#
# Convention : Reuss Voigt Hill
#
# Bulk Modulus (GPa) = 59.02380 66.23837 62.63108
# Shear Modulus (GPa) = 4.76935 19.84708 12.30821
#
# Velocity S-wave (km/s) = 1.52138 3.10354 2.44403
# Velocity P-wave (km/s) = 5.63302 6.70736 6.19353
#
# Compressibility (1/GPa) = 0.01694232
#
# Stress axis : x y z
#
# Youngs Moduli (GPa) = 93.61894 65.49749 49.33608
#
# Poissons Ratio (x) = 0.26403 0.27039
# Poissons Ratio (y) = 0.37739 0.25291
# Poissons Ratio (z) = 0.51309 0.33576
#
# Static dielectric constant tensor:
#      x y z
#    x 1.724640 0.000000 0.000000 
#    y 0.000000 1.750480 0.000000 
#    z 0.000000 0.000000 1.758310 
# 
# From -- ./inp_files/35286.got.cif
#   From: 2010.05.17/outbox.cif.g08.bks.cpg/sg74_18_cif.got.tgz:35286.got - 2010.06.03 17:57:02.
