data_PCOD9538828
_publ_section_title
;
Structure prediction by ZEFSAII (Michael W. Deem and Ramdas Pophale) SiO2 
 PCOD9538828
Probable space group: I M M A
;
_chemical_formula_sum "Si O2"
_cell_formula_units_Z 64
_cell_length_a 19.267671
_cell_length_b 13.403718
_cell_length_c 13.092017
_cell_angle_alpha 90.000000
_cell_angle_beta 90.000000
_cell_angle_gamma 90.000000
_cell_volume 3381.123738
_symmetry_space_group_name_H-M "I M M A"
_symmetry_group_IT_number 74
_symmetry_cell_setting 'orthorhombic'
loop_
_space_group_symop_operation_xyz
x,y,z
-x,1/2-y,z
x,-y,-z
-x,1/2+y,-z
-x,-y,-z
x,1/2+y,-z
-x,y,z
x,1/2-y,z
1/2+x,1/2+y,1/2+z
1/2-x,-y,1/2+z
1/2+x,1/2-y,1/2-z
1/2-x,y,1/2-z
1/2-x,1/2-y,1/2-z
1/2+x,y,1/2-z
1/2-x,1/2+y,1/2+z
1/2+x,-y,1/2+z
loop_
_atom_site_type_symbol
_atom_site_label
_atom_site_fract_x
_atom_site_fract_y
_atom_site_fract_z
Si Si1 0.723725 0.865333 0.563706
Si Si2 0.419734 0.369446 0.759927
Si Si3 0.422122 0.130253 0.523350
Si Si4 0.714933 0.436551 0.852971
O O1 0.728528 0.750000 0.597206
O O2 0.642898 0.895321 0.547555
O O3 0.758215 0.877251 0.451529
O O4 0.761296 0.949105 0.630711
O O5 0.500000 0.386359 0.786034
O O6 0.406809 0.250000 0.765359
O O7 0.410761 0.401100 0.641127
O O8 0.366429 0.424692 0.833328
O O9 0.500000 0.102431 0.489169
O O10 0.421549 0.250000 0.527636
O O11 0.750000 0.396309 0.750000
#
# Coordination Sequence:
#
# PCOD9538828 Si02
#       4
#    16  16  16  16
#     4  10  21  35  52  79 111 146 185 225 271 324
#     4   9  17  31  55  84 110 139 177 227 280 321
#     4   8  14  28  52  80 107 135 171 220 278 330
#     4  11  21  34  54  80 110 143 184 225 272 323
#
# _framework density 18.928618
#
# number of rings (size 3 to 8) (size 9 to 14) (size 15 to 20)
#    0.000    2.500    2.500    2.250    0.000    1.500 
#    0.000    6.250    0.000    2.250    0.000    0.000 
#    0.000    0.000    0.000    0.000    0.000    0.000 
#
# Total GULP energy -178520.655322 kJ/mol
# GULP energy per Si atom -5578.770479 kJ/mol
# Density = 1.888554 g / cm^3
# Si number density = 18.928618 Si / 1000 Ang^3
#
#
#
# Elastic Constant Matrix: (Units=GPa)
#
#
# Indices 1 2 3 4 5 6 
#
# 1 158.3978 59.0322 33.1401 0.0000 0.0000 0.0000
# 2 59.0322 93.2890 10.6374 0.0000 0.0000 0.0000
# 3 33.1401 10.6374 37.4895 0.0000 0.0000 0.0000
# 4 0.0000 0.0000 0.0000 11.8687 0.0000 0.0000
# 5 0.0000 0.0000 0.0000 0.0000 23.5809 0.0000
# 6 0.0000 0.0000 0.0000 0.0000 0.0000 12.0820
#
#
#
# Elastic Compliance Matrix: (Units=1/GPa)
#
#
# Indices 1 2 3 4 5 6 
#
# 1 0.009821 -0.005400 -0.007150 0.000000 0.000000 0.000000
# 2 -0.005400 0.014046 0.000788 0.000000 0.000000 0.000000
# 3 -0.007150 0.000788 0.032771 0.000000 0.000000 0.000000
# 4 0.000000 0.000000 0.000000 0.084255 0.000000 0.000000
# 5 0.000000 0.000000 0.000000 0.000000 0.042407 0.000000
# 6 0.000000 0.000000 0.000000 0.000000 0.000000 0.082768
#
#
# Mechanical properties :
#
#
# Convention : Reuss Voigt Hill
#
# Bulk Modulus (GPa) = 30.19776 54.97730 42.58753
# Shear Modulus (GPa) = 16.63169 21.93078 19.28124
#
# Velocity S-wave (km/s) = 2.96742 3.40752 3.19506
# Velocity P-wave (km/s) = 5.26583 6.67751 6.01324
#
# Compressibility (1/GPa) = 0.03311504
#
# Stress axis : x y z
#
# Youngs Moduli (GPa) = 101.81769 71.19268 30.51477
#
# Poissons Ratio (x) = 0.38441 0.21818
# Poissons Ratio (y) = 0.54978 -0.02403
# Poissons Ratio (z) = 0.72799 -0.05607
#
# Static dielectric constant tensor:
#      x y z
#    x 1.693860 0.000000 0.000000 
#    y 0.000000 1.703490 0.000000 
#    z 0.000000 0.000000 1.630900 
# 
# From -- ./inp_files/19915.got.cif
#   From: 2010.05.17/outbox.cif.g08.bks.cpg/sg74_10_cif.got.tgz:19915.got - 2010.06.03 17:57:02.
