data_PCOD9538646
_publ_section_title
;
Structure prediction by ZEFSAII (Michael W. Deem and Ramdas Pophale) SiO2 
 PCOD9538646
Probable space group: I M M A
;
_chemical_formula_sum "Si O2"
_cell_formula_units_Z 56
_cell_length_a 7.967290
_cell_length_b 17.278273
_cell_length_c 22.089474
_cell_angle_alpha 90.000000
_cell_angle_beta 90.000000
_cell_angle_gamma 90.000000
_cell_volume 3040.859339
_symmetry_space_group_name_H-M "I M M A"
_symmetry_group_IT_number 74
_symmetry_cell_setting 'orthorhombic'
loop_
_space_group_symop_operation_xyz
x,y,z
-x,1/2-y,z
x,-y,-z
-x,1/2+y,-z
-x,-y,-z
x,1/2+y,-z
-x,y,z
x,1/2-y,z
1/2+x,1/2+y,1/2+z
1/2-x,-y,1/2+z
1/2+x,1/2-y,1/2-z
1/2-x,y,1/2-z
1/2-x,1/2-y,1/2-z
1/2+x,y,1/2-z
1/2-x,1/2+y,1/2+z
1/2+x,-y,1/2+z
loop_
_atom_site_type_symbol
_atom_site_label
_atom_site_fract_x
_atom_site_fract_y
_atom_site_fract_z
Si Si1 0.000000 0.841464 0.873294
Si Si2 0.000000 0.907716 0.007984
Si Si3 0.194862 0.106673 0.598490
Si Si4 0.811210 0.974059 0.818836
Si Si5 0.300317 0.750000 0.180857
O O1 0.842362 0.886685 0.842578
O O2 0.000000 0.750000 0.864598
O O3 0.000000 0.864702 0.943800
O O4 0.829881 0.890235 0.044923
O O5 0.000000 0.000000 0.000000
O O6 0.250969 0.173147 0.645422
O O7 0.000000 0.119346 0.580138
O O8 0.206495 0.025592 0.634720
O O9 0.750000 0.975920 0.750000
O O10 0.000000 0.008522 0.820577
O O11 0.500000 0.750000 0.179561
O O12 0.250000 0.750000 0.250000
#
# Coordination Sequence:
#
# PCOD9538646 Si02
#       5
#     8   8  16  16   8
#     4  10  24  42  64  95 129 171 215 274 321 376
#     4  12  22  46  64  94 128 169 226 255 318 392
#     4  11  23  40  64  95 131 171 216 263 315 382
#     4  10  20  39  63  91 126 161 217 256 326 387
#     4  10  24  38  58 100 134 170 214 256 318 382
#
# _framework density 18.415845999999998
#
# number of rings (size 3 to 8) (size 9 to 14) (size 15 to 20)
#    0.857    0.571    4.286    1.714    4.000    3.429 
#    0.000    0.000    0.000    3.429    0.000    0.000 
#    0.000    0.000    0.000    0.000    0.000    0.000 
#
# Total GULP energy -156077.551635 kJ/mol
# GULP energy per Si atom -5574.198273 kJ/mol
# Density = 1.837393 g / cm^3
# Si number density = 18.415846 Si / 1000 Ang^3
#
#
#
# Elastic Constant Matrix: (Units=GPa)
#
#
# Indices 1 2 3 4 5 6 
#
# 1 85.2804 0.8301 28.5212 0.0000 0.0000 0.0000
# 2 0.8301 84.9630 -12.1830 0.0000 0.0000 0.0000
# 3 28.5212 -12.1830 65.2582 0.0000 0.0000 0.0000
# 4 0.0000 0.0000 0.0000 26.5845 0.0000 0.0000
# 5 0.0000 0.0000 0.0000 0.0000 32.6647 0.0000
# 6 0.0000 0.0000 0.0000 0.0000 0.0000 23.8810
#
#
#
# Elastic Compliance Matrix: (Units=1/GPa)
#
#
# Indices 1 2 3 4 5 6 
#
# 1 0.013820 -0.001029 -0.006232 0.000000 0.000000 0.000000
# 2 -0.001029 0.012170 0.002722 0.000000 0.000000 0.000000
# 3 -0.006232 0.002722 0.018556 0.000000 0.000000 0.000000
# 4 0.000000 0.000000 0.000000 0.037616 0.000000 0.000000
# 5 0.000000 0.000000 0.000000 0.000000 0.030614 0.000000
# 6 0.000000 0.000000 0.000000 0.000000 0.000000 0.041874
#
#
# Mechanical properties :
#
#
# Convention : Reuss Voigt Hill
#
# Bulk Modulus (GPa) = 28.19482 29.98204 29.08843
# Shear Modulus (GPa) = 28.48165 31.18159 29.83162
#
# Velocity S-wave (km/s) = 3.93693 4.11931 4.02915
# Velocity P-wave (km/s) = 6.00077 6.24026 6.12168
#
# Compressibility (1/GPa) = 0.03546750
#
# Stress axis : x y z
#
# Youngs Moduli (GPa) = 72.35702 82.16835 53.89194
#
# Poissons Ratio (x) = 0.08453 0.33587
# Poissons Ratio (y) = 0.07443 -0.14667
# Poissons Ratio (z) = 0.45095 -0.22363
#
# Static dielectric constant tensor:
#      x y z
#    x 1.617420 0.000000 0.000000 
#    y 0.000000 1.638760 0.000000 
#    z 0.000000 0.000000 1.551670 
# 
# From -- ./inp_files/38893.got.cif
#   From: 2010.05.17/outbox.cif.g08.bks.cpg/sg74_20_cif.got.tgz:38893.got - 2010.06.03 17:57:02.
