data_PCOD9538878
_publ_section_title
;
Structure prediction by ZEFSAII (Michael W. Deem and Ramdas Pophale) SiO2 
 PCOD9538878
Probable space group: I M M A
;
_chemical_formula_sum "Si O2"
_cell_formula_units_Z 96
_cell_length_a 23.849113
_cell_length_b 14.526201
_cell_length_c 14.746332
_cell_angle_alpha 90.000000
_cell_angle_beta 90.000000
_cell_angle_gamma 90.000000
_cell_volume 5108.675153
_symmetry_space_group_name_H-M "I M M A"
_symmetry_group_IT_number 74
_symmetry_cell_setting 'orthorhombic'
loop_
_space_group_symop_operation_xyz
x,y,z
-x,1/2-y,z
x,-y,-z
-x,1/2+y,-z
-x,-y,-z
x,1/2+y,-z
-x,y,z
x,1/2-y,z
1/2+x,1/2+y,1/2+z
1/2-x,-y,1/2+z
1/2+x,1/2-y,1/2-z
1/2-x,y,1/2-z
1/2-x,1/2-y,1/2-z
1/2+x,y,1/2-z
1/2-x,1/2+y,1/2+z
1/2+x,-y,1/2+z
loop_
_atom_site_type_symbol
_atom_site_label
_atom_site_fract_x
_atom_site_fract_y
_atom_site_fract_z
Si Si1 0.321883 0.750000 0.634366
Si Si2 0.743217 0.750000 0.020452
Si Si3 0.655314 0.544439 0.596626
Si Si4 0.936729 0.451930 0.242248
Si Si5 0.602930 0.250000 0.203879
Si Si6 0.242827 0.921092 0.354671
Si Si7 0.112611 0.557565 0.408233
Si Si8 0.109609 0.250000 0.513436
O O1 0.261851 0.750000 0.584331
O O2 0.347071 0.845001 0.596599
O O3 0.336688 0.750000 0.741870
O O4 0.761753 0.659218 0.075836
O O5 0.676657 0.750000 0.024100
O O6 0.643841 0.500000 0.500000
O O7 0.609193 0.515198 0.669854
O O8 0.716940 0.508649 0.627551
O O9 0.926203 0.343928 0.263437
O O10 0.924661 0.507629 0.333816
O O11 0.000000 0.465171 0.210587
O O12 0.601187 0.250000 0.094857
O O13 0.250000 0.892480 0.250000
O O14 0.177243 0.939566 0.373172
O O15 0.113794 0.500000 0.500000
O O16 0.090473 0.658055 0.436015
#
# Coordination Sequence:
#
# PCOD9538878 Si02
#       8
#     8   8  16  16   8  16  16   8
#     4  10  22  35  56  91 120 157 194 253 304 361
#     4  10  21  35  58  91 123 158 202 236 297 374
#     4  11  22  41  63  89 124 159 202 253 306 368
#     4  11  24  42  64  89 118 159 209 256 302 357
#     4  10  21  41  60  86 120 156 201 253 311 357
#     4  11  21  37  61  90 122 164 195 244 303 362
#     4  11  22  39  60  88 124 158 201 245 300 367
#     4  10  22  37  58  90 127 160 197 250 299 364
#
# _framework density 18.791564000000001
#
# number of rings (size 3 to 8) (size 9 to 14) (size 15 to 20)
#    0.000    1.333    5.000    1.000    2.333    1.000 
#    0.000    1.250    0.000    0.000    0.000    0.000 
#    0.000    0.000    0.000    0.000    0.000    0.000 
#
# Total GULP energy -267778.032727 kJ/mol
# GULP energy per Si atom -5578.709015 kJ/mol
# Density = 1.874879 g / cm^3
# Si number density = 18.791564 Si / 1000 Ang^3
#
#
#
# Elastic Constant Matrix: (Units=GPa)
#
#
# Indices 1 2 3 4 5 6 
#
# 1 26.9777 18.4944 6.4336 0.0000 0.0000 0.0000
# 2 18.4944 78.8098 -0.5567 0.0000 0.0000 0.0000
# 3 6.4336 -0.5567 58.0789 0.0000 0.0000 0.0000
# 4 0.0000 0.0000 0.0000 24.2304 0.0000 0.0000
# 5 0.0000 0.0000 0.0000 0.0000 -1.8932 0.0000
# 6 0.0000 0.0000 0.0000 0.0000 0.0000 7.3647
#
#
#
# Elastic Compliance Matrix: (Units=1/GPa)
#
#
# Indices 1 2 3 4 5 6 
#
# 1 0.045671 -0.010754 -0.005162 0.000000 0.000000 0.000000
# 2 -0.010754 0.015222 0.001337 0.000000 0.000000 0.000000
# 3 -0.005162 0.001337 0.017803 0.000000 0.000000 0.000000
# 4 0.000000 0.000000 0.000000 0.041271 0.000000 0.000000
# 5 0.000000 0.000000 0.000000 0.000000 -0.528204 0.000000
# 6 0.000000 0.000000 0.000000 0.000000 0.000000 0.135782
#
#
# Mechanical properties :
#
#
# Convention : Reuss Voigt Hill
#
# Bulk Modulus (GPa) = 20.18683 23.62322 21.90503
# Shear Modulus (GPa) = -22.04736 15.24006 -3.40365
#
# Velocity S-wave (km/s) = -3.42900 2.85090 -1.34729
# Velocity P-wave (km/s) = 2.21621 4.84101 3.04333
#
# Compressibility (1/GPa) = 0.04953726
#
# Stress axis : x y z
#
# Youngs Moduli (GPa) = 21.89569 65.69484 56.17156
#
# Poissons Ratio (x) = 0.70649 0.28997
# Poissons Ratio (y) = 0.23547 -0.07511
# Poissons Ratio (z) = 0.11303 -0.08784
#
# Static dielectric constant tensor:
#      x y z
#    x 1.647540 0.000000 0.000000 
#    y 0.000000 1.773620 0.000000 
#    z 0.000000 0.000000 1.640100 
# 
# From -- ./inp_files/32474.got.cif
#   From: 2010.05.17/outbox.cif.g08.bks.cpg/sg74_17_cif.got.tgz:32474.got - 2010.06.03 17:57:02.
