data_PCOD9538103
_publ_section_title
;
Structure prediction by ZEFSAII (Michael W. Deem and Ramdas Pophale) SiO2 
 PCOD9538103
Probable space group: I M M A
;
_chemical_formula_sum "Si O2"
_cell_formula_units_Z 96
_cell_length_a 24.259238
_cell_length_b 19.101094
_cell_length_c 12.112329
_cell_angle_alpha 90.000000
_cell_angle_beta 90.000000
_cell_angle_gamma 90.000000
_cell_volume 5612.586611
_symmetry_space_group_name_H-M "I M M A"
_symmetry_group_IT_number 74
_symmetry_cell_setting 'orthorhombic'
loop_
_space_group_symop_operation_xyz
x,y,z
-x,1/2-y,z
x,-y,-z
-x,1/2+y,-z
-x,-y,-z
x,1/2+y,-z
-x,y,z
x,1/2-y,z
1/2+x,1/2+y,1/2+z
1/2-x,-y,1/2+z
1/2+x,1/2-y,1/2-z
1/2-x,y,1/2-z
1/2-x,1/2-y,1/2-z
1/2+x,y,1/2-z
1/2-x,1/2+y,1/2+z
1/2+x,-y,1/2+z
loop_
_atom_site_type_symbol
_atom_site_label
_atom_site_fract_x
_atom_site_fract_y
_atom_site_fract_z
Si Si1 0.284171 0.095131 0.418259
Si Si2 0.000000 0.664927 0.744035
Si Si3 0.000000 0.014674 0.369646
Si Si4 0.381051 0.954742 0.155536
Si Si5 0.843084 0.394925 0.430659
Si Si6 0.379609 0.169909 0.282614
Si Si7 0.796973 0.564152 0.163103
O O1 0.221398 0.122544 0.417041
O O2 0.331200 0.128448 0.342730
O O3 0.300335 0.102423 0.546485
O O4 0.282225 0.014936 0.375511
O O5 0.000000 0.598089 0.658598
O O6 0.943159 0.653942 0.810894
O O7 0.000000 0.750000 0.710318
O O8 0.055649 0.976717 0.329722
O O9 0.000000 0.000000 0.500000
O O10 0.353186 0.932699 0.268963
O O11 0.351566 0.026975 0.117988
O O12 0.366678 0.901467 0.055058
O O13 0.875868 0.344697 0.348706
O O14 0.369114 0.250000 0.306283
O O15 0.750000 0.587230 0.250000
#
# Coordination Sequence:
#
# PCOD9538103 Si02
#       7
#    16   8   8  16  16  16  16
#     4  11  20  30  52  78 104 138 176 216 267 324
#     4  10  20  36  53  73 107 151 187 225 273 328
#     4  12  18  30  53  79 113 141 179 232 274 327
#     4  11  19  30  50  79 107 137 172 213 277 324
#     4  11  18  30  51  76 107 135 168 215 269 329
#     4  11  22  36  53  76 107 142 184 225 265 320
#     4  11  17  31  50  74 104 136 169 213 265 325
#
# _framework density 17.104413999999998
#
# number of rings (size 3 to 8) (size 9 to 14) (size 15 to 20)
#    0.000    1.000    8.333    1.500    0.000    1.333 
#    0.000    0.833    0.000    4.500    0.000    0.000 
#    0.000    4.000    0.000    0.000    0.000    0.000 
#
# Total GULP energy -267252.725781 kJ/mol
# GULP energy per Si atom -5567.765120 kJ/mol
# Density = 1.706548 g / cm^3
# Si number density = 17.104414 Si / 1000 Ang^3
#
#
#
# Elastic Constant Matrix: (Units=GPa)
#
#
# Indices 1 2 3 4 5 6 
#
# 1 152.7406 17.6930 37.0707 0.0000 0.0000 0.0000
# 2 17.6930 18.9172 -2.8728 0.0000 0.0000 0.0000
# 3 37.0707 -2.8728 83.3185 0.0000 0.0000 0.0000
# 4 0.0000 0.0000 0.0000 10.1287 0.0000 0.0000
# 5 0.0000 0.0000 0.0000 0.0000 23.8066 0.0000
# 6 0.0000 0.0000 0.0000 0.0000 0.0000 7.1256
#
#
#
# Elastic Compliance Matrix: (Units=1/GPa)
#
#
# Indices 1 2 3 4 5 6 
#
# 1 0.008538 -0.008608 -0.004096 0.000000 0.000000 0.000000
# 2 -0.008608 0.061818 0.005961 0.000000 0.000000 0.000000
# 3 -0.004096 0.005961 0.014030 0.000000 0.000000 0.000000
# 4 0.000000 0.000000 0.000000 0.098729 0.000000 0.000000
# 5 0.000000 0.000000 0.000000 0.000000 0.042005 0.000000
# 6 0.000000 0.000000 0.000000 0.000000 0.000000 0.140339
#
#
# Mechanical properties :
#
#
# Convention : Reuss Voigt Hill
#
# Bulk Modulus (GPa) = 14.10400 39.86199 26.98299
# Shear Modulus (GPa) = 12.41999 21.75123 17.08561
#
# Velocity S-wave (km/s) = 2.69760 3.56992 3.16397
# Velocity P-wave (km/s) = 4.23868 6.35202 5.39975
#
# Compressibility (1/GPa) = 0.07090189
#
# Stress axis : x y z
#
# Youngs Moduli (GPa) = 117.12134 16.17657 71.27611
#
# Poissons Ratio (x) = 0.13924 0.29192
# Poissons Ratio (y) = 1.00813 -0.42489
# Poissons Ratio (z) = 0.47969 -0.09643
#
# Static dielectric constant tensor:
#      x y z
#    x 1.751150 0.000000 0.000000 
#    y 0.000000 1.589320 0.000000 
#    z 0.000000 0.000000 1.591860 
# 
# From -- ./inp_files/25322.got.cif
#   From: 2010.05.17/outbox.cif.g08.bks.cpg/sg74_13_cif.got.tgz:25322.got - 2010.06.03 17:57:02.
