data_PCOD9538061
_publ_section_title
;
Structure prediction by ZEFSAII (Michael W. Deem and Ramdas Pophale) SiO2 
 PCOD9538061
Probable space group: I M M A
;
_chemical_formula_sum "Si O2"
_cell_formula_units_Z 112
_cell_length_a 26.143544
_cell_length_b 14.380954
_cell_length_c 14.823335
_cell_angle_alpha 90.000000
_cell_angle_beta 90.000000
_cell_angle_gamma 90.000000
_cell_volume 5573.115973
_symmetry_space_group_name_H-M "I M M A"
_symmetry_group_IT_number 74
_symmetry_cell_setting 'orthorhombic'
loop_
_space_group_symop_operation_xyz
x,y,z
-x,1/2-y,z
x,-y,-z
-x,1/2+y,-z
-x,-y,-z
x,1/2+y,-z
-x,y,z
x,1/2-y,z
1/2+x,1/2+y,1/2+z
1/2-x,-y,1/2+z
1/2+x,1/2-y,1/2-z
1/2-x,y,1/2-z
1/2-x,1/2-y,1/2-z
1/2+x,y,1/2-z
1/2-x,1/2+y,1/2+z
1/2+x,-y,1/2+z
loop_
_atom_site_type_symbol
_atom_site_label
_atom_site_fract_x
_atom_site_fract_y
_atom_site_fract_z
Si Si1 0.841298 0.948354 0.094498
Si Si2 0.561815 0.644661 0.680062
Si Si3 0.839221 0.139195 0.444102
Si Si4 0.269292 0.140915 0.885321
Si Si5 0.194081 0.973522 0.728387
Si Si6 0.441227 0.137567 0.522550
Si Si7 0.942951 0.863176 0.618089
O O1 0.790584 0.884044 0.104956
O O2 0.837953 0.017071 0.180311
O O3 0.895620 0.896076 0.086922
O O4 0.833536 0.000000 0.000000
O O5 0.500000 0.652281 0.678789
O O6 0.583903 0.750000 0.680240
O O7 0.572316 0.604586 0.580082
O O8 0.571352 0.603780 0.779889
O O9 0.835612 0.250000 0.432074
O O10 0.800495 0.115601 0.523824
O O11 0.899283 0.115189 0.454679
O O12 0.825459 0.087717 0.352788
O O13 0.275404 0.250000 0.867572
O O14 0.295443 0.077083 0.809855
O O15 0.250000 0.934298 0.750000
O O16 0.500000 0.108316 0.544349
O O17 0.441538 0.250000 0.520419
O O18 0.944913 0.750000 0.624902
O O19 0.000000 0.895689 0.595915
#
# Coordination Sequence:
#
# PCOD9538061 Si02
#       7
#    16  16  16  16  16  16  16
#     4  11  23  36  54  82 116 152 189 236 286 337
#     4   7  11  22  41  66  97 137 180 219 259 312
#     4  10  20  35  59  88 115 146 180 228 291 340
#     4  10  21  40  64  84 105 143 196 244 287 338
#     4  10  22  39  57  80 114 149 185 232 285 341
#     4   9  18  33  53  76 107 150 198 242 282 332
#     4   8  14  26  47  77 111 145 182 220 265 330
#
# _framework density 20.096477
#
# number of rings (size 3 to 8) (size 9 to 14) (size 15 to 20)
#    0.000    2.714    0.000    4.286    2.000    3.714 
#    0.000    1.429    0.000    2.571    0.000    2.000 
#    0.000    0.000    0.000    0.000    0.000    0.000 
#
# Total GULP energy -312072.867157 kJ/mol
# GULP energy per Si atom -5572.729771 kJ/mol
# Density = 2.005074 g / cm^3
# Si number density = 20.096477 Si / 1000 Ang^3
#
#
#
# Elastic Constant Matrix: (Units=GPa)
#
#
# Indices 1 2 3 4 5 6 
#
# 1 127.4302 12.3789 51.8022 0.0000 0.0000 0.0000
# 2 12.3789 28.3034 19.6618 0.0000 0.0000 0.0000
# 3 51.8022 19.6618 90.6175 0.0000 0.0000 0.0000
# 4 0.0000 0.0000 0.0000 0.2363 0.0000 0.0000
# 5 0.0000 0.0000 0.0000 0.0000 29.3241 0.0000
# 6 0.0000 0.0000 0.0000 0.0000 0.0000 -32.5611
#
#
#
# Elastic Compliance Matrix: (Units=1/GPa)
#
#
# Indices 1 2 3 4 5 6 
#
# 1 0.010229 -0.000485 -0.005742 0.000000 0.000000 0.000000
# 2 -0.000485 0.041625 -0.008755 0.000000 0.000000 0.000000
# 3 -0.005742 -0.008755 0.016217 0.000000 0.000000 0.000000
# 4 0.000000 0.000000 0.000000 4.231779 0.000000 0.000000
# 5 0.000000 0.000000 0.000000 0.000000 0.034102 0.000000
# 6 0.000000 0.000000 0.000000 0.000000 0.000000 -0.030711
#
#
# Mechanical properties :
#
#
# Convention : Reuss Voigt Hill
#
# Bulk Modulus (GPa) = 26.24089 46.00408 36.12248
# Shear Modulus (GPa) = 1.15051 10.23375 5.69213
#
# Velocity S-wave (km/s) = 0.75745 2.25906 1.68480
# Velocity P-wave (km/s) = 3.72166 5.45397 4.66886
#
# Compressibility (1/GPa) = 0.03810846
#
# Stress axis : x y z
#
# Youngs Moduli (GPa) = 97.76310 24.02400 61.66187
#
# Poissons Ratio (x) = 0.01164 0.35407
# Poissons Ratio (y) = 0.04739 0.53982
# Poissons Ratio (z) = 0.56138 0.21032
#
# Static dielectric constant tensor:
#      x y z
#    x 1.765030 0.000000 0.000000 
#    y 0.000000 1.742000 0.000000 
#    z 0.000000 0.000000 1.725430 
# 
# From -- ./inp_files/36477.got.cif
#   From: 2010.05.17/outbox.cif.g08.bks.cpg/sg74_19_cif.got.tgz:36477.got - 2010.06.03 17:57:02.
