data_PCOD9538977
_publ_section_title
;
Structure prediction by ZEFSAII (Michael W. Deem and Ramdas Pophale) SiO2 
 PCOD9538977
Probable space group: I M M A
;
_chemical_formula_sum "Si O2"
_cell_formula_units_Z 88
_cell_length_a 18.651457
_cell_length_b 8.114340
_cell_length_c 27.355983
_cell_angle_alpha 90.000000
_cell_angle_beta 90.000000
_cell_angle_gamma 90.000000
_cell_volume 4140.171102
_symmetry_space_group_name_H-M "I M M A"
_symmetry_group_IT_number 74
_symmetry_cell_setting 'orthorhombic'
loop_
_space_group_symop_operation_xyz
x,y,z
-x,1/2-y,z
x,-y,-z
-x,1/2+y,-z
-x,-y,-z
x,1/2+y,-z
-x,y,z
x,1/2-y,z
1/2+x,1/2+y,1/2+z
1/2-x,-y,1/2+z
1/2+x,1/2-y,1/2-z
1/2-x,y,1/2-z
1/2-x,1/2-y,1/2-z
1/2+x,y,1/2-z
1/2-x,1/2+y,1/2+z
1/2+x,-y,1/2+z
loop_
_atom_site_type_symbol
_atom_site_label
_atom_site_fract_x
_atom_site_fract_y
_atom_site_fract_z
Si Si1 0.500000 0.445002 0.942535
Si Si2 0.172188 0.949204 0.269966
Si Si3 0.579348 0.441767 0.428256
Si Si4 0.360094 0.553235 0.879993
Si Si5 0.083579 0.562399 0.178461
Si Si6 0.734546 0.050940 0.448574
O O1 0.500000 0.250000 0.944046
O O2 0.429506 0.498093 0.911264
O O3 0.500000 0.500000 0.000000
O O4 0.171987 0.750000 0.271603
O O5 0.250000 0.002435 0.250000
O O6 0.120371 0.004323 0.226534
O O7 0.146020 0.005624 0.323108
O O8 0.500000 0.515226 0.439390
O O9 0.576362 0.250000 0.442767
O O10 0.590518 0.455283 0.370020
O O11 0.653204 0.517839 0.447614
O O12 0.359878 0.750000 0.882640
O O13 0.286910 0.491439 0.905973
O O14 0.110426 0.750000 0.168104
O O15 0.000000 0.574726 0.188668
O O16 0.729688 0.250000 0.445329
O O17 0.768009 0.000000 0.500000
#
# Coordination Sequence:
#
# PCOD9538977 Si02
#       6
#     8  16  16  16  16  16
#     4  12  26  46  70  94 124 160 206 266 329 388
#     4  10  21  36  56  85 120 159 201 246 299 358
#     4   9  18  34  55  81 114 152 193 237 287 342
#     4  11  24  41  62  90 122 158 206 255 310 375
#     4   9  18  32  51  76 108 145 185 228 275 331
#     4  10  22  38  57  82 113 148 190 242 294 350
#
# _framework density 21.255161000000001
#
# number of rings (size 3 to 8) (size 9 to 14) (size 15 to 20)
#    0.000    2.000    0.000    3.000    1.273    5.091 
#    0.000    0.000    0.000    0.000    0.000    0.000 
#    0.000    0.000    0.000    0.000    0.000    0.000 
#
# Total GULP energy -245407.610322 kJ/mol
# GULP energy per Si atom -5577.445689 kJ/mol
# Density = 2.120678 g / cm^3
# Si number density = 21.255161 Si / 1000 Ang^3
#
#
#
# Elastic Constant Matrix: (Units=GPa)
#
#
# Indices 1 2 3 4 5 6 
#
# 1 103.2617 14.5181 60.2840 0.0000 0.0000 0.0000
# 2 14.5181 31.0237 0.2269 0.0000 0.0000 0.0000
# 3 60.2840 0.2269 132.5734 0.0000 0.0000 0.0000
# 4 0.0000 0.0000 0.0000 27.1428 0.0000 0.0000
# 5 0.0000 0.0000 0.0000 0.0000 31.3300 0.0000
# 6 0.0000 0.0000 0.0000 0.0000 0.0000 62.9183
#
#
#
# Elastic Compliance Matrix: (Units=1/GPa)
#
#
# Indices 1 2 3 4 5 6 
#
# 1 0.014461 -0.006719 -0.006564 0.000000 0.000000 0.000000
# 2 -0.006719 0.035356 0.002995 0.000000 0.000000 0.000000
# 3 -0.006564 0.002995 0.010523 0.000000 0.000000 0.000000
# 4 0.000000 0.000000 0.000000 0.036842 0.000000 0.000000
# 5 0.000000 0.000000 0.000000 0.000000 0.031918 0.000000
# 6 0.000000 0.000000 0.000000 0.000000 0.000000 0.015894
#
#
# Mechanical properties :
#
#
# Convention : Reuss Voigt Hill
#
# Bulk Modulus (GPa) = 25.14939 46.32408 35.73673
# Shear Modulus (GPa) = 27.96028 37.06687 32.51357
#
# Velocity S-wave (km/s) = 3.63086 4.18053 3.91535
# Velocity P-wave (km/s) = 5.42543 6.71893 6.10653
#
# Compressibility (1/GPa) = 0.03976240
#
# Stress axis : x y z
#
# Youngs Moduli (GPa) = 69.15144 28.28386 95.03206
#
# Poissons Ratio (x) = 0.19005 0.62381
# Poissons Ratio (y) = 0.46465 -0.28461
# Poissons Ratio (z) = 0.45393 -0.08471
#
# Static dielectric constant tensor:
#      x y z
#    x 1.836490 0.000000 0.000000 
#    y 0.000000 1.766990 0.000000 
#    z 0.000000 0.000000 1.356230 
# 
# From -- ./inp_files/72948.got.cif
#   From: 2010.05.17/outbox.cif.g08.bks.cpg/sg74_37_cif.got.tgz:72948.got - 2010.06.03 17:57:02.
