data_PCOD9538228
_publ_section_title
;
Structure prediction by ZEFSAII (Michael W. Deem and Ramdas Pophale) SiO2 
 PCOD9538228
Probable space group: I M M A
;
_chemical_formula_sum "Si O2"
_cell_formula_units_Z 100
_cell_length_a 26.736975
_cell_length_b 8.859155
_cell_length_c 23.967828
_cell_angle_alpha 90.000000
_cell_angle_beta 90.000000
_cell_angle_gamma 90.000000
_cell_volume 5677.187653
_symmetry_space_group_name_H-M "I M M A"
_symmetry_group_IT_number 74
_symmetry_cell_setting 'orthorhombic'
loop_
_space_group_symop_operation_xyz
x,y,z
-x,1/2-y,z
x,-y,-z
-x,1/2+y,-z
-x,-y,-z
x,1/2+y,-z
-x,y,z
x,1/2-y,z
1/2+x,1/2+y,1/2+z
1/2-x,-y,1/2+z
1/2+x,1/2-y,1/2-z
1/2-x,y,1/2-z
1/2-x,1/2-y,1/2-z
1/2+x,y,1/2-z
1/2-x,1/2+y,1/2+z
1/2+x,-y,1/2+z
loop_
_atom_site_type_symbol
_atom_site_label
_atom_site_fract_x
_atom_site_fract_y
_atom_site_fract_z
Si Si1 0.558283 0.569299 0.061265
Si Si2 0.649191 0.568670 0.873603
Si Si3 0.252196 0.569160 0.939826
Si Si4 0.000000 0.750000 0.052627
Si Si5 0.308249 0.069516 0.759752
Si Si6 0.163854 0.070214 0.145346
Si Si7 0.896807 0.584041 0.056160
O O1 0.500000 0.535569 0.074803
O O2 0.563996 0.750000 0.058752
O O3 0.597264 0.500874 0.105160
O O4 0.568421 0.500000 0.000000
O O5 0.645693 0.750000 0.871415
O O6 0.692780 0.526992 0.917780
O O7 0.668045 0.507084 0.814135
O O8 0.249879 0.750000 0.944459
O O9 0.211925 0.525763 0.892516
O O10 0.241930 0.500000 0.000000
O O11 0.044656 0.878365 0.053334
O O12 0.310901 0.250000 0.765583
O O13 0.250000 0.026575 0.750000
O O14 0.335401 0.013714 0.703979
O O15 0.165065 0.250000 0.153591
O O16 0.117292 0.017919 0.108337
O O17 0.871706 0.750000 0.060616
O O18 0.880998 0.500000 0.000000
#
# Coordination Sequence:
#
# PCOD9538228 Si02
#       7
#    16  16  16   4  16  16  16
#     4  10  21  38  61  90 123 158 200 248 299 353
#     4  11  22  38  60  86 118 158 200 244 294 352
#     4  10  22  35  52  81 119 153 185 230 288 346
#     4   8  22  36  62  84 120 152 192 248 298 354
#     4  11  23  39  61  87 115 157 202 242 290 353
#     4  11  22  38  58  84 118 156 196 242 292 352
#     4  10  20  36  58  87 116 151 194 239 299 352
#
# _framework density 17.614355
#
# number of rings (size 3 to 8) (size 9 to 14) (size 15 to 20)
#    0.480    1.120    1.600    3.600    0.000    6.720 
#    0.000    0.000    1.760    0.000    0.000    0.000 
#    0.000    0.000    0.000    0.000    0.000    0.000 
#
# Total GULP energy -278571.306011 kJ/mol
# GULP energy per Si atom -5571.426120 kJ/mol
# Density = 1.757426 g / cm^3
# Si number density = 17.614355 Si / 1000 Ang^3
#
#
#
# Elastic Constant Matrix: (Units=GPa)
#
#
# Indices 1 2 3 4 5 6 
#
# 1 90.5172 42.2968 56.7905 0.0000 0.0000 0.0000
# 2 42.2968 52.7383 32.2023 0.0000 0.0000 0.0000
# 3 56.7905 32.2023 115.2220 0.0000 0.0000 0.0000
# 4 0.0000 0.0000 0.0000 35.1385 0.0000 0.0000
# 5 0.0000 0.0000 0.0000 0.0000 18.6227 0.0000
# 6 0.0000 0.0000 0.0000 0.0000 0.0000 65.6574
#
#
#
# Elastic Compliance Matrix: (Units=1/GPa)
#
#
# Indices 1 2 3 4 5 6 
#
# 1 0.021477 -0.012976 -0.006959 0.000000 0.000000 0.000000
# 2 -0.012976 0.030703 -0.002185 0.000000 0.000000 0.000000
# 3 -0.006959 -0.002185 0.012720 0.000000 0.000000 0.000000
# 4 0.000000 0.000000 0.000000 0.028459 0.000000 0.000000
# 5 0.000000 0.000000 0.000000 0.000000 0.053698 0.000000
# 6 0.000000 0.000000 0.000000 0.000000 0.000000 0.015231
#
#
# Mechanical properties :
#
#
# Convention : Reuss Voigt Hill
#
# Bulk Modulus (GPa) = 48.40492 57.89522 53.15007
# Shear Modulus (GPa) = 23.42876 32.36292 27.89584
#
# Velocity S-wave (km/s) = 3.65100 4.29103 3.98389
# Velocity P-wave (km/s) = 6.73150 7.58222 7.16949
#
# Compressibility (1/GPa) = 0.02065906
#
# Stress axis : x y z
#
# Youngs Moduli (GPa) = 46.56143 32.57057 78.61827
#
# Poissons Ratio (x) = 0.42262 0.54712
# Poissons Ratio (y) = 0.60416 0.17181
# Poissons Ratio (z) = 0.32403 0.07118
#
# Static dielectric constant tensor:
#      x y z
#    x 1.611240 0.000000 0.000000 
#    y 0.000000 1.605770 0.000000 
#    z 0.000000 0.000000 1.574120 
# 
# From -- ./inp_files/55658.got.cif
#   From: 2010.05.17/outbox.cif.g08.bks.cpg/sg74_28_cif.got.tgz:55658.got - 2010.06.03 17:57:02.
