data_PCOD9538994
_publ_section_title
;
Structure prediction by ZEFSAII (Michael W. Deem and Ramdas Pophale) SiO2 
 PCOD9538994
Probable space group: I M M A
;
_chemical_formula_sum "Si O2"
_cell_formula_units_Z 68
_cell_length_a 17.295678
_cell_length_b 7.869608
_cell_length_c 23.284365
_cell_angle_alpha 90.000000
_cell_angle_beta 90.000000
_cell_angle_gamma 90.000000
_cell_volume 3169.239716
_symmetry_space_group_name_H-M "I M M A"
_symmetry_group_IT_number 74
_symmetry_cell_setting 'orthorhombic'
loop_
_space_group_symop_operation_xyz
x,y,z
-x,1/2-y,z
x,-y,-z
-x,1/2+y,-z
-x,-y,-z
x,1/2+y,-z
-x,y,z
x,1/2-y,z
1/2+x,1/2+y,1/2+z
1/2-x,-y,1/2+z
1/2+x,1/2-y,1/2-z
1/2-x,y,1/2-z
1/2-x,1/2-y,1/2-z
1/2+x,y,1/2-z
1/2-x,1/2+y,1/2+z
1/2+x,-y,1/2+z
loop_
_atom_site_type_symbol
_atom_site_label
_atom_site_fract_x
_atom_site_fract_y
_atom_site_fract_z
Si Si1 0.500000 0.500000 0.000000
Si Si2 0.910362 0.547927 0.704326
Si Si3 0.411120 0.044941 0.669753
Si Si4 0.188257 0.454573 0.938001
Si Si5 0.639635 0.050213 0.918208
O O1 0.431778 0.532458 0.951430
O O2 0.909089 0.750000 0.696845
O O3 0.879709 0.505498 0.767685
O O4 0.868468 0.466897 0.650185
O O5 0.000000 0.488873 0.703191
O O6 0.500000 0.983645 0.665623
O O7 0.412668 0.250000 0.667623
O O8 0.360883 0.982999 0.616156
O O9 0.192278 0.250000 0.933660
O O10 0.276526 0.518701 0.935259
O O11 0.154376 0.500000 0.000000
O O12 0.633130 0.250000 0.933253
#
# Coordination Sequence:
#
# PCOD9538994 Si02
#       5
#     4  16  16  16  16
#     4  12  22  36  60  86 112 156 194 226 266 328
#     4  10  21  36  57  85 115 147 188 236 280 327
#     4   9  19  38  62  83 109 147 189 229 278 339
#     4  10  22  39  57  83 115 147 185 233 283 333
#     4  11  23  38  58  83 115 153 190 229 277 333
#
# _framework density 21.456249
#
# number of rings (size 3 to 8) (size 9 to 14) (size 15 to 20)
#    0.000    1.882    2.353    1.059    0.000    6.118 
#    0.000    4.706    0.000    0.000    0.000    0.000 
#    0.000    0.000    0.000    0.000    0.000    0.000 
#
# Total GULP energy -189439.204875 kJ/mol
# GULP energy per Si atom -5571.741320 kJ/mol
# Density = 2.140741 g / cm^3
# Si number density = 21.456249 Si / 1000 Ang^3
#
#
#
# Elastic Constant Matrix: (Units=GPa)
#
#
# Indices 1 2 3 4 5 6 
#
# 1 68.5173 7.1634 58.7882 0.0000 0.0000 0.0000
# 2 7.1634 28.9471 -1.8720 0.0000 0.0000 0.0000
# 3 58.7882 -1.8720 191.2341 0.0000 0.0000 0.0000
# 4 0.0000 0.0000 0.0000 18.8737 0.0000 0.0000
# 5 0.0000 0.0000 0.0000 0.0000 49.7911 0.0000
# 6 0.0000 0.0000 0.0000 0.0000 0.0000 -9.9775
#
#
#
# Elastic Compliance Matrix: (Units=1/GPa)
#
#
# Indices 1 2 3 4 5 6 
#
# 1 0.020672 -0.005530 -0.006409 0.000000 0.000000 0.000000
# 2 -0.005530 0.036047 0.002053 0.000000 0.000000 0.000000
# 3 -0.006409 0.002053 0.007220 0.000000 0.000000 0.000000
# 4 0.000000 0.000000 0.000000 0.052984 0.000000 0.000000
# 5 0.000000 0.000000 0.000000 0.000000 0.020084 0.000000
# 6 0.000000 0.000000 0.000000 0.000000 0.000000 -0.100226
#
#
# Mechanical properties :
#
#
# Convention : Reuss Voigt Hill
#
# Bulk Modulus (GPa) = 22.64177 46.31752 34.47965
# Shear Modulus (GPa) = 70.15079 26.71205 48.43142
#
# Velocity S-wave (km/s) = 5.72414 3.53222 4.75617
# Velocity P-wave (km/s) = 7.36635 6.18621 6.80193
#
# Compressibility (1/GPa) = 0.04416616
#
# Stress axis : x y z
#
# Youngs Moduli (GPa) = 48.37463 27.74155 138.51343
#
# Poissons Ratio (x) = 0.15341 0.88773
# Poissons Ratio (y) = 0.26751 -0.28435
# Poissons Ratio (z) = 0.31003 -0.05695
#
# Static dielectric constant tensor:
#      x y z
#    x 1.772190 0.000000 0.000000 
#    y 0.000000 1.806050 0.000000 
#    z 0.000000 0.000000 1.771980 
# 
# From -- ./inp_files/48108.got.cif
#   From: 2010.05.17/outbox.cif.g08.bks.cpg/sg74_25_cif.got.tgz:48108.got - 2010.06.03 17:57:02.
