data_PCOD9538465
_publ_section_title
;
Structure prediction by ZEFSAII (Michael W. Deem and Ramdas Pophale) SiO2 
 PCOD9538465
Probable space group: I M M A
;
_chemical_formula_sum "Si O2"
_cell_formula_units_Z 48
_cell_length_a 16.621864
_cell_length_b 14.548025
_cell_length_c 8.533855
_cell_angle_alpha 90.000000
_cell_angle_beta 90.000000
_cell_angle_gamma 90.000000
_cell_volume 2063.616647
_symmetry_space_group_name_H-M "I M M A"
_symmetry_group_IT_number 74
_symmetry_cell_setting 'orthorhombic'
loop_
_space_group_symop_operation_xyz
x,y,z
-x,1/2-y,z
x,-y,-z
-x,1/2+y,-z
-x,-y,-z
x,1/2+y,-z
-x,y,z
x,1/2-y,z
1/2+x,1/2+y,1/2+z
1/2-x,-y,1/2+z
1/2+x,1/2-y,1/2-z
1/2-x,y,1/2-z
1/2-x,1/2-y,1/2-z
1/2+x,y,1/2-z
1/2-x,1/2+y,1/2+z
1/2+x,-y,1/2+z
loop_
_atom_site_type_symbol
_atom_site_label
_atom_site_fract_x
_atom_site_fract_y
_atom_site_fract_z
Si Si1 0.098057 0.750000 0.929596
Si Si2 0.599753 0.250000 0.061132
Si Si3 0.412569 0.079453 0.624457
Si Si4 0.691248 0.581744 0.108315
O O1 0.119218 0.750000 0.746967
O O2 0.127852 0.837581 0.027911
O O3 0.000000 0.750000 0.926923
O O4 0.500000 0.250000 0.041409
O O5 0.645385 0.337460 0.983212
O O6 0.500000 0.116668 0.670218
O O7 0.376497 0.037254 0.780815
O O8 0.419643 0.000000 0.500000
O O9 0.750000 0.614035 0.250000
O O10 0.725731 0.500000 0.000000
#
# Coordination Sequence:
#
# PCOD9538465 Si02
#       4
#     8   8  16  16
#     4   9  19  37  62  94 127 160 206 267 332 389
#     4  11  24  43  71 104 135 174 227 285 338 397
#     4  10  20  37  62  90 124 168 218 271 326 389
#     4  12  26  44  65  97 139 183 227 276 338 406
#
# _framework density 23.260135999999999
#
# number of rings (size 3 to 8) (size 9 to 14) (size 15 to 20)
#    0.000    1.333    0.000    5.500    0.000    6.667 
#    0.000    2.500    0.000    0.000    0.000    0.000 
#    0.000    0.000    0.000    0.000    0.000    0.000 
#
# Total GULP energy -133709.596829 kJ/mol
# GULP energy per Si atom -5571.233201 kJ/mol
# Density = 2.320720 g / cm^3
# Si number density = 23.260136 Si / 1000 Ang^3
#
#
#
# Elastic Constant Matrix: (Units=GPa)
#
#
# Indices 1 2 3 4 5 6 
#
# 1 66.4083 21.5307 48.4072 0.0000 0.0000 0.0000
# 2 21.5307 115.4999 34.2047 0.0000 0.0000 0.0000
# 3 48.4072 34.2047 133.3614 0.0000 0.0000 0.0000
# 4 0.0000 0.0000 0.0000 47.9066 0.0000 0.0000
# 5 0.0000 0.0000 0.0000 0.0000 46.7709 0.0000
# 6 0.0000 0.0000 0.0000 0.0000 0.0000 7.8358
#
#
#
# Elastic Compliance Matrix: (Units=1/GPa)
#
#
# Indices 1 2 3 4 5 6 
#
# 1 0.020808 -0.001777 -0.007097 0.000000 0.000000 0.000000
# 2 -0.001777 0.009521 -0.001797 0.000000 0.000000 0.000000
# 3 -0.007097 -0.001797 0.010535 0.000000 0.000000 0.000000
# 4 0.000000 0.000000 0.000000 0.020874 0.000000 0.000000
# 5 0.000000 0.000000 0.000000 0.000000 0.021381 0.000000
# 6 0.000000 0.000000 0.000000 0.000000 0.000000 0.127619
#
#
# Mechanical properties :
#
#
# Convention : Reuss Voigt Hill
#
# Bulk Modulus (GPa) = 51.22323 58.17276 54.69800
# Shear Modulus (GPa) = 20.95661 34.57779 27.76720
#
# Velocity S-wave (km/s) = 3.00487 3.85979 3.45884
# Velocity P-wave (km/s) = 5.84026 6.70283 6.28636
#
# Compressibility (1/GPa) = 0.01952239
#
# Stress axis : x y z
#
# Youngs Moduli (GPa) = 48.05901 105.02574 94.91843
#
# Poissons Ratio (x) = 0.18664 0.67363
# Poissons Ratio (y) = 0.08541 0.17057
# Poissons Ratio (z) = 0.34107 0.18873
#
# Static dielectric constant tensor:
#      x y z
#    x 2.143680 0.000000 0.000000 
#    y 0.000000 1.768170 0.000000 
#    z 0.000000 0.000000 1.836860 
# 
# From -- ./inp_files/9749.got.cif
#   From: 2010.05.17/outbox.cif.g08.bks.cpg/sg74_5_cif.got.tgz:9749.got - 2010.06.03 17:57:02.
