data_PCOD9538298
_publ_section_title
;
Structure prediction by ZEFSAII (Michael W. Deem and Ramdas Pophale) SiO2 
 PCOD9538298
Probable space group: I M M A
;
_chemical_formula_sum "Si O2"
_cell_formula_units_Z 112
_cell_length_a 16.199958
_cell_length_b 29.320943
_cell_length_c 12.134140
_cell_angle_alpha 90.000000
_cell_angle_beta 90.000000
_cell_angle_gamma 90.000000
_cell_volume 5763.692779
_symmetry_space_group_name_H-M "I M M A"
_symmetry_group_IT_number 74
_symmetry_cell_setting 'orthorhombic'
loop_
_space_group_symop_operation_xyz
x,y,z
-x,1/2-y,z
x,-y,-z
-x,1/2+y,-z
-x,-y,-z
x,1/2+y,-z
-x,y,z
x,1/2-y,z
1/2+x,1/2+y,1/2+z
1/2-x,-y,1/2+z
1/2+x,1/2-y,1/2-z
1/2-x,y,1/2-z
1/2-x,1/2-y,1/2-z
1/2+x,y,1/2-z
1/2-x,1/2+y,1/2+z
1/2+x,-y,1/2+z
loop_
_atom_site_type_symbol
_atom_site_label
_atom_site_fract_x
_atom_site_fract_y
_atom_site_fract_z
Si Si1 0.599490 0.554210 0.567512
Si Si2 0.832679 0.533692 0.171832
Si Si3 0.869640 0.800319 0.063994
Si Si4 0.591070 0.871893 0.260927
Si Si5 0.903219 0.802704 0.623135
Si Si6 0.098983 0.845065 0.843318
Si Si7 0.179242 0.199688 0.612431
O O1 0.500000 0.550779 0.538200
O O2 0.622261 0.515156 0.657028
O O3 0.659342 0.548317 0.459855
O O4 0.614175 0.603563 0.618758
O O5 0.750000 0.529160 0.250000
O O6 0.880508 0.576402 0.224963
O O7 0.906228 0.750000 0.083345
O O8 0.910418 0.843468 0.124458
O O9 0.777066 0.799160 0.108882
O O10 0.866991 0.810908 0.934896
O O11 0.500000 0.870799 0.212629
O O12 0.649512 0.842083 0.184520
O O13 0.898137 0.750000 0.660173
O O14 0.870908 0.834026 0.721208
O O15 0.854255 0.806850 0.510433
O O16 0.000000 0.812527 0.601491
O O17 0.000000 0.837914 0.841949
O O18 0.149022 0.250000 0.651361
#
# Coordination Sequence:
#
# PCOD9538298 Si02
#       7
#    16  16  16  16  16  16  16
#     4  10  21  42  67  91 123 161 204 256 315 380
#     4  11  22  39  63  91 120 151 197 250 310 373
#     4  11  22  35  54  86 123 155 196 252 305 352
#     4  12  23  37  59  86 117 160 204 247 302 366
#     4   9  18  35  57  81 114 159 207 248 293 360
#     4  10  20  36  60  87 115 152 201 252 302 353
#     4  10  22  38  55  81 122 167 204 245 301 364
#
# _framework density 19.431986999999999
#
# number of rings (size 3 to 8) (size 9 to 14) (size 15 to 20)
#    0.000    1.571    1.429    4.714    0.000    4.857 
#    2.571    2.143    0.000    0.000    0.000   18.000 
#    0.000    0.000    0.000    0.000    0.000    0.000 
#
# Total GULP energy -312173.904915 kJ/mol
# GULP energy per Si atom -5574.534016 kJ/mol
# Density = 1.938776 g / cm^3
# Si number density = 19.431987 Si / 1000 Ang^3
#
#
#
# Elastic Constant Matrix: (Units=GPa)
#
#
# Indices 1 2 3 4 5 6 
#
# 1 76.5173 32.2532 31.4980 0.0000 0.0000 0.0000
# 2 32.2532 93.4734 44.5320 -0.0001 0.0000 0.0001
# 3 31.4980 44.5320 84.2405 -0.0003 0.0002 0.0004
# 4 0.0000 -0.0001 -0.0003 37.1269 0.0001 0.0002
# 5 0.0000 0.0000 0.0002 0.0001 32.6712 -0.0001
# 6 0.0000 0.0001 0.0004 0.0002 -0.0001 22.5248
#
#
#
# Elastic Compliance Matrix: (Units=1/GPa)
#
#
# Indices 1 2 3 4 5 6 
#
# 1 0.016324 -0.003642 -0.004178 0.000000 0.000000 0.000000
# 2 -0.003642 0.015112 -0.006627 0.000000 0.000000 0.000000
# 3 -0.004178 -0.006627 0.016936 0.000000 0.000000 0.000000
# 4 0.000000 0.000000 0.000000 0.026935 0.000000 0.000000
# 5 0.000000 0.000000 0.000000 0.000000 0.030608 0.000000
# 6 0.000000 0.000000 0.000000 0.000000 0.000000 0.044395
#
#
# Mechanical properties :
#
#
# Convention : Reuss Voigt Hill
#
# Bulk Modulus (GPa) = 51.34049 52.31085 51.82567
# Shear Modulus (GPa) = 26.92546 28.19446 27.55996
#
# Velocity S-wave (km/s) = 3.72644 3.81324 3.77009
# Velocity P-wave (km/s) = 6.70769 6.80927 6.75867
#
# Compressibility (1/GPa) = 0.01947780
#
# Stress axis : x y z
#
# Youngs Moduli (GPa) = 61.25898 66.17228 59.04486
#
# Poissons Ratio (x) = 0.24100 0.24671
# Poissons Ratio (y) = 0.22311 0.39128
# Poissons Ratio (z) = 0.25597 0.43852
#
# Static dielectric constant tensor:
#      x y z
#    x 1.693180 0.000000 0.000000 
#    y 0.000000 1.683300 0.000000 
#    z 0.000000 0.000000 1.703930 
# 
# From -- ./inp_files/21152.got.cif
#   From: 2010.05.17/outbox.cif.g08.bks.cpg/sg74_11_cif.got.tgz:21152.got - 2010.06.03 17:57:02.
