data_PCOD9538428
_publ_section_title
;
Structure prediction by ZEFSAII (Michael W. Deem and Ramdas Pophale) SiO2 
 PCOD9538428
Probable space group: I M M A
;
_chemical_formula_sum "Si O2"
_cell_formula_units_Z 104
_cell_length_a 8.694357
_cell_length_b 24.431025
_cell_length_c 25.572538
_cell_angle_alpha 90.000000
_cell_angle_beta 90.000000
_cell_angle_gamma 90.000000
_cell_volume 5431.915303
_symmetry_space_group_name_H-M "I M M A"
_symmetry_group_IT_number 74
_symmetry_cell_setting 'orthorhombic'
loop_
_space_group_symop_operation_xyz
x,y,z
-x,1/2-y,z
x,-y,-z
-x,1/2+y,-z
-x,-y,-z
x,1/2+y,-z
-x,y,z
x,1/2-y,z
1/2+x,1/2+y,1/2+z
1/2-x,-y,1/2+z
1/2+x,1/2-y,1/2-z
1/2-x,y,1/2-z
1/2-x,1/2-y,1/2-z
1/2+x,y,1/2-z
1/2-x,1/2+y,1/2+z
1/2+x,-y,1/2+z
loop_
_atom_site_type_symbol
_atom_site_label
_atom_site_fract_x
_atom_site_fract_y
_atom_site_fract_z
Si Si1 0.315311 0.630078 0.308665
Si Si2 0.816048 0.440378 0.600389
Si Si3 0.812965 0.750000 0.974287
Si Si4 0.184136 0.130717 0.993892
Si Si5 0.314896 0.566914 0.907416
Si Si6 0.683609 0.362216 0.193730
Si Si7 0.685024 0.250000 0.691216
Si Si8 0.315115 0.750000 0.647821
O O1 0.500000 0.627512 0.306856
O O2 0.250000 0.625702 0.250000
O O3 0.250884 0.583663 0.346112
O O4 0.269665 0.690688 0.331001
O O5 0.757698 0.402309 0.553561
O O6 0.769668 0.503334 0.591226
O O7 0.000000 0.438962 0.602568
O O8 0.765994 0.750000 0.913237
O O9 0.000000 0.750000 0.974292
O O10 0.763484 0.693868 0.001663
O O11 0.000000 0.130137 0.988072
O O12 0.231514 0.100920 0.047512
O O13 0.500000 0.570489 0.915688
O O14 0.280028 0.593871 0.851389
O O15 0.500000 0.357148 0.197263
O O16 0.750000 0.377649 0.250000
O O17 0.752671 0.304164 0.175708
O O18 0.500000 0.250000 0.693097
O O19 0.750000 0.250000 0.750000
O O20 0.500000 0.750000 0.649629
#
# Coordination Sequence:
#
# PCOD9538428 Si02
#       8
#    16  16   8  16  16  16   8   8
#     4  10  20  37  60  87 117 152 192 238 293 352
#     4  11  24  41  59  85 120 158 198 244 294 348
#     4   9  20  37  61  91 123 154 189 243 304 355
#     4  11  22  40  64  90 117 151 196 243 296 357
#     4  10  23  42  61  82 116 157 198 246 298 347
#     4  11  23  39  60  89 120 158 202 248 296 356
#     4   8  16  31  54  81 110 143 180 225 277 334
#     4  11  20  38  62  88 121 159 196 244 302 357
#
# _framework density 19.146101999999999
#
# number of rings (size 3 to 8) (size 9 to 14) (size 15 to 20)
#    0.000    1.692    1.538    2.769    0.000    5.538 
#    0.000    6.154    0.000    0.000    0.000    0.000 
#    0.000    0.000    0.000    0.000    0.000    0.000 
#
# Total GULP energy -290507.671908 kJ/mol
# GULP energy per Si atom -5586.685998 kJ/mol
# Density = 1.910252 g / cm^3
# Si number density = 19.146102 Si / 1000 Ang^3
#
#
#
# Elastic Constant Matrix: (Units=GPa)
#
#
# Indices 1 2 3 4 5 6 
#
# 1 47.2027 44.9746 36.6251 0.0000 0.0000 0.0000
# 2 44.9746 159.2542 61.6232 0.0000 0.0000 0.0000
# 3 36.6251 61.6232 98.8963 0.0000 0.0000 0.0000
# 4 0.0000 0.0000 0.0000 -250.9278 0.0000 0.0000
# 5 0.0000 0.0000 0.0000 0.0000 35.4200 0.0000
# 6 0.0000 0.0000 0.0000 0.0000 0.0000 24.5173
#
#
#
# Elastic Compliance Matrix: (Units=1/GPa)
#
#
# Indices 1 2 3 4 5 6 
#
# 1 0.033809 -0.006197 -0.008659 0.000000 0.000000 0.000000
# 2 -0.006197 0.009410 -0.003569 0.000000 0.000000 0.000000
# 3 -0.008659 -0.003569 0.015542 0.000000 0.000000 0.000000
# 4 0.000000 0.000000 0.000000 -0.003985 0.000000 0.000000
# 5 0.000000 0.000000 0.000000 0.000000 0.028233 0.000000
# 6 0.000000 0.000000 0.000000 0.000000 0.000000 0.040788
#
#
# Mechanical properties :
#
#
# Convention : Reuss Voigt Hill
#
# Bulk Modulus (GPa) = 45.63882 65.75546 55.69714
# Shear Modulus (GPa) = 29.77090 -27.38943 1.19073
#
# Velocity S-wave (km/s) = 3.94754 -3.78636 0.78947
# Velocity P-wave (km/s) = 6.68329 3.91193 5.47584
#
# Compressibility (1/GPa) = 0.02191117
#
# Stress axis : x y z
#
# Youngs Moduli (GPa) = 29.57826 106.26712 64.34175
#
# Poissons Ratio (x) = 0.65856 0.55714
# Poissons Ratio (y) = 0.18330 0.22961
# Poissons Ratio (z) = 0.25612 0.37922
#
# Static dielectric constant tensor:
#      x y z
#    x 1.646000 0.000000 0.000000 
#    y 0.000000 1.670020 0.000000 
#    z 0.000000 0.000000 1.638710 
# 
# From -- ./inp_files/64576.got.cif
#   From: 2010.05.17/outbox.cif.g08.bks.cpg/sg74_33_cif.got.tgz:64576.got - 2010.06.03 17:57:02.
