data_PCOD9538714
_publ_section_title
;
Structure prediction by ZEFSAII (Michael W. Deem and Ramdas Pophale) SiO2 
 PCOD9538714
Probable space group: I M M A
;
_chemical_formula_sum "Si O2"
_cell_formula_units_Z 64
_cell_length_a 21.083148
_cell_length_b 18.255767
_cell_length_c 7.585199
_cell_angle_alpha 90.000000
_cell_angle_beta 90.000000
_cell_angle_gamma 90.000000
_cell_volume 2919.459942
_symmetry_space_group_name_H-M "I M M A"
_symmetry_group_IT_number 74
_symmetry_cell_setting 'orthorhombic'
loop_
_space_group_symop_operation_xyz
x,y,z
-x,1/2-y,z
x,-y,-z
-x,1/2+y,-z
-x,-y,-z
x,1/2+y,-z
-x,y,z
x,1/2-y,z
1/2+x,1/2+y,1/2+z
1/2-x,-y,1/2+z
1/2+x,1/2-y,1/2-z
1/2-x,y,1/2-z
1/2-x,1/2-y,1/2-z
1/2+x,y,1/2-z
1/2-x,1/2+y,1/2+z
1/2+x,-y,1/2+z
loop_
_atom_site_type_symbol
_atom_site_label
_atom_site_fract_x
_atom_site_fract_y
_atom_site_fract_z
Si Si1 0.380439 0.402726 0.375027
Si Si2 0.928508 0.448842 0.759086
Si Si3 0.741737 0.164420 0.546596
Si Si4 0.388204 0.167842 0.031072
O O1 0.413044 0.392719 0.895969
O O2 0.382408 0.481462 0.277237
O O3 0.310852 0.380598 0.442749
O O4 0.421412 0.409353 0.552238
O O5 0.907766 0.652693 0.731174
O O6 0.000000 0.476852 0.737322
O O7 0.721120 0.250000 0.549216
O O8 0.750000 0.140480 0.750000
O O9 0.811614 0.161580 0.465643
O O10 0.404740 0.250000 0.972896
#
# Coordination Sequence:
#
# PCOD9538714 Si02
#       4
#    16  16  16  16
#     4  11  22  42  68  98 128 183 225 277 345 416
#     4  11  26  47  65  94 140 185 230 287 340 400
#     4  10  20  40  68  99 138 172 210 275 349 410
#     4  11  24  43  69 102 136 176 224 284 349 413
#
# _framework density 21.921862999999998
#
# number of rings (size 3 to 8) (size 9 to 14) (size 15 to 20)
#    0.000    1.250    2.500    3.750    0.000    6.500 
#   18.000    0.000    0.000    6.750    0.000    0.000 
#    0.000    0.000    0.000    0.000    0.000    0.000 
#
# Total GULP energy -178938.378393 kJ/mol
# GULP energy per Si atom -5591.824325 kJ/mol
# Density = 2.187197 g / cm^3
# Si number density = 21.921863 Si / 1000 Ang^3
#
#
#
# Elastic Constant Matrix: (Units=GPa)
#
#
# Indices 1 2 3 4 5 6 
#
# 1 42.4339 37.2389 12.9595 0.0000 0.0000 0.0000
# 2 37.2389 85.8574 54.8736 0.0000 0.0000 0.0000
# 3 12.9595 54.8736 116.0491 0.0000 0.0000 0.0000
# 4 0.0000 0.0000 0.0000 40.5066 0.0000 0.0000
# 5 0.0000 0.0000 0.0000 0.0000 -35.0121 0.0000
# 6 0.0000 0.0000 0.0000 0.0000 0.0000 -165.0861
#
#
#
# Elastic Compliance Matrix: (Units=1/GPa)
#
#
# Indices 1 2 3 4 5 6 
#
# 1 0.040272 -0.020913 0.005391 0.000000 0.000000 0.000000
# 2 -0.020913 0.027552 -0.010692 0.000000 0.000000 0.000000
# 3 0.005391 -0.010692 0.013071 0.000000 0.000000 0.000000
# 4 0.000000 0.000000 0.000000 0.024687 0.000000 0.000000
# 5 0.000000 0.000000 0.000000 0.000000 -0.028562 0.000000
# 6 0.000000 0.000000 0.000000 0.000000 0.000000 -0.006057
#
#
# Mechanical properties :
#
#
# Convention : Reuss Voigt Hill
#
# Bulk Modulus (GPa) = 35.12873 50.49826 42.81349
# Shear Modulus (GPa) = 37.62802 -22.63376 7.49713
#
# Velocity S-wave (km/s) = 4.14751 -3.21670 1.85131
# Velocity P-wave (km/s) = 6.24461 3.04785 4.91348
#
# Compressibility (1/GPa) = 0.02846673
#
# Stress axis : x y z
#
# Youngs Moduli (GPa) = 24.83099 36.29563 76.50644
#
# Poissons Ratio (x) = 0.75905 -0.41248
# Poissons Ratio (y) = 0.51929 0.81803
# Poissons Ratio (z) = -0.13387 0.38808
#
# Static dielectric constant tensor:
#      x y z
#    x 1.787660 0.000000 0.000000 
#    y 0.000000 1.821070 0.000000 
#    z 0.000000 0.000000 1.821850 
# 
# From -- ./inp_files/11799.got.cif
#   From: 2010.05.17/outbox.cif.g08.bks.cpg/sg74_6_cif.got.tgz:11799.got - 2010.06.03 17:57:02.
