data_PCOD9538560
_publ_section_title
;
Structure prediction by ZEFSAII (Michael W. Deem and Ramdas Pophale) SiO2 
 PCOD9538560
Probable space group: I M M A
;
_chemical_formula_sum "Si O2"
_cell_formula_units_Z 64
_cell_length_a 17.023868
_cell_length_b 23.333412
_cell_length_c 7.827929
_cell_angle_alpha 90.000000
_cell_angle_beta 90.000000
_cell_angle_gamma 90.000000
_cell_volume 3109.448517
_symmetry_space_group_name_H-M "I M M A"
_symmetry_group_IT_number 74
_symmetry_cell_setting 'orthorhombic'
loop_
_space_group_symop_operation_xyz
x,y,z
-x,1/2-y,z
x,-y,-z
-x,1/2+y,-z
-x,-y,-z
x,1/2+y,-z
-x,y,z
x,1/2-y,z
1/2+x,1/2+y,1/2+z
1/2-x,-y,1/2+z
1/2+x,1/2-y,1/2-z
1/2-x,y,1/2-z
1/2-x,1/2-y,1/2-z
1/2+x,y,1/2-z
1/2-x,1/2+y,1/2+z
1/2+x,-y,1/2+z
loop_
_atom_site_type_symbol
_atom_site_label
_atom_site_fract_x
_atom_site_fract_y
_atom_site_fract_z
Si Si1 0.410973 0.183438 0.349546
Si Si2 0.088971 0.467299 0.763492
Si Si3 0.291661 0.884390 0.428368
Si Si4 0.131170 0.914284 0.595065
O O1 0.500000 0.175876 0.417056
O O2 0.400540 0.250000 0.305119
O O3 0.345762 0.163445 0.485092
O O4 0.401099 0.142050 0.186684
O O5 0.150985 0.437070 0.885412
O O6 0.092676 0.431315 0.585848
O O7 0.114879 0.531319 0.715154
O O8 0.000000 0.466436 0.827515
O O9 0.250000 0.866720 0.250000
O O10 0.222437 0.904420 0.553005
#
# Coordination Sequence:
#
# PCOD9538560 Si02
#       4
#    16  16  16  16
#     4  11  24  42  62  84 113 153 201 246 288 342
#     4  10  20  38  62  89 122 155 192 239 293 349
#     4  10  23  38  59  88 121 155 192 238 293 351
#     4  10  21  37  60  91 121 154 194 240 293 346
#
# _framework density 20.582426999999999
#
# number of rings (size 3 to 8) (size 9 to 14) (size 15 to 20)
#    0.000    1.750    0.000    4.500    0.000   15.500 
#    0.000    6.250    0.000   13.500    0.000    0.000 
#    0.000    0.000    0.000    0.000    0.000    0.000 
#
# Total GULP energy -179000.521962 kJ/mol
# GULP energy per Si atom -5593.766311 kJ/mol
# Density = 2.053558 g / cm^3
# Si number density = 20.582427 Si / 1000 Ang^3
#
#
#
# Elastic Constant Matrix: (Units=GPa)
#
#
# Indices 1 2 3 4 5 6 
#
# 1 169.7610 68.8929 35.8771 0.0000 0.0000 0.0000
# 2 68.8929 133.0412 30.4223 0.0000 0.0000 0.0000
# 3 35.8771 30.4223 68.6981 0.0000 0.0000 0.0000
# 4 0.0000 0.0000 0.0000 25.9156 0.0000 0.0000
# 5 0.0000 0.0000 0.0000 0.0000 22.9428 0.0000
# 6 0.0000 0.0000 0.0000 0.0000 0.0000 25.2357
#
#
#
# Elastic Compliance Matrix: (Units=1/GPa)
#
#
# Indices 1 2 3 4 5 6 
#
# 1 0.007841 -0.003476 -0.002556 0.000000 0.000000 0.000000
# 2 -0.003476 0.009904 -0.002571 0.000000 0.000000 0.000000
# 3 -0.002556 -0.002571 0.017030 0.000000 0.000000 0.000000
# 4 0.000000 0.000000 0.000000 0.038587 0.000000 0.000000
# 5 0.000000 0.000000 0.000000 0.000000 0.043587 0.000000
# 6 0.000000 0.000000 0.000000 0.000000 0.000000 0.039626
#
#
# Mechanical properties :
#
#
# Convention : Reuss Voigt Hill
#
# Bulk Modulus (GPa) = 56.91443 71.32056 64.11750
# Shear Modulus (GPa) = 27.83389 30.57269 29.20329
#
# Velocity S-wave (km/s) = 3.68137 3.85824 3.77084
# Velocity P-wave (km/s) = 6.76624 7.38745 7.08366
#
# Compressibility (1/GPa) = 0.01757024
#
# Stress axis : x y z
#
# Youngs Moduli (GPa) = 127.52723 100.96579 58.72139
#
# Poissons Ratio (x) = 0.35097 0.15008
# Poissons Ratio (y) = 0.44330 0.15095
# Poissons Ratio (z) = 0.32593 0.25955
#
# Static dielectric constant tensor:
#      x y z
#    x 1.737170 0.000000 0.000000 
#    y 0.000000 1.679560 0.000000 
#    z 0.000000 0.000000 1.762900 
# 
# From -- ./inp_files/8796.got.cif
#   From: 2010.05.17/outbox.cif.g08.bks.cpg/sg74_5_cif.got.tgz:8796.got - 2010.06.03 17:57:02.
