data_PCOD9538097
_publ_section_title
;
Structure prediction by ZEFSAII (Michael W. Deem and Ramdas Pophale) SiO2 
 PCOD9538097
Probable space group: I M M A
;
_chemical_formula_sum "Si O2"
_cell_formula_units_Z 112
_cell_length_a 16.748777
_cell_length_b 24.798293
_cell_length_c 13.807143
_cell_angle_alpha 90.000000
_cell_angle_beta 90.000000
_cell_angle_gamma 90.000000
_cell_volume 5734.673678
_symmetry_space_group_name_H-M "I M M A"
_symmetry_group_IT_number 74
_symmetry_cell_setting 'orthorhombic'
loop_
_space_group_symop_operation_xyz
x,y,z
-x,1/2-y,z
x,-y,-z
-x,1/2+y,-z
-x,-y,-z
x,1/2+y,-z
-x,y,z
x,1/2-y,z
1/2+x,1/2+y,1/2+z
1/2-x,-y,1/2+z
1/2+x,1/2-y,1/2-z
1/2-x,y,1/2-z
1/2-x,1/2-y,1/2-z
1/2+x,y,1/2-z
1/2-x,1/2+y,1/2+z
1/2+x,-y,1/2+z
loop_
_atom_site_type_symbol
_atom_site_label
_atom_site_fract_x
_atom_site_fract_y
_atom_site_fract_z
Si Si1 0.198065 0.456514 0.930024
Si Si2 0.368895 0.504322 0.888023
Si Si3 0.324236 0.190776 0.823703
Si Si4 0.908744 0.187447 0.132583
Si Si5 0.754160 0.844545 0.978412
Si Si6 0.833700 0.616409 0.699926
Si Si7 0.411174 0.412878 0.742095
O O1 0.275202 0.487222 0.887983
O O2 0.145812 0.431759 0.844857
O O3 0.155795 0.500000 0.000000
O O4 0.230735 0.406866 0.993259
O O5 0.375868 0.564091 0.844862
O O6 0.410200 0.460550 0.820647
O O7 0.394606 0.500000 0.000000
O O8 0.362436 0.250000 0.816534
O O9 0.250000 0.189149 0.750000
O O10 0.379292 0.140995 0.793638
O O11 0.287174 0.182611 0.929992
O O12 0.904457 0.250000 0.163708
O O13 0.840181 0.178881 0.051881
O O14 0.885133 0.147904 0.220543
O O15 0.000000 0.176878 0.100241
O O16 0.695394 0.844529 0.886497
O O17 0.750000 0.599021 0.750000
O O18 0.500000 0.404044 0.704549
#
# Coordination Sequence:
#
# PCOD9538097 Si02
#       7
#    16  16  16  16  16  16  16
#     4  11  21  39  66  90 121 164 210 262 309 371
#     4  11  20  39  64  88 118 163 211 259 309 370
#     4  11  22  41  66  89 117 163 221 266 304 365
#     4  10  24  43  62  93 135 167 199 257 325 380
#     4  11  20  39  68  95 117 162 216 262 305 368
#     4  10  20  35  64  94 121 160 211 256 307 377
#     4  12  25  39  59  90 132 166 200 261 325 379
#
# _framework density 19.530318000000001
#
# number of rings (size 3 to 8) (size 9 to 14) (size 15 to 20)
#    0.000    1.143    5.714    1.714    2.000    5.143 
#    0.000    2.143    0.000    0.000    0.000    0.000 
#    0.000    0.000    0.000    0.000    0.000    0.000 
#
# Total GULP energy -312823.709279 kJ/mol
# GULP energy per Si atom -5586.137666 kJ/mol
# Density = 1.948587 g / cm^3
# Si number density = 19.530318 Si / 1000 Ang^3
#
#
#
# Elastic Constant Matrix: (Units=GPa)
#
#
# Indices 1 2 3 4 5 6 
#
# 1 67.7824 25.7455 13.7534 0.0000 0.0000 0.0000
# 2 25.7455 98.0685 10.3640 0.0000 0.0000 0.0000
# 3 13.7534 10.3640 73.0784 -0.0001 0.0001 0.0000
# 4 0.0000 0.0000 -0.0001 10.1425 0.0001 0.0000
# 5 0.0000 0.0000 0.0001 0.0001 -65.0116 0.0000
# 6 0.0000 0.0000 0.0000 0.0000 0.0000 -2.8465
#
#
#
# Elastic Compliance Matrix: (Units=1/GPa)
#
#
# Indices 1 2 3 4 5 6 
#
# 1 0.016854 -0.004152 -0.002583 0.000000 0.000000 0.000000
# 2 -0.004152 0.011375 -0.000832 0.000000 0.000000 0.000000
# 3 -0.002583 -0.000832 0.014288 0.000000 0.000000 0.000000
# 4 0.000000 0.000000 0.000000 0.098595 0.000000 0.000001
# 5 0.000000 0.000000 0.000000 0.000000 -0.015382 0.000000
# 6 0.000000 0.000000 0.000000 0.000001 0.000000 -0.351310
#
#
# Mechanical properties :
#
#
# Convention : Reuss Voigt Hill
#
# Bulk Modulus (GPa) = 36.51813 37.62836 37.07325
# Shear Modulus (GPa) = -24.83630 1.06130 -11.88750
#
# Velocity S-wave (km/s) = -3.56993 0.73796 -2.46980
# Velocity P-wave (km/s) = 1.32145 4.47600 3.30006
#
# Compressibility (1/GPa) = 0.02738366
#
# Stress axis : x y z
#
# Youngs Moduli (GPa) = 59.33255 87.91381 69.98852
#
# Poissons Ratio (x) = 0.36499 0.18079
# Poissons Ratio (y) = 0.24633 0.05822
# Poissons Ratio (z) = 0.15327 0.07313
#
# Static dielectric constant tensor:
#      x y z
#    x 1.679440 0.000000 0.000000 
#    y 0.000000 1.691190 0.000000 
#    z 0.000000 0.000000 1.696680 
# 
# From -- ./inp_files/32693.got.cif
#   From: 2010.05.17/outbox.cif.g08.bks.cpg/sg74_17_cif.got.tgz:32693.got - 2010.06.03 17:57:02.
