data_PCOD9538692
_publ_section_title
;
Structure prediction by ZEFSAII (Michael W. Deem and Ramdas Pophale) SiO2 
 PCOD9538692
Probable space group: I M M A
;
_chemical_formula_sum "Si O2"
_cell_formula_units_Z 80
_cell_length_a 21.317749
_cell_length_b 10.893949
_cell_length_c 17.167444
_cell_angle_alpha 90.000000
_cell_angle_beta 90.000000
_cell_angle_gamma 90.000000
_cell_volume 3986.872265
_symmetry_space_group_name_H-M "I M M A"
_symmetry_group_IT_number 74
_symmetry_cell_setting 'orthorhombic'
loop_
_space_group_symop_operation_xyz
x,y,z
-x,1/2-y,z
x,-y,-z
-x,1/2+y,-z
-x,-y,-z
x,1/2+y,-z
-x,y,z
x,1/2-y,z
1/2+x,1/2+y,1/2+z
1/2-x,-y,1/2+z
1/2+x,1/2-y,1/2-z
1/2-x,y,1/2-z
1/2-x,1/2-y,1/2-z
1/2+x,y,1/2-z
1/2-x,1/2+y,1/2+z
1/2+x,-y,1/2+z
loop_
_atom_site_type_symbol
_atom_site_label
_atom_site_fract_x
_atom_site_fract_y
_atom_site_fract_z
Si Si1 0.621065 0.388809 0.673466
Si Si2 0.260869 0.750000 0.657416
Si Si3 0.264971 0.502953 0.406930
Si Si4 0.072590 0.250000 0.575140
Si Si5 0.876507 0.510725 0.340902
Si Si6 0.500000 0.605816 0.435098
Si Si7 0.619240 0.750000 0.903201
O O1 0.615954 0.250000 0.704290
O O2 0.684921 0.400440 0.624322
O O3 0.622366 0.476770 0.748077
O O4 0.561753 0.410498 0.618043
O O5 0.250000 0.750000 0.750000
O O6 0.291268 0.626338 0.626082
O O7 0.192407 0.750000 0.618350
O O8 0.260302 0.500000 0.500000
O O9 0.195868 0.520185 0.370361
O O10 0.088168 0.126554 0.622175
O O11 0.111450 0.250000 0.495386
O O12 0.000000 0.250000 0.553452
O O13 0.904041 0.379758 0.368790
O O14 0.500000 0.750000 0.462546
O O15 0.500000 0.500000 0.500000
#
# Coordination Sequence:
#
# PCOD9538692 Si02
#       7
#    16   8  16   8  16   8   8
#     4  11  24  41  69  99 132 172 220 273 336 401
#     4  10  20  40  63  88 132 174 206 272 347 382
#     4  11  23  38  65  99 133 170 219 273 334 393
#     4  12  26  42  66  93 136 188 225 271 333 394
#     4  11  23  42  67  96 137 174 224 275 331 394
#     4  10  24  50  72  96 133 171 220 274 335 399
#     4  10  22  42  62  94 130 174 228 276 321 386
#
# _framework density 20.065856
#
# number of rings (size 3 to 8) (size 9 to 14) (size 15 to 20)
#    0.000    1.200    1.000    6.600    4.200    2.400 
#    3.600    0.000    0.000    0.000    0.000    0.000 
#    0.000    0.000    0.000    0.000    0.000    0.000 
#
# Total GULP energy -223455.043495 kJ/mol
# GULP energy per Si atom -5586.376087 kJ/mol
# Density = 2.002019 g / cm^3
# Si number density = 20.065856 Si / 1000 Ang^3
#
#
#
# Elastic Constant Matrix: (Units=GPa)
#
#
# Indices 1 2 3 4 5 6 
#
# 1 43.8998 11.9168 28.6402 0.0000 0.0000 0.0000
# 2 11.9168 129.8148 57.7143 0.0000 0.0000 0.0000
# 3 28.6402 57.7143 141.9449 0.0000 0.0000 0.0000
# 4 0.0000 0.0000 0.0000 39.4422 0.0000 0.0000
# 5 0.0000 0.0000 0.0000 0.0000 -105.8755 0.0000
# 6 0.0000 0.0000 0.0000 0.0000 0.0000 -5.9607
#
#
#
# Elastic Compliance Matrix: (Units=1/GPa)
#
#
# Indices 1 2 3 4 5 6 
#
# 1 0.026233 -0.000067 -0.005266 0.000000 0.000000 0.000000
# 2 -0.000067 0.009403 -0.003810 0.000000 0.000000 0.000000
# 3 -0.005266 -0.003810 0.009657 0.000000 0.000000 0.000000
# 4 0.000000 0.000000 0.000000 0.025354 0.000000 0.000000
# 5 0.000000 0.000000 0.000000 0.000000 -0.009445 0.000000
# 6 0.000000 0.000000 0.000000 0.000000 0.000000 -0.167765
#
#
# Mechanical properties :
#
#
# Convention : Reuss Voigt Hill
#
# Bulk Modulus (GPa) = 37.02699 56.91135 46.96917
# Shear Modulus (GPa) = -63.07008 0.01374 -31.52817
#
# Velocity S-wave (km/s) = -5.61247 0.08284 -3.96818
# Velocity P-wave (km/s) = 4.84839 5.33226 1.56941
#
# Compressibility (1/GPa) = 0.02700733
#
# Stress axis : x y z
#
# Youngs Moduli (GPa) = 38.12039 106.34639 103.55718
#
# Poissons Ratio (x) = 0.00713 0.54530
# Poissons Ratio (y) = 0.00256 0.39453
# Poissons Ratio (z) = 0.20073 0.40516
#
# Static dielectric constant tensor:
#      x y z
#    x 1.698010 0.000000 0.000000 
#    y 0.000000 1.720440 0.000000 
#    z 0.000000 0.000000 1.672550 
# 
# From -- ./inp_files/36216.got.cif
#   From: 2010.05.17/outbox.cif.g08.bks.cpg/sg74_19_cif.got.tgz:36216.got - 2010.06.03 17:57:02.
