data_PCOD9538252
_publ_section_title
;
Structure prediction by ZEFSAII (Michael W. Deem and Ramdas Pophale) SiO2 
 PCOD9538252
Probable space group: I M M A
;
_chemical_formula_sum "Si O2"
_cell_formula_units_Z 80
_cell_length_a 18.187369
_cell_length_b 26.025258
_cell_length_c 9.242796
_cell_angle_alpha 90.000000
_cell_angle_beta 90.000000
_cell_angle_gamma 90.000000
_cell_volume 4374.901601
_symmetry_space_group_name_H-M "I M M A"
_symmetry_group_IT_number 74
_symmetry_cell_setting 'orthorhombic'
loop_
_space_group_symop_operation_xyz
x,y,z
-x,1/2-y,z
x,-y,-z
-x,1/2+y,-z
-x,-y,-z
x,1/2+y,-z
-x,y,z
x,1/2-y,z
1/2+x,1/2+y,1/2+z
1/2-x,-y,1/2+z
1/2+x,1/2-y,1/2-z
1/2-x,y,1/2-z
1/2-x,1/2-y,1/2-z
1/2+x,y,1/2-z
1/2-x,1/2+y,1/2+z
1/2+x,-y,1/2+z
loop_
_atom_site_type_symbol
_atom_site_label
_atom_site_fract_x
_atom_site_fract_y
_atom_site_fract_z
Si Si1 0.414262 0.947491 0.413927
Si Si2 0.824837 0.151876 0.837679
Si Si3 0.639614 0.250000 0.149409
Si Si4 0.306455 0.250000 0.458197
Si Si5 0.912788 0.838620 0.444969
Si Si6 0.914260 0.450999 0.569412
O O1 0.500000 0.935447 0.453770
O O2 0.361845 0.897072 0.419405
O O3 0.413593 0.957569 0.241525
O O4 0.393815 0.000000 0.500000
O O5 0.750000 0.137916 0.750000
O O6 0.878039 0.173337 0.710799
O O7 0.812875 0.198662 0.946827
O O8 0.637598 0.250000 0.322648
O O9 0.724503 0.250000 0.104190
O O10 0.605153 0.200612 0.071314
O O11 0.883360 0.896053 0.475879
O O12 0.000000 0.841053 0.425446
O O13 0.876774 0.500000 0.500000
O O14 0.000000 0.449685 0.522304
#
# Coordination Sequence:
#
# PCOD9538252 Si02
#       6
#    16  16   8   8  16  16
#     4   9  19  36  58  85 117 149 185 238 294 342
#     4  11  20  38  62  85 113 161 200 241 290 363
#     4  11  22  39  55  80 113 150 188 248 296 356
#     4  11  24  38  58  81 116 152 195 239 311 346
#     4  10  20  36  59  85 113 150 197 242 286 348
#     4   8  15  29  51  78 107 141 179 219 272 334
#
# _framework density 18.286125999999999
#
# number of rings (size 3 to 8) (size 9 to 14) (size 15 to 20)
#    0.000    2.200    2.000    3.000    0.000    1.600 
#    0.000   11.500    4.400    0.000    0.000    0.000 
#    0.000    0.000    0.000    0.000    0.000    0.000 
#
# Total GULP energy -222717.677137 kJ/mol
# GULP energy per Si atom -5567.941928 kJ/mol
# Density = 1.824451 g / cm^3
# Si number density = 18.286126 Si / 1000 Ang^3
#
#
#
# Elastic Constant Matrix: (Units=GPa)
#
#
# Indices 1 2 3 4 5 6 
#
# 1 69.5289 39.8388 25.7738 0.0000 0.0000 0.0000
# 2 39.8388 140.0705 60.0298 0.0000 0.0000 0.0000
# 3 25.7738 60.0298 45.6433 0.0000 0.0000 0.0000
# 4 0.0000 0.0000 0.0000 39.0182 0.0000 0.0000
# 5 0.0000 0.0000 0.0000 0.0000 25.4992 0.0000
# 6 0.0000 0.0000 0.0000 0.0000 0.0000 -20.3517
#
#
#
# Elastic Compliance Matrix: (Units=1/GPa)
#
#
# Indices 1 2 3 4 5 6 
#
# 1 0.018383 -0.001787 -0.008030 0.000000 0.000000 0.000000
# 2 -0.001787 0.016535 -0.020738 0.000000 0.000000 0.000000
# 3 -0.008030 -0.020738 0.053718 0.000000 0.000000 0.000000
# 4 0.000000 0.000000 0.000000 0.025629 0.000000 0.000000
# 5 0.000000 0.000000 0.000000 0.000000 0.039217 0.000000
# 6 0.000000 0.000000 0.000000 0.000000 0.000000 -0.049136
#
#
# Mechanical properties :
#
#
# Convention : Reuss Voigt Hill
#
# Bulk Modulus (GPa) = 36.32955 56.28084 46.30519
# Shear Modulus (GPa) = 28.63175 17.47317 23.05246
#
# Velocity S-wave (km/s) = 3.96127 3.09454 3.55442
# Velocity P-wave (km/s) = 6.39004 6.60401 6.49790
#
# Compressibility (1/GPa) = 0.02752580
#
# Stress axis : x y z
#
# Youngs Moduli (GPa) = 54.39742 60.47764 18.61585
#
# Poissons Ratio (x) = 0.10807 0.14949
# Poissons Ratio (y) = 0.09721 0.38605
# Poissons Ratio (z) = 0.43683 1.25417
#
# Static dielectric constant tensor:
#      x y z
#    x 1.657600 0.000000 0.000000 
#    y 0.000000 1.677470 0.000000 
#    z 0.000000 0.000000 1.626340 
# 
# From -- ./inp_files/11026.got.cif
#   From: 2010.05.17/outbox.cif.g08.bks.cpg/sg74_6_cif.got.tgz:11026.got - 2010.06.03 17:57:02.
