data_PCOD9538078
_publ_section_title
;
Structure prediction by ZEFSAII (Michael W. Deem and Ramdas Pophale) SiO2 
 PCOD9538078
Probable space group: I M M A
;
_chemical_formula_sum "Si O2"
_cell_formula_units_Z 112
_cell_length_a 15.658739
_cell_length_b 24.694286
_cell_length_c 13.996020
_cell_angle_alpha 90.000000
_cell_angle_beta 90.000000
_cell_angle_gamma 90.000000
_cell_volume 5412.000318
_symmetry_space_group_name_H-M "I M M A"
_symmetry_group_IT_number 74
_symmetry_cell_setting 'orthorhombic'
loop_
_space_group_symop_operation_xyz
x,y,z
-x,1/2-y,z
x,-y,-z
-x,1/2+y,-z
-x,-y,-z
x,1/2+y,-z
-x,y,z
x,1/2-y,z
1/2+x,1/2+y,1/2+z
1/2-x,-y,1/2+z
1/2+x,1/2-y,1/2-z
1/2-x,y,1/2-z
1/2-x,1/2-y,1/2-z
1/2+x,y,1/2-z
1/2-x,1/2+y,1/2+z
1/2+x,-y,1/2+z
loop_
_atom_site_type_symbol
_atom_site_label
_atom_site_fract_x
_atom_site_fract_y
_atom_site_fract_z
Si Si1 0.200623 0.457903 0.933053
Si Si2 0.379636 0.503121 0.889196
Si Si3 0.399416 0.312082 0.865797
Si Si4 0.903062 0.187976 0.121713
Si Si5 0.734710 0.846800 0.975521
Si Si6 0.842184 0.609759 0.710881
Si Si7 0.405456 0.410299 0.738786
O O1 0.278161 0.494123 0.895211
O O2 0.151387 0.434246 0.844046
O O3 0.149382 0.500000 0.000000
O O4 0.241356 0.407329 0.989401
O O5 0.393850 0.559589 0.834542
O O6 0.409465 0.452998 0.825712
O O7 0.408331 0.500000 0.000000
O O8 0.500000 0.324001 0.892471
O O9 0.396680 0.250000 0.834750
O O10 0.374829 0.354004 0.783026
O O11 0.330745 0.320989 0.949544
O O12 0.897390 0.250000 0.158400
O O13 0.826185 0.180610 0.045830
O O14 0.886514 0.143888 0.205157
O O15 0.000000 0.180456 0.084294
O O16 0.683801 0.851110 0.876136
O O17 0.750000 0.589895 0.750000
O O18 0.500000 0.401708 0.699925
#
# Coordination Sequence:
#
# PCOD9538078 Si02
#       7
#    16  16  16  16  16  16  16
#     4  11  22  40  65  90 127 172 214 266 330 395
#     4  11  20  38  63  91 123 166 209 264 328 387
#     4  10  22  41  64  94 130 168 218 275 326 382
#     4  10  24  43  62  91 134 177 220 272 322 379
#     4  11  21  39  67  94 123 172 220 265 324 393
#     4  10  20  35  60  89 120 165 219 263 318 384
#     4  11  24  39  61  93 130 169 215 274 332 393
#
# _framework density 20.694751
#
# number of rings (size 3 to 8) (size 9 to 14) (size 15 to 20)
#    0.000    1.429    4.286    1.714    2.000    5.429 
#    0.000    3.571    0.000    2.143    0.000    0.000 
#    0.000    0.000    0.000    0.000    0.000    0.000 
#
# Total GULP energy -312551.319245 kJ/mol
# GULP energy per Si atom -5581.273558 kJ/mol
# Density = 2.064765 g / cm^3
# Si number density = 20.694751 Si / 1000 Ang^3
#
#
#
# Elastic Constant Matrix: (Units=GPa)
#
#
# Indices 1 2 3 4 5 6 
#
# 1 95.5665 48.9553 58.4333 0.0000 0.0000 0.0000
# 2 48.9553 123.2835 42.6568 0.0000 0.0000 0.0000
# 3 58.4333 42.6568 91.7793 0.0000 0.0000 0.0000
# 4 0.0000 0.0000 0.0000 24.3644 0.0000 0.0000
# 5 0.0000 0.0000 0.0000 0.0000 13.1037 0.0000
# 6 0.0000 0.0000 0.0000 0.0000 0.0000 23.2277
#
#
#
# Elastic Compliance Matrix: (Units=1/GPa)
#
#
# Indices 1 2 3 4 5 6 
#
# 1 0.018597 -0.003918 -0.010019 0.000000 0.000000 0.000000
# 2 -0.003918 0.010491 -0.002382 0.000000 0.000000 0.000000
# 3 -0.010019 -0.002382 0.018382 0.000000 0.000000 0.000000
# 4 0.000000 0.000000 0.000000 0.041044 0.000000 0.000000
# 5 0.000000 0.000000 0.000000 0.000000 0.076314 0.000000
# 6 0.000000 0.000000 0.000000 0.000000 0.000000 0.043052
#
#
# Mechanical properties :
#
#
# Convention : Reuss Voigt Hill
#
# Bulk Modulus (GPa) = 67.42089 67.85779 67.63934
# Shear Modulus (GPa) = 20.36978 22.84476 21.60727
#
# Velocity S-wave (km/s) = 3.14075 3.32609 3.23475
# Velocity P-wave (km/s) = 6.76771 6.90011 6.83423
#
# Compressibility (1/GPa) = 0.01483220
#
# Stress axis : x y z
#
# Youngs Moduli (GPa) = 53.77138 95.31717 54.40232
#
# Poissons Ratio (x) = 0.37347 0.54507
# Poissons Ratio (y) = 0.21068 0.12956
# Poissons Ratio (z) = 0.53875 0.22700
#
# Static dielectric constant tensor:
#      x y z
#    x 1.809590 0.000000 0.000000 
#    y 0.000000 1.748840 0.000000 
#    z 0.000000 0.000000 1.761830 
# 
# From -- ./inp_files/32695.got.cif
#   From: 2010.05.17/outbox.cif.g08.bks.cpg/sg74_17_cif.got.tgz:32695.got - 2010.06.03 17:57:02.
