data_PCOD9538917
_publ_section_title
;
Structure prediction by ZEFSAII (Michael W. Deem and Ramdas Pophale) SiO2 
 PCOD9538917
Probable space group: I M M A
;
_chemical_formula_sum "Si O2"
_cell_formula_units_Z 96
_cell_length_a 9.139466
_cell_length_b 22.910266
_cell_length_c 24.302392
_cell_angle_alpha 90.000000
_cell_angle_beta 90.000000
_cell_angle_gamma 90.000000
_cell_volume 5088.619466
_symmetry_space_group_name_H-M "I M M A"
_symmetry_group_IT_number 74
_symmetry_cell_setting 'orthorhombic'
loop_
_space_group_symop_operation_xyz
x,y,z
-x,1/2-y,z
x,-y,-z
-x,1/2+y,-z
-x,-y,-z
x,1/2+y,-z
-x,y,z
x,1/2-y,z
1/2+x,1/2+y,1/2+z
1/2-x,-y,1/2+z
1/2+x,1/2-y,1/2-z
1/2-x,y,1/2-z
1/2-x,1/2-y,1/2-z
1/2+x,y,1/2-z
1/2-x,1/2+y,1/2+z
1/2+x,-y,1/2+z
loop_
_atom_site_type_symbol
_atom_site_label
_atom_site_fract_x
_atom_site_fract_y
_atom_site_fract_z
Si Si1 0.172661 0.179970 0.307470
Si Si2 0.673586 0.883788 0.469510
Si Si3 0.329842 0.508493 0.083589
Si Si4 0.174022 0.115206 0.091434
Si Si5 0.831493 0.077639 0.697933
Si Si6 0.674956 0.316698 0.642054
O O1 0.190072 0.250000 0.313644
O O2 0.250000 0.163172 0.250000
O O3 0.245051 0.148053 0.359328
O O4 0.000000 0.166826 0.304775
O O5 0.500000 0.898288 0.466998
O O6 0.764705 0.942411 0.457019
O O7 0.702926 0.859235 0.530273
O O8 0.704774 0.838801 0.420239
O O9 0.500000 0.495953 0.070993
O O10 0.233697 0.450581 0.086159
O O11 0.322847 0.537581 0.144080
O O12 0.000000 0.115823 0.101109
O O13 0.750000 0.050819 0.750000
O O14 0.754698 0.138356 0.682004
O O15 0.000000 0.087516 0.711522
O O16 0.500000 0.320485 0.650178
O O17 0.720952 0.250000 0.649524
#
# Coordination Sequence:
#
# PCOD9538917 Si02
#       6
#    16  16  16  16  16  16
#     4  10  22  41  62  83 110 143 179 222 271 321
#     4   9  19  35  54  79 111 145 182 223 269 320
#     4  10  21  36  54  78 110 145 182 227 275 321
#     4  11  22  35  57  86 113 144 181 220 264 322
#     4  10  21  36  54  76 103 138 178 222 270 317
#     4   9  18  34  55  77 104 140 179 220 265 312
#
# _framework density 18.865627
#
# number of rings (size 3 to 8) (size 9 to 14) (size 15 to 20)
#    0.000    2.167    0.000    2.500    0.000    8.333 
#    0.000    3.333    0.000    0.000    0.000    0.000 
#    0.000    0.000    0.000    0.000    0.000    0.000 
#
# Total GULP energy -268043.031048 kJ/mol
# GULP energy per Si atom -5584.229813 kJ/mol
# Density = 1.882269 g / cm^3
# Si number density = 18.865627 Si / 1000 Ang^3
#
#
#
# Elastic Constant Matrix: (Units=GPa)
#
#
# Indices 1 2 3 4 5 6 
#
# 1 72.1637 11.3647 51.5945 0.0000 0.0000 0.0000
# 2 11.3647 12.2158 3.7168 0.0000 0.0000 0.0000
# 3 51.5945 3.7168 118.9865 0.0000 0.0000 0.0000
# 4 0.0000 0.0000 0.0000 14.7237 0.0000 0.0000
# 5 0.0000 0.0000 0.0000 0.0000 31.8863 0.0000
# 6 0.0000 0.0000 0.0000 0.0000 0.0000 28.6054
#
#
#
# Elastic Compliance Matrix: (Units=1/GPa)
#
#
# Indices 1 2 3 4 5 6 
#
# 1 0.023849 -0.019224 -0.009741 0.000000 0.000000 0.000000
# 2 -0.019224 0.098142 0.005270 0.000000 0.000000 0.000000
# 3 -0.009741 0.005270 0.012464 0.000000 0.000000 0.000000
# 4 0.000000 0.000000 0.000000 0.067917 0.000000 0.000000
# 5 0.000000 0.000000 0.000000 0.000000 0.031361 0.000000
# 6 0.000000 0.000000 0.000000 0.000000 0.000000 0.034958
#
#
# Mechanical properties :
#
#
# Convention : Reuss Voigt Hill
#
# Bulk Modulus (GPa) = 11.48562 37.41312 24.44937
# Shear Modulus (GPa) = 14.48842 24.15574 19.32208
#
# Velocity S-wave (km/s) = 2.77425 3.58216 3.20378
# Velocity P-wave (km/s) = 4.04516 6.08142 5.16464
#
# Compressibility (1/GPa) = 0.08706537
#
# Stress axis : x y z
#
# Youngs Moduli (GPa) = 41.93005 10.18933 80.23417
#
# Poissons Ratio (x) = 0.19588 0.78155
# Poissons Ratio (y) = 0.80605 -0.42284
# Poissons Ratio (z) = 0.40844 -0.05370
#
# Static dielectric constant tensor:
#      x y z
#    x 1.633990 0.000000 0.000000 
#    y 0.000000 1.620640 0.000000 
#    z 0.000000 0.000000 1.667770 
# 
# From -- ./inp_files/49124.got.cif
#   From: 2010.05.17/outbox.cif.g08.bks.cpg/sg74_25_cif.got.tgz:49124.got - 2010.06.03 17:57:02.
