data_PCOD9538026
_publ_section_title
;
Structure prediction by ZEFSAII (Michael W. Deem and Ramdas Pophale) SiO2 
 PCOD9538026
Probable space group: I M M A
;
_chemical_formula_sum "Si O2"
_cell_formula_units_Z 104
_cell_length_a 7.892742
_cell_length_b 22.665383
_cell_length_c 26.832881
_cell_angle_alpha 90.000000
_cell_angle_beta 90.000000
_cell_angle_gamma 90.000000
_cell_volume 4800.188294
_symmetry_space_group_name_H-M "I M M A"
_symmetry_group_IT_number 74
_symmetry_cell_setting 'orthorhombic'
loop_
_space_group_symop_operation_xyz
x,y,z
-x,1/2-y,z
x,-y,-z
-x,1/2+y,-z
-x,-y,-z
x,1/2+y,-z
-x,y,z
x,1/2-y,z
1/2+x,1/2+y,1/2+z
1/2-x,-y,1/2+z
1/2+x,1/2-y,1/2-z
1/2-x,y,1/2-z
1/2-x,1/2-y,1/2-z
1/2+x,y,1/2-z
1/2-x,1/2+y,1/2+z
1/2+x,-y,1/2+z
loop_
_atom_site_type_symbol
_atom_site_label
_atom_site_fract_x
_atom_site_fract_y
_atom_site_fract_z
Si Si1 0.303893 0.182820 0.985852
Si Si2 0.806680 0.352527 0.879110
Si Si3 0.798291 0.548272 0.305489
Si Si4 0.204301 0.185280 0.307687
Si Si5 0.792571 0.558152 0.530527
Si Si6 0.798243 0.750000 0.307290
Si Si7 0.206918 0.567121 0.644124
O O1 0.500000 0.186309 0.002121
O O2 0.232652 0.250000 0.993007
O O3 0.298760 0.167253 0.927040
O O4 0.232953 0.122948 0.011476
O O5 0.765169 0.413559 0.852104
O O6 0.776511 0.305947 0.835376
O O7 0.000000 0.351582 0.895845
O O8 0.750000 0.568805 0.250000
O O9 0.737762 0.481828 0.316085
O O10 0.000000 0.550400 0.307650
O O11 0.267621 0.250000 0.322670
O O12 0.250000 0.175913 0.250000
O O13 0.268233 0.131502 0.340457
O O14 0.000000 0.185999 0.311249
O O15 0.736698 0.500000 0.500000
O O16 0.744076 0.551176 0.588123
O O17 0.000000 0.559045 0.527128
O O18 0.750000 0.750000 0.250000
O O19 0.000000 0.750000 0.312550
O O20 0.000000 0.567788 0.644951
#
# Coordination Sequence:
#
# PCOD9538026 Si02
#       7
#    16  16  16  16  16   8  16
#     4  10  20  35  58  86 114 148 192 243 292 342
#     4  12  24  39  58  82 113 151 190 231 283 340
#     4  11  22  37  57  82 114 152 194 241 289 344
#     4   9  17  30  50  77 109 144 181 224 275 335
#     4   9  17  31  53  81 110 142 185 236 288 337
#     4  12  24  40  60  84 114 146 186 230 275 330
#     4   9  18  32  53  81 112 147 188 236 288 338
#
# _framework density 21.665817000000001
#
# number of rings (size 3 to 8) (size 9 to 14) (size 15 to 20)
#    0.000    1.846    0.769    4.385    0.000    3.077 
#    0.000    3.846    0.000    6.000    0.000    2.154 
#    0.000    0.000    0.000    0.000    0.000    0.000 
#
# Total GULP energy -290304.336989 kJ/mol
# GULP energy per Si atom -5582.775711 kJ/mol
# Density = 2.161650 g / cm^3
# Si number density = 21.665817 Si / 1000 Ang^3
#
#
#
# Elastic Constant Matrix: (Units=GPa)
#
#
# Indices 1 2 3 4 5 6 
#
# 1 38.7404 7.9303 -9.8559 0.0000 0.0000 0.0000
# 2 7.9303 141.3363 25.7065 0.0000 0.0000 0.0000
# 3 -9.8559 25.7065 37.4303 0.0000 0.0000 0.0000
# 4 0.0000 0.0000 0.0000 26.9733 0.0000 0.0000
# 5 0.0000 0.0000 0.0000 0.0000 13.0620 0.0000
# 6 0.0000 0.0000 0.0000 0.0000 0.0000 21.5889
#
#
#
# Elastic Compliance Matrix: (Units=1/GPa)
#
#
# Indices 1 2 3 4 5 6 
#
# 1 0.029071 -0.003455 0.010028 0.000000 0.000000 0.000000
# 2 -0.003455 0.008496 -0.006745 0.000000 0.000000 0.000000
# 3 0.010028 -0.006745 0.033989 0.000000 0.000000 0.000000
# 4 0.000000 0.000000 0.000000 0.037074 0.000000 0.000000
# 5 0.000000 0.000000 0.000000 0.000000 0.076558 0.000000
# 6 0.000000 0.000000 0.000000 0.000000 0.000000 0.046320
#
#
# Mechanical properties :
#
#
# Convention : Reuss Voigt Hill
#
# Bulk Modulus (GPa) = 14.04258 29.45210 21.74734
# Shear Modulus (GPa) = 19.56268 25.23992 22.40130
#
# Velocity S-wave (km/s) = 3.00814 3.41686 3.21899
# Velocity P-wave (km/s) = 4.30821 5.40277 4.88624
#
# Compressibility (1/GPa) = 0.07121199
#
# Stress axis : x y z
#
# Youngs Moduli (GPa) = 34.39827 117.70386 29.42150
#
# Poissons Ratio (x) = 0.40667 -0.29503
# Poissons Ratio (y) = 0.11885 0.19844
# Poissons Ratio (z) = -0.34493 0.79386
#
# Static dielectric constant tensor:
#      x y z
#    x 1.804350 0.000000 0.000000 
#    y 0.000000 1.861540 0.000000 
#    z 0.000000 0.000000 1.775100 
# 
# From -- ./inp_files/64459.got.cif
#   From: 2010.05.17/outbox.cif.g08.bks.cpg/sg74_33_cif.got.tgz:64459.got - 2010.06.03 17:57:02.
