data_PCOD9538982
_publ_section_title
;
Structure prediction by ZEFSAII (Michael W. Deem and Ramdas Pophale) SiO2 
 PCOD9538982
Probable space group: I M M A
;
_chemical_formula_sum "Si O2"
_cell_formula_units_Z 96
_cell_length_a 13.728697
_cell_length_b 15.041441
_cell_length_c 21.226258
_cell_angle_alpha 90.000000
_cell_angle_beta 90.000000
_cell_angle_gamma 90.000000
_cell_volume 4383.209243
_symmetry_space_group_name_H-M "I M M A"
_symmetry_group_IT_number 74
_symmetry_cell_setting 'orthorhombic'
loop_
_space_group_symop_operation_xyz
x,y,z
-x,1/2-y,z
x,-y,-z
-x,1/2+y,-z
-x,-y,-z
x,1/2+y,-z
-x,y,z
x,1/2-y,z
1/2+x,1/2+y,1/2+z
1/2-x,-y,1/2+z
1/2+x,1/2-y,1/2-z
1/2-x,y,1/2-z
1/2-x,1/2-y,1/2-z
1/2+x,y,1/2-z
1/2-x,1/2+y,1/2+z
1/2+x,-y,1/2+z
loop_
_atom_site_type_symbol
_atom_site_label
_atom_site_fract_x
_atom_site_fract_y
_atom_site_fract_z
Si Si1 0.610894 0.147073 0.008847
Si Si2 0.272184 0.150035 0.402679
Si Si3 0.389023 0.846537 0.724301
Si Si4 0.616374 0.149585 0.674982
Si Si5 0.245297 0.954276 0.085359
Si Si6 0.387293 0.472349 0.796089
O O1 0.500000 0.114862 0.007963
O O2 0.611499 0.250000 0.986971
O O3 0.684653 0.090113 0.966476
O O4 0.657895 0.147408 0.078758
O O5 0.303772 0.250000 0.426914
O O6 0.311933 0.148261 0.331986
O O7 0.301536 0.051644 0.428299
O O8 0.500000 0.851561 0.697582
O O9 0.379030 0.750000 0.755386
O O10 0.379420 0.928044 0.770357
O O11 0.500000 0.149268 0.669136
O O12 0.651120 0.250000 0.684920
O O13 0.662339 0.110242 0.611607
O O14 0.637812 0.090201 0.736577
O O15 0.316444 0.962753 0.145665
O O16 0.500000 0.454039 0.813811
#
# Coordination Sequence:
#
# PCOD9538982 Si02
#       6
#    16  16  16  16  16  16
#     4  10  23  43  63  87 122 161 206 258 304 352
#     4  10  22  38  59  86 119 160 204 249 301 355
#     4   9  18  36  61  88 123 161 197 246 305 364
#     4  10  22  39  57  81 118 158 198 248 301 356
#     4  12  22  36  62  89 117 160 204 249 301 368
#     4  10  21  36  56  87 121 155 199 247 301 363
#
# _framework density 21.901761
#
# number of rings (size 3 to 8) (size 9 to 14) (size 15 to 20)
#    0.000    1.833    1.667    2.000    0.000    4.667 
#    0.000    4.167    0.000    5.000    0.000    0.000 
#    0.000    0.000    0.000    0.000    0.000    0.000 
#
# Total GULP energy -267801.881326 kJ/mol
# GULP energy per Si atom -5579.205861 kJ/mol
# Density = 2.185191 g / cm^3
# Si number density = 21.901761 Si / 1000 Ang^3
#
#
#
# Elastic Constant Matrix: (Units=GPa)
#
#
# Indices 1 2 3 4 5 6 
#
# 1 77.7542 30.0306 42.6345 0.0000 0.0000 0.0000
# 2 30.0306 142.1073 19.7660 0.0000 0.0000 0.0000
# 3 42.6345 19.7660 62.1831 0.0000 0.0000 0.0000
# 4 0.0000 0.0000 0.0000 20.0838 0.0000 0.0000
# 5 0.0000 0.0000 0.0000 0.0000 31.2648 0.0000
# 6 0.0000 0.0000 0.0000 0.0000 0.0000 24.5203
#
#
#
# Elastic Compliance Matrix: (Units=1/GPa)
#
#
# Indices 1 2 3 4 5 6 
#
# 1 0.021494 -0.002608 -0.013908 0.000000 0.000000 0.000000
# 2 -0.002608 0.007679 -0.000653 0.000000 0.000000 0.000000
# 3 -0.013908 -0.000653 0.025825 0.000000 0.000000 0.000000
# 4 0.000000 0.000000 0.000000 0.049791 0.000000 0.000000
# 5 0.000000 0.000000 0.000000 0.000000 0.031985 0.000000
# 6 0.000000 0.000000 0.000000 0.000000 0.000000 0.040782
#
#
# Mechanical properties :
#
#
# Convention : Reuss Voigt Hill
#
# Bulk Modulus (GPa) = 48.40177 51.87851 50.14014
# Shear Modulus (GPa) = 22.85383 27.81469 25.33426
#
# Velocity S-wave (km/s) = 3.23378 3.56754 3.40475
# Velocity P-wave (km/s) = 6.00755 6.38029 6.19672
#
# Compressibility (1/GPa) = 0.02066040
#
# Stress axis : x y z
#
# Youngs Moduli (GPa) = 46.52356 130.22817 38.72216
#
# Poissons Ratio (x) = 0.33960 0.53856
# Poissons Ratio (y) = 0.12132 0.02528
# Poissons Ratio (z) = 0.64706 0.08503
#
# Static dielectric constant tensor:
#      x y z
#    x 1.811560 0.000000 0.000000 
#    y 0.000000 1.866400 0.000000 
#    z 0.000000 0.000000 1.799960 
# 
# From -- ./inp_files/51864.got.cif
#   From: 2010.05.17/outbox.cif.g08.bks.cpg/sg74_26_cif.got.tgz:51864.got - 2010.06.03 17:57:02.
