data_PCOD9538902
_publ_section_title
;
Structure prediction by ZEFSAII (Michael W. Deem and Ramdas Pophale) SiO2 
 PCOD9538902
Probable space group: I M M A
;
_chemical_formula_sum "Si O2"
_cell_formula_units_Z 88
_cell_length_a 9.452859
_cell_length_b 23.889241
_cell_length_c 19.599045
_cell_angle_alpha 90.000000
_cell_angle_beta 90.000000
_cell_angle_gamma 90.000000
_cell_volume 4425.888225
_symmetry_space_group_name_H-M "I M M A"
_symmetry_group_IT_number 74
_symmetry_cell_setting 'orthorhombic'
loop_
_space_group_symop_operation_xyz
x,y,z
-x,1/2-y,z
x,-y,-z
-x,1/2+y,-z
-x,-y,-z
x,1/2+y,-z
-x,y,z
x,1/2-y,z
1/2+x,1/2+y,1/2+z
1/2-x,-y,1/2+z
1/2+x,1/2-y,1/2-z
1/2-x,y,1/2-z
1/2-x,1/2-y,1/2-z
1/2+x,y,1/2-z
1/2-x,1/2+y,1/2+z
1/2+x,-y,1/2+z
loop_
_atom_site_type_symbol
_atom_site_label
_atom_site_fract_x
_atom_site_fract_y
_atom_site_fract_z
Si Si1 0.250000 0.890959 0.750000
Si Si2 0.840789 0.016966 0.149024
Si Si3 0.667255 0.187338 0.123804
Si Si4 0.664936 0.914572 0.121517
Si Si5 0.833311 0.186351 0.821562
Si Si6 0.334221 0.915939 0.960724
O O1 0.156830 0.935203 0.792892
O O2 0.308835 0.849524 0.808100
O O3 0.768836 0.045812 0.083391
O O4 0.000000 0.997700 0.135713
O O5 0.739648 0.964303 0.163297
O O6 0.500000 0.193988 0.117748
O O7 0.731008 0.250000 0.126617
O O8 0.707833 0.147575 0.060384
O O9 0.500000 0.908490 0.140282
O O10 0.753646 0.858529 0.132753
O O11 0.672039 0.927097 0.040713
O O12 0.822160 0.250000 0.847878
O O13 0.750000 0.184439 0.750000
O O14 0.000000 0.173662 0.812710
O O15 0.500000 0.924712 0.939443
#
# Coordination Sequence:
#
# PCOD9538902 Si02
#       6
#     8  16  16  16  16  16
#     4  10  21  36  52  78 119 154 190 236 294 348
#     4  11  23  37  57  83 115 155 198 244 293 348
#     4   9  17  32  56  82 109 145 190 235 281 342
#     4  11  23  38  60  86 116 153 194 240 292 352
#     4  10  22  41  63  87 117 150 187 235 291 350
#     4   9  20  38  57  82 116 153 192 240 295 348
#
# _framework density 19.883015
#
# number of rings (size 3 to 8) (size 9 to 14) (size 15 to 20)
#    0.000    2.000    0.000    3.000    1.273    7.636 
#    0.000    1.818    0.000    4.909    0.000    0.000 
#    0.000    0.000    0.000    0.000    0.000    0.000 
#
# Total GULP energy -245320.871063 kJ/mol
# GULP energy per Si atom -5575.474342 kJ/mol
# Density = 1.983776 g / cm^3
# Si number density = 19.883015 Si / 1000 Ang^3
#
#
#
# Elastic Constant Matrix: (Units=GPa)
#
#
# Indices 1 2 3 4 5 6 
#
# 1 128.4499 60.1413 16.5412 0.0000 0.0000 0.0000
# 2 60.1413 111.0947 24.0300 0.0000 0.0000 0.0000
# 3 16.5412 24.0300 37.7115 0.0000 0.0000 0.0000
# 4 0.0000 0.0000 0.0000 29.5499 0.0000 0.0000
# 5 0.0000 0.0000 0.0000 0.0000 15.8497 0.0000
# 6 0.0000 0.0000 0.0000 0.0000 0.0000 26.7806
#
#
#
# Elastic Compliance Matrix: (Units=1/GPa)
#
#
# Indices 1 2 3 4 5 6 
#
# 1 0.010470 -0.005422 -0.001138 0.000000 0.000000 0.000000
# 2 -0.005422 0.013248 -0.006064 0.000000 0.000000 0.000000
# 3 -0.001138 -0.006064 0.030880 0.000000 0.000000 0.000000
# 4 0.000000 0.000000 0.000000 0.033841 0.000000 0.000000
# 5 0.000000 0.000000 0.000000 0.000000 0.063093 0.000000
# 6 0.000000 0.000000 0.000000 0.000000 0.000000 0.037340
#
#
# Mechanical properties :
#
#
# Convention : Reuss Voigt Hill
#
# Bulk Modulus (GPa) = 34.06937 53.18680 43.62809
# Shear Modulus (GPa) = 22.33115 26.20562 24.26838
#
# Velocity S-wave (km/s) = 3.35494 3.63435 3.49744
# Velocity P-wave (km/s) = 5.67271 6.66478 6.18866
#
# Compressibility (1/GPa) = 0.02935188
#
# Stress axis : x y z
#
# Youngs Moduli (GPa) = 95.50844 75.48239 32.38365
#
# Poissons Ratio (x) = 0.40927 0.03684
# Poissons Ratio (y) = 0.51785 0.19636
# Poissons Ratio (z) = 0.10865 0.45769
#
# Static dielectric constant tensor:
#      x y z
#    x 1.683630 0.000000 0.000000 
#    y 0.000000 1.756170 0.000000 
#    z 0.000000 0.000000 1.699600 
# 
# From -- ./inp_files/48726.got.cif
#   From: 2010.05.17/outbox.cif.g08.bks.cpg/sg74_25_cif.got.tgz:48726.got - 2010.06.03 17:57:02.
