data_PCOD9538827
_publ_section_title
;
Structure prediction by ZEFSAII (Michael W. Deem and Ramdas Pophale) SiO2 
 PCOD9538827
Probable space group: I M M A
;
_chemical_formula_sum "Si O2"
_cell_formula_units_Z 68
_cell_length_a 20.316164
_cell_length_b 9.117345
_cell_length_c 19.185362
_cell_angle_alpha 90.000000
_cell_angle_beta 90.000000
_cell_angle_gamma 90.000000
_cell_volume 3553.694555
_symmetry_space_group_name_H-M "I M M A"
_symmetry_group_IT_number 74
_symmetry_cell_setting 'orthorhombic'
loop_
_space_group_symop_operation_xyz
x,y,z
-x,1/2-y,z
x,-y,-z
-x,1/2+y,-z
-x,-y,-z
x,1/2+y,-z
-x,y,z
x,1/2-y,z
1/2+x,1/2+y,1/2+z
1/2-x,-y,1/2+z
1/2+x,1/2-y,1/2-z
1/2-x,y,1/2-z
1/2-x,1/2-y,1/2-z
1/2+x,y,1/2-z
1/2-x,1/2+y,1/2+z
1/2+x,-y,1/2+z
loop_
_atom_site_type_symbol
_atom_site_label
_atom_site_fract_x
_atom_site_fract_y
_atom_site_fract_z
Si Si1 0.788176 0.575980 0.426056
Si Si2 0.000000 0.250000 0.303289
Si Si3 0.420874 0.418519 0.429447
Si Si4 0.665940 0.076060 0.678438
Si Si5 0.363928 0.911680 0.817852
O O1 0.775907 0.500000 0.500000
O O2 0.795650 0.750000 0.435191
O O3 0.728159 0.550256 0.372067
O O4 0.850393 0.503722 0.387324
O O5 0.940630 0.375319 0.304630
O O6 0.399479 0.500000 0.500000
O O7 0.500000 0.415461 0.428820
O O8 0.397362 0.250000 0.427741
O O9 0.394732 0.508473 0.364305
O O10 0.659949 0.250000 0.689003
O O11 0.666828 0.995815 0.752267
O O12 0.332062 0.750000 0.825730
#
# Coordination Sequence:
#
# PCOD9538827 Si02
#       5
#    16   4  16  16  16
#     4  11  24  42  65  94 130 167 213 265 321 382
#     4   8  24  44  66  96 128 160 220 266 318 388
#     4  10  21  35  52  78 118 164 212 258 310 374
#     4  11  23  37  60  94 129 164 209 256 314 378
#     4  10  22  42  67  90 129 161 212 262 319 374
#
# _framework density 19.135014999999999
#
# number of rings (size 3 to 8) (size 9 to 14) (size 15 to 20)
#    0.706    0.941    0.000    4.235    1.647    9.882 
#    0.000    2.353    0.000    0.000    0.000    0.000 
#    0.000    0.000    0.000    0.000    0.000    0.000 
#
# Total GULP energy -189276.646474 kJ/mol
# GULP energy per Si atom -5566.960190 kJ/mol
# Density = 1.909146 g / cm^3
# Si number density = 19.135015 Si / 1000 Ang^3
#
#
#
# Elastic Constant Matrix: (Units=GPa)
#
#
# Indices 1 2 3 4 5 6 
#
# 1 61.8960 51.1586 39.1853 0.0000 0.0000 0.0000
# 2 51.1586 128.6120 71.1656 0.0000 0.0000 0.0000
# 3 39.1853 71.1656 110.3534 0.0000 0.0000 0.0000
# 4 0.0000 0.0000 0.0000 32.0931 0.0000 0.0000
# 5 0.0000 0.0000 0.0000 0.0000 -0.2694 0.0000
# 6 0.0000 0.0000 0.0000 0.0000 0.0000 11.1692
#
#
#
# Elastic Compliance Matrix: (Units=1/GPa)
#
#
# Indices 1 2 3 4 5 6 
#
# 1 0.025076 -0.007848 -0.003843 0.000000 0.000000 0.000000
# 2 -0.007848 0.014545 -0.006593 0.000000 0.000000 0.000000
# 3 -0.003843 -0.006593 0.014678 0.000000 0.000000 0.000000
# 4 0.000000 0.000000 0.000000 0.031159 0.000000 0.000000
# 5 0.000000 0.000000 0.000000 0.000000 -3.711737 0.000000
# 6 0.000000 0.000000 0.000000 0.000000 0.000000 0.089532
#
#
# Mechanical properties :
#
#
# Convention : Reuss Voigt Hill
#
# Bulk Modulus (GPa) = 56.39958 69.32003 62.85981
# Shear Modulus (GPa) = -1.43092 17.88872 8.22890
#
# Velocity S-wave (km/s) = -0.86569 3.06088 2.07600
# Velocity P-wave (km/s) = 5.34222 6.98551 6.21839
#
# Compressibility (1/GPa) = 0.01773063
#
# Stress axis : x y z
#
# Youngs Moduli (GPa) = 39.87941 68.75019 68.12713
#
# Poissons Ratio (x) = 0.53955 0.26181
# Poissons Ratio (y) = 0.31297 0.44919
# Poissons Ratio (z) = 0.15326 0.45330
#
# Static dielectric constant tensor:
#      x y z
#    x 1.690730 0.000000 0.000000 
#    y 0.000000 1.650670 0.000000 
#    z 0.000000 0.000000 1.732210 
# 
# From -- ./inp_files/39193.got.cif
#   From: 2010.05.17/outbox.cif.g08.bks.cpg/sg74_20_cif.got.tgz:39193.got - 2010.06.03 17:57:02.
