data_PCOD9538405
_publ_section_title
;
Structure prediction by ZEFSAII (Michael W. Deem and Ramdas Pophale) SiO2 
 PCOD9538405
Probable space group: I M M A
;
_chemical_formula_sum "Si O2"
_cell_formula_units_Z 116
_cell_length_a 26.308165
_cell_length_b 7.719629
_cell_length_c 29.682392
_cell_angle_alpha 90.000000
_cell_angle_beta 90.000000
_cell_angle_gamma 90.000000
_cell_volume 6028.175426
_symmetry_space_group_name_H-M "I M M A"
_symmetry_group_IT_number 74
_symmetry_cell_setting 'orthorhombic'
loop_
_space_group_symop_operation_xyz
x,y,z
-x,1/2-y,z
x,-y,-z
-x,1/2+y,-z
-x,-y,-z
x,1/2+y,-z
-x,y,z
x,1/2-y,z
1/2+x,1/2+y,1/2+z
1/2-x,-y,1/2+z
1/2+x,1/2-y,1/2-z
1/2-x,y,1/2-z
1/2-x,1/2-y,1/2-z
1/2+x,y,1/2-z
1/2-x,1/2+y,1/2+z
1/2+x,-y,1/2+z
loop_
_atom_site_type_symbol
_atom_site_label
_atom_site_fract_x
_atom_site_fract_y
_atom_site_fract_z
Si Si1 0.319593 0.446341 0.627661
Si Si2 0.409475 0.536985 0.307109
Si Si3 0.557650 0.453568 0.130610
Si Si4 0.132638 0.552124 0.292323
Si Si5 0.134629 0.956731 0.447659
Si Si6 0.741554 0.447609 0.199301
Si Si7 0.249018 0.540968 0.447912
Si Si8 0.000000 0.750000 0.811515
O O1 0.333042 0.250000 0.614986
O O2 0.368826 0.511514 0.654031
O O3 0.273960 0.447203 0.663814
O O4 0.293342 0.530554 0.584094
O O5 0.419622 0.750000 0.309239
O O6 0.384258 0.505333 0.258012
O O7 0.456094 0.405685 0.310876
O O8 0.500000 0.518984 0.124661
O O9 0.555000 0.250000 0.140345
O O10 0.586387 0.535984 0.172981
O O11 0.591938 0.477273 0.086280
O O12 0.149978 0.750000 0.291287
O O13 0.181540 0.449181 0.309294
O O14 0.135343 0.750000 0.443145
O O15 0.191783 0.022272 0.436509
O O16 0.124582 0.000000 0.500000
O O17 0.760663 0.250000 0.197486
O O18 0.750000 0.512969 0.250000
O O19 0.257951 0.500000 0.500000
O O20 0.247849 0.750000 0.442612
#
# Coordination Sequence:
#
# PCOD9538405 Si02
#       8
#    16  16  16  16  16  16  16   4
#     4  10  20  37  59  86 125 158 197 243 297 361
#     4  10  24  41  62  90 118 160 205 253 301 357
#     4  11  25  40  57  80 108 147 201 260 309 349
#     4  11  23  38  56  80 116 157 201 244 304 359
#     4  10  20  37  60  84 114 151 194 239 298 361
#     4  11  22  33  54  84 119 156 197 241 294 361
#     4   9  19  35  58  89 121 154 185 231 295 357
#     4  12  26  40  68  80 126 156 210 248 308 352
#
# _framework density 19.24297
#
# number of rings (size 3 to 8) (size 9 to 14) (size 15 to 20)
#    0.000    1.655    1.379    2.690    3.862    4.138 
#    0.000    0.000    0.000    0.000    0.000    0.483 
#    0.000    0.000    0.000    0.000    0.000    0.000 
#
# Total GULP energy -323184.725976 kJ/mol
# GULP energy per Si atom -5572.150448 kJ/mol
# Density = 1.919917 g / cm^3
# Si number density = 19.242970 Si / 1000 Ang^3
#
#
#
# Elastic Constant Matrix: (Units=GPa)
#
#
# Indices 1 2 3 4 5 6 
#
# 1 98.0962 26.0862 21.1252 0.0000 0.0000 0.0000
# 2 26.0862 56.4607 -2.4391 0.0000 0.0000 0.0000
# 3 21.1252 -2.4391 50.6872 0.0000 0.0000 0.0000
# 4 0.0000 0.0000 0.0000 14.1179 0.0000 0.0000
# 5 0.0000 0.0000 0.0000 0.0000 -5.7281 0.0000
# 6 0.0000 0.0000 0.0000 0.0000 0.0000 -6.6478
#
#
#
# Elastic Compliance Matrix: (Units=1/GPa)
#
#
# Indices 1 2 3 4 5 6 
#
# 1 0.013114 -0.006308 -0.005769 0.000000 0.000000 0.000000
# 2 -0.006308 0.020783 0.003629 0.000000 0.000000 0.000000
# 3 -0.005769 0.003629 0.022308 0.000000 0.000000 0.000000
# 4 0.000000 0.000000 0.000000 0.070832 0.000000 0.000000
# 5 0.000000 0.000000 0.000000 0.000000 -0.174579 0.000000
# 6 0.000000 0.000000 0.000000 0.000000 0.000000 -0.150425
#
#
# Mechanical properties :
#
#
# Convention : Reuss Voigt Hill
#
# Bulk Modulus (GPa) = 25.43988 32.75429 29.09708
# Shear Modulus (GPa) = -29.76755 11.04653 -9.36051
#
# Velocity S-wave (km/s) = -3.93737 2.39854 -2.20793
# Velocity P-wave (km/s) = 2.72424 4.97283 2.94173
#
# Compressibility (1/GPa) = 0.03930837
#
# Stress axis : x y z
#
# Youngs Moduli (GPa) = 76.25448 48.11677 44.82714
#
# Poissons Ratio (x) = 0.30353 0.25861
# Poissons Ratio (y) = 0.48103 -0.16269
# Poissons Ratio (z) = 0.43992 -0.17463
#
# Static dielectric constant tensor:
#      x y z
#    x 1.671400 0.000000 0.000000 
#    y 0.000000 1.736880 0.000000 
#    z 0.000000 0.000000 1.668520 
# 
# From -- ./inp_files/68978.got.cif
#   From: 2010.05.17/outbox.cif.g08.bks.cpg/sg74_35_cif.got.tgz:68978.got - 2010.06.03 17:57:02.
