data_PCOD9538303
_publ_section_title
;
Structure prediction by ZEFSAII (Michael W. Deem and Ramdas Pophale) SiO2 
 PCOD9538303
Probable space group: I M M A
;
_chemical_formula_sum "Si O2"
_cell_formula_units_Z 72
_cell_length_a 8.367783
_cell_length_b 23.419293
_cell_length_c 19.542645
_cell_angle_alpha 90.000000
_cell_angle_beta 90.000000
_cell_angle_gamma 90.000000
_cell_volume 3829.724493
_symmetry_space_group_name_H-M "I M M A"
_symmetry_group_IT_number 74
_symmetry_cell_setting 'orthorhombic'
loop_
_space_group_symop_operation_xyz
x,y,z
-x,1/2-y,z
x,-y,-z
-x,1/2+y,-z
-x,-y,-z
x,1/2+y,-z
-x,y,z
x,1/2-y,z
1/2+x,1/2+y,1/2+z
1/2-x,-y,1/2+z
1/2+x,1/2-y,1/2-z
1/2-x,y,1/2-z
1/2-x,1/2-y,1/2-z
1/2+x,y,1/2-z
1/2-x,1/2+y,1/2+z
1/2+x,-y,1/2+z
loop_
_atom_site_type_symbol
_atom_site_label
_atom_site_fract_x
_atom_site_fract_y
_atom_site_fract_z
Si Si1 0.306893 0.518092 0.076630
Si Si2 0.193033 0.250000 0.672475
Si Si3 0.193212 0.814767 0.924558
Si Si4 0.308987 0.416887 0.327488
Si Si5 0.806649 0.147886 0.574677
O O1 0.500000 0.516650 0.078010
O O2 0.244981 0.472900 0.131308
O O3 0.254456 0.583152 0.089616
O O4 0.255925 0.500000 0.000000
O O5 0.250000 0.250000 0.750000
O O6 0.247258 0.305965 0.630589
O O7 0.000000 0.250000 0.672088
O O8 0.247469 0.750000 0.910483
O O9 0.250085 0.861326 0.869530
O O10 0.000000 0.814947 0.923924
O O11 0.248735 0.833389 0.999845
O O12 0.500000 0.415270 0.327204
O O13 0.250000 0.417153 0.250000
O O14 0.000000 0.148285 0.573590
#
# Coordination Sequence:
#
# PCOD9538303 Si02
#       5
#    16   8  16  16  16
#     4  10  20  36  61  89 117 150 191 238 289 347
#     4  10  22  38  56  82 117 150 187 232 283 336
#     4  10  21  37  59  87 116 149 193 241 289 345
#     4  11  24  40  59  85 120 156 194 241 294 346
#     4  10  20  36  60  88 115 148 192 238 285 344
#
# _framework density 18.800308000000001
#
# number of rings (size 3 to 8) (size 9 to 14) (size 15 to 20)
#    0.000    1.778    3.333    0.667    0.000    4.444 
#    0.000    2.222    0.000    0.000    0.000    0.000 
#    0.000    0.000    0.000    0.000    0.000    0.000 
#
# Total GULP energy -201084.311648 kJ/mol
# GULP energy per Si atom -5585.675324 kJ/mol
# Density = 1.875752 g / cm^3
# Si number density = 18.800308 Si / 1000 Ang^3
#
#
#
# Elastic Constant Matrix: (Units=GPa)
#
#
# Indices 1 2 3 4 5 6 
#
# 1 6.8878 29.6330 20.6548 0.0000 0.0000 0.0000
# 2 29.6330 235.0364 128.0921 0.0000 0.0000 0.0000
# 3 20.6548 128.0921 198.6379 0.0000 0.0000 0.0000
# 4 0.0000 0.0000 0.0000 34.2685 0.0000 0.0000
# 5 0.0000 0.0000 0.0000 0.0000 29.4814 0.0000
# 6 0.0000 0.0000 0.0000 0.0000 0.0000 10.7364
#
#
#
# Elastic Compliance Matrix: (Units=1/GPa)
#
#
# Indices 1 2 3 4 5 6 
#
# 1 0.333977 -0.035742 -0.011679 0.000000 0.000000 0.000000
# 2 -0.035742 0.010385 -0.002980 0.000000 0.000000 0.000000
# 3 -0.011679 -0.002980 0.008171 0.000000 0.000000 0.000000
# 4 0.000000 0.000000 0.000000 0.029181 0.000000 0.000000
# 5 0.000000 0.000000 0.000000 0.000000 0.033920 0.000000
# 6 0.000000 0.000000 0.000000 0.000000 0.000000 0.093141
#
#
# Mechanical properties :
#
#
# Convention : Reuss Voigt Hill
#
# Bulk Modulus (GPa) = 3.97252 88.59135 46.28194
# Shear Modulus (GPa) = 7.20993 32.37607 19.79300
#
# Velocity S-wave (km/s) = 1.96044 4.15433 3.24821
# Velocity P-wave (km/s) = 2.69110 8.38068 6.22406
#
# Compressibility (1/GPa) = 0.25172911
#
# Stress axis : x y z
#
# Youngs Moduli (GPa) = 2.99422 96.29027 122.38944
#
# Poissons Ratio (x) = 3.44163 1.42941
# Poissons Ratio (y) = 0.10702 0.36477
# Poissons Ratio (z) = 0.03497 0.28698
#
# Static dielectric constant tensor:
#      x y z
#    x 1.649180 0.000000 0.000000 
#    y 0.000000 1.662110 0.000000 
#    z 0.000000 0.000000 1.600440 
# 
# From -- ./inp_files/39466.got.cif
#   From: 2010.05.17/outbox.cif.g08.bks.cpg/sg74_20_cif.got.tgz:39466.got - 2010.06.03 17:57:02.
