data_PCOD9538879
_publ_section_title
;
Structure prediction by ZEFSAII (Michael W. Deem and Ramdas Pophale) SiO2 
 PCOD9538879
Probable space group: I M M A
;
_chemical_formula_sum "Si O2"
_cell_formula_units_Z 72
_cell_length_a 22.200426
_cell_length_b 9.638918
_cell_length_c 19.123893
_cell_angle_alpha 90.000000
_cell_angle_beta 90.000000
_cell_angle_gamma 90.000000
_cell_volume 4092.285256
_symmetry_space_group_name_H-M "I M M A"
_symmetry_group_IT_number 74
_symmetry_cell_setting 'orthorhombic'
loop_
_space_group_symop_operation_xyz
x,y,z
-x,1/2-y,z
x,-y,-z
-x,1/2+y,-z
-x,-y,-z
x,1/2+y,-z
-x,y,z
x,1/2-y,z
1/2+x,1/2+y,1/2+z
1/2-x,-y,1/2+z
1/2+x,1/2-y,1/2-z
1/2-x,y,1/2-z
1/2-x,1/2-y,1/2-z
1/2+x,y,1/2-z
1/2-x,1/2+y,1/2+z
1/2+x,-y,1/2+z
loop_
_atom_site_type_symbol
_atom_site_label
_atom_site_fract_x
_atom_site_fract_y
_atom_site_fract_z
Si Si1 0.099174 0.958470 0.689185
Si Si2 0.935011 0.250000 0.192211
Si Si3 0.926626 0.250000 0.749646
Si Si4 0.321161 0.750000 0.587921
Si Si5 0.868147 0.000000 0.000000
Si Si6 0.707683 0.750000 0.818250
Si Si7 0.571467 0.750000 0.414214
Si Si8 0.000000 0.087989 0.428991
O O1 0.068912 0.879359 0.755084
O O2 0.162959 0.881817 0.680247
O O3 0.057653 0.940387 0.620879
O O4 0.100312 0.116480 0.711779
O O5 0.877077 0.250000 0.142836
O O6 0.000000 0.250000 0.154822
O O7 0.911969 0.250000 0.832210
O O8 0.000000 0.250000 0.742603
O O9 0.329877 0.608141 0.545295
O O10 0.255537 0.750000 0.620424
O O11 0.905441 0.891640 0.048506
O O12 0.750000 0.750000 0.750000
O O13 0.500000 0.750000 0.419239
O O14 0.000000 0.250000 0.447131
O O15 0.000000 0.000000 0.500000
#
# Coordination Sequence:
#
# PCOD9538879 Si02
#       8
#    16   8   8   8   8   8   8   8
#     4  11  21  40  63  94 130 159 215 262 325 385
#     4  11  18  36  68  91 116 166 218 266 306 373
#     4  11  21  35  62  99 133 158 195 268 326 369
#     4  11  23  42  63  89 122 170 215 262 322 372
#     4  10  23  40  58  82 128 171 206 250 304 384
#     4  11  23  42  69  89 115 171 226 273 311 392
#     4  10  21  35  58  93 127 162 204 246 309 370
#     4  12  24  42  66  98 136 167 210 270 334 411
#
# _framework density 17.594080000000002
#
# number of rings (size 3 to 8) (size 9 to 14) (size 15 to 20)
#    0.000    1.111    6.667    1.667    1.556    4.444 
#    2.000    2.778    0.000    0.000    0.000    0.000 
#    0.000    0.000    0.000    0.000    0.000    0.000 
#
# Total GULP energy -200874.432207 kJ/mol
# GULP energy per Si atom -5579.845339 kJ/mol
# Density = 1.755404 g / cm^3
# Si number density = 17.594080 Si / 1000 Ang^3
#
#
#
# Elastic Constant Matrix: (Units=GPa)
#
#
# Indices 1 2 3 4 5 6 
#
# 1 148.4334 69.4113 72.1388 0.0000 0.0000 0.0000
# 2 69.4113 206.4908 83.4842 0.0000 0.0000 0.0000
# 3 72.1388 83.4842 118.6496 0.0000 0.0000 0.0000
# 4 0.0000 0.0000 0.0000 396.6717 0.0000 0.0000
# 5 0.0000 0.0000 0.0000 0.0000 148.8888 0.0000
# 6 0.0000 0.0000 0.0000 0.0000 0.0000 18.2101
#
#
#
# Elastic Compliance Matrix: (Units=1/GPa)
#
#
# Indices 1 2 3 4 5 6 
#
# 1 0.009783 -0.001235 -0.005079 0.000000 0.000000 0.000000
# 2 -0.001235 0.006924 -0.004121 0.000000 0.000000 0.000000
# 3 -0.005079 -0.004121 0.014416 0.000000 0.000000 0.000000
# 4 0.000000 0.000000 0.000000 0.002521 0.000000 0.000000
# 5 0.000000 0.000000 0.000000 0.000000 0.006716 0.000000
# 6 0.000000 0.000000 0.000000 0.000000 0.000000 0.054915
#
#
# Mechanical properties :
#
#
# Convention : Reuss Voigt Hill
#
# Bulk Modulus (GPa) = 97.53509 102.62694 100.08102
# Shear Modulus (GPa) = 41.81901 129.32341 85.57121
#
# Velocity S-wave (km/s) = 4.88061 8.58274 6.98154
# Velocity P-wave (km/s) = 9.34437 12.51699 11.04518
#
# Compressibility (1/GPa) = 0.01025272
#
# Stress axis : x y z
#
# Youngs Moduli (GPa) = 102.21816 144.42255 69.36804
#
# Poissons Ratio (x) = 0.17837 0.35232
# Poissons Ratio (y) = 0.12625 0.28587
# Poissons Ratio (z) = 0.51917 0.59517
#
# Static dielectric constant tensor:
#      x y z
#    x 1.604980 0.000000 0.000000 
#    y 0.000000 1.414660 0.000000 
#    z 0.000000 0.000000 1.612980 
# 
# From -- ./inp_files/45874.got.cif
#   From: 2010.05.17/outbox.cif.g08.bks.cpg/sg74_23_cif.got.tgz:45874.got - 2010.06.03 17:57:02.
