data_PCOD9538366
_publ_section_title
;
Structure prediction by ZEFSAII (Michael W. Deem and Ramdas Pophale) SiO2 
 PCOD9538366
Probable space group: I M M A
;
_chemical_formula_sum "Si O2"
_cell_formula_units_Z 80
_cell_length_a 21.608103
_cell_length_b 10.957275
_cell_length_c 17.260419
_cell_angle_alpha 90.000000
_cell_angle_beta 90.000000
_cell_angle_gamma 90.000000
_cell_volume 4086.679101
_symmetry_space_group_name_H-M "I M M A"
_symmetry_group_IT_number 74
_symmetry_cell_setting 'orthorhombic'
loop_
_space_group_symop_operation_xyz
x,y,z
-x,1/2-y,z
x,-y,-z
-x,1/2+y,-z
-x,-y,-z
x,1/2+y,-z
-x,y,z
x,1/2-y,z
1/2+x,1/2+y,1/2+z
1/2-x,-y,1/2+z
1/2+x,1/2-y,1/2-z
1/2-x,y,1/2-z
1/2-x,1/2-y,1/2-z
1/2+x,y,1/2-z
1/2-x,1/2+y,1/2+z
1/2+x,-y,1/2+z
loop_
_atom_site_type_symbol
_atom_site_label
_atom_site_fract_x
_atom_site_fract_y
_atom_site_fract_z
Si Si1 0.615775 0.387850 0.677103
Si Si2 0.255580 0.750000 0.657108
Si Si3 0.259119 0.514176 0.343187
Si Si4 0.069635 0.250000 0.569712
Si Si5 0.884064 0.512997 0.345322
Si Si6 0.500000 0.606452 0.436308
Si Si7 0.616056 0.750000 0.902994
O O1 0.609197 0.250000 0.707620
O O2 0.683849 0.398635 0.638680
O O3 0.613217 0.475194 0.752107
O O4 0.560726 0.409290 0.617355
O O5 0.250000 0.750000 0.750000
O O6 0.283265 0.620804 0.634452
O O7 0.186318 0.750000 0.625943
O O8 0.250000 0.521896 0.250000
O O9 0.188554 0.528841 0.371619
O O10 0.080628 0.127395 0.618406
O O11 0.113049 0.250000 0.495074
O O12 0.000000 0.250000 0.539109
O O13 0.908512 0.380563 0.372091
O O14 0.500000 0.750000 0.463463
O O15 0.500000 0.500000 0.500000
#
# Coordination Sequence:
#
# PCOD9538366 Si02
#       7
#    16   8  16   8  16   8   8
#     4  10  20  36  66  94 121 161 205 255 313 373
#     4   8  14  32  56  81 118 157 188 255 319 350
#     4   8  16  30  57  91 119 148 198 259 305 349
#     4  12  26  40  59  83 129 176 211 255 321 367
#     4  10  21  38  64  90 125 161 219 258 302 373
#     4  10  24  48  66  88 129 161 202 256 319 383
#     4  10  22  40  56  87 126 167 206 265 311 354
#
# _framework density 19.575797000000001
#
# number of rings (size 3 to 8) (size 9 to 14) (size 15 to 20)
#    0.000    2.400    1.000    1.800    2.800    2.800 
#    3.600    4.000    0.000    0.000    0.000    0.000 
#    0.000    0.000    0.000    0.000    0.000    0.000 
#
# Total GULP energy -222734.521266 kJ/mol
# GULP energy per Si atom -5568.363032 kJ/mol
# Density = 1.953124 g / cm^3
# Si number density = 19.575797 Si / 1000 Ang^3
#
#
#
# Elastic Constant Matrix: (Units=GPa)
#
#
# Indices 1 2 3 4 5 6 
#
# 1 70.0245 22.4452 17.3160 0.0000 0.0000 0.0000
# 2 22.4452 132.0926 36.1223 0.0000 0.0000 0.0000
# 3 17.3160 36.1223 43.8403 0.0000 0.0000 0.0000
# 4 0.0000 0.0000 0.0000 26.0313 0.0000 0.0000
# 5 0.0000 0.0000 0.0000 0.0000 21.0054 0.0000
# 6 0.0000 0.0000 0.0000 0.0000 0.0000 0.6538
#
#
#
# Elastic Compliance Matrix: (Units=1/GPa)
#
#
# Indices 1 2 3 4 5 6 
#
# 1 0.015992 -0.001278 -0.005263 0.000000 0.000000 0.000000
# 2 -0.001278 0.009874 -0.007631 0.000000 0.000000 0.000000
# 3 -0.005263 -0.007631 0.031177 0.000000 0.000000 0.000000
# 4 0.000000 0.000000 0.000000 0.038415 0.000000 0.000000
# 5 0.000000 0.000000 0.000000 0.000000 0.047607 0.000000
# 6 0.000000 0.000000 0.000000 0.000000 0.000000 1.529484
#
#
# Mechanical properties :
#
#
# Convention : Reuss Voigt Hill
#
# Bulk Modulus (GPa) = 34.84598 44.19160 39.51879
# Shear Modulus (GPa) = 2.92319 20.87635 11.89977
#
# Velocity S-wave (km/s) = 1.22332 3.26918 2.46820
# Velocity P-wave (km/s) = 4.45360 6.07237 5.32486
#
# Compressibility (1/GPa) = 0.02869772
#
# Stress axis : x y z
#
# Youngs Moduli (GPa) = 62.53158 101.27109 32.07505
#
# Poissons Ratio (x) = 0.12942 0.16883
# Poissons Ratio (y) = 0.07992 0.24478
# Poissons Ratio (z) = 0.32913 0.77283
#
# Static dielectric constant tensor:
#      x y z
#    x 1.646920 0.000000 0.000000 
#    y 0.000000 1.728910 0.000000 
#    z 0.000000 0.000000 1.648120 
# 
# From -- ./inp_files/36215.got.cif
#   From: 2010.05.17/outbox.cif.g08.bks.cpg/sg74_19_cif.got.tgz:36215.got - 2010.06.03 17:57:02.
