data_PCOD9538492
_publ_section_title
;
Structure prediction by ZEFSAII (Michael W. Deem and Ramdas Pophale) SiO2 
 PCOD9538492
Probable space group: I M M A
;
_chemical_formula_sum "Si O2"
_cell_formula_units_Z 88
_cell_length_a 15.840737
_cell_length_b 19.235094
_cell_length_c 13.371598
_cell_angle_alpha 90.000000
_cell_angle_beta 90.000000
_cell_angle_gamma 90.000000
_cell_volume 4074.300040
_symmetry_space_group_name_H-M "I M M A"
_symmetry_group_IT_number 74
_symmetry_cell_setting 'orthorhombic'
loop_
_space_group_symop_operation_xyz
x,y,z
-x,1/2-y,z
x,-y,-z
-x,1/2+y,-z
-x,-y,-z
x,1/2+y,-z
-x,y,z
x,1/2-y,z
1/2+x,1/2+y,1/2+z
1/2-x,-y,1/2+z
1/2+x,1/2-y,1/2-z
1/2-x,y,1/2-z
1/2-x,1/2-y,1/2-z
1/2+x,y,1/2-z
1/2-x,1/2+y,1/2+z
1/2+x,-y,1/2+z
loop_
_atom_site_type_symbol
_atom_site_label
_atom_site_fract_x
_atom_site_fract_y
_atom_site_fract_z
Si Si1 0.650936 0.576063 0.779169
Si Si2 0.124162 0.169666 0.085649
Si Si3 0.500000 0.421206 0.539341
Si Si4 0.179732 0.671863 0.533919
Si Si5 0.500000 0.132128 0.752461
Si Si6 0.000000 0.509608 0.378689
Si Si7 0.675658 0.829902 0.185500
O O1 0.750000 0.556204 0.750000
O O2 0.619330 0.622656 0.685662
O O3 0.649682 0.626722 0.874321
O O4 0.583340 0.519018 0.818121
O O5 0.094610 0.250000 0.098600
O O6 0.077080 0.124457 0.002523
O O7 0.220454 0.175563 0.052045
O O8 0.500000 0.500000 0.500000
O O9 0.500000 0.418604 0.658104
O O10 0.143189 0.750000 0.537806
O O11 0.165845 0.639430 0.424977
O O12 0.588491 0.171535 0.754414
O O13 0.500000 0.090620 0.855529
O O14 0.000000 0.500000 0.500000
O O15 0.702190 0.750000 0.164625
O O16 0.750000 0.863607 0.250000
#
# Coordination Sequence:
#
# PCOD9538492 Si02
#       7
#    16  16   8  16   8   8  16
#     4  10  21  40  64  92 125 163 211 269 328 382
#     4  10  20  37  64  93 121 160 211 266 324 385
#     4  12  25  40  56  83 124 162 203 259 322 388
#     4   9  18  35  60  90 122 155 198 258 320 376
#     4  12  25  40  60  84 115 160 205 249 301 373
#     4  12  26  44  63  89 129 174 223 266 316 397
#     4  10  21  38  60  88 120 153 195 249 311 378
#
# _framework density 21.598801999999999
#
# number of rings (size 3 to 8) (size 9 to 14) (size 15 to 20)
#    0.000    1.636    0.000    4.909    0.000    5.818 
#    0.000   13.182    0.000    0.000    0.000    0.000 
#    0.000    0.000    0.000    0.000    0.000    0.000 
#
# Total GULP energy -245242.081811 kJ/mol
# GULP energy per Si atom -5573.683678 kJ/mol
# Density = 2.154964 g / cm^3
# Si number density = 21.598802 Si / 1000 Ang^3
#
#
#
# Elastic Constant Matrix: (Units=GPa)
#
#
# Indices 1 2 3 4 5 6 
#
# 1 72.6502 10.7643 27.9752 0.0000 0.0000 0.0000
# 2 10.7643 53.3016 11.0953 0.0000 0.0000 0.0000
# 3 27.9752 11.0953 145.1158 0.0000 0.0000 0.0000
# 4 0.0000 0.0000 0.0000 13.9152 0.0000 0.0000
# 5 0.0000 0.0000 0.0000 0.0000 90.8330 0.0000
# 6 0.0000 0.0000 0.0000 0.0000 0.0000 33.6175
#
#
#
# Elastic Compliance Matrix: (Units=1/GPa)
#
#
# Indices 1 2 3 4 5 6 
#
# 1 0.015189 -0.002498 -0.002737 0.000000 0.000000 0.000000
# 2 -0.002498 0.019475 -0.001008 0.000000 0.000000 0.000000
# 3 -0.002737 -0.001008 0.007496 0.000000 0.000000 0.000000
# 4 0.000000 0.000000 0.000000 0.071864 0.000000 0.000000
# 5 0.000000 0.000000 0.000000 0.000000 0.011009 0.000000
# 6 0.000000 0.000000 0.000000 0.000000 0.000000 0.029746
#
#
# Mechanical properties :
#
#
# Convention : Reuss Voigt Hill
#
# Bulk Modulus (GPa) = 33.69822 41.19302 37.44562
# Shear Modulus (GPa) = 28.22383 42.42200 35.32292
#
# Velocity S-wave (km/s) = 3.61880 4.43661 4.04841
# Velocity P-wave (km/s) = 5.75297 6.73484 6.26317
#
# Compressibility (1/GPa) = 0.02967516
#
# Stress axis : x y z
#
# Youngs Moduli (GPa) = 65.83891 51.34712 133.40928
#
# Poissons Ratio (x) = 0.12824 0.36515
# Poissons Ratio (y) = 0.16444 0.13442
# Poissons Ratio (z) = 0.18021 0.05174
#
# Static dielectric constant tensor:
#      x y z
#    x 1.777210 0.000000 0.000000 
#    y 0.000000 1.826300 0.000000 
#    z 0.000000 0.000000 1.779830 
# 
# From -- ./inp_files/22251.got.cif
#   From: 2010.05.17/outbox.cif.g08.bks.cpg/sg74_12_cif.got.tgz:22251.got - 2010.06.03 17:57:02.
