data_PCOD9538175
_publ_section_title
;
Structure prediction by ZEFSAII (Michael W. Deem and Ramdas Pophale) SiO2 
 PCOD9538175
Probable space group: I M M A
;
_chemical_formula_sum "Si O2"
_cell_formula_units_Z 112
_cell_length_a 14.164985
_cell_length_b 18.664623
_cell_length_c 23.185529
_cell_angle_alpha 90.000000
_cell_angle_beta 90.000000
_cell_angle_gamma 90.000000
_cell_volume 6129.885330
_symmetry_space_group_name_H-M "I M M A"
_symmetry_group_IT_number 74
_symmetry_cell_setting 'orthorhombic'
loop_
_space_group_symop_operation_xyz
x,y,z
-x,1/2-y,z
x,-y,-z
-x,1/2+y,-z
-x,-y,-z
x,1/2+y,-z
-x,y,z
x,1/2-y,z
1/2+x,1/2+y,1/2+z
1/2-x,-y,1/2+z
1/2+x,1/2-y,1/2-z
1/2-x,y,1/2-z
1/2-x,1/2-y,1/2-z
1/2+x,y,1/2-z
1/2-x,1/2+y,1/2+z
1/2+x,-y,1/2+z
loop_
_atom_site_type_symbol
_atom_site_label
_atom_site_fract_x
_atom_site_fract_y
_atom_site_fract_z
Si Si1 0.387277 0.095109 0.186565
Si Si2 0.753940 0.076934 0.985410
Si Si3 0.612388 0.665627 0.693789
Si Si4 0.387153 0.551738 0.120374
Si Si5 0.391719 0.335433 0.593087
Si Si6 0.762974 0.832709 0.598120
Si Si7 0.267875 0.165281 0.815823
O O1 0.500000 0.096721 0.185987
O O2 0.359725 0.115460 0.252134
O O3 0.345767 0.154799 0.144120
O O4 0.358983 0.019029 0.157610
O O5 0.669729 0.060108 0.939834
O O6 0.833428 0.125904 0.956637
O O7 0.721602 0.117087 0.043155
O O8 0.796141 0.000000 0.000000
O O9 0.500000 0.659034 0.684899
O O10 0.632098 0.750000 0.707543
O O11 0.669906 0.648249 0.635781
O O12 0.500000 0.550401 0.111576
O O13 0.351926 0.619581 0.157104
O O14 0.500000 0.358972 0.598122
O O15 0.391435 0.250000 0.583441
O O16 0.328733 0.349579 0.649570
O O17 0.756649 0.750000 0.580231
O O18 0.287788 0.250000 0.820700
O O19 0.250000 0.146812 0.750000
#
# Coordination Sequence:
#
# PCOD9538175 Si02
#       7
#    16  16  16  16  16  16  16
#     4  10  20  36  57  83 116 151 186 230 288 349
#     4  11  22  39  57  81 113 155 194 243 284 336
#     4   9  19  36  58  86 118 148 183 230 284 348
#     4  10  22  39  59  83 115 157 196 238 294 346
#     4   9  19  37  59  82 111 147 186 231 285 342
#     4  11  22  36  58  85 113 151 194 235 287 344
#     4   9  19  36  59  86 115 147 189 240 289 343
#
# _framework density 18.271141
#
# number of rings (size 3 to 8) (size 9 to 14) (size 15 to 20)
#    0.000    2.143    1.429    1.286    0.000    6.286 
#    0.000    2.857    0.000    0.000    0.000    0.000 
#    0.000    0.000    0.000    0.000    0.000    0.000 
#
# Total GULP energy -312266.854220 kJ/mol
# GULP energy per Si atom -5576.193825 kJ/mol
# Density = 1.822956 g / cm^3
# Si number density = 18.271141 Si / 1000 Ang^3
#
#
#
# Elastic Constant Matrix: (Units=GPa)
#
#
# Indices 1 2 3 4 5 6 
#
# 1 60.6956 23.1445 8.7548 0.0000 0.0000 0.0000
# 2 23.1445 42.4081 34.5242 0.0000 0.0000 0.0000
# 3 8.7548 34.5242 72.2898 0.0000 0.0000 0.0000
# 4 0.0000 0.0000 0.0000 34.5954 0.0000 0.0000
# 5 0.0000 0.0000 0.0000 0.0000 13.1138 0.0000
# 6 0.0000 0.0000 0.0000 0.0000 0.0000 21.7477
#
#
#
# Elastic Compliance Matrix: (Units=1/GPa)
#
#
# Indices 1 2 3 4 5 6 
#
# 1 0.021852 -0.015987 0.004989 0.000000 0.000000 0.000000
# 2 -0.015987 0.050277 -0.022075 0.000000 0.000000 0.000000
# 3 0.004989 -0.022075 0.023772 0.000000 0.000000 0.000000
# 4 0.000000 0.000000 0.000000 0.028906 0.000000 0.000000
# 5 0.000000 0.000000 0.000000 0.000000 0.076256 0.000000
# 6 0.000000 0.000000 0.000000 0.000000 0.000000 0.045982
#
#
# Mechanical properties :
#
#
# Convention : Reuss Voigt Hill
#
# Bulk Modulus (GPa) = 33.60947 34.24894 33.92920
# Shear Modulus (GPa) = 15.47466 21.15604 18.31535
#
# Velocity S-wave (km/s) = 2.91339 3.40648 3.16954
# Velocity P-wave (km/s) = 5.45453 5.85300 5.65727
#
# Compressibility (1/GPa) = 0.02975352
#
# Stress axis : x y z
#
# Youngs Moduli (GPa) = 45.76163 19.88992 42.06698
#
# Poissons Ratio (x) = 0.31799 -0.20986
# Poissons Ratio (y) = 0.73161 0.92863
# Poissons Ratio (z) = -0.22829 0.43907
#
# Static dielectric constant tensor:
#      x y z
#    x 1.613720 0.000000 0.000000 
#    y 0.000000 1.633580 0.000000 
#    z 0.000000 0.000000 1.634230 
# 
# From -- ./inp_files/60096.got.cif
#   From: 2010.05.17/outbox.cif.g08.bks.cpg/sg74_31_cif.got.tgz:60096.got - 2010.06.03 17:57:02.
