data_PCOD9538694
_publ_section_title
;
Structure prediction by ZEFSAII (Michael W. Deem and Ramdas Pophale) SiO2 
 PCOD9538694
Probable space group: I M M A
;
_chemical_formula_sum "Si O2"
_cell_formula_units_Z 72
_cell_length_a 26.519714
_cell_length_b 14.049086
_cell_length_c 10.564561
_cell_angle_alpha 90.000000
_cell_angle_beta 90.000000
_cell_angle_gamma 90.000000
_cell_volume 3936.120290
_symmetry_space_group_name_H-M "I M M A"
_symmetry_group_IT_number 74
_symmetry_cell_setting 'orthorhombic'
loop_
_space_group_symop_operation_xyz
x,y,z
-x,1/2-y,z
x,-y,-z
-x,1/2+y,-z
-x,-y,-z
x,1/2+y,-z
-x,y,z
x,1/2-y,z
1/2+x,1/2+y,1/2+z
1/2-x,-y,1/2+z
1/2+x,1/2-y,1/2-z
1/2-x,y,1/2-z
1/2-x,1/2-y,1/2-z
1/2+x,y,1/2-z
1/2-x,1/2+y,1/2+z
1/2+x,-y,1/2+z
loop_
_atom_site_type_symbol
_atom_site_label
_atom_site_fract_x
_atom_site_fract_y
_atom_site_fract_z
Si Si1 0.589858 0.250000 0.728193
Si Si2 0.784605 0.037528 0.625865
Si Si3 0.606517 0.555608 0.874764
Si Si4 0.939970 0.044042 0.867926
Si Si5 0.060876 0.750000 0.528153
Si Si6 0.301450 0.250000 0.827743
O O1 0.573196 0.154300 0.657594
O O2 0.650173 0.250000 0.738227
O O3 0.570777 0.250000 0.875324
O O4 0.750000 0.033842 0.750000
O O5 0.802001 0.147474 0.603722
O O6 0.757228 0.000000 0.500000
O O7 0.834283 0.971523 0.639387
O O8 0.581112 0.515337 0.749441
O O9 0.588457 0.660951 0.906514
O O10 0.588865 0.500000 0.000000
O O11 0.000000 0.036117 0.868077
O O12 0.920703 0.000000 0.000000
O O13 0.000000 0.750000 0.547198
O O14 0.250000 0.250000 0.750000
#
# Coordination Sequence:
#
# PCOD9538694 Si02
#       6
#     8  16  16  16   8   8
#     4  12  20  41  65  91 122 168 220 252 315 398
#     4  10  21  39  64  92 124 163 208 263 315 370
#     4  11  22  40  63  92 126 161 217 269 308 372
#     4  11  24  39  60  90 128 164 204 261 320 379
#     4  12  24  37  66  96 125 167 218 265 321 382
#     4  10  20  40  63  91 120 166 209 258 306 375
#
# _framework density 18.292124000000001
#
# number of rings (size 3 to 8) (size 9 to 14) (size 15 to 20)
#    0.000    1.111    4.444    3.000    0.000    2.667 
#    0.000    3.333    0.000    0.000    0.000    0.000 
#    0.000    0.000    0.000    0.000    0.000    0.000 
#
# Total GULP energy -200802.673034 kJ/mol
# GULP energy per Si atom -5577.852029 kJ/mol
# Density = 1.825049 g / cm^3
# Si number density = 18.292124 Si / 1000 Ang^3
#
#
#
# Elastic Constant Matrix: (Units=GPa)
#
#
# Indices 1 2 3 4 5 6 
#
# 1 83.9458 50.2322 43.6256 0.0000 0.0000 0.0000
# 2 50.2322 179.2326 90.6957 0.0000 0.0000 0.0000
# 3 43.6256 90.6957 168.2213 0.0000 0.0000 0.0000
# 4 0.0000 0.0000 0.0000 36.5845 0.0000 0.0000
# 5 0.0000 0.0000 0.0000 0.0000 27.3549 0.0000
# 6 0.0000 0.0000 0.0000 0.0000 0.0000 27.8673
#
#
#
# Elastic Compliance Matrix: (Units=1/GPa)
#
#
# Indices 1 2 3 4 5 6 
#
# 1 0.014890 -0.003052 -0.002216 0.000000 0.000000 0.000000
# 2 -0.003052 0.008298 -0.003682 0.000000 0.000000 0.000000
# 3 -0.002216 -0.003682 0.008505 0.000000 0.000000 0.000000
# 4 0.000000 0.000000 0.000000 0.027334 0.000000 0.000000
# 5 0.000000 0.000000 0.000000 0.000000 0.036556 0.000000
# 6 0.000000 0.000000 0.000000 0.000000 0.000000 0.035884
#
#
# Mechanical properties :
#
#
# Convention : Reuss Voigt Hill
#
# Bulk Modulus (GPa) = 72.50471 88.94520 80.72495
# Shear Modulus (GPa) = 32.47470 34.81776 33.64623
#
# Velocity S-wave (km/s) = 4.21805 4.36756 4.29346
# Velocity P-wave (km/s) = 7.96528 8.61189 8.29489
#
# Compressibility (1/GPa) = 0.01379221
#
# Stress axis : x y z
#
# Youngs Moduli (GPa) = 67.15763 120.51072 117.58256
#
# Poissons Ratio (x) = 0.36777 0.26059
# Poissons Ratio (y) = 0.20495 0.43299
# Poissons Ratio (z) = 0.14884 0.44377
#
# Static dielectric constant tensor:
#      x y z
#    x 1.634780 0.000000 0.000000 
#    y 0.000000 1.625440 0.000000 
#    z 0.000000 0.000000 1.628280 
# 
# From -- ./inp_files/26026.got.cif
#   From: 2010.05.17/outbox.cif.g08.bks.cpg/sg74_14_cif.got.tgz:26026.got - 2010.06.03 17:57:02.
