data_PCOD9538377
_publ_section_title
;
Structure prediction by ZEFSAII (Michael W. Deem and Ramdas Pophale) SiO2 
 PCOD9538377
Probable space group: I M M A
;
_chemical_formula_sum "Si O2"
_cell_formula_units_Z 116
_cell_length_a 19.513578
_cell_length_b 15.097201
_cell_length_c 18.224426
_cell_angle_alpha 90.000000
_cell_angle_beta 90.000000
_cell_angle_gamma 90.000000
_cell_volume 5368.923359
_symmetry_space_group_name_H-M "I M M A"
_symmetry_group_IT_number 74
_symmetry_cell_setting 'orthorhombic'
loop_
_space_group_symop_operation_xyz
x,y,z
-x,1/2-y,z
x,-y,-z
-x,1/2+y,-z
-x,-y,-z
x,1/2+y,-z
-x,y,z
x,1/2-y,z
1/2+x,1/2+y,1/2+z
1/2-x,-y,1/2+z
1/2+x,1/2-y,1/2-z
1/2-x,y,1/2-z
1/2-x,1/2-y,1/2-z
1/2+x,y,1/2-z
1/2-x,1/2+y,1/2+z
1/2+x,-y,1/2+z
loop_
_atom_site_type_symbol
_atom_site_label
_atom_site_fract_x
_atom_site_fract_y
_atom_site_fract_z
Si Si1 0.701116 0.141415 0.592747
Si Si2 0.500000 0.250000 0.116861
Si Si3 0.252106 0.358289 0.430284
Si Si4 0.575451 0.067730 0.935271
Si Si5 0.421337 0.641888 0.310940
Si Si6 0.830717 0.147749 0.671605
Si Si7 0.390895 0.095461 0.146900
Si Si8 0.675742 0.352458 0.289767
O O1 0.703361 0.250000 0.593080
O O2 0.726339 0.114481 0.511957
O O3 0.625402 0.116185 0.619322
O O4 0.756954 0.107176 0.652397
O O5 0.440318 0.172983 0.120798
O O6 0.247169 0.250000 0.427515
O O7 0.180301 0.394634 0.398851
O O8 0.310155 0.385882 0.371378
O O9 0.500000 0.105082 0.950686
O O10 0.627722 0.139820 0.905545
O O11 0.575307 0.997817 0.869551
O O12 0.594234 0.000000 0.000000
O O13 0.500000 0.610250 0.310079
O O14 0.424841 0.750000 0.309973
O O15 0.376568 0.616610 0.239411
O O16 0.817968 0.250000 0.688417
O O17 0.374643 0.102482 0.232869
O O18 0.653823 0.250000 0.294419
O O19 0.750000 0.353491 0.250000
#
# Coordination Sequence:
#
# PCOD9538377 Si02
#       8
#    16   4  16  16  16  16  16  16
#     4   9  17  30  53  81 108 141 188 231 275 320
#     4  12  20  32  56  84 106 156 186 218 268 344
#     4   9  16  29  52  78 107 146 185 229 271 322
#     4  11  24  38  49  77 118 147 176 231 279 328
#     4   9  17  31  54  79 109 143 185 230 274 324
#     4  10  20  37  58  80 103 144 189 227 269 326
#     4  11  19  34  53  77 112 144 190 225 269 330
#     4   8  14  27  49  73 100 134 180 224 261 312
#
# _framework density 21.605822
#
# number of rings (size 3 to 8) (size 9 to 14) (size 15 to 20)
#    0.000    2.345    2.069    2.483    0.000    2.483 
#    1.241    4.138    1.517    0.000    0.000    0.000 
#    0.000    7.172    0.000    0.000    0.000    0.000 
#
# Total GULP energy -322984.337793 kJ/mol
# GULP energy per Si atom -5568.695479 kJ/mol
# Density = 2.155665 g / cm^3
# Si number density = 21.605822 Si / 1000 Ang^3
#
#
#
# Elastic Constant Matrix: (Units=GPa)
#
#
# Indices 1 2 3 4 5 6 
#
# 1 124.1734 0.6291 77.7306 0.0000 0.0000 0.0000
# 2 0.6291 33.0554 -1.7303 0.0000 0.0000 0.0000
# 3 77.7306 -1.7303 130.5569 0.0000 0.0000 0.0000
# 4 0.0000 0.0000 0.0000 18.0055 0.0000 0.0000
# 5 0.0000 0.0000 0.0000 0.0000 2.4194 0.0000
# 6 0.0000 0.0000 0.0000 0.0000 0.0000 5.2031
#
#
#
# Elastic Compliance Matrix: (Units=1/GPa)
#
#
# Indices 1 2 3 4 5 6 
#
# 1 0.012852 -0.000646 -0.007660 0.000000 0.000000 0.000000
# 2 -0.000646 0.030306 0.000786 0.000000 0.000000 0.000000
# 3 -0.007660 0.000786 0.012231 0.000000 0.000000 0.000000
# 4 0.000000 0.000000 0.000000 0.055539 0.000000 0.000000
# 5 0.000000 0.000000 0.000000 0.000000 0.413332 0.000000
# 6 0.000000 0.000000 0.000000 0.000000 0.000000 0.192194
#
#
# Mechanical properties :
#
#
# Convention : Reuss Voigt Hill
#
# Bulk Modulus (GPa) = 24.78405 49.00495 36.89450
# Shear Modulus (GPa) = 6.71194 19.20266 12.95730
#
# Velocity S-wave (km/s) = 1.76445 2.98446 2.45156
# Velocity P-wave (km/s) = 3.95562 5.88274 5.01266
#
# Compressibility (1/GPa) = 0.04034852
#
# Stress axis : x y z
#
# Youngs Moduli (GPa) = 77.81100 32.99711 81.76223
#
# Poissons Ratio (x) = 0.02130 0.62631
# Poissons Ratio (y) = 0.05023 -0.06426
# Poissons Ratio (z) = 0.59604 -0.02594
#
# Static dielectric constant tensor:
#      x y z
#    x 1.800230 0.000000 0.000000 
#    y 0.000000 1.790650 0.000000 
#    z 0.000000 0.000000 1.883380 
# 
# From -- ./inp_files/44261.got.cif
#   From: 2010.05.17/outbox.cif.g08.bks.cpg/sg74_23_cif.got.tgz:44261.got - 2010.06.03 17:57:02.
