data_PCOD9538179
_publ_section_title
;
Structure prediction by ZEFSAII (Michael W. Deem and Ramdas Pophale) SiO2 
 PCOD9538179
Probable space group: I M M A
;
_chemical_formula_sum "Si O2"
_cell_formula_units_Z 84
_cell_length_a 20.375069
_cell_length_b 7.734476
_cell_length_c 26.777908
_cell_angle_alpha 90.000000
_cell_angle_beta 90.000000
_cell_angle_gamma 90.000000
_cell_volume 4219.943433
_symmetry_space_group_name_H-M "I M M A"
_symmetry_group_IT_number 74
_symmetry_cell_setting 'orthorhombic'
loop_
_space_group_symop_operation_xyz
x,y,z
-x,1/2-y,z
x,-y,-z
-x,1/2+y,-z
-x,-y,-z
x,1/2+y,-z
-x,y,z
x,1/2-y,z
1/2+x,1/2+y,1/2+z
1/2-x,-y,1/2+z
1/2+x,1/2-y,1/2-z
1/2-x,y,1/2-z
1/2-x,1/2-y,1/2-z
1/2+x,y,1/2-z
1/2-x,1/2+y,1/2+z
1/2+x,-y,1/2+z
loop_
_atom_site_type_symbol
_atom_site_label
_atom_site_fract_x
_atom_site_fract_y
_atom_site_fract_z
Si Si1 0.762649 0.955803 0.839768
Si Si2 0.500000 0.750000 0.659919
Si Si3 0.620499 0.042047 0.804111
Si Si4 0.712823 0.547357 0.945502
Si Si5 0.571152 0.958321 0.088594
Si Si6 0.404816 0.451562 0.693923
O O1 0.773901 0.750000 0.841353
O O2 0.746573 0.026711 0.895661
O O3 0.696185 0.985621 0.808466
O O4 0.827457 0.040462 0.817957
O O5 0.443380 0.594635 0.662527
O O6 0.619773 0.250000 0.804989
O O7 0.584400 0.981150 0.854417
O O8 0.587885 0.991985 0.752031
O O9 0.719889 0.750000 0.940486
O O10 0.635393 0.507399 0.942024
O O11 0.738623 0.500000 0.000000
O O12 0.500000 0.021350 0.070921
O O13 0.569442 0.750000 0.089301
O O14 0.425304 0.250000 0.688287
#
# Coordination Sequence:
#
# PCOD9538179 Si02
#       6
#    16   4  16  16  16  16
#     4  10  20  36  57  84 113 144 189 239 291 337
#     4  12  26  40  54  86 118 156 188 244 272 346
#     4   9  19  33  53  81 112 152 198 238 271 330
#     4  10  21  36  55  80 109 138 183 240 284 338
#     4   9  18  33  51  73 108 154 193 231 274 322
#     4  11  23  39  59  83 117 156 195 231 286 340
#
# _framework density 19.905481000000002
#
# number of rings (size 3 to 8) (size 9 to 14) (size 15 to 20)
#    0.000    2.095    0.952    2.000    2.667    5.333 
#    0.000    0.000    0.000    0.000    0.000    0.667 
#    0.000    0.000    0.000    0.000    0.000    0.000 
#
# Total GULP energy -233892.028856 kJ/mol
# GULP energy per Si atom -5568.857830 kJ/mol
# Density = 1.986018 g / cm^3
# Si number density = 19.905481 Si / 1000 Ang^3
#
#
#
# Elastic Constant Matrix: (Units=GPa)
#
#
# Indices 1 2 3 4 5 6 
#
# 1 45.2514 2.5545 -3.3694 0.0000 0.0000 0.0000
# 2 2.5545 65.0048 0.6045 0.0000 0.0000 0.0000
# 3 -3.3694 0.6045 53.6944 0.0000 0.0000 0.0000
# 4 0.0000 0.0000 0.0000 16.0959 0.0000 0.0000
# 5 0.0000 0.0000 0.0000 0.0000 11.5284 0.0000
# 6 0.0000 0.0000 0.0000 0.0000 0.0000 17.7433
#
#
#
# Elastic Compliance Matrix: (Units=1/GPa)
#
#
# Indices 1 2 3 4 5 6 
#
# 1 0.022254 -0.000888 0.001406 0.000000 0.000000 0.000000
# 2 -0.000888 0.015420 -0.000229 0.000000 0.000000 0.000000
# 3 0.001406 -0.000229 0.018715 0.000000 0.000000 0.000000
# 4 0.000000 0.000000 0.000000 0.062127 0.000000 0.000000
# 5 0.000000 0.000000 0.000000 0.000000 0.086742 0.000000
# 6 0.000000 0.000000 0.000000 0.000000 0.000000 0.056359
#
#
# Mechanical properties :
#
#
# Convention : Reuss Voigt Hill
#
# Bulk Modulus (GPa) = 17.55375 18.16999 17.86187
# Shear Modulus (GPa) = 17.85536 20.01760 18.93648
#
# Velocity S-wave (km/s) = 2.99826 3.17461 3.08769
# Velocity P-wave (km/s) = 4.56331 4.75242 4.65882
#
# Compressibility (1/GPa) = 0.05696789
#
# Stress axis : x y z
#
# Youngs Moduli (GPa) = 44.93660 64.84877 53.43379
#
# Poissons Ratio (x) = 0.05756 -0.07515
# Poissons Ratio (y) = 0.03988 0.01225
# Poissons Ratio (z) = -0.06320 0.01487
#
# Static dielectric constant tensor:
#      x y z
#    x 1.756730 0.000000 0.000000 
#    y 0.000000 1.713770 0.000000 
#    z 0.000000 0.000000 1.828200 
# 
# From -- ./inp_files/61336.got.cif
#   From: 2010.05.17/outbox.cif.g08.bks.cpg/sg74_31_cif.got.tgz:61336.got - 2010.06.03 17:57:02.
