data_PCOD9538703
_publ_section_title
;
Structure prediction by ZEFSAII (Michael W. Deem and Ramdas Pophale) SiO2 
 PCOD9538703
Probable space group: I M M A
;
_chemical_formula_sum "Si O2"
_cell_formula_units_Z 96
_cell_length_a 13.906766
_cell_length_b 22.783385
_cell_length_c 15.330292
_cell_angle_alpha 90.000000
_cell_angle_beta 90.000000
_cell_angle_gamma 90.000000
_cell_volume 4857.298834
_symmetry_space_group_name_H-M "I M M A"
_symmetry_group_IT_number 74
_symmetry_cell_setting 'orthorhombic'
loop_
_space_group_symop_operation_xyz
x,y,z
-x,1/2-y,z
x,-y,-z
-x,1/2+y,-z
-x,-y,-z
x,1/2+y,-z
-x,y,z
x,1/2-y,z
1/2+x,1/2+y,1/2+z
1/2-x,-y,1/2+z
1/2+x,1/2-y,1/2-z
1/2-x,y,1/2-z
1/2-x,1/2-y,1/2-z
1/2+x,y,1/2-z
1/2-x,1/2+y,1/2+z
1/2+x,-y,1/2+z
loop_
_atom_site_type_symbol
_atom_site_label
_atom_site_fract_x
_atom_site_fract_y
_atom_site_fract_z
Si Si1 0.389551 0.885891 0.213052
Si Si2 0.105071 0.019106 0.354830
Si Si3 0.798771 0.444639 0.045449
Si Si4 0.116242 0.250000 0.991823
Si Si5 0.140893 0.881482 0.783958
Si Si6 0.211634 0.356824 0.890163
Si Si7 0.349849 0.750000 0.695900
O O1 0.500000 0.867889 0.202826
O O2 0.315157 0.847643 0.155700
O O3 0.355089 0.880915 0.312537
O O4 0.381272 0.954200 0.185179
O O5 0.199238 0.033332 0.410995
O O6 0.100382 0.069175 0.280415
O O7 0.000000 0.019979 0.399621
O O8 0.857089 0.409173 0.119115
O O9 0.850021 0.500000 0.000000
O O10 0.772020 0.402671 0.966681
O O11 0.157073 0.304248 0.937031
O O12 0.000000 0.250000 0.997625
O O13 0.158380 0.250000 0.090394
O O14 0.250000 0.876505 0.750000
O O15 0.104632 0.814114 0.782991
O O16 0.250000 0.750000 0.750000
#
# Coordination Sequence:
#
# PCOD9538703 Si02
#       7
#    16  16  16   8  16  16   8
#     4  10  22  41  65  94 128 167 213 264 329 395
#     4  10  21  35  56  91 130 162 203 259 316 382
#     4  11  19  33  60  89 117 159 204 248 317 383
#     4  12  26  45  68  96 130 169 219 269 317 379
#     4   9  19  34  56  82 118 161 206 255 300 376
#     4  11  23  41  66  92 124 166 213 267 325 376
#     4  10  20  40  65  86 122 172 216 255 308 374
#
# _framework density 19.764071000000001
#
# number of rings (size 3 to 8) (size 9 to 14) (size 15 to 20)
#    0.000    1.667    3.333    1.500    4.667    3.000 
#    0.000    1.250    0.000    3.500    0.000    0.000 
#    0.000    0.000    0.000    0.000    0.000    0.000 
#
# Total GULP energy -267605.960205 kJ/mol
# GULP energy per Si atom -5575.124171 kJ/mol
# Density = 1.971909 g / cm^3
# Si number density = 19.764071 Si / 1000 Ang^3
#
#
#
# Elastic Constant Matrix: (Units=GPa)
#
#
# Indices 1 2 3 4 5 6 
#
# 1 118.6861 40.5442 40.5000 0.0000 0.0000 0.0000
# 2 40.5442 85.4094 41.9806 0.0002 0.0000 -0.0003
# 3 40.5000 41.9806 123.2047 0.0001 0.0000 0.0001
# 4 0.0000 0.0002 0.0001 181.4735 0.0000 -0.0017
# 5 0.0000 0.0000 0.0000 0.0000 0.5628 0.0000
# 6 0.0000 -0.0003 0.0001 -0.0017 0.0000 -44.1755
#
#
#
# Elastic Compliance Matrix: (Units=1/GPa)
#
#
# Indices 1 2 3 4 5 6 
#
# 1 0.010492 -0.003946 -0.002104 0.000000 0.000000 0.000000
# 2 -0.003946 0.015548 -0.004001 0.000000 0.000000 0.000000
# 3 -0.002104 -0.004001 0.010171 0.000000 0.000000 0.000000
# 4 0.000000 0.000000 0.000000 0.005510 0.000000 0.000000
# 5 0.000000 0.000000 0.000000 0.000000 1.776751 0.000001
# 6 0.000000 0.000000 0.000000 0.000000 0.000001 -0.022637
#
#
# Mechanical properties :
#
#
# Convention : Reuss Voigt Hill
#
# Bulk Modulus (GPa) = 62.07679 63.70553 62.89116
# Shear Modulus (GPa) = 2.74528 41.19052 21.96790
#
# Velocity S-wave (km/s) = 1.17985 4.57016 3.33754
# Velocity P-wave (km/s) = 5.77349 7.75574 6.83683
#
# Compressibility (1/GPa) = 0.01610908
#
# Stress axis : x y z
#
# Youngs Moduli (GPa) = 95.31375 64.31712 98.31460
#
# Poissons Ratio (x) = 0.25381 0.20688
# Poissons Ratio (y) = 0.37612 0.39332
# Poissons Ratio (z) = 0.20056 0.25731
#
# Static dielectric constant tensor:
#      x y z
#    x 1.712370 0.000000 0.000000 
#    y 0.000000 1.701150 0.000000 
#    z 0.000000 0.000000 1.676080 
# 
# From -- ./inp_files/32435.got.cif
#   From: 2010.05.17/outbox.cif.g08.bks.cpg/sg74_17_cif.got.tgz:32435.got - 2010.06.03 17:57:02.
