data_PCOD9538491
_publ_section_title
;
Structure prediction by ZEFSAII (Michael W. Deem and Ramdas Pophale) SiO2 
 PCOD9538491
Probable space group: I M M A
;
_chemical_formula_sum "Si O2"
_cell_formula_units_Z 104
_cell_length_a 9.733847
_cell_length_b 24.278237
_cell_length_c 21.347199
_cell_angle_alpha 90.000000
_cell_angle_beta 90.000000
_cell_angle_gamma 90.000000
_cell_volume 5044.783824
_symmetry_space_group_name_H-M "I M M A"
_symmetry_group_IT_number 74
_symmetry_cell_setting 'orthorhombic'
loop_
_space_group_symop_operation_xyz
x,y,z
-x,1/2-y,z
x,-y,-z
-x,1/2+y,-z
-x,-y,-z
x,1/2+y,-z
-x,y,z
x,1/2-y,z
1/2+x,1/2+y,1/2+z
1/2-x,-y,1/2+z
1/2+x,1/2-y,1/2-z
1/2-x,y,1/2-z
1/2-x,1/2-y,1/2-z
1/2+x,y,1/2-z
1/2-x,1/2+y,1/2+z
1/2+x,-y,1/2+z
loop_
_atom_site_type_symbol
_atom_site_label
_atom_site_fract_x
_atom_site_fract_y
_atom_site_fract_z
Si Si1 0.262560 0.685726 0.668065
Si Si2 0.500000 0.848810 0.767591
Si Si3 0.335083 0.047647 0.049495
Si Si4 0.344226 0.348141 0.467545
Si Si5 0.158537 0.384392 0.690152
Si Si6 0.841682 0.688034 0.105503
Si Si7 0.342126 0.482277 0.190418
O O1 0.232861 0.750000 0.682418
O O2 0.380329 0.662915 0.713647
O O3 0.312452 0.682292 0.596889
O O4 0.122803 0.652331 0.679039
O O5 0.500000 0.051443 0.049574
O O6 0.262662 0.102540 0.027473
O O7 0.293614 0.036110 0.121825
O O8 0.297690 0.000000 0.000000
O O9 0.500000 0.370182 0.464278
O O10 0.334808 0.312891 0.530399
O O11 0.250000 0.368891 0.750000
O O12 0.235424 0.355828 0.632689
O O13 0.157732 0.451025 0.686903
O O14 0.000000 0.366904 0.695254
O O15 0.812656 0.750000 0.128365
O O16 0.000000 0.673785 0.122803
O O17 0.500000 0.462691 0.202883
O O18 0.250000 0.465720 0.250000
#
# Coordination Sequence:
#
# PCOD9538491 Si02
#       7
#    16   8  16  16  16  16  16
#     4  11  20  37  58  84 117 155 200 244 289 342
#     4  10  21  36  60  84 112 158 204 242 288 342
#     4  10  22  42  63  83 112 151 193 241 295 351
#     4  11  24  39  58  87 115 155 198 242 297 343
#     4  10  20  37  64  93 119 150 189 232 284 348
#     4  10  22  40  59  83 118 157 195 238 286 340
#     4   9  19  37  60  87 116 149 186 232 289 345
#
# _framework density 20.615354
#
# number of rings (size 3 to 8) (size 9 to 14) (size 15 to 20)
#    0.000    1.846    0.769    3.692    1.077    4.615 
#    2.769    0.000    0.000    0.000    0.000    0.000 
#    0.000    0.000    0.000    0.000    0.000    0.000 
#
# Total GULP energy -289610.476167 kJ/mol
# GULP energy per Si atom -5569.432234 kJ/mol
# Density = 2.056843 g / cm^3
# Si number density = 20.615354 Si / 1000 Ang^3
#
#
#
# Elastic Constant Matrix: (Units=GPa)
#
#
# Indices 1 2 3 4 5 6 
#
# 1 96.4308 9.0956 25.3002 0.0000 0.0000 0.0000
# 2 9.0956 28.4876 5.2484 0.0000 0.0000 0.0000
# 3 25.3002 5.2484 90.1088 0.0000 0.0000 0.0000
# 4 0.0000 0.0000 0.0000 14.6157 0.0000 0.0000
# 5 0.0000 0.0000 0.0000 0.0000 34.5378 0.0000
# 6 0.0000 0.0000 0.0000 0.0000 0.0000 -10.3243
#
#
#
# Elastic Compliance Matrix: (Units=1/GPa)
#
#
# Indices 1 2 3 4 5 6 
#
# 1 0.011459 -0.003099 -0.003037 0.000000 0.000000 0.000000
# 2 -0.003099 0.036322 -0.001245 0.000000 0.000000 0.000000
# 3 -0.003037 -0.001245 0.012023 0.000000 0.000000 0.000000
# 4 0.000000 0.000000 0.000000 0.068420 0.000000 0.000000
# 5 0.000000 0.000000 0.000000 0.000000 0.028954 0.000000
# 6 0.000000 0.000000 0.000000 0.000000 0.000000 -0.096859
#
#
# Mechanical properties :
#
#
# Convention : Reuss Voigt Hill
#
# Bulk Modulus (GPa) = 22.20199 32.70175 27.45187
# Shear Modulus (GPa) = 55.49656 19.45804 37.47730
#
# Velocity S-wave (km/s) = 5.19408 3.07557 4.26835
# Velocity P-wave (km/s) = 6.83844 5.33942 6.13489
#
# Compressibility (1/GPa) = 0.04504101
#
# Stress axis : x y z
#
# Youngs Moduli (GPa) = 87.26574 27.53152 83.17443
#
# Poissons Ratio (x) = 0.08533 0.25260
# Poissons Ratio (y) = 0.27046 0.10359
# Poissons Ratio (z) = 0.26502 0.03429
#
# Static dielectric constant tensor:
#      x y z
#    x 1.729170 0.000000 0.000000 
#    y 0.000000 1.795190 0.000000 
#    z 0.000000 0.000000 1.782050 
# 
# From -- ./inp_files/49344.got.cif
#   From: 2010.05.17/outbox.cif.g08.bks.cpg/sg74_25_cif.got.tgz:49344.got - 2010.06.03 17:57:02.
