data_PCOD9538289
_publ_section_title
;
Structure prediction by ZEFSAII (Michael W. Deem and Ramdas Pophale) SiO2 
 PCOD9538289
Probable space group: I M M A
;
_chemical_formula_sum "Si O2"
_cell_formula_units_Z 96
_cell_length_a 8.636173
_cell_length_b 28.192129
_cell_length_c 21.068966
_cell_angle_alpha 90.000000
_cell_angle_beta 90.000000
_cell_angle_gamma 90.000000
_cell_volume 5129.705466
_symmetry_space_group_name_H-M "I M M A"
_symmetry_group_IT_number 74
_symmetry_cell_setting 'orthorhombic'
loop_
_space_group_symop_operation_xyz
x,y,z
-x,1/2-y,z
x,-y,-z
-x,1/2+y,-z
-x,-y,-z
x,1/2+y,-z
-x,y,z
x,1/2-y,z
1/2+x,1/2+y,1/2+z
1/2-x,-y,1/2+z
1/2+x,1/2-y,1/2-z
1/2-x,y,1/2-z
1/2-x,1/2-y,1/2-z
1/2+x,y,1/2-z
1/2-x,1/2+y,1/2+z
1/2+x,-y,1/2+z
loop_
_atom_site_type_symbol
_atom_site_label
_atom_site_fract_x
_atom_site_fract_y
_atom_site_fract_z
Si Si1 0.685879 0.647142 0.319159
Si Si2 0.313513 0.463292 0.681488
Si Si3 0.185646 0.695221 0.444272
Si Si4 0.185466 0.694459 0.681045
Si Si5 0.314010 0.636340 0.562472
Si Si6 0.810966 0.973197 0.936284
O O1 0.500000 0.650189 0.318955
O O2 0.750000 0.661033 0.250000
O O3 0.730508 0.591745 0.329792
O O4 0.753150 0.677809 0.376309
O O5 0.500000 0.464729 0.683289
O O6 0.250000 0.477639 0.750000
O O7 0.259408 0.497446 0.625277
O O8 0.230490 0.750000 0.455276
O O9 0.252902 0.662496 0.499822
O O10 0.000000 0.692293 0.445267
O O11 0.226886 0.750000 0.671241
O O12 0.250000 0.680271 0.750000
O O13 0.253998 0.663470 0.624524
O O14 0.000000 0.690843 0.681123
O O15 0.500000 0.637292 0.561626
O O16 0.262569 0.581485 0.563843
O O17 0.000000 0.973590 0.935954
O O18 0.760998 0.000000 0.000000
#
# Coordination Sequence:
#
# PCOD9538289 Si02
#       6
#    16  16  16  16  16  16
#     4  10  20  36  60  86 112 145 183 225 273 325
#     4   9  18  34  56  81 110 143 178 218 266 321
#     4  11  24  40  57  79 110 147 186 230 277 326
#     4  10  21  38  59  82 111 147 185 227 275 327
#     4  11  22  36  58  85 112 145 184 228 277 328
#     4   9  18  34  55  79 108 142 181 223 268 320
#
# _framework density 18.714524999999998
#
# number of rings (size 3 to 8) (size 9 to 14) (size 15 to 20)
#    0.000    2.000    0.000    3.500    0.000    8.667 
#    0.000    3.333    0.000    3.500    0.000    0.000 
#    0.000    0.000    0.000    0.000    0.000    0.000 
#
# Total GULP energy -268172.971690 kJ/mol
# GULP energy per Si atom -5586.936910 kJ/mol
# Density = 1.867193 g / cm^3
# Si number density = 18.714525 Si / 1000 Ang^3
#
#
#
# Elastic Constant Matrix: (Units=GPa)
#
#
# Indices 1 2 3 4 5 6 
#
# 1 27.1551 12.6445 11.9466 0.0000 0.0000 0.0000
# 2 12.6445 41.1613 16.3022 -0.0001 0.0000 0.0000
# 3 11.9466 16.3022 76.3947 -0.0001 0.0000 0.0000
# 4 0.0000 -0.0001 -0.0001 42.4501 0.0000 0.0000
# 5 0.0000 0.0000 0.0000 0.0000 39.7395 0.0000
# 6 0.0000 0.0000 0.0000 0.0000 0.0000 64.3747
#
#
#
# Elastic Compliance Matrix: (Units=1/GPa)
#
#
# Indices 1 2 3 4 5 6 
#
# 1 0.044282 -0.011863 -0.004393 0.000000 0.000000 0.000000
# 2 -0.011863 0.029716 -0.004486 0.000000 0.000000 0.000000
# 3 -0.004393 -0.004486 0.014734 0.000000 0.000000 0.000000
# 4 0.000000 0.000000 0.000000 0.023557 0.000000 0.000000
# 5 0.000000 0.000000 0.000000 0.000000 0.025164 0.000000
# 6 0.000000 0.000000 0.000000 0.000000 0.000000 0.015534
#
#
# Mechanical properties :
#
#
# Convention : Reuss Voigt Hill
#
# Bulk Modulus (GPa) = 21.16531 25.16640 23.16585
# Shear Modulus (GPa) = 23.78445 36.23406 30.00925
#
# Velocity S-wave (km/s) = 3.56885 4.40494 4.00875
# Velocity P-wave (km/s) = 5.32131 6.27280 5.81654
#
# Compressibility (1/GPa) = 0.04724713
#
# Stress axis : x y z
#
# Youngs Moduli (GPa) = 22.58238 33.65223 67.86919
#
# Poissons Ratio (x) = 0.39923 0.29817
# Poissons Ratio (y) = 0.26790 0.30446
# Poissons Ratio (z) = 0.09921 0.15096
#
# Static dielectric constant tensor:
#      x y z
#    x 1.635450 0.000000 0.000000 
#    y 0.000000 1.638600 0.000000 
#    z 0.000000 0.000000 1.609780 
# 
# From -- ./inp_files/49038.got.cif
#   From: 2010.05.17/outbox.cif.g08.bks.cpg/sg74_25_cif.got.tgz:49038.got - 2010.06.03 17:57:02.
