data_PCOD9538217
_publ_section_title
;
Structure prediction by ZEFSAII (Michael W. Deem and Ramdas Pophale) SiO2 
 PCOD9538217
Probable space group: I M M A
;
_chemical_formula_sum "Si O2"
_cell_formula_units_Z 100
_cell_length_a 32.858260
_cell_length_b 7.438638
_cell_length_c 17.038837
_cell_angle_alpha 90.000000
_cell_angle_beta 90.000000
_cell_angle_gamma 90.000000
_cell_volume 4164.644491
_symmetry_space_group_name_H-M "I M M A"
_symmetry_group_IT_number 74
_symmetry_cell_setting 'orthorhombic'
loop_
_space_group_symop_operation_xyz
x,y,z
-x,1/2-y,z
x,-y,-z
-x,1/2+y,-z
-x,-y,-z
x,1/2+y,-z
-x,y,z
x,1/2-y,z
1/2+x,1/2+y,1/2+z
1/2-x,-y,1/2+z
1/2+x,1/2-y,1/2-z
1/2-x,y,1/2-z
1/2-x,1/2-y,1/2-z
1/2+x,y,1/2-z
1/2-x,1/2+y,1/2+z
1/2+x,-y,1/2+z
loop_
_atom_site_type_symbol
_atom_site_label
_atom_site_fract_x
_atom_site_fract_y
_atom_site_fract_z
Si Si1 0.545733 0.041669 0.273711
Si Si2 0.500000 0.750000 0.923073
Si Si3 0.180583 0.469471 0.807500
Si Si4 0.339674 0.530959 0.129859
Si Si5 0.604742 0.462498 0.591428
Si Si6 0.747826 0.464489 0.914061
Si Si7 0.928710 0.544203 0.392180
O O1 0.500000 0.970509 0.278233
O O2 0.543285 0.250000 0.249825
O O3 0.567804 0.032948 0.356425
O O4 0.569169 0.947963 0.203241
O O5 0.535844 0.590306 0.917938
O O6 0.181937 0.250000 0.805638
O O7 0.167200 0.525016 0.720661
O O8 0.146311 0.528826 0.869197
O O9 0.223706 0.530010 0.843176
O O10 0.341266 0.750000 0.128560
O O11 0.298368 0.467090 0.088542
O O12 0.382798 0.475331 0.093477
O O13 0.601897 0.500000 0.500000
O O14 0.604371 0.250000 0.602230
O O15 0.745413 0.250000 0.904541
O O16 0.766087 0.500000 0.000000
O O17 0.935060 0.750000 0.420464
#
# Coordination Sequence:
#
# PCOD9538217 Si02
#       7
#    16   4  16  16  16  16  16
#     4  11  21  36  54  77 107 144 193 250 307 358
#     4  12  22  36  56  94 126 156 198 248 310 362
#     4   9  17  32  57  83 110 150 201 250 293 346
#     4   9  18  34  59  88 115 154 202 246 297 352
#     4  11  22  35  51  75 106 150 199 246 303 359
#     4  10  20  36  58  85 121 155 196 242 297 366
#     4  11  20  35  58  87 122 155 199 250 302 363
#
# _framework density 24.011652000000002
#
# number of rings (size 3 to 8) (size 9 to 14) (size 15 to 20)
#    0.000    1.760    3.200    2.160    0.000    3.200 
#    1.440    0.800    1.760    0.960    0.000    0.560 
#    0.000    0.000    0.000    0.000    0.000    0.320 
#
# Total GULP energy -279176.967527 kJ/mol
# GULP energy per Si atom -5583.539351 kJ/mol
# Density = 2.395700 g / cm^3
# Si number density = 24.011652 Si / 1000 Ang^3
#
#
#
# Elastic Constant Matrix: (Units=GPa)
#
#
# Indices 1 2 3 4 5 6 
#
# 1 152.5736 21.1025 31.1672 0.0000 0.0000 0.0000
# 2 21.1025 106.8928 -1.7517 0.0000 0.0000 0.0000
# 3 31.1672 -1.7517 130.8504 0.0000 0.0000 0.0000
# 4 0.0000 0.0000 0.0000 15.3660 0.0000 0.0000
# 5 0.0000 0.0000 0.0000 0.0000 -12.9029 0.0000
# 6 0.0000 0.0000 0.0000 0.0000 0.0000 46.2782
#
#
#
# Elastic Compliance Matrix: (Units=1/GPa)
#
#
# Indices 1 2 3 4 5 6 
#
# 1 0.007101 -0.001430 -0.001711 0.000000 0.000000 0.000000
# 2 -0.001430 0.009645 0.000470 0.000000 0.000000 0.000000
# 3 -0.001711 0.000470 0.008056 0.000000 0.000000 0.000000
# 4 0.000000 0.000000 0.000000 0.065079 0.000000 0.000000
# 5 0.000000 0.000000 0.000000 0.000000 -0.077502 0.000000
# 6 0.000000 0.000000 0.000000 0.000000 0.000000 0.021608
#
#
# Mechanical properties :
#
#
# Convention : Reuss Voigt Hill
#
# Bulk Modulus (GPa) = 51.38511 54.59477 52.98994
# Shear Modulus (GPa) = 109.13091 32.40150 70.76620
#
# Velocity S-wave (km/s) = 6.74891 3.67741 5.43467
# Velocity P-wave (km/s) = 9.06515 6.38884 7.84201
#
# Compressibility (1/GPa) = 0.01946089
#
# Stress axis : x y z
#
# Youngs Moduli (GPa) = 140.81652 103.67884 124.13012
#
# Poissons Ratio (x) = 0.14826 0.21234
# Poissons Ratio (y) = 0.20137 -0.05831
# Poissons Ratio (z) = 0.24089 -0.04870
#
# Static dielectric constant tensor:
#      x y z
#    x 1.918980 0.000000 0.000000 
#    y 0.000000 1.977160 0.000000 
#    z 0.000000 0.000000 1.819440 
# 
# From -- ./inp_files/55675.got.cif
#   From: 2010.05.17/outbox.cif.g08.bks.cpg/sg74_28_cif.got.tgz:55675.got - 2010.06.03 17:57:02.
