data_PCOD9538452
_publ_section_title
;
Structure prediction by ZEFSAII (Michael W. Deem and Ramdas Pophale) SiO2 
 PCOD9538452
Probable space group: I M M A
;
_chemical_formula_sum "Si O2"
_cell_formula_units_Z 92
_cell_length_a 21.723704
_cell_length_b 15.315470
_cell_length_c 13.476227
_cell_angle_alpha 90.000000
_cell_angle_beta 90.000000
_cell_angle_gamma 90.000000
_cell_volume 4483.658463
_symmetry_space_group_name_H-M "I M M A"
_symmetry_group_IT_number 74
_symmetry_cell_setting 'orthorhombic'
loop_
_space_group_symop_operation_xyz
x,y,z
-x,1/2-y,z
x,-y,-z
-x,1/2+y,-z
-x,-y,-z
x,1/2+y,-z
-x,y,z
x,1/2-y,z
1/2+x,1/2+y,1/2+z
1/2-x,-y,1/2+z
1/2+x,1/2-y,1/2-z
1/2-x,y,1/2-z
1/2-x,1/2-y,1/2-z
1/2+x,y,1/2-z
1/2-x,1/2+y,1/2+z
1/2+x,-y,1/2+z
loop_
_atom_site_type_symbol
_atom_site_label
_atom_site_fract_x
_atom_site_fract_y
_atom_site_fract_z
Si Si1 0.680009 0.854729 0.525066
Si Si2 0.684404 0.646437 0.888836
Si Si3 0.895654 0.897738 0.794814
Si Si4 0.812024 0.853810 0.200092
Si Si5 0.932968 0.577396 0.295940
Si Si6 0.605918 0.000000 0.000000
Si Si7 0.500000 0.750000 0.729939
O O1 0.669930 0.750000 0.522653
O O2 0.745245 0.868395 0.579566
O O3 0.626974 0.893598 0.592862
O O4 0.681029 0.888170 0.412114
O O5 0.671398 0.750000 0.905339
O O6 0.662795 0.622544 0.777507
O O7 0.645475 0.579738 0.955746
O O8 0.946178 0.825386 0.771920
O O9 0.923849 0.990721 0.768969
O O10 0.802899 0.750000 0.189899
O O11 0.750000 0.891031 0.250000
O O12 0.872307 0.868303 0.267058
O O13 0.930114 0.542992 0.408768
O O14 0.000000 0.618445 0.277315
#
# Coordination Sequence:
#
# PCOD9538452 Si02
#       7
#    16  16  16  16  16   8   4
#     4  10  20  37  61  93 117 155 205 254 305 365
#     4  10  20  37  62  89 121 153 202 257 312 365
#     4  11  22  37  62  90 124 165 199 250 309 370
#     4  10  23  44  67  87 123 167 207 252 309 363
#     4  11  24  42  60  92 124 159 206 258 305 367
#     4  10  23  38  62  90 122 159 200 252 315 368
#     4  12  20  40  58  84 132 170 202 236 316 374
#
# _framework density 20.518958000000001
#
# number of rings (size 3 to 8) (size 9 to 14) (size 15 to 20)
#    0.000    1.565    2.609    1.826    0.000    8.696 
#    1.565    0.870    0.000    0.000    0.000    0.000 
#    0.000    0.000    0.000    0.000    0.000    0.000 
#
# Total GULP energy -256319.553764 kJ/mol
# GULP energy per Si atom -5572.164212 kJ/mol
# Density = 2.047226 g / cm^3
# Si number density = 20.518958 Si / 1000 Ang^3
#
#
#
# Elastic Constant Matrix: (Units=GPa)
#
#
# Indices 1 2 3 4 5 6 
#
# 1 89.3188 -9.6878 52.6221 0.0000 0.0000 0.0000
# 2 -9.6878 23.3972 -6.4783 0.0000 0.0000 0.0000
# 3 52.6221 -6.4783 129.8398 0.0000 0.0000 0.0000
# 4 0.0000 0.0000 0.0000 13.7906 0.0000 0.0000
# 5 0.0000 0.0000 0.0000 0.0000 -18.7232 0.0000
# 6 0.0000 0.0000 0.0000 0.0000 0.0000 -29.2091
#
#
#
# Elastic Compliance Matrix: (Units=1/GPa)
#
#
# Indices 1 2 3 4 5 6 
#
# 1 0.015191 0.004649 -0.005925 0.000000 0.000000 0.000000
# 2 0.004649 0.044762 0.000349 0.000000 0.000000 0.000000
# 3 -0.005925 0.000349 0.010120 0.000000 0.000000 0.000000
# 4 0.000000 0.000000 0.000000 0.072513 0.000000 0.000000
# 5 0.000000 0.000000 0.000000 0.000000 -0.053410 0.000000
# 6 0.000000 0.000000 0.000000 0.000000 0.000000 -0.034236
#
#
# Mechanical properties :
#
#
# Convention : Reuss Voigt Hill
#
# Bulk Modulus (GPa) = 14.65834 35.05198 24.85516
# Shear Modulus (GPa) = 62.86716 6.91165 34.88941
#
# Velocity S-wave (km/s) = 5.54122 1.83732 4.12800
# Velocity P-wave (km/s) = 6.93537 4.64982 5.90425
#
# Compressibility (1/GPa) = 0.06822054
#
# Stress axis : x y z
#
# Youngs Moduli (GPa) = 65.83030 22.34046 98.81092
#
# Poissons Ratio (x) = -0.10387 0.58541
# Poissons Ratio (y) = -0.30607 -0.03449
# Poissons Ratio (z) = 0.39001 -0.00780
#
# Static dielectric constant tensor:
#      x y z
#    x 1.735600 0.000000 0.000000 
#    y 0.000000 1.732640 0.000000 
#    z 0.000000 0.000000 1.747390 
# 
# From -- ./inp_files/23727.got.cif
#   From: 2010.05.17/outbox.cif.g08.bks.cpg/sg74_12_cif.got.tgz:23727.got - 2010.06.03 17:57:02.
