data_PCOD9538899
_publ_section_title
;
Structure prediction by ZEFSAII (Michael W. Deem and Ramdas Pophale) SiO2 
 PCOD9538899
Probable space group: I M M A
;
_chemical_formula_sum "Si O2"
_cell_formula_units_Z 72
_cell_length_a 8.781802
_cell_length_b 29.995596
_cell_length_c 15.503600
_cell_angle_alpha 90.000000
_cell_angle_beta 90.000000
_cell_angle_gamma 90.000000
_cell_volume 4083.886762
_symmetry_space_group_name_H-M "I M M A"
_symmetry_group_IT_number 74
_symmetry_cell_setting 'orthorhombic'
loop_
_space_group_symop_operation_xyz
x,y,z
-x,1/2-y,z
x,-y,-z
-x,1/2+y,-z
-x,-y,-z
x,1/2+y,-z
-x,y,z
x,1/2-y,z
1/2+x,1/2+y,1/2+z
1/2-x,-y,1/2+z
1/2+x,1/2-y,1/2-z
1/2-x,y,1/2-z
1/2-x,1/2-y,1/2-z
1/2+x,y,1/2-z
1/2-x,1/2+y,1/2+z
1/2+x,-y,1/2+z
loop_
_atom_site_type_symbol
_atom_site_label
_atom_site_fract_x
_atom_site_fract_y
_atom_site_fract_z
Si Si1 0.818514 0.037377 0.342925
Si Si2 0.182141 0.432007 0.656817
Si Si3 0.184382 0.797875 0.991041
Si Si4 0.181140 0.250000 0.843764
Si Si5 0.316788 0.604262 0.517802
O O1 0.750000 0.049672 0.250000
O O2 0.748362 0.067759 0.417130
O O3 0.000000 0.042670 0.341792
O O4 0.785654 0.984879 0.356835
O O5 0.250000 0.419621 0.750000
O O6 0.258333 0.406257 0.578043
O O7 0.000000 0.425986 0.656618
O O8 0.235818 0.750000 0.952017
O O9 0.222290 0.791358 0.093037
O O10 0.236605 0.845513 0.957993
O O11 0.000000 0.798135 0.985183
O O12 0.250000 0.250000 0.750000
O O13 0.000000 0.250000 0.834613
O O14 0.500000 0.602765 0.519354
#
# Coordination Sequence:
#
# PCOD9538899 Si02
#       5
#    16  16  16   8  16
#     4  10  21  37  55  76 104 137 174 217 263 312
#     4  10  21  36  52  74 107 142 175 214 258 308
#     4   7  15  31  48  68  97 132 168 205 248 298
#     4   8  14  28  46  64  91 126 163 200 241 290
#     4  11  20  32  55  81 105 138 175 214 261 312
#
# _framework density 17.630264
#
# number of rings (size 3 to 8) (size 9 to 14) (size 15 to 20)
#    0.667    2.000    0.000    2.667    0.000    6.222 
#    0.000    4.444    0.000    0.667    0.000    0.000 
#    0.000    0.000    0.000    0.000    0.000    0.000 
#
# Total GULP energy -200414.511357 kJ/mol
# GULP energy per Si atom -5567.069760 kJ/mol
# Density = 1.759014 g / cm^3
# Si number density = 17.630264 Si / 1000 Ang^3
#
#
#
# Elastic Constant Matrix: (Units=GPa)
#
#
# Indices 1 2 3 4 5 6 
#
# 1 32.1329 27.6525 15.4470 0.0000 0.0000 0.0000
# 2 27.6525 71.4252 32.2066 0.0000 0.0000 0.0000
# 3 15.4470 32.2066 47.5164 0.0000 0.0000 -0.0001
# 4 0.0000 0.0000 0.0000 3.4490 0.0000 -0.0001
# 5 0.0000 0.0000 0.0000 0.0000 31.3855 0.0000
# 6 0.0000 0.0000 -0.0001 -0.0001 0.0000 7.1572
#
#
#
# Elastic Compliance Matrix: (Units=1/GPa)
#
#
# Indices 1 2 3 4 5 6 
#
# 1 0.047263 -0.016374 -0.004266 0.000000 0.000000 0.000000
# 2 -0.016374 0.025836 -0.012189 0.000000 0.000000 0.000000
# 3 -0.004266 -0.012189 0.030694 0.000000 0.000000 0.000000
# 4 0.000000 0.000000 0.000000 0.289942 0.000000 0.000003
# 5 0.000000 0.000000 0.000000 0.000000 0.031862 0.000000
# 6 0.000000 0.000000 0.000000 0.000003 0.000000 0.139720
#
#
# Mechanical properties :
#
#
# Convention : Reuss Voigt Hill
#
# Bulk Modulus (GPa) = 26.22294 33.52075 29.87185
# Shear Modulus (GPa) = 7.76777 13.44955 10.60866
#
# Velocity S-wave (km/s) = 2.10131 2.76500 2.45568
# Velocity P-wave (km/s) = 4.55998 5.40815 5.00208
#
# Compressibility (1/GPa) = 0.03813455
#
# Stress axis : x y z
#
# Youngs Moduli (GPa) = 21.15836 38.70565 32.58011
#
# Poissons Ratio (x) = 0.63378 0.13899
# Poissons Ratio (y) = 0.34645 0.39711
# Poissons Ratio (z) = 0.09026 0.47177
#
# Static dielectric constant tensor:
#      x y z
#    x 1.591680 0.000000 0.000000 
#    y 0.000000 1.645450 0.000000 
#    z 0.000000 0.000000 1.574110 
# 
# From -- ./inp_files/29205.got.cif
#   From: 2010.05.17/outbox.cif.g08.bks.cpg/sg74_15_cif.got.tgz:29205.got - 2010.06.03 17:57:02.
