data_PCOD9538275
_publ_section_title
;
Structure prediction by ZEFSAII (Michael W. Deem and Ramdas Pophale) SiO2 
 PCOD9538275
Probable space group: I M M A
;
_chemical_formula_sum "Si O2"
_cell_formula_units_Z 88
_cell_length_a 32.499881
_cell_length_b 24.045608
_cell_length_c 5.542505
_cell_angle_alpha 90.000000
_cell_angle_beta 90.000000
_cell_angle_gamma 90.000000
_cell_volume 4331.353474
_symmetry_space_group_name_H-M "I M M A"
_symmetry_group_IT_number 74
_symmetry_cell_setting 'orthorhombic'
loop_
_space_group_symop_operation_xyz
x,y,z
-x,1/2-y,z
x,-y,-z
-x,1/2+y,-z
-x,-y,-z
x,1/2+y,-z
-x,y,z
x,1/2-y,z
1/2+x,1/2+y,1/2+z
1/2-x,-y,1/2+z
1/2+x,1/2-y,1/2-z
1/2-x,y,1/2-z
1/2-x,1/2-y,1/2-z
1/2+x,y,1/2-z
1/2-x,1/2+y,1/2+z
1/2+x,-y,1/2+z
loop_
_atom_site_type_symbol
_atom_site_label
_atom_site_fract_x
_atom_site_fract_y
_atom_site_fract_z
Si Si1 0.044996 0.594377 0.677131
Si Si2 0.405065 0.315182 0.436075
Si Si3 0.813530 0.184999 0.210210
Si Si4 0.616739 0.906812 0.202402
Si Si5 0.294176 0.376344 0.798885
Si Si6 0.427177 0.000000 0.500000
O O1 0.057140 0.648756 0.833665
O O2 0.084519 0.587256 0.510262
O O3 0.000000 0.601875 0.561837
O O4 0.045166 0.537392 0.826688
O O5 0.413805 0.250000 0.464892
O O6 0.363532 0.320614 0.273350
O O7 0.391866 0.346190 0.681613
O O8 0.803805 0.250000 0.196638
O O9 0.793545 0.159861 0.453223
O O10 0.801829 0.157365 0.952707
O O11 0.665085 0.912820 0.159265
O O12 0.602343 0.954291 0.383550
O O13 0.250000 0.404017 0.750000
#
# Coordination Sequence:
#
# PCOD9538275 Si02
#       6
#    16  16  16  16  16   8
#     4  11  22  39  64  93 120 157 209 266 326 382
#     4   9  20  38  59  86 127 171 206 249 311 384
#     4  10  20  36  59  89 126 170 217 261 310 370
#     4  10  22  40  62  89 121 164 207 264 320 380
#     4  11  22  37  60  90 128 168 211 264 318 380
#     4  10  23  42  66  86 118 154 208 272 329 378
#
# _framework density 20.316974999999999
#
# number of rings (size 3 to 8) (size 9 to 14) (size 15 to 20)
#    0.000    1.818    1.818    1.909    0.000    8.364 
#    0.000    0.000    4.000    0.000    0.000    0.000 
#    0.000    0.000    0.000    0.000    0.000    0.000 
#
# Total GULP energy -245179.211046 kJ/mol
# GULP energy per Si atom -5572.254796 kJ/mol
# Density = 2.027073 g / cm^3
# Si number density = 20.316975 Si / 1000 Ang^3
#
#
#
# Elastic Constant Matrix: (Units=GPa)
#
#
# Indices 1 2 3 4 5 6 
#
# 1 155.5133 44.0473 38.5920 0.0000 0.0000 0.0000
# 2 44.0473 -65.7774 9.3342 0.0000 0.0000 0.0000
# 3 38.5920 9.3342 84.7326 0.0000 0.0000 0.0000
# 4 0.0000 0.0000 0.0000 6.6390 0.0000 0.0000
# 5 0.0000 0.0000 0.0000 0.0000 15.4806 0.0000
# 6 0.0000 0.0000 0.0000 0.0000 0.0000 -9.7604
#
#
#
# Elastic Compliance Matrix: (Units=1/GPa)
#
#
# Indices 1 2 3 4 5 6 
#
# 1 0.006186 0.003685 -0.003224 0.000000 0.000000 0.000000
# 2 0.003685 -0.012773 -0.000271 0.000000 0.000000 0.000000
# 3 -0.003224 -0.000271 0.013300 0.000000 0.000000 0.000000
# 4 0.000000 0.000000 0.000000 0.150625 0.000000 0.000000
# 5 0.000000 0.000000 0.000000 0.000000 0.064597 0.000000
# 6 0.000000 0.000000 0.000000 0.000000 0.000000 -0.102454
#
#
# Mechanical properties :
#
#
# Convention : Reuss Voigt Hill
#
# Bulk Modulus (GPa) = 140.97381 39.82395 90.39888
# Shear Modulus (GPa) = 41.16434 7.97150 24.56792
#
# Velocity S-wave (km/s) = 4.50611 1.98295 3.48117
# Velocity P-wave (km/s) = 9.82910 4.98865 7.79416
#
# Compressibility (1/GPa) = 0.00709352
#
# Stress axis : x y z
#
# Youngs Moduli (GPa) = 161.64269 -78.28724 75.18823
#
# Poissons Ratio (x) = 0.28851 0.24238
# Poissons Ratio (y) = -0.59570 0.02040
# Poissons Ratio (z) = 0.52108 -0.02124
#
# Static dielectric constant tensor:
#      x y z
#    x 1.774020 0.000000 0.000000 
#    y 0.000000 1.695220 0.000000 
#    z 0.000000 0.000000 1.812560 
# 
# From -- ./inp_files/5131.got.cif
#   From: 2010.05.17/outbox.cif.g08.bks.cpg/sg74_3_cif.got.tgz:5131.got - 2010.06.03 17:57:02.
