data_PCOD9538036
_publ_section_title
;
Structure prediction by ZEFSAII (Michael W. Deem and Ramdas Pophale) SiO2 
 PCOD9538036
Probable space group: I M M A
;
_chemical_formula_sum "Si O2"
_cell_formula_units_Z 88
_cell_length_a 12.009055
_cell_length_b 16.416163
_cell_length_c 22.166222
_cell_angle_alpha 90.000000
_cell_angle_beta 90.000000
_cell_angle_gamma 90.000000
_cell_volume 4369.906734
_symmetry_space_group_name_H-M "I M M A"
_symmetry_group_IT_number 74
_symmetry_cell_setting 'orthorhombic'
loop_
_space_group_symop_operation_xyz
x,y,z
-x,1/2-y,z
x,-y,-z
-x,1/2+y,-z
-x,-y,-z
x,1/2+y,-z
-x,y,z
x,1/2-y,z
1/2+x,1/2+y,1/2+z
1/2-x,-y,1/2+z
1/2+x,1/2-y,1/2-z
1/2-x,y,1/2-z
1/2-x,1/2-y,1/2-z
1/2+x,y,1/2-z
1/2-x,1/2+y,1/2+z
1/2+x,-y,1/2+z
loop_
_atom_site_type_symbol
_atom_site_label
_atom_site_fract_x
_atom_site_fract_y
_atom_site_fract_z
Si Si1 0.770259 0.845849 0.555105
Si Si2 0.250000 0.972345 0.250000
Si Si3 0.370397 0.941449 0.638966
Si Si4 0.500000 0.082985 0.038930
Si Si5 0.700228 0.844307 0.158720
Si Si6 0.000000 0.842585 0.418103
Si Si7 0.868955 0.104628 0.935180
O O1 0.796541 0.750000 0.550007
O O2 0.688305 0.863439 0.610620
O O3 0.880712 0.900599 0.568812
O O4 0.706245 0.872494 0.493187
O O5 0.321726 0.906712 0.212496
O O6 0.312685 0.024849 0.300420
O O7 0.500000 0.928925 0.650493
O O8 0.360568 0.010574 0.586134
O O9 0.500000 0.152454 0.988354
O O10 0.500000 0.000000 0.000000
O O11 0.685168 0.750000 0.176508
O O12 0.612749 0.875851 0.108743
O O13 0.818169 0.851067 0.124180
O O14 0.000000 0.750000 0.398660
O O15 0.000000 0.123040 0.945864
#
# Coordination Sequence:
#
# PCOD9538036 Si02
#       7
#    16   8  16   8  16   8  16
#     4  12  24  40  63  94 126 158 200 250 309 368
#     4  10  23  40  61  84 118 160 218 258 307 358
#     4  10  23  43  62  89 122 161 207 260 302 362
#     4  12  24  38  64  96 130 162 194 238 304 381
#     4  10  20  35  58  88 125 162 200 247 307 372
#     4  10  20  36  58  90 128 158 189 242 305 369
#     4  10  20  36  61  92 128 164 199 240 301 373
#
# _framework density 20.137729
#
# number of rings (size 3 to 8) (size 9 to 14) (size 15 to 20)
#    0.000    1.455    1.818    3.818    3.818    4.000 
#    1.636    0.455    0.000    0.000    0.000    0.000 
#    0.000    0.000    0.000    0.000    0.000    0.000 
#
# Total GULP energy -245181.672306 kJ/mol
# GULP energy per Si atom -5572.310734 kJ/mol
# Density = 2.009189 g / cm^3
# Si number density = 20.137729 Si / 1000 Ang^3
#
#
#
# Elastic Constant Matrix: (Units=GPa)
#
#
# Indices 1 2 3 4 5 6 
#
# 1 97.4170 37.1032 23.9191 0.0000 0.0000 0.0000
# 2 37.1032 72.2300 22.5603 0.0000 0.0000 0.0000
# 3 23.9191 22.5603 80.7702 0.0000 0.0000 0.0000
# 4 0.0000 0.0000 0.0000 17.7501 0.0000 0.0000
# 5 0.0000 0.0000 0.0000 0.0000 10.2561 0.0000
# 6 0.0000 0.0000 0.0000 0.0000 0.0000 18.4948
#
#
#
# Elastic Compliance Matrix: (Units=1/GPa)
#
#
# Indices 1 2 3 4 5 6 
#
# 1 0.013107 -0.006048 -0.002192 0.000000 0.000000 0.000000
# 2 -0.006048 0.017959 -0.003225 0.000000 0.000000 0.000000
# 3 -0.002192 -0.003225 0.013931 0.000000 0.000000 0.000000
# 4 0.000000 0.000000 0.000000 0.056338 0.000000 0.000000
# 5 0.000000 0.000000 0.000000 0.000000 0.097503 0.000000
# 6 0.000000 0.000000 0.000000 0.000000 0.000000 0.054069
#
#
# Mechanical properties :
#
#
# Convention : Reuss Voigt Hill
#
# Bulk Modulus (GPa) = 45.31884 46.39805 45.85845
# Shear Modulus (GPa) = 17.65587 20.42252 19.03919
#
# Velocity S-wave (km/s) = 2.96422 3.18801 3.07815
# Velocity P-wave (km/s) = 5.85395 6.05323 5.95443
#
# Compressibility (1/GPa) = 0.02206588
#
# Stress axis : x y z
#
# Youngs Moduli (GPa) = 76.29555 55.68310 71.78342
#
# Poissons Ratio (x) = 0.33678 0.15736
# Poissons Ratio (y) = 0.46144 0.23151
# Poissons Ratio (z) = 0.16725 0.17958
#
# Static dielectric constant tensor:
#      x y z
#    x -0.652130 0.000000 0.000000 
#    y 0.000000 1.765090 0.000000 
#    z 0.000000 0.000000 1.713940 
# 
# From -- ./inp_files/58681.got.cif
#   From: 2010.05.17/outbox.cif.g08.bks.cpg/sg74_30_cif.got.tgz:58681.got - 2010.06.03 17:57:02.
