data_PCOD9538138
_publ_section_title
;
Structure prediction by ZEFSAII (Michael W. Deem and Ramdas Pophale) SiO2 
 PCOD9538138
Probable space group: I M M A
;
_chemical_formula_sum "Si O2"
_cell_formula_units_Z 116
_cell_length_a 9.232867
_cell_length_b 25.851908
_cell_length_c 28.684971
_cell_angle_alpha 90.000000
_cell_angle_beta 90.000000
_cell_angle_gamma 90.000000
_cell_volume 6846.736221
_symmetry_space_group_name_H-M "I M M A"
_symmetry_group_IT_number 74
_symmetry_cell_setting 'orthorhombic'
loop_
_space_group_symop_operation_xyz
x,y,z
-x,1/2-y,z
x,-y,-z
-x,1/2+y,-z
-x,-y,-z
x,1/2+y,-z
-x,y,z
x,1/2-y,z
1/2+x,1/2+y,1/2+z
1/2-x,-y,1/2+z
1/2+x,1/2-y,1/2-z
1/2-x,y,1/2-z
1/2-x,1/2-y,1/2-z
1/2+x,y,1/2-z
1/2-x,1/2+y,1/2+z
1/2+x,-y,1/2+z
loop_
_atom_site_type_symbol
_atom_site_label
_atom_site_fract_x
_atom_site_fract_y
_atom_site_fract_z
Si Si1 0.223821 0.307009 0.440510
Si Si2 0.670225 0.999967 0.555857
Si Si3 0.000000 0.750000 0.911443
Si Si4 0.670920 0.060312 0.701237
Si Si5 0.325403 0.906297 0.108437
Si Si6 0.173931 0.808903 0.454338
Si Si7 0.829461 0.935995 0.798651
Si Si8 0.836085 0.410731 0.390233
O O1 0.150424 0.250000 0.440493
O O2 0.374324 0.294389 0.415851
O O3 0.243245 0.319920 0.495213
O O4 0.155948 0.354914 0.414300
O O5 0.500000 0.002063 0.569325
O O6 0.755758 0.048601 0.576984
O O7 0.679447 0.000000 0.500000
O O8 0.745280 0.949177 0.576936
O O9 0.500000 0.072896 0.702785
O O10 0.750000 0.071787 0.750000
O O11 0.752932 0.087870 0.658921
O O12 0.682337 0.998136 0.693618
O O13 0.500000 0.911829 0.111097
O O14 0.290234 0.851774 0.083785
O O15 0.211539 0.750000 0.440803
O O16 0.000000 0.811278 0.461541
O O17 0.750000 0.924282 0.750000
O O18 0.746647 0.909175 0.841118
O O19 0.000000 0.923160 0.796934
O O20 0.000000 0.430781 0.383567
#
# Coordination Sequence:
#
# PCOD9538138 Si02
#       8
#    16  16   4  16  16  16  16  16
#     4   9  20  36  55  79 109 145 191 229 271 320
#     4  11  24  37  50  75 113 151 184 224 273 328
#     4   8  20  36  54  80 108 148 194 228 282 316
#     4  10  20  36  56  80 108 144 181 228 277 330
#     4  11  21  35  55  81 111 146 183 226 275 332
#     4   9  18  35  56  79 109 145 188 231 271 317
#     4  10  21  36  57  80 112 144 183 229 276 329
#     4  12  23  35  58  83 111 147 186 227 277 332
#
# _framework density 16.94238
#
# number of rings (size 3 to 8) (size 9 to 14) (size 15 to 20)
#    0.414    1.379    1.379    3.310    1.931    4.138 
#    2.483    0.000    0.000    0.828    0.000    0.000 
#    0.000    0.000    0.000    0.000    0.000    0.000 
#
# Total GULP energy -322903.676957 kJ/mol
# GULP energy per Si atom -5567.304775 kJ/mol
# Density = 1.690382 g / cm^3
# Si number density = 16.942380 Si / 1000 Ang^3
#
#
#
# Elastic Constant Matrix: (Units=GPa)
#
#
# Indices 1 2 3 4 5 6 
#
# 1 116.5165 40.1648 47.1644 0.0000 0.0000 0.0000
# 2 40.1648 88.6639 61.0253 0.0000 0.0000 0.0000
# 3 47.1644 61.0253 110.5364 0.0000 0.0000 0.0000
# 4 0.0000 0.0000 0.0000 12.0546 0.0000 0.0000
# 5 0.0000 0.0000 0.0000 0.0000 5.7951 0.0000
# 6 0.0000 0.0000 0.0000 0.0000 0.0000 22.6330
#
#
#
# Elastic Compliance Matrix: (Units=1/GPa)
#
#
# Indices 1 2 3 4 5 6 
#
# 1 0.010780 -0.002770 -0.003070 0.000000 0.000000 0.000000
# 2 -0.002770 0.018903 -0.009254 0.000000 0.000000 0.000000
# 3 -0.003070 -0.009254 0.015466 0.000000 0.000000 0.000000
# 4 0.000000 0.000000 0.000000 0.082956 0.000000 0.000000
# 5 0.000000 0.000000 0.000000 0.000000 0.172560 0.000000
# 6 0.000000 0.000000 0.000000 0.000000 0.000000 0.044183
#
#
# Mechanical properties :
#
#
# Convention : Reuss Voigt Hill
#
# Bulk Modulus (GPa) = 66.84569 68.04731 67.44650
# Shear Modulus (GPa) = 13.15707 19.25401 16.20554
#
# Velocity S-wave (km/s) = 2.78974 3.37477 3.09610
# Velocity P-wave (km/s) = 7.06521 7.44558 7.25789
#
# Compressibility (1/GPa) = 0.01495983
#
# Stress axis : x y z
#
# Youngs Moduli (GPa) = 92.76213 52.90266 64.65880
#
# Poissons Ratio (x) = 0.14655 0.19853
# Poissons Ratio (y) = 0.25697 0.59834
# Poissons Ratio (z) = 0.28482 0.48955
#
# Static dielectric constant tensor:
#      x y z
#    x 1.584210 0.000000 0.000000 
#    y 0.000000 1.570760 0.000000 
#    z 0.000000 0.000000 1.559690 
# 
# From -- ./inp_files/70885.got.cif
#   From: 2010.05.17/outbox.cif.g08.bks.cpg/sg74_36_cif.got.tgz:70885.got - 2010.06.03 17:57:02.
