data_PCOD9538284
_publ_section_title
;
Structure prediction by ZEFSAII (Michael W. Deem and Ramdas Pophale) SiO2 
 PCOD9538284
Probable space group: I M M A
;
_chemical_formula_sum "Si O2"
_cell_formula_units_Z 96
_cell_length_a 30.150782
_cell_length_b 18.430812
_cell_length_c 9.457634
_cell_angle_alpha 90.000000
_cell_angle_beta 90.000000
_cell_angle_gamma 90.000000
_cell_volume 5255.639320
_symmetry_space_group_name_H-M "I M M A"
_symmetry_group_IT_number 74
_symmetry_cell_setting 'orthorhombic'
loop_
_space_group_symop_operation_xyz
x,y,z
-x,1/2-y,z
x,-y,-z
-x,1/2+y,-z
-x,-y,-z
x,1/2+y,-z
-x,y,z
x,1/2-y,z
1/2+x,1/2+y,1/2+z
1/2-x,-y,1/2+z
1/2+x,1/2-y,1/2-z
1/2-x,y,1/2-z
1/2-x,1/2-y,1/2-z
1/2+x,y,1/2-z
1/2-x,1/2+y,1/2+z
1/2+x,-y,1/2+z
loop_
_atom_site_type_symbol
_atom_site_label
_atom_site_fract_x
_atom_site_fract_y
_atom_site_fract_z
Si Si1 0.776174 0.663378 0.892272
Si Si2 0.450329 0.838111 0.541568
Si Si3 0.052050 0.662890 0.286441
Si Si4 0.372752 0.415584 0.965828
Si Si5 0.724797 0.932435 0.106526
Si Si6 0.631010 0.337888 0.266834
O O1 0.774101 0.750000 0.903798
O O2 0.750000 0.642072 0.750000
O O3 0.826974 0.642381 0.864122
O O4 0.752850 0.628874 0.026484
O O5 0.500000 0.863262 0.577156
O O6 0.450736 0.750000 0.544921
O O7 0.440581 0.857039 0.378565
O O8 0.413457 0.861574 0.652549
O O9 0.058654 0.750000 0.300675
O O10 0.086345 0.620654 0.384361
O O11 0.000000 0.648651 0.318699
O O12 0.326724 0.410392 0.877878
O O13 0.381247 0.500000 0.000000
O O14 0.365118 0.374247 0.114188
O O15 0.750000 0.950833 0.250000
O O16 0.724401 0.000000 0.000000
O O17 0.630971 0.250000 0.250534
#
# Coordination Sequence:
#
# PCOD9538284 Si02
#       6
#    16  16  16  16  16  16
#     4  10  20  37  59  85 117 150 188 243 302 346
#     4   8  16  33  58  86 111 141 187 236 283 344
#     4   9  19  38  62  86 117 155 193 239 294 349
#     4  11  24  38  55  86 119 152 196 242 290 343
#     4  11  25  41  60  82 116 161 202 244 292 361
#     4  10  20  36  60  85 113 148 189 239 291 350
#
# _framework density 18.266093000000001
#
# number of rings (size 3 to 8) (size 9 to 14) (size 15 to 20)
#    0.000    2.167    1.667    2.000    4.667    2.000 
#    0.000    2.500    0.000    2.000    0.000    0.000 
#    0.000    0.000    0.000    0.000    0.000    0.000 
#
# Total GULP energy -267853.145028 kJ/mol
# GULP energy per Si atom -5580.273855 kJ/mol
# Density = 1.822452 g / cm^3
# Si number density = 18.266093 Si / 1000 Ang^3
#
#
#
# Elastic Constant Matrix: (Units=GPa)
#
#
# Indices 1 2 3 4 5 6 
#
# 1 129.7973 39.8332 50.4350 0.0000 0.0000 0.0000
# 2 39.8332 36.0081 21.1094 0.0000 0.0000 0.0000
# 3 50.4350 21.1094 53.8281 0.0000 0.0000 0.0000
# 4 0.0000 0.0000 0.0000 13.9388 0.0000 0.0000
# 5 0.0000 0.0000 0.0000 0.0000 37.0652 0.0000
# 6 0.0000 0.0000 0.0000 0.0000 0.0000 -21.2791
#
#
#
# Elastic Compliance Matrix: (Units=1/GPa)
#
#
# Indices 1 2 3 4 5 6 
#
# 1 0.014698 -0.010630 -0.009603 0.000000 0.000000 0.000000
# 2 -0.010630 0.043750 -0.007198 0.000000 0.000000 0.000000
# 3 -0.009603 -0.007198 0.030398 0.000000 0.000000 0.000000
# 4 0.000000 0.000000 0.000000 0.071742 0.000000 0.000000
# 5 0.000000 0.000000 0.000000 0.000000 0.026979 0.000000
# 6 0.000000 0.000000 0.000000 0.000000 0.000000 -0.046994
#
#
# Mechanical properties :
#
#
# Convention : Reuss Voigt Hill
#
# Bulk Modulus (GPa) = 29.42427 49.15427 39.28927
# Shear Modulus (GPa) = 24.18260 13.16205 18.67232
#
# Velocity S-wave (km/s) = 3.64250 2.68726 3.20072
# Velocity P-wave (km/s) = 5.81671 6.04955 5.93427
#
# Compressibility (1/GPa) = 0.03398555
#
# Stress axis : x y z
#
# Youngs Moduli (GPa) = 68.03791 22.85730 32.89731
#
# Poissons Ratio (x) = 0.24296 0.31590
# Poissons Ratio (y) = 0.72321 0.23678
# Poissons Ratio (z) = 0.65335 0.16452
#
# Static dielectric constant tensor:
#      x y z
#    x 1.641480 0.000000 0.000000 
#    y 0.000000 1.629040 0.000000 
#    z 0.000000 0.000000 1.600440 
# 
# From -- ./inp_files/15092.got.cif
#   From: 2010.05.17/outbox.cif.g08.bks.cpg/sg74_8_cif.got.tgz:15092.got - 2010.06.03 17:57:02.
