data_PCOD9538686
_publ_section_title
;
Structure prediction by ZEFSAII (Michael W. Deem and Ramdas Pophale) SiO2 
 PCOD9538686
Probable space group: I M M A
;
_chemical_formula_sum "Si O2"
_cell_formula_units_Z 64
_cell_length_a 18.188723
_cell_length_b 21.216338
_cell_length_c 8.668477
_cell_angle_alpha 90.000000
_cell_angle_beta 90.000000
_cell_angle_gamma 90.000000
_cell_volume 3345.148760
_symmetry_space_group_name_H-M "I M M A"
_symmetry_group_IT_number 74
_symmetry_cell_setting 'orthorhombic'
loop_
_space_group_symop_operation_xyz
x,y,z
-x,1/2-y,z
x,-y,-z
-x,1/2+y,-z
-x,-y,-z
x,1/2+y,-z
-x,y,z
x,1/2-y,z
1/2+x,1/2+y,1/2+z
1/2-x,-y,1/2+z
1/2+x,1/2-y,1/2-z
1/2-x,y,1/2-z
1/2-x,1/2-y,1/2-z
1/2+x,y,1/2-z
1/2-x,1/2+y,1/2+z
1/2+x,-y,1/2+z
loop_
_atom_site_type_symbol
_atom_site_label
_atom_site_fract_x
_atom_site_fract_y
_atom_site_fract_z
Si Si1 0.791215 0.372706 0.001020
Si Si2 0.250000 0.525930 0.750000
Si Si3 0.000000 0.250000 0.346556
Si Si4 0.653211 0.409756 0.826262
Si Si5 0.872192 0.250000 0.097730
Si Si6 0.500000 0.359943 0.905234
Si Si7 0.500000 0.250000 0.653966
O O1 0.709905 0.367369 0.926182
O O2 0.841724 0.388081 0.852393
O O3 0.786059 0.430135 0.120617
O O4 0.821458 0.311431 0.085145
O O5 0.310850 0.479164 0.822223
O O6 0.073391 0.250000 0.242909
O O7 0.000000 0.186894 0.449359
O O8 0.572888 0.401769 0.893373
O O9 0.927871 0.250000 0.952232
O O10 0.500000 0.311538 0.761101
#
# Coordination Sequence:
#
# PCOD9538686 Si02
#       7
#    16   8   4  16   8   8   4
#     4  10  22  39  68  92 128 162 215 262 318 366
#     4  10  22  43  62  97 132 156 214 276 304 370
#     4  10  28  40  58  96 148 156 208 264 326 376
#     4  10  21  41  66  95 122 169 212 261 310 383
#     4  11  22  42  64  94 125 170 204 262 321 382
#     4  11  22  42  64  92 127 172 205 261 324 376
#     4  10  20  40  62  88 134 148 208 262 302 380
#
# _framework density 19.132182
#
# number of rings (size 3 to 8) (size 9 to 14) (size 15 to 20)
#    0.000    2.000    2.500    3.000    3.500    4.500 
#    0.000    7.500    0.000    0.000    0.000    0.000 
#    0.000    0.000    0.000    0.000    0.000    0.000 
#
# Total GULP energy -178664.952003 kJ/mol
# GULP energy per Si atom -5583.279750 kJ/mol
# Density = 1.908864 g / cm^3
# Si number density = 19.132182 Si / 1000 Ang^3
#
#
#
# Elastic Constant Matrix: (Units=GPa)
#
#
# Indices 1 2 3 4 5 6 
#
# 1 146.2297 90.7759 67.5473 0.0000 0.0000 0.0000
# 2 90.7759 147.8111 58.2185 0.0000 0.0000 0.0000
# 3 67.5473 58.2185 107.9401 0.0000 0.0000 0.0000
# 4 0.0000 0.0000 0.0000 22.7798 0.0000 0.0000
# 5 0.0000 0.0000 0.0000 0.0000 13.0179 0.0000
# 6 0.0000 0.0000 0.0000 0.0000 0.0000 12.2163
#
#
#
# Elastic Compliance Matrix: (Units=1/GPa)
#
#
# Indices 1 2 3 4 5 6 
#
# 1 0.012724 -0.005940 -0.004759 0.000000 0.000000 0.000000
# 2 -0.005940 0.011363 -0.002412 0.000000 0.000000 0.000000
# 3 -0.004759 -0.002412 0.013543 0.000000 0.000000 0.000000
# 4 0.000000 0.000000 0.000000 0.043899 0.000000 0.000000
# 5 0.000000 0.000000 0.000000 0.000000 0.076817 0.000000
# 6 0.000000 0.000000 0.000000 0.000000 0.000000 0.081858
#
#
# Mechanical properties :
#
#
# Convention : Reuss Voigt Hill
#
# Bulk Modulus (GPa) = 87.64578 92.78491 90.21534
# Shear Modulus (GPa) = 18.50281 21.96538 20.23410
#
# Velocity S-wave (km/s) = 3.11320 3.39202 3.25560
# Velocity P-wave (km/s) = 7.67026 7.99644 7.83505
#
# Compressibility (1/GPa) = 0.01140956
#
# Stress axis : x y z
#
# Youngs Moduli (GPa) = 78.59040 88.00286 73.83793
#
# Poissons Ratio (x) = 0.52274 0.35138
# Poissons Ratio (y) = 0.46683 0.17808
# Poissons Ratio (z) = 0.37400 0.21224
#
# Static dielectric constant tensor:
#      x y z
#    x 1.645450 0.000000 0.000000 
#    y 0.000000 1.646530 0.000000 
#    z 0.000000 0.000000 1.695540 
# 
# From -- ./inp_files/10380.got.cif
#   From: 2010.05.17/outbox.cif.g08.bks.cpg/sg74_6_cif.got.tgz:10380.got - 2010.06.03 17:57:02.
