data_PCOD9538749
_publ_section_title
;
Structure prediction by ZEFSAII (Michael W. Deem and Ramdas Pophale) SiO2 
 PCOD9538749
Probable space group: I M M A
;
_chemical_formula_sum "Si O2"
_cell_formula_units_Z 88
_cell_length_a 14.681687
_cell_length_b 12.472322
_cell_length_c 28.021457
_cell_angle_alpha 90.000000
_cell_angle_beta 90.000000
_cell_angle_gamma 90.000000
_cell_volume 5131.141470
_symmetry_space_group_name_H-M "I M M A"
_symmetry_group_IT_number 74
_symmetry_cell_setting 'orthorhombic'
loop_
_space_group_symop_operation_xyz
x,y,z
-x,1/2-y,z
x,-y,-z
-x,1/2+y,-z
-x,-y,-z
x,1/2+y,-z
-x,y,z
x,1/2-y,z
1/2+x,1/2+y,1/2+z
1/2-x,-y,1/2+z
1/2+x,1/2-y,1/2-z
1/2-x,y,1/2-z
1/2-x,1/2-y,1/2-z
1/2+x,y,1/2-z
1/2-x,1/2+y,1/2+z
1/2+x,-y,1/2+z
loop_
_atom_site_type_symbol
_atom_site_label
_atom_site_fract_x
_atom_site_fract_y
_atom_site_fract_z
Si Si1 0.899843 0.624243 0.366373
Si Si2 0.600786 0.750000 0.634163
Si Si3 0.895994 0.927532 0.784007
Si Si4 0.894144 0.451975 0.449717
Si Si5 0.222528 0.632060 0.195592
Si Si6 0.698781 0.250000 0.100251
Si Si7 0.388362 0.250000 0.206866
O O1 0.896606 0.750000 0.379481
O O2 0.893422 0.548293 0.411771
O O3 0.814232 0.603212 0.332804
O O4 0.000000 0.605012 0.343646
O O5 0.500000 0.750000 0.610787
O O6 0.605036 0.849479 0.670509
O O7 0.691674 0.750000 0.602990
O O8 0.862475 0.855127 0.738782
O O9 0.000000 0.955008 0.772088
O O10 0.845372 0.033268 0.801346
O O11 0.861401 0.500000 0.500000
O O12 0.838127 0.354146 0.427520
O O13 0.000000 0.417372 0.456036
O O14 0.189228 0.750000 0.178267
O O15 0.250000 0.645218 0.250000
O O16 0.658304 0.250000 0.154835
O O17 0.500000 0.250000 0.202317
#
# Coordination Sequence:
#
# PCOD9538749 Si02
#       7
#    16   8  16  16  16   8   8
#     4   9  19  36  55  73 103 149 186 220 267 317
#     4   9  20  36  54  82 110 142 180 227 276 315
#     4   9  19  34  51  74 111 146 178 223 276 316
#     4  10  22  36  55  85 116 140 174 222 273 331
#     4  10  21  33  48  73 104 142 190 230 259 312
#     4  12  22  35  60  82 108 144 181 220 269 325
#     4   9  20  34  52  82 110 142 182 219 262 326
#
# _framework density 17.150179999999999
#
# number of rings (size 3 to 8) (size 9 to 14) (size 15 to 20)
#    0.000    2.364    0.000    3.000    6.364    1.818 
#    0.000    1.818    0.000    0.545    0.000    0.000 
#    0.000    0.000    0.000    0.000    0.000    0.000 
#
# Total GULP energy -245229.018996 kJ/mol
# GULP energy per Si atom -5573.386795 kJ/mol
# Density = 1.711115 g / cm^3
# Si number density = 17.150180 Si / 1000 Ang^3
#
#
#
# Elastic Constant Matrix: (Units=GPa)
#
#
# Indices 1 2 3 4 5 6 
#
# 1 108.9903 79.9290 55.8294 0.0000 0.0000 0.0000
# 2 79.9290 118.3798 48.6675 0.0000 0.0000 0.0000
# 3 55.8294 48.6675 82.1208 0.0000 0.0000 0.0000
# 4 0.0000 0.0000 0.0000 7.3667 0.0000 0.0000
# 5 0.0000 0.0000 0.0000 0.0000 18.0894 0.0000
# 6 0.0000 0.0000 0.0000 0.0000 0.0000 27.8817
#
#
#
# Elastic Compliance Matrix: (Units=1/GPa)
#
#
# Indices 1 2 3 4 5 6 
#
# 1 0.021492 -0.011244 -0.007948 0.000000 0.000000 0.000000
# 2 -0.011244 0.017051 -0.002461 0.000000 0.000000 0.000000
# 3 -0.007948 -0.002461 0.019039 0.000000 0.000000 0.000000
# 4 0.000000 0.000000 0.000000 0.135746 0.000000 0.000000
# 5 0.000000 0.000000 0.000000 0.000000 0.055281 0.000000
# 6 0.000000 0.000000 0.000000 0.000000 0.000000 0.035866
#
#
# Mechanical properties :
#
#
# Convention : Reuss Voigt Hill
#
# Bulk Modulus (GPa) = 70.04371 75.37140 72.70756
# Shear Modulus (GPa) = 15.03588 19.00523 17.02055
#
# Velocity S-wave (km/s) = 2.96416 3.33252 3.15372
# Velocity P-wave (km/s) = 7.25569 7.67143 7.46645
#
# Compressibility (1/GPa) = 0.01427680
#
# Stress axis : x y z
#
# Youngs Moduli (GPa) = 46.52882 58.64837 52.52425
#
# Poissons Ratio (x) = 0.65943 0.41745
# Poissons Ratio (y) = 0.52316 0.12925
# Poissons Ratio (z) = 0.36980 0.14432
#
# Static dielectric constant tensor:
#      x y z
#    x 1.643450 0.000000 0.000000 
#    y 0.000000 1.703330 0.000000 
#    z 0.000000 0.000000 1.546850 
# 
# From -- ./inp_files/58689.got.cif
#   From: 2010.05.17/outbox.cif.g08.bks.cpg/sg74_30_cif.got.tgz:58689.got - 2010.06.03 17:57:02.
