data_PCOD9538379
_publ_section_title
;
Structure prediction by ZEFSAII (Michael W. Deem and Ramdas Pophale) SiO2 
 PCOD9538379
Probable space group: I M M A
;
_chemical_formula_sum "Si O2"
_cell_formula_units_Z 112
_cell_length_a 30.829670
_cell_length_b 14.464193
_cell_length_c 11.517146
_cell_angle_alpha 90.000000
_cell_angle_beta 90.000000
_cell_angle_gamma 90.000000
_cell_volume 5135.798268
_symmetry_space_group_name_H-M "I M M A"
_symmetry_group_IT_number 74
_symmetry_cell_setting 'orthorhombic'
loop_
_space_group_symop_operation_xyz
x,y,z
-x,1/2-y,z
x,-y,-z
-x,1/2+y,-z
-x,-y,-z
x,1/2+y,-z
-x,y,z
x,1/2-y,z
1/2+x,1/2+y,1/2+z
1/2-x,-y,1/2+z
1/2+x,1/2-y,1/2-z
1/2-x,y,1/2-z
1/2-x,1/2-y,1/2-z
1/2+x,y,1/2-z
1/2-x,1/2+y,1/2+z
1/2+x,-y,1/2+z
loop_
_atom_site_type_symbol
_atom_site_label
_atom_site_fract_x
_atom_site_fract_y
_atom_site_fract_z
Si Si1 0.705291 0.397272 0.035801
Si Si2 0.047565 0.975002 0.134726
Si Si3 0.685019 0.359249 0.286787
Si Si4 0.872519 0.862010 0.213621
Si Si5 0.915591 0.860568 0.714237
Si Si6 0.297866 0.359068 0.543186
Si Si7 0.387834 0.852512 0.031619
O O1 0.711568 0.393670 0.174541
O O2 0.694998 0.500000 0.000000
O O3 0.745873 0.367701 0.956709
O O4 0.661479 0.342867 0.012658
O O5 0.086036 0.901199 0.147402
O O6 0.000000 0.938661 0.169677
O O7 0.057391 0.067635 0.209304
O O8 0.046405 0.000000 0.000000
O O9 0.695510 0.250000 0.293464
O O10 0.634060 0.368380 0.258745
O O11 0.691670 0.400055 0.415574
O O12 0.871533 0.750000 0.218810
O O13 0.828145 0.892971 0.148783
O O14 0.880858 0.899168 0.344012
O O15 0.927024 0.750000 0.722036
O O16 0.914390 0.889931 0.578073
O O17 0.307931 0.250000 0.537782
O O18 0.406200 0.750000 0.052828
#
# Coordination Sequence:
#
# PCOD9538379 Si02
#       7
#    16  16  16  16  16  16  16
#     4  11  22  32  49  85 121 157 201 257 314 358
#     4  11  25  42  64  96 128 158 201 261 320 381
#     4   9  18  35  59  80 107 154 209 259 305 363
#     4  10  23  42  64  88 120 166 209 253 318 385
#     4   9  19  38  66  92 120 162 206 252 311 373
#     4  10  20  37  58  80 112 157 208 260 312 369
#     4   9  20  40  62  86 118 161 210 255 303 369
#
# _framework density 21.80771
#
# number of rings (size 3 to 8) (size 9 to 14) (size 15 to 20)
#    0.000    2.143    0.000    3.429    4.000    5.714 
#    2.571    5.000    0.000    2.571    0.000    0.000 
#    0.000    0.000    0.000    0.000    0.000    0.000 
#
# Total GULP energy -312214.743343 kJ/mol
# GULP energy per Si atom -5575.263274 kJ/mol
# Density = 2.175807 g / cm^3
# Si number density = 21.807710 Si / 1000 Ang^3
#
#
#
# Elastic Constant Matrix: (Units=GPa)
#
#
# Indices 1 2 3 4 5 6 
#
# 1 51.8953 -8.5177 19.3529 0.0000 0.0000 0.0000
# 2 -8.5177 56.5561 23.7683 0.0000 0.0000 0.0000
# 3 19.3529 23.7683 115.9321 0.0000 0.0000 0.0000
# 4 0.0000 0.0000 0.0000 -101.5924 0.0000 0.0000
# 5 0.0000 0.0000 0.0000 0.0000 -4.0904 0.0000
# 6 0.0000 0.0000 0.0000 0.0000 0.0000 -4.3324
#
#
#
# Elastic Compliance Matrix: (Units=1/GPa)
#
#
# Indices 1 2 3 4 5 6 
#
# 1 0.021907 0.005292 -0.004742 0.000000 0.000000 0.000000
# 2 0.005292 0.020627 -0.005112 0.000000 0.000000 0.000000
# 3 -0.004742 -0.005112 0.010465 0.000000 0.000000 0.000000
# 4 0.000000 0.000000 0.000000 -0.009843 0.000000 0.000000
# 5 0.000000 0.000000 0.000000 0.000000 -0.244475 0.000000
# 6 0.000000 0.000000 0.000000 0.000000 0.000000 -0.230818
#
#
# Mechanical properties :
#
#
# Convention : Reuss Voigt Hill
#
# Bulk Modulus (GPa) = 22.79216 32.62117 27.70666
# Shear Modulus (GPa) = -12.24325 -9.35103 -10.79714
#
# Velocity S-wave (km/s) = -2.37200 -2.07298 -2.22751
# Velocity P-wave (km/s) = 1.72403 3.04325 2.47322
#
# Compressibility (1/GPa) = 0.04387474
#
# Stress axis : x y z
#
# Youngs Moduli (GPa) = 45.64851 48.47982 95.55247
#
# Poissons Ratio (x) = -0.25656 0.45310
# Poissons Ratio (y) = -0.24158 0.48850
# Poissons Ratio (z) = 0.21646 0.24785
#
# Static dielectric constant tensor:
#      x y z
#    x 1.814690 0.000000 0.000000 
#    y 0.000000 1.818750 0.000000 
#    z 0.000000 0.000000 1.882110 
# 
# From -- ./inp_files/27228.got.cif
#   From: 2010.05.17/outbox.cif.g08.bks.cpg/sg74_14_cif.got.tgz:27228.got - 2010.06.03 17:57:02.
