data_PCOD9538970
_publ_section_title
;
Structure prediction by ZEFSAII (Michael W. Deem and Ramdas Pophale) SiO2 
 PCOD9538970
Probable space group: I M M A
;
_chemical_formula_sum "Si O2"
_cell_formula_units_Z 104
_cell_length_a 9.458770
_cell_length_b 27.231784
_cell_length_c 21.779784
_cell_angle_alpha 90.000000
_cell_angle_beta 90.000000
_cell_angle_gamma 90.000000
_cell_volume 5610.018937
_symmetry_space_group_name_H-M "I M M A"
_symmetry_group_IT_number 74
_symmetry_cell_setting 'orthorhombic'
loop_
_space_group_symop_operation_xyz
x,y,z
-x,1/2-y,z
x,-y,-z
-x,1/2+y,-z
-x,-y,-z
x,1/2+y,-z
-x,y,z
x,1/2-y,z
1/2+x,1/2+y,1/2+z
1/2-x,-y,1/2+z
1/2+x,1/2-y,1/2-z
1/2-x,y,1/2-z
1/2-x,1/2-y,1/2-z
1/2+x,y,1/2-z
1/2-x,1/2+y,1/2+z
1/2+x,-y,1/2+z
loop_
_atom_site_type_symbol
_atom_site_label
_atom_site_fract_x
_atom_site_fract_y
_atom_site_fract_z
Si Si1 0.168646 0.935877 0.689454
Si Si2 0.758958 0.500000 0.000000
Si Si3 0.162842 0.403195 0.690944
Si Si4 0.660392 0.804466 0.130470
Si Si5 0.830932 0.306657 0.993403
Si Si6 0.840865 0.024943 0.867787
Si Si7 0.161311 0.395678 0.447200
O O1 0.250000 0.916292 0.750000
O O2 0.181157 0.905152 0.626012
O O3 0.000000 0.943019 0.700917
O O4 0.250858 0.985904 0.671495
O O5 0.844871 0.509116 0.061795
O O6 0.680051 0.448621 0.017935
O O7 0.250000 0.418973 0.750000
O O8 0.171491 0.345285 0.682002
O O9 0.247114 0.426378 0.634627
O O10 0.000000 0.418469 0.692581
O O11 0.500000 0.809026 0.104596
O O12 0.676490 0.750000 0.155791
O O13 0.769894 0.811068 0.075462
O O14 0.795212 0.250000 0.013703
O O15 0.000000 0.310921 0.994031
O O16 0.762884 0.352051 0.030377
O O17 0.000000 0.030919 0.844252
O O18 0.000000 0.380079 0.457722
#
# Coordination Sequence:
#
# PCOD9538970 Si02
#       7
#    16   8  16  16  16  16  16
#     4  10  21  37  56  79 107 140 178 217 262 315
#     4  10  22  36  56  86 116 142 178 224 276 326
#     4  11  23  37  53  74 102 138 180 224 269 316
#     4   9  19  36  56  76 100 134 176 221 270 323
#     4  10  21  36  56  84 115 145 180 225 274 322
#     4  11  22  36  54  77 107 141 177 216 262 317
#     4  10  21  36  57  83 112 147 182 221 270 326
#
# _framework density 18.538263000000001
#
# number of rings (size 3 to 8) (size 9 to 14) (size 15 to 20)
#    0.000    1.846    0.000    3.692    0.000   10.462 
#    0.000    0.000    0.000    0.462    0.000    0.000 
#    0.000    0.000    0.000    0.000    0.000    0.000 
#
# Total GULP energy -289821.091661 kJ/mol
# GULP energy per Si atom -5573.482532 kJ/mol
# Density = 1.849607 g / cm^3
# Si number density = 18.538263 Si / 1000 Ang^3
#
#
#
# Elastic Constant Matrix: (Units=GPa)
#
#
# Indices 1 2 3 4 5 6 
#
# 1 146.3720 54.6987 39.5033 0.0000 0.0000 0.0000
# 2 54.6987 82.2958 21.1915 0.0000 0.0000 0.0000
# 3 39.5033 21.1915 64.1675 0.0000 0.0000 0.0000
# 4 0.0000 0.0000 0.0000 20.1356 0.0000 0.0000
# 5 0.0000 0.0000 0.0000 0.0000 19.1888 0.0000
# 6 0.0000 0.0000 0.0000 0.0000 0.0000 14.5040
#
#
#
# Elastic Compliance Matrix: (Units=1/GPa)
#
#
# Indices 1 2 3 4 5 6 
#
# 1 0.010100 -0.005587 -0.004373 0.000000 0.000000 0.000000
# 2 -0.005587 0.016371 -0.001967 0.000000 0.000000 0.000000
# 3 -0.004373 -0.001967 0.018926 0.000000 0.000000 0.000000
# 4 0.000000 0.000000 0.000000 0.049663 0.000000 0.000000
# 5 0.000000 0.000000 0.000000 0.000000 0.052114 0.000000
# 6 0.000000 0.000000 0.000000 0.000000 0.000000 0.068947
#
#
# Mechanical properties :
#
#
# Convention : Reuss Voigt Hill
#
# Bulk Modulus (GPa) = 46.41799 58.18026 52.29912
# Shear Modulus (GPa) = 20.23018 22.59511 21.41265
#
# Velocity S-wave (km/s) = 3.30702 3.49497 3.40229
# Velocity P-wave (km/s) = 6.29882 6.90930 6.61111
#
# Compressibility (1/GPa) = 0.02154337
#
# Stress axis : x y z
#
# Youngs Moduli (GPa) = 99.01140 61.08255 52.83794
#
# Poissons Ratio (x) = 0.34127 0.23104
# Poissons Ratio (y) = 0.55318 0.10394
# Poissons Ratio (z) = 0.43294 0.12016
#
# Static dielectric constant tensor:
#      x y z
#    x 1.641210 0.000000 0.000000 
#    y 0.000000 1.703770 0.000000 
#    z 0.000000 0.000000 1.658850 
# 
# From -- ./inp_files/49305.got.cif
#   From: 2010.05.17/outbox.cif.g08.bks.cpg/sg74_25_cif.got.tgz:49305.got - 2010.06.03 17:57:02.
