data_PCOD9538049
_publ_section_title
;
Structure prediction by ZEFSAII (Michael W. Deem and Ramdas Pophale) SiO2 
 PCOD9538049
Probable space group: I M M A
;
_chemical_formula_sum "Si O2"
_cell_formula_units_Z 96
_cell_length_a 22.385286
_cell_length_b 28.645645
_cell_length_c 7.664544
_cell_angle_alpha 90.000000
_cell_angle_beta 90.000000
_cell_angle_gamma 90.000000
_cell_volume 4914.819522
_symmetry_space_group_name_H-M "I M M A"
_symmetry_group_IT_number 74
_symmetry_cell_setting 'orthorhombic'
loop_
_space_group_symop_operation_xyz
x,y,z
-x,1/2-y,z
x,-y,-z
-x,1/2+y,-z
-x,-y,-z
x,1/2+y,-z
-x,y,z
x,1/2-y,z
1/2+x,1/2+y,1/2+z
1/2-x,-y,1/2+z
1/2+x,1/2-y,1/2-z
1/2-x,y,1/2-z
1/2-x,1/2-y,1/2-z
1/2+x,y,1/2-z
1/2-x,1/2+y,1/2+z
1/2+x,-y,1/2+z
loop_
_atom_site_type_symbol
_atom_site_label
_atom_site_fract_x
_atom_site_fract_y
_atom_site_fract_z
Si Si1 0.568842 0.354733 0.831796
Si Si2 0.430323 0.448876 0.020456
Si Si3 0.380873 0.304159 0.141662
Si Si4 0.748389 0.303212 0.960921
Si Si5 0.635261 0.143713 0.491156
Si Si6 0.068667 0.552618 0.936087
O O1 0.500000 0.359820 0.779205
O O2 0.607158 0.336511 0.669417
O O3 0.592230 0.404511 0.911010
O O4 0.573758 0.319605 0.992538
O O5 0.500000 0.452894 0.964379
O O6 0.429792 0.441677 0.227463
O O7 0.401612 0.500000 0.000000
O O8 0.385653 0.250000 0.185651
O O9 0.390851 0.334449 0.314449
O O10 0.315554 0.311587 0.051073
O O11 0.767035 0.250000 0.012018
O O12 0.750000 0.304234 0.750000
O O13 0.795869 0.341830 0.018265
O O14 0.616237 0.089818 0.503690
O O15 0.000000 0.563028 0.991684
O O16 0.080808 0.500000 0.000000
#
# Coordination Sequence:
#
# PCOD9538049 Si02
#       6
#    16  16  16  16  16  16
#     4  11  23  38  58  89 127 164 203 253 312 376
#     4   9  17  33  56  82 117 159 202 248 296 357
#     4  11  24  42  63  89 122 164 211 260 312 374
#     4  10  21  41  67  90 114 155 212 265 313 370
#     4  12  22  37  65  92 121 157 210 262 312 359
#     4  10  20  35  58  91 127 163 206 252 303 372
#
# _framework density 19.532762999999999
#
# number of rings (size 3 to 8) (size 9 to 14) (size 15 to 20)
#    0.000    1.500    3.333    2.500    0.000    5.667 
#    0.000    0.000    0.000    7.500    0.000    0.000 
#    0.000    0.000    0.000    0.000    0.000    0.000 
#
# Total GULP energy -267743.957749 kJ/mol
# GULP energy per Si atom -5577.999120 kJ/mol
# Density = 1.948831 g / cm^3
# Si number density = 19.532763 Si / 1000 Ang^3
#
#
#
# Elastic Constant Matrix: (Units=GPa)
#
#
# Indices 1 2 3 4 5 6 
#
# 1 42.5371 37.9681 9.3481 0.0000 0.0000 0.0000
# 2 37.9681 92.1825 23.1609 0.0000 0.0000 0.0000
# 3 9.3481 23.1609 109.3726 0.0000 0.0000 0.0000
# 4 0.0000 0.0000 0.0000 28.7932 0.0000 0.0000
# 5 0.0000 0.0000 0.0000 0.0000 16.7250 0.0000
# 6 0.0000 0.0000 0.0000 0.0000 0.0000 33.5127
#
#
#
# Elastic Compliance Matrix: (Units=1/GPa)
#
#
# Indices 1 2 3 4 5 6 
#
# 1 0.037177 -0.015330 0.000069 0.000000 0.000000 0.000000
# 2 -0.015330 0.017779 -0.002455 0.000000 0.000000 0.000000
# 3 0.000069 -0.002455 0.009657 0.000000 0.000000 0.000000
# 4 0.000000 0.000000 0.000000 0.034730 0.000000 0.000000
# 5 0.000000 0.000000 0.000000 0.000000 0.059791 0.000000
# 6 0.000000 0.000000 0.000000 0.000000 0.000000 0.029839
#
#
# Mechanical properties :
#
#
# Convention : Reuss Voigt Hill
#
# Bulk Modulus (GPa) = 34.26832 42.78292 38.52562
# Shear Modulus (GPa) = 21.35551 27.38051 24.36801
#
# Velocity S-wave (km/s) = 3.31012 3.74809 3.53589
# Velocity P-wave (km/s) = 5.67374 6.37821 6.03626
#
# Compressibility (1/GPa) = 0.02918147
#
# Stress axis : x y z
#
# Youngs Moduli (GPa) = 26.89845 56.24691 103.55202
#
# Poissons Ratio (x) = 0.86225 -0.00712
# Poissons Ratio (y) = 0.41234 0.25418
# Poissons Ratio (z) = -0.00185 0.13807
#
# Static dielectric constant tensor:
#      x y z
#    x 1.672070 0.000000 0.000000 
#    y 0.000000 1.719790 0.000000 
#    z 0.000000 0.000000 1.729090 
# 
# From -- ./inp_files/12678.got.cif
#   From: 2010.05.17/outbox.cif.g08.bks.cpg/sg74_7_cif.got.tgz:12678.got - 2010.06.03 17:57:02.
