data_PCOD9538691
_publ_section_title
;
Structure prediction by ZEFSAII (Michael W. Deem and Ramdas Pophale) SiO2 
 PCOD9538691
Probable space group: I M M A
;
_chemical_formula_sum "Si O2"
_cell_formula_units_Z 88
_cell_length_a 22.228735
_cell_length_b 9.223611
_cell_length_c 23.059420
_cell_angle_alpha 90.000000
_cell_angle_beta 90.000000
_cell_angle_gamma 90.000000
_cell_volume 4727.854543
_symmetry_space_group_name_H-M "I M M A"
_symmetry_group_IT_number 74
_symmetry_cell_setting 'orthorhombic'
loop_
_space_group_symop_operation_xyz
x,y,z
-x,1/2-y,z
x,-y,-z
-x,1/2+y,-z
-x,-y,-z
x,1/2+y,-z
-x,y,z
x,1/2-y,z
1/2+x,1/2+y,1/2+z
1/2-x,-y,1/2+z
1/2+x,1/2-y,1/2-z
1/2-x,y,1/2-z
1/2-x,1/2-y,1/2-z
1/2+x,y,1/2-z
1/2-x,1/2+y,1/2+z
1/2+x,-y,1/2+z
loop_
_atom_site_type_symbol
_atom_site_label
_atom_site_fract_x
_atom_site_fract_y
_atom_site_fract_z
Si Si1 0.628758 0.924483 0.619661
Si Si2 0.500000 0.576056 0.563042
Si Si3 0.683295 0.580939 0.269301
Si Si4 0.349696 0.586833 0.138946
Si Si5 0.736623 0.078737 0.557668
Si Si6 0.069669 0.919996 0.556861
O O1 0.635473 0.750000 0.619743
O O2 0.560696 0.959422 0.599278
O O3 0.649390 0.989783 0.681735
O O4 0.675244 0.998760 0.575158
O O5 0.500000 0.750000 0.553910
O O6 0.500000 0.500000 0.500000
O O7 0.689475 0.750000 0.289137
O O8 0.750000 0.529451 0.250000
O O9 0.649603 0.580130 0.207941
O O10 0.368047 0.750000 0.120925
O O11 0.283669 0.564266 0.110847
O O12 0.393011 0.470262 0.111477
O O13 0.727585 0.250000 0.547400
O O14 0.760440 0.000000 0.500000
O O15 0.073473 0.750000 0.547799
O O16 0.000000 0.961525 0.564282
O O17 0.093347 0.000000 0.500000
#
# Coordination Sequence:
#
# PCOD9538691 Si02
#       6
#    16   8  16  16  16  16
#     4  11  23  40  62  89 120 158 200 247 302 360
#     4  10  24  44  64  90 124 160 205 256 307 362
#     4  10  20  40  63  86 118 154 192 239 292 349
#     4  10  21  37  59  84 115 152 192 240 291 348
#     4  11  22  37  57  87 121 152 190 243 297 353
#     4  10  21  37  57  82 114 151 191 237 288 342
#
# _framework density 18.613094
#
# number of rings (size 3 to 8) (size 9 to 14) (size 15 to 20)
#    0.000    1.636    1.818    2.727    0.000    8.000 
#    1.636    0.000    0.000    0.000    0.000    0.000 
#    0.000    0.000    0.000    0.000    0.000    0.000 
#
# Total GULP energy -245649.738905 kJ/mol
# GULP energy per Si atom -5582.948611 kJ/mol
# Density = 1.857073 g / cm^3
# Si number density = 18.613094 Si / 1000 Ang^3
#
#
#
# Elastic Constant Matrix: (Units=GPa)
#
#
# Indices 1 2 3 4 5 6 
#
# 1 101.3227 56.2294 45.6360 0.0000 0.0000 0.0000
# 2 56.2294 65.2366 46.4755 0.0000 0.0000 0.0000
# 3 45.6360 46.4755 106.1116 0.0000 0.0000 0.0000
# 4 0.0000 0.0000 0.0000 36.9794 0.0000 0.0000
# 5 0.0000 0.0000 0.0000 0.0000 13.5619 0.0000
# 6 0.0000 0.0000 0.0000 0.0000 0.0000 29.1132
#
#
#
# Elastic Compliance Matrix: (Units=1/GPa)
#
#
# Indices 1 2 3 4 5 6 
#
# 1 0.019073 -0.015401 -0.001457 0.000000 0.000000 0.000000
# 2 -0.015401 0.034718 -0.008582 0.000000 0.000000 0.000000
# 3 -0.001457 -0.008582 0.013810 0.000000 0.000000 0.000000
# 4 0.000000 0.000000 0.000000 0.027042 0.000000 0.000000
# 5 0.000000 0.000000 0.000000 0.000000 0.073736 0.000000
# 6 0.000000 0.000000 0.000000 0.000000 0.000000 0.034349
#
#
# Mechanical properties :
#
#
# Convention : Reuss Voigt Hill
#
# Bulk Modulus (GPa) = 59.81284 63.26140 61.53712
# Shear Modulus (GPa) = 19.29153 24.21956 21.75555
#
# Velocity S-wave (km/s) = 3.22289 3.61114 3.42252
# Velocity P-wave (km/s) = 6.78630 7.17276 6.98221
#
# Compressibility (1/GPa) = 0.01671882
#
# Stress axis : x y z
#
# Youngs Moduli (GPa) = 52.43084 28.80381 72.41333
#
# Poissons Ratio (x) = 0.44361 0.10552
# Poissons Ratio (y) = 0.80750 0.62146
# Poissons Ratio (z) = 0.07640 0.24720
#
# Static dielectric constant tensor:
#      x y z
#    x 1.654070 0.000000 0.000000 
#    y 0.000000 1.628150 0.000000 
#    z 0.000000 0.000000 1.697620 
# 
# From -- ./inp_files/54518.got.cif
#   From: 2010.05.17/outbox.cif.g08.bks.cpg/sg74_28_cif.got.tgz:54518.got - 2010.06.03 17:57:02.
