data_PCOD9538915
_publ_section_title
;
Structure prediction by ZEFSAII (Michael W. Deem and Ramdas Pophale) SiO2 
 PCOD9538915
Probable space group: I M M A
;
_chemical_formula_sum "Si O2"
_cell_formula_units_Z 104
_cell_length_a 8.984381
_cell_length_b 21.363334
_cell_length_c 28.306132
_cell_angle_alpha 90.000000
_cell_angle_beta 90.000000
_cell_angle_gamma 90.000000
_cell_volume 5432.975152
_symmetry_space_group_name_H-M "I M M A"
_symmetry_group_IT_number 74
_symmetry_cell_setting 'orthorhombic'
loop_
_space_group_symop_operation_xyz
x,y,z
-x,1/2-y,z
x,-y,-z
-x,1/2+y,-z
-x,-y,-z
x,1/2+y,-z
-x,y,z
x,1/2-y,z
1/2+x,1/2+y,1/2+z
1/2-x,-y,1/2+z
1/2+x,1/2-y,1/2-z
1/2-x,y,1/2-z
1/2-x,1/2-y,1/2-z
1/2+x,y,1/2-z
1/2-x,1/2+y,1/2+z
1/2+x,-y,1/2+z
loop_
_atom_site_type_symbol
_atom_site_label
_atom_site_fract_x
_atom_site_fract_y
_atom_site_fract_z
Si Si1 0.675992 0.178709 0.640153
Si Si2 0.179663 0.682008 0.978478
Si Si3 0.322460 0.850205 0.629226
Si Si4 0.826494 0.421021 0.701779
Si Si5 0.823344 0.915755 0.052355
Si Si6 0.675155 0.483581 0.114557
Si Si7 0.821291 0.750000 0.697949
O O1 0.500000 0.179023 0.650021
O O2 0.725722 0.250000 0.633279
O O3 0.757888 0.143265 0.682287
O O4 0.695329 0.136892 0.593213
O O5 0.233988 0.750000 0.996249
O O6 0.207019 0.677717 0.922865
O O7 0.000000 0.681722 0.985363
O O8 0.233063 0.620247 0.005777
O O9 0.500000 0.847327 0.637729
O O10 0.265509 0.920979 0.625378
O O11 0.237546 0.810006 0.668538
O O12 0.750000 0.441319 0.750000
O O13 0.806571 0.471295 0.659997
O O14 0.000000 0.412913 0.710277
O O15 0.000000 0.930166 0.048073
O O16 0.739279 0.977326 0.070176
O O17 0.500000 0.470506 0.108247
O O18 0.750000 0.750000 0.750000
O O19 0.000000 0.750000 0.700587
#
# Coordination Sequence:
#
# PCOD9538915 Si02
#       7
#    16  16  16  16  16  16   8
#     4   9  17  30  50  77 108 142 185 234 281 330
#     4   9  17  32  58  89 120 153 196 245 289 343
#     4  11  22  40  65  92 121 154 194 239 292 351
#     4  10  21  36  54  74 101 139 183 233 287 343
#     4   9  17  32  56  84 113 153 200 242 285 337
#     4  10  22  39  56  80 117 155 193 242 298 355
#     4  12  26  46  70  96 126 158 196 244 301 362
#
# _framework density 19.142365000000002
#
# number of rings (size 3 to 8) (size 9 to 14) (size 15 to 20)
#    0.000    2.154    0.769    2.538    0.000    5.538 
#    0.000    6.154    0.000    0.923    0.000    0.000 
#    0.000    0.000    0.000    0.000    0.000    0.000 
#
# Total GULP energy -290259.464388 kJ/mol
# GULP energy per Si atom -5581.912777 kJ/mol
# Density = 1.909880 g / cm^3
# Si number density = 19.142365 Si / 1000 Ang^3
#
#
#
# Elastic Constant Matrix: (Units=GPa)
#
#
# Indices 1 2 3 4 5 6 
#
# 1 69.3357 55.3222 58.4382 0.0000 0.0000 0.0000
# 2 55.3222 111.7241 35.3871 0.0000 0.0000 0.0000
# 3 58.4382 35.3871 91.1078 0.0000 0.0000 0.0000
# 4 0.0000 0.0000 0.0000 17.4528 0.0000 0.0000
# 5 0.0000 0.0000 0.0000 0.0000 22.4716 0.0000
# 6 0.0000 0.0000 0.0000 0.0000 0.0000 27.4742
#
#
#
# Elastic Compliance Matrix: (Units=1/GPa)
#
#
# Indices 1 2 3 4 5 6 
#
# 1 0.047643 -0.015864 -0.024397 0.000000 0.000000 0.000000
# 2 -0.015864 0.015488 0.004159 0.000000 0.000000 0.000000
# 3 -0.024397 0.004159 0.025009 0.000000 0.000000 0.000000
# 4 0.000000 0.000000 0.000000 0.057298 0.000000 0.000000
# 5 0.000000 0.000000 0.000000 0.000000 0.044501 0.000000
# 6 0.000000 0.000000 0.000000 0.000000 0.000000 0.036398
#
#
# Mechanical properties :
#
#
# Convention : Reuss Voigt Hill
#
# Bulk Modulus (GPa) = 62.74582 63.38474 63.06528
# Shear Modulus (GPa) = 16.45535 21.68106 19.06821
#
# Velocity S-wave (km/s) = 2.93513 3.36910 3.15957
# Velocity P-wave (km/s) = 6.65855 6.95116 6.80643
#
# Compressibility (1/GPa) = 0.01593732
#
# Stress axis : x y z
#
# Youngs Moduli (GPa) = 20.98945 64.56455 39.98497
#
# Poissons Ratio (x) = 1.02423 0.97553
# Poissons Ratio (y) = 0.33297 -0.16632
# Poissons Ratio (z) = 0.51209 -0.26855
#
# Static dielectric constant tensor:
#      x y z
#    x 1.640760 0.000000 0.000000 
#    y 0.000000 1.676920 0.000000 
#    z 0.000000 0.000000 1.679000 
# 
# From -- ./inp_files/64517.got.cif
#   From: 2010.05.17/outbox.cif.g08.bks.cpg/sg74_33_cif.got.tgz:64517.got - 2010.06.03 17:57:02.
