data_PCOD9538208
_publ_section_title
;
Structure prediction by ZEFSAII (Michael W. Deem and Ramdas Pophale) SiO2 
 PCOD9538208
Probable space group: I M M A
;
_chemical_formula_sum "Si O2"
_cell_formula_units_Z 72
_cell_length_a 8.789726
_cell_length_b 14.815127
_cell_length_c 30.568768
_cell_angle_alpha 90.000000
_cell_angle_beta 90.000000
_cell_angle_gamma 90.000000
_cell_volume 3980.692694
_symmetry_space_group_name_H-M "I M M A"
_symmetry_group_IT_number 74
_symmetry_cell_setting 'orthorhombic'
loop_
_space_group_symop_operation_xyz
x,y,z
-x,1/2-y,z
x,-y,-z
-x,1/2+y,-z
-x,-y,-z
x,1/2+y,-z
-x,y,z
x,1/2-y,z
1/2+x,1/2+y,1/2+z
1/2-x,-y,1/2+z
1/2+x,1/2-y,1/2-z
1/2-x,y,1/2-z
1/2-x,1/2-y,1/2-z
1/2+x,y,1/2-z
1/2-x,1/2+y,1/2+z
1/2+x,-y,1/2+z
loop_
_atom_site_type_symbol
_atom_site_label
_atom_site_fract_x
_atom_site_fract_y
_atom_site_fract_z
Si Si1 0.183029 0.441115 0.624647
Si Si2 0.816861 0.562565 0.541542
Si Si3 0.682369 0.052211 0.298762
Si Si4 0.316066 0.250000 0.916172
Si Si5 0.819064 0.750000 0.986183
Si Si6 0.183015 0.250000 0.201158
O O1 0.225175 0.509166 0.585386
O O2 0.256643 0.476121 0.669034
O O3 0.226785 0.340552 0.609714
O O4 0.000000 0.442900 0.629005
O O5 0.775405 0.500000 0.500000
O O6 0.741226 0.659678 0.536924
O O7 0.000000 0.573386 0.540565
O O8 0.500000 0.048859 0.296144
O O9 0.750000 0.044061 0.250000
O O10 0.728265 0.152170 0.317406
O O11 0.500000 0.250000 0.921591
O O12 0.244849 0.250000 0.964302
O O13 0.000000 0.750000 0.986920
O O14 0.250000 0.250000 0.250000
O O15 0.000000 0.250000 0.203237
#
# Coordination Sequence:
#
# PCOD9538208 Si02
#       6
#    16  16  16   8   8   8
#     4  10  21  37  61  86 109 145 194 243 287 338
#     4  10  20  38  61  82 110 151 196 236 281 342
#     4  10  20  36  58  84 118 151 188 233 283 343
#     4  10  20  40  62  80 108 151 200 237 284 351
#     4  12  24  35  55  87 123 153 188 239 294 345
#     4   8  16  31  52  77 105 144 178 214 269 328
#
# _framework density 18.087305000000001
#
# number of rings (size 3 to 8) (size 9 to 14) (size 15 to 20)
#    0.000    2.000    2.222    1.667    0.000    4.000 
#    0.000    2.778    0.000    0.000    0.000    0.000 
#    0.000    0.000    0.000    0.000    0.000    0.000 
#
# Total GULP energy -200915.546709 kJ/mol
# GULP energy per Si atom -5580.987409 kJ/mol
# Density = 1.804614 g / cm^3
# Si number density = 18.087305 Si / 1000 Ang^3
#
#
#
# Elastic Constant Matrix: (Units=GPa)
#
#
# Indices 1 2 3 4 5 6 
#
# 1 27.7862 53.0778 36.1743 0.0000 0.0000 0.0000
# 2 53.0778 188.4302 78.5247 0.0000 0.0000 0.0000
# 3 36.1743 78.5247 103.1272 0.0000 0.0000 0.0000
# 4 0.0000 0.0000 0.0000 25.9466 0.0000 0.0000
# 5 0.0000 0.0000 0.0000 0.0000 25.8320 0.0000
# 6 0.0000 0.0000 0.0000 0.0000 0.0000 5.8529
#
#
#
# Elastic Compliance Matrix: (Units=1/GPa)
#
#
# Indices 1 2 3 4 5 6 
#
# 1 0.099710 -0.019791 -0.019906 0.000000 0.000000 0.000000
# 2 -0.019791 0.011702 -0.001968 0.000000 0.000000 0.000000
# 3 -0.019906 -0.001968 0.018178 0.000000 0.000000 0.000000
# 4 0.000000 0.000000 0.000000 0.038541 0.000000 0.000000
# 5 0.000000 0.000000 0.000000 0.000000 0.038712 0.000000
# 6 0.000000 0.000000 0.000000 0.000000 0.000000 0.170855
#
#
# Mechanical properties :
#
#
# Convention : Reuss Voigt Hill
#
# Bulk Modulus (GPa) = 21.61728 72.76635 47.19182
# Shear Modulus (GPa) = 10.49435 21.63076 16.06255
#
# Velocity S-wave (km/s) = 2.41136 3.46194 2.98326
# Velocity P-wave (km/s) = 4.44190 7.50320 6.16557
#
# Compressibility (1/GPa) = 0.04625928
#
# Stress axis : x y z
#
# Youngs Moduli (GPa) = 10.02909 85.45491 55.01221
#
# Poissons Ratio (x) = 1.69127 1.09506
# Poissons Ratio (y) = 0.19849 0.10827
# Poissons Ratio (z) = 0.19964 0.16818
#
# Static dielectric constant tensor:
#      x y z
#    x 1.609520 0.000000 0.000000 
#    y 0.000000 1.633360 0.000000 
#    z 0.000000 0.000000 1.585790 
# 
# From -- ./inp_files/66780.got.cif
#   From: 2010.05.17/outbox.cif.g08.bks.cpg/sg74_34_cif.got.tgz:66780.got - 2010.06.03 17:57:02.
