data_PCOD9538265
_publ_section_title
;
Structure prediction by ZEFSAII (Michael W. Deem and Ramdas Pophale) SiO2 
 PCOD9538265
Probable space group: I M M A
;
_chemical_formula_sum "Si O2"
_cell_formula_units_Z 112
_cell_length_a 14.146792
_cell_length_b 15.816141
_cell_length_c 25.101807
_cell_angle_alpha 90.000000
_cell_angle_beta 90.000000
_cell_angle_gamma 90.000000
_cell_volume 5616.470502
_symmetry_space_group_name_H-M "I M M A"
_symmetry_group_IT_number 74
_symmetry_cell_setting 'orthorhombic'
loop_
_space_group_symop_operation_xyz
x,y,z
-x,1/2-y,z
x,-y,-z
-x,1/2+y,-z
-x,-y,-z
x,1/2+y,-z
-x,y,z
x,1/2-y,z
1/2+x,1/2+y,1/2+z
1/2-x,-y,1/2+z
1/2+x,1/2-y,1/2-z
1/2-x,y,1/2-z
1/2-x,1/2-y,1/2-z
1/2+x,y,1/2-z
1/2-x,1/2+y,1/2+z
1/2+x,-y,1/2+z
loop_
_atom_site_type_symbol
_atom_site_label
_atom_site_fract_x
_atom_site_fract_y
_atom_site_fract_z
Si Si1 0.177477 0.839104 0.298756
Si Si2 0.843989 0.657274 0.714181
Si Si3 0.768583 0.845430 0.085106
Si Si4 0.389818 0.101962 0.999039
Si Si5 0.884981 0.496269 0.114210
Si Si6 0.898814 0.011764 0.764613
Si Si7 0.240224 0.348065 0.402813
O O1 0.121189 0.750000 0.298546
O O2 0.250000 0.832475 0.250000
O O3 0.229811 0.843496 0.354652
O O4 0.131215 0.926957 0.282942
O O5 0.889014 0.750000 0.716771
O O6 0.750000 0.660200 0.750000
O O7 0.900032 0.580825 0.739825
O O8 0.811312 0.640738 0.654033
O O9 0.802900 0.750000 0.072052
O O10 0.846578 0.919947 0.084015
O O11 0.678561 0.867269 0.048351
O O12 0.500000 0.129196 0.994662
O O13 0.337683 0.134347 0.052075
O O14 0.389257 0.000000 0.000000
O O15 0.852619 0.505837 0.176866
O O16 0.826881 0.414447 0.093511
O O17 0.000000 0.486873 0.110652
O O18 0.000000 0.046689 0.780041
O O19 0.272018 0.250000 0.405965
#
# Coordination Sequence:
#
# PCOD9538265 Si02
#       7
#    16  16  16  16  16  16  16
#     4  10  20  36  59  87 121 161 209 257 308 373
#     4  10  20  36  59  87 121 161 209 257 308 373
#     4  11  23  42  67  92 127 171 213 262 321 380
#     4  11  25  45  71  99 127 162 209 266 324 384
#     4  11  23  40  62  94 131 166 211 264 314 372
#     4  11  22  34  56  87 125 165 204 258 316 374
#     4  11  23  42  67  92 127 171 213 262 321 380
#
# _framework density 19.941348000000001
#
# number of rings (size 3 to 8) (size 9 to 14) (size 15 to 20)
#    0.000    1.286    4.286    1.714    0.000    3.429 
#    0.000    7.143    0.000    1.714    0.000    0.000 
#    0.000    0.000    0.000    0.000    0.000    0.000 
#
# Total GULP energy -311943.556768 kJ/mol
# GULP energy per Si atom -5570.420657 kJ/mol
# Density = 1.989596 g / cm^3
# Si number density = 19.941348 Si / 1000 Ang^3
#
#
#
# Elastic Constant Matrix: (Units=GPa)
#
#
# Indices 1 2 3 4 5 6 
#
# 1 92.1017 51.9972 36.1282 0.0000 0.0000 0.0000
# 2 51.9972 142.1392 14.0104 0.0000 0.0000 0.0000
# 3 36.1282 14.0104 103.3564 0.0000 0.0000 0.0000
# 4 0.0000 0.0000 0.0000 34.7979 0.0000 0.0000
# 5 0.0000 0.0000 0.0000 0.0000 18.4140 0.0000
# 6 0.0000 0.0000 0.0000 0.0000 0.0000 45.9512
#
#
#
# Elastic Compliance Matrix: (Units=1/GPa)
#
#
# Indices 1 2 3 4 5 6 
#
# 1 0.015710 -0.005276 -0.004776 0.000000 0.000000 0.000000
# 2 -0.005276 0.008903 0.000637 0.000000 0.000000 0.000000
# 3 -0.004776 0.000637 0.011258 0.000000 0.000000 0.000000
# 4 0.000000 0.000000 0.000000 0.028737 0.000000 0.000000
# 5 0.000000 0.000000 0.000000 0.000000 0.054306 0.000000
# 6 0.000000 0.000000 0.000000 0.000000 0.000000 0.021762
#
#
# Mechanical properties :
#
#
# Convention : Reuss Voigt Hill
#
# Bulk Modulus (GPa) = 58.68151 60.20765 59.44458
# Shear Modulus (GPa) = 30.26875 35.53005 32.89940
#
# Velocity S-wave (km/s) = 3.90024 4.22563 4.06619
# Velocity P-wave (km/s) = 7.05503 7.35295 7.20553
#
# Compressibility (1/GPa) = 0.01704114
#
# Stress axis : x y z
#
# Youngs Moduli (GPa) = 63.65448 112.32618 88.82301
#
# Poissons Ratio (x) = 0.59265 0.42423
# Poissons Ratio (y) = 0.33585 -0.05662
# Poissons Ratio (z) = 0.30402 -0.07161
#
# Static dielectric constant tensor:
#      x y z
#    x 2.033700 0.000000 0.000000 
#    y 0.000000 1.811860 0.000000 
#    z 0.000000 0.000000 1.690750 
# 
# From -- ./inp_files/60141.got.cif
#   From: 2010.05.17/outbox.cif.g08.bks.cpg/sg74_31_cif.got.tgz:60141.got - 2010.06.03 17:57:02.
