data_PCOD9538667
_publ_section_title
;
Structure prediction by ZEFSAII (Michael W. Deem and Ramdas Pophale) SiO2 
 PCOD9538667
Probable space group: I M M A
;
_chemical_formula_sum "Si O2"
_cell_formula_units_Z 96
_cell_length_a 13.429383
_cell_length_b 26.522658
_cell_length_c 13.703882
_cell_angle_alpha 90.000000
_cell_angle_beta 90.000000
_cell_angle_gamma 90.000000
_cell_volume 4881.088877
_symmetry_space_group_name_H-M "I M M A"
_symmetry_group_IT_number 74
_symmetry_cell_setting 'orthorhombic'
loop_
_space_group_symop_operation_xyz
x,y,z
-x,1/2-y,z
x,-y,-z
-x,1/2+y,-z
-x,-y,-z
x,1/2+y,-z
-x,y,z
x,1/2-y,z
1/2+x,1/2+y,1/2+z
1/2-x,-y,1/2+z
1/2+x,1/2-y,1/2-z
1/2-x,y,1/2-z
1/2-x,1/2-y,1/2-z
1/2+x,y,1/2-z
1/2-x,1/2+y,1/2+z
1/2+x,-y,1/2+z
loop_
_atom_site_type_symbol
_atom_site_label
_atom_site_fract_x
_atom_site_fract_y
_atom_site_fract_z
Si Si1 0.121131 0.250000 0.944780
Si Si2 0.693158 0.638714 0.397164
Si Si3 0.618999 0.250000 0.333222
Si Si4 0.884200 0.352696 0.275674
Si Si5 0.387536 0.011032 0.115026
Si Si6 0.771553 0.598140 0.892455
Si Si7 0.612932 0.400112 0.801985
O O1 0.160006 0.197030 0.901833
O O2 0.000000 0.250000 0.939587
O O3 0.157924 0.250000 0.057257
O O4 0.684190 0.610956 0.501907
O O5 0.631576 0.611076 0.311776
O O6 0.807182 0.631897 0.362766
O O7 0.500000 0.250000 0.345841
O O8 0.641256 0.299715 0.273425
O O9 0.852381 0.393403 0.192769
O O10 0.815707 0.361559 0.368840
O O11 0.000000 0.354521 0.297443
O O12 0.500000 0.030500 0.142821
O O13 0.371072 0.958903 0.172236
O O14 0.291449 0.047072 0.121662
O O15 0.393873 0.000000 0.000000
O O16 0.500000 0.387757 0.828994
#
# Coordination Sequence:
#
# PCOD9538667 Si02
#       7
#     8  16   8  16  16  16  16
#     4  11  22  40  67  94 133 181 219 263 329 394
#     4  11  23  39  64  98 126 169 226 263 317 388
#     4   9  18  36  59  85 122 166 208 254 320 392
#     4  10  22  37  58  89 124 163 208 261 323 386
#     4  10  20  39  66  91 122 167 208 254 328 393
#     4  11  22  37  62  93 125 163 211 270 314 391
#     4  10  23  42  65  93 131 169 213 270 321 381
#
# _framework density 19.667743000000002
#
# number of rings (size 3 to 8) (size 9 to 14) (size 15 to 20)
#    0.000    1.667    3.333    1.000    0.000    7.333 
#    0.000    1.250    0.000    1.500    0.000    0.000 
#    0.000    0.000    0.000    0.000    0.000    0.000 
#
# Total GULP energy -267747.212318 kJ/mol
# GULP energy per Si atom -5578.066923 kJ/mol
# Density = 1.962298 g / cm^3
# Si number density = 19.667743 Si / 1000 Ang^3
#
#
#
# Elastic Constant Matrix: (Units=GPa)
#
#
# Indices 1 2 3 4 5 6 
#
# 1 67.2011 27.3129 -24.0065 0.0000 0.0000 0.0000
# 2 27.3129 126.2403 32.8743 0.0000 0.0000 0.0000
# 3 -24.0065 32.8743 70.6875 0.0000 -0.0001 0.0002
# 4 0.0000 0.0000 0.0000 25.3627 0.0000 0.0001
# 5 0.0000 0.0000 -0.0001 0.0000 4.5327 0.0000
# 6 0.0000 0.0000 0.0002 0.0001 0.0000 29.9485
#
#
#
# Elastic Compliance Matrix: (Units=1/GPa)
#
#
# Indices 1 2 3 4 5 6 
#
# 1 0.021880 -0.007588 0.010960 0.000000 0.000000 0.000000
# 2 -0.007588 0.011644 -0.007992 0.000000 0.000000 0.000000
# 3 0.010960 -0.007992 0.021586 0.000000 0.000000 0.000000
# 4 0.000000 0.000000 0.000000 0.039428 0.000000 0.000000
# 5 0.000000 0.000000 0.000000 0.000000 0.220621 0.000000
# 6 0.000000 0.000000 0.000000 0.000000 0.000000 0.033391
#
#
# Mechanical properties :
#
#
# Convention : Reuss Voigt Hill
#
# Bulk Modulus (GPa) = 21.80139 37.38783 29.59461
# Shear Modulus (GPa) = 13.40196 27.16532 20.28364
#
# Velocity S-wave (km/s) = 2.61323 3.72050 3.21489
# Velocity P-wave (km/s) = 4.49602 6.12431 5.37221
#
# Compressibility (1/GPa) = 0.04586863
#
# Stress axis : x y z
#
# Youngs Moduli (GPa) = 45.70433 85.87853 46.32692
#
# Poissons Ratio (x) = 0.65163 -0.50772
# Poissons Ratio (y) = 0.34680 0.37026
# Poissons Ratio (z) = -0.50090 0.68637
#
# Static dielectric constant tensor:
#      x y z
#    x 1.706210 0.000000 0.000000 
#    y 0.000000 1.736020 0.000000 
#    z 0.000000 0.000000 1.691120 
# 
# From -- ./inp_files/32649.got.cif
#   From: 2010.05.17/outbox.cif.g08.bks.cpg/sg74_17_cif.got.tgz:32649.got - 2010.06.03 17:57:02.
