data_PCOD9538656
_publ_section_title
;
Structure prediction by ZEFSAII (Michael W. Deem and Ramdas Pophale) SiO2 
 PCOD9538656
Probable space group: I M M A
;
_chemical_formula_sum "Si O2"
_cell_formula_units_Z 88
_cell_length_a 19.840658
_cell_length_b 21.301845
_cell_length_c 11.737633
_cell_angle_alpha 90.000000
_cell_angle_beta 90.000000
_cell_angle_gamma 90.000000
_cell_volume 4960.823980
_symmetry_space_group_name_H-M "I M M A"
_symmetry_group_IT_number 74
_symmetry_cell_setting 'orthorhombic'
loop_
_space_group_symop_operation_xyz
x,y,z
-x,1/2-y,z
x,-y,-z
-x,1/2+y,-z
-x,-y,-z
x,1/2+y,-z
-x,y,z
x,1/2-y,z
1/2+x,1/2+y,1/2+z
1/2-x,-y,1/2+z
1/2+x,1/2-y,1/2-z
1/2-x,y,1/2-z
1/2-x,1/2-y,1/2-z
1/2+x,y,1/2-z
1/2-x,1/2+y,1/2+z
1/2+x,-y,1/2+z
loop_
_atom_site_type_symbol
_atom_site_label
_atom_site_fract_x
_atom_site_fract_y
_atom_site_fract_z
Si Si1 0.078179 0.750000 0.984842
Si Si2 0.500000 0.969934 0.125117
Si Si3 0.500000 0.531420 0.375507
Si Si4 0.147965 0.918303 0.347461
Si Si5 0.753601 0.112147 0.034967
Si Si6 0.280822 0.250000 0.375100
Si Si7 0.377591 0.628152 0.376579
Si Si8 0.750000 0.021122 0.250000
O O1 0.092769 0.689409 0.063040
O O2 0.000000 0.750000 0.946483
O O3 0.137235 0.750000 0.888804
O O4 0.500000 0.004443 0.251683
O O5 0.429642 0.932813 0.127737
O O6 0.500000 0.000000 0.000000
O O7 0.500000 0.500000 0.500000
O O8 0.434978 0.575844 0.372480
O O9 0.187282 0.903745 0.463007
O O10 0.148734 0.863492 0.252378
O O11 0.187738 0.976339 0.287033
O O12 0.755811 0.185423 0.068182
O O13 0.762500 0.066855 0.142892
O O14 0.816211 0.102722 0.951015
O O15 0.250000 0.250000 0.250000
#
# Coordination Sequence:
#
# PCOD9538656 Si02
#       8
#     8   8   8  16  16   8  16   8
#     4  10  20  39  65  89 121 162 204 257 317 359
#     4  10  22  40  55  80 127 166 196 246 306 377
#     4  10  22  33  55  86 123 153 199 256 304 365
#     4  11  23  38  60  91 122 161 204 245 312 370
#     4  11  22  38  62  86 120 160 203 251 302 361
#     4  10  22  43  63  89 123 159 208 258 306 362
#     4  10  21  37  58  89 119 153 204 252 303 362
#     4  12  22  35  62  89 124 158 202 248 298 376
#
# _framework density 17.738990000000001
#
# number of rings (size 3 to 8) (size 9 to 14) (size 15 to 20)
#    0.000    1.455    3.636    1.636    5.091    0.727 
#    0.000    2.727    2.000    0.000    0.000    0.000 
#    0.000    0.000    0.000    0.000    0.000    0.000 
#
# Total GULP energy -245158.646511 kJ/mol
# GULP energy per Si atom -5571.787421 kJ/mol
# Density = 1.769861 g / cm^3
# Si number density = 17.738990 Si / 1000 Ang^3
#
#
#
# Elastic Constant Matrix: (Units=GPa)
#
#
# Indices 1 2 3 4 5 6 
#
# 1 142.9134 39.5535 56.0641 0.0000 0.0000 0.0000
# 2 39.5535 59.8091 33.2845 0.0000 0.0000 0.0000
# 3 56.0641 33.2845 140.5555 0.0000 0.0000 0.0000
# 4 0.0000 0.0000 0.0000 18.8315 0.0000 0.0000
# 5 0.0000 0.0000 0.0000 0.0000 25.2280 0.0000
# 6 0.0000 0.0000 0.0000 0.0000 0.0000 20.4710
#
#
#
# Elastic Compliance Matrix: (Units=1/GPa)
#
#
# Indices 1 2 3 4 5 6 
#
# 1 0.009324 -0.004718 -0.002602 0.000000 0.000000 0.000000
# 2 -0.004718 0.021645 -0.003244 0.000000 0.000000 0.000000
# 3 -0.002602 -0.003244 0.008921 0.000000 0.000000 0.000000
# 4 0.000000 0.000000 0.000000 0.053103 0.000000 0.000000
# 5 0.000000 0.000000 0.000000 0.000000 0.039638 0.000000
# 6 0.000000 0.000000 0.000000 0.000000 0.000000 0.048850
#
#
# Mechanical properties :
#
#
# Convention : Reuss Voigt Hill
#
# Bulk Modulus (GPa) = 53.29851 66.78689 60.04270
# Shear Modulus (GPa) = 23.93931 27.19784 25.56858
#
# Velocity S-wave (km/s) = 3.67758 3.91989 3.80067
# Velocity P-wave (km/s) = 6.93859 7.63013 7.29256
#
# Compressibility (1/GPa) = 0.01876225
#
# Stress axis : x y z
#
# Youngs Moduli (GPa) = 107.25358 46.19933 112.10093
#
# Poissons Ratio (x) = 0.21798 0.29165
# Poissons Ratio (y) = 0.50604 0.36363
# Poissons Ratio (z) = 0.27904 0.14986
#
# Static dielectric constant tensor:
#      x y z
#    x 1.612090 0.000000 0.000000 
#    y 0.000000 1.605820 0.000000 
#    z 0.000000 0.000000 1.660540 
# 
# From -- ./inp_files/22297.got.cif
#   From: 2010.05.17/outbox.cif.g08.bks.cpg/sg74_12_cif.got.tgz:22297.got - 2010.06.03 17:57:02.
