data_PCOD9538422
_publ_section_title
;
Structure prediction by ZEFSAII (Michael W. Deem and Ramdas Pophale) SiO2 
 PCOD9538422
Probable space group: I M M A
;
_chemical_formula_sum "Si O2"
_cell_formula_units_Z 112
_cell_length_a 14.046858
_cell_length_b 25.232729
_cell_length_c 14.267850
_cell_angle_alpha 90.000000
_cell_angle_beta 90.000000
_cell_angle_gamma 90.000000
_cell_volume 5057.104761
_symmetry_space_group_name_H-M "I M M A"
_symmetry_group_IT_number 74
_symmetry_cell_setting 'orthorhombic'
loop_
_space_group_symop_operation_xyz
x,y,z
-x,1/2-y,z
x,-y,-z
-x,1/2+y,-z
-x,-y,-z
x,1/2+y,-z
-x,y,z
x,1/2-y,z
1/2+x,1/2+y,1/2+z
1/2-x,-y,1/2+z
1/2+x,1/2-y,1/2-z
1/2-x,y,1/2-z
1/2-x,1/2-y,1/2-z
1/2+x,y,1/2-z
1/2-x,1/2+y,1/2+z
1/2+x,-y,1/2+z
loop_
_atom_site_type_symbol
_atom_site_label
_atom_site_fract_x
_atom_site_fract_y
_atom_site_fract_z
Si Si1 0.112610 0.440699 0.961639
Si Si2 0.391531 0.491113 0.897179
Si Si3 0.386259 0.188278 0.855054
Si Si4 0.895389 0.192313 0.157865
Si Si5 0.742250 0.851034 0.972793
Si Si6 0.849279 0.598371 0.700716
Si Si7 0.113855 0.411618 0.751755
O O1 0.134567 0.436281 0.851630
O O2 0.000000 0.426256 0.976261
O O3 0.123413 0.500000 0.000000
O O4 0.185693 0.399663 0.007200
O O5 0.500000 0.473849 0.917264
O O6 0.394843 0.543336 0.832234
O O7 0.345860 0.445331 0.834715
O O8 0.347303 0.500000 0.000000
O O9 0.500000 0.180675 0.879118
O O10 0.373311 0.250000 0.833832
O O11 0.364225 0.149632 0.767599
O O12 0.316073 0.171021 0.939230
O O13 0.886816 0.250000 0.207118
O O14 0.811815 0.188776 0.082288
O O15 0.890529 0.141900 0.227412
O O16 0.000000 0.190726 0.112878
O O17 0.667417 0.871075 0.896082
O O18 0.750000 0.583262 0.750000
O O19 0.000000 0.415982 0.745959
#
# Coordination Sequence:
#
# PCOD9538422 Si02
#       7
#    16  16  16  16  16  16  16
#     4  10  23  42  66  96 132 176 222 274 341 413
#     4  10  20  37  60  85 119 159 204 263 323 385
#     4  10  22  42  66  92 130 179 227 280 342 404
#     4  10  22  41  65  91 126 172 218 271 334 399
#     4  11  23  39  61  96 129 166 220 282 330 396
#     4  10  23  37  54  87 124 164 209 258 324 392
#     4   9  20  39  63  92 124 168 223 274 328 400
#
# _framework density 22.14706
#
# number of rings (size 3 to 8) (size 9 to 14) (size 15 to 20)
#    0.000    2.000    0.000    2.143    4.000    7.714 
#    0.000    3.571    0.000    3.857    0.000    0.000 
#    0.000    0.000    0.000    0.000    0.000    0.000 
#
# Total GULP energy -312549.566015 kJ/mol
# GULP energy per Si atom -5581.242250 kJ/mol
# Density = 2.209665 g / cm^3
# Si number density = 22.147060 Si / 1000 Ang^3
#
#
#
# Elastic Constant Matrix: (Units=GPa)
#
#
# Indices 1 2 3 4 5 6 
#
# 1 96.2672 34.4344 11.1689 0.0000 0.0000 0.0000
# 2 34.4344 152.3622 61.6736 0.0000 -0.0001 0.0000
# 3 11.1689 61.6736 110.9642 0.0000 -0.0002 0.0000
# 4 0.0000 0.0000 0.0000 27.8687 -0.0002 0.0000
# 5 0.0000 -0.0001 -0.0002 -0.0002 65.3736 0.0001
# 6 0.0000 0.0000 0.0000 0.0000 0.0001 43.0263
#
#
#
# Elastic Compliance Matrix: (Units=1/GPa)
#
#
# Indices 1 2 3 4 5 6 
#
# 1 0.011313 -0.002704 0.000364 0.000000 0.000000 0.000000
# 2 -0.002704 0.009115 -0.004794 0.000000 0.000000 0.000000
# 3 0.000364 -0.004794 0.011640 0.000000 0.000000 0.000000
# 4 0.000000 0.000000 0.000000 0.035883 0.000000 0.000000
# 5 0.000000 0.000000 0.000000 0.000000 0.015297 0.000000
# 6 0.000000 0.000000 0.000000 0.000000 0.000000 0.023242
#
#
# Mechanical properties :
#
#
# Convention : Reuss Voigt Hill
#
# Bulk Modulus (GPa) = 56.18018 63.79414 59.98716
# Shear Modulus (GPa) = 39.46673 44.07484 41.77078
#
# Velocity S-wave (km/s) = 4.22599 4.46589 4.34760
# Velocity P-wave (km/s) = 7.01669 7.44712 7.23511
#
# Compressibility (1/GPa) = 0.01779987
#
# Stress axis : x y z
#
# Youngs Moduli (GPa) = 88.39574 109.70999 85.91317
#
# Poissons Ratio (x) = 0.29668 -0.03130
# Poissons Ratio (y) = 0.23904 0.41186
# Poissons Ratio (z) = -0.03220 0.52594
#
# Static dielectric constant tensor:
#      x y z
#    x 1.837310 0.000000 0.000000 
#    y 0.000000 2.041890 0.000000 
#    z 0.000000 0.000000 1.820240 
# 
# From -- ./inp_files/32696.got.cif
#   From: 2010.05.17/outbox.cif.g08.bks.cpg/sg74_17_cif.got.tgz:32696.got - 2010.06.03 17:57:02.
