data_PCOD9538164
_publ_section_title
;
Structure prediction by ZEFSAII (Michael W. Deem and Ramdas Pophale) SiO2 
 PCOD9538164
Probable space group: I M M A
;
_chemical_formula_sum "Si O2"
_cell_formula_units_Z 96
_cell_length_a 19.033526
_cell_length_b 28.862516
_cell_length_c 9.927558
_cell_angle_alpha 90.000000
_cell_angle_beta 90.000000
_cell_angle_gamma 90.000000
_cell_volume 5453.758080
_symmetry_space_group_name_H-M "I M M A"
_symmetry_group_IT_number 74
_symmetry_cell_setting 'orthorhombic'
loop_
_space_group_symop_operation_xyz
x,y,z
-x,1/2-y,z
x,-y,-z
-x,1/2+y,-z
-x,-y,-z
x,1/2+y,-z
-x,y,z
x,1/2-y,z
1/2+x,1/2+y,1/2+z
1/2-x,-y,1/2+z
1/2+x,1/2-y,1/2-z
1/2-x,y,1/2-z
1/2-x,1/2-y,1/2-z
1/2+x,y,1/2-z
1/2-x,1/2+y,1/2+z
1/2+x,-y,1/2+z
loop_
_atom_site_type_symbol
_atom_site_label
_atom_site_fract_x
_atom_site_fract_y
_atom_site_fract_z
Si Si1 0.319275 0.554853 0.344070
Si Si2 0.418783 0.368316 0.250160
Si Si3 0.178800 0.951410 0.836191
Si Si4 0.665414 0.345132 0.739834
Si Si5 0.920747 0.697205 0.007849
Si Si6 0.584242 0.804759 0.005215
O O1 0.250000 0.553256 0.250000
O O2 0.305864 0.558949 0.505241
O O3 0.352124 0.503714 0.327627
O O4 0.356642 0.601709 0.294539
O O5 0.500000 0.381868 0.230993
O O6 0.371932 0.413157 0.274010
O O7 0.414077 0.337269 0.383829
O O8 0.398651 0.335390 0.125894
O O9 0.250000 0.950420 0.750000
O O10 0.750000 0.343619 0.750000
O O11 0.637004 0.314146 0.618120
O O12 0.628574 0.325840 0.872736
O O13 0.914785 0.750000 0.960354
O O14 0.000000 0.691768 0.065957
O O15 0.500000 0.808546 0.029894
O O16 0.599301 0.750000 0.986858
#
# Coordination Sequence:
#
# PCOD9538164 Si02
#       6
#    16  16  16  16  16  16
#     4   9  20  37  56  87 113 147 186 224 276 335
#     4  10  21  37  57  84 112 143 186 235 280 322
#     4  10  20  37  62  84 111 149 189 226 276 336
#     4  11  22  36  56  84 114 143 183 233 282 322
#     4  10  20  36  57  79 108 147 188 226 273 337
#     4  10  22  40  59  79 110 153 191 225 275 337
#
# _framework density 17.602540000000001
#
# number of rings (size 3 to 8) (size 9 to 14) (size 15 to 20)
#    0.000    2.000    1.667    1.500    4.667    4.667 
#    0.000    3.333    0.000    5.000    0.000    0.000 
#    0.000    0.000    0.000    0.000    0.000    0.000 
#
# Total GULP energy -267563.330687 kJ/mol
# GULP energy per Si atom -5574.236056 kJ/mol
# Density = 1.756248 g / cm^3
# Si number density = 17.602540 Si / 1000 Ang^3
#
#
#
# Elastic Constant Matrix: (Units=GPa)
#
#
# Indices 1 2 3 4 5 6 
#
# 1 48.1295 52.4558 40.6289 0.0000 0.0000 -0.0001
# 2 52.4558 138.0111 44.9208 0.0000 0.0000 -0.0001
# 3 40.6289 44.9208 100.4303 0.0000 -0.0001 -0.0002
# 4 0.0000 0.0000 0.0000 35.2328 0.0000 -0.0001
# 5 0.0000 0.0000 -0.0001 0.0000 12.7083 -0.0002
# 6 -0.0001 -0.0001 -0.0002 -0.0001 -0.0002 15.1692
#
#
#
# Elastic Compliance Matrix: (Units=1/GPa)
#
#
# Indices 1 2 3 4 5 6 
#
# 1 0.046028 -0.013382 -0.012635 0.000000 0.000000 0.000000
# 2 -0.013382 0.012371 -0.000120 0.000000 0.000000 0.000000
# 3 -0.012635 -0.000120 0.015122 0.000000 0.000000 0.000000
# 4 0.000000 0.000000 0.000000 0.028383 0.000000 0.000000
# 5 0.000000 0.000000 0.000000 0.000000 0.078688 0.000001
# 6 0.000000 0.000000 0.000000 0.000000 0.000001 0.065923
#
#
# Mechanical properties :
#
#
# Convention : Reuss Voigt Hill
#
# Bulk Modulus (GPa) = 47.06357 62.50908 54.78632
# Shear Modulus (GPa) = 16.34674 22.52644 19.43659
#
# Velocity S-wave (km/s) = 3.05069 3.58121 3.32654
# Velocity P-wave (km/s) = 6.26130 7.25869 6.77836
#
# Compressibility (1/GPa) = 0.02124786
#
# Stress axis : x y z
#
# Youngs Moduli (GPa) = 21.72586 80.83402 66.12805
#
# Poissons Ratio (x) = 1.08172 0.83553
# Poissons Ratio (y) = 0.29074 0.00792
# Poissons Ratio (z) = 0.27451 0.00968
#
# Static dielectric constant tensor:
#      x y z
#    x 1.570020 0.000000 0.000000 
#    y 0.000000 1.613990 0.000000 
#    z 0.000000 0.000000 1.594570 
# 
# From -- ./inp_files/12701.got.cif
#   From: 2010.05.17/outbox.cif.g08.bks.cpg/sg74_7_cif.got.tgz:12701.got - 2010.06.03 17:57:02.
