data_PCOD9538167
_publ_section_title
;
Structure prediction by ZEFSAII (Michael W. Deem and Ramdas Pophale) SiO2 
 PCOD9538167
Probable space group: I M M A
;
_chemical_formula_sum "Si O2"
_cell_formula_units_Z 72
_cell_length_a 14.892426
_cell_length_b 7.663474
_cell_length_c 30.597796
_cell_angle_alpha 90.000000
_cell_angle_beta 90.000000
_cell_angle_gamma 90.000000
_cell_volume 3492.056678
_symmetry_space_group_name_H-M "I M M A"
_symmetry_group_IT_number 74
_symmetry_cell_setting 'orthorhombic'
loop_
_space_group_symop_operation_xyz
x,y,z
-x,1/2-y,z
x,-y,-z
-x,1/2+y,-z
-x,-y,-z
x,1/2+y,-z
-x,y,z
x,1/2-y,z
1/2+x,1/2+y,1/2+z
1/2-x,-y,1/2+z
1/2+x,1/2-y,1/2-z
1/2-x,y,1/2-z
1/2-x,1/2-y,1/2-z
1/2+x,y,1/2-z
1/2-x,1/2+y,1/2+z
1/2+x,-y,1/2+z
loop_
_atom_site_type_symbol
_atom_site_label
_atom_site_fract_x
_atom_site_fract_y
_atom_site_fract_z
Si Si1 0.299711 0.955612 0.705747
Si Si2 0.695062 0.460697 0.551213
Si Si3 0.000000 0.535211 0.331086
Si Si4 0.318759 0.451982 0.874727
Si Si5 0.000000 0.540907 0.051721
Si Si6 0.500000 0.040891 0.730189
O O1 0.281088 0.750000 0.702542
O O2 0.250000 0.020653 0.750000
O O3 0.254765 0.041622 0.663723
O O4 0.406354 0.982738 0.708979
O O5 0.705952 0.500000 0.500000
O O6 0.693399 0.250000 0.555248
O O7 0.773575 0.530054 0.582105
O O8 0.596742 0.525605 0.567251
O O9 0.089408 0.473232 0.355487
O O10 0.000000 0.479393 0.280626
O O11 0.000000 0.750000 0.329919
O O12 0.339257 0.250000 0.884738
O O13 0.000000 0.750000 0.057738
O O14 0.000000 0.500000 0.000000
O O15 0.500000 0.250000 0.729828
#
# Coordination Sequence:
#
# PCOD9538167 Si02
#       6
#    16  16   8  16   8   8
#     4  11  23  37  54  81 115 145 177 228 285 333
#     4   9  18  32  53  77 107 140 179 228 277 332
#     4   9  18  33  55  79 104 140 189 234 273 322
#     4  10  20  36  57  81 107 144 192 234 274 331
#     4   8  14  27  46  71  97 129 165 204 261 320
#     4  11  21  36  60  82 108 149 191 229 269 331
#
# _framework density 20.618223
#
# number of rings (size 3 to 8) (size 9 to 14) (size 15 to 20)
#    0.000    2.222    2.222    1.000    0.000    2.667 
#    0.000    3.333    0.000    2.667    0.000    0.000 
#    0.000    0.000    0.000    0.000    0.000    0.000 
#
# Total GULP energy -200893.512177 kJ/mol
# GULP energy per Si atom -5580.375338 kJ/mol
# Density = 2.057130 g / cm^3
# Si number density = 20.618223 Si / 1000 Ang^3
#
#
#
# Elastic Constant Matrix: (Units=GPa)
#
#
# Indices 1 2 3 4 5 6 
#
# 1 169.5909 -11.9491 59.6345 0.0000 0.0000 0.0000
# 2 -11.9491 42.3296 -10.4988 0.0000 0.0000 0.0000
# 3 59.6345 -10.4988 79.7029 0.0000 0.0000 0.0000
# 4 0.0000 0.0000 0.0000 12.0577 0.0000 0.0000
# 5 0.0000 0.0000 0.0000 0.0000 22.2311 0.0000
# 6 0.0000 0.0000 0.0000 0.0000 0.0000 17.4951
#
#
#
# Elastic Compliance Matrix: (Units=1/GPa)
#
#
# Indices 1 2 3 4 5 6 
#
# 1 0.008028 0.000803 -0.005901 0.000000 0.000000 0.000000
# 2 0.000803 0.024502 0.002627 0.000000 0.000000 0.000000
# 3 -0.005901 0.002627 0.017308 0.000000 0.000000 0.000000
# 4 0.000000 0.000000 0.000000 0.082934 0.000000 0.000000
# 5 0.000000 0.000000 0.000000 0.000000 0.044982 0.000000
# 6 0.000000 0.000000 0.000000 0.000000 0.000000 0.057159
#
#
# Mechanical properties :
#
#
# Convention : Reuss Voigt Hill
#
# Bulk Modulus (GPa) = 22.27395 40.66630 31.47013
# Shear Modulus (GPa) = 19.62158 27.31924 23.47041
#
# Velocity S-wave (km/s) = 3.08825 3.64401 3.37758
# Velocity P-wave (km/s) = 4.85210 6.12139 5.52333
#
# Compressibility (1/GPa) = 0.04489549
#
# Stress axis : x y z
#
# Youngs Moduli (GPa) = 124.56246 40.81253 57.77740
#
# Poissons Ratio (x) = -0.03276 0.34094
# Poissons Ratio (y) = -0.09998 -0.15178
# Poissons Ratio (z) = 0.73504 -0.10721
#
# Static dielectric constant tensor:
#      x y z
#    x 1.759400 0.000000 0.000000 
#    y 0.000000 1.756360 0.000000 
#    z 0.000000 0.000000 1.712310 
# 
# From -- ./inp_files/66765.got.cif
#   From: 2010.05.17/outbox.cif.g08.bks.cpg/sg74_34_cif.got.tgz:66765.got - 2010.06.03 17:57:02.
