data_PCOD9538331
_publ_section_title
;
Structure prediction by ZEFSAII (Michael W. Deem and Ramdas Pophale) SiO2 
 PCOD9538331
Probable space group: I M M A
;
_chemical_formula_sum "Si O2"
_cell_formula_units_Z 88
_cell_length_a 7.714280
_cell_length_b 18.849376
_cell_length_c 32.428325
_cell_angle_alpha 90.000000
_cell_angle_beta 90.000000
_cell_angle_gamma 90.000000
_cell_volume 4715.382123
_symmetry_space_group_name_H-M "I M M A"
_symmetry_group_IT_number 74
_symmetry_cell_setting 'orthorhombic'
loop_
_space_group_symop_operation_xyz
x,y,z
-x,1/2-y,z
x,-y,-z
-x,1/2+y,-z
-x,-y,-z
x,1/2+y,-z
-x,y,z
x,1/2-y,z
1/2+x,1/2+y,1/2+z
1/2-x,-y,1/2+z
1/2+x,1/2-y,1/2-z
1/2-x,y,1/2-z
1/2-x,1/2-y,1/2-z
1/2+x,y,1/2-z
1/2-x,1/2+y,1/2+z
1/2+x,-y,1/2+z
loop_
_atom_site_type_symbol
_atom_site_label
_atom_site_fract_x
_atom_site_fract_y
_atom_site_fract_z
Si Si1 0.500000 0.108054 0.485426
Si Si2 0.207842 0.330402 0.702577
Si Si3 0.788228 0.455688 0.640541
Si Si4 0.800795 0.833665 0.564534
Si Si5 0.000000 0.464801 0.929670
Si Si6 0.294936 0.611549 0.848637
Si Si7 0.297467 0.250000 0.297581
O O1 0.672748 0.149365 0.472381
O O2 0.500000 0.092161 0.533650
O O3 0.500000 0.037438 0.456495
O O4 0.274813 0.250000 0.694948
O O5 0.250000 0.349143 0.750000
O O6 0.262818 0.389955 0.669820
O O7 0.000000 0.327663 0.699526
O O8 0.670227 0.457138 0.599395
O O9 0.745540 0.531345 0.662615
O O10 0.000000 0.452985 0.633154
O O11 0.804172 0.750000 0.572891
O O12 0.726460 0.869803 0.605898
O O13 0.000000 0.856734 0.556830
O O14 0.500000 0.610141 0.853920
O O15 0.261978 0.677006 0.818648
O O16 0.500000 0.250000 0.302328
O O17 0.250000 0.250000 0.250000
#
# Coordination Sequence:
#
# PCOD9538331 Si02
#       7
#     8  16  16  16   8  16   8
#     4  11  23  38  58  90 125 152 209 266 296 370
#     4   9  19  37  61  90 120 154 199 250 301 363
#     4  10  22  40  62  90 124 163 203 249 307 370
#     4  10  20  36  61  88 116 157 203 253 302 353
#     4  11  24  38  60  90 122 161 202 255 314 364
#     4  10  20  37  59  83 116 154 205 253 298 363
#     4  12  26  38  56  84 124 168 204 256 312 362
#
# _framework density 18.662324999999999
#
# number of rings (size 3 to 8) (size 9 to 14) (size 15 to 20)
#    0.000    1.818    2.727    1.091    3.818    1.455 
#    0.000    5.455    0.000    2.182    0.000    0.000 
#    0.000    0.000    0.000    0.000    0.000    0.000 
#
# Total GULP energy -245232.273951 kJ/mol
# GULP energy per Si atom -5573.460772 kJ/mol
# Density = 1.861985 g / cm^3
# Si number density = 18.662325 Si / 1000 Ang^3
#
#
#
# Elastic Constant Matrix: (Units=GPa)
#
#
# Indices 1 2 3 4 5 6 
#
# 1 58.2630 30.7420 28.1590 0.0000 0.0000 0.0000
# 2 30.7420 119.2063 71.5515 0.0000 0.0000 0.0000
# 3 28.1590 71.5515 109.4895 0.0000 0.0000 0.0000
# 4 0.0000 0.0000 0.0000 37.1029 0.0000 0.0000
# 5 0.0000 0.0000 0.0000 0.0000 43.1235 0.0000
# 6 0.0000 0.0000 0.0000 0.0000 0.0000 16.8860
#
#
#
# Elastic Compliance Matrix: (Units=1/GPa)
#
#
# Indices 1 2 3 4 5 6 
#
# 1 0.020442 -0.003482 -0.002982 0.000000 0.000000 0.000000
# 2 -0.003482 0.014396 -0.008512 0.000000 0.000000 0.000000
# 3 -0.002982 -0.008512 0.015463 0.000000 0.000000 0.000000
# 4 0.000000 0.000000 0.000000 0.026952 0.000000 0.000000
# 5 0.000000 0.000000 0.000000 0.000000 0.023189 0.000000
# 6 0.000000 0.000000 0.000000 0.000000 0.000000 0.059221
#
#
# Mechanical properties :
#
#
# Convention : Reuss Voigt Hill
#
# Bulk Modulus (GPa) = 49.14318 60.87374 55.00846
# Shear Modulus (GPa) = 25.45845 29.85625 27.65735
#
# Velocity S-wave (km/s) = 3.69746 4.00411 3.85384
# Velocity P-wave (km/s) = 6.67969 7.35299 7.02441
#
# Compressibility (1/GPa) = 0.02034871
#
# Stress axis : x y z
#
# Youngs Moduli (GPa) = 48.91901 69.46275 64.67013
#
# Poissons Ratio (x) = 0.24186 0.19284
# Poissons Ratio (y) = 0.17033 0.55050
# Poissons Ratio (z) = 0.14587 0.59130
#
# Static dielectric constant tensor:
#      x y z
#    x 1.670630 0.000000 0.000000 
#    y 0.000000 1.660240 0.000000 
#    z 0.000000 0.000000 1.608910 
# 
# From -- ./inp_files/70354.got.cif
#   From: 2010.05.17/outbox.cif.g08.bks.cpg/sg74_36_cif.got.tgz:70354.got - 2010.06.03 17:57:02.
