data_PCOD9538371
_publ_section_title
;
Structure prediction by ZEFSAII (Michael W. Deem and Ramdas Pophale) SiO2 
 PCOD9538371
Probable space group: I M M A
;
_chemical_formula_sum "Si O2"
_cell_formula_units_Z 64
_cell_length_a 18.315498
_cell_length_b 10.728298
_cell_length_c 18.371442
_cell_angle_alpha 90.000000
_cell_angle_beta 90.000000
_cell_angle_gamma 90.000000
_cell_volume 3609.880339
_symmetry_space_group_name_H-M "I M M A"
_symmetry_group_IT_number 74
_symmetry_cell_setting 'orthorhombic'
loop_
_space_group_symop_operation_xyz
x,y,z
-x,1/2-y,z
x,-y,-z
-x,1/2+y,-z
-x,-y,-z
x,1/2+y,-z
-x,y,z
x,1/2-y,z
1/2+x,1/2+y,1/2+z
1/2-x,-y,1/2+z
1/2+x,1/2-y,1/2-z
1/2-x,y,1/2-z
1/2-x,1/2-y,1/2-z
1/2+x,y,1/2-z
1/2-x,1/2+y,1/2+z
1/2+x,-y,1/2+z
loop_
_atom_site_type_symbol
_atom_site_label
_atom_site_fract_x
_atom_site_fract_y
_atom_site_fract_z
Si Si1 0.238011 0.113148 0.056289
Si Si2 0.676044 0.610535 0.796992
Si Si3 0.914628 0.889386 0.226709
Si Si4 0.080420 0.538686 0.915479
O O1 0.247863 0.250000 0.022000
O O2 0.296936 0.097380 0.120065
O O3 0.156358 0.111606 0.091150
O O4 0.242445 0.000000 0.000000
O O5 0.643682 0.750000 0.787360
O O6 0.750000 0.606183 0.750000
O O7 0.625820 0.498490 0.769957
O O8 0.885089 0.750000 0.238900
O O9 0.000000 0.889982 0.246518
O O10 0.911458 0.924595 0.140913
O O11 0.000000 0.595789 0.899029
O O12 0.077927 0.500000 0.000000
#
# Coordination Sequence:
#
# PCOD9538371 Si02
#       4
#    16  16  16  16
#     4  10  21  36  54  78 107 141 181 223 264 316
#     4  10  20  37  55  77 110 144 178 218 267 323
#     4  10  21  36  55  81 109 139 181 228 269 313
#     4   9  18  32  48  71 108 148 178 210 254 306
#
# _framework density 17.729120000000002
#
# number of rings (size 3 to 8) (size 9 to 14) (size 15 to 20)
#    0.000    2.250    2.500    0.000    0.000    6.500 
#    0.000    7.500    0.000    0.750    0.000    0.000 
#    0.000    0.000    0.000    0.000    0.000    0.000 
#
# Total GULP energy -178183.820560 kJ/mol
# GULP energy per Si atom -5568.244392 kJ/mol
# Density = 1.768877 g / cm^3
# Si number density = 17.729120 Si / 1000 Ang^3
#
#
#
# Elastic Constant Matrix: (Units=GPa)
#
#
# Indices 1 2 3 4 5 6 
#
# 1 54.5193 59.6400 30.6533 0.0000 0.0000 0.0000
# 2 59.6400 189.3134 65.1721 0.0000 0.0000 0.0000
# 3 30.6533 65.1721 59.4419 0.0000 0.0000 0.0000
# 4 0.0000 0.0000 0.0000 19.4619 0.0000 0.0000
# 5 0.0000 0.0000 0.0000 0.0000 22.6729 0.0000
# 6 0.0000 0.0000 0.0000 0.0000 0.0000 22.4131
#
#
#
# Elastic Compliance Matrix: (Units=1/GPa)
#
#
# Indices 1 2 3 4 5 6 
#
# 1 0.030338 -0.006701 -0.008298 0.000000 0.000000 0.000000
# 2 -0.006701 0.009965 -0.007470 0.000000 0.000000 0.000000
# 3 -0.008298 -0.007470 0.029292 0.000000 0.000000 0.000000
# 4 0.000000 0.000000 0.000000 0.051382 0.000000 0.000000
# 5 0.000000 0.000000 0.000000 0.000000 0.044106 0.000000
# 6 0.000000 0.000000 0.000000 0.000000 0.000000 0.044617
#
#
# Mechanical properties :
#
#
# Convention : Reuss Voigt Hill
#
# Bulk Modulus (GPa) = 40.55559 68.24503 54.40031
# Shear Modulus (GPa) = 19.02182 22.76353 20.89267
#
# Velocity S-wave (km/s) = 3.27909 3.58713 3.43656
# Velocity P-wave (km/s) = 6.10421 7.46548 6.81890
#
# Compressibility (1/GPa) = 0.02465751
#
# Stress axis : x y z
#
# Youngs Moduli (GPa) = 32.96220 100.35377 34.13872
#
# Poissons Ratio (x) = 0.67245 0.28328
# Poissons Ratio (y) = 0.22087 0.25501
# Poissons Ratio (z) = 0.27352 0.74963
#
# Static dielectric constant tensor:
#      x y z
#    x 1.616480 0.000000 0.000000 
#    y 0.000000 1.704030 0.000000 
#    z 0.000000 0.000000 1.605060 
# 
# From -- ./inp_files/39074.got.cif
#   From: 2010.05.17/outbox.cif.g08.bks.cpg/sg74_20_cif.got.tgz:39074.got - 2010.06.03 17:57:02.
