data_PCOD9538938
_publ_section_title
;
Structure prediction by ZEFSAII (Michael W. Deem and Ramdas Pophale) SiO2 
 PCOD9538938
Probable space group: I M M A
;
_chemical_formula_sum "Si O2"
_cell_formula_units_Z 104
_cell_length_a 9.494289
_cell_length_b 26.316199
_cell_length_c 22.358844
_cell_angle_alpha 90.000000
_cell_angle_beta 90.000000
_cell_angle_gamma 90.000000
_cell_volume 5586.437636
_symmetry_space_group_name_H-M "I M M A"
_symmetry_group_IT_number 74
_symmetry_cell_setting 'orthorhombic'
loop_
_space_group_symop_operation_xyz
x,y,z
-x,1/2-y,z
x,-y,-z
-x,1/2+y,-z
-x,-y,-z
x,1/2+y,-z
-x,y,z
x,1/2-y,z
1/2+x,1/2+y,1/2+z
1/2-x,-y,1/2+z
1/2+x,1/2-y,1/2-z
1/2-x,y,1/2-z
1/2-x,1/2-y,1/2-z
1/2+x,y,1/2-z
1/2-x,1/2+y,1/2+z
1/2+x,-y,1/2+z
loop_
_atom_site_type_symbol
_atom_site_label
_atom_site_fract_x
_atom_site_fract_y
_atom_site_fract_z
Si Si1 0.165101 0.931764 0.687730
Si Si2 0.745416 0.500000 0.000000
Si Si3 0.840996 0.399966 0.805896
Si Si4 0.841388 0.809171 0.117940
Si Si5 0.667966 0.310434 0.999350
Si Si6 0.648778 0.038591 0.876952
Si Si7 0.333943 0.398431 0.430314
O O1 0.250000 0.926055 0.750000
O O2 0.252286 0.907178 0.632664
O O3 0.000000 0.914672 0.691834
O O4 0.157917 0.990670 0.667328
O O5 0.655745 0.479866 0.944525
O O6 0.821850 0.549656 0.970791
O O7 0.750000 0.415180 0.750000
O O8 0.823621 0.341349 0.822356
O O9 0.783413 0.427782 0.864198
O O10 0.000000 0.413274 0.794462
O O11 0.838680 0.750000 0.131017
O O12 0.000000 0.822049 0.094441
O O13 0.724697 0.819116 0.067910
O O14 0.500000 0.319044 0.004108
O O15 0.694619 0.250000 0.013112
O O16 0.755147 0.350909 0.038471
O O17 0.500000 0.065760 0.865848
O O18 0.500000 0.388570 0.421290
#
# Coordination Sequence:
#
# PCOD9538938 Si02
#       7
#    16   8  16  16  16  16  16
#     4  10  21  37  56  79 108 143 182 222 266 321
#     4  10  22  36  56  86 118 146 182 228 278 330
#     4  11  23  36  52  74 102 139 182 227 273 322
#     4   9  19  36  55  75 101 135 177 225 276 328
#     4  10  21  37  58  85 115 146 183 229 279 330
#     4  10  21  36  55  78 107 142 178 219 268 323
#     4  11  22  36  57  84 115 151 187 226 274 328
#
# _framework density 18.616516000000001
#
# number of rings (size 3 to 8) (size 9 to 14) (size 15 to 20)
#    0.000    1.846    0.000    3.692    0.000   11.692 
#    0.000    0.000    0.000    0.462    0.000    0.000 
#    0.000    0.000    0.000    0.000    0.000    0.000 
#
# Total GULP energy -289868.434624 kJ/mol
# GULP energy per Si atom -5574.392974 kJ/mol
# Density = 1.857414 g / cm^3
# Si number density = 18.616516 Si / 1000 Ang^3
#
#
#
# Elastic Constant Matrix: (Units=GPa)
#
#
# Indices 1 2 3 4 5 6 
#
# 1 153.3808 52.0793 57.6763 0.0000 0.0000 0.0000
# 2 52.0793 51.2372 33.5033 0.0000 0.0000 0.0000
# 3 57.6763 33.5033 85.9046 0.0000 0.0000 0.0000
# 4 0.0000 0.0000 0.0000 20.8711 0.0000 0.0000
# 5 0.0000 0.0000 0.0000 0.0000 14.2102 0.0000
# 6 0.0000 0.0000 0.0000 0.0000 0.0000 16.4468
#
#
#
# Elastic Compliance Matrix: (Units=1/GPa)
#
#
# Indices 1 2 3 4 5 6 
#
# 1 0.010902 -0.008450 -0.004024 0.000000 0.000000 0.000000
# 2 -0.008450 0.032747 -0.007098 0.000000 0.000000 0.000000
# 3 -0.004024 -0.007098 0.017111 0.000000 0.000000 0.000000
# 4 0.000000 0.000000 0.000000 0.047913 0.000000 0.000000
# 5 0.000000 0.000000 0.000000 0.000000 0.070372 0.000000
# 6 0.000000 0.000000 0.000000 0.000000 0.000000 0.060802
#
#
# Mechanical properties :
#
#
# Convention : Reuss Voigt Hill
#
# Bulk Modulus (GPa) = 46.26288 64.11560 55.18924
# Shear Modulus (GPa) = 17.47045 20.12321 18.79683
#
# Velocity S-wave (km/s) = 3.06672 3.29132 3.18100
# Velocity P-wave (km/s) = 6.11916 6.99705 6.57277
#
# Compressibility (1/GPa) = 0.02161560
#
# Stress axis : x y z
#
# Youngs Moduli (GPa) = 91.72622 30.53678 58.44184
#
# Poissons Ratio (x) = 0.25803 0.23518
# Poissons Ratio (y) = 0.77508 0.41485
# Poissons Ratio (z) = 0.36912 0.21676
#
# Static dielectric constant tensor:
#      x y z
#    x 1.667710 0.000000 0.000000 
#    y 0.000000 1.679640 0.000000 
#    z 0.000000 0.000000 1.634430 
# 
# From -- ./inp_files/49307.got.cif
#   From: 2010.05.17/outbox.cif.g08.bks.cpg/sg74_25_cif.got.tgz:49307.got - 2010.06.03 17:57:02.
