data_PCOD9538071
_publ_section_title
;
Structure prediction by ZEFSAII (Michael W. Deem and Ramdas Pophale) SiO2 
 PCOD9538071
Probable space group: I M M A
;
_chemical_formula_sum "Si O2"
_cell_formula_units_Z 80
_cell_length_a 25.533365
_cell_length_b 15.217472
_cell_length_c 9.979871
_cell_angle_alpha 90.000000
_cell_angle_beta 90.000000
_cell_angle_gamma 90.000000
_cell_volume 3877.711481
_symmetry_space_group_name_H-M "I M M A"
_symmetry_group_IT_number 74
_symmetry_cell_setting 'orthorhombic'
loop_
_space_group_symop_operation_xyz
x,y,z
-x,1/2-y,z
x,-y,-z
-x,1/2+y,-z
-x,-y,-z
x,1/2+y,-z
-x,y,z
x,1/2-y,z
1/2+x,1/2+y,1/2+z
1/2-x,-y,1/2+z
1/2+x,1/2-y,1/2-z
1/2-x,y,1/2-z
1/2-x,1/2-y,1/2-z
1/2+x,y,1/2-z
1/2-x,1/2+y,1/2+z
1/2+x,-y,1/2+z
loop_
_atom_site_type_symbol
_atom_site_label
_atom_site_fract_x
_atom_site_fract_y
_atom_site_fract_z
Si Si1 0.364803 0.015809 0.141362
Si Si2 0.560069 0.350324 0.807386
Si Si3 0.390902 0.850527 0.470396
Si Si4 0.060185 0.644351 0.752324
Si Si5 0.208063 0.957600 0.140207
O O1 0.402894 0.099199 0.144161
O O2 0.401559 0.929624 0.155760
O O3 0.323446 0.023964 0.261585
O O4 0.338002 0.000000 0.000000
O O5 0.500000 0.365364 0.848647
O O6 0.574914 0.250000 0.850131
O O7 0.565736 0.350622 0.645921
O O8 0.377407 0.750000 0.501202
O O9 0.416624 0.888160 0.604935
O O10 0.338400 0.894048 0.412322
O O11 0.061786 0.750000 0.746706
O O12 0.000000 0.616980 0.738126
O O13 0.250000 0.920040 0.250000
O O14 0.227043 0.000000 0.000000
#
# Coordination Sequence:
#
# PCOD9538071 Si02
#       5
#    16  16  16  16  16
#     4  11  23  38  56  85 122 163 203 249 300 362
#     4   9  18  32  53  82 117 156 198 242 290 350
#     4   9  18  35  58  86 119 152 195 247 300 361
#     4  10  20  35  59  90 127 167 204 246 299 360
#     4  11  22  40  63  87 112 151 199 257 314 365
#
# _framework density 20.630727
#
# number of rings (size 3 to 8) (size 9 to 14) (size 15 to 20)
#    0.000    2.000    2.000    1.800    0.000    5.200 
#    0.000    5.000    0.000    4.800    0.000    0.000 
#    0.000    0.000    0.000    0.000    0.000    0.000 
#
# Total GULP energy -222762.546847 kJ/mol
# GULP energy per Si atom -5569.063671 kJ/mol
# Density = 2.058377 g / cm^3
# Si number density = 20.630727 Si / 1000 Ang^3
#
#
#
# Elastic Constant Matrix: (Units=GPa)
#
#
# Indices 1 2 3 4 5 6 
#
# 1 107.1170 18.5631 31.1118 0.0000 0.0000 0.0000
# 2 18.5631 22.2297 2.5446 0.0000 0.0000 0.0000
# 3 31.1118 2.5446 115.0675 0.0000 0.0000 0.0000
# 4 0.0000 0.0000 0.0000 11.7598 0.0000 0.0000
# 5 0.0000 0.0000 0.0000 0.0000 -1.4753 0.0000
# 6 0.0000 0.0000 0.0000 0.0000 0.0000 13.9911
#
#
#
# Elastic Compliance Matrix: (Units=1/GPa)
#
#
# Indices 1 2 3 4 5 6 
#
# 1 0.011863 -0.009563 -0.002996 0.000000 0.000000 0.000000
# 2 -0.009563 0.052808 0.001418 0.000000 0.000000 0.000000
# 3 -0.002996 0.001418 0.009469 0.000000 0.000000 0.000000
# 4 0.000000 0.000000 0.000000 0.085036 0.000000 0.000000
# 5 0.000000 0.000000 0.000000 0.000000 -0.677847 0.000000
# 6 0.000000 0.000000 0.000000 0.000000 0.000000 0.071474
#
#
# Mechanical properties :
#
#
# Convention : Reuss Voigt Hill
#
# Bulk Modulus (GPa) = 19.28350 38.76145 29.02248
# Shear Modulus (GPa) = -12.26609 17.66812 2.70102
#
# Velocity S-wave (km/s) = -2.44099 2.92960 1.14545
# Velocity P-wave (km/s) = 1.19276 5.50204 3.98090
#
# Compressibility (1/GPa) = 0.05185781
#
# Stress axis : x y z
#
# Youngs Moduli (GPa) = 84.29510 18.93637 105.60491
#
# Poissons Ratio (x) = 0.18110 0.31640
# Poissons Ratio (y) = 0.80615 -0.14974
# Poissons Ratio (z) = 0.25255 -0.02685
#
# Static dielectric constant tensor:
#      x y z
#    x 1.743230 0.000000 0.000000 
#    y 0.000000 1.734530 0.000000 
#    z 0.000000 0.000000 1.800630 
# 
# From -- ./inp_files/14892.got.cif
#   From: 2010.05.17/outbox.cif.g08.bks.cpg/sg74_8_cif.got.tgz:14892.got - 2010.06.03 17:57:02.
