data_PCOD9538635
_publ_section_title
;
Structure prediction by ZEFSAII (Michael W. Deem and Ramdas Pophale) SiO2 
 PCOD9538635
Probable space group: I M M A
;
_chemical_formula_sum "Si O2"
_cell_formula_units_Z 68
_cell_length_a 19.057242
_cell_length_b 17.638795
_cell_length_c 9.122946
_cell_angle_alpha 90.000000
_cell_angle_beta 90.000000
_cell_angle_gamma 90.000000
_cell_volume 3066.648967
_symmetry_space_group_name_H-M "I M M A"
_symmetry_group_IT_number 74
_symmetry_cell_setting 'orthorhombic'
loop_
_space_group_symop_operation_xyz
x,y,z
-x,1/2-y,z
x,-y,-z
-x,1/2+y,-z
-x,-y,-z
x,1/2+y,-z
-x,y,z
x,1/2-y,z
1/2+x,1/2+y,1/2+z
1/2-x,-y,1/2+z
1/2+x,1/2-y,1/2-z
1/2-x,y,1/2-z
1/2-x,1/2-y,1/2-z
1/2+x,y,1/2-z
1/2-x,1/2+y,1/2+z
1/2+x,-y,1/2+z
loop_
_atom_site_type_symbol
_atom_site_label
_atom_site_fract_x
_atom_site_fract_y
_atom_site_fract_z
Si Si1 0.816284 0.334375 0.142413
Si Si2 0.579761 0.034876 0.344646
Si Si3 0.500000 0.250000 0.731749
Si Si4 0.271950 0.580829 0.081831
Si Si5 0.075084 0.888095 0.358098
O O1 0.846088 0.250000 0.132216
O O2 0.750000 0.333973 0.250000
O O3 0.871609 0.395811 0.196605
O O4 0.784906 0.363965 0.989938
O O5 0.500000 0.061317 0.365639
O O6 0.603342 0.000000 0.500000
O O7 0.580017 0.967100 0.228595
O O8 0.560059 0.317764 0.749721
O O9 0.250000 0.568294 0.250000
O O10 0.349672 0.617357 0.066601
O O11 0.272314 0.500000 0.000000
O O12 0.000000 0.889503 0.446497
#
# Coordination Sequence:
#
# PCOD9538635 Si02
#       5
#    16  16   4  16  16
#     4  11  25  43  64  93 133 173 216 272 324 374
#     4  10  20  39  60  90 123 168 215 259 320 388
#     4   8  20  40  58  96 128 158 206 276 318 368
#     4  12  24  41  67  97 129 170 216 263 321 393
#     4   9  20  38  64  87 129 162 206 265 320 380
#
# _framework density 22.174040999999999
#
# number of rings (size 3 to 8) (size 9 to 14) (size 15 to 20)
#    0.706    0.941    0.000    5.647    1.647    1.412 
#    6.353    1.176    0.000    1.412    0.000    0.000 
#    0.000    0.000    0.000    0.000    0.000    0.000 
#
# Total GULP energy -189455.181550 kJ/mol
# GULP energy per Si atom -5572.211222 kJ/mol
# Density = 2.212357 g / cm^3
# Si number density = 22.174041 Si / 1000 Ang^3
#
#
#
# Elastic Constant Matrix: (Units=GPa)
#
#
# Indices 1 2 3 4 5 6 
#
# 1 116.7124 51.7523 -3.9404 0.0000 0.0000 0.0000
# 2 51.7523 153.4526 7.9502 0.0000 0.0000 0.0000
# 3 -3.9404 7.9502 62.3093 0.0000 0.0000 0.0000
# 4 0.0000 0.0000 0.0000 10.7108 0.0000 0.0000
# 5 0.0000 0.0000 0.0000 0.0000 8.7015 0.0000
# 6 0.0000 0.0000 0.0000 0.0000 0.0000 46.4587
#
#
#
# Elastic Compliance Matrix: (Units=1/GPa)
#
#
# Indices 1 2 3 4 5 6 
#
# 1 0.010147 -0.003478 0.001086 0.000000 0.000000 0.000000
# 2 -0.003478 0.007752 -0.001209 0.000000 0.000000 0.000000
# 3 0.001086 -0.001209 0.016272 0.000000 0.000000 0.000000
# 4 0.000000 0.000000 0.000000 0.093364 0.000000 0.000000
# 5 0.000000 0.000000 0.000000 0.000000 0.114923 0.000000
# 6 0.000000 0.000000 0.000000 0.000000 0.000000 0.021525
#
#
# Mechanical properties :
#
#
# Convention : Reuss Voigt Hill
#
# Bulk Modulus (GPa) = 37.08179 49.33318 43.20749
# Shear Modulus (GPa) = 17.84593 31.62166 24.73380
#
# Velocity S-wave (km/s) = 2.84000 3.78043 3.34344
# Velocity P-wave (km/s) = 5.24533 6.43055 5.86794
#
# Compressibility (1/GPa) = 0.02696741
#
# Stress axis : x y z
#
# Youngs Moduli (GPa) = 98.55046 128.99221 61.45567
#
# Poissons Ratio (x) = 0.44868 -0.06671
# Poissons Ratio (y) = 0.34280 0.07431
# Poissons Ratio (z) = -0.10698 0.15597
#
# Static dielectric constant tensor:
#      x y z
#    x 1.870700 0.000000 0.000000 
#    y 0.000000 1.766060 0.000000 
#    z 0.000000 0.000000 1.933140 
# 
# From -- ./inp_files/11935.got.cif
#   From: 2010.05.17/outbox.cif.g08.bks.cpg/sg74_6_cif.got.tgz:11935.got - 2010.06.03 17:57:02.
