data_PCOD9538955
_publ_section_title
;
Structure prediction by ZEFSAII (Michael W. Deem and Ramdas Pophale) SiO2 
 PCOD9538955
Probable space group: I M M A
;
_chemical_formula_sum "Si O2"
_cell_formula_units_Z 112
_cell_length_a 15.858312
_cell_length_b 15.156019
_cell_length_c 25.943716
_cell_angle_alpha 90.000000
_cell_angle_beta 90.000000
_cell_angle_gamma 90.000000
_cell_volume 6235.543031
_symmetry_space_group_name_H-M "I M M A"
_symmetry_group_IT_number 74
_symmetry_cell_setting 'orthorhombic'
loop_
_space_group_symop_operation_xyz
x,y,z
-x,1/2-y,z
x,-y,-z
-x,1/2+y,-z
-x,-y,-z
x,1/2+y,-z
-x,y,z
x,1/2-y,z
1/2+x,1/2+y,1/2+z
1/2-x,-y,1/2+z
1/2+x,1/2-y,1/2-z
1/2-x,y,1/2-z
1/2-x,1/2-y,1/2-z
1/2+x,y,1/2-z
1/2-x,1/2+y,1/2+z
1/2+x,-y,1/2+z
loop_
_atom_site_type_symbol
_atom_site_label
_atom_site_fract_x
_atom_site_fract_y
_atom_site_fract_z
Si Si1 0.904961 0.845451 0.343301
Si Si2 0.900886 0.646868 0.552019
Si Si3 0.749112 0.473149 0.408413
Si Si4 0.807763 0.507429 0.295021
Si Si5 0.402137 0.854267 0.616476
Si Si6 0.099289 0.851579 0.759999
Si Si7 0.700370 0.151993 0.947934
O O1 0.894464 0.750000 0.317410
O O2 0.846356 0.846831 0.393201
O O3 0.000000 0.852950 0.361901
O O4 0.882458 0.925371 0.306788
O O5 0.891796 0.750000 0.568765
O O6 0.835091 0.581808 0.579942
O O7 0.869007 0.643114 0.492889
O O8 0.000000 0.623213 0.557143
O O9 0.756991 0.497479 0.348048
O O10 0.667351 0.411407 0.413166
O O11 0.746260 0.561747 0.443298
O O12 0.750000 0.545036 0.250000
O O13 0.844611 0.416127 0.273790
O O14 0.500000 0.876491 0.604975
O O15 0.390231 0.750000 0.606262
O O16 0.390469 0.866204 0.678484
O O17 0.120892 0.750000 0.749368
O O18 0.000000 0.864115 0.748532
O O19 0.740737 0.250000 0.955248
#
# Coordination Sequence:
#
# PCOD9538955 Si02
#       7
#    16  16  16  16  16  16  16
#     4   9  18  33  53  74  97 132 178 220 256 306
#     4  10  21  36  55  83 118 147 172 211 266 328
#     4  11  21  33  54  80 106 139 184 225 265 315
#     4  11  21  32  46  72 104 137 170 215 269 314
#     4   9  18  34  54  74  98 134 180 224 264 310
#     4   9  18  32  49  67  93 134 176 210 252 311
#     4   9  19  35  55  78 108 144 175 208 261 328
#
# _framework density 17.961546999999999
#
# number of rings (size 3 to 8) (size 9 to 14) (size 15 to 20)
#    0.000    2.286    1.429    2.571    0.000    7.429 
#    0.000    1.429    0.000    2.143    0.000    2.000 
#    0.000    0.000    0.000    0.000    0.000    0.000 
#
# Total GULP energy -312062.202644 kJ/mol
# GULP energy per Si atom -5572.539333 kJ/mol
# Density = 1.792067 g / cm^3
# Si number density = 17.961547 Si / 1000 Ang^3
#
#
#
# Elastic Constant Matrix: (Units=GPa)
#
#
# Indices 1 2 3 4 5 6 
#
# 1 58.8980 40.9134 10.2008 0.0000 0.0000 0.0000
# 2 40.9134 77.4894 17.7826 0.0000 0.0000 0.0000
# 3 10.2008 17.7826 34.8701 0.0000 0.0000 0.0000
# 4 0.0000 0.0000 0.0000 16.2040 0.0000 0.0000
# 5 0.0000 0.0000 0.0000 0.0000 16.2630 0.0000
# 6 0.0000 0.0000 0.0000 0.0000 0.0000 33.4835
#
#
#
# Elastic Compliance Matrix: (Units=1/GPa)
#
#
# Indices 1 2 3 4 5 6 
#
# 1 0.026828 -0.014002 -0.000707 0.000000 0.000000 0.000000
# 2 -0.014002 0.021924 -0.007084 0.000000 0.000000 0.000000
# 3 -0.000707 -0.007084 0.032498 0.000000 0.000000 0.000000
# 4 0.000000 0.000000 0.000000 0.061713 0.000000 0.000000
# 5 0.000000 0.000000 0.000000 0.000000 0.061489 0.000000
# 6 0.000000 0.000000 0.000000 0.000000 0.000000 0.029865
#
#
# Mechanical properties :
#
#
# Convention : Reuss Voigt Hill
#
# Bulk Modulus (GPa) = 26.55253 34.33900 30.44577
# Shear Modulus (GPa) = 17.21415 20.01414 18.61414
#
# Velocity S-wave (km/s) = 3.09914 3.34170 3.22270
# Velocity P-wave (km/s) = 5.25560 5.83514 5.55294
#
# Compressibility (1/GPa) = 0.03766120
#
# Stress axis : x y z
#
# Youngs Moduli (GPa) = 37.27476 45.61251 30.77158
#
# Poissons Ratio (x) = 0.63869 0.02177
# Poissons Ratio (y) = 0.52194 0.21799
# Poissons Ratio (z) = 0.02637 0.32313
#
# Static dielectric constant tensor:
#      x y z
#    x 1.610510 0.000000 0.000000 
#    y 0.000000 1.672810 0.000000 
#    z 0.000000 0.000000 1.610000 
# 
# From -- ./inp_files/67176.got.cif
#   From: 2010.05.17/outbox.cif.g08.bks.cpg/sg74_34_cif.got.tgz:67176.got - 2010.06.03 17:57:02.
