data_PCOD9538247
_publ_section_title
;
Structure prediction by ZEFSAII (Michael W. Deem and Ramdas Pophale) SiO2 
 PCOD9538247
Probable space group: I M M A
;
_chemical_formula_sum "Si O2"
_cell_formula_units_Z 64
_cell_length_a 22.354676
_cell_length_b 15.173141
_cell_length_c 8.686077
_cell_angle_alpha 90.000000
_cell_angle_beta 90.000000
_cell_angle_gamma 90.000000
_cell_volume 2946.236112
_symmetry_space_group_name_H-M "I M M A"
_symmetry_group_IT_number 74
_symmetry_cell_setting 'orthorhombic'
loop_
_space_group_symop_operation_xyz
x,y,z
-x,1/2-y,z
x,-y,-z
-x,1/2+y,-z
-x,-y,-z
x,1/2+y,-z
-x,y,z
x,1/2-y,z
1/2+x,1/2+y,1/2+z
1/2-x,-y,1/2+z
1/2+x,1/2-y,1/2-z
1/2-x,y,1/2-z
1/2-x,1/2-y,1/2-z
1/2+x,y,1/2-z
1/2-x,1/2+y,1/2+z
1/2+x,-y,1/2+z
loop_
_atom_site_type_symbol
_atom_site_label
_atom_site_fract_x
_atom_site_fract_y
_atom_site_fract_z
Si Si1 0.130205 0.599789 0.062004
Si Si2 0.872461 0.147516 0.591241
Si Si3 0.500000 0.100670 0.561821
Si Si4 0.747719 0.098668 0.067709
Si Si5 0.000000 0.643523 0.423723
O O1 0.135515 0.597843 0.246975
O O2 0.065122 0.639352 0.017763
O O3 0.128885 0.500000 0.000000
O O4 0.190986 0.641138 0.996362
O O5 0.879466 0.250000 0.635296
O O6 0.813993 0.139976 0.489034
O O7 0.934881 0.117192 0.512024
O O8 0.500000 0.108753 0.747748
O O9 0.500000 0.000000 0.500000
O O10 0.750000 0.096814 0.250000
O O11 0.746129 0.000000 0.000000
O O12 0.000000 0.750000 0.425481
#
# Coordination Sequence:
#
# PCOD9538247 Si02
#       5
#    16  16   8  16   8
#     4   9  17  32  53  78 107 140 177 219 268 320
#     4  10  20  36  59  84 110 143 183 226 273 326
#     4   8  14  26  49  76 101 133 176 219 259 314
#     4  11  22  36  53  77 111 148 186 228 275 324
#     4   8  16  32  54  80 109 139 174 221 275 324
#
# _framework density 21.722632000000001
#
# number of rings (size 3 to 8) (size 9 to 14) (size 15 to 20)
#    0.000    2.500    0.000    3.750    0.000    2.500 
#    0.000    1.875    0.000    0.000    0.000    5.250 
#    0.000    0.000    0.000    0.000    0.000    0.000 
#
# Total GULP energy -178309.430693 kJ/mol
# GULP energy per Si atom -5572.169709 kJ/mol
# Density = 2.167319 g / cm^3
# Si number density = 21.722632 Si / 1000 Ang^3
#
#
#
# Elastic Constant Matrix: (Units=GPa)
#
#
# Indices 1 2 3 4 5 6 
#
# 1 280.7273 7.0659 67.2881 0.0000 0.0000 0.0000
# 2 7.0659 42.5613 3.2697 0.0000 0.0000 0.0000
# 3 67.2881 3.2697 83.7584 0.0000 0.0000 0.0000
# 4 0.0000 0.0000 0.0000 -1.0715 0.0000 0.0000
# 5 0.0000 0.0000 0.0000 0.0000 53.7722 0.0000
# 6 0.0000 0.0000 0.0000 0.0000 0.0000 15.1449
#
#
#
# Elastic Compliance Matrix: (Units=1/GPa)
#
#
# Indices 1 2 3 4 5 6 
#
# 1 0.004421 -0.000462 -0.003533 0.000000 0.000000 0.000000
# 2 -0.000462 0.023615 -0.000550 0.000000 0.000000 0.000000
# 3 -0.003533 -0.000550 0.014799 0.000000 0.000000 0.000000
# 4 0.000000 0.000000 0.000000 -0.933251 0.000000 0.000000
# 5 0.000000 0.000000 0.000000 0.000000 0.018597 0.000000
# 6 0.000000 0.000000 0.000000 0.000000 0.000000 0.066029
#
#
# Mechanical properties :
#
#
# Convention : Reuss Voigt Hill
#
# Bulk Modulus (GPa) = 29.63659 62.47718 46.05688
# Shear Modulus (GPa) = -6.36577 35.53068 14.58246
#
# Velocity S-wave (km/s) = -1.71372 4.04871 2.59376
# Velocity P-wave (km/s) = 3.12362 7.11898 5.49713
#
# Compressibility (1/GPa) = 0.03374208
#
# Stress axis : x y z
#
# Youngs Moduli (GPa) = 226.20627 42.34677 67.57137
#
# Poissons Ratio (x) = 0.01958 0.23876
# Poissons Ratio (y) = 0.10461 0.03719
# Poissons Ratio (z) = 0.79928 0.02330
#
# Static dielectric constant tensor:
#      x y z
#    x 1.926740 0.000000 0.000000 
#    y 0.000000 1.830430 0.000000 
#    z 0.000000 0.000000 1.713630 
# 
# From -- ./inp_files/10315.got.cif
#   From: 2010.05.17/outbox.cif.g08.bks.cpg/sg74_6_cif.got.tgz:10315.got - 2010.06.03 17:57:02.
