data_PCOD9538963
_publ_section_title
;
Structure prediction by ZEFSAII (Michael W. Deem and Ramdas Pophale) SiO2 
 PCOD9538963
Probable space group: I M M A
;
_chemical_formula_sum "Si O2"
_cell_formula_units_Z 96
_cell_length_a 8.760191
_cell_length_b 20.534910
_cell_length_c 28.504565
_cell_angle_alpha 90.000000
_cell_angle_beta 90.000000
_cell_angle_gamma 90.000000
_cell_volume 5127.678609
_symmetry_space_group_name_H-M "I M M A"
_symmetry_group_IT_number 74
_symmetry_cell_setting 'orthorhombic'
loop_
_space_group_symop_operation_xyz
x,y,z
-x,1/2-y,z
x,-y,-z
-x,1/2+y,-z
-x,-y,-z
x,1/2+y,-z
-x,y,z
x,1/2-y,z
1/2+x,1/2+y,1/2+z
1/2-x,-y,1/2+z
1/2+x,1/2-y,1/2-z
1/2-x,y,1/2-z
1/2-x,1/2-y,1/2-z
1/2+x,y,1/2-z
1/2-x,1/2+y,1/2+z
1/2+x,-y,1/2+z
loop_
_atom_site_type_symbol
_atom_site_label
_atom_site_fract_x
_atom_site_fract_y
_atom_site_fract_z
Si Si1 0.183732 0.175986 0.800842
Si Si2 0.181639 0.445006 0.301068
Si Si3 0.181816 0.825951 0.543463
Si Si4 0.816349 0.432068 0.974806
Si Si5 0.815400 0.442972 0.866284
Si Si6 0.182219 0.826152 0.854366
O O1 0.232349 0.250000 0.812213
O O2 0.250000 0.158905 0.750000
O O3 0.228737 0.122844 0.838973
O O4 0.000000 0.175534 0.797835
O O5 0.250000 0.460248 0.250000
O O6 0.242672 0.496629 0.339075
O O7 0.237549 0.374252 0.318162
O O8 0.000000 0.447371 0.298804
O O9 0.216310 0.750000 0.533090
O O10 0.240123 0.873183 0.502859
O O11 0.262179 0.842351 0.592912
O O12 0.000000 0.832383 0.549324
O O13 0.770629 0.437461 0.920517
O O14 0.000000 0.423438 0.976668
O O15 0.778828 0.500000 0.000000
O O16 0.000000 0.449901 0.864399
O O17 0.218845 0.750000 0.846081
O O18 0.000000 0.834392 0.851609
#
# Coordination Sequence:
#
# PCOD9538963 Si02
#       6
#    16  16  16  16  16  16
#     4   9  18  33  53  77 105 139 179 224 275 329
#     4  12  25  40  60  85 116 152 190 234 283 338
#     4  10  21  37  58  86 119 153 190 233 282 338
#     4  10  21  36  56  82 112 148 190 236 284 335
#     4  10  21  37  57  82 113 147 188 237 284 334
#     4  10  21  39  63  88 115 149 189 233 283 339
#
# _framework density 18.721921999999999
#
# number of rings (size 3 to 8) (size 9 to 14) (size 15 to 20)
#    0.000    1.833    0.000    4.000    0.000    7.333 
#    0.000    1.667    0.000    2.000    0.000    0.000 
#    0.000    0.000    0.000    0.000    0.000    0.000 
#
# Total GULP energy -268253.787461 kJ/mol
# GULP energy per Si atom -5588.620572 kJ/mol
# Density = 1.867931 g / cm^3
# Si number density = 18.721922 Si / 1000 Ang^3
#
#
#
# Elastic Constant Matrix: (Units=GPa)
#
#
# Indices 1 2 3 4 5 6 
#
# 1 39.4746 23.6833 16.5083 0.0000 0.0000 0.0000
# 2 23.6833 56.1183 29.3698 0.0000 0.0000 0.0000
# 3 16.5083 29.3698 58.2830 0.0000 0.0000 0.0000
# 4 0.0000 0.0000 0.0000 40.7310 0.0000 0.0000
# 5 0.0000 0.0000 0.0000 0.0000 31.7817 0.0000
# 6 0.0000 0.0000 0.0000 0.0000 0.0000 17.0680
#
#
#
# Elastic Compliance Matrix: (Units=1/GPa)
#
#
# Indices 1 2 3 4 5 6 
#
# 1 0.034382 -0.012785 -0.003296 0.000000 0.000000 0.000000
# 2 -0.012785 0.028957 -0.010970 0.000000 0.000000 0.000000
# 3 -0.003296 -0.010970 0.023619 0.000000 0.000000 0.000000
# 4 0.000000 0.000000 0.000000 0.024551 0.000000 0.000000
# 5 0.000000 0.000000 0.000000 0.000000 0.031465 0.000000
# 6 0.000000 0.000000 0.000000 0.000000 0.000000 0.058589
#
#
# Mechanical properties :
#
#
# Convention : Reuss Voigt Hill
#
# Bulk Modulus (GPa) = 30.43673 32.55541 31.49607
# Shear Modulus (GPa) = 18.75350 23.53709 21.14530
#
# Velocity S-wave (km/s) = 3.16838 3.54954 3.36436
# Velocity P-wave (km/s) = 5.44769 5.85027 5.65257
#
# Compressibility (1/GPa) = 0.03285504
#
# Stress axis : x y z
#
# Youngs Moduli (GPa) = 29.08530 34.53451 42.33821
#
# Poissons Ratio (x) = 0.44153 0.13954
# Poissons Ratio (y) = 0.37186 0.46447
# Poissons Ratio (z) = 0.09586 0.37886
#
# Static dielectric constant tensor:
#      x y z
#    x 1.630160 0.000000 0.000000 
#    y 0.000000 1.642360 0.000000 
#    z 0.000000 0.000000 1.605730 
# 
# From -- ./inp_files/64268.got.cif
#   From: 2010.05.17/outbox.cif.g08.bks.cpg/sg74_33_cif.got.tgz:64268.got - 2010.06.03 17:57:02.
