data_PCOD9538966
_publ_section_title
;
Structure prediction by ZEFSAII (Michael W. Deem and Ramdas Pophale) SiO2 
 PCOD9538966
Probable space group: I M M A
;
_chemical_formula_sum "Si O2"
_cell_formula_units_Z 76
_cell_length_a 15.434440
_cell_length_b 22.701866
_cell_length_c 12.215546
_cell_angle_alpha 90.000000
_cell_angle_beta 90.000000
_cell_angle_gamma 90.000000
_cell_volume 4280.212354
_symmetry_space_group_name_H-M "I M M A"
_symmetry_group_IT_number 74
_symmetry_cell_setting 'orthorhombic'
loop_
_space_group_symop_operation_xyz
x,y,z
-x,1/2-y,z
x,-y,-z
-x,1/2+y,-z
-x,-y,-z
x,1/2+y,-z
-x,y,z
x,1/2-y,z
1/2+x,1/2+y,1/2+z
1/2-x,-y,1/2+z
1/2+x,1/2-y,1/2-z
1/2-x,y,1/2-z
1/2-x,1/2-y,1/2-z
1/2+x,y,1/2-z
1/2-x,1/2+y,1/2+z
1/2+x,-y,1/2+z
loop_
_atom_site_type_symbol
_atom_site_label
_atom_site_fract_x
_atom_site_fract_y
_atom_site_fract_z
Si Si1 0.289671 0.500000 0.000000
Si Si2 0.500000 0.750000 0.237119
Si Si3 0.179205 0.923821 0.841281
Si Si4 0.897782 0.683924 0.960890
Si Si5 0.655159 0.838813 0.295442
Si Si6 0.897628 0.466341 0.713614
O O1 0.229489 0.450283 0.054215
O O2 0.348007 0.524850 0.098704
O O3 0.577158 0.800983 0.243483
O O4 0.250000 0.907342 0.750000
O O5 0.125336 0.867384 0.877262
O O6 0.124413 0.977122 0.788734
O O7 0.878629 0.750000 0.920117
O O8 0.000000 0.681785 0.987461
O O9 0.849163 0.673673 0.075113
O O10 0.750000 0.823768 0.250000
O O11 0.637072 0.907486 0.271241
O O12 0.000000 0.462106 0.696723
#
# Coordination Sequence:
#
# PCOD9538966 Si02
#       6
#     8   4  16  16  16  16
#     4  10  21  38  55  82 112 146 184 235 290 343
#     4  12  22  40  52  90 122 150 198 226 286 354
#     4  10  21  36  56  83 110 144 194 236 285 344
#     4  11  21  37  56  82 114 151 191 235 288 345
#     4  12  22  38  60  86 119 154 191 238 287 339
#     4  11  21  37  59  85 114 149 191 238 288 342
#
# _framework density 17.756126999999999
#
# number of rings (size 3 to 8) (size 9 to 14) (size 15 to 20)
#    0.000    1.053    3.158    5.684    0.000    0.421 
#    0.000    3.158    0.000    0.000    0.000    0.000 
#    0.000    0.000    0.000    0.000    0.000    0.000 
#
# Total GULP energy -211754.999670 kJ/mol
# GULP energy per Si atom -5572.499991 kJ/mol
# Density = 1.771571 g / cm^3
# Si number density = 17.756127 Si / 1000 Ang^3
#
#
#
# Elastic Constant Matrix: (Units=GPa)
#
#
# Indices 1 2 3 4 5 6 
#
# 1 84.0658 30.7699 29.0924 -0.0001 0.0000 0.0000
# 2 30.7699 136.8739 54.6712 0.0000 0.0000 0.0000
# 3 29.0924 54.6712 66.9844 0.0002 0.0000 0.0000
# 4 -0.0001 0.0000 0.0002 -4.3136 0.0000 0.0000
# 5 0.0000 0.0000 0.0000 0.0000 11.8383 0.0000
# 6 0.0000 0.0000 0.0000 0.0000 0.0000 24.6302
#
#
#
# Elastic Compliance Matrix: (Units=1/GPa)
#
#
# Indices 1 2 3 4 5 6 
#
# 1 0.014105 -0.001074 -0.005249 -0.000001 0.000000 0.000000
# 2 -0.001074 0.010922 -0.008447 0.000000 0.000000 0.000000
# 3 -0.005249 -0.008447 0.024103 0.000001 0.000000 0.000000
# 4 -0.000001 0.000000 0.000001 -0.231824 0.000000 0.000000
# 5 0.000000 0.000000 0.000000 0.000000 0.084471 0.000000
# 6 0.000000 0.000000 0.000000 0.000000 0.000000 0.040601
#
#
# Mechanical properties :
#
#
# Convention : Reuss Voigt Hill
#
# Bulk Modulus (GPa) = 51.05123 57.44346 54.24734
# Shear Modulus (GPa) = -232.00846 17.99037 -107.00905
#
# Velocity S-wave (km/s) = -11.44323 3.18652 -7.77154
# Velocity P-wave (km/s) = 12.07406 6.77939 7.06480
#
# Compressibility (1/GPa) = 0.01958817
#
# Stress axis : x y z
#
# Youngs Moduli (GPa) = 70.89554 91.56149 41.48795
#
# Poissons Ratio (x) = 0.09835 0.21779
# Poissons Ratio (y) = 0.07615 0.35047
# Poissons Ratio (z) = 0.37216 0.77346
#
# Static dielectric constant tensor:
#      x y z
#    x 1.596200 0.000000 0.000000 
#    y 0.000000 1.611250 0.000000 
#    z 0.000000 0.000000 1.592420 
# 
# From -- ./inp_files/20553.got.cif
#   From: 2010.05.17/outbox.cif.g08.bks.cpg/sg74_11_cif.got.tgz:20553.got - 2010.06.03 17:57:02.
