data_PCOD9538462
_publ_section_title
;
Structure prediction by ZEFSAII (Michael W. Deem and Ramdas Pophale) SiO2 
 PCOD9538462
Probable space group: I M M A
;
_chemical_formula_sum "Si O2"
_cell_formula_units_Z 96
_cell_length_a 15.190197
_cell_length_b 19.011244
_cell_length_c 15.773721
_cell_angle_alpha 90.000000
_cell_angle_beta 90.000000
_cell_angle_gamma 90.000000
_cell_volume 4555.206788
_symmetry_space_group_name_H-M "I M M A"
_symmetry_group_IT_number 74
_symmetry_cell_setting 'orthorhombic'
loop_
_space_group_symop_operation_xyz
x,y,z
-x,1/2-y,z
x,-y,-z
-x,1/2+y,-z
-x,-y,-z
x,1/2+y,-z
-x,y,z
x,1/2-y,z
1/2+x,1/2+y,1/2+z
1/2-x,-y,1/2+z
1/2+x,1/2-y,1/2-z
1/2-x,y,1/2-z
1/2-x,1/2-y,1/2-z
1/2+x,y,1/2-z
1/2-x,1/2+y,1/2+z
1/2+x,-y,1/2+z
loop_
_atom_site_type_symbol
_atom_site_label
_atom_site_fract_x
_atom_site_fract_y
_atom_site_fract_z
Si Si1 0.852919 0.020371 0.253944
Si Si2 0.707194 0.168607 0.036359
Si Si3 0.600675 0.060017 0.928374
Si Si4 0.596479 0.333155 0.466968
Si Si5 0.647185 0.172871 0.222618
Si Si6 0.899304 0.957423 0.079023
O O1 0.750000 0.034259 0.250000
O O2 0.893439 0.099061 0.247097
O O3 0.877952 0.978109 0.339030
O O4 0.867031 0.974346 0.171067
O O5 0.709765 0.250000 0.007903
O O6 0.669394 0.118379 0.963026
O O7 0.806549 0.150032 0.069443
O O8 0.647332 0.165908 0.120311
O O9 0.500000 0.087921 0.924376
O O10 0.603113 0.000000 0.000000
O O11 0.500000 0.353208 0.429545
O O12 0.594437 0.250000 0.476522
O O13 0.601956 0.376090 0.554383
O O14 0.609304 0.250000 0.247826
O O15 0.750000 0.177333 0.250000
O O16 0.000000 0.981198 0.081105
O O17 0.856443 0.000000 0.000000
#
# Coordination Sequence:
#
# PCOD9538462 Si02
#       6
#    16  16  16  16  16  16
#     4  11  22  36  61  89 117 161 203 260 309 369
#     4  10  20  37  62  89 124 164 206 256 308 370
#     4  11  23  40  61  88 124 168 216 258 303 366
#     4   9  19  36  60  90 120 155 199 250 311 372
#     4   9  19  34  54  87 123 160 202 249 306 368
#     4  10  22  38  57  83 119 156 197 251 305 363
#
# _framework density 21.074784999999999
#
# number of rings (size 3 to 8) (size 9 to 14) (size 15 to 20)
#    0.000    2.000    1.667    1.500    4.667    1.667 
#    0.000    0.833    0.000    8.000    0.000    4.667 
#    0.000    0.000    0.000    0.000    0.000    0.000 
#
# Total GULP energy -267455.222853 kJ/mol
# GULP energy per Si atom -5571.983809 kJ/mol
# Density = 2.102682 g / cm^3
# Si number density = 21.074785 Si / 1000 Ang^3
#
#
#
# Elastic Constant Matrix: (Units=GPa)
#
#
# Indices 1 2 3 4 5 6 
#
# 1 93.2997 24.7264 16.6396 0.0000 0.0000 0.0000
# 2 24.7264 68.1896 29.4804 0.0000 0.0000 0.0000
# 3 16.6396 29.4804 122.9978 -0.0001 0.0000 0.0000
# 4 0.0000 0.0000 -0.0001 15.0371 0.0000 0.0000
# 5 0.0000 0.0000 0.0000 0.0000 14.0172 0.0000
# 6 0.0000 0.0000 0.0000 0.0000 0.0000 11.8609
#
#
#
# Elastic Compliance Matrix: (Units=1/GPa)
#
#
# Indices 1 2 3 4 5 6 
#
# 1 0.011903 -0.004038 -0.000642 0.000000 0.000000 0.000000
# 2 -0.004038 0.017730 -0.003703 0.000000 0.000000 0.000000
# 3 -0.000642 -0.003703 0.009105 0.000000 0.000000 0.000000
# 4 0.000000 0.000000 0.000000 0.066502 0.000000 0.000000
# 5 0.000000 0.000000 0.000000 0.000000 0.071341 0.000000
# 6 0.000000 0.000000 0.000000 0.000000 0.000000 0.084311
#
#
# Mechanical properties :
#
#
# Convention : Reuss Voigt Hill
#
# Bulk Modulus (GPa) = 45.51677 47.35330 46.43503
# Shear Modulus (GPa) = 17.54487 22.42576 19.98532
#
# Velocity S-wave (km/s) = 2.88845 3.26560 3.08280
# Velocity P-wave (km/s) = 5.72440 6.06109 5.89515
#
# Compressibility (1/GPa) = 0.02196992
#
# Stress axis : x y z
#
# Youngs Moduli (GPa) = 84.01252 56.40011 109.83286
#
# Poissons Ratio (x) = 0.22777 0.07055
# Poissons Ratio (y) = 0.33928 0.40675
# Poissons Ratio (z) = 0.05396 0.20887
#
# Static dielectric constant tensor:
#      x y z
#    x 1.807870 0.000000 0.000000 
#    y 0.000000 1.791320 0.000000 
#    z 0.000000 0.000000 1.929320 
# 
# From -- ./inp_files/32414.got.cif
#   From: 2010.05.17/outbox.cif.g08.bks.cpg/sg74_17_cif.got.tgz:32414.got - 2010.06.03 17:57:02.
