data_PCOD9538070
_publ_section_title
;
Structure prediction by ZEFSAII (Michael W. Deem and Ramdas Pophale) SiO2 
 PCOD9538070
Probable space group: I M M A
;
_chemical_formula_sum "Si O2"
_cell_formula_units_Z 96
_cell_length_a 21.941964
_cell_length_b 24.149767
_cell_length_c 8.858861
_cell_angle_alpha 90.000000
_cell_angle_beta 90.000000
_cell_angle_gamma 90.000000
_cell_volume 4694.251250
_symmetry_space_group_name_H-M "I M M A"
_symmetry_group_IT_number 74
_symmetry_cell_setting 'orthorhombic'
loop_
_space_group_symop_operation_xyz
x,y,z
-x,1/2-y,z
x,-y,-z
-x,1/2+y,-z
-x,-y,-z
x,1/2+y,-z
-x,y,z
x,1/2-y,z
1/2+x,1/2+y,1/2+z
1/2-x,-y,1/2+z
1/2+x,1/2-y,1/2-z
1/2-x,y,1/2-z
1/2-x,1/2-y,1/2-z
1/2+x,y,1/2-z
1/2-x,1/2+y,1/2+z
1/2+x,-y,1/2+z
loop_
_atom_site_type_symbol
_atom_site_label
_atom_site_fract_x
_atom_site_fract_y
_atom_site_fract_z
Si Si1 0.927712 0.548802 0.881904
Si Si2 0.749649 0.055585 0.576582
Si Si3 0.178287 0.193855 0.229309
Si Si4 0.140629 0.142785 0.942412
Si Si5 0.872510 0.094202 0.415380
Si Si6 0.428006 0.316445 0.855441
O O1 0.901183 0.551698 0.709130
O O2 0.000000 0.546119 0.863476
O O3 0.910202 0.500000 0.000000
O O4 0.908408 0.604005 0.972533
O O5 0.750000 0.041622 0.750000
O O6 0.702410 0.106140 0.563868
O O7 0.817183 0.068866 0.513307
O O8 0.726376 0.000000 0.500000
O O9 0.152118 0.250000 0.299519
O O10 0.250000 0.195252 0.250000
O O11 0.158051 0.138660 0.306837
O O12 0.158072 0.190887 0.057181
O O13 0.114303 0.165217 0.785763
O O14 0.914521 0.134925 0.519297
O O15 0.500000 0.319941 0.818102
O O16 0.416760 0.250000 0.890075
#
# Coordination Sequence:
#
# PCOD9538070 Si02
#       6
#    16  16  16  16  16  16
#     4  10  23  41  66  95 129 174 227 281 333 397
#     4  12  27  42  65  96 131 174 219 276 339 412
#     4  10  20  35  59  90 126 164 209 259 319 395
#     4  11  22  41  63  93 131 174 217 277 335 396
#     4  11  23  42  65  96 132 174 217 278 340 401
#     4  11  24  43  67  97 134 179 231 282 336 402
#
# _framework density 20.450545000000002
#
# number of rings (size 3 to 8) (size 9 to 14) (size 15 to 20)
#    0.000    1.167    3.333    2.500    7.000    0.000 
#    0.000    0.833    0.000   12.000    0.000    0.000 
#    0.000    0.000    0.000    0.000    0.000    0.000 
#
# Total GULP energy -267355.617733 kJ/mol
# GULP energy per Si atom -5569.908703 kJ/mol
# Density = 2.040400 g / cm^3
# Si number density = 20.450545 Si / 1000 Ang^3
#
#
#
# Elastic Constant Matrix: (Units=GPa)
#
#
# Indices 1 2 3 4 5 6 
#
# 1 112.7115 53.2350 54.1662 0.0000 0.0000 0.0000
# 2 53.2350 108.7594 54.4474 0.0000 0.0000 0.0000
# 3 54.1662 54.4474 142.0295 0.0000 0.0000 0.0000
# 4 0.0000 0.0000 0.0000 48.5312 0.0000 0.0000
# 5 0.0000 0.0000 0.0000 0.0000 35.7596 0.0000
# 6 0.0000 0.0000 0.0000 0.0000 0.0000 43.7416
#
#
#
# Elastic Compliance Matrix: (Units=1/GPa)
#
#
# Indices 1 2 3 4 5 6 
#
# 1 0.012491 -0.004615 -0.002995 0.000000 0.000000 0.000000
# 2 -0.004615 0.013083 -0.003256 0.000000 0.000000 0.000000
# 3 -0.002995 -0.003256 0.009431 0.000000 0.000000 0.000000
# 4 0.000000 0.000000 0.000000 0.020605 0.000000 0.000000
# 5 0.000000 0.000000 0.000000 0.000000 0.027965 0.000000
# 6 0.000000 0.000000 0.000000 0.000000 0.000000 0.022862
#
#
# Mechanical properties :
#
#
# Convention : Reuss Voigt Hill
#
# Bulk Modulus (GPa) = 75.32876 76.35528 75.84202
# Shear Modulus (GPa) = 37.70981 39.04994 38.37988
#
# Velocity S-wave (km/s) = 4.29878 4.37450 4.33681
# Velocity P-wave (km/s) = 7.84563 7.93301 7.88944
#
# Compressibility (1/GPa) = 0.01327514
#
# Stress axis : x y z
#
# Youngs Moduli (GPa) = 80.05768 76.43352 106.03479
#
# Poissons Ratio (x) = 0.35273 0.31753
# Poissons Ratio (y) = 0.36946 0.34520
# Poissons Ratio (z) = 0.23974 0.24883
#
# Static dielectric constant tensor:
#      x y z
#    x 1.752060 0.000000 0.000000 
#    y 0.000000 1.736480 0.000000 
#    z 0.000000 0.000000 1.751570 
# 
# From -- ./inp_files/13908.got.cif
#   From: 2010.05.17/outbox.cif.g08.bks.cpg/sg74_7_cif.got.tgz:13908.got - 2010.06.03 17:57:02.
