data_PCOD9538312
_publ_section_title
;
Structure prediction by ZEFSAII (Michael W. Deem and Ramdas Pophale) SiO2 
 PCOD9538312
Probable space group: I M M A
;
_chemical_formula_sum "Si O2"
_cell_formula_units_Z 116
_cell_length_a 23.024940
_cell_length_b 8.812414
_cell_length_c 27.943400
_cell_angle_alpha 90.000000
_cell_angle_beta 90.000000
_cell_angle_gamma 90.000000
_cell_volume 5669.864061
_symmetry_space_group_name_H-M "I M M A"
_symmetry_group_IT_number 74
_symmetry_cell_setting 'orthorhombic'
loop_
_space_group_symop_operation_xyz
x,y,z
-x,1/2-y,z
x,-y,-z
-x,1/2+y,-z
-x,-y,-z
x,1/2+y,-z
-x,y,z
x,1/2-y,z
1/2+x,1/2+y,1/2+z
1/2-x,-y,1/2+z
1/2+x,1/2-y,1/2-z
1/2-x,y,1/2-z
1/2-x,1/2-y,1/2-z
1/2+x,y,1/2-z
1/2-x,1/2+y,1/2+z
1/2+x,-y,1/2+z
loop_
_atom_site_type_symbol
_atom_site_label
_atom_site_fract_x
_atom_site_fract_y
_atom_site_fract_z
Si Si1 0.731687 0.566405 0.550214
Si Si2 0.567602 0.931178 0.952817
Si Si3 0.870267 0.924968 0.826890
Si Si4 0.232860 0.574273 0.651956
Si Si5 0.500000 0.500000 0.500000
Si Si6 0.430889 0.924299 0.848059
Si Si7 0.604711 0.567824 0.425171
Si Si8 0.355764 0.575221 0.225100
O O1 0.752915 0.500000 0.500000
O O2 0.730848 0.750000 0.549339
O O3 0.768748 0.517740 0.596949
O O4 0.665476 0.506996 0.557527
O O5 0.500000 0.984785 0.951560
O O6 0.566742 0.750000 0.957212
O O7 0.592903 0.963494 0.900735
O O8 0.595548 0.000000 0.000000
O O9 0.889506 0.750000 0.828316
O O10 0.801311 0.929413 0.837327
O O11 0.901055 0.016546 0.869694
O O12 0.872891 0.991493 0.773858
O O13 0.214491 0.750000 0.652426
O O14 0.197959 0.490809 0.693892
O O15 0.551424 0.515818 0.458434
O O16 0.500000 0.923798 0.851005
O O17 0.414176 0.750000 0.835622
O O18 0.408716 0.044192 0.810566
O O19 0.609081 0.750000 0.428495
O O20 0.344871 0.750000 0.235476
#
# Coordination Sequence:
#
# PCOD9538312 Si02
#       8
#    16  16  16  16   4  16  16  16
#     4  10  20  36  60  89 124 165 208 254 314 376
#     4   8  14  26  47  74 100 130 171 218 265 318
#     4  10  22  42  65  88 118 156 201 250 308 368
#     4   9  20  38  61  88 117 154 199 249 304 367
#     4  12  26  40  64  98 138 176 214 260 318 360
#     4   9  19  37  58  78 107 151 196 234 285 352
#     4  11  23  39  62  91 126 166 211 259 306 363
#     4  12  24  37  59  90 120 153 196 249 307 365
#
# _framework density 20.459045
#
# number of rings (size 3 to 8) (size 9 to 14) (size 15 to 20)
#    0.000    2.069    0.690    4.759    0.000    7.448 
#    1.241    2.069    0.000    0.000    0.000    0.000 
#    0.000    0.000    0.000    0.000    0.000    0.000 
#
# Total GULP energy -323071.194096 kJ/mol
# GULP energy per Si atom -5570.193002 kJ/mol
# Density = 2.041248 g / cm^3
# Si number density = 20.459045 Si / 1000 Ang^3
#
#
#
# Elastic Constant Matrix: (Units=GPa)
#
#
# Indices 1 2 3 4 5 6 
#
# 1 75.7014 14.0302 25.5607 0.0000 0.0000 0.0000
# 2 14.0302 53.5977 44.2154 0.0000 0.0000 0.0000
# 3 25.5607 44.2154 167.9107 0.0000 0.0000 0.0000
# 4 0.0000 0.0000 0.0000 33.4818 0.0000 0.0000
# 5 0.0000 0.0000 0.0000 0.0000 22.1757 0.0000
# 6 0.0000 0.0000 0.0000 0.0000 0.0000 9.2802
#
#
#
# Elastic Compliance Matrix: (Units=1/GPa)
#
#
# Indices 1 2 3 4 5 6 
#
# 1 0.014176 -0.002466 -0.001509 0.000000 0.000000 0.000000
# 2 -0.002466 0.024264 -0.006014 0.000000 0.000000 0.000000
# 3 -0.001509 -0.006014 0.007769 0.000000 0.000000 0.000000
# 4 0.000000 0.000000 0.000000 0.029867 0.000000 0.000000
# 5 0.000000 0.000000 0.000000 0.000000 0.045094 0.000000
# 6 0.000000 0.000000 0.000000 0.000000 0.000000 0.107756
#
#
# Mechanical properties :
#
#
# Convention : Reuss Voigt Hill
#
# Bulk Modulus (GPa) = 38.12204 51.64695 44.88450
# Shear Modulus (GPa) = 19.40624 27.21442 23.31033
#
# Velocity S-wave (km/s) = 3.08318 3.65113 3.37911
# Velocity P-wave (km/s) = 5.59897 6.56302 6.10007
#
# Compressibility (1/GPa) = 0.02623154
#
# Stress axis : x y z
#
# Youngs Moduli (GPa) = 70.54037 41.21258 128.71932
#
# Poissons Ratio (x) = 0.10165 0.19418
# Poissons Ratio (y) = 0.17398 0.77412
# Poissons Ratio (z) = 0.10641 0.24785
#
# Static dielectric constant tensor:
#      x y z
#    x 1.753350 0.000000 0.000000 
#    y 0.000000 1.728460 0.000000 
#    z 0.000000 0.000000 1.763020 
# 
# From -- ./inp_files/68750.got.cif
#   From: 2010.05.17/outbox.cif.g08.bks.cpg/sg74_35_cif.got.tgz:68750.got - 2010.06.03 17:57:02.
