data_PCOD9538997
_publ_section_title
;
Structure prediction by ZEFSAII (Michael W. Deem and Ramdas Pophale) SiO2 
 PCOD9538997
Probable space group: I M M A
;
_chemical_formula_sum "Si O2"
_cell_formula_units_Z 56
_cell_length_a 15.253024
_cell_length_b 10.914826
_cell_length_c 14.411623
_cell_angle_alpha 90.000000
_cell_angle_beta 90.000000
_cell_angle_gamma 90.000000
_cell_volume 2399.306127
_symmetry_space_group_name_H-M "I M M A"
_symmetry_group_IT_number 74
_symmetry_cell_setting 'orthorhombic'
loop_
_space_group_symop_operation_xyz
x,y,z
-x,1/2-y,z
x,-y,-z
-x,1/2+y,-z
-x,-y,-z
x,1/2+y,-z
-x,y,z
x,1/2-y,z
1/2+x,1/2+y,1/2+z
1/2-x,-y,1/2+z
1/2+x,1/2-y,1/2-z
1/2-x,y,1/2-z
1/2-x,1/2-y,1/2-z
1/2+x,y,1/2-z
1/2-x,1/2+y,1/2+z
1/2+x,-y,1/2+z
loop_
_atom_site_type_symbol
_atom_site_label
_atom_site_fract_x
_atom_site_fract_y
_atom_site_fract_z
Si Si1 0.905153 0.885231 0.614595
Si Si2 0.500000 0.609778 0.419125
Si Si3 0.284066 0.116403 0.443169
Si Si4 0.843274 0.463521 0.781568
O O1 0.903115 0.750000 0.661140
O O2 0.821027 0.883663 0.549492
O O3 0.000000 0.895397 0.569206
O O4 0.891345 0.990634 0.689577
O O5 0.500000 0.750000 0.457094
O O6 0.500000 0.500000 0.500000
O O7 0.584895 0.596977 0.349817
O O8 0.316086 0.250000 0.470727
O O9 0.314713 0.000000 0.500000
O O10 0.310159 0.083281 0.338646
O O11 0.750000 0.401829 0.750000
#
# Coordination Sequence:
#
# PCOD9538997 Si02
#       4
#    16   8  16  16
#     4   9  17  33  60  88 116 155 208 262 312 374
#     4  12  28  46  68 104 141 178 223 274 339 404
#     4  10  21  36  57  88 123 161 206 255 315 382
#     4  10  21  40  66  94 127 167 218 275 328 387
#
# _framework density 23.340081999999999
#
# number of rings (size 3 to 8) (size 9 to 14) (size 15 to 20)
#    0.000    2.000    1.429    1.714    0.000   10.286 
#    0.000    4.286    0.000    0.000    0.000    0.000 
#    0.000    0.000    0.000    0.000    0.000    0.000 
#
# Total GULP energy -155927.127735 kJ/mol
# GULP energy per Si atom -5568.825991 kJ/mol
# Density = 2.328696 g / cm^3
# Si number density = 23.340082 Si / 1000 Ang^3
#
#
#
# Elastic Constant Matrix: (Units=GPa)
#
#
# Indices 1 2 3 4 5 6 
#
# 1 189.9846 26.4934 21.9212 0.0000 0.0000 0.0000
# 2 26.4934 153.7856 46.8659 0.0000 0.0000 0.0000
# 3 21.9212 46.8659 57.1429 0.0000 0.0000 0.0000
# 4 0.0000 0.0000 0.0000 24.7175 0.0000 0.0000
# 5 0.0000 0.0000 0.0000 0.0000 36.4448 0.0000
# 6 0.0000 0.0000 0.0000 0.0000 0.0000 -503.9189
#
#
#
# Elastic Compliance Matrix: (Units=1/GPa)
#
#
# Indices 1 2 3 4 5 6 
#
# 1 0.005526 -0.000408 -0.001785 0.000000 0.000000 0.000000
# 2 -0.000408 0.008699 -0.006978 0.000000 0.000000 0.000000
# 3 -0.001785 -0.006978 0.023908 0.000000 0.000000 0.000000
# 4 0.000000 0.000000 0.000000 0.040457 0.000000 0.000000
# 5 0.000000 0.000000 0.000000 0.000000 0.027439 0.000000
# 6 0.000000 0.000000 0.000000 0.000000 0.000000 -0.001984
#
#
# Mechanical properties :
#
#
# Convention : Reuss Voigt Hill
#
# Bulk Modulus (GPa) = 50.52912 65.71933 58.12423
# Shear Modulus (GPa) = 38.76378 -68.17581 -14.70601
#
# Velocity S-wave (km/s) = 4.07974 -5.41047 -2.51285
# Velocity P-wave (km/s) = 6.62484 3.28823 4.06669
#
# Compressibility (1/GPa) = 0.01979057
#
# Stress axis : x y z
#
# Youngs Moduli (GPa) = 180.94664 114.94916 41.82649
#
# Poissons Ratio (x) = 0.04689 0.07468
# Poissons Ratio (y) = 0.07382 0.29188
# Poissons Ratio (z) = 0.32308 0.80216
#
# Static dielectric constant tensor:
#      x y z
#    x 1.939060 0.000000 0.000000 
#    y 0.000000 1.906950 0.000000 
#    z 0.000000 0.000000 1.896130 
# 
# From -- ./inp_files/31505.got.cif
#   From: 2010.05.17/outbox.cif.g08.bks.cpg/sg74_16_cif.got.tgz:31505.got - 2010.06.03 17:57:02.
