data_PCOD9538924
_publ_section_title
;
Structure prediction by ZEFSAII (Michael W. Deem and Ramdas Pophale) SiO2 
 PCOD9538924
Probable space group: I M M A
;
_chemical_formula_sum "Si O2"
_cell_formula_units_Z 96
_cell_length_a 19.048516
_cell_length_b 8.882886
_cell_length_c 31.605429
_cell_angle_alpha 90.000000
_cell_angle_beta 90.000000
_cell_angle_gamma 90.000000
_cell_volume 5347.821775
_symmetry_space_group_name_H-M "I M M A"
_symmetry_group_IT_number 74
_symmetry_cell_setting 'orthorhombic'
loop_
_space_group_symop_operation_xyz
x,y,z
-x,1/2-y,z
x,-y,-z
-x,1/2+y,-z
-x,-y,-z
x,1/2+y,-z
-x,y,z
x,1/2-y,z
1/2+x,1/2+y,1/2+z
1/2-x,-y,1/2+z
1/2+x,1/2-y,1/2-z
1/2-x,y,1/2-z
1/2-x,1/2-y,1/2-z
1/2+x,y,1/2-z
1/2-x,1/2+y,1/2+z
1/2+x,-y,1/2+z
loop_
_atom_site_type_symbol
_atom_site_label
_atom_site_fract_x
_atom_site_fract_y
_atom_site_fract_z
Si Si1 0.917943 0.430494 0.294036
Si Si2 0.332095 0.068266 0.122665
Si Si3 0.582213 0.070022 0.954555
Si Si4 0.581927 0.930003 0.296112
Si Si5 0.668550 0.931736 0.627163
Si Si6 0.581624 0.431112 0.455276
O O1 0.911863 0.250000 0.288775
O O2 0.871368 0.476036 0.334023
O O3 0.897718 0.508690 0.250143
O O4 0.000000 0.465164 0.302444
O O5 0.337036 0.250000 0.118950
O O6 0.250297 0.027108 0.124937
O O7 0.370523 0.995461 0.082744
O O8 0.500000 0.032224 0.946575
O O9 0.588466 0.250000 0.956494
O O10 0.601270 0.000000 0.000000
O O11 0.500000 0.973800 0.303097
O O12 0.586063 0.750000 0.296580
O O13 0.629877 0.998538 0.332586
O O14 0.663936 0.750000 0.630154
O O15 0.628633 0.978863 0.584292
O O16 0.604300 0.500000 0.500000
O O17 0.500000 0.474119 0.448181
O O18 0.584595 0.250000 0.458235
#
# Coordination Sequence:
#
# PCOD9538924 Si02
#       6
#    16  16  16  16  16  16
#     4   9  18  34  56  78 102 137 177 217 264 318
#     4  10  21  36  55  81 111 142 178 220 267 321
#     4  10  21  37  58  82 108 142 183 226 271 318
#     4  10  21  36  55  79 105 136 178 226 269 311
#     4  10  21  36  54  78 109 143 176 213 264 324
#     4   9  18  33  53  75  99 131 171 213 256 304
#
# _framework density 17.951233999999999
#
# number of rings (size 3 to 8) (size 9 to 14) (size 15 to 20)
#    0.000    2.333    0.000    2.000    0.000    6.667 
#    0.000    8.333    0.000    0.000    0.000    0.000 
#    0.000    0.000    0.000    0.000    0.000    0.000 
#
# Total GULP energy -268001.260758 kJ/mol
# GULP energy per Si atom -5583.359599 kJ/mol
# Density = 1.791038 g / cm^3
# Si number density = 17.951234 Si / 1000 Ang^3
#
#
#
# Elastic Constant Matrix: (Units=GPa)
#
#
# Indices 1 2 3 4 5 6 
#
# 1 121.3211 48.0446 133.5120 0.0000 0.0000 0.0000
# 2 48.0446 24.5683 58.3933 0.0000 0.0000 0.0000
# 3 133.5120 58.3933 214.8825 0.0000 0.0000 0.0000
# 4 0.0000 0.0000 0.0000 35.4830 0.0000 0.0000
# 5 0.0000 0.0000 0.0000 0.0000 -10.0631 0.0000
# 6 0.0000 0.0000 0.0000 0.0000 0.0000 17.6604
#
#
#
# Elastic Compliance Matrix: (Units=1/GPa)
#
#
# Indices 1 2 3 4 5 6 
#
# 1 0.044520 -0.060195 -0.011304 0.000000 0.000000 0.000000
# 2 -0.060195 0.196329 -0.015951 0.000000 0.000000 0.000000
# 3 -0.011304 -0.015951 0.016012 0.000000 0.000000 0.000000
# 4 0.000000 0.000000 0.000000 0.028183 0.000000 0.000000
# 5 0.000000 0.000000 0.000000 0.000000 -0.099373 0.000000
# 6 0.000000 0.000000 0.000000 0.000000 0.000000 0.056624
#
#
# Mechanical properties :
#
#
# Convention : Reuss Voigt Hill
#
# Bulk Modulus (GPa) = 12.20086 93.40795 52.80441
# Shear Modulus (GPa) = 11.24827 16.67087 13.95957
#
# Velocity S-wave (km/s) = 2.50592 3.05072 2.79164
# Velocity P-wave (km/s) = 3.89670 8.03470 6.31430
#
# Compressibility (1/GPa) = 0.08196143
#
# Stress axis : x y z
#
# Youngs Moduli (GPa) = 22.46173 5.09350 62.45459
#
# Poissons Ratio (x) = 0.30660 0.70598
# Poissons Ratio (y) = 1.35208 0.99620
# Poissons Ratio (z) = 0.25390 0.08125
#
# Static dielectric constant tensor:
#      x y z
#    x 1.602160 0.000000 0.000000 
#    y 0.000000 1.605750 0.000000 
#    z 0.000000 0.000000 1.576400 
# 
# From -- ./inp_files/68150.got.cif
#   From: 2010.05.17/outbox.cif.g08.bks.cpg/sg74_35_cif.got.tgz:68150.got - 2010.06.03 17:57:02.
