data_PCOD9538564
_publ_section_title
;
Structure prediction by ZEFSAII (Michael W. Deem and Ramdas Pophale) SiO2 
 PCOD9538564
Probable space group: I M M A
;
_chemical_formula_sum "Si O2"
_cell_formula_units_Z 84
_cell_length_a 12.605523
_cell_length_b 15.233173
_cell_length_c 21.130738
_cell_angle_alpha 90.000000
_cell_angle_beta 90.000000
_cell_angle_gamma 90.000000
_cell_volume 4057.568952
_symmetry_space_group_name_H-M "I M M A"
_symmetry_group_IT_number 74
_symmetry_cell_setting 'orthorhombic'
loop_
_space_group_symop_operation_xyz
x,y,z
-x,1/2-y,z
x,-y,-z
-x,1/2+y,-z
-x,-y,-z
x,1/2+y,-z
-x,y,z
x,1/2-y,z
1/2+x,1/2+y,1/2+z
1/2-x,-y,1/2+z
1/2+x,1/2-y,1/2-z
1/2-x,y,1/2-z
1/2-x,1/2-y,1/2-z
1/2+x,y,1/2-z
1/2-x,1/2+y,1/2+z
1/2+x,-y,1/2+z
loop_
_atom_site_type_symbol
_atom_site_label
_atom_site_fract_x
_atom_site_fract_y
_atom_site_fract_z
Si Si1 0.730457 0.648794 0.989275
Si Si2 0.000000 0.750000 0.247169
Si Si3 0.377873 0.590033 0.625648
Si Si4 0.728070 0.565234 0.122575
Si Si5 0.000000 0.903156 0.354383
Si Si6 0.874892 0.250000 0.223161
Si Si7 0.000000 0.393933 0.499331
Si Si8 0.287480 0.250000 0.679313
O O1 0.747482 0.750000 0.009552
O O2 0.813048 0.626131 0.934704
O O3 0.737577 0.580182 0.047239
O O4 0.608003 0.639159 0.967912
O O5 0.000000 0.667089 0.296699
O O6 0.908808 0.750000 0.195123
O O7 0.500000 0.570633 0.609316
O O8 0.314666 0.503010 0.645789
O O9 0.376375 0.663510 0.679483
O O10 0.608982 0.542142 0.144572
O O11 0.747166 0.662557 0.147547
O O12 0.000000 0.862198 0.426351
O O13 0.750000 0.250000 0.250000
O O14 0.000000 0.250000 0.253470
O O15 0.000000 0.500000 0.500000
O O16 0.250000 0.250000 0.750000
#
# Coordination Sequence:
#
# PCOD9538564 Si02
#       8
#    16   4  16  16   8   8   8   8
#     4  11  21  39  66  98 132 171 214 264 332 395
#     4  12  24  40  60  88 138 180 220 266 312 388
#     4  11  25  46  70  93 131 171 213 269 338 392
#     4  11  23  41  65  98 132 173 218 265 324 395
#     4  10  20  38  63  85 131 178 208 262 330 370
#     4  10  24  53  75  95 128 172 227 286 336 391
#     4  10  21  35  60  96 135 166 214 272 322 391
#     4  12  24  41  61  94 135 174 224 260 313 390
#
# _framework density 20.702051999999998
#
# number of rings (size 3 to 8) (size 9 to 14) (size 15 to 20)
#    0.000    1.143    3.810    3.143    5.333    2.286 
#    3.429    0.000    0.000    0.000    0.000    0.000 
#    0.000    0.000    0.000    0.000    0.000    0.000 
#
# Total GULP energy -234126.005296 kJ/mol
# GULP energy per Si atom -5574.428698 kJ/mol
# Density = 2.065493 g / cm^3
# Si number density = 20.702052 Si / 1000 Ang^3
#
#
#
# Elastic Constant Matrix: (Units=GPa)
#
#
# Indices 1 2 3 4 5 6 
#
# 1 193.0746 26.9371 22.7007 0.0000 0.0000 0.0000
# 2 26.9371 107.8179 7.7347 0.0000 0.0000 0.0000
# 3 22.7007 7.7347 40.1207 0.0000 0.0000 0.0000
# 4 0.0000 0.0000 0.0000 -4.9127 0.0000 0.0000
# 5 0.0000 0.0000 0.0000 0.0000 29.1474 0.0000
# 6 0.0000 0.0000 0.0000 0.0000 0.0000 27.9212
#
#
#
# Elastic Compliance Matrix: (Units=1/GPa)
#
#
# Indices 1 2 3 4 5 6 
#
# 1 0.005700 -0.001209 -0.002992 0.000000 0.000000 0.000000
# 2 -0.001209 0.009662 -0.001178 0.000000 0.000000 0.000000
# 3 -0.002992 -0.001178 0.026845 0.000000 0.000000 0.000000
# 4 0.000000 0.000000 0.000000 -0.203553 0.000000 0.000000
# 5 0.000000 0.000000 0.000000 0.000000 0.034308 0.000000
# 6 0.000000 0.000000 0.000000 0.000000 0.000000 0.035815
#
#
# Mechanical properties :
#
#
# Convention : Reuss Voigt Hill
#
# Bulk Modulus (GPa) = 31.79952 50.63980 41.21966
# Shear Modulus (GPa) = -71.44690 29.34056 -21.05317
#
# Velocity S-wave (km/s) = -5.88106 3.76876 -3.19244
# Velocity P-wave (km/s) = 5.54274 6.59184 2.52294
#
# Compressibility (1/GPa) = 0.03144701
#
# Stress axis : x y z
#
# Youngs Moduli (GPa) = 175.44328 103.50272 37.25118
#
# Poissons Ratio (x) = 0.12518 0.11145
# Poissons Ratio (y) = 0.21218 0.04389
# Poissons Ratio (z) = 0.52490 0.12196
#
# Static dielectric constant tensor:
#      x y z
#    x 1.749020 0.000000 0.000000 
#    y 0.000000 1.690680 0.000000 
#    z 0.000000 0.000000 1.739130 
# 
# From -- ./inp_files/58715.got.cif
#   From: 2010.05.17/outbox.cif.g08.bks.cpg/sg74_30_cif.got.tgz:58715.got - 2010.06.03 17:57:02.
