data_PCOD9538018
_publ_section_title
;
Structure prediction by ZEFSAII (Michael W. Deem and Ramdas Pophale) SiO2 
 PCOD9538018
Probable space group: I M M A
;
_chemical_formula_sum "Si O2"
_cell_formula_units_Z 80
_cell_length_a 27.765947
_cell_length_b 15.900861
_cell_length_c 8.719437
_cell_angle_alpha 90.000000
_cell_angle_beta 90.000000
_cell_angle_gamma 90.000000
_cell_volume 3849.652918
_symmetry_space_group_name_H-M "I M M A"
_symmetry_group_IT_number 74
_symmetry_cell_setting 'orthorhombic'
loop_
_space_group_symop_operation_xyz
x,y,z
-x,1/2-y,z
x,-y,-z
-x,1/2+y,-z
-x,-y,-z
x,1/2+y,-z
-x,y,z
x,1/2-y,z
1/2+x,1/2+y,1/2+z
1/2-x,-y,1/2+z
1/2+x,1/2-y,1/2-z
1/2-x,y,1/2-z
1/2-x,1/2-y,1/2-z
1/2+x,y,1/2-z
1/2-x,1/2+y,1/2+z
1/2+x,-y,1/2+z
loop_
_atom_site_type_symbol
_atom_site_label
_atom_site_fract_x
_atom_site_fract_y
_atom_site_fract_z
Si Si1 0.354345 0.344560 0.606506
Si Si2 0.149194 0.595532 0.438186
Si Si3 0.052194 0.404782 0.432485
Si Si4 0.053282 0.094457 0.065650
Si Si5 0.246653 0.405867 0.935261
O O1 0.353645 0.250000 0.667875
O O2 0.356325 0.404852 0.754373
O O3 0.400900 0.358125 0.502589
O O4 0.303269 0.360884 0.524031
O O5 0.150863 0.500000 0.500000
O O6 0.100769 0.636329 0.503914
O O7 0.201526 0.632481 0.481792
O O8 0.051453 0.500000 0.500000
O O9 0.000000 0.366657 0.473547
O O10 0.055663 0.408528 0.249263
O O11 0.000000 0.128954 0.023399
O O12 0.055527 0.000000 0.000000
O O13 0.250000 0.408197 0.750000
O O14 0.243550 0.500000 0.000000
#
# Coordination Sequence:
#
# PCOD9538018 Si02
#       5
#    16  16  16  16  16
#     4  11  23  37  56  84 118 153 189 236 295 350
#     4   9  18  34  56  82 111 147 191 235 280 340
#     4   9  17  31  54  83 110 136 177 232 279 322
#     4  10  20  35  58  85 113 148 190 235 280 335
#     4   9  19  34  55  81 109 145 189 235 283 337
#
# _framework density 20.781092999999998
#
# number of rings (size 3 to 8) (size 9 to 14) (size 15 to 20)
#    0.000    2.400    0.000    3.000    0.000   11.200 
#    0.000    1.000    0.000    5.400    0.000    0.000 
#    0.000    0.000    0.000    0.000    0.000    0.000 
#
# Total GULP energy -222933.955644 kJ/mol
# GULP energy per Si atom -5573.348891 kJ/mol
# Density = 2.073379 g / cm^3
# Si number density = 20.781093 Si / 1000 Ang^3
#
#
#
# Elastic Constant Matrix: (Units=GPa)
#
#
# Indices 1 2 3 4 5 6 
#
# 1 251.6425 23.3052 57.2927 0.0000 0.0000 0.0000
# 2 23.3052 34.2711 5.1429 0.0000 0.0000 0.0000
# 3 57.2927 5.1429 42.4744 0.0000 0.0000 0.0000
# 4 0.0000 0.0000 0.0000 3.2288 0.0000 0.0000
# 5 0.0000 0.0000 0.0000 0.0000 37.7857 0.0000
# 6 0.0000 0.0000 0.0000 0.0000 0.0000 -18.6035
#
#
#
# Elastic Compliance Matrix: (Units=1/GPa)
#
#
# Indices 1 2 3 4 5 6 
#
# 1 0.006010 -0.002923 -0.007752 0.000000 0.000000 0.000000
# 2 -0.002923 0.031141 0.000173 0.000000 0.000000 0.000000
# 3 -0.007752 0.000173 0.033980 0.000000 0.000000 0.000000
# 4 0.000000 0.000000 0.000000 0.309709 0.000000 0.000000
# 5 0.000000 0.000000 0.000000 0.000000 0.026465 0.000000
# 6 0.000000 0.000000 0.000000 0.000000 0.000000 -0.053753
#
#
# Mechanical properties :
#
#
# Convention : Reuss Voigt Hill
#
# Bulk Modulus (GPa) = 19.95041 55.54107 37.74574
# Shear Modulus (GPa) = 12.77905 20.65867 16.71886
#
# Velocity S-wave (km/s) = 2.48248 3.15637 2.83949
# Velocity P-wave (km/s) = 4.22351 6.32995 5.38082
#
# Compressibility (1/GPa) = 0.05012428
#
# Stress axis : x y z
#
# Youngs Moduli (GPa) = 166.39956 32.11181 29.42947
#
# Poissons Ratio (x) = 0.09387 0.22815
# Poissons Ratio (y) = 0.48644 -0.00508
# Poissons Ratio (z) = 1.28998 -0.00554
#
# Static dielectric constant tensor:
#      x y z
#    x 1.847770 0.000000 0.000000 
#    y 0.000000 1.705910 0.000000 
#    z 0.000000 0.000000 1.711800 
# 
# From -- ./inp_files/14922.got.cif
#   From: 2010.05.17/outbox.cif.g08.bks.cpg/sg74_8_cif.got.tgz:14922.got - 2010.06.03 17:57:02.
