data_PCOD9538193
_publ_section_title
;
Structure prediction by ZEFSAII (Michael W. Deem and Ramdas Pophale) SiO2 
 PCOD9538193
Probable space group: I M M A
;
_chemical_formula_sum "Si O2"
_cell_formula_units_Z 96
_cell_length_a 8.009624
_cell_length_b 21.632477
_cell_length_c 26.829584
_cell_angle_alpha 90.000000
_cell_angle_beta 90.000000
_cell_angle_gamma 90.000000
_cell_volume 4648.708547
_symmetry_space_group_name_H-M "I M M A"
_symmetry_group_IT_number 74
_symmetry_cell_setting 'orthorhombic'
loop_
_space_group_symop_operation_xyz
x,y,z
-x,1/2-y,z
x,-y,-z
-x,1/2+y,-z
-x,-y,-z
x,1/2+y,-z
-x,y,z
x,1/2-y,z
1/2+x,1/2+y,1/2+z
1/2-x,-y,1/2+z
1/2+x,1/2-y,1/2-z
1/2-x,y,1/2-z
1/2-x,1/2-y,1/2-z
1/2+x,y,1/2-z
1/2-x,1/2+y,1/2+z
1/2+x,-y,1/2+z
loop_
_atom_site_type_symbol
_atom_site_label
_atom_site_fract_x
_atom_site_fract_y
_atom_site_fract_z
Si Si1 0.194836 0.441601 0.861872
Si Si2 0.296026 0.180043 0.584486
Si Si3 0.693959 0.683990 0.862379
Si Si4 0.188472 0.529072 0.553359
Si Si5 0.308418 0.660225 0.529749
Si Si6 0.302150 0.440006 0.306135
O O1 0.264422 0.374181 0.878125
O O2 0.216216 0.481451 0.911933
O O3 0.268080 0.492215 0.822880
O O4 0.000000 0.431609 0.849327
O O5 0.500000 0.175766 0.583393
O O6 0.251346 0.250000 0.599449
O O7 0.242182 0.170731 0.526450
O O8 0.500000 0.683887 0.849416
O O9 0.768075 0.750000 0.843609
O O10 0.713800 0.685968 0.922236
O O11 0.760838 0.619065 0.840893
O O12 0.165057 0.500000 0.500000
O O13 0.297784 0.588418 0.542563
O O14 0.000000 0.543714 0.573325
O O15 0.500000 0.681308 0.530685
O O16 0.500000 0.446652 0.308772
O O17 0.250000 0.426004 0.250000
#
# Coordination Sequence:
#
# PCOD9538193 Si02
#       6
#    16  16  16  16  16  16
#     4  10  20  36  58  82 108 144 190 234 283 338
#     4   9  18  32  53  83 117 151 189 232 274 324
#     4  11  24  40  58  83 118 156 191 232 280 333
#     4  11  21  31  49  79 114 151 190 230 280 330
#     4  11  20  32  54  82 116 156 197 232 267 321
#     4  11  24  41  63  86 108 141 186 241 295 347
#
# _framework density 20.650895999999999
#
# number of rings (size 3 to 8) (size 9 to 14) (size 15 to 20)
#    0.000    1.500    3.333    2.500    0.000    3.667 
#    0.000    0.000    0.000    2.000    0.000    0.000 
#    0.000    0.000    0.000    0.000    0.000    0.167 
#
# Total GULP energy -267381.533896 kJ/mol
# GULP energy per Si atom -5570.448623 kJ/mol
# Density = 2.060389 g / cm^3
# Si number density = 20.650896 Si / 1000 Ang^3
#
#
#
# Elastic Constant Matrix: (Units=GPa)
#
#
# Indices 1 2 3 4 5 6 
#
# 1 27.9565 13.4656 4.4872 0.0000 0.0000 0.0000
# 2 13.4656 186.2308 38.2755 0.0000 0.0000 0.0000
# 3 4.4872 38.2755 68.6521 0.0000 0.0000 0.0000
# 4 0.0000 0.0000 0.0000 7.6278 0.0000 0.0000
# 5 0.0000 0.0000 0.0000 0.0000 18.5989 0.0000
# 6 0.0000 0.0000 0.0000 0.0000 0.0000 7.1926
#
#
#
# Elastic Compliance Matrix: (Units=1/GPa)
#
#
# Indices 1 2 3 4 5 6 
#
# 1 0.037127 -0.002469 -0.001050 0.000000 0.000000 0.000000
# 2 -0.002469 0.006229 -0.003311 0.000000 0.000000 0.000000
# 3 -0.001050 -0.003311 0.016481 0.000000 0.000000 0.000000
# 4 0.000000 0.000000 0.000000 0.131099 0.000000 0.000000
# 5 0.000000 0.000000 0.000000 0.000000 0.053767 0.000000
# 6 0.000000 0.000000 0.000000 0.000000 0.000000 0.139031
#
#
# Mechanical properties :
#
#
# Convention : Reuss Voigt Hill
#
# Bulk Modulus (GPa) = 21.65604 43.92179 32.78891
# Shear Modulus (GPa) = 12.11280 21.79129 16.95204
#
# Velocity S-wave (km/s) = 2.42451 3.25194 2.86822
# Velocity P-wave (km/s) = 4.28336 5.95106 5.18470
#
# Compressibility (1/GPa) = 0.04617649
#
# Stress axis : x y z
#
# Youngs Moduli (GPa) = 26.93424 160.54585 60.67586
#
# Poissons Ratio (x) = 0.39633 0.06373
# Poissons Ratio (y) = 0.06649 0.20092
# Poissons Ratio (z) = 0.02829 0.53162
#
# Static dielectric constant tensor:
#      x y z
#    x 1.797800 0.000000 0.000000 
#    y 0.000000 1.819810 0.000000 
#    z 0.000000 0.000000 1.715740 
# 
# From -- ./inp_files/64323.got.cif
#   From: 2010.05.17/outbox.cif.g08.bks.cpg/sg74_33_cif.got.tgz:64323.got - 2010.06.03 17:57:02.
