data_PCOD9538809
_publ_section_title
;
Structure prediction by ZEFSAII (Michael W. Deem and Ramdas Pophale) SiO2 
 PCOD9538809
Probable space group: I M M A
;
_chemical_formula_sum "Si O2"
_cell_formula_units_Z 112
_cell_length_a 25.428273
_cell_length_b 14.530074
_cell_length_c 15.756933
_cell_angle_alpha 90.000000
_cell_angle_beta 90.000000
_cell_angle_gamma 90.000000
_cell_volume 5821.787910
_symmetry_space_group_name_H-M "I M M A"
_symmetry_group_IT_number 74
_symmetry_cell_setting 'orthorhombic'
loop_
_space_group_symop_operation_xyz
x,y,z
-x,1/2-y,z
x,-y,-z
-x,1/2+y,-z
-x,-y,-z
x,1/2+y,-z
-x,y,z
x,1/2-y,z
1/2+x,1/2+y,1/2+z
1/2-x,-y,1/2+z
1/2+x,1/2-y,1/2-z
1/2-x,y,1/2-z
1/2-x,1/2-y,1/2-z
1/2+x,y,1/2-z
1/2-x,1/2+y,1/2+z
1/2+x,-y,1/2+z
loop_
_atom_site_type_symbol
_atom_site_label
_atom_site_fract_x
_atom_site_fract_y
_atom_site_fract_z
Si Si1 0.180099 0.495737 0.345282
Si Si2 0.870357 0.646461 0.256419
Si Si3 0.768958 0.144172 0.863840
Si Si4 0.244482 0.856856 0.556822
Si Si5 0.439934 0.606980 0.400513
Si Si6 0.937789 0.114445 0.087612
Si Si7 0.835372 0.647680 0.804821
O O1 0.132736 0.569455 0.330128
O O2 0.228278 0.566504 0.337491
O O3 0.197355 0.428486 0.422827
O O4 0.172046 0.426269 0.267969
O O5 0.868788 0.750000 0.291140
O O6 0.821798 0.634268 0.189622
O O7 0.916963 0.636946 0.188920
O O8 0.750587 0.250000 0.849962
O O9 0.771363 0.131207 0.965065
O O10 0.226769 0.750000 0.561853
O O11 0.290589 0.871167 0.625238
O O12 0.500000 0.635119 0.403176
O O13 0.418642 0.640251 0.492134
O O14 0.437086 0.496277 0.405247
O O15 0.893401 0.145938 0.153521
O O16 0.000000 0.141195 0.099495
O O17 0.825563 0.750000 0.770651
#
# Coordination Sequence:
#
# PCOD9538809 Si02
#       7
#    16  16  16  16  16  16  16
#     4  12  22  34  50  71 100 138 171 209 254 299
#     4  11  21  33  51  75 103 136 172 208 249 296
#     4  10  21  35  51  73 100 132 173 214 250 295
#     4  10  21  35  51  73 100 132 173 214 250 295
#     4   9  18  33  52  74 102 137 176 212 244 286
#     4   9  18  33  52  74 102 137 176 212 244 286
#     4  11  21  33  51  75 103 136 172 208 249 296
#
# _framework density 19.238076
#
# number of rings (size 3 to 8) (size 9 to 14) (size 15 to 20)
#    0.000    1.714    1.429    5.571    0.000    4.571 
#    0.000    1.429    0.000    0.000    0.000    0.000 
#    0.000    9.143    0.000   24.000    0.000    0.000 
#
# Total GULP energy -312170.643318 kJ/mol
# GULP energy per Si atom -5574.475774 kJ/mol
# Density = 1.919429 g / cm^3
# Si number density = 19.238076 Si / 1000 Ang^3
#
#
#
# Elastic Constant Matrix: (Units=GPa)
#
#
# Indices 1 2 3 4 5 6 
#
# 1 34.1328 13.0160 8.9662 0.0000 0.0000 0.0000
# 2 13.0160 99.1468 25.2412 0.0000 0.0000 0.0000
# 3 8.9662 25.2412 30.4322 0.0000 0.0000 0.0000
# 4 0.0000 0.0000 0.0000 -381.9977 0.0000 0.0000
# 5 0.0000 0.0000 0.0000 0.0000 25.5275 0.0000
# 6 0.0000 0.0000 0.0000 0.0000 0.0000 23.4851
#
#
#
# Elastic Compliance Matrix: (Units=1/GPa)
#
#
# Indices 1 2 3 4 5 6 
#
# 1 0.032162 -0.002294 -0.007573 0.000000 0.000000 0.000000
# 2 -0.002294 0.012950 -0.010065 0.000000 0.000000 0.000000
# 3 -0.007573 -0.010065 0.043439 0.000000 0.000000 0.000000
# 4 0.000000 0.000000 0.000000 -0.002618 0.000000 0.000000
# 5 0.000000 0.000000 0.000000 0.000000 0.039173 0.000000
# 6 0.000000 0.000000 0.000000 0.000000 0.000000 0.042580
#
#
# Mechanical properties :
#
#
# Convention : Reuss Voigt Hill
#
# Bulk Modulus (GPa) = 20.53958 28.68431 24.61194
# Shear Modulus (GPa) = 22.34354 -58.83113 -18.24380
#
# Velocity S-wave (km/s) = 3.41166 -5.53597 -3.08282
# Velocity P-wave (km/s) = 5.12044 5.09118 0.38658
#
# Compressibility (1/GPa) = 0.04868649
#
# Stress axis : x y z
#
# Youngs Moduli (GPa) = 31.09305 77.22272 23.02077
#
# Poissons Ratio (x) = 0.17717 0.17433
# Poissons Ratio (y) = 0.07134 0.23170
# Poissons Ratio (z) = 0.23546 0.77723
#
# Static dielectric constant tensor:
#      x y z
#    x 1.689530 0.000000 0.000000 
#    y 0.000000 1.756830 0.000000 
#    z 0.000000 0.000000 1.718760 
# 
# From -- ./inp_files/37382.got.cif
#   From: 2010.05.17/outbox.cif.g08.bks.cpg/sg74_19_cif.got.tgz:37382.got - 2010.06.03 17:57:02.
