data_PCOD9538037
_publ_section_title
;
Structure prediction by ZEFSAII (Michael W. Deem and Ramdas Pophale) SiO2 
 PCOD9538037
Probable space group: I M M A
;
_chemical_formula_sum "Si O2"
_cell_formula_units_Z 64
_cell_length_a 14.100257
_cell_length_b 15.604599
_cell_length_c 12.250576
_cell_angle_alpha 90.000000
_cell_angle_beta 90.000000
_cell_angle_gamma 90.000000
_cell_volume 2695.480226
_symmetry_space_group_name_H-M "I M M A"
_symmetry_group_IT_number 74
_symmetry_cell_setting 'orthorhombic'
loop_
_space_group_symop_operation_xyz
x,y,z
-x,1/2-y,z
x,-y,-z
-x,1/2+y,-z
-x,-y,-z
x,1/2+y,-z
-x,y,z
x,1/2-y,z
1/2+x,1/2+y,1/2+z
1/2-x,-y,1/2+z
1/2+x,1/2-y,1/2-z
1/2-x,y,1/2-z
1/2-x,1/2-y,1/2-z
1/2+x,y,1/2-z
1/2-x,1/2+y,1/2+z
1/2+x,-y,1/2+z
loop_
_atom_site_type_symbol
_atom_site_label
_atom_site_fract_x
_atom_site_fract_y
_atom_site_fract_z
Si Si1 0.111474 0.091734 0.768328
Si Si2 0.608204 0.395794 0.497725
Si Si3 0.884023 0.750000 0.588911
Si Si4 0.614889 0.398454 0.258515
Si Si5 0.676934 0.250000 0.851702
O O1 0.122489 0.161801 0.676329
O O2 0.000000 0.082344 0.791315
O O3 0.145054 0.996685 0.737741
O O4 0.153935 0.124487 0.884943
O O5 0.604324 0.500000 0.500000
O O6 0.500000 0.361619 0.498021
O O7 0.649281 0.372311 0.379976
O O8 0.863289 0.667619 0.664029
O O9 0.818788 0.750000 0.481960
O O10 0.000000 0.750000 0.564114
O O11 0.500000 0.398862 0.266259
O O12 0.750000 0.250000 0.750000
#
# Coordination Sequence:
#
# PCOD9538037 Si02
#       5
#    16  16   8  16   8
#     4   9  17  33  59  85 109 143 186 228 275 334
#     4   7  11  23  48  84 114 132 163 215 273 332
#     4  10  20  35  58  89 118 145 184 235 288 348
#     4   8  15  29  56  92 119 135 165 225 291 340
#     4  12  26  39  50  68 110 153 199 238 283 330
#
# _framework density 23.743449999999999
#
# number of rings (size 3 to 8) (size 9 to 14) (size 15 to 20)
#    0.000    3.250    0.000    4.125    0.000    2.000 
#    0.000    7.500   16.500    1.500    0.000    0.000 
#    0.000    0.000    0.000    0.000    0.000    0.000 
#
# Total GULP energy -178417.964932 kJ/mol
# GULP energy per Si atom -5575.561404 kJ/mol
# Density = 2.368941 g / cm^3
# Si number density = 23.743450 Si / 1000 Ang^3
#
#
#
# Elastic Constant Matrix: (Units=GPa)
#
#
# Indices 1 2 3 4 5 6 
#
# 1 81.7348 18.4075 13.9898 0.0000 0.0000 0.0000
# 2 18.4075 124.9599 108.4280 0.0000 0.0000 0.0000
# 3 13.9898 108.4280 199.2791 0.0000 0.0000 0.0000
# 4 0.0000 0.0000 0.0000 58.6835 0.0000 0.0000
# 5 0.0000 0.0000 0.0000 0.0000 20.8779 0.0000
# 6 0.0000 0.0000 0.0000 0.0000 0.0000 25.5508
#
#
#
# Elastic Compliance Matrix: (Units=1/GPa)
#
#
# Indices 1 2 3 4 5 6 
#
# 1 0.012660 -0.002072 0.000239 0.000000 0.000000 0.000000
# 2 -0.002072 0.015499 -0.008287 0.000000 0.000000 0.000000
# 3 0.000239 -0.008287 0.009511 0.000000 0.000000 0.000000
# 4 0.000000 0.000000 0.000000 0.017041 0.000000 0.000000
# 5 0.000000 0.000000 0.000000 0.000000 0.047898 0.000000
# 6 0.000000 0.000000 0.000000 0.000000 0.000000 0.039138
#
#
# Mechanical properties :
#
#
# Convention : Reuss Voigt Hill
#
# Bulk Modulus (GPa) = 57.37855 76.40272 66.89064
# Shear Modulus (GPa) = 29.79793 38.69901 34.24847
#
# Velocity S-wave (km/s) = 3.54644 4.04156 3.80207
# Velocity P-wave (km/s) = 6.40220 7.35032 6.89258
#
# Compressibility (1/GPa) = 0.01742811
#
# Stress axis : x y z
#
# Youngs Moduli (GPa) = 78.98584 64.52083 105.14610
#
# Poissons Ratio (x) = 0.13369 -0.02509
# Poissons Ratio (y) = 0.16366 0.87140
# Poissons Ratio (z) = -0.01884 0.53472
#
# Static dielectric constant tensor:
#      x y z
#    x 1.952440 0.000000 0.000000 
#    y 0.000000 1.887420 0.000000 
#    z 0.000000 0.000000 1.903180 
# 
# From -- ./inp_files/21634.got.cif
#   From: 2010.05.17/outbox.cif.g08.bks.cpg/sg74_11_cif.got.tgz:21634.got - 2010.06.03 17:57:02.
