data_PCOD9538466
_publ_section_title
;
Structure prediction by ZEFSAII (Michael W. Deem and Ramdas Pophale) SiO2 
 PCOD9538466
Probable space group: I M M A
;
_chemical_formula_sum "Si O2"
_cell_formula_units_Z 112
_cell_length_a 22.192981
_cell_length_b 14.238607
_cell_length_c 15.749929
_cell_angle_alpha 90.000000
_cell_angle_beta 90.000000
_cell_angle_gamma 90.000000
_cell_volume 4976.932434
_symmetry_space_group_name_H-M "I M M A"
_symmetry_group_IT_number 74
_symmetry_cell_setting 'orthorhombic'
loop_
_space_group_symop_operation_xyz
x,y,z
-x,1/2-y,z
x,-y,-z
-x,1/2+y,-z
-x,-y,-z
x,1/2+y,-z
-x,y,z
x,1/2-y,z
1/2+x,1/2+y,1/2+z
1/2-x,-y,1/2+z
1/2+x,1/2-y,1/2-z
1/2-x,y,1/2-z
1/2-x,1/2-y,1/2-z
1/2+x,y,1/2-z
1/2-x,1/2+y,1/2+z
1/2+x,-y,1/2+z
loop_
_atom_site_type_symbol
_atom_site_label
_atom_site_fract_x
_atom_site_fract_y
_atom_site_fract_z
Si Si1 0.344754 0.856212 0.029336
Si Si2 0.635622 0.137742 0.617722
Si Si3 0.072327 0.639774 0.622079
Si Si4 0.742370 0.648450 0.612985
Si Si5 0.100857 0.143448 0.067644
Si Si6 0.739350 0.441693 0.843142
Si Si7 0.069045 0.989678 0.779615
O O1 0.359161 0.750000 0.056277
O O2 0.321719 0.913300 0.109795
O O3 0.397673 0.889618 0.966966
O O4 0.286820 0.853693 0.967372
O O5 0.638492 0.250000 0.628704
O O6 0.597240 0.118625 0.531935
O O7 0.702440 0.095858 0.605726
O O8 0.607366 0.080976 0.696115
O O9 0.089603 0.750000 0.636626
O O10 0.091172 0.574232 0.700898
O O11 0.000000 0.636496 0.616842
O O12 0.752851 0.750000 0.654519
O O13 0.672515 0.643999 0.587172
O O14 0.757158 0.553571 0.661089
O O15 0.078460 0.250000 0.079144
O O16 0.072100 0.075072 0.136092
O O17 0.750000 0.400424 0.750000
O O18 0.000000 0.015875 0.762281
#
# Coordination Sequence:
#
# PCOD9538466 Si02
#       7
#    16  16  16  16  16  16  16
#     4  10  21  39  67  99 135 178 219 267 335 406
#     4  11  24  41  59  87 131 180 227 278 332 396
#     4   9  20  41  70 104 139 173 221 287 345 397
#     4  10  21  38  62  96 133 168 210 267 335 407
#     4  10  20  37  62  90 129 170 214 277 340 401
#     4  12  25  40  66  98 134 173 219 273 333 397
#     4  11  23  39  63  95 131 174 224 276 338 406
#
# _framework density 22.503822
#
# number of rings (size 3 to 8) (size 9 to 14) (size 15 to 20)
#    0.000    1.571    2.857    1.714    2.000    3.714 
#    0.000    1.429    0.000    2.571    0.000    2.000 
#    0.000    0.000    0.000    0.000    0.000    0.000 
#
# Total GULP energy -313001.749286 kJ/mol
# GULP energy per Si atom -5589.316952 kJ/mol
# Density = 2.245260 g / cm^3
# Si number density = 22.503822 Si / 1000 Ang^3
#
#
#
# Elastic Constant Matrix: (Units=GPa)
#
#
# Indices 1 2 3 4 5 6 
#
# 1 63.8690 28.9735 22.5085 0.0000 0.0000 0.0000
# 2 28.9735 142.1646 73.2435 0.0000 0.0000 0.0000
# 3 22.5085 73.2435 120.3424 0.0000 0.0000 0.0000
# 4 0.0000 0.0000 0.0000 -2.2347 0.0000 0.0000
# 5 0.0000 0.0000 0.0000 0.0000 31.0843 0.0000
# 6 0.0000 0.0000 0.0000 0.0000 0.0000 19.7327
#
#
#
# Elastic Compliance Matrix: (Units=1/GPa)
#
#
# Indices 1 2 3 4 5 6 
#
# 1 0.017462 -0.002733 -0.001603 0.000000 0.000000 0.000000
# 2 -0.002733 0.010675 -0.005986 0.000000 0.000000 0.000000
# 3 -0.001603 -0.005986 0.012253 0.000000 0.000000 0.000000
# 4 0.000000 0.000000 0.000000 -0.447482 0.000000 0.000000
# 5 0.000000 0.000000 0.000000 0.000000 0.032171 0.000000
# 6 0.000000 0.000000 0.000000 0.000000 0.000000 0.050677
#
#
# Mechanical properties :
#
#
# Convention : Reuss Voigt Hill
#
# Bulk Modulus (GPa) = 50.64286 63.98079 57.31183
# Shear Modulus (GPa) = -16.83392 23.15982 3.16295
#
# Velocity S-wave (km/s) = -2.73801 3.21152 1.18683
# Velocity P-wave (km/s) = 3.54364 6.49958 5.23459
#
# Compressibility (1/GPa) = 0.01974612
#
# Stress axis : x y z
#
# Youngs Moduli (GPa) = 57.26841 93.67613 81.61562
#
# Poissons Ratio (x) = 0.25602 0.13079
# Poissons Ratio (y) = 0.15652 0.48855
# Poissons Ratio (z) = 0.09178 0.56074
#
# Static dielectric constant tensor:
#      x y z
#    x 1.821430 0.000000 0.000000 
#    y 0.000000 1.838220 0.000000 
#    z 0.000000 0.000000 1.842330 
# 
# From -- ./inp_files/36509.got.cif
#   From: 2010.05.17/outbox.cif.g08.bks.cpg/sg74_19_cif.got.tgz:36509.got - 2010.06.03 17:57:02.
