data_PCOD9538351
_publ_section_title
;
Structure prediction by ZEFSAII (Michael W. Deem and Ramdas Pophale) SiO2 
 PCOD9538351
Probable space group: I M M A
;
_chemical_formula_sum "Si O2"
_cell_formula_units_Z 88
_cell_length_a 20.322471
_cell_length_b 18.017818
_cell_length_c 10.472817
_cell_angle_alpha 90.000000
_cell_angle_beta 90.000000
_cell_angle_gamma 90.000000
_cell_volume 3834.795624
_symmetry_space_group_name_H-M "I M M A"
_symmetry_group_IT_number 74
_symmetry_cell_setting 'orthorhombic'
loop_
_space_group_symop_operation_xyz
x,y,z
-x,1/2-y,z
x,-y,-z
-x,1/2+y,-z
-x,-y,-z
x,1/2+y,-z
-x,y,z
x,1/2-y,z
1/2+x,1/2+y,1/2+z
1/2-x,-y,1/2+z
1/2+x,1/2-y,1/2-z
1/2-x,y,1/2-z
1/2-x,1/2-y,1/2-z
1/2+x,y,1/2-z
1/2-x,1/2+y,1/2+z
1/2+x,-y,1/2+z
loop_
_atom_site_type_symbol
_atom_site_label
_atom_site_fract_x
_atom_site_fract_y
_atom_site_fract_z
Si Si1 0.000000 0.103962 0.178505
Si Si2 0.780641 0.336653 0.059483
Si Si3 0.859522 0.334690 0.516883
Si Si4 0.854786 0.125315 0.799286
Si Si5 0.637785 0.531440 0.645967
Si Si6 0.500000 0.662089 0.391964
Si Si7 0.000000 0.664360 0.550014
O O1 0.935592 0.053381 0.183591
O O2 0.000000 0.159232 0.297440
O O3 0.000000 0.145433 0.042845
O O4 0.783516 0.250000 0.097809
O O5 0.705756 0.364765 0.049175
O O6 0.814102 0.342866 0.918619
O O7 0.820999 0.393167 0.146471
O O8 0.865096 0.250000 0.468893
O O9 0.845103 0.333524 0.667139
O O10 0.931018 0.370451 0.495668
O O11 0.932262 0.130110 0.835684
O O12 0.836892 0.039138 0.776969
O O13 0.637380 0.500000 0.500000
O O14 0.500000 0.750000 0.368315
O O15 0.000000 0.750000 0.502774
#
# Coordination Sequence:
#
# PCOD9538351 Si02
#       7
#     8  16  16  16  16   8   8
#     4  12  21  39  61  83 124 165 212 252 306 368
#     4  10  20  36  62  93 123 159 204 255 312 369
#     4  10  21  41  64  89 126 162 207 260 305 373
#     4  11  21  36  62  96 127 161 201 256 322 368
#     4  10  21  38  60  90 127 162 200 256 315 367
#     4  12  21  31  62  99 125 156 207 266 311 365
#     4  10  24  43  62  87 120 165 208 251 309 369
#
# _framework density 22.947768
#
# number of rings (size 3 to 8) (size 9 to 14) (size 15 to 20)
#    0.000    1.455    3.636    3.818    0.000    2.909 
#    0.000   11.818    0.000    3.273    0.000    0.000 
#    0.000    0.000    0.000    0.000    0.000    0.000 
#
# Total GULP energy -245987.561191 kJ/mol
# GULP energy per Si atom -5590.626391 kJ/mol
# Density = 2.289554 g / cm^3
# Si number density = 22.947768 Si / 1000 Ang^3
#
#
#
# Elastic Constant Matrix: (Units=GPa)
#
#
# Indices 1 2 3 4 5 6 
#
# 1 155.7601 39.5394 11.9360 0.0000 0.0000 0.0000
# 2 39.5394 115.2727 5.5492 0.0000 0.0000 0.0000
# 3 11.9360 5.5492 53.9953 0.0000 0.0000 0.0000
# 4 0.0000 0.0000 0.0000 13.1544 0.0000 0.0000
# 5 0.0000 0.0000 0.0000 0.0000 167.8436 0.0000
# 6 0.0000 0.0000 0.0000 0.0000 0.0000 -42.7340
#
#
#
# Elastic Compliance Matrix: (Units=1/GPa)
#
#
# Indices 1 2 3 4 5 6 
#
# 1 0.007126 -0.002380 -0.001331 0.000000 0.000000 0.000000
# 2 -0.002380 0.009513 -0.000452 0.000000 0.000000 0.000000
# 3 -0.001331 -0.000452 0.018861 0.000000 0.000000 0.000000
# 4 0.000000 0.000000 0.000000 0.076020 0.000000 0.000000
# 5 0.000000 0.000000 0.000000 0.000000 0.005958 0.000000
# 6 0.000000 0.000000 0.000000 0.000000 0.000000 -0.023401
#
#
# Mechanical properties :
#
#
# Convention : Reuss Voigt Hill
#
# Bulk Modulus (GPa) = 36.79821 48.78639 42.79230
# Shear Modulus (GPa) = 44.85856 45.51970 45.18913
#
# Velocity S-wave (km/s) = 4.42612 4.45862 4.44240
# Velocity P-wave (km/s) = 6.49547 6.91459 6.70831
#
# Compressibility (1/GPa) = 0.02717524
#
# Stress axis : x y z
#
# Youngs Moduli (GPa) = 140.32443 105.11616 53.02036
#
# Poissons Ratio (x) = 0.25021 0.07055
# Poissons Ratio (y) = 0.33402 0.02394
# Poissons Ratio (z) = 0.18673 0.04746
#
# Static dielectric constant tensor:
#      x y z
#    x 1.887790 0.000000 0.000000 
#    y 0.000000 1.857210 0.000000 
#    z 0.000000 0.000000 1.837760 
# 
# From -- ./inp_files/23723.got.cif
#   From: 2010.05.17/outbox.cif.g08.bks.cpg/sg74_12_cif.got.tgz:23723.got - 2010.06.03 17:57:02.
