data_PCOD9538382
_publ_section_title
;
Structure prediction by ZEFSAII (Michael W. Deem and Ramdas Pophale) SiO2 
 PCOD9538382
Probable space group: I M M A
;
_chemical_formula_sum "Si O2"
_cell_formula_units_Z 96
_cell_length_a 21.277038
_cell_length_b 22.577395
_cell_length_c 9.818638
_cell_angle_alpha 90.000000
_cell_angle_beta 90.000000
_cell_angle_gamma 90.000000
_cell_volume 4716.678219
_symmetry_space_group_name_H-M "I M M A"
_symmetry_group_IT_number 74
_symmetry_cell_setting 'orthorhombic'
loop_
_space_group_symop_operation_xyz
x,y,z
-x,1/2-y,z
x,-y,-z
-x,1/2+y,-z
-x,-y,-z
x,1/2+y,-z
-x,y,z
x,1/2-y,z
1/2+x,1/2+y,1/2+z
1/2-x,-y,1/2+z
1/2+x,1/2-y,1/2-z
1/2-x,y,1/2-z
1/2-x,1/2-y,1/2-z
1/2+x,y,1/2-z
1/2-x,1/2+y,1/2+z
1/2+x,-y,1/2+z
loop_
_atom_site_type_symbol
_atom_site_label
_atom_site_fract_x
_atom_site_fract_y
_atom_site_fract_z
Si Si1 0.132381 0.987193 0.839616
Si Si2 0.120399 0.882848 0.259753
Si Si3 0.500000 0.037282 0.214116
Si Si4 0.354505 0.818971 0.495180
Si Si5 0.000000 0.907785 0.427116
Si Si6 0.293759 0.679394 0.040610
Si Si7 0.178942 0.367123 0.263856
O O1 0.062299 0.963243 0.805800
O O2 0.176283 0.935395 0.781251
O O3 0.140027 0.048824 0.759320
O O4 0.141167 0.000000 0.000000
O O5 0.105937 0.858253 0.109033
O O6 0.061574 0.878782 0.361070
O O7 0.176075 0.843450 0.320794
O O8 0.500000 0.974123 0.136366
O O9 0.500000 0.084981 0.090858
O O10 0.363887 0.750000 0.468640
O O11 0.280548 0.834193 0.469488
O O12 0.363845 0.833679 0.653996
O O13 0.300573 0.750000 0.025592
O O14 0.332123 0.645523 0.921427
O O15 0.250000 0.343068 0.250000
#
# Coordination Sequence:
#
# PCOD9538382 Si02
#       7
#    16  16   8  16   8  16  16
#     4  11  21  37  57  88 118 149 192 239 289 348
#     4  11  21  36  58  83 117 146 184 240 289 338
#     4   9  19  36  60  79 112 153 195 229 275 340
#     4  10  20  37  58  81 112 152 195 236 279 338
#     4   9  20  36  55  85 113 148 187 230 289 349
#     4  10  21  37  59  84 110 151 200 235 275 341
#     4  10  21  37  56  83 118 153 186 233 291 345
#
# _framework density 20.353306
#
# number of rings (size 3 to 8) (size 9 to 14) (size 15 to 20)
#    0.000    1.833    1.667    2.750    0.000    6.667 
#    0.000    1.667    0.000    0.000    0.000    3.500 
#    0.000    0.000    0.000    0.000    0.000    0.000 
#
# Total GULP energy -267772.553383 kJ/mol
# GULP energy per Si atom -5578.594862 kJ/mol
# Density = 2.030698 g / cm^3
# Si number density = 20.353306 Si / 1000 Ang^3
#
#
#
# Elastic Constant Matrix: (Units=GPa)
#
#
# Indices 1 2 3 4 5 6 
#
# 1 30.8298 5.6744 8.9110 0.0000 0.0000 0.0000
# 2 5.6744 62.1326 18.4255 0.0000 0.0000 0.0000
# 3 8.9110 18.4255 111.5863 0.0000 0.0000 0.0000
# 4 0.0000 0.0000 0.0000 34.9398 0.0000 0.0000
# 5 0.0000 0.0000 0.0000 0.0000 22.3546 0.0000
# 6 0.0000 0.0000 0.0000 0.0000 0.0000 7.6299
#
#
#
# Elastic Compliance Matrix: (Units=1/GPa)
#
#
# Indices 1 2 3 4 5 6 
#
# 1 0.033535 -0.002385 -0.002284 0.000000 0.000000 0.000000
# 2 -0.002385 0.017093 -0.002632 0.000000 0.000000 0.000000
# 3 -0.002284 -0.002632 0.009579 0.000000 0.000000 0.000000
# 4 0.000000 0.000000 0.000000 0.028621 0.000000 0.000000
# 5 0.000000 0.000000 0.000000 0.000000 0.044733 0.000000
# 6 0.000000 0.000000 0.000000 0.000000 0.000000 0.131063
#
#
# Mechanical properties :
#
#
# Convention : Reuss Voigt Hill
#
# Bulk Modulus (GPa) = 21.92785 30.06341 25.99563
# Shear Modulus (GPa) = 16.98204 24.42071 20.70138
#
# Velocity S-wave (km/s) = 2.89167 3.46763 3.19266
# Velocity P-wave (km/s) = 4.68465 5.55297 5.13719
#
# Compressibility (1/GPa) = 0.04560411
#
# Stress axis : x y z
#
# Youngs Moduli (GPa) = 29.81918 58.50361 104.39852
#
# Poissons Ratio (x) = 0.13955 0.23847
# Poissons Ratio (y) = 0.07113 0.27477
# Poissons Ratio (z) = 0.06811 0.15398
#
# Static dielectric constant tensor:
#      x y z
#    x 1.700660 0.000000 0.000000 
#    y 0.000000 1.703080 0.000000 
#    z 0.000000 0.000000 1.775020 
# 
# From -- ./inp_files/13940.got.cif
#   From: 2010.05.17/outbox.cif.g08.bks.cpg/sg74_7_cif.got.tgz:13940.got - 2010.06.03 17:57:02.
