data_PCOD9538059
_publ_section_title
;
Structure prediction by ZEFSAII (Michael W. Deem and Ramdas Pophale) SiO2 
 PCOD9538059
Probable space group: I M M A
;
_chemical_formula_sum "Si O2"
_cell_formula_units_Z 112
_cell_length_a 20.244594
_cell_length_b 17.136017
_cell_length_c 18.356034
_cell_angle_alpha 90.000000
_cell_angle_beta 90.000000
_cell_angle_gamma 90.000000
_cell_volume 6367.923088
_symmetry_space_group_name_H-M "I M M A"
_symmetry_group_IT_number 74
_symmetry_cell_setting 'orthorhombic'
loop_
_space_group_symop_operation_xyz
x,y,z
-x,1/2-y,z
x,-y,-z
-x,1/2+y,-z
-x,-y,-z
x,1/2+y,-z
-x,y,z
x,1/2-y,z
1/2+x,1/2+y,1/2+z
1/2-x,-y,1/2+z
1/2+x,1/2-y,1/2-z
1/2-x,y,1/2-z
1/2-x,1/2-y,1/2-z
1/2+x,y,1/2-z
1/2-x,1/2+y,1/2+z
1/2+x,-y,1/2+z
loop_
_atom_site_type_symbol
_atom_site_label
_atom_site_fract_x
_atom_site_fract_y
_atom_site_fract_z
Si Si1 0.426999 0.970077 0.140696
Si Si2 0.323095 0.988880 0.415076
Si Si3 0.362138 0.837899 0.066069
Si Si4 0.685371 0.916612 0.918898
Si Si5 0.577832 0.960438 0.708284
Si Si6 0.678540 0.339161 0.226246
Si Si7 0.765024 0.339723 0.833560
O O1 0.500000 0.003398 0.127682
O O2 0.420319 0.886640 0.103103
O O3 0.370646 0.022019 0.104073
O O4 0.416342 0.973843 0.227891
O O5 0.305377 0.903230 0.381431
O O6 0.341749 0.000000 0.500000
O O7 0.255845 0.040724 0.410485
O O8 0.382079 0.018449 0.363852
O O9 0.380195 0.750000 0.045027
O O10 0.305242 0.835474 0.126690
O O11 0.330544 0.883848 0.998079
O O12 0.679552 0.847573 0.860508
O O13 0.500000 0.946351 0.696432
O O14 0.617507 0.887386 0.742263
O O15 0.675204 0.250000 0.250429
O O16 0.750000 0.372824 0.250000
O O17 0.792275 0.250000 0.832494
O O18 0.750000 0.364647 0.750000
#
# Coordination Sequence:
#
# PCOD9538059 Si02
#       7
#    16  16  16  16  16  16  16
#     4  10  21  37  56  78 110 152 196 239 290 348
#     4  12  21  36  61  87 115 156 196 248 296 347
#     4  11  21  34  52  80 118 148 187 239 295 352
#     4  11  20  35  54  87 115 152 189 243 290 348
#     4  10  23  40  60  86 117 153 197 248 293 350
#     4  10  20  35  59  87 115 152 194 235 285 347
#     4  10  21  35  55  84 116 151 195 247 300 348
#
# _framework density 17.588152000000001
#
# number of rings (size 3 to 8) (size 9 to 14) (size 15 to 20)
#    0.000    1.429    4.286    1.714    2.000    2.000 
#    0.000    0.714    0.000    3.857    0.000    0.000 
#    0.000    0.000    0.000    0.000    0.000    0.000 
#
# Total GULP energy -312100.415445 kJ/mol
# GULP energy per Si atom -5573.221704 kJ/mol
# Density = 1.754812 g / cm^3
# Si number density = 17.588152 Si / 1000 Ang^3
#
#
#
# Elastic Constant Matrix: (Units=GPa)
#
#
# Indices 1 2 3 4 5 6 
#
# 1 123.4702 36.1541 55.7853 0.0000 0.0000 0.0000
# 2 36.1541 72.4624 44.1892 0.0000 0.0000 0.0000
# 3 55.7853 44.1892 141.8237 0.0000 0.0000 0.0000
# 4 0.0000 0.0000 0.0000 19.1611 0.0000 0.0000
# 5 0.0000 0.0000 0.0000 0.0000 21.2561 0.0000
# 6 0.0000 0.0000 0.0000 0.0000 0.0000 13.9757
#
#
#
# Elastic Compliance Matrix: (Units=1/GPa)
#
#
# Indices 1 2 3 4 5 6 
#
# 1 0.010469 -0.003348 -0.003075 0.000000 0.000000 0.000000
# 2 -0.003348 0.018108 -0.004325 0.000000 0.000000 0.000000
# 3 -0.003075 -0.004325 0.009608 0.000000 0.000000 0.000000
# 4 0.000000 0.000000 0.000000 0.052189 0.000000 0.000000
# 5 0.000000 0.000000 0.000000 0.000000 0.047045 0.000000
# 6 0.000000 0.000000 0.000000 0.000000 0.000000 0.071553
#
#
# Mechanical properties :
#
#
# Convention : Reuss Voigt Hill
#
# Bulk Modulus (GPa) = 59.91928 67.77927 63.84928
# Shear Modulus (GPa) = 21.18365 24.32043 22.75204
#
# Velocity S-wave (km/s) = 3.47425 3.72260 3.60057
# Velocity P-wave (km/s) = 7.08772 7.55629 7.32576
#
# Compressibility (1/GPa) = 0.01668912
#
# Stress axis : x y z
#
# Youngs Moduli (GPa) = 95.52318 55.22290 104.08020
#
# Poissons Ratio (x) = 0.18490 0.32000
# Poissons Ratio (y) = 0.31984 0.45016
# Poissons Ratio (z) = 0.29369 0.23885
#
# Static dielectric constant tensor:
#      x y z
#    x 1.580320 0.000000 0.000000 
#    y 0.000000 1.636800 0.000000 
#    z 0.000000 0.000000 1.619830 
# 
# From -- ./inp_files/45443.got.cif
#   From: 2010.05.17/outbox.cif.g08.bks.cpg/sg74_23_cif.got.tgz:45443.got - 2010.06.03 17:57:02.
