data_PCOD9538339
_publ_section_title
;
Structure prediction by ZEFSAII (Michael W. Deem and Ramdas Pophale) SiO2 
 PCOD9538339
Probable space group: I M M A
;
_chemical_formula_sum "Si O2"
_cell_formula_units_Z 64
_cell_length_a 19.784772
_cell_length_b 17.028125
_cell_length_c 9.907236
_cell_angle_alpha 90.000000
_cell_angle_beta 90.000000
_cell_angle_gamma 90.000000
_cell_volume 3337.723741
_symmetry_space_group_name_H-M "I M M A"
_symmetry_group_IT_number 74
_symmetry_cell_setting 'orthorhombic'
loop_
_space_group_symop_operation_xyz
x,y,z
-x,1/2-y,z
x,-y,-z
-x,1/2+y,-z
-x,-y,-z
x,1/2+y,-z
-x,y,z
x,1/2-y,z
1/2+x,1/2+y,1/2+z
1/2-x,-y,1/2+z
1/2+x,1/2-y,1/2-z
1/2-x,y,1/2-z
1/2-x,1/2-y,1/2-z
1/2+x,y,1/2-z
1/2-x,1/2+y,1/2+z
1/2+x,-y,1/2+z
loop_
_atom_site_type_symbol
_atom_site_label
_atom_site_fract_x
_atom_site_fract_y
_atom_site_fract_z
Si Si1 0.000000 0.534407 0.354380
Si Si2 0.500000 0.425105 0.400510
Si Si3 0.736399 0.571147 0.091543
Si Si4 0.133772 0.838767 0.002850
Si Si5 0.887852 0.164431 0.676688
O O1 0.000000 0.500000 0.500000
O O2 0.936477 0.591643 0.342995
O O3 0.000000 0.465070 0.245498
O O4 0.500000 0.500000 0.500000
O O5 0.567984 0.375461 0.430638
O O6 0.750000 0.547573 0.250000
O O7 0.801946 0.603173 0.010407
O O8 0.683364 0.641881 0.109858
O O9 0.709150 0.500000 0.000000
O O10 0.148159 0.750000 0.952335
O O11 0.118235 0.831063 0.161928
O O12 0.911535 0.250000 0.628278
#
# Coordination Sequence:
#
# PCOD9538339 Si02
#       5
#     8   8  16  16  16
#     4  12  25  39  61  89 124 160 198 249 311 371
#     4  12  21  37  63  91 118 153 202 253 308 361
#     4  10  21  36  61  87 121 159 204 251 300 358
#     4  10  20  36  61  91 119 153 201 256 301 353
#     4  10  20  38  61  87 116 159 206 247 297 360
#
# _framework density 19.174744
#
# number of rings (size 3 to 8) (size 9 to 14) (size 15 to 20)
#    0.000    1.500    2.500    3.000    3.500    5.000 
#    0.000    2.500    0.000    1.500    0.000    0.000 
#    0.000    0.000    0.000    0.000    0.000    0.000 
#
# Total GULP energy -178381.623891 kJ/mol
# GULP energy per Si atom -5574.425747 kJ/mol
# Density = 1.913110 g / cm^3
# Si number density = 19.174744 Si / 1000 Ang^3
#
#
#
# Elastic Constant Matrix: (Units=GPa)
#
#
# Indices 1 2 3 4 5 6 
#
# 1 88.6044 26.5425 24.8761 0.0000 0.0000 0.0000
# 2 26.5425 105.9166 41.8017 0.0000 0.0000 0.0000
# 3 24.8761 41.8017 63.6407 0.0000 0.0000 0.0000
# 4 0.0000 0.0000 0.0000 16.4336 0.0000 0.0000
# 5 0.0000 0.0000 0.0000 0.0000 37.6325 0.0000
# 6 0.0000 0.0000 0.0000 0.0000 0.0000 -201.8680
#
#
#
# Elastic Compliance Matrix: (Units=1/GPa)
#
#
# Indices 1 2 3 4 5 6 
#
# 1 0.012894 -0.001677 -0.003939 0.000000 0.000000 0.000000
# 2 -0.001677 0.012963 -0.007859 0.000000 0.000000 0.000000
# 3 -0.003939 -0.007859 0.022415 0.000000 0.000000 0.000000
# 4 0.000000 0.000000 0.000000 0.060851 0.000000 0.000000
# 5 0.000000 0.000000 0.000000 0.000000 0.026573 0.000000
# 6 0.000000 0.000000 0.000000 0.000000 0.000000 -0.004954
#
#
# Mechanical properties :
#
#
# Convention : Reuss Voigt Hill
#
# Bulk Modulus (GPa) = 46.89797 49.40024 48.14911
# Shear Modulus (GPa) = 30.33970 -18.56427 5.88772
#
# Velocity S-wave (km/s) = 3.98210 -3.11491 1.75420
# Velocity P-wave (km/s) = 6.75678 3.58918 5.41001
#
# Compressibility (1/GPa) = 0.02132288
#
# Stress axis : x y z
#
# Youngs Moduli (GPa) = 77.55397 77.13988 44.61249
#
# Poissons Ratio (x) = 0.12935 0.17572
# Poissons Ratio (y) = 0.13004 0.35063
# Poissons Ratio (z) = 0.30547 0.60628
#
# Static dielectric constant tensor:
#      x y z
#    x 1.740390 0.000000 0.000000 
#    y 0.000000 1.773680 0.000000 
#    z 0.000000 0.000000 1.626840 
# 
# From -- ./inp_files/10281.got.cif
#   From: 2010.05.17/outbox.cif.g08.bks.cpg/sg74_6_cif.got.tgz:10281.got - 2010.06.03 17:57:02.
