data_PCOD9538487
_publ_section_title
;
Structure prediction by ZEFSAII (Michael W. Deem and Ramdas Pophale) SiO2 
 PCOD9538487
Probable space group: I M M A
;
_chemical_formula_sum "Si O2"
_cell_formula_units_Z 56
_cell_length_a 24.859762
_cell_length_b 10.794487
_cell_length_c 10.331281
_cell_angle_alpha 90.000000
_cell_angle_beta 90.000000
_cell_angle_gamma 90.000000
_cell_volume 2772.382496
_symmetry_space_group_name_H-M "I M M A"
_symmetry_group_IT_number 74
_symmetry_cell_setting 'orthorhombic'
loop_
_space_group_symop_operation_xyz
x,y,z
-x,1/2-y,z
x,-y,-z
-x,1/2+y,-z
-x,-y,-z
x,1/2+y,-z
-x,y,z
x,1/2-y,z
1/2+x,1/2+y,1/2+z
1/2-x,-y,1/2+z
1/2+x,1/2-y,1/2-z
1/2-x,y,1/2-z
1/2-x,1/2-y,1/2-z
1/2+x,y,1/2-z
1/2-x,1/2+y,1/2+z
1/2+x,-y,1/2+z
loop_
_atom_site_type_symbol
_atom_site_label
_atom_site_fract_x
_atom_site_fract_y
_atom_site_fract_z
Si Si1 0.338182 0.250000 0.660733
Si Si2 0.500000 0.375211 0.920491
Si Si3 0.776325 0.250000 0.560885
Si Si4 0.332457 0.000000 0.000000
Si Si5 0.500000 0.104531 0.387802
Si Si6 0.906869 0.034223 0.746504
O O1 0.288098 0.250000 0.564595
O O2 0.306854 0.250000 0.799281
O O3 0.373904 0.375051 0.657776
O O4 0.500000 0.250000 0.002813
O O5 0.448885 0.379240 0.828916
O O6 0.500000 0.500000 0.000000
O O7 0.796983 0.376799 0.500185
O O8 0.368203 0.008895 0.130244
O O9 0.500000 0.250000 0.425526
O O10 0.500000 0.000000 0.500000
O O11 0.554823 0.070527 0.308776
#
# Coordination Sequence:
#
# PCOD9538487 Si02
#       6
#     8   8   8   8   8  16
#     4   9  18  39  62  86 120 180 206 240 315 392
#     4  11  20  30  53  97 130 164 196 253 322 399
#     4   9  20  36  62  89 127 158 209 259 316 382
#     4  10  20  37  64 102 128 159 200 280 336 380
#     4  11  28  45  62  91 128 176 219 265 306 408
#     4  10  21  38  66  91 131 164 212 258 332 387
#
# _framework density 20.199231999999999
#
# number of rings (size 3 to 8) (size 9 to 14) (size 15 to 20)
#    0.000    2.000    2.857    0.000    4.000    2.286 
#    2.571    0.000    0.000    3.429    0.000    0.000 
#    0.000    0.000    0.000    0.000    0.000    0.000 
#
# Total GULP energy -156047.280669 kJ/mol
# GULP energy per Si atom -5573.117167 kJ/mol
# Density = 2.015326 g / cm^3
# Si number density = 20.199232 Si / 1000 Ang^3
#
#
#
# Elastic Constant Matrix: (Units=GPa)
#
#
# Indices 1 2 3 4 5 6 
#
# 1 148.5863 75.2005 32.5044 0.0000 0.0000 0.0000
# 2 75.2005 192.0580 45.7608 0.0000 0.0000 0.0000
# 3 32.5044 45.7608 42.5665 0.0000 0.0000 0.0000
# 4 0.0000 0.0000 0.0000 25.8769 0.0000 0.0000
# 5 0.0000 0.0000 0.0000 0.0000 -92.2324 0.0000
# 6 0.0000 0.0000 0.0000 0.0000 0.0000 21.2200
#
#
#
# Elastic Compliance Matrix: (Units=1/GPa)
#
#
# Indices 1 2 3 4 5 6 
#
# 1 0.008895 -0.002507 -0.004098 0.000000 0.000000 0.000000
# 2 -0.002507 0.007706 -0.006370 0.000000 0.000000 0.000000
# 3 -0.004098 -0.006370 0.033470 0.000000 0.000000 0.000000
# 4 0.000000 0.000000 0.000000 0.038645 0.000000 0.000000
# 5 0.000000 0.000000 0.000000 0.000000 -0.010842 0.000000
# 6 0.000000 0.000000 0.000000 0.000000 0.000000 0.047125
#
#
# Mechanical properties :
#
#
# Convention : Reuss Voigt Hill
#
# Bulk Modulus (GPa) = 41.45592 76.68247 59.06920
# Shear Modulus (GPa) = 31.44877 6.28924 18.86901
#
# Velocity S-wave (km/s) = 3.95007 1.76646 3.05969
# Velocity P-wave (km/s) = 6.43212 6.49661 6.46445
#
# Compressibility (1/GPa) = 0.02412200
#
# Stress axis : x y z
#
# Youngs Moduli (GPa) = 112.42168 129.76888 29.87742
#
# Poissons Ratio (x) = 0.32527 0.12243
# Poissons Ratio (y) = 0.28179 0.19033
# Poissons Ratio (z) = 0.46068 0.82666
#
# Static dielectric constant tensor:
#      x y z
#    x 1.753650 0.000000 0.000000 
#    y 0.000000 1.673990 0.000000 
#    z 0.000000 0.000000 1.756260 
# 
# From -- ./inp_files/25902.got.cif
#   From: 2010.05.17/outbox.cif.g08.bks.cpg/sg74_13_cif.got.tgz:25902.got - 2010.06.03 17:57:02.
