data_PCOD9538947
_publ_section_title
;
Structure prediction by ZEFSAII (Michael W. Deem and Ramdas Pophale) SiO2 
 PCOD9538947
Probable space group: I M M A
;
_chemical_formula_sum "Si O2"
_cell_formula_units_Z 72
_cell_length_a 8.658426
_cell_length_b 15.749258
_cell_length_c 27.216933
_cell_angle_alpha 90.000000
_cell_angle_beta 90.000000
_cell_angle_gamma 90.000000
_cell_volume 3711.403999
_symmetry_space_group_name_H-M "I M M A"
_symmetry_group_IT_number 74
_symmetry_cell_setting 'orthorhombic'
loop_
_space_group_symop_operation_xyz
x,y,z
-x,1/2-y,z
x,-y,-z
-x,1/2+y,-z
-x,-y,-z
x,1/2+y,-z
-x,y,z
x,1/2-y,z
1/2+x,1/2+y,1/2+z
1/2-x,-y,1/2+z
1/2+x,1/2-y,1/2-z
1/2-x,y,1/2-z
1/2-x,1/2-y,1/2-z
1/2+x,y,1/2-z
1/2-x,1/2+y,1/2+z
1/2+x,-y,1/2+z
loop_
_atom_site_type_symbol
_atom_site_label
_atom_site_fract_x
_atom_site_fract_y
_atom_site_fract_z
Si Si1 0.184107 0.250000 0.694918
Si Si2 0.814931 0.419501 0.854313
Si Si3 0.313578 0.423546 0.963212
Si Si4 0.186089 0.750000 0.517119
Si Si5 0.813702 0.905271 0.803990
Si Si6 0.686524 0.250000 0.373071
O O1 0.250000 0.250000 0.750000
O O2 0.241806 0.166111 0.666946
O O3 0.000000 0.250000 0.696630
O O4 0.763251 0.433029 0.910315
O O5 0.765764 0.501651 0.822734
O O6 0.000000 0.412753 0.851767
O O7 0.500000 0.423410 0.957081
O O8 0.273440 0.500000 0.000000
O O9 0.266874 0.334492 0.987902
O O10 0.250131 0.750000 0.572051
O O11 0.000000 0.750000 0.519796
O O12 0.750000 0.887730 0.750000
O O13 0.764081 0.833270 0.842662
O O14 0.000000 0.903568 0.802101
O O15 0.500000 0.250000 0.375281
#
# Coordination Sequence:
#
# PCOD9538947 Si02
#       6
#     8  16  16   8  16   8
#     4  12  25  42  63  87 117 153 193 240 295 355
#     4  11  23  39  60  88 118 152 196 242 292 349
#     4  10  21  37  57  83 116 154 196 241 289 342
#     4  10  21  36  55  81 110 144 189 234 281 338
#     4  10  22  38  58  85 116 150 190 234 281 337
#     4  10  21  38  58  84 117 151 189 234 283 335
#
# _framework density 19.399667000000001
#
# number of rings (size 3 to 8) (size 9 to 14) (size 15 to 20)
#    0.000    1.556    0.000    4.667    0.000    6.667 
#    0.000    0.000    0.000    0.000    0.000    0.000 
#    0.000    0.000    0.000    0.000    0.000    0.000 
#
# Total GULP energy -201339.144220 kJ/mol
# GULP energy per Si atom -5592.754006 kJ/mol
# Density = 1.935551 g / cm^3
# Si number density = 19.399667 Si / 1000 Ang^3
#
#
#
# Elastic Constant Matrix: (Units=GPa)
#
#
# Indices 1 2 3 4 5 6 
#
# 1 30.8039 12.8032 10.7441 0.0000 0.0000 0.0000
# 2 12.8032 64.9460 -25.1748 0.0000 0.0000 0.0000
# 3 10.7441 -25.1748 65.1392 0.0000 0.0000 0.0000
# 4 0.0000 0.0000 0.0000 42.5035 0.0000 0.0000
# 5 0.0000 0.0000 0.0000 0.0000 42.9871 0.0000
# 6 0.0000 0.0000 0.0000 0.0000 0.0000 2.4457
#
#
#
# Elastic Compliance Matrix: (Units=1/GPa)
#
#
# Indices 1 2 3 4 5 6 
#
# 1 0.041972 -0.012889 -0.011904 0.000000 0.000000 0.000000
# 2 -0.012889 0.022068 0.010655 0.000000 0.000000 0.000000
# 3 -0.011904 0.010655 0.021433 0.000000 0.000000 0.000000
# 4 0.000000 0.000000 0.000000 0.023527 0.000000 0.000000
# 5 0.000000 0.000000 0.000000 0.000000 0.023263 0.000000
# 6 0.000000 0.000000 0.000000 0.000000 0.000000 0.408881
#
#
# Mechanical properties :
#
#
# Convention : Reuss Voigt Hill
#
# Bulk Modulus (GPa) = 17.48319 17.51487 17.49903
# Shear Modulus (GPa) = 8.49637 28.42171 18.45904
#
# Velocity S-wave (km/s) = 2.09503 3.83176 3.08801
# Velocity P-wave (km/s) = 3.85796 5.35020 4.66414
#
# Compressibility (1/GPa) = 0.05719781
#
# Stress axis : x y z
#
# Youngs Moduli (GPa) = 23.82521 45.31392 46.65696
#
# Poissons Ratio (x) = 0.58403 0.55541
# Poissons Ratio (y) = 0.30707 -0.49712
# Poissons Ratio (z) = 0.28362 -0.48281
#
# Static dielectric constant tensor:
#      x y z
#    x 1.655640 0.000000 0.000000 
#    y 0.000000 1.668500 0.000000 
#    z 0.000000 0.000000 1.620760 
# 
# From -- ./inp_files/63657.got.cif
#   From: 2010.05.17/outbox.cif.g08.bks.cpg/sg74_32_cif.got.tgz:63657.got - 2010.06.03 17:57:02.
