data_PCOD9538121
_publ_section_title
;
Structure prediction by ZEFSAII (Michael W. Deem and Ramdas Pophale) SiO2 
 PCOD9538121
Probable space group: I M M A
;
_chemical_formula_sum "Si O2"
_cell_formula_units_Z 104
_cell_length_a 26.600220
_cell_length_b 7.903157
_cell_length_c 24.270639
_cell_angle_alpha 90.000000
_cell_angle_beta 90.000000
_cell_angle_gamma 90.000000
_cell_volume 5102.312435
_symmetry_space_group_name_H-M "I M M A"
_symmetry_group_IT_number 74
_symmetry_cell_setting 'orthorhombic'
loop_
_space_group_symop_operation_xyz
x,y,z
-x,1/2-y,z
x,-y,-z
-x,1/2+y,-z
-x,-y,-z
x,1/2+y,-z
-x,y,z
x,1/2-y,z
1/2+x,1/2+y,1/2+z
1/2-x,-y,1/2+z
1/2+x,1/2-y,1/2-z
1/2-x,y,1/2-z
1/2-x,1/2-y,1/2-z
1/2+x,y,1/2-z
1/2-x,1/2+y,1/2+z
1/2+x,-y,1/2+z
loop_
_atom_site_type_symbol
_atom_site_label
_atom_site_fract_x
_atom_site_fract_y
_atom_site_fract_z
Si Si1 0.893199 0.051073 0.895016
Si Si2 0.204511 0.941266 0.940373
Si Si3 0.500000 0.049427 0.436407
Si Si4 0.148924 0.544220 0.221017
Si Si5 0.749471 0.555710 0.169676
Si Si6 0.635680 0.956777 0.158398
Si Si7 0.441934 0.454216 0.936660
O O1 0.881395 0.250000 0.899300
O O2 0.880913 0.991383 0.833168
O O3 0.855703 0.954879 0.935898
O O4 0.950284 0.022741 0.909159
O O5 0.220473 0.750000 0.930250
O O6 0.224413 0.051416 0.890031
O O7 0.221669 0.000000 0.000000
O O8 0.500000 0.250000 0.431191
O O9 0.500000 0.000000 0.500000
O O10 0.151025 0.750000 0.220723
O O11 0.206994 0.485712 0.210698
O O12 0.122845 0.496290 0.278335
O O13 0.740994 0.750000 0.186775
O O14 0.694016 0.483326 0.158041
O O15 0.635886 0.750000 0.154239
O O16 0.598092 0.014949 0.109824
O O17 0.500000 0.512848 0.927140
O O18 0.442626 0.250000 0.933518
O O19 0.428358 0.500000 0.000000
#
# Coordination Sequence:
#
# PCOD9538121 Si02
#       7
#    16  16   8  16  16  16  16
#     4  10  20  36  55  78 105 136 176 219 266 313
#     4  11  21  34  51  72 102 139 177 217 265 317
#     4  12  24  38  56  78 106 140 181 224 267 312
#     4   8  15  29  51  78 105 133 168 211 260 310
#     4   9  17  30  50  75 105 137 170 213 261 316
#     4   9  16  29  52  81 104 131 174 217 259 308
#     4   9  18  33  52  74 101 133 169 214 264 315
#
# _framework density 20.382914
#
# number of rings (size 3 to 8) (size 9 to 14) (size 15 to 20)
#    0.000    2.462    0.000    4.385    0.000    2.462 
#    1.385    2.308    0.000   12.923    0.000    0.000 
#    0.000    0.000    0.000    0.000    0.000    0.000 
#
# Total GULP energy -289837.648952 kJ/mol
# GULP energy per Si atom -5573.800941 kJ/mol
# Density = 2.033652 g / cm^3
# Si number density = 20.382914 Si / 1000 Ang^3
#
#
#
# Elastic Constant Matrix: (Units=GPa)
#
#
# Indices 1 2 3 4 5 6 
#
# 1 109.8877 0.4229 72.6200 0.0000 0.0000 0.0000
# 2 0.4229 42.1910 4.5962 0.0000 0.0000 0.0000
# 3 72.6200 4.5962 155.6746 0.0000 0.0000 0.0000
# 4 0.0000 0.0000 0.0000 14.1686 0.0000 0.0000
# 5 0.0000 0.0000 0.0000 0.0000 43.4223 0.0000
# 6 0.0000 0.0000 0.0000 0.0000 0.0000 4.5135
#
#
#
# Elastic Compliance Matrix: (Units=1/GPa)
#
#
# Indices 1 2 3 4 5 6 
#
# 1 0.013168 0.000539 -0.006159 0.000000 0.000000 0.000000
# 2 0.000539 0.023800 -0.000954 0.000000 0.000000 0.000000
# 3 -0.006159 -0.000954 0.009325 0.000000 0.000000 0.000000
# 4 0.000000 0.000000 0.000000 0.070578 0.000000 0.000000
# 5 0.000000 0.000000 0.000000 0.000000 0.023030 0.000000
# 6 0.000000 0.000000 0.000000 0.000000 0.000000 0.221560
#
#
# Mechanical properties :
#
#
# Convention : Reuss Voigt Hill
#
# Bulk Modulus (GPa) = 30.17005 51.44796 40.80900
# Shear Modulus (GPa) = 12.96488 27.76184 20.36336
#
# Velocity S-wave (km/s) = 2.52477 3.69455 3.16419
# Velocity P-wave (km/s) = 4.83043 6.59509 5.78049
#
# Compressibility (1/GPa) = 0.03314546
#
# Stress axis : x y z
#
# Youngs Moduli (GPa) = 75.94110 42.01637 107.24159
#
# Poissons Ratio (x) = -0.02264 0.66046
# Poissons Ratio (y) = -0.04093 0.10232
# Poissons Ratio (z) = 0.46769 0.04009
#
# Static dielectric constant tensor:
#      x y z
#    x 1.746080 0.000000 0.000000 
#    y 0.000000 1.762600 0.000000 
#    z 0.000000 0.000000 1.730140 
# 
# From -- ./inp_files/62348.got.cif
#   From: 2010.05.17/outbox.cif.g08.bks.cpg/sg74_32_cif.got.tgz:62348.got - 2010.06.03 17:57:02.
