data_PCOD9538204
_publ_section_title
;
Structure prediction by ZEFSAII (Michael W. Deem and Ramdas Pophale) SiO2 
 PCOD9538204
Probable space group: I M M A
;
_chemical_formula_sum "Si O2"
_cell_formula_units_Z 96
_cell_length_a 8.667299
_cell_length_b 27.791312
_cell_length_c 20.632139
_cell_angle_alpha 90.000000
_cell_angle_beta 90.000000
_cell_angle_gamma 90.000000
_cell_volume 4969.779082
_symmetry_space_group_name_H-M "I M M A"
_symmetry_group_IT_number 74
_symmetry_cell_setting 'orthorhombic'
loop_
_space_group_symop_operation_xyz
x,y,z
-x,1/2-y,z
x,-y,-z
-x,1/2+y,-z
-x,-y,-z
x,1/2+y,-z
-x,y,z
x,1/2-y,z
1/2+x,1/2+y,1/2+z
1/2-x,-y,1/2+z
1/2+x,1/2-y,1/2-z
1/2-x,y,1/2-z
1/2-x,1/2-y,1/2-z
1/2+x,y,1/2-z
1/2-x,1/2+y,1/2+z
1/2+x,-y,1/2+z
loop_
_atom_site_type_symbol
_atom_site_label
_atom_site_fract_x
_atom_site_fract_y
_atom_site_fract_z
Si Si1 0.684626 0.038934 0.054282
Si Si2 0.685824 0.194108 0.318990
Si Si3 0.815421 0.356930 0.049326
Si Si4 0.815957 0.010500 0.821092
Si Si5 0.814492 0.195267 0.572263
Si Si6 0.314481 0.616306 0.179100
O O1 0.500000 0.037273 0.060034
O O2 0.738099 0.091985 0.034818
O O3 0.759173 0.024864 0.122851
O O4 0.731708 0.000000 0.000000
O O5 0.500000 0.193362 0.316596
O O6 0.734212 0.250000 0.327872
O O7 0.750000 0.177186 0.250000
O O8 0.734976 0.162628 0.380298
O O9 0.000000 0.362228 0.049656
O O10 0.765700 0.319445 0.994463
O O11 0.750000 0.998217 0.750000
O O12 0.753165 0.063913 0.837675
O O13 0.000000 0.011429 0.817956
O O14 0.776154 0.250000 0.590665
O O15 0.770976 0.156641 0.627047
O O16 0.000000 0.192244 0.563890
O O17 0.500000 0.612594 0.181696
O O18 0.250000 0.628776 0.250000
#
# Coordination Sequence:
#
# PCOD9538204 Si02
#       6
#    16  16  16  16  16  16
#     4  11  24  41  60  83 114 151 190 235 287 342
#     4   9  19  36  57  82 112 145 181 222 269 322
#     4  11  23  38  58  85 115 147 187 236 285 336
#     4  11  22  38  61  87 116 150 190 235 284 341
#     4  10  22  39  58  82 114 152 192 234 283 340
#     4  10  20  36  58  84 115 150 189 233 282 338
#
# _framework density 19.316754
#
# number of rings (size 3 to 8) (size 9 to 14) (size 15 to 20)
#    0.000    1.667    0.000    5.500    0.000   10.000 
#    0.000    3.333    0.000    0.000    0.000    0.000 
#    0.000    0.000    0.000    0.000    0.000    0.000 
#
# Total GULP energy -268335.933361 kJ/mol
# GULP energy per Si atom -5590.331945 kJ/mol
# Density = 1.927279 g / cm^3
# Si number density = 19.316754 Si / 1000 Ang^3
#
#
#
# Elastic Constant Matrix: (Units=GPa)
#
#
# Indices 1 2 3 4 5 6 
#
# 1 46.4314 3.7857 5.5343 0.0000 0.0000 0.0000
# 2 3.7857 28.2068 -2.3647 0.0000 0.0000 0.0000
# 3 5.5343 -2.3647 32.8012 0.0000 0.0000 0.0000
# 4 0.0000 0.0000 0.0000 36.1398 0.0000 0.0000
# 5 0.0000 0.0000 0.0000 0.0000 29.5850 0.0000
# 6 0.0000 0.0000 0.0000 0.0000 0.0000 17.9641
#
#
#
# Elastic Compliance Matrix: (Units=1/GPa)
#
#
# Indices 1 2 3 4 5 6 
#
# 1 0.022285 -0.003326 -0.004000 0.000000 0.000000 0.000000
# 2 -0.003326 0.036164 0.003168 0.000000 0.000000 0.000000
# 3 -0.004000 0.003168 0.031390 0.000000 0.000000 0.000000
# 4 0.000000 0.000000 0.000000 0.027670 0.000000 0.000000
# 5 0.000000 0.000000 0.000000 0.000000 0.033801 0.000000
# 6 0.000000 0.000000 0.000000 0.000000 0.000000 0.055667
#
#
# Mechanical properties :
#
#
# Convention : Reuss Voigt Hill
#
# Bulk Modulus (GPa) = 12.26630 13.48333 12.87482
# Shear Modulus (GPa) = 20.62132 23.43671 22.02901
#
# Velocity S-wave (km/s) = 3.27086 3.48700 3.38066
# Velocity P-wave (km/s) = 4.54187 4.81742 4.68167
#
# Compressibility (1/GPa) = 0.08152416
#
# Stress axis : x y z
#
# Youngs Moduli (GPa) = 44.87302 27.65148 31.85729
#
# Poissons Ratio (x) = 0.09197 0.12742
# Poissons Ratio (y) = 0.14926 -0.10093
# Poissons Ratio (z) = 0.17948 -0.08761
#
# Static dielectric constant tensor:
#      x y z
#    x 1.648650 0.000000 0.000000 
#    y 0.000000 1.660550 0.000000 
#    z 0.000000 0.000000 1.655770 
# 
# From -- ./inp_files/49039.got.cif
#   From: 2010.05.17/outbox.cif.g08.bks.cpg/sg74_25_cif.got.tgz:49039.got - 2010.06.03 17:57:02.
