data_PCOD9538141
_publ_section_title
;
Structure prediction by ZEFSAII (Michael W. Deem and Ramdas Pophale) SiO2 
 PCOD9538141
Probable space group: I M M A
;
_chemical_formula_sum "Si O2"
_cell_formula_units_Z 88
_cell_length_a 18.151576
_cell_length_b 9.705502
_cell_length_c 29.212677
_cell_angle_alpha 90.000000
_cell_angle_beta 90.000000
_cell_angle_gamma 90.000000
_cell_volume 5146.401898
_symmetry_space_group_name_H-M "I M M A"
_symmetry_group_IT_number 74
_symmetry_cell_setting 'orthorhombic'
loop_
_space_group_symop_operation_xyz
x,y,z
-x,1/2-y,z
x,-y,-z
-x,1/2+y,-z
-x,-y,-z
x,1/2+y,-z
-x,y,z
x,1/2-y,z
1/2+x,1/2+y,1/2+z
1/2-x,-y,1/2+z
1/2+x,1/2-y,1/2-z
1/2-x,y,1/2-z
1/2-x,1/2-y,1/2-z
1/2+x,y,1/2-z
1/2-x,1/2+y,1/2+z
1/2+x,-y,1/2+z
loop_
_atom_site_type_symbol
_atom_site_label
_atom_site_fract_x
_atom_site_fract_y
_atom_site_fract_z
Si Si1 0.290961 0.915044 0.546857
Si Si2 0.644469 0.413504 0.105385
Si Si3 0.847150 0.587858 0.203018
Si Si4 0.670200 0.588063 0.193824
Si Si5 0.414478 0.086248 0.378626
Si Si6 0.000000 0.912873 0.545790
O O1 0.290706 0.750000 0.537749
O O2 0.217698 0.947791 0.576280
O O3 0.360960 0.947887 0.578989
O O4 0.291932 0.000000 0.500000
O O5 0.647125 0.250000 0.115104
O O6 0.642134 0.497307 0.152262
O O7 0.572753 0.442456 0.075184
O O8 0.864895 0.750000 0.197659
O O9 0.759108 0.573441 0.195591
O O10 0.860390 0.549035 0.256054
O O11 0.889155 0.497494 0.165942
O O12 0.654568 0.750000 0.186725
O O13 0.500000 0.058900 0.388989
O O14 0.405864 0.250000 0.369951
O O15 0.000000 0.750000 0.535022
O O16 0.000000 0.000000 0.500000
#
# Coordination Sequence:
#
# PCOD9538141 Si02
#       6
#    16  16  16  16  16   8
#     4  10  21  36  55  79 105 137 178 222 269 320
#     4  10  20  36  56  80 109 141 179 221 268 324
#     4   9  18  34  55  81 110 140 178 222 266 317
#     4   9  18  33  56  83 109 139 178 222 266 317
#     4  10  21  37  55  78 110 145 183 225 266 315
#     4  10  22  38  56  80 110 142 180 226 273 326
#
# _framework density 17.099325
#
# number of rings (size 3 to 8) (size 9 to 14) (size 15 to 20)
#    0.000    2.364    1.818    1.636    0.000    3.636 
#    1.636    1.818    0.000    0.000    0.000    0.000 
#    0.000    0.000    0.000    0.000    0.000    0.000 
#
# Total GULP energy -245497.748346 kJ/mol
# GULP energy per Si atom -5579.494281 kJ/mol
# Density = 1.706041 g / cm^3
# Si number density = 17.099325 Si / 1000 Ang^3
#
#
#
# Elastic Constant Matrix: (Units=GPa)
#
#
# Indices 1 2 3 4 5 6 
#
# 1 89.7773 41.1353 61.6966 0.0000 0.0000 0.0000
# 2 41.1353 46.3404 80.0741 0.0000 0.0000 0.0000
# 3 61.6966 80.0741 164.3855 0.0000 0.0000 0.0000
# 4 0.0000 0.0000 0.0000 44.0971 0.0000 0.0000
# 5 0.0000 0.0000 0.0000 0.0000 7.9648 0.0000
# 6 0.0000 0.0000 0.0000 0.0000 0.0000 18.2096
#
#
#
# Elastic Compliance Matrix: (Units=1/GPa)
#
#
# Indices 1 2 3 4 5 6 
#
# 1 0.020049 -0.030289 0.007230 0.000000 0.000000 0.000000
# 2 -0.030289 0.182085 -0.077328 0.000000 0.000000 0.000000
# 3 0.007230 -0.077328 0.041037 0.000000 0.000000 0.000000
# 4 0.000000 0.000000 0.000000 0.022677 0.000000 0.000000
# 5 0.000000 0.000000 0.000000 0.000000 0.125552 0.000000
# 6 0.000000 0.000000 0.000000 0.000000 0.000000 0.054916
#
#
# Mechanical properties :
#
#
# Convention : Reuss Voigt Hill
#
# Bulk Modulus (GPa) = 23.58693 74.03503 48.81098
# Shear Modulus (GPa) = 7.56175 21.89410 14.72793
#
# Velocity S-wave (km/s) = 2.10520 3.58216 2.93800
# Velocity P-wave (km/s) = 4.44220 7.77819 6.33377
#
# Compressibility (1/GPa) = 0.04239636
#
# Stress axis : x y z
#
# Youngs Moduli (GPa) = 49.87887 5.49194 24.36813
#
# Poissons Ratio (x) = 0.16634 -0.17617
# Poissons Ratio (y) = 1.51078 1.88434
# Poissons Ratio (z) = -0.36060 0.42468
#
# Static dielectric constant tensor:
#      x y z
#    x 1.577540 0.000000 0.000000 
#    y 0.000000 1.562390 0.000000 
#    z 0.000000 0.000000 1.546080 
# 
# From -- ./inp_files/70200.got.cif
#   From: 2010.05.17/outbox.cif.g08.bks.cpg/sg74_36_cif.got.tgz:70200.got - 2010.06.03 17:57:02.
