data_PCOD9538990
_publ_section_title
;
Structure prediction by ZEFSAII (Michael W. Deem and Ramdas Pophale) SiO2 
 PCOD9538990
Probable space group: I M M A
;
_chemical_formula_sum "Si O2"
_cell_formula_units_Z 72
_cell_length_a 17.558567
_cell_length_b 7.835230
_cell_length_c 25.016401
_cell_angle_alpha 90.000000
_cell_angle_beta 90.000000
_cell_angle_gamma 90.000000
_cell_volume 3441.641647
_symmetry_space_group_name_H-M "I M M A"
_symmetry_group_IT_number 74
_symmetry_cell_setting 'orthorhombic'
loop_
_space_group_symop_operation_xyz
x,y,z
-x,1/2-y,z
x,-y,-z
-x,1/2+y,-z
-x,-y,-z
x,1/2+y,-z
-x,y,z
x,1/2-y,z
1/2+x,1/2+y,1/2+z
1/2-x,-y,1/2+z
1/2+x,1/2-y,1/2-z
1/2-x,y,1/2-z
1/2-x,1/2-y,1/2-z
1/2+x,y,1/2-z
1/2-x,1/2+y,1/2+z
1/2+x,-y,1/2+z
loop_
_atom_site_type_symbol
_atom_site_label
_atom_site_fract_x
_atom_site_fract_y
_atom_site_fract_z
Si Si1 0.000000 0.044636 0.062402
Si Si2 0.414210 0.044288 0.060680
Si Si3 0.125942 0.543076 0.854328
Si Si4 0.201439 0.047290 0.351117
Si Si5 0.917206 0.547578 0.264677
O O1 0.074138 0.984705 0.095923
O O2 0.000000 0.250000 0.065293
O O3 0.000000 0.000000 0.000000
O O4 0.500000 0.979885 0.070938
O O5 0.416334 0.250000 0.065289
O O6 0.353426 0.976417 0.102735
O O7 0.393930 0.000000 0.000000
O O8 0.126815 0.750000 0.855482
O O9 0.212979 0.478627 0.853850
O O10 0.089855 0.490882 0.797943
O O11 0.208385 0.250000 0.359678
O O12 0.155340 0.023341 0.296214
O O13 0.916618 0.750000 0.272517
O O14 0.000000 0.480201 0.284023
#
# Coordination Sequence:
#
# PCOD9538990 Si02
#       5
#     8  16  16  16  16
#     4  10  22  40  62  86 114 152 197 242 289 342
#     4   9  18  33  52  75 106 143 181 223 271 326
#     4  10  21  39  60  82 111 149 191 235 283 341
#     4  10  21  36  57  84 112 147 192 234 281 342
#     4  11  23  37  56  84 117 150 186 231 287 345
#
# _framework density 20.920247
#
# number of rings (size 3 to 8) (size 9 to 14) (size 15 to 20)
#    0.000    2.000    1.111    2.000    0.000    8.444 
#    0.000    2.222    0.000    0.000    0.000    0.000 
#    0.000    0.000    0.000    0.000    0.000    0.000 
#
# Total GULP energy -201052.417027 kJ/mol
# GULP energy per Si atom -5584.789362 kJ/mol
# Density = 2.087263 g / cm^3
# Si number density = 20.920247 Si / 1000 Ang^3
#
#
#
# Elastic Constant Matrix: (Units=GPa)
#
#
# Indices 1 2 3 4 5 6 
#
# 1 166.0008 6.9292 83.2345 0.0000 0.0000 0.0000
# 2 6.9292 22.4733 -14.1321 0.0000 0.0000 0.0000
# 3 83.2345 -14.1321 117.0034 0.0000 0.0000 0.0000
# 4 0.0000 0.0000 0.0000 29.7627 0.0000 0.0000
# 5 0.0000 0.0000 0.0000 0.0000 -111.2070 0.0000
# 6 0.0000 0.0000 0.0000 0.0000 0.0000 0.7967
#
#
#
# Elastic Compliance Matrix: (Units=1/GPa)
#
#
# Indices 1 2 3 4 5 6 
#
# 1 0.010764 -0.008803 -0.008721 0.000000 0.000000 0.000000
# 2 -0.008803 0.055354 0.012948 0.000000 0.000000 0.000000
# 3 -0.008721 0.012948 0.016314 0.000000 0.000000 0.000000
# 4 0.000000 0.000000 0.000000 0.033599 0.000000 0.000000
# 5 0.000000 0.000000 0.000000 0.000000 -0.008992 0.000000
# 6 0.000000 0.000000 0.000000 0.000000 0.000000 1.255138
#
#
# Mechanical properties :
#
#
# Convention : Reuss Voigt Hill
#
# Bulk Modulus (GPa) = 13.64607 50.83786 32.24197
# Shear Modulus (GPa) = 3.58229 -0.83312 1.37458
#
# Velocity S-wave (km/s) = 1.30999 -0.63175 0.81147
# Velocity P-wave (km/s) = 2.97072 4.88072 4.04021
#
# Compressibility (1/GPa) = 0.07328118
#
# Stress axis : x y z
#
# Youngs Moduli (GPa) = 92.90078 18.06567 61.29531
#
# Poissons Ratio (x) = 0.15903 0.53454
# Poissons Ratio (y) = 0.81779 -0.79365
# Poissons Ratio (z) = 0.81016 -0.23392
#
# Static dielectric constant tensor:
#      x y z
#    x 1.787510 0.000000 0.000000 
#    y 0.000000 1.756080 0.000000 
#    z 0.000000 0.000000 1.716040 
# 
# From -- ./inp_files/60588.got.cif
#   From: 2010.05.17/outbox.cif.g08.bks.cpg/sg74_31_cif.got.tgz:60588.got - 2010.06.03 17:57:02.
