data_PCOD9538726
_publ_section_title
;
Structure prediction by ZEFSAII (Michael W. Deem and Ramdas Pophale) SiO2 
 PCOD9538726
Probable space group: I M M A
;
_chemical_formula_sum "Si O2"
_cell_formula_units_Z 92
_cell_length_a 16.619114
_cell_length_b 19.354730
_cell_length_c 15.025469
_cell_angle_alpha 90.000000
_cell_angle_beta 90.000000
_cell_angle_gamma 90.000000
_cell_volume 4833.069284
_symmetry_space_group_name_H-M "I M M A"
_symmetry_group_IT_number 74
_symmetry_cell_setting 'orthorhombic'
loop_
_space_group_symop_operation_xyz
x,y,z
-x,1/2-y,z
x,-y,-z
-x,1/2+y,-z
-x,-y,-z
x,1/2+y,-z
-x,y,z
x,1/2-y,z
1/2+x,1/2+y,1/2+z
1/2-x,-y,1/2+z
1/2+x,1/2-y,1/2-z
1/2-x,y,1/2-z
1/2-x,1/2-y,1/2-z
1/2+x,y,1/2-z
1/2-x,1/2+y,1/2+z
1/2+x,-y,1/2+z
loop_
_atom_site_type_symbol
_atom_site_label
_atom_site_fract_x
_atom_site_fract_y
_atom_site_fract_z
Si Si1 0.716167 0.046393 0.349603
Si Si2 0.844533 0.828797 0.256210
Si Si3 0.369443 0.648417 0.039284
Si Si4 0.000000 0.750000 0.529395
Si Si5 0.158138 0.500000 0.500000
Si Si6 0.688554 0.831275 0.533155
Si Si7 0.907295 0.074958 0.892049
O O1 0.750000 0.039832 0.250000
O O2 0.785588 0.022747 0.417900
O O3 0.693026 0.125063 0.375289
O O4 0.643394 0.994391 0.373241
O O5 0.848760 0.750000 0.222450
O O6 0.750000 0.849818 0.250000
O O7 0.873768 0.830687 0.357505
O O8 0.896429 0.878924 0.196119
O O9 0.429796 0.690963 0.979693
O O10 0.387772 0.567740 0.029926
O O11 0.277549 0.663327 0.010177
O O12 0.666947 0.750000 0.540044
O O13 0.631703 0.877334 0.469215
O O14 0.000000 0.060175 0.910868
#
# Coordination Sequence:
#
# PCOD9538726 Si02
#       7
#    16  16  16   4   8  16  16
#     4  11  22  42  68  93 123 172 220 265 328 391
#     4  11  20  34  58  86 127 167 199 249 318 386
#     4  11  21  37  58  88 122 163 208 256 321 379
#     4  12  24  34  58  88 124 162 208 274 320 382
#     4  10  20  41  67  88 122 166 212 258 315 405
#     4  11  22  42  65  89 124 171 218 267 324 388
#     4  12  24  37  62  99 134 167 216 270 329 395
#
# _framework density 19.035523000000001
#
# number of rings (size 3 to 8) (size 9 to 14) (size 15 to 20)
#    0.000    0.870    6.957    2.087    1.217    3.478 
#    0.000    0.000    7.652    0.000    0.000    0.000 
#    0.000    0.000    0.000    0.000    0.000    0.000 
#
# Total GULP energy -256398.883005 kJ/mol
# GULP energy per Si atom -5573.888761 kJ/mol
# Density = 1.899220 g / cm^3
# Si number density = 19.035523 Si / 1000 Ang^3
#
#
#
# Elastic Constant Matrix: (Units=GPa)
#
#
# Indices 1 2 3 4 5 6 
#
# 1 72.6085 34.2579 11.8787 0.0000 0.0000 0.0000
# 2 34.2579 156.9835 36.2112 0.0000 0.0000 0.0000
# 3 11.8787 36.2112 80.1482 0.0000 0.0000 0.0000
# 4 0.0000 0.0000 0.0000 42.6980 0.0000 0.0000
# 5 0.0000 0.0000 0.0000 0.0000 -5.1861 0.0000
# 6 0.0000 0.0000 0.0000 0.0000 0.0000 7.0435
#
#
#
# Elastic Compliance Matrix: (Units=1/GPa)
#
#
# Indices 1 2 3 4 5 6 
#
# 1 0.015405 -0.003165 -0.000853 0.000000 0.000000 0.000000
# 2 -0.003165 0.007761 -0.003038 0.000000 0.000000 0.000000
# 3 -0.000853 -0.003038 0.013976 0.000000 0.000000 0.000000
# 4 0.000000 0.000000 0.000000 0.023420 0.000000 0.000000
# 5 0.000000 0.000000 0.000000 0.000000 -0.192821 0.000000
# 6 0.000000 0.000000 0.000000 0.000000 0.000000 0.141976
#
#
# Mechanical properties :
#
#
# Convention : Reuss Voigt Hill
#
# Bulk Modulus (GPa) = 43.41996 52.71510 48.06753
# Shear Modulus (GPa) = 158.69932 24.07056 91.38494
#
# Velocity S-wave (km/s) = 9.14063 3.55985 6.93627
# Velocity P-wave (km/s) = 11.58710 6.68205 9.45809
#
# Compressibility (1/GPa) = 0.02303088
#
# Stress axis : x y z
#
# Youngs Moduli (GPa) = 64.91232 128.84168 71.55269
#
# Poissons Ratio (x) = 0.40779 0.06105
# Poissons Ratio (y) = 0.20545 0.21735
# Poissons Ratio (z) = 0.05539 0.39136
#
# Static dielectric constant tensor:
#      x y z
#    x 1.655610 0.000000 0.000000 
#    y 0.000000 1.694750 0.000000 
#    z 0.000000 0.000000 1.661880 
# 
# From -- ./inp_files/32439.got.cif
#   From: 2010.05.17/outbox.cif.g08.bks.cpg/sg74_17_cif.got.tgz:32439.got - 2010.06.03 17:57:02.
