data_PCOD9538866
_publ_section_title
;
Structure prediction by ZEFSAII (Michael W. Deem and Ramdas Pophale) SiO2 
 PCOD9538866
Probable space group: I M M A
;
_chemical_formula_sum "Si O2"
_cell_formula_units_Z 52
_cell_length_a 18.302947
_cell_length_b 15.256906
_cell_length_c 6.983767
_cell_angle_alpha 90.000000
_cell_angle_beta 90.000000
_cell_angle_gamma 90.000000
_cell_volume 1950.191387
_symmetry_space_group_name_H-M "I M M A"
_symmetry_group_IT_number 74
_symmetry_cell_setting 'orthorhombic'
loop_
_space_group_symop_operation_xyz
x,y,z
-x,1/2-y,z
x,-y,-z
-x,1/2+y,-z
-x,-y,-z
x,1/2+y,-z
-x,y,z
x,1/2-y,z
1/2+x,1/2+y,1/2+z
1/2-x,-y,1/2+z
1/2+x,1/2-y,1/2-z
1/2-x,y,1/2-z
1/2-x,1/2-y,1/2-z
1/2+x,y,1/2-z
1/2-x,1/2+y,1/2+z
1/2+x,-y,1/2+z
loop_
_atom_site_type_symbol
_atom_site_label
_atom_site_fract_x
_atom_site_fract_y
_atom_site_fract_z
Si Si1 0.000000 0.750000 0.142268
Si Si2 0.758017 0.350374 0.479109
Si Si3 0.104098 0.599449 0.995177
Si Si4 0.919726 0.396416 0.453345
O O1 0.062812 0.672000 0.116704
O O2 0.741367 0.250000 0.521625
O O3 0.750000 0.362572 0.250000
O O4 0.689324 0.403963 0.555057
O O5 0.841349 0.367951 0.534019
O O6 0.089917 0.624494 0.772565
O O7 0.077081 0.500000 0.000000
O O8 0.923557 0.500000 0.500000
O O9 0.000000 0.357839 0.507341
#
# Coordination Sequence:
#
# PCOD9538866 Si02
#       4
#     4  16  16  16
#     4  12  22  36  60  96 106 148 198 238 274 354
#     4   9  18  33  56  85 112 147 195 236 274 335
#     4  11  22  38  63  85 116 150 189 242 284 335
#     4  10  21  35  56  84 116 151 191 231 286 338
#
# _framework density 26.66405
#
# number of rings (size 3 to 8) (size 9 to 14) (size 15 to 20)
#    0.000    1.846    3.077    1.385    2.154    0.615 
#    0.000    0.000    3.385    3.692    0.000    0.000 
#    0.000    0.000    0.000    0.000    0.000    0.000 
#
# Total GULP energy -144914.107462 kJ/mol
# GULP energy per Si atom -5573.619518 kJ/mol
# Density = 2.660336 g / cm^3
# Si number density = 26.664050 Si / 1000 Ang^3
#
#
#
# Elastic Constant Matrix: (Units=GPa)
#
#
# Indices 1 2 3 4 5 6 
#
# 1 309.7646 80.6540 34.2001 0.0000 0.0000 0.0000
# 2 80.6540 125.9755 -34.5141 0.0000 0.0000 0.0000
# 3 34.2001 -34.5141 136.5045 0.0000 0.0000 0.0000
# 4 0.0000 0.0000 0.0000 -6.3927 0.0000 0.0000
# 5 0.0000 0.0000 0.0000 0.0000 34.3235 0.0000
# 6 0.0000 0.0000 0.0000 0.0000 0.0000 53.9731
#
#
#
# Elastic Compliance Matrix: (Units=1/GPa)
#
#
# Indices 1 2 3 4 5 6 
#
# 1 0.004289 -0.003266 -0.001900 0.000000 0.000000 0.000000
# 2 -0.003266 0.011017 0.003604 0.000000 0.000000 0.000000
# 3 -0.001900 0.003604 0.008713 0.000000 0.000000 0.000000
# 4 0.000000 0.000000 0.000000 -0.156429 0.000000 0.000000
# 5 0.000000 0.000000 0.000000 0.000000 0.029135 0.000000
# 6 0.000000 0.000000 0.000000 0.000000 0.000000 0.018528
#
#
# Mechanical properties :
#
#
# Convention : Reuss Voigt Hill
#
# Bulk Modulus (GPa) = 47.86388 81.43607 64.64997
# Shear Modulus (GPa) = -66.97171 49.17442 -8.89865
#
# Velocity S-wave (km/s) = -5.01711 4.29910 -1.82882
# Velocity P-wave (km/s) = 3.94616 7.43309 4.45414
#
# Compressibility (1/GPa) = 0.02089258
#
# Stress axis : x y z
#
# Youngs Moduli (GPa) = 233.18078 90.77207 114.77016
#
# Poissons Ratio (x) = 0.29649 0.21810
# Poissons Ratio (y) = 0.76164 -0.41361
# Poissons Ratio (z) = 0.44312 -0.32713
#
# Static dielectric constant tensor:
#      x y z
#    x 2.084590 0.000000 0.000000 
#    y 0.000000 2.300400 0.000000 
#    z 0.000000 0.000000 2.249310 
# 
# From -- ./inp_files/8306.got.cif
#   From: 2010.05.17/outbox.cif.g08.bks.cpg/sg74_5_cif.got.tgz:8306.got - 2010.06.03 17:57:02.
