data_PCOD9538867
_publ_section_title
;
Structure prediction by ZEFSAII (Michael W. Deem and Ramdas Pophale) SiO2 
 PCOD9538867
Probable space group: I M M A
;
_chemical_formula_sum "Si O2"
_cell_formula_units_Z 96
_cell_length_a 13.726364
_cell_length_b 17.059194
_cell_length_c 20.348646
_cell_angle_alpha 90.000000
_cell_angle_beta 90.000000
_cell_angle_gamma 90.000000
_cell_volume 4764.853321
_symmetry_space_group_name_H-M "I M M A"
_symmetry_group_IT_number 74
_symmetry_cell_setting 'orthorhombic'
loop_
_space_group_symop_operation_xyz
x,y,z
-x,1/2-y,z
x,-y,-z
-x,1/2+y,-z
-x,-y,-z
x,1/2+y,-z
-x,y,z
x,1/2-y,z
1/2+x,1/2+y,1/2+z
1/2-x,-y,1/2+z
1/2+x,1/2-y,1/2-z
1/2-x,y,1/2-z
1/2-x,1/2-y,1/2-z
1/2+x,y,1/2-z
1/2-x,1/2+y,1/2+z
1/2+x,-y,1/2+z
loop_
_atom_site_type_symbol
_atom_site_label
_atom_site_fract_x
_atom_site_fract_y
_atom_site_fract_z
Si Si1 0.742780 0.339638 0.585922
Si Si2 0.888043 0.121586 0.304722
Si Si3 0.613565 0.089509 0.476376
Si Si4 0.324586 0.339467 0.342641
Si Si5 0.387128 0.439712 0.841618
Si Si6 0.114643 0.339631 0.784297
O O1 0.779624 0.250000 0.586771
O O2 0.682778 0.356690 0.520544
O O3 0.825225 0.403978 0.599276
O O4 0.670125 0.349602 0.647711
O O5 0.793306 0.161464 0.336972
O O6 0.868210 0.131132 0.226735
O O7 0.000000 0.147734 0.318431
O O8 0.879679 0.031668 0.328156
O O9 0.500000 0.109496 0.486148
O O10 0.641241 0.104217 0.400876
O O11 0.627121 0.000000 0.500000
O O12 0.357874 0.250000 0.354132
O O13 0.500000 0.420182 0.852159
O O14 0.355718 0.396130 0.774590
O O15 0.129459 0.250000 0.761680
O O16 0.000000 0.351565 0.796352
#
# Coordination Sequence:
#
# PCOD9538867 Si02
#       6
#    16  16  16  16  16  16
#     4  11  22  36  57  84 119 163 202 243 297 357
#     4  10  22  39  63  93 122 156 199 250 305 357
#     4  11  25  42  63  90 122 160 200 245 300 361
#     4  11  24  41  64  93 123 157 198 249 303 355
#     4  10  21  35  56  85 120 157 198 249 297 347
#     4   9  18  31  50  80 115 153 197 243 295 351
#
# _framework density 20.147525000000002
#
# number of rings (size 3 to 8) (size 9 to 14) (size 15 to 20)
#    0.000    1.667    0.000    4.500    7.000    6.333 
#    0.000    0.833    0.000    5.000    0.000    0.000 
#    0.000    0.000    0.000    0.000    0.000    0.000 
#
# Total GULP energy -268200.468163 kJ/mol
# GULP energy per Si atom -5587.509753 kJ/mol
# Density = 2.010167 g / cm^3
# Si number density = 20.147525 Si / 1000 Ang^3
#
#
#
# Elastic Constant Matrix: (Units=GPa)
#
#
# Indices 1 2 3 4 5 6 
#
# 1 92.1469 29.9083 8.8133 0.0000 0.0000 0.0000
# 2 29.9083 63.5466 24.9522 0.0000 0.0000 0.0000
# 3 8.8133 24.9522 54.0029 0.0000 0.0000 0.0000
# 4 0.0000 0.0000 0.0000 29.0851 0.0000 0.0000
# 5 0.0000 0.0000 0.0000 0.0000 21.0554 0.0000
# 6 0.0000 0.0000 0.0000 0.0000 0.0000 -114.6707
#
#
#
# Elastic Compliance Matrix: (Units=1/GPa)
#
#
# Indices 1 2 3 4 5 6 
#
# 1 0.012841 -0.006378 0.000851 0.000000 0.000000 0.000000
# 2 -0.006378 0.022392 -0.009305 0.000000 0.000000 0.000000
# 3 0.000851 -0.009305 0.022678 0.000000 0.000000 0.000000
# 4 0.000000 0.000000 0.000000 0.034382 0.000000 0.000000
# 5 0.000000 0.000000 0.000000 0.000000 0.047494 0.000000
# 6 0.000000 0.000000 0.000000 0.000000 0.000000 -0.008721
#
#
# Mechanical properties :
#
#
# Convention : Reuss Voigt Hill
#
# Bulk Modulus (GPa) = 35.40185 37.44934 36.42559
# Shear Modulus (GPa) = 29.38652 -3.17119 13.10766
#
# Velocity S-wave (km/s) = 3.82326 -1.25595 2.55342
# Velocity P-wave (km/s) = 6.09091 4.06506 5.17803
#
# Compressibility (1/GPa) = 0.02824711
#
# Stress axis : x y z
#
# Youngs Moduli (GPa) = 77.87623 44.65859 44.09515
#
# Poissons Ratio (x) = 0.28483 -0.03754
# Poissons Ratio (y) = 0.49668 0.41033
# Poissons Ratio (z) = -0.06629 0.41557
#
# Static dielectric constant tensor:
#      x y z
#    x 1.736530 0.000000 0.000000 
#    y 0.000000 1.723070 0.000000 
#    z 0.000000 0.000000 1.691520 
# 
# From -- ./inp_files/51913.got.cif
#   From: 2010.05.17/outbox.cif.g08.bks.cpg/sg74_26_cif.got.tgz:51913.got - 2010.06.03 17:57:02.
