data_PCOD9538508
_publ_section_title
;
Structure prediction by ZEFSAII (Michael W. Deem and Ramdas Pophale) SiO2 
 PCOD9538508
Probable space group: I M M A
;
_chemical_formula_sum "Si O2"
_cell_formula_units_Z 80
_cell_length_a 15.269265
_cell_length_b 11.631954
_cell_length_c 27.129329
_cell_angle_alpha 90.000000
_cell_angle_beta 90.000000
_cell_angle_gamma 90.000000
_cell_volume 4818.477782
_symmetry_space_group_name_H-M "I M M A"
_symmetry_group_IT_number 74
_symmetry_cell_setting 'orthorhombic'
loop_
_space_group_symop_operation_xyz
x,y,z
-x,1/2-y,z
x,-y,-z
-x,1/2+y,-z
-x,-y,-z
x,1/2+y,-z
-x,y,z
x,1/2-y,z
1/2+x,1/2+y,1/2+z
1/2-x,-y,1/2+z
1/2+x,1/2-y,1/2-z
1/2-x,y,1/2-z
1/2-x,1/2-y,1/2-z
1/2+x,y,1/2-z
1/2-x,1/2+y,1/2+z
1/2+x,-y,1/2+z
loop_
_atom_site_type_symbol
_atom_site_label
_atom_site_fract_x
_atom_site_fract_y
_atom_site_fract_z
Si Si1 0.397511 0.250000 0.611561
Si Si2 0.215020 0.112820 0.138524
Si Si3 0.401307 0.495640 0.276035
Si Si4 0.096694 0.388270 0.331737
Si Si5 0.397290 0.492961 0.557973
Si Si6 0.659831 0.250000 0.719713
O O1 0.500000 0.250000 0.628693
O O2 0.385083 0.364354 0.579425
O O3 0.336630 0.250000 0.659878
O O4 0.209578 0.250000 0.145587
O O5 0.317188 0.077499 0.138085
O O6 0.167554 0.050493 0.184341
O O7 0.163975 0.075223 0.089827
O O8 0.500000 0.474358 0.294788
O O9 0.391075 0.432268 0.224031
O O10 0.388477 0.631247 0.267949
O O11 0.095231 0.250000 0.330858
O O12 0.000000 0.427879 0.348757
O O13 0.378728 0.500000 0.500000
O O14 0.500000 0.522898 0.565046
O O15 0.750000 0.250000 0.750000
#
# Coordination Sequence:
#
# PCOD9538508 Si02
#       6
#     8  16  16  16  16   8
#     4  10  20  38  56  74 108 147 180 217 267 318
#     4  11  21  33  53  78 103 132 175 218 260 311
#     4  11  21  33  49  74 107 141 175 211 258 313
#     4   9  19  35  53  74 103 136 172 216 263 307
#     4  10  22  37  55  78 106 139 174 215 263 318
#     4  12  22  32  50  74 106 147 188 212 250 315
#
# _framework density 16.602754000000001
#
# number of rings (size 3 to 8) (size 9 to 14) (size 15 to 20)
#    0.000    1.600    2.000    3.900    1.400    4.000 
#    0.000    0.000    0.000    0.600    0.000    0.000 
#    0.000    0.000    0.000    0.000    0.000    0.000 
#
# Total GULP energy -223207.817921 kJ/mol
# GULP energy per Si atom -5580.195448 kJ/mol
# Density = 1.656497 g / cm^3
# Si number density = 16.602754 Si / 1000 Ang^3
#
#
#
# Elastic Constant Matrix: (Units=GPa)
#
#
# Indices 1 2 3 4 5 6 
#
# 1 128.7999 35.7494 58.4973 0.0000 0.0000 0.0000
# 2 35.7494 35.0551 10.4165 0.0000 0.0000 0.0000
# 3 58.4973 10.4165 72.4667 0.0000 0.0000 0.0000
# 4 0.0000 0.0000 0.0000 12.6932 0.0000 0.0000
# 5 0.0000 0.0000 0.0000 0.0000 24.4318 0.0000
# 6 0.0000 0.0000 0.0000 0.0000 0.0000 23.4018
#
#
#
# Elastic Compliance Matrix: (Units=1/GPa)
#
#
# Indices 1 2 3 4 5 6 
#
# 1 0.016862 -0.013739 -0.011637 0.000000 0.000000 0.000000
# 2 -0.013739 0.040993 0.005198 0.000000 0.000000 0.000000
# 3 -0.011637 0.005198 0.022446 0.000000 0.000000 0.000000
# 4 0.000000 0.000000 0.000000 0.078782 0.000000 0.000000
# 5 0.000000 0.000000 0.000000 0.000000 0.040930 0.000000
# 6 0.000000 0.000000 0.000000 0.000000 0.000000 0.042732
#
#
# Mechanical properties :
#
#
# Convention : Reuss Voigt Hill
#
# Bulk Modulus (GPa) = 25.03408 49.51646 37.27527
# Shear Modulus (GPa) = 16.86816 20.88258 18.87537
#
# Velocity S-wave (km/s) = 3.19091 3.55036 3.37543
# Velocity P-wave (km/s) = 5.35601 6.83343 6.13933
#
# Compressibility (1/GPa) = 0.03994555
#
# Stress axis : x y z
#
# Youngs Moduli (GPa) = 59.30342 24.39462 44.55119
#
# Poissons Ratio (x) = 0.33515 0.51844
# Poissons Ratio (y) = 0.81474 -0.23157
# Poissons Ratio (z) = 0.69012 -0.12680
#
# Static dielectric constant tensor:
#      x y z
#    x 1.592100 0.000000 0.000000 
#    y 0.000000 1.564490 0.000000 
#    z 0.000000 0.000000 1.526370 
# 
# From -- ./inp_files/58529.got.cif
#   From: 2010.05.17/outbox.cif.g08.bks.cpg/sg74_30_cif.got.tgz:58529.got - 2010.06.03 17:57:02.
