data_PCOD9538106
_publ_section_title
;
Structure prediction by ZEFSAII (Michael W. Deem and Ramdas Pophale) SiO2 
 PCOD9538106
Probable space group: I M M A
;
_chemical_formula_sum "Si O2"
_cell_formula_units_Z 80
_cell_length_a 26.479468
_cell_length_b 8.670368
_cell_length_c 20.131834
_cell_angle_alpha 90.000000
_cell_angle_beta 90.000000
_cell_angle_gamma 90.000000
_cell_volume 4622.001977
_symmetry_space_group_name_H-M "I M M A"
_symmetry_group_IT_number 74
_symmetry_cell_setting 'orthorhombic'
loop_
_space_group_symop_operation_xyz
x,y,z
-x,1/2-y,z
x,-y,-z
-x,1/2+y,-z
-x,-y,-z
x,1/2+y,-z
-x,y,z
x,1/2-y,z
1/2+x,1/2+y,1/2+z
1/2-x,-y,1/2+z
1/2+x,1/2-y,1/2-z
1/2-x,y,1/2-z
1/2-x,1/2-y,1/2-z
1/2+x,y,1/2-z
1/2-x,1/2+y,1/2+z
1/2+x,-y,1/2+z
loop_
_atom_site_type_symbol
_atom_site_label
_atom_site_fract_x
_atom_site_fract_y
_atom_site_fract_z
Si Si1 0.311548 0.435385 0.573402
Si Si2 0.695577 0.435654 0.927178
Si Si3 0.390335 0.938133 0.175690
Si Si4 0.500000 0.926906 0.166015
Si Si5 0.000000 0.572672 0.172506
Si Si6 0.392584 0.066280 0.324246
O O1 0.322581 0.500000 0.500000
O O2 0.314818 0.250000 0.572826
O O3 0.253375 0.479890 0.589283
O O4 0.350234 0.502592 0.626466
O O5 0.694033 0.250000 0.930220
O O6 0.655083 0.485249 0.872310
O O7 0.683544 0.500000 0.000000
O O8 0.392068 0.750000 0.179097
O O9 0.445197 0.993788 0.148616
O O10 0.383916 0.999924 0.250180
O O11 0.500000 0.750000 0.142105
O O12 0.500000 0.925795 0.246660
O O13 0.948157 0.490244 0.152956
O O14 0.000000 0.750000 0.150243
O O15 0.391570 0.250000 0.322094
#
# Coordination Sequence:
#
# PCOD9538106 Si02
#       6
#    16  16  16   8   8  16
#     4  10  20  36  54  73  99 135 173 213 260 311
#     4   9  19  34  53  73  99 135 176 217 261 309
#     4   9  17  32  52  75 101 136 176 214 255 304
#     4   7  12  25  48  71  95 127 165 202 243 293
#     4   9  17  33  54  75 102 137 168 202 249 303
#     4  11  21  33  52  80 107 133 167 211 254 300
#
# _framework density 17.308516999999998
#
# number of rings (size 3 to 8) (size 9 to 14) (size 15 to 20)
#    0.000    2.600    0.000    3.900    0.000    2.400 
#    0.000    5.000    0.000    0.000    0.000    0.000 
#    0.000    0.000    0.000    0.000    0.000    0.000 
#
# Total GULP energy -222958.505139 kJ/mol
# GULP energy per Si atom -5573.962628 kJ/mol
# Density = 1.726912 g / cm^3
# Si number density = 17.308517 Si / 1000 Ang^3
#
#
#
# Elastic Constant Matrix: (Units=GPa)
#
#
# Indices 1 2 3 4 5 6 
#
# 1 177.1054 49.8716 109.7683 0.0000 0.0000 0.0000
# 2 49.8716 59.2444 34.7990 0.0000 0.0000 0.0000
# 3 109.7683 34.7990 92.9095 0.0000 0.0000 0.0000
# 4 0.0000 0.0000 0.0000 26.0145 0.0000 0.0000
# 5 0.0000 0.0000 0.0000 0.0000 -25.1491 0.0000
# 6 0.0000 0.0000 0.0000 0.0000 0.0000 17.6172
#
#
#
# Elastic Compliance Matrix: (Units=1/GPa)
#
#
# Indices 1 2 3 4 5 6 
#
# 1 0.021854 -0.004142 -0.024268 0.000000 0.000000 0.000000
# 2 -0.004142 0.022425 -0.003506 0.000000 0.000000 0.000000
# 3 -0.024268 -0.003506 0.040747 0.000000 0.000000 0.000000
# 4 0.000000 0.000000 0.000000 0.038440 0.000000 0.000000
# 5 0.000000 0.000000 0.000000 0.000000 -0.039763 0.000000
# 6 0.000000 0.000000 0.000000 0.000000 0.000000 0.056763
#
#
# Mechanical properties :
#
#
# Convention : Reuss Voigt Hill
#
# Bulk Modulus (GPa) = 47.18025 79.79301 63.48663
# Shear Modulus (GPa) = 23.65613 12.68453 18.17033
#
# Velocity S-wave (km/s) = 3.70095 2.71006 3.24356
# Velocity P-wave (km/s) = 6.75131 7.48285 7.12648
#
# Compressibility (1/GPa) = 0.02119531
#
# Stress axis : x y z
#
# Youngs Moduli (GPa) = 45.75921 44.59288 24.54146
#
# Poissons Ratio (x) = 0.18470 0.59556
# Poissons Ratio (y) = 0.18953 0.08604
# Poissons Ratio (z) = 1.11047 0.15634
#
# Static dielectric constant tensor:
#      x y z
#    x 1.615040 0.000000 0.000000 
#    y 0.000000 1.584140 0.000000 
#    z 0.000000 0.000000 1.545550 
# 
# From -- ./inp_files/46521.got.cif
#   From: 2010.05.17/outbox.cif.g08.bks.cpg/sg74_24_cif.got.tgz:46521.got - 2010.06.03 17:57:02.
