data_PCOD9538572
_publ_section_title
;
Structure prediction by ZEFSAII (Michael W. Deem and Ramdas Pophale) SiO2 
 PCOD9538572
Probable space group: I M M A
;
_chemical_formula_sum "Si O2"
_cell_formula_units_Z 112
_cell_length_a 17.552557
_cell_length_b 29.087959
_cell_length_c 11.521515
_cell_angle_alpha 90.000000
_cell_angle_beta 90.000000
_cell_angle_gamma 90.000000
_cell_volume 5882.517543
_symmetry_space_group_name_H-M "I M M A"
_symmetry_group_IT_number 74
_symmetry_cell_setting 'orthorhombic'
loop_
_space_group_symop_operation_xyz
x,y,z
-x,1/2-y,z
x,-y,-z
-x,1/2+y,-z
-x,-y,-z
x,1/2+y,-z
-x,y,z
x,1/2-y,z
1/2+x,1/2+y,1/2+z
1/2-x,-y,1/2+z
1/2+x,1/2-y,1/2-z
1/2-x,y,1/2-z
1/2-x,1/2-y,1/2-z
1/2+x,y,1/2-z
1/2-x,1/2+y,1/2+z
1/2+x,-y,1/2+z
loop_
_atom_site_type_symbol
_atom_site_label
_atom_site_fract_x
_atom_site_fract_y
_atom_site_fract_z
Si Si1 0.339783 0.302488 0.780322
Si Si2 0.320194 0.562668 0.904475
Si Si3 0.089574 0.355075 0.296176
Si Si4 0.803056 0.302252 0.457237
Si Si5 0.826680 0.539978 0.324273
Si Si6 0.822659 0.619630 0.929642
Si Si7 0.589052 0.891675 0.336312
O O1 0.361816 0.250000 0.748222
O O2 0.250000 0.307583 0.750000
O O3 0.385431 0.342818 0.718248
O O4 0.345214 0.307485 0.919261
O O5 0.381884 0.600079 0.866365
O O6 0.336942 0.514476 0.842646
O O7 0.234931 0.581266 0.879225
O O8 0.321188 0.558279 0.044223
O O9 0.139652 0.314731 0.353619
O O10 0.116662 0.364480 0.165361
O O11 0.000000 0.347602 0.305252
O O12 0.775889 0.250000 0.449024
O O13 0.733188 0.337583 0.455548
O O14 0.750000 0.547949 0.250000
O O15 0.890059 0.567974 0.253955
O O16 0.863098 0.602587 0.045726
O O17 0.500000 0.891503 0.361232
#
# Coordination Sequence:
#
# PCOD9538572 Si02
#       7
#    16  16  16  16  16  16  16
#     4  10  20  38  63  90 122 161 205 253 301 361
#     4  10  22  39  67  87 112 161 210 254 296 359
#     4  11  24  40  57  84 125 162 197 250 314 370
#     4  10  21  38  66  91 114 158 214 261 298 354
#     4  11  21  39  64  92 119 152 205 256 298 355
#     4  11  21  41  62  86 121 163 210 251 302 368
#     4  12  24  37  60  96 132 162 196 251 318 372
#
# _framework density 19.039467999999999
#
# number of rings (size 3 to 8) (size 9 to 14) (size 15 to 20)
#    0.000    1.286    2.857    5.143    0.000    4.571 
#    0.000    2.857    0.000    5.143    0.000    0.000 
#    0.000    0.000    0.000    0.000    0.000    0.000 
#
# Total GULP energy -312882.381839 kJ/mol
# GULP energy per Si atom -5587.185390 kJ/mol
# Density = 1.899613 g / cm^3
# Si number density = 19.039468 Si / 1000 Ang^3
#
#
#
# Elastic Constant Matrix: (Units=GPa)
#
#
# Indices 1 2 3 4 5 6 
#
# 1 92.1668 33.3764 21.4689 -0.0001 0.0000 0.0000
# 2 33.3764 87.4149 32.1186 -0.0005 0.0000 -0.0001
# 3 21.4689 32.1186 98.4322 -0.0011 0.0002 -0.0001
# 4 -0.0001 -0.0005 -0.0011 20.0596 0.0001 -0.0001
# 5 0.0000 0.0000 0.0002 0.0001 20.4991 0.0000
# 6 0.0000 -0.0001 -0.0001 -0.0001 0.0000 10.4366
#
#
#
# Elastic Compliance Matrix: (Units=1/GPa)
#
#
# Indices 1 2 3 4 5 6 
#
# 1 0.012748 -0.004370 -0.001355 0.000000 0.000000 0.000000
# 2 -0.004370 0.014496 -0.003777 0.000000 0.000000 0.000000
# 3 -0.001355 -0.003777 0.011687 0.000001 0.000000 0.000000
# 4 0.000000 0.000000 0.000001 0.049851 0.000000 0.000000
# 5 0.000000 0.000000 0.000000 0.000000 0.048783 0.000000
# 6 0.000000 0.000000 0.000000 0.000000 0.000000 0.095816
#
#
# Mechanical properties :
#
#
# Convention : Reuss Voigt Hill
#
# Bulk Modulus (GPa) = 50.17947 50.21573 50.19760
# Shear Modulus (GPa) = 19.30305 22.93573 21.11939
#
# Velocity S-wave (km/s) = 3.18755 3.47456 3.33414
# Velocity P-wave (km/s) = 6.32139 6.52139 6.42217
#
# Compressibility (1/GPa) = 0.01992847
#
# Stress axis : x y z
#
# Youngs Moduli (GPa) = 78.44497 68.98526 85.56399
#
# Poissons Ratio (x) = 0.30144 0.11590
# Poissons Ratio (y) = 0.34277 0.32317
# Poissons Ratio (z) = 0.10626 0.26056
#
# Static dielectric constant tensor:
#      x y z
#    x 1.618080 0.000000 0.000000 
#    y 0.000000 1.668530 0.000000 
#    z 0.000000 0.000000 1.673880 
# 
# From -- ./inp_files/21114.got.cif
#   From: 2010.05.17/outbox.cif.g08.bks.cpg/sg74_11_cif.got.tgz:21114.got - 2010.06.03 17:57:02.
