data_PCOD9538489
_publ_section_title
;
Structure prediction by ZEFSAII (Michael W. Deem and Ramdas Pophale) SiO2 
 PCOD9538489
Probable space group: I M M A
;
_chemical_formula_sum "Si O2"
_cell_formula_units_Z 56
_cell_length_a 10.294643
_cell_length_b 10.052590
_cell_length_c 24.973587
_cell_angle_alpha 90.000000
_cell_angle_beta 90.000000
_cell_angle_gamma 90.000000
_cell_volume 2584.462208
_symmetry_space_group_name_H-M "I M M A"
_symmetry_group_IT_number 74
_symmetry_cell_setting 'orthorhombic'
loop_
_space_group_symop_operation_xyz
x,y,z
-x,1/2-y,z
x,-y,-z
-x,1/2+y,-z
-x,-y,-z
x,1/2+y,-z
-x,y,z
x,1/2-y,z
1/2+x,1/2+y,1/2+z
1/2-x,-y,1/2+z
1/2+x,1/2-y,1/2-z
1/2-x,y,1/2-z
1/2-x,1/2-y,1/2-z
1/2+x,y,1/2-z
1/2-x,1/2+y,1/2+z
1/2+x,-y,1/2+z
loop_
_atom_site_type_symbol
_atom_site_label
_atom_site_fract_x
_atom_site_fract_y
_atom_site_fract_z
Si Si1 0.855773 0.048374 0.209190
Si Si2 0.856364 0.750000 0.183953
Si Si3 0.852534 0.047630 0.081382
Si Si4 0.649894 0.750000 0.967612
Si Si5 0.730683 0.750000 0.424546
O O1 0.750000 0.101414 0.250000
O O2 0.855322 0.887488 0.214716
O O3 0.000000 0.095837 0.222173
O O4 0.835047 0.069424 0.145580
O O5 0.744415 0.750000 0.139238
O O6 0.000000 0.750000 0.155893
O O7 0.736503 0.126004 0.052917
O O8 0.000000 0.091166 0.067750
O O9 0.841899 0.890877 0.068231
O O10 0.500000 0.750000 0.949687
O O11 0.656307 0.750000 0.032056
#
# Coordination Sequence:
#
# PCOD9538489 Si02
#       5
#    16   8  16   8   8
#     4   9  17  31  53  82 114 148 187 233 285 341
#     4   8  15  29  50  82 118 146 182 230 280 344
#     4  10  22  40  63  90 118 153 201 246 286 347
#     4  12  27  42  57  84 123 161 197 243 299 353
#     4  10  20  37  64  90 117 149 191 245 296 343
#
# _framework density 21.667952
#
# number of rings (size 3 to 8) (size 9 to 14) (size 15 to 20)
#    0.000    2.286    0.000    4.714    0.000    8.000 
#    0.000    5.000    0.000    0.000    0.000    0.000 
#    0.000    0.000    0.000    0.000    0.000    0.000 
#
# Total GULP energy -156089.153651 kJ/mol
# GULP energy per Si atom -5574.612630 kJ/mol
# Density = 2.161863 g / cm^3
# Si number density = 21.667952 Si / 1000 Ang^3
#
#
#
# Elastic Constant Matrix: (Units=GPa)
#
#
# Indices 1 2 3 4 5 6 
#
# 1 174.6400 50.8829 87.2420 0.0000 0.0000 0.0000
# 2 50.8829 141.3741 14.3398 0.0000 0.0000 0.0000
# 3 87.2420 14.3398 86.5952 0.0000 0.0000 0.0000
# 4 0.0000 0.0000 0.0000 -20.3152 0.0000 0.0000
# 5 0.0000 0.0000 0.0000 0.0000 38.4689 0.0000
# 6 0.0000 0.0000 0.0000 0.0000 0.0000 -139.7165
#
#
#
# Elastic Compliance Matrix: (Units=1/GPa)
#
#
# Indices 1 2 3 4 5 6 
#
# 1 0.012954 -0.003396 -0.012489 0.000000 0.000000 0.000000
# 2 -0.003396 0.008084 0.002082 0.000000 0.000000 0.000000
# 3 -0.012489 0.002082 0.023785 0.000000 0.000000 0.000000
# 4 0.000000 0.000000 0.000000 -0.049224 0.000000 0.000000
# 5 0.000000 0.000000 0.000000 0.000000 0.025995 0.000000
# 6 0.000000 0.000000 0.000000 0.000000 0.000000 -0.007157
#
#
# Mechanical properties :
#
#
# Convention : Reuss Voigt Hill
#
# Bulk Modulus (GPa) = 58.07329 78.61542 68.34436
# Shear Modulus (GPa) = 104.64419 -7.63626 48.50397
#
# Velocity S-wave (km/s) = 6.95696 -1.87933 4.73642
# Velocity P-wave (km/s) = 9.55992 5.62597 7.84358
#
# Compressibility (1/GPa) = 0.01721962
#
# Stress axis : x y z
#
# Youngs Moduli (GPa) = 77.19533 123.69536 42.04320
#
# Poissons Ratio (x) = 0.42003 0.52506
# Poissons Ratio (y) = 0.26213 -0.08755
# Poissons Ratio (z) = 0.96406 -0.25757
#
# Static dielectric constant tensor:
#      x y z
#    x 1.768960 0.000000 0.000000 
#    y 0.000000 1.842390 0.000000 
#    z 0.000000 0.000000 1.824810 
# 
# From -- ./inp_files/69671.got.cif
#   From: 2010.05.17/outbox.cif.g08.bks.cpg/sg74_35_cif.got.tgz:69671.got - 2010.06.03 17:57:02.
