data_PCOD9538169
_publ_section_title
;
Structure prediction by ZEFSAII (Michael W. Deem and Ramdas Pophale) SiO2 
 PCOD9538169
Probable space group: I M M A
;
_chemical_formula_sum "Si O2"
_cell_formula_units_Z 88
_cell_length_a 7.724497
_cell_length_b 25.897130
_cell_length_c 20.573846
_cell_angle_alpha 90.000000
_cell_angle_beta 90.000000
_cell_angle_gamma 90.000000
_cell_volume 4115.639535
_symmetry_space_group_name_H-M "I M M A"
_symmetry_group_IT_number 74
_symmetry_cell_setting 'orthorhombic'
loop_
_space_group_symop_operation_xyz
x,y,z
-x,1/2-y,z
x,-y,-z
-x,1/2+y,-z
-x,-y,-z
x,1/2+y,-z
-x,y,z
x,1/2-y,z
1/2+x,1/2+y,1/2+z
1/2-x,-y,1/2+z
1/2+x,1/2-y,1/2-z
1/2-x,y,1/2-z
1/2-x,1/2-y,1/2-z
1/2+x,y,1/2-z
1/2-x,1/2+y,1/2+z
1/2+x,-y,1/2+z
loop_
_atom_site_type_symbol
_atom_site_label
_atom_site_fract_x
_atom_site_fract_y
_atom_site_fract_z
Si Si1 0.792578 0.618538 0.819890
Si Si2 0.208674 0.750000 0.172786
Si Si3 0.303682 0.453492 0.954196
Si Si4 0.207295 0.000618 0.179485
Si Si5 0.294188 0.165707 0.568773
Si Si6 0.788371 0.194279 0.071761
O O1 0.750000 0.642381 0.750000
O O2 0.729450 0.559812 0.819775
O O3 0.724771 0.649645 0.881147
O O4 0.000000 0.616255 0.824988
O O5 0.250000 0.750000 0.250000
O O6 0.269791 0.801378 0.131724
O O7 0.000000 0.750000 0.170810
O O8 0.500000 0.446663 0.977971
O O9 0.295569 0.474438 0.881207
O O10 0.229647 0.395697 0.944602
O O11 0.225912 0.500000 0.000000
O O12 0.250000 0.977644 0.250000
O O13 0.000000 0.998998 0.170108
O O14 0.500000 0.173423 0.570931
O O15 0.226293 0.190069 0.501886
O O16 0.743306 0.250000 0.099370
O O17 0.000000 0.191017 0.069672
#
# Coordination Sequence:
#
# PCOD9538169 Si02
#       6
#    16   8  16  16  16  16
#     4   9  18  31  50  77 108 143 181 223 271 322
#     4  10  22  40  64  92 119 152 196 250 307 368
#     4  11  24  39  57  86 122 157 196 247 303 358
#     4  10  20  36  57  81 110 148 191 235 286 345
#     4  10  20  38  62  86 112 148 197 246 295 354
#     4   9  16  30  54  79 104 138 183 230 270 318
#
# _framework density 21.381853
#
# number of rings (size 3 to 8) (size 9 to 14) (size 15 to 20)
#    0.000    2.182    0.909    2.182    0.000    5.455 
#    0.000    2.727    0.000    1.091    0.000    0.000 
#    0.000    0.000    0.000    0.000    0.000    0.000 
#
# Total GULP energy -245146.341874 kJ/mol
# GULP energy per Si atom -5571.507770 kJ/mol
# Density = 2.133319 g / cm^3
# Si number density = 21.381853 Si / 1000 Ang^3
#
#
#
# Elastic Constant Matrix: (Units=GPa)
#
#
# Indices 1 2 3 4 5 6 
#
# 1 38.5987 -0.3524 -1.9640 0.0000 0.0000 0.0000
# 2 -0.3524 102.6104 56.2454 0.0000 0.0000 0.0000
# 3 -1.9640 56.2454 119.0156 0.0000 0.0000 0.0000
# 4 0.0000 0.0000 0.0000 40.0292 0.0000 0.0000
# 5 0.0000 0.0000 0.0000 0.0000 20.1334 0.0000
# 6 0.0000 0.0000 0.0000 0.0000 0.0000 -21.3924
#
#
#
# Elastic Compliance Matrix: (Units=1/GPa)
#
#
# Indices 1 2 3 4 5 6 
#
# 1 0.025932 -0.000196 0.000521 0.000000 0.000000 0.000000
# 2 -0.000196 0.013154 -0.006220 0.000000 0.000000 0.000000
# 3 0.000521 -0.006220 0.011350 0.000000 0.000000 0.000000
# 4 0.000000 0.000000 0.000000 0.024982 0.000000 0.000000
# 5 0.000000 0.000000 0.000000 0.000000 0.049669 0.000000
# 6 0.000000 0.000000 0.000000 0.000000 0.000000 -0.046746
#
#
# Mechanical properties :
#
#
# Convention : Reuss Voigt Hill
#
# Bulk Modulus (GPa) = 25.87592 40.89807 33.38699
# Shear Modulus (GPa) = 48.53674 21.50708 35.02191
#
# Velocity S-wave (km/s) = 4.76962 3.17497 4.05152
# Velocity P-wave (km/s) = 6.51617 5.71048 6.12658
#
# Compressibility (1/GPa) = 0.03864598
#
# Stress axis : x y z
#
# Youngs Moduli (GPa) = 38.56192 76.02093 88.10373
#
# Poissons Ratio (x) = 0.01493 -0.04588
# Poissons Ratio (y) = 0.00757 0.54799
# Poissons Ratio (z) = -0.02008 0.47283
#
# Static dielectric constant tensor:
#      x y z
#    x 1.813750 0.000000 0.000000 
#    y 0.000000 1.827010 0.000000 
#    z 0.000000 0.000000 1.778970 
# 
# From -- ./inp_files/47001.got.cif
#   From: 2010.05.17/outbox.cif.g08.bks.cpg/sg74_24_cif.got.tgz:47001.got - 2010.06.03 17:57:02.
