data_PCOD9538244
_publ_section_title
;
Structure prediction by ZEFSAII (Michael W. Deem and Ramdas Pophale) SiO2 
 PCOD9538244
Probable space group: I M M A
;
_chemical_formula_sum "Si O2"
_cell_formula_units_Z 88
_cell_length_a 12.352925
_cell_length_b 22.810534
_cell_length_c 17.486649
_cell_angle_alpha 90.000000
_cell_angle_beta 90.000000
_cell_angle_gamma 90.000000
_cell_volume 4927.332273
_symmetry_space_group_name_H-M "I M M A"
_symmetry_group_IT_number 74
_symmetry_cell_setting 'orthorhombic'
loop_
_space_group_symop_operation_xyz
x,y,z
-x,1/2-y,z
x,-y,-z
-x,1/2+y,-z
-x,-y,-z
x,1/2+y,-z
-x,y,z
x,1/2-y,z
1/2+x,1/2+y,1/2+z
1/2-x,-y,1/2+z
1/2+x,1/2-y,1/2-z
1/2-x,y,1/2-z
1/2-x,1/2-y,1/2-z
1/2+x,y,1/2-z
1/2-x,1/2+y,1/2+z
1/2+x,-y,1/2+z
loop_
_atom_site_type_symbol
_atom_site_label
_atom_site_fract_x
_atom_site_fract_y
_atom_site_fract_z
Si Si1 0.500000 0.438480 0.408012
Si Si2 0.227801 0.449078 0.160080
Si Si3 0.127236 0.250000 0.287494
Si Si4 0.228286 0.087053 0.840587
Si Si5 0.500000 0.080321 0.582932
Si Si6 0.370134 0.684495 0.078237
Si Si7 0.376555 0.146285 0.090583
O O1 0.392113 0.426889 0.360440
O O2 0.500000 0.407717 0.491421
O O3 0.500000 0.509286 0.416306
O O4 0.250000 0.441903 0.250000
O O5 0.242872 0.517879 0.140935
O O6 0.305976 0.409534 0.110167
O O7 0.250000 0.250000 0.250000
O O8 0.128632 0.192714 0.340964
O O9 0.000000 0.250000 0.252053
O O10 0.250000 0.092356 0.750000
O O11 0.310303 0.131617 0.880206
O O12 0.107420 0.100700 0.872122
O O13 0.500000 0.680174 0.087866
O O14 0.337188 0.750000 0.103913
O O15 0.345132 0.677468 0.988305
O O16 0.500000 0.127078 0.081491
#
# Coordination Sequence:
#
# PCOD9538244 Si02
#       7
#     8  16   8  16   8  16  16
#     4   9  18  34  56  77 117 165 183 220 296 360
#     4  10  21  35  55  88 120 151 193 238 290 354
#     4  10  20  38  60  84 117 160 202 242 297 356
#     4  10  22  37  60  86 116 149 189 246 298 352
#     4   9  18  36  57  82 114 152 191 227 293 368
#     4  10  21  39  61  83 111 153 198 241 292 353
#     4  10  20  36  59  83 116 155 192 239 294 348
#
# _framework density 17.859563000000001
#
# number of rings (size 3 to 8) (size 9 to 14) (size 15 to 20)
#    0.000    2.182    0.909    1.636    2.545    3.273 
#    1.636    2.273    0.000    0.000    0.000    0.000 
#    0.000    0.000    0.000    0.000    0.000    0.000 
#
# Total GULP energy -245080.739849 kJ/mol
# GULP energy per Si atom -5570.016815 kJ/mol
# Density = 1.781891 g / cm^3
# Si number density = 17.859563 Si / 1000 Ang^3
#
#
#
# Elastic Constant Matrix: (Units=GPa)
#
#
# Indices 1 2 3 4 5 6 
#
# 1 94.9726 61.0998 62.9386 0.0000 0.0000 0.0000
# 2 61.0998 78.2356 35.5553 0.0000 0.0000 0.0000
# 3 62.9386 35.5553 72.5073 -0.0001 0.0000 0.0000
# 4 0.0000 0.0000 -0.0001 23.4410 0.0000 0.0000
# 5 0.0000 0.0000 0.0000 0.0000 32.6446 0.0000
# 6 0.0000 0.0000 0.0000 0.0000 0.0000 34.0719
#
#
#
# Elastic Compliance Matrix: (Units=1/GPa)
#
#
# Indices 1 2 3 4 5 6 
#
# 1 0.039521 -0.019654 -0.024668 0.000000 0.000000 0.000000
# 2 -0.019654 0.026222 0.004202 0.000000 0.000000 0.000000
# 3 -0.024668 0.004202 0.033143 0.000000 0.000000 0.000000
# 4 0.000000 0.000000 0.000000 0.042660 0.000000 0.000000
# 5 0.000000 0.000000 0.000000 0.000000 0.030633 0.000000
# 6 0.000000 0.000000 0.000000 0.000000 0.000000 0.029350
#
#
# Mechanical properties :
#
#
# Convention : Reuss Voigt Hill
#
# Bulk Modulus (GPa) = 53.62888 62.76700 58.19794
# Shear Modulus (GPa) = 17.36207 23.77296 20.56752
#
# Velocity S-wave (km/s) = 3.12131 3.65239 3.39724
# Velocity P-wave (km/s) = 6.56379 7.28064 6.93149
#
# Compressibility (1/GPa) = 0.01864667
#
# Stress axis : x y z
#
# Youngs Moduli (GPa) = 25.30289 38.13653 30.17194
#
# Poissons Ratio (x) = 0.74955 0.74427
# Poissons Ratio (y) = 0.49731 -0.12679
# Poissons Ratio (z) = 0.62417 -0.16026
#
# Static dielectric constant tensor:
#      x y z
#    x 1.643060 0.000000 0.000000 
#    y 0.000000 1.584900 0.000000 
#    z 0.000000 0.000000 1.611570 
# 
# From -- ./inp_files/30830.got.cif
#   From: 2010.05.17/outbox.cif.g08.bks.cpg/sg74_16_cif.got.tgz:30830.got - 2010.06.03 17:57:02.
