data_PCOD9538803
_publ_section_title
;
Structure prediction by ZEFSAII (Michael W. Deem and Ramdas Pophale) SiO2 
 PCOD9538803
Probable space group: I M M A
;
_chemical_formula_sum "Si O2"
_cell_formula_units_Z 128
_cell_length_a 14.615778
_cell_length_b 19.072034
_cell_length_c 22.178286
_cell_angle_alpha 90.000000
_cell_angle_beta 90.000000
_cell_angle_gamma 90.000000
_cell_volume 6182.255218
_symmetry_space_group_name_H-M "I M M A"
_symmetry_group_IT_number 74
_symmetry_cell_setting 'orthorhombic'
loop_
_space_group_symop_operation_xyz
x,y,z
-x,1/2-y,z
x,-y,-z
-x,1/2+y,-z
-x,-y,-z
x,1/2+y,-z
-x,y,z
x,1/2-y,z
1/2+x,1/2+y,1/2+z
1/2-x,-y,1/2+z
1/2+x,1/2-y,1/2-z
1/2-x,y,1/2-z
1/2-x,1/2-y,1/2-z
1/2+x,y,1/2-z
1/2-x,1/2+y,1/2+z
1/2+x,-y,1/2+z
loop_
_atom_site_type_symbol
_atom_site_label
_atom_site_fract_x
_atom_site_fract_y
_atom_site_fract_z
Si Si1 0.111627 0.331529 0.121400
Si Si2 0.887976 0.580643 0.996165
Si Si3 0.107315 0.032630 0.687106
Si Si4 0.888748 0.896469 0.752465
Si Si5 0.108938 0.328991 0.892127
Si Si6 0.357940 0.671065 0.255778
Si Si7 0.612081 0.030198 0.063682
Si Si8 0.611105 0.171932 0.125458
O O1 0.138465 0.250000 0.116405
O O2 0.144189 0.365606 0.184227
O O3 0.000000 0.332012 0.122094
O O4 0.139714 0.378178 0.064194
O O5 0.855006 0.621621 0.055495
O O6 0.000000 0.580963 0.996392
O O7 0.860030 0.500000 0.000000
O O8 0.114037 0.111711 0.709127
O O9 0.000000 0.016170 0.682320
O O10 0.141810 0.975494 0.735759
O O11 0.144774 0.016067 0.620742
O O12 0.864718 0.850035 0.693946
O O13 0.000000 0.895802 0.756705
O O14 0.147454 0.250000 0.895799
O O15 0.120977 0.353742 0.823657
O O16 0.000000 0.324136 0.901777
O O17 0.396095 0.750000 0.247875
O O18 0.250000 0.676494 0.250000
O O19 0.500000 0.028985 0.061975
O O20 0.639032 0.109818 0.080334
O O21 0.643431 0.000000 0.000000
O O22 0.500000 0.172922 0.124149
O O23 0.643595 0.250000 0.110964
#
# Coordination Sequence:
#
# PCOD9538803 Si02
#       8
#    16  16  16  16  16  16  16  16
#     4   9  15  22  33  53  87 125 154 184 222 259
#     4   9  17  25  36  59  91 127 160 190 221 260
#     4   9  17  29  48  71  93 119 150 186 230 280
#     4   8  14  22  36  60  87 115 145 181 223 261
#     4   9  17  30  48  67  90 124 160 191 229 278
#     4  10  21  35  50  68  90 118 154 197 242 280
#     4   8  14  25  40  62  93 123 147 179 228 280
#     4   8  12  19  32  52  82 118 150 176 212 268
#
# _framework density 20.704419999999999
#
# number of rings (size 3 to 8) (size 9 to 14) (size 15 to 20)
#    0.000    3.250    0.000    2.625    1.750    3.750 
#    0.000    0.625    0.000    3.000    0.000    0.000 
#    0.000   12.500    0.000    0.000    0.000    0.000 
#
# Total GULP energy -356919.106679 kJ/mol
# GULP energy per Si atom -5576.861042 kJ/mol
# Density = 2.065730 g / cm^3
# Si number density = 20.704420 Si / 1000 Ang^3
#
#
#
# Elastic Constant Matrix: (Units=GPa)
#
#
# Indices 1 2 3 4 5 6 
#
# 1 50.1944 -2.5690 1.4847 0.0000 0.0000 0.0000
# 2 -2.5690 161.1147 132.9705 0.0000 0.0000 0.0000
# 3 1.4847 132.9705 164.1191 0.0000 0.0000 0.0000
# 4 0.0000 0.0000 0.0000 31.3620 0.0000 0.0000
# 5 0.0000 0.0000 0.0000 0.0000 -29.4505 0.0000
# 6 0.0000 0.0000 0.0000 0.0000 0.0000 -10.6351
#
#
#
# Elastic Compliance Matrix: (Units=1/GPa)
#
#
# Indices 1 2 3 4 5 6 
#
# 1 0.020034 0.001416 -0.001328 0.000000 0.000000 0.000000
# 2 0.001416 0.018833 -0.015272 0.000000 0.000000 0.000000
# 3 -0.001328 -0.015272 0.018478 0.000000 0.000000 0.000000
# 4 0.000000 0.000000 0.000000 0.031886 0.000000 0.000000
# 5 0.000000 0.000000 0.000000 0.000000 -0.033955 0.000000
# 6 0.000000 0.000000 0.000000 0.000000 0.000000 -0.094028
#
#
# Mechanical properties :
#
#
# Convention : Reuss Voigt Hill
#
# Bulk Modulus (GPa) = 37.06796 71.02228 54.04512
# Shear Modulus (GPa) = 8205.99685 14.49141 4110.24413
#
# Velocity S-wave (km/s) = 63.02387 2.64847 44.60393
# Velocity P-wave (km/s) = 72.89686 6.61286 51.75752
#
# Compressibility (1/GPa) = 0.02697748
#
# Stress axis : x y z
#
# Youngs Moduli (GPa) = 49.91442 53.09749 54.11732
#
# Poissons Ratio (x) = -0.07517 0.07188
# Poissons Ratio (y) = -0.07066 0.82646
# Poissons Ratio (z) = 0.06630 0.81089
#
# Static dielectric constant tensor:
#      x y z
#    x 1.776800 0.000000 0.000000 
#    y 0.000000 1.741800 0.000000 
#    z 0.000000 0.000000 1.725840 
# 
# From -- ./inp_files/61137.got.cif
#   From: 2010.05.17/outbox.cif.g08.bks.cpg/sg74_31_cif.got.tgz:61137.got - 2010.06.03 17:57:02.
