data_PCOD9538684
_publ_section_title
;
Structure prediction by ZEFSAII (Michael W. Deem and Ramdas Pophale) SiO2 
 PCOD9538684
Probable space group: I M M A
;
_chemical_formula_sum "Si O2"
_cell_formula_units_Z 56
_cell_length_a 22.577170
_cell_length_b 12.108130
_cell_length_c 10.977119
_cell_angle_alpha 90.000000
_cell_angle_beta 90.000000
_cell_angle_gamma 90.000000
_cell_volume 3000.785486
_symmetry_space_group_name_H-M "I M M A"
_symmetry_group_IT_number 74
_symmetry_cell_setting 'orthorhombic'
loop_
_space_group_symop_operation_xyz
x,y,z
-x,1/2-y,z
x,-y,-z
-x,1/2+y,-z
-x,-y,-z
x,1/2+y,-z
-x,y,z
x,1/2-y,z
1/2+x,1/2+y,1/2+z
1/2-x,-y,1/2+z
1/2+x,1/2-y,1/2-z
1/2-x,y,1/2-z
1/2-x,1/2-y,1/2-z
1/2+x,y,1/2-z
1/2-x,1/2+y,1/2+z
1/2+x,-y,1/2+z
loop_
_atom_site_type_symbol
_atom_site_label
_atom_site_fract_x
_atom_site_fract_y
_atom_site_fract_z
Si Si1 0.565929 0.250000 0.716766
Si Si2 0.680151 0.873226 0.733541
Si Si3 0.340580 0.750000 0.505040
Si Si4 0.716945 0.750000 0.118057
Si Si5 0.381209 0.436467 0.879130
O O1 0.500000 0.250000 0.664752
O O2 0.615586 0.250000 0.609605
O O3 0.575578 0.143798 0.804021
O O4 0.672365 0.750000 0.789675
O O5 0.750000 0.898706 0.750000
O O6 0.656561 0.854787 0.595874
O O7 0.642385 0.966671 0.794316
O O8 0.272306 0.750000 0.468947
O O9 0.750000 0.750000 0.250000
O O10 0.675348 0.856169 0.097122
O O11 0.402956 0.500000 0.000000
#
# Coordination Sequence:
#
# PCOD9538684 Si02
#       5
#     8  16   8   8  16
#     4  11  27  46  61  89 122 165 227 273 309 354
#     4   9  20  36  61  96 129 160 191 244 314 390
#     4  10  20  40  61  87 133 161 201 256 320 375
#     4  11  20  35  56  99 127 161 195 249 330 388
#     4  11  23  38  66  90 126 163 207 258 319 382
#
# _framework density 18.66178
#
# number of rings (size 3 to 8) (size 9 to 14) (size 15 to 20)
#    0.857    0.857    2.857    2.571    4.000    1.714 
#    0.000    2.857    0.000    0.000    0.000    0.000 
#    0.000    0.000    0.000    0.000    0.000    0.000 
#
# Total GULP energy -155939.090756 kJ/mol
# GULP energy per Si atom -5569.253241 kJ/mol
# Density = 1.861931 g / cm^3
# Si number density = 18.661780 Si / 1000 Ang^3
#
#
#
# Elastic Constant Matrix: (Units=GPa)
#
#
# Indices 1 2 3 4 5 6 
#
# 1 70.9975 8.5547 16.3033 0.0000 0.0000 0.0000
# 2 8.5547 66.1983 28.2680 0.0000 0.0000 0.0000
# 3 16.3033 28.2680 96.8332 0.0000 0.0000 0.0000
# 4 0.0000 0.0000 0.0000 26.6973 0.0000 0.0000
# 5 0.0000 0.0000 0.0000 0.0000 12.4990 0.0000
# 6 0.0000 0.0000 0.0000 0.0000 0.0000 2.0430
#
#
#
# Elastic Compliance Matrix: (Units=1/GPa)
#
#
# Indices 1 2 3 4 5 6 
#
# 1 0.014705 -0.000963 -0.002195 0.000000 0.000000 0.000000
# 2 -0.000963 0.017320 -0.004894 0.000000 0.000000 0.000000
# 3 -0.002195 -0.004894 0.012125 0.000000 0.000000 0.000000
# 4 0.000000 0.000000 0.000000 0.037457 0.000000 0.000000
# 5 0.000000 0.000000 0.000000 0.000000 0.080006 0.000000
# 6 0.000000 0.000000 0.000000 0.000000 0.000000 0.489485
#
#
# Mechanical properties :
#
#
# Convention : Reuss Voigt Hill
#
# Bulk Modulus (GPa) = 35.65450 37.80898 36.73174
# Shear Modulus (GPa) = 7.39042 20.30806 13.84924
#
# Velocity S-wave (km/s) = 1.99218 3.30239 2.72714
# Velocity P-wave (km/s) = 4.94356 5.90298 5.44445
#
# Compressibility (1/GPa) = 0.02804695
#
# Stress axis : x y z
#
# Youngs Moduli (GPa) = 68.00403 57.73512 82.47251
#
# Poissons Ratio (x) = 0.05561 0.18100
# Poissons Ratio (y) = 0.06550 0.40363
# Poissons Ratio (z) = 0.14924 0.28256
#
# Static dielectric constant tensor:
#      x y z
#    x 2.196900 0.000000 0.000000 
#    y 0.000000 1.643610 0.000000 
#    z 0.000000 0.000000 1.791020 
# 
# From -- ./inp_files/23176.got.cif
#   From: 2010.05.17/outbox.cif.g08.bks.cpg/sg74_12_cif.got.tgz:23176.got - 2010.06.03 17:57:02.
