data_PCOD9538751
_publ_section_title
;
Structure prediction by ZEFSAII (Michael W. Deem and Ramdas Pophale) SiO2 
 PCOD9538751
Probable space group: I M M A
;
_chemical_formula_sum "Si O2"
_cell_formula_units_Z 120
_cell_length_a 27.190176
_cell_length_b 15.409224
_cell_length_c 17.107556
_cell_angle_alpha 90.000000
_cell_angle_beta 90.000000
_cell_angle_gamma 90.000000
_cell_volume 7167.715474
_symmetry_space_group_name_H-M "I M M A"
_symmetry_group_IT_number 74
_symmetry_cell_setting 'orthorhombic'
loop_
_space_group_symop_operation_xyz
x,y,z
-x,1/2-y,z
x,-y,-z
-x,1/2+y,-z
-x,-y,-z
x,1/2+y,-z
-x,y,z
x,1/2-y,z
1/2+x,1/2+y,1/2+z
1/2-x,-y,1/2+z
1/2+x,1/2-y,1/2-z
1/2-x,y,1/2-z
1/2-x,1/2-y,1/2-z
1/2+x,y,1/2-z
1/2-x,1/2+y,1/2+z
1/2+x,-y,1/2+z
loop_
_atom_site_type_symbol
_atom_site_label
_atom_site_fract_x
_atom_site_fract_y
_atom_site_fract_z
Si Si1 0.695178 0.625356 0.778142
Si Si2 0.374003 0.849418 0.631153
Si Si3 0.702857 0.146864 0.503501
Si Si4 0.830791 0.250000 0.423163
Si Si5 0.302358 0.917297 0.211183
Si Si6 0.633004 0.148073 0.650437
Si Si7 0.557608 0.495358 0.594107
Si Si8 0.188661 0.093708 0.527309
O O1 0.750000 0.649520 0.750000
O O2 0.655524 0.648273 0.711872
O O3 0.682162 0.674918 0.856842
O O4 0.694739 0.521679 0.786861
O O5 0.389055 0.750000 0.613862
O O6 0.334801 0.877497 0.564756
O O7 0.418148 0.917265 0.628449
O O8 0.713798 0.250000 0.494849
O O9 0.675632 0.132354 0.585459
O O10 0.754583 0.100190 0.497913
O O11 0.839226 0.326860 0.488222
O O12 0.250000 0.891364 0.250000
O O13 0.344373 0.877485 0.266259
O O14 0.307700 0.893529 0.120605
O O15 0.620502 0.250000 0.646733
O O16 0.588153 0.086115 0.626769
O O17 0.563015 0.500000 0.500000
O O18 0.500000 0.488964 0.612263
O O19 0.169453 0.000000 0.500000
#
# Coordination Sequence:
#
# PCOD9538751 Si02
#       8
#    16  16  16   8  16  16  16  16
#     4  11  22  35  55  83 116 154 198 241 282 339
#     4  11  22  36  60  85 114 152 198 242 287 348
#     4  10  21  33  49  79 112 155 203 236 271 338
#     4  12  23  38  49  78 117 154 195 237 294 333
#     4  11  23  37  53  81 114 157 202 243 280 335
#     4  11  23  38  57  81 115 155 203 237 286 344
#     4  11  24  41  60  84 116 153 195 247 299 345
#     4  12  24  34  51  77 116 163 201 239 284 337
#
# _framework density 16.741737000000001
#
# number of rings (size 3 to 8) (size 9 to 14) (size 15 to 20)
#    0.000    0.933    6.667    1.000    6.533    0.800 
#    0.000    1.333    0.000    0.000    0.000    0.000 
#    0.000    5.867    0.000    0.000    0.000    0.000 
#
# Total GULP energy -334209.347337 kJ/mol
# GULP energy per Si atom -5570.155789 kJ/mol
# Density = 1.670363 g / cm^3
# Si number density = 16.741737 Si / 1000 Ang^3
#
#
#
# Elastic Constant Matrix: (Units=GPa)
#
#
# Indices 1 2 3 4 5 6 
#
# 1 63.7642 34.1811 11.0262 0.0000 0.0000 0.0000
# 2 34.1811 83.2121 17.8836 0.0000 0.0000 0.0000
# 3 11.0262 17.8836 103.9865 0.0000 0.0000 0.0000
# 4 0.0000 0.0000 0.0000 28.7193 0.0000 0.0000
# 5 0.0000 0.0000 0.0000 0.0000 12.5410 0.0000
# 6 0.0000 0.0000 0.0000 0.0000 0.0000 -11.6381
#
#
#
# Elastic Compliance Matrix: (Units=1/GPa)
#
#
# Indices 1 2 3 4 5 6 
#
# 1 0.020166 -0.008124 -0.000741 0.000000 0.000000 0.000000
# 2 -0.008124 0.015752 -0.001848 0.000000 0.000000 0.000000
# 3 -0.000741 -0.001848 0.010013 0.000000 0.000000 0.000000
# 4 0.000000 0.000000 0.000000 0.034820 0.000000 0.000000
# 5 0.000000 0.000000 0.000000 0.000000 0.079739 0.000000
# 6 0.000000 0.000000 0.000000 0.000000 0.000000 -0.085925
#
#
# Mechanical properties :
#
#
# Convention : Reuss Voigt Hill
#
# Bulk Modulus (GPa) = 40.80826 41.90498 41.35662
# Shear Modulus (GPa) = 48.00380 18.44923 33.22652
#
# Velocity S-wave (km/s) = 5.36054 3.32323 4.45978
# Velocity P-wave (km/s) = 7.92098 6.30949 7.16071
#
# Compressibility (1/GPa) = 0.02450485
#
# Stress axis : x y z
#
# Youngs Moduli (GPa) = 49.58836 63.48478 99.87068
#
# Poissons Ratio (x) = 0.51577 0.07401
# Poissons Ratio (y) = 0.40287 0.18451
# Poissons Ratio (z) = 0.03675 0.11729
#
# Static dielectric constant tensor:
#      x y z
#    x 1.537280 0.000000 0.000000 
#    y 0.000000 1.591850 0.000000 
#    z 0.000000 0.000000 1.579600 
# 
# From -- ./inp_files/38002.got.cif
#   From: 2010.05.17/outbox.cif.g08.bks.cpg/sg74_20_cif.got.tgz:38002.got - 2010.06.03 17:57:02.
