data_PCOD9538276
_publ_section_title
;
Structure prediction by ZEFSAII (Michael W. Deem and Ramdas Pophale) SiO2 
 PCOD9538276
Probable space group: I M M A
;
_chemical_formula_sum "Si O2"
_cell_formula_units_Z 72
_cell_length_a 25.819423
_cell_length_b 9.223991
_cell_length_c 15.222589
_cell_angle_alpha 90.000000
_cell_angle_beta 90.000000
_cell_angle_gamma 90.000000
_cell_volume 3625.383260
_symmetry_space_group_name_H-M "I M M A"
_symmetry_group_IT_number 74
_symmetry_cell_setting 'orthorhombic'
loop_
_space_group_symop_operation_xyz
x,y,z
-x,1/2-y,z
x,-y,-z
-x,1/2+y,-z
-x,-y,-z
x,1/2+y,-z
-x,y,z
x,1/2-y,z
1/2+x,1/2+y,1/2+z
1/2-x,-y,1/2+z
1/2+x,1/2-y,1/2-z
1/2-x,y,1/2-z
1/2-x,1/2-y,1/2-z
1/2+x,y,1/2-z
1/2-x,1/2+y,1/2+z
1/2+x,-y,1/2+z
loop_
_atom_site_type_symbol
_atom_site_label
_atom_site_fract_x
_atom_site_fract_y
_atom_site_fract_z
Si Si1 0.309612 0.000000 0.000000
Si Si2 0.737841 0.922272 0.351895
Si Si3 0.587996 0.090364 0.921976
Si Si4 0.438007 0.419295 0.250587
Si Si5 0.618476 0.422128 0.593382
O O1 0.271077 0.977646 0.918026
O O2 0.352846 0.103816 0.956595
O O3 0.749425 0.750000 0.368904
O O4 0.750000 0.950913 0.250000
O O5 0.677325 0.941645 0.372280
O O6 0.566279 0.250000 0.908265
O O7 0.586259 0.997698 0.833929
O O8 0.561338 0.000000 0.000000
O O9 0.500000 0.427744 0.242720
O O10 0.423099 0.250000 0.253599
O O11 0.418865 0.502611 0.336508
O O12 0.613334 0.500000 0.500000
O O13 0.608526 0.250000 0.586580
#
# Coordination Sequence:
#
# PCOD9538276 Si02
#       5
#     8  16  16  16  16
#     4  10  20  36  63  94 133 170 210 256 308 376
#     4  10  20  36  59  90 128 171 212 255 311 374
#     4  10  22  39  64  95 131 170 210 257 312 377
#     4  11  25  45  68  94 125 164 214 271 328 384
#     4  11  23  41  65  94 130 169 213 265 318 377
#
# _framework density 19.859969
#
# number of rings (size 3 to 8) (size 9 to 14) (size 15 to 20)
#    0.667    0.889    1.111    4.000    0.000    4.444 
#    0.000    0.000    0.000    5.333    0.000    0.000 
#    0.000    0.000    0.000    0.000    0.000    0.000 
#
# Total GULP energy -200644.621688 kJ/mol
# GULP energy per Si atom -5573.461714 kJ/mol
# Density = 1.981477 g / cm^3
# Si number density = 19.859969 Si / 1000 Ang^3
#
#
#
# Elastic Constant Matrix: (Units=GPa)
#
#
# Indices 1 2 3 4 5 6 
#
# 1 47.1027 31.7613 18.4041 0.0000 0.0000 0.0000
# 2 31.7613 138.3599 66.5489 0.0000 0.0000 0.0000
# 3 18.4041 66.5489 164.6358 0.0000 0.0000 0.0000
# 4 0.0000 0.0000 0.0000 361.8351 0.0000 0.0000
# 5 0.0000 0.0000 0.0000 0.0000 218.8077 0.0000
# 6 0.0000 0.0000 0.0000 0.0000 0.0000 27.8679
#
#
#
# Elastic Compliance Matrix: (Units=1/GPa)
#
#
# Indices 1 2 3 4 5 6 
#
# 1 0.025165 -0.005491 -0.000593 0.000000 0.000000 0.000000
# 2 -0.005491 0.010170 -0.003497 0.000000 0.000000 0.000000
# 3 -0.000593 -0.003497 0.007554 0.000000 0.000000 0.000000
# 4 0.000000 0.000000 0.000000 0.002764 0.000000 0.000000
# 5 0.000000 0.000000 0.000000 0.000000 0.004570 0.000000
# 6 0.000000 0.000000 0.000000 0.000000 0.000000 0.035884
#
#
# Mechanical properties :
#
#
# Convention : Reuss Voigt Hill
#
# Bulk Modulus (GPa) = 42.14915 64.83632 53.49273
# Shear Modulus (GPa) = 44.17801 137.26108 90.71954
#
# Velocity S-wave (km/s) = 4.72155 8.32253 6.76600
# Velocity P-wave (km/s) = 7.14096 11.18348 9.38253
#
# Compressibility (1/GPa) = 0.02372527
#
# Stress axis : x y z
#
# Youngs Moduli (GPa) = 39.73802 98.32712 132.38115
#
# Poissons Ratio (x) = 0.53994 0.07856
# Poissons Ratio (y) = 0.21821 0.46295
# Poissons Ratio (z) = 0.02358 0.34386
#
# Static dielectric constant tensor:
#      x y z
#    x 1.716470 0.000000 0.000000 
#    y 0.000000 1.699170 0.000000 
#    z 0.000000 0.000000 1.675410 
# 
# From -- ./inp_files/29182.got.cif
#   From: 2010.05.17/outbox.cif.g08.bks.cpg/sg74_15_cif.got.tgz:29182.got - 2010.06.03 17:57:02.
