data_PCOD9538201
_publ_section_title
;
Structure prediction by ZEFSAII (Michael W. Deem and Ramdas Pophale) SiO2 
 PCOD9538201
Probable space group: I M M A
;
_chemical_formula_sum "Si O2"
_cell_formula_units_Z 88
_cell_length_a 19.904659
_cell_length_b 15.798917
_cell_length_c 12.119268
_cell_angle_alpha 90.000000
_cell_angle_beta 90.000000
_cell_angle_gamma 90.000000
_cell_volume 3811.171119
_symmetry_space_group_name_H-M "I M M A"
_symmetry_group_IT_number 74
_symmetry_cell_setting 'orthorhombic'
loop_
_space_group_symop_operation_xyz
x,y,z
-x,1/2-y,z
x,-y,-z
-x,1/2+y,-z
-x,-y,-z
x,1/2+y,-z
-x,y,z
x,1/2-y,z
1/2+x,1/2+y,1/2+z
1/2-x,-y,1/2+z
1/2+x,1/2-y,1/2-z
1/2-x,y,1/2-z
1/2-x,1/2-y,1/2-z
1/2+x,y,1/2-z
1/2-x,1/2+y,1/2+z
1/2+x,-y,1/2+z
loop_
_atom_site_type_symbol
_atom_site_label
_atom_site_fract_x
_atom_site_fract_y
_atom_site_fract_z
Si Si1 0.351585 0.842337 0.692367
Si Si2 0.500000 0.023150 0.741414
Si Si3 0.285678 0.843807 0.456187
Si Si4 0.500000 0.845279 0.061926
Si Si5 0.648529 0.531797 0.285919
Si Si6 0.142465 0.595354 0.458214
Si Si7 0.000000 0.159853 0.278550
O O1 0.326717 0.750000 0.735641
O O2 0.331093 0.847229 0.564847
O O3 0.431620 0.838494 0.708819
O O4 0.330396 0.934455 0.739559
O O5 0.500000 0.937770 0.816205
O O6 0.500000 0.096633 0.830525
O O7 0.429855 0.027176 0.676563
O O8 0.293436 0.750000 0.404825
O O9 0.306428 0.919767 0.374788
O O10 0.208719 0.855568 0.493799
O O11 0.500000 0.750000 0.099179
O O12 0.571775 0.864369 0.005391
O O13 0.647596 0.586595 0.174340
O O14 0.143969 0.500000 0.500000
O O15 0.000000 0.250000 0.343631
#
# Coordination Sequence:
#
# PCOD9538201 Si02
#       7
#    16   8  16   8  16  16   8
#     4   9  18  34  56  84 117 149 184 226 274 334
#     4   8  18  32  53  85 114 149 191 230 276 330
#     4  11  23  37  57  85 115 149 187 228 279 338
#     4  10  21  39  61  82 110 147 186 236 290 336
#     4  10  20  36  58  83 114 151 186 230 280 332
#     4  11  23  40  61  82 110 146 190 240 286 333
#     4   8  14  29  54  83 118 154 184 222 274 332
#
# _framework density 23.090015999999999
#
# number of rings (size 3 to 8) (size 9 to 14) (size 15 to 20)
#    0.000    2.182    0.000    3.000    0.000    5.091 
#    0.000    5.455    0.000   16.364    0.000    0.000 
#    0.000    0.000    0.000    0.000    0.000    0.000 
#
# Total GULP energy -245586.362080 kJ/mol
# GULP energy per Si atom -5581.508229 kJ/mol
# Density = 2.303746 g / cm^3
# Si number density = 23.090016 Si / 1000 Ang^3
#
#
#
# Elastic Constant Matrix: (Units=GPa)
#
#
# Indices 1 2 3 4 5 6 
#
# 1 130.9063 50.1578 19.5936 0.0000 0.0000 0.0000
# 2 50.1578 172.7004 18.2160 0.0000 0.0000 0.0000
# 3 19.5936 18.2160 35.5834 0.0000 0.0000 0.0000
# 4 0.0000 0.0000 0.0000 27.9895 0.0000 0.0000
# 5 0.0000 0.0000 0.0000 0.0000 16.3087 0.0000
# 6 0.0000 0.0000 0.0000 0.0000 0.0000 26.9324
#
#
#
# Elastic Compliance Matrix: (Units=1/GPa)
#
#
# Indices 1 2 3 4 5 6 
#
# 1 0.009069 -0.002228 -0.003854 0.000000 0.000000 0.000000
# 2 -0.002228 0.006668 -0.002187 0.000000 0.000000 0.000000
# 3 -0.003854 -0.002187 0.031344 0.000000 0.000000 0.000000
# 4 0.000000 0.000000 0.000000 0.035728 0.000000 0.000000
# 5 0.000000 0.000000 0.000000 0.000000 0.061317 0.000000
# 6 0.000000 0.000000 0.000000 0.000000 0.000000 0.037130
#
#
# Mechanical properties :
#
#
# Convention : Reuss Voigt Hill
#
# Bulk Modulus (GPa) = 32.73788 57.23608 44.98698
# Shear Modulus (GPa) = 24.04142 30.99431 27.51787
#
# Velocity S-wave (km/s) = 3.23027 3.66775 3.45594
# Velocity P-wave (km/s) = 5.30302 6.54053 5.95401
#
# Compressibility (1/GPa) = 0.03054566
#
# Stress axis : x y z
#
# Youngs Moduli (GPa) = 110.26145 149.96993 31.90358
#
# Poissons Ratio (x) = 0.33407 0.12294
# Poissons Ratio (y) = 0.24561 0.06977
# Poissons Ratio (z) = 0.42490 0.32797
#
# Static dielectric constant tensor:
#      x y z
#    x 1.892210 0.000000 0.000000 
#    y 0.000000 1.903170 0.000000 
#    z 0.000000 0.000000 1.846660 
# 
# From -- ./inp_files/35209.got.cif
#   From: 2010.05.17/outbox.cif.g08.bks.cpg/sg74_18_cif.got.tgz:35209.got - 2010.06.03 17:57:02.
