data_PCOD9538733
_publ_section_title
;
Structure prediction by ZEFSAII (Michael W. Deem and Ramdas Pophale) SiO2 
 PCOD9538733
Probable space group: I M M A
;
_chemical_formula_sum "Si O2"
_cell_formula_units_Z 44
_cell_length_a 9.523178
_cell_length_b 7.203488
_cell_length_c 36.092141
_cell_angle_alpha 90.000000
_cell_angle_beta 90.000000
_cell_angle_gamma 90.000000
_cell_volume 2475.924426
_symmetry_space_group_name_H-M "I M M A"
_symmetry_group_IT_number 74
_symmetry_cell_setting 'orthorhombic'
loop_
_space_group_symop_operation_xyz
x,y,z
-x,1/2-y,z
x,-y,-z
-x,1/2+y,-z
-x,-y,-z
x,1/2+y,-z
-x,y,z
x,1/2-y,z
1/2+x,1/2+y,1/2+z
1/2-x,-y,1/2+z
1/2+x,1/2-y,1/2-z
1/2-x,y,1/2-z
1/2-x,1/2-y,1/2-z
1/2+x,y,1/2-z
1/2-x,1/2+y,1/2+z
1/2+x,-y,1/2+z
loop_
_atom_site_type_symbol
_atom_site_label
_atom_site_fract_x
_atom_site_fract_y
_atom_site_fract_z
Si Si1 0.730548 0.750000 0.324385
Si Si2 0.500000 0.750000 0.228554
Si Si3 0.000000 0.473922 0.203836
Si Si4 0.838093 0.467589 0.043374
Si Si5 0.667273 0.750000 0.091358
O O1 0.861788 0.750000 0.296570
O O2 0.634410 0.569061 0.316021
O O3 0.782666 0.750000 0.366312
O O4 0.500000 0.569507 0.255397
O O5 0.000000 0.250000 0.203933
O O6 0.831456 0.250000 0.050668
O O7 0.733710 0.576563 0.069647
O O8 0.000000 0.529348 0.049106
O O9 0.805742 0.500000 0.000000
O O10 0.500000 0.750000 0.089569
#
# Coordination Sequence:
#
# PCOD9538733 Si02
#       5
#     8   4   8  16   8
#     4  10  23  41  61  91 131 165 203 249 313 366
#     4  10  20  42  66  92 130 162 204 246 310 374
#     4  10  22  40  68  96 118 163 209 259 295 360
#     4  10  21  40  65  89 114 154 210 258 302 361
#     4  12  25  40  61  87 129 170 197 254 318 365
#
# _framework density 17.771139999999999
#
# number of rings (size 3 to 8) (size 9 to 14) (size 15 to 20)
#    0.000    1.818    2.727    2.727    5.091    5.818 
#    0.000    0.000    0.000    0.000    0.000    0.000 
#    0.000    0.000    0.000    0.000    0.000    0.000 
#
# Total GULP energy -122840.080375 kJ/mol
# GULP energy per Si atom -5583.640017 kJ/mol
# Density = 1.773069 g / cm^3
# Si number density = 17.771140 Si / 1000 Ang^3
#
#
#
# Elastic Constant Matrix: (Units=GPa)
#
#
# Indices 1 2 3 4 5 6 
#
# 1 163.3270 78.0893 112.9182 0.0000 0.0000 0.0000
# 2 78.0893 174.6729 70.1265 0.0000 0.0000 0.0000
# 3 112.9182 70.1265 157.1593 0.0000 0.0000 0.0000
# 4 0.0000 0.0000 0.0000 6.8343 0.0000 0.0000
# 5 0.0000 0.0000 0.0000 0.0000 31.3952 0.0000
# 6 0.0000 0.0000 0.0000 0.0000 0.0000 15.2123
#
#
#
# Elastic Compliance Matrix: (Units=1/GPa)
#
#
# Indices 1 2 3 4 5 6 
#
# 1 0.013014 -0.002514 -0.008228 0.000000 0.000000 0.000000
# 2 -0.002514 0.007460 -0.001522 0.000000 0.000000 0.000000
# 3 -0.008228 -0.001522 0.012954 0.000000 0.000000 0.000000
# 4 0.000000 0.000000 0.000000 0.146321 0.000000 0.000000
# 5 0.000000 0.000000 0.000000 0.000000 0.031852 0.000000
# 6 0.000000 0.000000 0.000000 0.000000 0.000000 0.065736
#
#
# Mechanical properties :
#
#
# Convention : Reuss Voigt Hill
#
# Bulk Modulus (GPa) = 112.38275 113.04748 112.71511
# Shear Modulus (GPa) = 16.40242 26.29004 21.34623
#
# Velocity S-wave (km/s) = 3.04136 3.85043 3.46956
# Velocity P-wave (km/s) = 8.70111 9.13886 8.92267
#
# Compressibility (1/GPa) = 0.00889816
#
# Stress axis : x y z
#
# Youngs Moduli (GPa) = 76.84289 134.04416 77.19541
#
# Poissons Ratio (x) = 0.33705 0.63518
# Poissons Ratio (y) = 0.19322 0.11751
# Poissons Ratio (z) = 0.63228 0.20405
#
# Static dielectric constant tensor:
#      x y z
#    x 1.595400 0.000000 0.000000 
#    y 0.000000 1.594750 0.000000 
#    z 0.000000 0.000000 1.587660 
# 
# From -- ./inp_files/69495.got.cif
#   From: 2010.05.17/outbox.cif.g08.bks.cpg/sg74_35_cif.got.tgz:69495.got - 2010.06.03 17:57:02.
