data_PCOD9538842
_publ_section_title
;
Structure prediction by ZEFSAII (Michael W. Deem and Ramdas Pophale) SiO2 
 PCOD9538842
Probable space group: I M M A
;
_chemical_formula_sum "Si O2"
_cell_formula_units_Z 88
_cell_length_a 8.812622
_cell_length_b 16.959521
_cell_length_c 31.221549
_cell_angle_alpha 90.000000
_cell_angle_beta 90.000000
_cell_angle_gamma 90.000000
_cell_volume 4666.305521
_symmetry_space_group_name_H-M "I M M A"
_symmetry_group_IT_number 74
_symmetry_cell_setting 'orthorhombic'
loop_
_space_group_symop_operation_xyz
x,y,z
-x,1/2-y,z
x,-y,-z
-x,1/2+y,-z
-x,-y,-z
x,1/2+y,-z
-x,y,z
x,1/2-y,z
1/2+x,1/2+y,1/2+z
1/2-x,-y,1/2+z
1/2+x,1/2-y,1/2-z
1/2-x,y,1/2-z
1/2-x,1/2-y,1/2-z
1/2+x,y,1/2-z
1/2-x,1/2+y,1/2+z
1/2+x,-y,1/2+z
loop_
_atom_site_type_symbol
_atom_site_label
_atom_site_fract_x
_atom_site_fract_y
_atom_site_fract_z
Si Si1 0.682414 0.250000 0.201582
Si Si2 0.819215 0.657564 0.452938
Si Si3 0.817700 0.658825 0.206616
Si Si4 0.329567 0.656216 0.541308
Si Si5 0.683529 0.879249 0.637466
Si Si6 0.317603 0.438529 0.624790
O O1 0.500000 0.250000 0.203949
O O2 0.750000 0.250000 0.250000
O O3 0.740032 0.174495 0.173764
O O4 0.769447 0.750000 0.445523
O O5 0.766354 0.631140 0.500306
O O6 0.752953 0.597717 0.418025
O O7 0.000000 0.657221 0.450817
O O8 0.770774 0.750000 0.204026
O O9 0.750000 0.624040 0.250000
O O10 0.767175 0.615470 0.164154
O O11 0.000000 0.655507 0.208805
O O12 0.500000 0.621264 0.539436
O O13 0.342199 0.750000 0.536872
O O14 0.268468 0.643473 0.589062
O O15 0.500000 0.867330 0.640396
O O16 0.717537 0.972077 0.638322
O O17 0.500000 0.433843 0.620184
#
# Coordination Sequence:
#
# PCOD9538842 Si02
#       6
#     8  16  16  16  16  16
#     4  12  26  44  68  92 118 154 196 246 303 360
#     4  10  21  35  53  81 118 158 199 243 286 336
#     4   9  18  33  53  77 105 141 183 224 272 332
#     4   9  17  33  58  81 108 150 194 236 286 350
#     4  10  21  40  63  88 116 147 191 242 296 355
#     4  10  21  36  57  84 116 151 188 238 292 350
#
# _framework density 18.858602999999999
#
# number of rings (size 3 to 8) (size 9 to 14) (size 15 to 20)
#    0.000    2.182    0.909    1.909    0.000    5.455 
#    0.000    7.273    0.000    0.000    0.000    0.000 
#    0.000    0.000    0.000    0.000    0.000    0.000 
#
# Total GULP energy -245347.254110 kJ/mol
# GULP energy per Si atom -5576.073957 kJ/mol
# Density = 1.881568 g / cm^3
# Si number density = 18.858603 Si / 1000 Ang^3
#
#
#
# Elastic Constant Matrix: (Units=GPa)
#
#
# Indices 1 2 3 4 5 6 
#
# 1 47.2138 42.6163 56.9001 0.0000 0.0000 0.0000
# 2 42.6163 81.4465 79.2695 0.0000 0.0000 0.0000
# 3 56.9001 79.2695 194.7251 0.0000 0.0000 0.0000
# 4 0.0000 0.0000 0.0000 5.9990 0.0000 0.0000
# 5 0.0000 0.0000 0.0000 0.0000 31.9939 0.0000
# 6 0.0000 0.0000 0.0000 0.0000 0.0000 19.6109
#
#
#
# Elastic Compliance Matrix: (Units=1/GPa)
#
#
# Indices 1 2 3 4 5 6 
#
# 1 0.043683 -0.017280 -0.005730 0.000000 0.000000 0.000000
# 2 -0.017280 0.027170 -0.006011 0.000000 0.000000 0.000000
# 3 -0.005730 -0.006011 0.009257 0.000000 0.000000 0.000000
# 4 0.000000 0.000000 0.000000 0.166695 0.000000 0.000000
# 5 0.000000 0.000000 0.000000 0.000000 0.031256 0.000000
# 6 0.000000 0.000000 0.000000 0.000000 0.000000 0.050992
#
#
# Mechanical properties :
#
#
# Convention : Reuss Voigt Hill
#
# Bulk Modulus (GPa) = 45.31518 75.66191 60.48854
# Shear Modulus (GPa) = 12.67581 21.16074 16.91827
#
# Velocity S-wave (km/s) = 2.59540 3.35337 2.99843
# Velocity P-wave (km/s) = 5.75000 7.42975 6.64318
#
# Compressibility (1/GPa) = 0.02206766
#
# Stress axis : x y z
#
# Youngs Moduli (GPa) = 22.89208 36.80518 108.02742
#
# Poissons Ratio (x) = 0.63599 0.61902
# Poissons Ratio (y) = 0.39557 0.64937
# Poissons Ratio (z) = 0.13118 0.22124
#
# Static dielectric constant tensor:
#      x y z
#    x 1.660760 0.000000 0.000000 
#    y 0.000000 1.671980 0.000000 
#    z 0.000000 0.000000 1.644320 
# 
# From -- ./inp_files/70290.got.cif
#   From: 2010.05.17/outbox.cif.g08.bks.cpg/sg74_36_cif.got.tgz:70290.got - 2010.06.03 17:57:02.
