data_PCOD9538816
_publ_section_title
;
Structure prediction by ZEFSAII (Michael W. Deem and Ramdas Pophale) SiO2 
 PCOD9538816
Probable space group: I M M A
;
_chemical_formula_sum "Si O2"
_cell_formula_units_Z 88
_cell_length_a 14.651751
_cell_length_b 14.440934
_cell_length_c 21.439033
_cell_angle_alpha 90.000000
_cell_angle_beta 90.000000
_cell_angle_gamma 90.000000
_cell_volume 4536.177136
_symmetry_space_group_name_H-M "I M M A"
_symmetry_group_IT_number 74
_symmetry_cell_setting 'orthorhombic'
loop_
_space_group_symop_operation_xyz
x,y,z
-x,1/2-y,z
x,-y,-z
-x,1/2+y,-z
-x,-y,-z
x,1/2+y,-z
-x,y,z
x,1/2-y,z
1/2+x,1/2+y,1/2+z
1/2-x,-y,1/2+z
1/2+x,1/2-y,1/2-z
1/2-x,y,1/2-z
1/2-x,1/2-y,1/2-z
1/2+x,y,1/2-z
1/2-x,1/2+y,1/2+z
1/2+x,-y,1/2+z
loop_
_atom_site_type_symbol
_atom_site_label
_atom_site_fract_x
_atom_site_fract_y
_atom_site_fract_z
Si Si1 0.500000 0.149508 0.595653
Si Si2 0.180671 0.557908 0.690904
Si Si3 0.500000 0.055861 0.369933
Si Si4 0.500000 0.644065 0.764326
Si Si5 0.691131 0.863168 0.582847
Si Si6 0.701105 0.645360 0.446769
Si Si7 0.299619 0.644466 0.182661
O O1 0.500000 0.250000 0.629489
O O2 0.408486 0.146283 0.555575
O O3 0.500000 0.055252 0.633265
O O4 0.250000 0.562053 0.750000
O O5 0.092400 0.620445 0.699959
O O6 0.239590 0.595635 0.633338
O O7 0.145014 0.451415 0.685432
O O8 0.500000 0.088233 0.299435
O O9 0.591092 0.094530 0.402998
O O10 0.500000 0.750000 0.746090
O O11 0.686620 0.750000 0.586144
O O12 0.723520 0.895846 0.514055
O O13 0.735551 0.750000 0.452516
O O14 0.734110 0.621160 0.376951
O O15 0.336962 0.750000 0.173657
O O16 0.250000 0.648326 0.250000
#
# Coordination Sequence:
#
# PCOD9538816 Si02
#       7
#     8  16   8   8  16  16  16
#     4  10  21  35  51  82 127 158 190 243 299 367
#     4  11  23  39  62  89 116 160 207 241 301 359
#     4  12  23  34  57  89 119 165 203 237 302 360
#     4  12  26  43  60  86 126 156 198 258 296 350
#     4  11  22  37  59  88 124 163 203 246 296 359
#     4   9  19  35  57  87 122 161 199 243 301 357
#     4   9  19  37  59  85 119 155 196 246 290 346
#
# _framework density 19.399595000000001
#
# number of rings (size 3 to 8) (size 9 to 14) (size 15 to 20)
#    0.000    1.636    1.818    3.000    2.545    5.818 
#    0.000    0.455    0.000    2.182    0.000    3.818 
#    0.000    0.000    0.000    0.000    0.000    0.000 
#
# Total GULP energy -244968.525026 kJ/mol
# GULP energy per Si atom -5567.466478 kJ/mol
# Density = 1.935544 g / cm^3
# Si number density = 19.399595 Si / 1000 Ang^3
#
#
#
# Elastic Constant Matrix: (Units=GPa)
#
#
# Indices 1 2 3 4 5 6 
#
# 1 48.4006 15.6166 32.8770 0.0000 0.0000 0.0000
# 2 15.6166 154.5634 32.1748 0.0000 0.0000 0.0000
# 3 32.8770 32.1748 151.8326 0.0000 0.0000 0.0000
# 4 0.0000 0.0000 0.0000 56.5254 0.0000 0.0000
# 5 0.0000 0.0000 0.0000 0.0000 7.1913 0.0000
# 6 0.0000 0.0000 0.0000 0.0000 0.0000 7.2463
#
#
#
# Elastic Compliance Matrix: (Units=1/GPa)
#
#
# Indices 1 2 3 4 5 6 
#
# 1 0.024525 -0.001436 -0.005006 0.000000 0.000000 0.000000
# 2 -0.001436 0.006852 -0.001141 0.000000 0.000000 0.000000
# 3 -0.005006 -0.001141 0.007912 0.000000 0.000000 0.000000
# 4 0.000000 0.000000 0.000000 0.017691 0.000000 0.000000
# 5 0.000000 0.000000 0.000000 0.000000 0.139057 0.000000
# 6 0.000000 0.000000 0.000000 0.000000 0.000000 0.138002
#
#
# Mechanical properties :
#
#
# Convention : Reuss Voigt Hill
#
# Bulk Modulus (GPa) = 41.45445 57.34816 49.40131
# Shear Modulus (GPa) = 13.99591 32.46779 23.23185
#
# Velocity S-wave (km/s) = 2.68890 4.09544 3.46431
# Velocity P-wave (km/s) = 5.57273 7.21036 6.44378
#
# Compressibility (1/GPa) = 0.02412286
#
# Stress axis : x y z
#
# Youngs Moduli (GPa) = 40.77518 145.93284 126.38954
#
# Poissons Ratio (x) = 0.20953 0.63273
# Poissons Ratio (y) = 0.05854 0.14424
# Poissons Ratio (z) = 0.20413 0.16654
#
# Static dielectric constant tensor:
#      x y z
#    x 1.588560 0.000000 0.000000 
#    y 0.000000 1.744510 0.000000 
#    z 0.000000 0.000000 1.717240 
# 
# From -- ./inp_files/51781.got.cif
#   From: 2010.05.17/outbox.cif.g08.bks.cpg/sg74_26_cif.got.tgz:51781.got - 2010.06.03 17:57:02.
