data_PCOD9538294
_publ_section_title
;
Structure prediction by ZEFSAII (Michael W. Deem and Ramdas Pophale) SiO2 
 PCOD9538294
Probable space group: I M M A
;
_chemical_formula_sum "Si O2"
_cell_formula_units_Z 104
_cell_length_a 17.093309
_cell_length_b 15.211665
_cell_length_c 20.423447
_cell_angle_alpha 90.000000
_cell_angle_beta 90.000000
_cell_angle_gamma 90.000000
_cell_volume 5310.457516
_symmetry_space_group_name_H-M "I M M A"
_symmetry_group_IT_number 74
_symmetry_cell_setting 'orthorhombic'
loop_
_space_group_symop_operation_xyz
x,y,z
-x,1/2-y,z
x,-y,-z
-x,1/2+y,-z
-x,-y,-z
x,1/2+y,-z
-x,y,z
x,1/2-y,z
1/2+x,1/2+y,1/2+z
1/2-x,-y,1/2+z
1/2+x,1/2-y,1/2-z
1/2-x,y,1/2-z
1/2-x,1/2-y,1/2-z
1/2+x,y,1/2-z
1/2-x,1/2+y,1/2+z
1/2+x,-y,1/2+z
loop_
_atom_site_type_symbol
_atom_site_label
_atom_site_fract_x
_atom_site_fract_y
_atom_site_fract_z
Si Si1 0.905848 0.852323 0.568624
Si Si2 0.684233 0.000000 0.000000
Si Si3 0.190036 0.845620 0.310663
Si Si4 0.199630 0.589064 0.087497
Si Si5 0.092592 0.535794 0.839554
Si Si6 0.089183 0.354218 0.031403
Si Si7 0.593687 0.473633 0.192835
O O1 0.880710 0.750000 0.567701
O O2 0.000000 0.853642 0.561359
O O3 0.867006 0.913480 0.513152
O O4 0.886711 0.902942 0.636623
O O5 0.741670 0.985016 0.060729
O O6 0.149887 0.750000 0.304111
O O7 0.250000 0.855134 0.250000
O O8 0.243879 0.844891 0.375398
O O9 0.135612 0.931812 0.314343
O O10 0.140351 0.550022 0.140430
O O11 0.149087 0.619882 0.025555
O O12 0.108527 0.603722 0.898329
O O13 0.113032 0.562195 0.765588
O O14 0.000000 0.518409 0.840659
O O15 0.089184 0.250000 0.037606
O O16 0.000000 0.383047 0.013983
O O17 0.500000 0.487057 0.189088
#
# Coordination Sequence:
#
# PCOD9538294 Si02
#       7
#    16   8  16  16  16  16  16
#     4  10  23  44  67  92 122 157 202 253 307 371
#     4  12  23  38  65  92 120 162 196 248 305 368
#     4  11  23  39  60  84 118 160 205 255 306 358
#     4  12  21  37  59  84 119 160 201 248 301 354
#     4  10  20  36  60  86 117 161 202 241 298 359
#     4  10  21  36  55  85 123 159 202 247 293 359
#     4  10  21  40  65  89 119 158 202 251 306 367
#
# _framework density 19.584
#
# number of rings (size 3 to 8) (size 9 to 14) (size 15 to 20)
#    0.000    1.385    4.615    1.154    0.000    3.385 
#    0.000    3.077    0.000    1.385    0.000    0.000 
#    0.000    0.000    0.000    0.000    0.000    0.000 
#
# Total GULP energy -290035.592775 kJ/mol
# GULP energy per Si atom -5577.607553 kJ/mol
# Density = 1.953943 g / cm^3
# Si number density = 19.584000 Si / 1000 Ang^3
#
#
#
# Elastic Constant Matrix: (Units=GPa)
#
#
# Indices 1 2 3 4 5 6 
#
# 1 45.6632 46.1807 45.1141 0.0000 0.0000 0.0000
# 2 46.1807 120.6779 28.9007 0.0000 0.0000 0.0000
# 3 45.1141 28.9007 83.1924 0.0000 0.0000 0.0000
# 4 0.0000 0.0000 0.0000 20.6506 0.0000 0.0000
# 5 0.0000 0.0000 0.0000 0.0000 15.9932 0.0000
# 6 0.0000 0.0000 0.0000 0.0000 0.0000 21.9515
#
#
#
# Elastic Compliance Matrix: (Units=1/GPa)
#
#
# Indices 1 2 3 4 5 6 
#
# 1 0.078212 -0.021567 -0.034921 0.000000 0.000000 0.000000
# 2 -0.021567 0.014985 0.006489 0.000000 0.000000 0.000000
# 3 -0.034921 0.006489 0.028703 0.000000 0.000000 0.000000
# 4 0.000000 0.000000 0.000000 0.048425 0.000000 0.000000
# 5 0.000000 0.000000 0.000000 0.000000 0.062527 0.000000
# 6 0.000000 0.000000 0.000000 0.000000 0.000000 0.045555
#
#
# Mechanical properties :
#
#
# Convention : Reuss Voigt Hill
#
# Bulk Modulus (GPa) = 45.65422 54.43607 50.04515
# Shear Modulus (GPa) = 12.96330 20.34158 16.65244
#
# Velocity S-wave (km/s) = 2.57560 3.22636 2.91917
# Velocity P-wave (km/s) = 5.67517 6.46032 6.08043
#
# Compressibility (1/GPa) = 0.02190378
#
# Stress axis : x y z
#
# Youngs Moduli (GPa) = 12.78581 66.73124 34.83946
#
# Poissons Ratio (x) = 1.43918 1.21663
# Poissons Ratio (y) = 0.27575 -0.22609
# Poissons Ratio (z) = 0.44649 -0.43305
#
# Static dielectric constant tensor:
#      x y z
#    x 1.715460 0.000000 0.000000 
#    y 0.000000 1.678760 0.000000 
#    z 0.000000 0.000000 1.708920 
# 
# From -- ./inp_files/53077.got.cif
#   From: 2010.05.17/outbox.cif.g08.bks.cpg/sg74_27_cif.got.tgz:53077.got - 2010.06.03 17:57:02.
