data_PCOD9538657
_publ_section_title
;
Structure prediction by ZEFSAII (Michael W. Deem and Ramdas Pophale) SiO2 
 PCOD9538657
Probable space group: I M M A
;
_chemical_formula_sum "Si O2"
_cell_formula_units_Z 116
_cell_length_a 26.962666
_cell_length_b 18.371852
_cell_length_c 11.691482
_cell_angle_alpha 90.000000
_cell_angle_beta 90.000000
_cell_angle_gamma 90.000000
_cell_volume 5791.423652
_symmetry_space_group_name_H-M "I M M A"
_symmetry_group_IT_number 74
_symmetry_cell_setting 'orthorhombic'
loop_
_space_group_symop_operation_xyz
x,y,z
-x,1/2-y,z
x,-y,-z
-x,1/2+y,-z
-x,-y,-z
x,1/2+y,-z
-x,y,z
x,1/2-y,z
1/2+x,1/2+y,1/2+z
1/2-x,-y,1/2+z
1/2+x,1/2-y,1/2-z
1/2-x,y,1/2-z
1/2-x,1/2-y,1/2-z
1/2+x,y,1/2-z
1/2-x,1/2+y,1/2+z
1/2+x,-y,1/2+z
loop_
_atom_site_type_symbol
_atom_site_label
_atom_site_fract_x
_atom_site_fract_y
_atom_site_fract_z
Si Si1 0.671532 0.833893 0.621035
Si Si2 0.500000 0.750000 0.790497
Si Si3 0.725657 0.980862 0.625594
Si Si4 0.589944 0.633977 0.805715
Si Si5 0.058684 0.968624 0.254639
Si Si6 0.195805 0.832635 0.301075
Si Si7 0.863506 0.902678 0.107150
Si Si8 0.627641 0.581146 0.042594
O O1 0.687025 0.750000 0.603929
O O2 0.714506 0.894487 0.626935
O O3 0.636764 0.840476 0.731385
O O4 0.639643 0.864135 0.514151
O O5 0.543746 0.686938 0.791907
O O6 0.750000 0.996257 0.750000
O O7 0.748453 0.000000 0.500000
O O8 0.675021 0.029435 0.621116
O O9 0.574619 0.552744 0.765776
O O10 0.607098 0.627186 0.937140
O O11 0.083415 0.933208 0.142841
O O12 0.085253 0.927918 0.360876
O O13 0.000000 0.961776 0.258715
O O14 0.195647 0.750000 0.341914
O O15 0.250000 0.847645 0.250000
O O16 0.157222 0.844688 0.198244
O O17 0.176044 0.884406 0.400099
O O18 0.637980 0.500000 0.000000
#
# Coordination Sequence:
#
# PCOD9538657 Si02
#       8
#    16   4  16  16  16  16  16  16
#     4  11  23  42  63  86 133 170 207 263 329 393
#     4  12  24  36  62  94 134 176 204 258 330 400
#     4  10  22  43  69  98 129 171 226 274 334 398
#     4  11  22  39  60  91 127 168 209 255 318 391
#     4  10  20  39  65  92 120 159 214 266 315 381
#     4  10  21  40  66  93 122 161 212 265 324 383
#     4  10  21  42  63  90 125 165 214 266 327 375
#     4   9  22  40  64  91 130 166 209 265 325 387
#
# _framework density 20.029619
#
# number of rings (size 3 to 8) (size 9 to 14) (size 15 to 20)
#    0.000    1.793    2.759    0.828    1.931    1.103 
#   11.172    0.690    0.000   10.759    0.000    0.000 
#    0.000    0.000    0.000    0.000    0.000    0.000 
#
# Total GULP energy -323352.207429 kJ/mol
# GULP energy per Si atom -5575.038059 kJ/mol
# Density = 1.998403 g / cm^3
# Si number density = 20.029619 Si / 1000 Ang^3
#
#
#
# Elastic Constant Matrix: (Units=GPa)
#
#
# Indices 1 2 3 4 5 6 
#
# 1 68.1348 26.6682 10.4348 0.0000 0.0000 0.0000
# 2 26.6682 117.3749 37.4349 0.0000 0.0000 0.0000
# 3 10.4348 37.4349 81.4977 0.0000 0.0000 0.0000
# 4 0.0000 0.0000 0.0000 -4.9858 0.0000 0.0000
# 5 0.0000 0.0000 0.0000 0.0000 15.5215 0.0000
# 6 0.0000 0.0000 0.0000 0.0000 0.0000 75.4300
#
#
#
# Elastic Compliance Matrix: (Units=1/GPa)
#
#
# Indices 1 2 3 4 5 6 
#
# 1 0.016123 -0.003521 -0.000447 0.000000 0.000000 0.000000
# 2 -0.003521 0.010751 -0.004487 0.000000 0.000000 0.000000
# 3 -0.000447 -0.004487 0.014389 0.000000 0.000000 0.000000
# 4 0.000000 0.000000 0.000000 -0.200569 0.000000 0.000000
# 5 0.000000 0.000000 0.000000 0.000000 0.064427 0.000000
# 6 0.000000 0.000000 0.000000 0.000000 0.000000 0.013257
#
#
# Mechanical properties :
#
#
# Convention : Reuss Voigt Hill
#
# Bulk Modulus (GPa) = 41.06404 46.23147 43.64775
# Shear Modulus (GPa) = -88.34898 30.02444 -29.16227
#
# Velocity S-wave (km/s) = -6.64868 3.87590 -3.81984
# Velocity P-wave (km/s) = 6.19627 6.56976 1.54402
#
# Compressibility (1/GPa) = 0.02435221
#
# Stress axis : x y z
#
# Youngs Moduli (GPa) = 62.02208 93.01598 69.49847
#
# Poissons Ratio (x) = 0.32748 0.03108
# Poissons Ratio (y) = 0.21836 0.31187
# Poissons Ratio (z) = 0.02774 0.41741
#
# Static dielectric constant tensor:
#      x y z
#    x 1.687750 0.000000 0.000000 
#    y 0.000000 1.719470 0.000000 
#    z 0.000000 0.000000 1.741450 
# 
# From -- ./inp_files/26420.got.cif
#   From: 2010.05.17/outbox.cif.g08.bks.cpg/sg74_14_cif.got.tgz:26420.got - 2010.06.03 17:57:02.
